data_functionalizedCrystal
_audit_creation_method	'MofGen! by Chris Wilmer'
_symmetry_space_group_name_H-M	'P1'
_symmetry_Int_Tables_number	1
_symmetry_cell_setting	triclinic
loop_
_symmetry_equiv_pos_as_xyz
  x,y,z
_cell_length_a	12.827893
_cell_length_b	12.645330
_cell_length_c	12.827885
_cell_angle_alpha	89.971022
_cell_angle_beta	89.980728
_cell_angle_gamma	90.017662
loop_
_atom_site_label
_atom_site_type_symbol
_atom_site_fract_x
_atom_site_fract_y
_atom_site_fract_z
Zn1	Zn	1.597653	-0.421989	-0.590855
Zn2	Zn	2.097653	0.078011	-0.090855
Zn3	Zn	1.597540	-0.599290	-0.416117
Zn4	Zn	2.097540	-0.099290	0.083883
Zn5	Zn	1.422894	-0.422040	-0.416128
Zn6	Zn	1.922894	0.077960	0.083872
Zn7	Zn	1.422873	-0.599211	-0.590817
Zn8	Zn	1.922873	-0.099211	-0.090817
O9	O	1.510240	-0.510632	-0.503479
O10	O	2.010240	-0.010632	-0.003479
O11	O	1.743874	-0.445520	-0.567686
O12	O	2.243874	0.054480	-0.067686
O13	O	1.574335	-0.575832	-0.269883
O14	O	2.074335	-0.075832	0.230117
O15	O	1.446133	-0.273686	-0.439326
O16	O	1.946133	0.226314	0.060674
O17	O	1.743791	-0.575782	-0.439308
O18	O	2.243791	-0.075782	0.060692
O19	O	1.574527	-0.273648	-0.567697
O20	O	2.074527	0.226352	-0.067697
O21	O	1.446023	-0.445608	-0.269891
O22	O	1.946023	0.054392	0.230109
O23	O	1.276655	-0.445531	-0.439290
O24	O	1.776655	0.054469	0.060710
O25	O	1.446096	-0.575647	-0.737058
O26	O	1.946096	-0.075647	-0.237058
O27	O	1.276639	-0.575697	-0.567633
O28	O	1.776639	-0.075697	-0.067633
O29	O	1.574506	-0.445443	-0.737086
O30	O	2.074506	0.054557	-0.237086
O31	O	1.574314	-0.747626	-0.439271
O32	O	2.074314	-0.247626	0.060729
O33	O	1.445986	-0.747568	-0.567623
O34	O	1.945986	-0.247568	-0.067623
C35	C	1.238730	-0.510612	-0.503459
C36	C	1.738730	-0.010612	-0.003459
C37	C	1.122577	-0.510629	-0.503476
C38	C	1.622577	-0.010629	-0.003476
C39	C	1.510164	-0.786062	-0.503465
C40	C	2.010164	-0.286062	-0.003465
C41	C	1.510227	-0.903892	-0.503493
C42	C	2.010227	-0.403892	-0.003493
C43	C	1.070812	-0.575140	-0.566886
C44	C	1.570812	-0.075140	-0.066886
C45	C	0.950762	-0.575159	-0.566904
C46	C	1.450762	-0.075159	-0.066904
C47	C	1.429829	-1.071464	-0.584488
C48	C	1.929829	-0.571464	-0.084488
C49	C	1.429418	-0.948904	-0.584228
C50	C	1.929418	-0.448904	-0.084228
C51	C	1.480414	-0.948494	-0.393362
C52	C	1.980414	-0.448494	0.106638
C53	C	1.479923	-1.071093	-0.393854
C54	C	1.979923	-0.571093	0.106146
C55	C	1.620929	-1.070979	-0.531736
C56	C	2.120929	-0.570979	-0.031736
C57	C	1.620251	-0.948372	-0.534144
C58	C	2.120251	-0.448372	-0.034144
C59	C	1.782810	-0.510654	-0.503500
C60	C	2.282810	-0.010654	-0.003500
C61	C	1.898963	-0.510663	-0.503509
C62	C	2.398963	-0.010663	-0.003509
C63	C	1.510311	-0.510531	-0.776050
C64	C	2.010311	-0.010531	-0.276050
C65	C	1.510341	-0.510487	-0.892203
C66	C	2.010341	-0.010487	-0.392203
C67	C	1.510345	-0.234127	-0.503517
C68	C	2.010345	0.265873	-0.003517
C69	C	1.510390	-0.116297	-0.503533
C70	C	2.010390	0.383703	-0.003533
C71	C	1.573890	-0.446045	-0.944001
C72	C	2.073890	0.053955	-0.444001
C73	C	1.573923	-0.445999	-1.064052
C74	C	2.073923	0.054001	-0.564052
C75	C	1.510229	-0.510657	-0.231969
C76	C	2.010229	-0.010657	0.268031
C77	C	1.510401	-0.510402	-0.115817
C78	C	2.010401	-0.010402	0.384183
H79	H	1.115371	-0.630352	-0.621164
H80	H	1.615371	-0.130352	-0.121164
H81	H	1.347469	-0.919671	-0.565543
H82	H	1.847469	-0.419671	-0.065543
N83	N	1.063564	-0.437490	-0.431574
N84	N	1.563564	0.062510	0.068426
H85	H	1.082470	-0.453850	-0.356863
H86	H	1.582470	0.046150	0.143137
H87	H	1.082547	-0.361774	-0.447994
H88	H	1.582547	0.138226	0.052006
N89	N	1.645981	-0.372903	-1.123049
N90	N	2.145981	0.127097	-0.623049
H91	H	1.688364	-0.329928	-1.072004
H92	H	2.188364	0.170072	-0.572004
H93	H	1.694301	-0.416076	-1.168336
H94	H	2.194301	0.083924	-0.668336
N95	N	1.454292	-1.110422	-0.693015
N96	N	1.954292	-0.610422	-0.193015
H97	H	1.468438	-1.048035	-0.740140
H98	H	1.968438	-0.548035	-0.240140
H99	H	1.517814	-1.157528	-0.690667
H100	H	2.017814	-0.657528	-0.190667
N101	N	1.656962	-1.111824	-0.636301
N102	N	2.156962	-0.611824	-0.136301
H103	H	1.601988	-1.160125	-0.666451
H104	H	2.101988	-0.660125	-0.166451
H105	H	1.668850	-1.050284	-0.685097
H106	H	2.168850	-0.550284	-0.185097
N107	N	1.438323	-0.583474	-1.056815
N108	N	1.938323	-0.083474	-0.556815
H109	H	1.363653	-0.567006	-1.075753
H110	H	1.863653	-0.067006	-0.575753
H111	H	1.454590	-0.659205	-1.075760
H112	H	1.954590	-0.159205	-0.575760
N113	N	1.454112	-0.908941	-0.692395
N114	N	1.954112	-0.408941	-0.192395
H115	H	1.525142	-0.935291	-0.714270
H116	H	2.025142	-0.435291	-0.214270
H117	H	1.399788	-0.935704	-0.742885
H118	H	1.899788	-0.435704	-0.242885
H119	H	0.906245	-0.630392	-0.621189
H120	H	1.406245	-0.130392	-0.121189
N121	N	1.374490	-0.907959	-0.361149
N122	N	1.874490	-0.407959	0.138851
H123	H	1.325742	-0.969650	-0.349859
H124	H	1.825742	-0.469650	0.150141
H125	H	1.381179	-0.866338	-0.294309
H126	H	1.881179	-0.366338	0.205691
N127	N	0.957903	-0.437493	-0.431586
N128	N	1.457903	0.062507	0.068414
H129	H	1.003159	-0.480547	-0.383119
H130	H	1.503159	0.019453	0.116881
H131	H	1.003157	-0.388463	-0.474242
H132	H	1.503157	0.111537	0.025758
N133	N	1.321953	-1.112388	-0.560063
N134	N	1.821953	-0.612388	-0.060063
H135	H	1.325040	-1.159843	-0.496786
H136	H	1.825040	-0.659843	0.003214
H137	H	1.273963	-1.050827	-0.545547
H138	H	1.773963	-0.550827	-0.045547
N139	N	1.554253	-1.110411	-0.311229
N140	N	2.054253	-0.610411	0.188771
H141	H	1.626815	-1.083632	-0.326700
H142	H	2.126815	-0.583632	0.173300
H143	H	1.531147	-1.083654	-0.240746
H144	H	2.031147	-0.583654	0.259254
H145	H	1.537231	-0.919340	-0.331396
H146	H	2.037231	-0.419340	0.168604
H147	H	1.628268	-0.390905	-0.899471
H148	H	2.128268	0.109095	-0.399471
N149	N	1.703953	-0.907777	-0.461739
N150	N	2.203953	-0.407777	0.038261
H151	H	1.671593	-0.859767	-0.407797
H152	H	2.171593	-0.359767	0.092203
H153	H	1.738780	-0.969450	-0.425825
H154	H	2.238780	-0.469450	0.074175
N155	N	1.438295	-0.583510	-0.951187
N156	N	1.938295	-0.083510	-0.451187
H157	H	1.480793	-0.632581	-0.996475
H158	H	1.980793	-0.132581	-0.496475
H159	H	1.395889	-0.626453	-0.900068
H160	H	1.895889	-0.126453	-0.400068
H161	H	1.680949	-1.099972	-0.472773
H162	H	2.180949	-0.599972	0.027227
N163	N	1.372890	-1.109102	-0.362205
N164	N	1.872890	-0.609102	0.137795
H165	H	1.319422	-1.081548	-0.413206
H166	H	1.819422	-0.581548	0.086794
H167	H	1.371593	-1.188960	-0.362194
H168	H	1.871593	-0.688960	0.137806
H169	H	1.642733	-0.919216	-0.615195
H170	H	2.142733	-0.419216	-0.115195
