data_functionalizedCrystal
_audit_creation_method	'MofGen! by Chris Wilmer'
_symmetry_space_group_name_H-M	'P1'
_symmetry_Int_Tables_number	1
_symmetry_cell_setting	triclinic
loop_
_symmetry_equiv_pos_as_xyz
  x,y,z
_cell_length_a	23.532407
_cell_length_b	23.532407
_cell_length_c	9.730223
_cell_angle_alpha	89.994043
_cell_angle_beta	90.002492
_cell_angle_gamma	82.848712
loop_
_atom_site_label
_atom_site_type_symbol
_atom_site_fract_x
_atom_site_fract_y
_atom_site_fract_z
O1	O	0.755256	0.069133	-0.114217
O2	O	0.589393	0.079136	-0.114241
O3	O	0.677326	-0.008797	-0.114203
O4	O	0.667323	0.157066	-0.114255
O5	O	0.677325	-0.008795	0.114377
O6	O	0.589392	0.079138	0.114339
O7	O	0.755255	0.069135	0.114363
Zn8	Zn	0.672323	0.074137	0.150643
Zn9	Zn	0.672325	0.074134	-0.150521
O10	O	0.667322	0.157068	0.114325
C11	C	0.568176	0.078882	0.000047
C12	C	0.504959	0.078116	0.000039
C13	C	0.238792	0.022921	0.000093
C14	C	0.298192	0.023632	0.000093
O15	O	0.334937	-0.020153	0.000154
N16	N	0.320818	0.075909	0.000067
C17	C	0.284041	0.127477	0.000056
O18	O	0.308740	0.172007	0.000035
C19	C	0.224642	0.126765	0.000066
C20	C	0.202019	0.074485	0.000078
C21	C	0.216169	-0.029354	0.000107
C22	C	0.156772	-0.030066	0.000105
C23	C	0.119999	0.021499	0.000089
C24	C	0.142623	0.073774	0.000076
C25	C	0.187865	0.178333	0.000065
C26	C	0.128463	0.177616	0.000077
C27	C	0.105840	0.125336	0.000088
C28	C	0.046454	0.124627	0.000059
N29	N	0.023828	0.072351	0.000085
C30	C	0.060600	0.020787	0.000100
C31	C	0.408783	0.128968	0.000036
C32	C	0.468181	0.129681	0.000016
C33	C	0.482328	0.025836	0.000056
C34	C	0.422929	0.025124	0.000066
C35	C	0.386157	0.076692	0.000062
C36	C	-0.064136	0.019297	0.000094
C37	C	-0.123538	0.018590	0.000087
C38	C	-0.137680	0.122435	0.000055
C39	C	-0.078284	0.123142	0.000055
C40	C	-0.041512	0.071568	0.000080
O41	O	0.009675	0.168390	0.000003
O42	O	0.035892	-0.023737	0.000138
C43	C	0.677071	-0.030012	0.000091
C44	C	0.676305	-0.093229	0.000101
C45	C	0.723538	-0.492332	0.000032
C46	C	0.722827	-0.551733	0.000022
O47	O	0.766613	-0.588477	-0.000023
N48	N	0.670551	-0.574359	0.000015
C49	C	0.618982	-0.537581	0.000005
O50	O	0.574452	-0.562281	-0.000002
C51	C	0.619695	-0.478182	0.000006
C52	C	0.671974	-0.455559	0.000027
C53	C	0.775814	-0.469709	0.000051
C54	C	0.776525	-0.410313	0.000064
C55	C	0.724961	-0.373540	0.000059
C56	C	0.672685	-0.396163	0.000040
C57	C	0.568127	-0.441406	-0.000014
C58	C	0.568843	-0.382003	-0.000014
C59	C	0.621123	-0.359381	0.000006
C60	C	0.621832	-0.299994	0.000047
N61	N	0.674109	-0.277368	0.000053
C62	C	0.725673	-0.314141	0.000059
C63	C	0.617491	-0.662324	0.000002
C64	C	0.616778	-0.721722	0.000011
C65	C	0.720623	-0.735869	0.000025
C66	C	0.721335	-0.676470	0.000025
C67	C	0.669767	-0.639698	0.000008
C68	C	0.727163	-0.189404	0.000088
C69	C	0.727869	-0.130002	0.000107
C70	C	0.624025	-0.115860	0.000086
C71	C	0.623318	-0.175257	0.000074
C72	C	0.674891	-0.212028	0.000071
O73	O	0.578069	-0.263215	0.000086
O74	O	0.770196	-0.289433	0.000049
C75	C	0.776472	0.069389	0.000073
C76	C	0.839689	0.070155	0.000072
C77	C	0.667577	0.178283	0.000029
C78	C	0.668343	0.241500	0.000009
N79	N	0.672327	0.074139	0.356179
N80	N	0.672326	0.074128	-0.356057
C81	C	0.711273	0.035215	0.428122
C82	C	0.711272	0.035208	0.572005
C83	C	0.633375	0.113054	0.571990
C84	C	0.633374	0.113057	0.428110
C85	C	0.756248	-0.009727	0.428132
C86	C	0.756246	-0.009734	0.572015
H87	H	-0.034204	-0.022699	0.000114
H88	H	0.098525	0.219610	0.000080
C89	C	0.590529	0.155869	0.348966
C90	C	0.547713	0.198707	0.428084
C91	C	0.504866	0.241520	0.348938
C92	C	0.504835	0.241495	0.190675
C93	C	0.547653	0.198656	0.111549
C94	C	0.590500	0.155843	0.190695
H95	H	0.547734	0.198727	0.545247
H96	H	0.473169	0.273233	0.407513
H97	H	0.473117	0.273188	0.132087
H98	H	0.547632	0.198636	-0.005614
H99	H	0.622197	0.124130	0.132120
C100	C	0.783893	-0.229847	0.000094
C101	C	0.797686	-0.272635	0.118788
C102	C	0.854415	-0.313077	0.118805
C103	C	0.897352	-0.310732	0.000128
C104	C	0.883560	-0.267943	-0.118575
C105	C	0.826831	-0.227500	-0.118592
H106	H	0.765901	-0.274372	0.206648
H107	H	0.864625	-0.344753	0.206678
H108	H	0.939347	-0.340670	0.000141
H109	H	0.915346	-0.266205	-0.206435
H110	H	0.816621	-0.195825	-0.206464
C111	C	0.560761	-0.621876	0.000008
C112	C	0.517826	-0.624206	-0.118686
C113	C	0.461097	-0.583763	-0.118681
C114	C	0.447303	-0.540990	0.000018
C115	C	0.490240	-0.538658	0.118721
C116	C	0.546969	-0.579102	0.118716
H117	H	0.528036	-0.655871	-0.206562
H118	H	0.429313	-0.585489	-0.206553
H119	H	0.405309	-0.511051	0.000022
H120	H	0.480030	-0.506993	0.206597
H121	H	0.578753	-0.577375	0.206588
H122	H	0.747152	-0.053368	0.389090
C123	C	0.811844	0.008211	0.367837
C124	C	0.869884	-0.026894	0.401053
C125	C	0.925479	-0.008951	0.340760
C126	C	0.923033	0.044096	0.247250
C127	C	0.864990	0.079205	0.214029
C128	C	0.809395	0.061262	0.274322
H129	H	0.871697	-0.066165	0.470279
H130	H	0.968446	-0.034941	0.365353
H131	H	0.964188	0.057378	0.202616
H132	H	0.863178	0.118476	0.144802
H133	H	0.766428	0.087252	0.249729
H134	H	0.743002	-0.050907	0.616641
H135	H	0.486595	0.172252	-0.000013
H136	H	0.799877	-0.000604	0.611069
C137	C	0.131895	-0.087576	0.000131
C138	C	0.145912	-0.130306	0.118846
C139	C	0.121040	-0.187821	0.118876
C140	C	0.082152	-0.202604	0.000192
C141	C	0.068133	-0.159873	-0.118532
C142	C	0.093005	-0.102359	-0.118563
H143	H	0.174701	-0.119364	0.206712
H144	H	0.131418	-0.219453	0.206764
H145	H	0.063741	-0.245180	0.000214
H146	H	0.039344	-0.170816	-0.206398
H147	H	0.082627	-0.070726	-0.206451
H148	H	0.580747	-0.193677	0.000096
C149	C	0.256612	-0.086082	0.000114
C150	C	0.254280	-0.129017	0.118813
C151	C	0.294719	-0.185749	0.118807
C152	C	0.337490	-0.199546	0.000101
C153	C	0.339824	-0.156609	-0.118607
C154	C	0.299385	-0.099877	-0.118601
H155	H	0.222617	-0.118805	0.206694
H156	H	0.292991	-0.217533	0.206683
H157	H	0.367426	-0.241542	0.000097
H158	H	0.371488	-0.166821	-0.206488
H159	H	0.301113	-0.068093	-0.206477
H160	H	0.404515	-0.017447	0.000076
C161	C	0.368336	0.185698	0.000009
C162	C	0.370668	0.228624	-0.118710
C163	C	0.330225	0.285353	-0.118735
C164	C	0.287449	0.299156	-0.000042
C165	C	0.285115	0.256229	0.118686
C166	C	0.325558	0.199500	0.118711
H167	H	0.402335	0.218407	-0.206582
H168	H	0.331953	0.317130	-0.206626
H169	H	0.257511	0.341150	-0.000061
H170	H	0.253448	0.266446	0.206558
H171	H	0.323830	0.167723	0.206602
C172	C	-0.053391	0.180646	0.000026
C173	C	-0.067393	0.223386	0.118704
C174	C	-0.042503	0.280890	0.118688
C175	C	-0.003611	0.295655	-0.000006
C176	C	0.010393	0.252914	-0.118694
C177	C	-0.014497	0.195410	-0.118677
H178	H	-0.096185	0.212457	0.206577
H179	H	-0.052870	0.312530	0.206549
H180	H	0.014814	0.338223	-0.000018
H181	H	0.039185	0.263843	-0.206566
H182	H	-0.004130	0.163771	-0.206538
H183	H	0.601661	0.144740	0.630571
H184	H	0.525555	-0.459814	-0.000039
H185	H	0.512280	-0.016150	0.000068
H186	H	-0.141954	-0.023984	0.000093
H187	H	0.763906	-0.658055	0.000041
H188	H	0.206274	0.220904	0.000049
H189	H	0.819097	-0.391900	0.000075
H190	H	-0.167631	0.164417	0.000035
H191	H	0.770443	-0.111587	0.000127
H192	H	0.817806	-0.499644	0.000051
H193	H	0.762610	-0.765821	0.000024
H194	H	0.526850	-0.352065	-0.000030
H195	H	0.574207	-0.740135	0.000018
H196	H	0.582043	-0.085909	0.000086
