data_functionalizedCrystal
_audit_creation_method	'MofGen! by Chris Wilmer'
_symmetry_space_group_name_H-M	'P1'
_symmetry_Int_Tables_number	1
_symmetry_cell_setting	triclinic
loop_
_symmetry_equiv_pos_as_xyz
  x,y,z
_cell_length_a	15.995350
_cell_length_b	8.965430
_cell_length_c	15.995350
_cell_angle_alpha	90.002652
_cell_angle_beta	96.507625
_cell_angle_gamma	90.000162
loop_
_atom_site_label
_atom_site_type_symbol
_atom_site_fract_x
_atom_site_fract_y
_atom_site_fract_z
O1	O	1.110985	0.123905	-0.107920
O2	O	0.867210	0.123935	-0.121248
O3	O	0.995762	0.123918	0.007304
O4	O	0.982434	0.123923	-0.236472
O5	O	0.995751	-0.124161	0.007295
O6	O	0.867199	-0.124144	-0.121256
O7	O	1.110975	-0.124173	-0.107929
Cu8	Cu	0.989086	-0.146810	-0.114593
Cu9	Cu	0.989099	0.146572	-0.114583
O10	O	0.982423	-0.124156	-0.236480
C11	C	0.836010	-0.000100	-0.120701
C12	C	0.743060	-0.000089	-0.119049
N13	N	0.989083	-0.353159	-0.114600
C14	C	0.405312	-0.000120	-0.113117
C15	C	0.452746	-0.000675	-0.021565
C16	C	0.549436	-0.000105	-0.023217
C17	C	0.572873	-0.000105	-0.116060
C18	C	0.531792	0.141555	-0.161211
C19	C	0.435156	0.141663	-0.158911
C20	C	0.434805	-0.140449	-0.160813
C21	C	0.531750	-0.142311	-0.160791
C22	C	0.667570	-0.000092	-0.117727
C23	C	0.310614	-0.000123	-0.111452
C24	C	0.929614	-0.450457	-0.174031
C25	C	1.005277	-0.549880	-0.190278
C26	C	0.913452	-0.549864	-0.098360
C27	C	1.064784	-0.450393	-0.130885
C28	C	0.972910	-0.450368	-0.038933
C29	C	1.048627	-0.549746	-0.055148
C30	C	1.142175	-0.000135	-0.108476
C31	C	1.235125	-0.000136	-0.110127
C32	C	0.995205	-0.000118	0.038494
C33	C	0.993553	-0.000110	0.131444
N34	N	0.989108	0.352921	-0.114570
C35	C	0.982980	-0.000116	-0.267671
C36	C	0.984631	-0.000115	-0.360621
C37	C	0.987621	-0.000114	0.469192
C38	C	0.896069	0.000454	0.421758
C39	C	0.897721	-0.000106	0.325068
C40	C	0.990564	-0.000111	0.301631
C41	C	1.035714	-0.141779	0.342704
C42	C	1.033414	-0.141897	0.439340
C43	C	1.035318	0.140214	0.439708
C44	C	1.035296	0.142087	0.342762
C45	C	0.992231	-0.000114	0.206934
C46	C	0.985956	-0.000121	0.563890
H47	H	0.434220	-0.102265	0.015027
H48	H	0.416852	0.247557	-0.125978
O49	O	0.994172	-0.281429	0.305106
H50	H	0.927086	-0.282827	0.316787
O51	O	0.567913	-0.281134	-0.117123
H52	H	0.538528	-0.381139	-0.149107
O53	O	0.550494	0.148534	-0.251564
H54	H	0.520766	0.249592	-0.282029
O55	O	0.392723	-0.141737	-0.250220
H56	H	0.410014	-0.039015	-0.282972
H57	H	0.402908	0.148092	-0.226127
O58	O	0.426796	0.133130	0.026705
H59	H	0.380264	0.200031	-0.014227
H60	H	0.861982	-0.101824	0.297199
H61	H	1.002285	0.246889	0.315517
O62	O	1.124983	0.153423	0.322426
H63	H	1.139141	0.057450	0.282511
O64	O	0.828721	-0.607745	-0.080170
H65	H	0.779463	-0.567963	-0.129602
O66	O	1.122442	-0.150464	0.482068
H67	H	1.158634	-0.052569	0.463557
H68	H	0.560171	0.246981	-0.129844
H69	H	0.414265	-0.247824	-0.130886
O70	O	0.954741	-0.392403	0.045782
H71	H	0.891884	-0.432167	0.059107
H72	H	0.859481	0.102047	0.440293
O73	O	0.586355	0.134643	0.024113
H74	H	0.535135	0.199663	0.048265
H75	H	1.102819	0.141163	0.471468
O76	O	0.587092	-0.134610	0.023801
H77	H	0.656345	-0.134341	0.022664
O78	O	0.552102	-0.153669	-0.250473
H79	H	0.592015	-0.057699	-0.264629
O80	O	0.863059	-0.392685	-0.240657
H81	H	0.876704	-0.432542	-0.303395
H82	H	1.018974	-0.593589	-0.254255
H83	H	1.128768	-0.406883	-0.144685
H84	H	1.098984	-0.593068	-0.004873
O85	O	0.850693	0.134389	0.287411
H86	H	0.826561	0.200416	0.338256
O87	O	0.847803	-0.133365	0.447689
H88	H	0.888736	-0.200280	0.494212
O89	O	0.989783	-0.282153	0.463587
H90	H	0.970518	-0.349253	0.406317
H91	H	1.103923	-0.147051	0.328578
O92	O	0.995677	0.282455	0.466908
H93	H	0.941530	0.254713	0.501749
