data_functionalizedCrystal
_audit_creation_method	'MofGen! by Chris Wilmer'
_symmetry_space_group_name_H-M	'P1'
_symmetry_Int_Tables_number	1
_symmetry_cell_setting	triclinic
loop_
_symmetry_equiv_pos_as_xyz
  x,y,z
_cell_length_a	18.215407
_cell_length_b	16.120484
_cell_length_c	18.215399
_cell_angle_alpha	92.867230
_cell_angle_beta	89.983176
_cell_angle_gamma	92.926015
loop_
_atom_site_label
_atom_site_type_symbol
_atom_site_fract_x
_atom_site_fract_y
_atom_site_fract_z
Zn1	Zn	1.110191	-0.331886	-0.430959
Zn2	Zn	1.103863	-0.471313	-0.314128
Zn3	Zn	0.987128	-0.331919	-0.307908
Zn4	Zn	0.980849	-0.471261	-0.437151
O5	O	1.045508	-0.401595	-0.372536
O6	O	1.212335	-0.350389	-0.415473
O7	O	1.088358	-0.452858	-0.210320
O8	O	1.008729	-0.215249	-0.319036
O9	O	1.207687	-0.452826	-0.329638
O10	O	1.099142	-0.215225	-0.409441
O11	O	1.002593	-0.350446	-0.205750
O12	O	0.883312	-0.350395	-0.325040
O13	O	0.998027	-0.452737	-0.539312
O14	O	0.878698	-0.452769	-0.419995
O15	O	1.093054	-0.350339	-0.534763
O16	O	1.082269	-0.587972	-0.335642
O17	O	0.991891	-0.587933	-0.426026
C18	C	0.854302	-0.401580	-0.372515
C19	C	0.772503	-0.401594	-0.372524
C20	C	0.581922	-0.454984	-0.421911
C21	C	0.505063	-0.454987	-0.421920
C22	C	0.509845	-0.348220	-0.323179
C23	C	0.586703	-0.348214	-0.323173
C24	C	0.622739	-0.401601	-0.372539
C25	C	0.469023	-0.401610	-0.372553
C26	C	0.385689	-0.401612	-0.372563
C27	C	0.706078	-0.401597	-0.372530
C28	C	1.035732	-0.618203	-0.382197
C29	C	1.031617	-0.710869	-0.386355
C30	C	1.024109	-0.880530	-0.393960
C31	C	1.067038	-0.921819	-0.351125
C32	C	1.062861	-1.016224	-0.355356
C33	C	1.028286	-0.786116	-0.389729
C34	C	1.237460	-0.401610	-0.372559
C35	C	1.319259	-0.401616	-0.372568
C36	C	1.045546	-0.401528	-0.564487
C37	C	1.045562	-0.401500	-0.646284
C38	C	1.055342	-0.184141	-0.362854
C39	C	1.059533	-0.091475	-0.358728
C40	C	1.000946	-0.348138	-0.832098
C41	C	1.000959	-0.348121	-0.908956
C42	C	1.090270	-0.454762	-0.913704
C43	C	1.090252	-0.454783	-0.836848
C44	C	1.045591	-0.401466	-0.796046
C45	C	1.045623	-0.401428	-0.949761
C46	C	1.045638	-0.401411	-1.033094
C47	C	1.045575	-0.401484	-0.712708
C48	C	1.045515	-0.401601	-0.181331
C49	C	1.045652	-0.401394	-0.099523
H50	H	0.480495	-0.304756	-0.282986
C51	C	1.139225	-0.513590	-0.958600
N52	N	1.176038	-0.557966	-0.992419
H53	H	1.126610	-0.498212	-0.807494
H54	H	1.106928	-0.886266	-0.311273
H55	H	0.964579	-0.304724	-0.798879
C56	C	0.621560	-0.513705	-0.476220
N57	N	0.651413	-0.557933	-0.517129
C58	C	0.970215	-0.928558	-0.447786
N59	N	0.929619	-0.964742	-0.488324
C60	C	0.460168	-0.513721	-0.476228
N61	N	0.426353	-0.557964	-0.517132
C62	C	0.631604	-0.289485	-0.268857
N63	N	0.665424	-0.245251	-0.227948
H64	H	0.964603	-0.304697	-0.938305
