data_functionalizedCrystal
_audit_creation_method	'MofGen! by Chris Wilmer'
_symmetry_space_group_name_H-M	'P1'
_symmetry_Int_Tables_number	1
_symmetry_cell_setting	triclinic
loop_
_symmetry_equiv_pos_as_xyz
  x,y,z
_cell_length_a	15.995350
_cell_length_b	16.109302
_cell_length_c	14.586319
_cell_angle_alpha	89.994552
_cell_angle_beta	89.998440
_cell_angle_gamma	83.477078
loop_
_atom_site_label
_atom_site_type_symbol
_atom_site_fract_x
_atom_site_fract_y
_atom_site_fract_z
O1	O	0.107627	1.103159	-0.076277
O2	O	0.121020	0.861101	-0.076269
O3	O	-0.007566	0.988747	-0.076272
O4	O	0.236213	0.975513	-0.076274
O5	O	-0.007568	0.988738	0.076208
O6	O	0.121018	0.861092	0.076212
O7	O	0.107625	1.103151	0.076204
Cu8	Cu	0.114321	0.982121	0.090130
Cu9	Cu	0.114324	0.982131	-0.090196
O10	O	0.236211	0.975505	0.076207
C11	C	0.120476	0.830122	-0.000028
C12	C	0.118850	0.737826	-0.000025
C13	C	0.115087	0.525479	0.083083
C14	C	0.113549	0.438759	0.083080
C15	C	0.113556	0.438779	-0.083163
C16	C	0.115087	0.525499	-0.083159
C17	C	0.115857	0.568846	-0.000033
C18	C	0.112788	0.395406	-0.000040
C19	C	0.111121	0.301380	-0.000044
C20	C	0.117523	0.662878	-0.000029
C21	C	-0.038761	0.988196	-0.000034
C22	C	-0.131711	0.986555	-0.000039
C23	C	-0.469457	0.980665	-0.000036
C24	C	-0.421999	0.889758	-0.000375
C25	C	-0.325309	0.891398	-0.000031
C26	C	-0.301898	0.983587	-0.000038
C27	C	-0.342988	1.028420	0.087033
C28	C	-0.439623	1.026137	0.087106
C29	C	-0.439980	1.028025	-0.086293
C30	C	-0.343034	1.028003	-0.087444
C31	C	-0.207201	0.985243	-0.000036
C32	C	-0.564155	0.979012	-0.000031
C33	C	0.267407	0.976056	-0.000034
C34	C	0.360357	0.977696	-0.000034
C35	C	0.108169	1.134130	-0.000039
C36	C	0.109796	1.226426	-0.000048
N37	N	0.114319	0.982119	0.216962
N38	N	0.114319	0.982139	-0.217027
C39	C	0.057401	1.038660	0.451967
C40	C	0.057399	1.038662	0.547948
C41	C	0.171241	0.925593	0.547961
C42	C	0.171238	0.925587	0.451981
C43	C	0.114319	0.982125	0.403987
C44	C	0.114320	0.982133	0.595948
C45	C	0.114318	0.982135	0.700015
C46	C	0.114319	0.982122	0.299913
H47	H	0.112930	0.403475	-0.150841
C48	C	-0.087537	1.087496	0.577488
C49	C	-0.005166	1.100810	0.600687
H50	H	-0.126162	1.125869	0.610043
H51	H	-0.096643	1.032020	0.593232
H52	H	-0.095670	1.095584	0.513455
H53	H	0.002968	1.092715	0.664719
H54	H	0.003943	1.156299	0.584948
C55	C	0.221800	0.875402	0.695097
C56	C	0.233812	0.863456	0.600720
H57	H	0.260436	0.837045	0.727665
H58	H	0.165924	0.866371	0.710829
H59	H	0.230909	0.930892	0.710804
H60	H	0.224697	0.807968	0.585012
H61	H	0.289701	0.872481	0.584981
C62	C	0.283778	0.813824	0.461627
C63	C	0.233810	0.863441	0.399234
H64	H	0.322406	0.775463	0.429060
H65	H	0.248918	0.783922	0.499068
H66	H	0.313907	0.848440	0.499055
H67	H	0.203676	0.828826	0.361810
H68	H	0.268674	0.893346	0.361777
H69	H	-0.296877	0.856156	-0.062447
H70	H	0.011052	1.084695	0.412893
C71	C	0.043609	0.561514	0.224770
C72	C	0.115920	0.573132	0.174452
H73	H	0.044120	0.590936	0.281176
H74	H	0.042593	0.503667	0.236661
H75	H	-0.004928	0.582075	0.190603
H76	H	0.164457	0.552565	0.208617
H77	H	0.116944	0.630991	0.162564
C78	C	0.111181	0.305820	0.156891
C79	C	0.112697	0.391090	0.174444
H80	H	0.110647	0.276394	0.213299
H81	H	0.159727	0.285270	0.122751
H82	H	0.062131	0.297966	0.122732
H83	H	0.161751	0.398944	0.208597
H84	H	0.064146	0.411646	0.208599
C85	C	0.114950	0.516813	-0.247491
C86	C	0.115938	0.573173	-0.174528
H87	H	0.115478	0.546248	-0.303893
H88	H	0.065557	0.489332	-0.244040
H89	H	0.163154	0.476646	-0.244028
H90	H	0.067730	0.613338	-0.177987
H91	H	0.165335	0.600669	-0.177980
C92	C	-0.341931	1.027022	0.251634
C93	C	-0.304674	0.986375	0.174516
H94	H	-0.318274	1.001063	0.305640
H95	H	-0.400804	1.023529	0.250729
H96	H	-0.331968	1.084038	0.250841
H97	H	-0.314642	0.929360	0.175305
H98	H	-0.245788	0.989860	0.175422
C99	C	-0.505397	0.891559	-0.137366
C100	C	-0.447007	0.840701	-0.084658
H101	H	-0.520844	0.861268	-0.189396
H102	H	-0.480978	0.939617	-0.156948
H103	H	-0.553975	0.908270	-0.101501
H104	H	-0.398426	0.823994	-0.120521
H105	H	-0.471425	0.792628	-0.065077
H106	H	-0.441584	0.853581	0.061720
C107	C	-0.422203	1.172025	0.095575
C108	C	-0.483188	1.116232	0.092450
H109	H	-0.449097	1.227644	0.098883
H110	H	-0.388474	1.165730	0.041888
H111	H	-0.387689	1.160548	0.148084
H112	H	-0.517699	1.127706	0.039937
H113	H	-0.516932	1.122531	0.146142
C114	C	-0.520310	1.036743	0.226271
C115	C	-0.464326	0.981983	0.174969
H116	H	-0.535551	1.009481	0.280515
H117	H	-0.569289	1.053123	0.190931
H118	H	-0.494048	1.084758	0.242172
H119	H	-0.490590	0.933970	0.159062
H120	H	-0.415338	0.965591	0.210315
H121	H	-0.327691	1.095231	-0.092706
H122	H	-0.297435	0.855912	0.062494
C123	C	-0.219092	0.987118	-0.176755
C124	C	-0.306166	0.983818	-0.174405
H125	H	-0.196329	0.959842	-0.230442
H126	H	-0.193976	0.959967	-0.124120
H127	H	-0.207919	1.043785	-0.177312
H128	H	-0.317338	0.927150	-0.173841
H129	H	-0.331289	1.010966	-0.227054
H130	H	-0.328881	1.096148	0.090267
C131	C	-0.570314	1.118020	-0.090404
C132	C	-0.482882	1.118505	-0.087103
H133	H	-0.596801	1.173876	-0.090905
H134	H	-0.588361	1.089725	-0.038136
H135	H	-0.585075	1.090140	-0.144420
H136	H	-0.468121	1.146379	-0.033084
H137	H	-0.464828	1.146811	-0.139376
H138	H	-0.460511	0.998307	-0.152288
