data_functionalizedCrystal
_audit_creation_method	'MofGen! by Chris Wilmer'
_symmetry_space_group_name_H-M	'P1'
_symmetry_Int_Tables_number	1
_symmetry_cell_setting	triclinic
loop_
_symmetry_equiv_pos_as_xyz
  x,y,z
_cell_length_a	12.811457
_cell_length_b	15.944545
_cell_length_c	11.892095
_cell_angle_alpha	93.887265
_cell_angle_beta	91.498327
_cell_angle_gamma	83.771330
loop_
_atom_site_label
_atom_site_type_symbol
_atom_site_fract_x
_atom_site_fract_y
_atom_site_fract_z
O1	O	1.389207	0.115881	0.048407
O2	O	1.085848	0.126416	0.017305
O3	O	1.245814	-0.001049	0.033719
O4	O	1.229241	0.243346	0.031993
O5	O	1.232476	0.009562	0.220358
O6	O	1.072510	0.137027	0.203944
O7	O	1.375870	0.126492	0.235046
Zn8	Zn	1.222072	0.133445	0.249128
Zn9	Zn	1.239645	0.119464	0.003223
O10	O	1.215903	0.253957	0.218632
C11	C	1.040359	0.130806	0.106645
C12	C	0.924689	0.128068	0.094786
C13	C	0.692791	0.134477	0.275999
C14	C	0.584109	0.131904	0.264863
C15	C	0.598640	0.120344	0.061378
C16	C	0.707323	0.122917	0.072514
C17	C	0.754394	0.129985	0.179828
C18	C	0.863078	0.132563	0.190964
C19	C	0.877608	0.120997	-0.012520
C20	C	0.768925	0.118425	-0.023657
C21	C	1.238458	-0.027044	0.126969
C22	C	1.236398	-0.120309	0.126761
C23	C	1.131091	-0.391922	0.115942
C24	C	1.188439	-0.346096	0.029124
C25	C	1.229056	-0.456023	0.125976
C26	C	1.175315	-0.335662	0.213138
C27	C	1.232658	-0.291075	0.126363
C28	C	1.286383	-0.411430	0.039080
C29	C	1.273239	-0.400994	0.223175
C30	C	1.330661	-0.355201	0.136342
C31	C	1.226978	-0.551045	0.125752
C32	C	1.234744	-0.196056	0.126580
C33	C	1.421358	0.122102	0.145704
C34	C	1.537029	0.124840	0.157555
C35	C	1.223259	0.279952	0.125380
C36	C	1.225319	0.373217	0.125580
N37	N	1.210087	0.142986	0.416952
N38	N	1.251639	0.109916	-0.164600
C39	C	1.335039	0.043477	0.666422
C40	C	1.326669	0.050152	0.783905
C41	C	1.184972	0.163007	0.769403
C42	C	1.193342	0.156332	0.651920
C43	C	1.268379	0.096566	0.600434
C44	C	1.276754	0.089895	0.482949
C45	C	1.135052	0.202745	0.468449
C46	C	1.126682	0.209420	0.585932
H47	H	0.560298	0.114576	-0.025992
N48	N	0.913845	0.140190	0.306707
H49	H	0.900199	0.090310	0.350113
H50	H	0.992025	0.141168	0.299080
H51	H	1.333291	-0.444280	-0.034566
N52	N	0.743568	0.142113	0.391736
H53	H	0.688049	0.144573	0.450972
H54	H	0.796790	0.091474	0.401663
N55	N	1.113135	-0.292009	0.310569
H56	H	1.037805	-0.305110	0.302758
H57	H	1.144478	-0.312782	0.383738
N58	N	1.357675	0.025421	0.427430
H59	H	1.321320	-0.014926	0.374622
H60	H	1.407274	0.055247	0.383461
H61	H	0.533954	0.135567	0.343175
H62	H	1.396145	-0.005181	0.624502
H63	H	1.309016	-0.425136	0.305215
N64	N	1.045747	0.273875	0.641466
H65	H	1.050557	0.270048	0.725905
H66	H	1.059252	0.332414	0.622160
N67	N	1.442499	-0.333630	0.147737
H68	H	1.450621	-0.296057	0.218585
H69	H	1.491658	-0.387346	0.152036
N70	N	1.019353	-0.413719	0.104363
H71	H	1.001357	-0.443394	0.172552
H72	H	0.970163	-0.360169	0.098507
N73	N	0.718154	0.110794	-0.139397
H74	H	0.639957	0.109844	-0.131861
H75	H	0.731877	0.160680	-0.182747
H76	H	0.927776	0.117344	-0.090830
N77	N	1.398574	-0.007100	0.855080
H78	H	1.447380	-0.045969	0.804633
H79	H	1.441162	0.028286	0.908526
N80	N	1.104055	0.227463	0.824963
H81	H	1.117516	0.286036	0.805750
H82	H	1.031592	0.215840	0.796943
N83	N	1.141011	-0.314138	-0.079551
H84	H	1.065668	-0.327224	-0.087210
H85	H	1.143444	-0.251004	-0.078846
N86	N	1.063155	0.260016	0.397278
H87	H	1.079843	0.246722	0.315040
H88	H	0.987774	0.250761	0.410249
