data_functionalizedCrystal
_audit_creation_method	'MofGen! by Chris Wilmer'
_symmetry_space_group_name_H-M	'P1'
_symmetry_Int_Tables_number	1
_symmetry_cell_setting	triclinic
loop_
_symmetry_equiv_pos_as_xyz
  x,y,z
_cell_length_a	15.944551
_cell_length_b	14.044220
_cell_length_c	14.421503
_cell_angle_alpha	90.000302
_cell_angle_beta	89.988429
_cell_angle_gamma	88.343808
loop_
_atom_site_label
_atom_site_type_symbol
_atom_site_fract_x
_atom_site_fract_y
_atom_site_fract_z
O1	O	-1.123664	-0.122244	-0.077017
O2	O	-0.880243	-0.137316	-0.077040
O3	O	-0.998300	0.008205	-0.077020
O4	O	-1.005607	-0.267765	-0.077037
O5	O	-0.998316	0.008196	0.077204
O6	O	-0.880259	-0.137325	0.077183
O7	O	-1.123680	-0.122253	0.077207
Cu8	Cu	-1.001971	-0.129790	0.091277
Cu9	Cu	-1.001952	-0.129779	-0.091110
O10	O	-1.005624	-0.267774	0.077186
C11	C	-0.848910	-0.136695	0.000069
C12	C	-0.755524	-0.134819	0.000060
C13	C	-0.995109	0.043515	0.000092
C14	C	-0.985568	0.148741	0.000092
C15	C	-1.155013	-0.122874	0.000096
C16	C	-1.248399	-0.124750	0.000098
C17	C	-0.533577	-0.040135	0.000084
C18	C	-0.475841	-0.084098	-0.075959
C19	C	-0.584544	-0.131425	0.000071
C20	C	-0.475881	-0.084129	0.076093
C21	C	-0.419385	-0.128141	0.000086
C22	C	-0.528038	-0.175414	-0.076035
C23	C	-0.528083	-0.175432	0.076086
C24	C	-0.470370	-0.219462	0.000024
C25	C	-0.679688	-0.133315	0.000062
C26	C	-0.324243	-0.126258	0.000089
C27	C	-1.008814	-0.303084	0.000072
C28	C	-1.018355	-0.408310	0.000066
N29	N	-1.001991	-0.129797	0.219558
C30	C	-0.968124	0.341404	0.000077
C31	C	-1.035795	0.399033	0.000081
C32	C	-1.026089	0.506237	0.000073
C33	C	-0.977829	0.234190	0.000086
N34	N	-1.001938	-0.129764	-0.219392
C35	C	-1.056592	-0.062494	0.469196
C36	C	-0.979314	-0.044080	0.530987
C37	C	-1.001971	-0.129786	0.408719
C38	C	-1.079228	-0.148144	0.531022
C39	C	-1.001959	-0.129773	0.591441
C40	C	-0.924652	-0.111330	0.469150
C41	C	-1.024618	-0.215431	0.469179
C42	C	-0.947288	-0.197054	0.530942
C43	C	-1.001979	-0.129791	0.303458
C44	C	-1.001942	-0.129768	0.696700
H45	H	-0.561237	0.035629	-0.000005
H46	H	-0.452833	-0.045482	-0.140243
H47	H	-0.551110	-0.214017	0.140373
H48	H	-0.452910	-0.045504	0.140379
H49	H	-1.101019	0.367858	0.000025
H50	H	-0.902905	0.372577	0.000069
H51	H	-1.043805	-0.287842	0.442009
H52	H	-0.550908	-0.213994	-0.140393
H53	H	-1.102728	-0.005555	0.442084
H54	H	-0.442890	-0.295304	-0.000023
H55	H	-0.960149	0.028354	0.558137
H56	H	-0.859291	-0.095714	0.442086
H57	H	-0.901037	-0.253959	0.557883
H58	H	-1.144567	-0.163678	0.558200
