data_functionalizedCrystal
_audit_creation_method	'MofGen! by Chris Wilmer'
_symmetry_space_group_name_H-M	'P1'
_symmetry_Int_Tables_number	1
_symmetry_cell_setting	triclinic
loop_
_symmetry_equiv_pos_as_xyz
  x,y,z
_cell_length_a	14.472310
_cell_length_b	12.837943
_cell_length_c	12.837942
_cell_angle_alpha	85.171060
_cell_angle_beta	89.999573
_cell_angle_gamma	89.987748
loop_
_atom_site_label
_atom_site_type_symbol
_atom_site_fract_x
_atom_site_fract_y
_atom_site_fract_z
O1	O	0.076824	-1.402349	0.272135
O2	O	0.576824	-0.902349	0.772135
O3	O	0.076829	-1.099215	0.258691
O4	O	0.576829	-0.599215	0.758691
O5	O	0.076821	-1.244060	0.113846
O6	O	0.576821	-0.744060	0.613846
O7	O	0.076832	-1.257504	0.416980
O8	O	0.576832	-0.757504	0.916980
O9	O	-0.076861	-1.244020	0.113851
O10	O	0.423139	-0.744020	0.613851
O11	O	-0.076853	-1.099175	0.258697
O12	O	0.423147	-0.599175	0.758697
O13	O	-0.076858	-1.402308	0.272140
O14	O	0.423142	-0.902308	0.772140
Cu15	Cu	-0.090888	-1.250738	0.265419
Cu16	Cu	0.409112	-0.750738	0.765419
Cu17	Cu	0.090859	-1.250786	0.265412
Cu18	Cu	0.590859	-0.750786	0.765412
O19	O	-0.076850	-1.257463	0.416985
O20	O	0.423150	-0.757463	0.916985
C21	C	-0.000011	-1.060126	0.254153
C22	C	0.499989	-0.560126	0.754153
C23	C	-0.000009	-0.943711	0.240608
C24	C	0.499991	-0.443711	0.740608
N25	N	-0.218719	-1.250712	0.265423
N26	N	0.281281	-0.750712	0.765423
C27	C	-0.000020	-1.239499	0.074780
C28	C	0.499980	-0.739499	0.574780
C29	C	-0.000018	-1.225954	-0.041635
C30	C	0.499982	-0.725954	0.458365
C31	C	-0.592810	-1.250784	0.265408
C32	C	-0.092810	-0.750784	0.765408
C33	C	-0.553640	-1.172963	0.342595
C34	C	-0.053640	-0.672963	0.842595
C35	C	-0.446552	-1.173193	0.342927
C36	C	0.053448	-0.673193	0.842927
C37	C	-0.407219	-1.250747	0.265416
C38	C	0.092781	-0.750747	0.765416
C39	C	-0.446057	-1.362331	0.300062
C40	C	0.053943	-0.862331	0.800062
C41	C	-0.553179	-1.361907	0.300623
C42	C	-0.053179	-0.861907	0.800623
C43	C	-0.553343	-1.217970	0.153417
C44	C	-0.053343	-0.717970	0.653417
C45	C	-0.446216	-1.215537	0.153902
C46	C	0.053784	-0.715537	0.653902
C47	C	-0.302331	-1.250733	0.265418
C48	C	0.197669	-0.750733	0.765418
C49	C	-0.697698	-1.250805	0.265408
C50	C	-0.197698	-0.750805	0.765408
N51	N	0.218690	-1.250819	0.265401
N52	N	0.718690	-0.750819	0.765401
C53	C	-0.000016	-1.441398	0.276679
C54	C	0.499984	-0.941398	0.776679
C55	C	-0.000012	-1.557813	0.290223
C56	C	0.499988	-1.057813	0.790223
C57	C	-0.000016	-0.718837	0.403437
C58	C	0.499984	-0.218837	0.903437
C59	C	-0.000015	-0.609454	0.390716
C60	C	0.499985	-0.109454	0.890716
C61	C	-0.000012	-0.615562	0.202445
C62	C	0.499988	-0.115562	0.702445
C63	C	-0.000014	-0.724944	0.215166
C64	C	0.499986	-0.224944	0.715166
C65	C	-0.000014	-0.776578	0.315666
C66	C	0.499986	-0.276578	0.815666
C67	C	-0.000009	-0.885962	0.328386
C68	C	0.499991	-0.385962	0.828386
C69	C	-0.000012	-0.892067	0.140116
C70	C	0.499988	-0.392067	0.640116
C71	C	-0.000011	-0.782685	0.127395
C72	C	0.499989	-0.282685	0.627395
C73	C	-0.000001	-1.388784	-0.266510
C74	C	0.499999	-0.888784	0.233490
C75	C	0.000000	-1.376062	-0.375892
C76	C	0.500000	-0.876062	0.124108
C77	C	-0.000006	-1.187791	-0.369785
C78	C	0.499994	-0.687791	0.130215
C79	C	-0.000008	-1.200513	-0.260402
C80	C	0.499992	-0.700513	0.239598
C81	C	-0.000007	-1.301012	-0.208769
C82	C	0.499993	-0.801012	0.291231
C83	C	-0.000015	-1.313732	-0.099384
C84	C	0.499985	-0.813732	0.400616
C85	C	-0.000015	-1.125462	-0.093279
C86	C	0.499985	-0.625462	0.406721
C87	C	-0.000013	-1.112741	-0.202661
C88	C	0.499987	-0.612741	0.297339
C89	C	-0.000008	-1.262025	0.456052
C90	C	0.499992	-0.762025	0.956052
C91	C	-0.000003	-1.275569	0.572467
C92	C	0.499997	-0.775569	1.072467
H93	H	-0.420295	-1.090599	0.320693
H94	H	0.079705	-0.590599	0.820693
F95	F	-0.585823	-1.397547	0.407808
F96	F	-0.085823	-0.897547	0.907808
H97	H	-0.000020	-0.562446	0.462189
H98	H	0.499980	-0.062446	0.962189
H99	H	-0.000088	-0.573502	0.120623
H100	H	0.499912	-0.073502	0.620623
H101	H	0.000008	-1.447536	-0.422901
H102	H	0.500008	-0.947536	0.077099
F103	F	-0.587047	-1.440516	0.230581
F104	F	-0.087047	-0.940516	0.730581
H105	H	-0.000016	-0.760878	0.485268
H106	H	0.499984	-0.260878	0.985268
F107	F	-0.000020	-1.420691	-0.044433
F108	F	0.499980	-0.920691	0.455567
H109	H	0.000003	-1.105969	-0.411844
H110	H	0.500003	-0.605969	0.088156
H111	H	-0.420577	-1.422072	0.245790
H112	H	0.079423	-0.922072	0.745790
H113	H	-0.000010	-1.030917	-0.244717
H114	H	0.499990	-0.530917	0.255283
H115	H	-0.000027	-1.053992	-0.046254
H116	H	0.499973	-0.553992	0.453746
F117	F	-0.410977	-1.398463	0.406113
F118	F	0.089023	-0.898463	0.906113
F119	F	-0.000020	-1.495741	-0.211555
F120	F	0.499980	-0.995741	0.288445
H121	H	-0.580410	-1.137785	0.122780
H122	H	-0.080410	-0.637785	0.622780
H123	H	-0.000011	-0.928000	0.410218
H124	H	0.499989	-0.428000	0.910218
H125	H	-0.000004	-0.939092	0.068646
H126	H	0.499996	-0.439092	0.568646
F127	F	-0.587327	-1.064685	0.313793
F128	F	-0.087327	-0.564685	0.813793
F129	F	-0.413040	-1.108177	0.119861
F130	F	0.086960	-0.608177	0.619861
F131	F	-0.411235	-1.283734	0.074215
F132	F	0.088765	-0.783734	0.574215
H133	H	-0.578673	-1.274595	0.095850
H134	H	-0.078673	-0.774595	0.595850
H135	H	-0.420915	-1.195270	0.425809
H136	H	0.079085	-0.695270	0.925809
F137	F	-0.588793	-1.201516	0.450308
F138	F	-0.088793	-0.701516	0.950308
F139	F	-0.000014	-0.727721	0.020442
F140	F	0.499986	-0.227721	0.520442
