data_functionalizedCrystal
_audit_creation_method	'MofGen! by Chris Wilmer'
_symmetry_space_group_name_H-M	'P1'
_symmetry_Int_Tables_number	1
_symmetry_cell_setting	triclinic
loop_
_symmetry_equiv_pos_as_xyz
  x,y,z
_cell_length_a	11.169417
_cell_length_b	14.908520
_cell_length_c	14.908308
_cell_angle_alpha	96.360765
_cell_angle_beta	93.281299
_cell_angle_gamma	93.321403
loop_
_atom_site_label
_atom_site_type_symbol
_atom_site_fract_x
_atom_site_fract_y
_atom_site_fract_z
Zn1	Zn	1.763991	-0.389851	-0.532495
Zn2	Zn	1.763855	-0.532497	-0.389865
Zn3	Zn	1.575581	-0.381156	-0.381160
Zn4	Zn	1.550958	-0.541172	-0.541183
O5	O	1.663596	-0.461169	-0.461176
O6	O	1.931922	-0.408782	-0.513582
O7	O	1.749128	-0.505151	-0.262050
O8	O	1.610935	-0.255645	-0.393956
O9	O	1.931822	-0.513582	-0.408792
O10	O	1.749360	-0.262033	-0.505141
O11	O	1.610803	-0.393962	-0.255654
O12	O	1.404366	-0.402374	-0.402381
O13	O	1.568970	-0.528369	-0.666691
O14	O	1.386276	-0.519938	-0.519949
O15	O	1.725485	-0.417194	-0.660308
O16	O	1.725252	-0.660312	-0.417217
O17	O	1.568838	-0.666686	-0.528389
C18	C	1.351774	-0.461155	-0.461163
C19	C	1.218371	-0.461172	-0.461181
C20	C	1.644389	-0.696343	-0.474710
C21	C	1.636280	-0.796953	-0.480530
C22	C	1.784066	-0.979318	-0.375797
C23	C	1.776451	-1.073850	-0.381263
C24	C	1.613441	-1.080552	-0.496932
C25	C	1.621056	-0.986019	-0.491466
C26	C	1.706370	-0.935406	-0.430895
C27	C	1.713979	-0.840872	-0.425426
C28	C	1.550975	-0.847575	-0.541099
C29	C	1.543360	-0.942107	-0.546565
C30	C	1.976637	-0.461184	-0.461189
C31	C	2.110036	-0.461191	-0.461194
C32	C	1.644496	-0.474719	-0.697260
C33	C	1.636356	-0.480493	-0.797865
C34	C	1.682909	-0.225078	-0.447609
C35	C	1.691140	-0.124470	-0.441827
C36	C	1.784038	-0.375556	-0.980266
C37	C	1.776394	-0.380979	-1.074793
C38	C	1.613420	-0.496755	-1.081448
C39	C	1.621064	-0.491333	-0.986921
C40	C	1.706377	-0.430732	-0.936333
C41	C	1.714026	-0.425315	-0.841804
C42	C	1.551047	-0.541087	-0.848460
C43	C	1.543403	-0.546509	-0.942988
C44	C	1.682697	-0.447606	-0.226006
C45	C	1.691090	-0.441577	-0.125387
H46	H	1.783443	-0.799662	-0.376104
C47	C	1.807863	-0.358655	-0.786155
C48	C	1.805418	-0.256502	-0.793234
C49	C	1.899255	-0.189838	-0.737587
C50	C	1.995537	-0.225327	-0.674860
C51	C	1.997986	-0.327486	-0.667778
C52	C	1.904149	-0.394150	-0.723425
H53	H	1.734142	-0.230226	-0.839670
H54	H	1.897442	-0.114213	-0.742830
H55	H	2.065001	-0.175978	-0.633667
H56	H	2.069263	-0.353761	-0.621342
H57	H	1.905962	-0.469774	-0.718183
C58	C	1.861913	-1.122154	-0.320651
C59	C	1.853543	-1.226135	-0.326659
C60	C	1.939011	-1.274439	-0.266045
C61	C	2.032849	-1.218762	-0.199423
C62	C	2.041223	-1.114775	-0.193412
C63	C	1.955755	-1.066471	-0.254026
H64	H	1.784076	-1.267356	-0.375979
H65	H	1.932812	-1.351418	-0.270495
H66	H	2.096118	-1.254520	-0.154553
H67	H	2.110691	-1.073554	-0.144092
H68	H	1.961954	-0.989492	-0.249575
H69	H	1.473903	-0.983330	-0.595881
H70	H	1.487707	-0.811812	-0.585961
H71	H	1.853509	-0.326218	-0.939077
H72	H	1.839631	-0.336046	-1.110560
C73	C	1.519599	-0.563409	-1.137123
C74	C	1.560579	-0.638179	-1.206202
C75	C	1.466767	-0.704833	-1.261888
C76	C	1.331973	-0.696717	-1.248495
C77	C	1.290986	-0.621944	-1.179413
C78	C	1.384799	-0.555290	-1.123727
H79	H	1.660367	-0.644189	-1.216119
H80	H	1.497109	-0.760185	-1.313027
H81	H	1.262528	-0.746059	-1.289717
H82	H	1.191198	-0.615934	-1.169496
H83	H	1.354457	-0.499938	-1.072589
C84	C	1.877901	-0.923634	-0.309170
C85	C	1.875493	-0.930765	-0.207021
C86	C	1.969329	-0.875082	-0.140393
C87	C	2.065572	-0.812268	-0.175914
C88	C	2.067983	-0.805134	-0.278068
C89	C	1.974147	-0.860817	-0.344696
H90	H	1.804245	-0.977267	-0.180722
H91	H	1.967543	-0.880363	-0.064772
H92	H	2.135034	-0.771048	-0.126592
H93	H	2.139231	-0.758632	-0.304368
H94	H	1.975933	-0.855536	-0.420318
C95	C	1.519619	-1.136243	-0.563563
C96	C	1.423384	-1.199070	-0.528050
C97	C	1.329568	-1.254765	-0.594685
C98	C	1.331986	-1.247633	-0.696833
C99	C	1.428225	-1.184803	-0.732352
C100	C	1.522041	-1.129108	-0.665717
H101	H	1.421590	-1.204352	-0.452429
H102	H	1.258326	-1.301276	-0.568391
H103	H	1.262538	-1.288861	-0.746161
H104	H	1.430018	-1.179521	-0.807973
H105	H	1.593283	-1.082597	-0.692010
C106	C	1.465587	-0.601776	-0.800143
C107	C	1.379814	-0.558816	-0.732913
C108	C	1.294350	-0.619503	-0.684600
C109	C	1.294657	-0.723149	-0.703518
C110	C	1.380433	-0.766114	-0.770752
C111	C	1.465898	-0.705428	-0.819064
H112	H	1.379584	-0.482087	-0.718906
H113	H	1.230853	-0.587697	-0.634829
H114	H	1.231391	-0.768073	-0.667754
H115	H	1.380664	-0.842844	-0.784759
H116	H	1.529395	-0.737234	-0.868835
H117	H	1.473942	-0.595846	-0.984189
