data_functionalizedCrystal
_audit_creation_method	'MofGen! by Chris Wilmer'
_symmetry_space_group_name_H-M	'P1'
_symmetry_Int_Tables_number	1
_symmetry_cell_setting	triclinic
loop_
_symmetry_equiv_pos_as_xyz
  x,y,z
_cell_length_a	16.992695
_cell_length_b	16.974755
_cell_length_c	14.750135
_cell_angle_alpha	80.914303
_cell_angle_beta	103.523793
_cell_angle_gamma	87.020338
loop_
_atom_site_label
_atom_site_type_symbol
_atom_site_fract_x
_atom_site_fract_y
_atom_site_fract_z
O1	O	1.059703	0.149231	0.091392
O2	O	0.831392	0.147418	0.091261
O3	O	0.950045	0.035392	0.082543
O4	O	0.941050	0.261256	0.100110
O5	O	0.916486	0.067072	-0.074658
O6	O	0.797833	0.179098	-0.065939
O7	O	1.026144	0.180911	-0.065809
Zn8	Zn	0.906660	0.185034	-0.090833
Zn9	Zn	0.950876	0.143294	0.116285
O10	O	0.907491	0.292936	-0.057090
C11	C	0.785364	0.160928	0.012481
C12	C	0.698214	0.153976	0.011944
C13	C	0.932302	0.022197	0.001686
C14	C	0.929421	-0.064317	-0.005037
C15	C	0.911179	-0.549453	-0.052038
C16	C	0.913893	-0.468163	-0.045726
C17	C	0.933549	-0.444778	0.043122
C18	C	0.950485	-0.502689	0.125664
C19	C	0.947766	-0.583977	0.119351
C20	C	0.943638	-0.203516	0.071192
C21	C	0.946359	-0.122221	0.077499
C22	C	0.909764	-0.087700	-0.093892
C23	C	0.907051	-0.168991	-0.100197
C24	C	0.923983	-0.226894	-0.017656
N25	N	0.936326	-0.361688	0.049576
N26	N	0.921201	-0.309983	-0.024111
C27	C	1.072172	0.167400	0.012973
C28	C	1.159324	0.174350	0.013516
C29	C	1.208530	0.107285	0.008303
C30	C	1.290417	0.113821	0.008808
C31	C	1.323097	0.187422	0.014533
C32	C	1.273884	0.254493	0.019743
C33	C	1.191998	0.247958	0.019232
C34	C	1.567114	0.214512	0.016643
C35	C	1.649008	0.221042	0.017158
C36	C	1.665534	0.080369	0.006220
C37	C	1.583646	0.073839	0.005715
C38	C	1.534440	0.140911	0.010920
N39	N	1.406799	0.194104	0.015052
N40	N	1.450738	0.134229	0.010394
C41	C	0.925235	0.306130	0.023768
C42	C	0.928117	0.392644	0.030497
N43	N	0.876489	0.213520	-0.232186
C44	C	1.065301	0.035324	-0.597784
C45	C	1.044162	0.055263	-0.696741
C46	C	0.939062	0.154431	-0.689035
C47	C	0.960195	0.134503	-0.590075
C48	C	1.023315	0.074949	-0.544457
C49	C	0.918208	0.174128	-0.536749
C50	C	0.939337	0.154199	-0.437797
C51	C	1.002453	0.094645	-0.392173
C52	C	1.044444	0.055020	-0.445506
C53	C	0.855085	0.233678	-0.582369
C54	C	0.813099	0.273303	-0.529042
C55	C	0.834231	0.253378	-0.430089
C56	C	0.897347	0.193824	-0.384464
C57	C	0.792240	0.293003	-0.376755
C58	C	0.813369	0.273074	-0.277804
C59	C	0.918476	0.173895	-0.285513
N60	N	0.981053	0.114803	0.257638
H61	H	0.895176	-0.568484	-0.124388
Br62	Br	1.500346	0.305537	0.023720
H63	H	0.761704	0.321791	-0.566196
Br64	Br	1.150977	-0.045490	-0.535868
H65	H	1.095848	0.006530	-0.408362
Br66	Br	1.125214	0.338981	0.026296
H67	H	0.837882	0.249899	-0.662942
H68	H	0.900112	-0.421020	-0.112935
H69	H	1.078357	0.022989	-0.740156
Br70	Br	1.539309	-0.026061	-0.002014
H71	H	1.675610	0.280983	0.021806
H72	H	0.966486	-0.483643	0.198006
H73	H	0.740842	0.341488	-0.413910
H74	H	1.019653	0.078417	-0.311600
Br75	Br	0.853398	0.235249	-0.750951
H76	H	0.969880	0.125406	-0.248369
H77	H	1.330477	0.059210	0.004559
H78	H	0.961554	-0.631123	0.186560
Br79	Br	1.318234	0.354383	0.027508
Br80	Br	1.732317	-0.010651	-0.000849
H81	H	0.779178	0.305340	-0.234385
H82	H	0.891049	-0.188023	-0.172547
H83	H	0.895978	-0.040547	-0.161092
H84	H	0.962365	-0.103186	0.149853
H85	H	1.181930	0.047350	0.003647
H86	H	0.957432	-0.250652	0.138403
