data_functionalizedCrystal
_audit_creation_method	'MofGen! by Chris Wilmer'
_symmetry_space_group_name_H-M	'P1'
_symmetry_Int_Tables_number	1
_symmetry_cell_setting	triclinic
loop_
_symmetry_equiv_pos_as_xyz
  x,y,z
_cell_length_a	14.044220
_cell_length_b	16.992695
_cell_length_c	16.053802
_cell_angle_alpha	87.258926
_cell_angle_beta	87.189254
_cell_angle_gamma	88.071450
loop_
_atom_site_label
_atom_site_type_symbol
_atom_site_fract_x
_atom_site_fract_y
_atom_site_fract_z
O1	O	1.275866	-0.187009	-0.069341
O2	O	0.999379	-0.180151	-0.069362
O3	O	1.136514	-0.069360	-0.069345
O4	O	1.138731	-0.297800	-0.069358
O5	O	1.128964	-0.075431	0.069513
O6	O	0.991829	-0.186221	0.069496
O7	O	1.268316	-0.193080	0.069517
Zn8	Zn	1.128874	-0.190615	0.091553
Zn9	Zn	1.138822	-0.182616	-0.091398
O10	O	1.131181	-0.303871	0.069500
C11	C	0.960062	-0.180184	0.000064
C12	C	0.854158	-0.171230	0.000056
N13	N	1.122091	-0.196073	0.216412
C14	C	1.129887	-0.042984	0.000084
C15	C	1.121378	0.044656	0.000083
C16	C	0.660256	-0.154860	0.000074
C17	C	0.607434	-0.218367	0.000074
C18	C	0.499540	-0.209259	0.000083
C19	C	0.768160	-0.163967	0.000064
C20	C	1.307633	-0.193047	0.000089
C21	C	1.413537	-0.202001	0.000091
C22	C	1.137808	-0.330247	0.000069
C23	C	1.146317	-0.417886	0.000065
C24	C	1.203475	0.089154	0.000090
C25	C	1.195475	0.171500	0.000081
C26	C	1.105377	0.209347	0.000072
C27	C	1.023275	0.164843	0.000062
C28	C	1.031276	0.082498	0.000065
C29	C	1.072216	0.455265	0.000058
C30	C	1.064221	0.537616	0.000058
C31	C	1.236421	0.544267	0.000075
C32	C	1.244414	0.461920	0.000083
C33	C	1.162312	0.417424	0.000069
N34	N	1.097198	0.293518	0.000066
N35	N	1.170493	0.333254	0.000069
N36	N	1.145611	-0.177152	-0.216258
C37	C	1.180467	-0.148952	0.260114
C38	C	1.175732	-0.152778	0.347520
C39	C	1.112626	-0.203731	0.391223
C40	C	1.054244	-0.250855	0.347516
C41	C	1.058975	-0.247023	0.260111
C42	C	1.091960	-0.220444	0.652630
C43	C	1.087236	-0.224273	0.740041
C44	C	1.208722	-0.126196	0.740039
C45	C	1.213452	-0.122372	0.652633
C46	C	1.155066	-0.169493	0.608933
N47	N	1.107787	-0.207646	0.480566
N48	N	1.159901	-0.165574	0.519591
H49	H	0.643242	-0.279576	0.000066
H50	H	0.624450	-0.093656	0.000082
H51	H	1.002857	-0.292339	0.383104
H52	H	1.005362	0.419046	0.000046
H53	H	1.276842	0.058345	0.000103
H54	H	1.303264	0.580505	0.000085
H55	H	1.231858	-0.107464	0.224536
H56	H	1.011438	-0.285394	0.224531
H57	H	1.262327	0.207727	0.000089
H58	H	0.990848	0.568427	0.000063
H59	H	1.317781	0.431112	0.000091
H60	H	0.949916	0.195665	0.000049
H61	H	1.223265	-0.114408	0.383101
H62	H	0.964424	0.046269	0.000059
H63	H	1.264837	-0.080883	0.617051
H64	H	1.256256	-0.087831	0.775627
H65	H	1.035845	-0.265768	0.775620
H66	H	1.044422	-0.258813	0.617057
