data_functionalizedCrystal
_audit_creation_method	'MofGen! by Chris Wilmer'
_symmetry_space_group_name_H-M	'P1'
_symmetry_Int_Tables_number	1
_symmetry_cell_setting	triclinic
loop_
_symmetry_equiv_pos_as_xyz
  x,y,z
_cell_length_a	16.959455
_cell_length_b	12.759394
_cell_length_c	12.759387
_cell_angle_alpha	90.033171
_cell_angle_beta	89.977521
_cell_angle_gamma	89.978564
loop_
_atom_site_label
_atom_site_type_symbol
_atom_site_fract_x
_atom_site_fract_y
_atom_site_fract_z
Zn1	Zn	1.208415	0.418229	-0.594099
Zn2	Zn	1.208319	0.593949	-0.418416
Zn3	Zn	1.076231	0.418281	-0.418424
Zn4	Zn	1.076203	0.593863	-0.594043
O5	O	1.142292	0.506081	-0.506246
O6	O	1.319014	0.441552	-0.570814
O7	O	1.190769	0.570705	-0.271396
O8	O	1.093817	0.271253	-0.441755
O9	O	1.318943	0.570653	-0.441740
O10	O	1.190933	0.271214	-0.570822
O11	O	1.093724	0.441642	-0.271402
O12	O	0.965616	0.441559	-0.441701
O13	O	1.093770	0.570506	-0.741072
O14	O	0.965596	0.570558	-0.570728
O15	O	1.190906	0.441469	-0.741113
O16	O	1.190742	0.740959	-0.441686
O17	O	1.093677	0.740895	-0.570719
C18	C	0.936926	0.506055	-0.506210
C19	C	0.849069	0.506070	-0.506220
C20	C	0.807782	0.438810	-0.439149
C21	C	0.807803	0.573337	-0.573306
C22	C	0.725257	0.573350	-0.573321
C23	C	0.683970	0.506090	-0.506251
C24	C	0.725229	0.438818	-0.439165
C25	C	0.683991	0.640613	-0.640413
C26	C	0.601441	0.640627	-0.640432
C27	C	0.560152	0.573371	-0.573356
C28	C	0.601416	0.506098	-0.506266
C29	C	0.560129	0.438838	-0.439196
C30	C	0.601392	0.371569	-0.372100
C31	C	0.683940	0.371563	-0.372088
C32	C	0.477604	0.573377	-0.573368
C33	C	0.477576	0.438846	-0.439211
C34	C	1.142217	0.779048	-0.506218
C35	C	1.142257	0.895825	-0.506242
C36	C	1.243308	0.895626	-0.640741
C37	C	1.293852	0.950388	-0.707996
C38	C	1.293887	1.060109	-0.708014
C39	C	1.243370	1.115072	-0.640773
C40	C	1.192826	1.060310	-0.573518
C41	C	1.192799	0.950586	-0.573504
C42	C	1.091773	1.060509	-0.439026
C43	C	1.091741	0.950787	-0.439001
C44	C	1.041256	1.115472	-0.371785
C45	C	0.990715	1.060710	-0.304523
C46	C	0.990683	0.950982	-0.304506
C47	C	1.041197	0.896026	-0.371745
C48	C	1.348460	0.506106	-0.506282
C49	C	1.436317	0.506118	-0.506297
C50	C	1.142346	0.505972	-0.780279
C51	C	1.142369	0.505926	-0.897056
C52	C	1.142360	1.232047	-0.506287
C53	C	1.142317	1.115270	-0.506281
C54	C	1.041322	0.371524	-0.897082
C55	C	0.990814	0.304302	-0.951955
C56	C	0.990837	0.304265	-1.061677
C57	C	1.041373	0.371458	-1.116528
C58	C	1.091882	0.438679	-1.061654
C59	C	1.091855	0.438708	-0.951930
C60	C	1.192923	0.573085	-1.061628
C61	C	1.192905	0.573119	-0.951906
C62	C	1.243459	0.640278	-1.116479
C63	C	1.293973	0.707496	-1.061605
C64	C	1.293948	0.707530	-0.951877
C65	C	1.243413	0.640341	-0.897033
C66	C	1.142284	0.506113	-0.233278
C67	C	1.142414	0.505863	-0.116502
H68	H	0.567765	0.316801	-0.317496
C69	C	0.852537	0.365912	-0.366128
C70	C	0.832419	0.388702	-0.262146
C71	C	0.873641	0.321582	-0.194848
H72	H	0.839069	0.295299	-0.381480
H73	H	0.907621	0.375552	-0.375648
H74	H	0.777347	0.379054	-0.252630
H75	H	0.845889	0.459303	-0.246761
H76	H	0.928724	0.331222	-0.204368
H77	H	0.860169	0.250973	-0.210209
H78	H	0.860002	0.337042	-0.124288
C79	C	0.936036	0.231390	-0.892214
C80	C	0.946837	0.245785	-0.784379
C81	C	0.896396	0.178628	-0.729317
H82	H	0.882892	0.246677	-0.910058
H83	H	0.947648	0.160775	-0.910157
H84	H	0.935219	0.316384	-0.766443
H85	H	0.999971	0.230490	-0.766503
H86	H	0.908009	0.108013	-0.747260
H87	H	0.843256	0.193921	-0.747169
H88	H	0.903724	0.188379	-0.656145
C89	C	1.243582	0.640423	-1.235606
C90	C	1.298637	0.713666	-1.271893
C91	C	1.298772	0.713834	-1.381626
H92	H	1.257319	0.572680	-1.260567
H93	H	1.192588	0.658616	-1.260467
H94	H	1.349620	0.695467	-1.247041
H95	H	1.284913	0.781419	-1.246960
H96	H	1.247777	0.732028	-1.406488
H97	H	1.312507	0.646088	-1.406577
H98	H	1.336120	0.763535	-1.406261
C99	C	0.728702	0.298665	-0.299075
C100	C	0.708598	0.321452	-0.195088
C101	C	0.749829	0.254332	-0.127801
H102	H	0.715234	0.228052	-0.314426
H103	H	0.783785	0.308306	-0.308608
H104	H	0.653528	0.311802	-0.185559
H105	H	0.722069	0.392053	-0.179704
H106	H	0.804912	0.263973	-0.137334
H107	H	0.736357	0.183723	-0.143161
H108	H	0.736200	0.269790	-0.057238
C109	C	1.041146	1.234599	-0.371685
C110	C	0.986076	1.271008	-0.298425
C111	C	0.985945	1.380742	-0.298310
H112	H	1.092120	1.259513	-0.353537
H113	H	1.027424	1.259425	-0.439454
H114	H	0.999802	1.246192	-0.230671
H115	H	0.935094	1.246122	-0.316556
H116	H	0.972223	1.405568	-0.366079
H117	H	1.036922	1.405646	-0.280164
H118	H	0.948576	1.405459	-0.248611
C119	C	0.935786	1.120193	-0.231486
C120	C	0.891503	1.048756	-0.172594
C121	C	0.840887	1.103517	-0.105310
H122	H	0.965962	1.163010	-0.185663
H123	H	0.901300	1.162972	-0.271625
H124	H	0.925984	1.005995	-0.132458
H125	H	0.861311	1.005937	-0.218390
H126	H	0.806402	1.146296	-0.145449
H127	H	0.871070	1.146332	-0.059494
H128	H	0.810831	1.055056	-0.065351
H129	H	0.841423	0.628093	-0.627916
C130	C	1.348708	1.119443	-0.781209
C131	C	1.331460	1.092680	-0.885134
C132	C	1.381947	1.147309	-0.952590
H133	H	1.341536	1.192674	-0.771726
H134	H	1.401834	1.101405	-0.765964
H135	H	1.278347	1.110724	-0.900374
H136	H	1.338637	1.019458	-0.894650
H137	H	1.435073	1.129272	-0.937345
H138	H	1.374771	1.220538	-0.943098
H139	H	1.370256	1.129151	-1.023110
H140	H	0.949520	0.906401	-0.249743
C141	C	1.348963	0.780381	-1.121022
C142	C	1.427174	0.757547	-1.094338
C143	C	1.477854	0.824676	-1.149045
H144	H	1.341847	0.770803	-1.194242
H145	H	1.337411	0.850992	-1.102994
H146	H	1.438722	0.686952	-1.112373
H147	H	1.434315	0.767131	-1.021127
H148	H	1.466301	0.895287	-1.131017
H149	H	1.470731	0.815092	-1.222263
H150	H	1.530924	0.809198	-1.130941
C151	C	0.728959	0.713596	-0.713111
C152	C	0.810082	0.699215	-0.698709
C153	C	0.851534	0.766444	-0.765650
H154	H	0.715564	0.698368	-0.783775
H155	H	0.715451	0.784193	-0.697609
H156	H	0.823585	0.628634	-0.714219
H157	H	0.823500	0.714451	-0.628059
H158	H	0.838026	0.837041	-0.750147
H159	H	0.838133	0.751210	-0.836310
H160	H	0.906580	0.756703	-0.755880
H161	H	0.567852	0.695403	-0.695064
H162	H	0.949708	0.249528	-1.106355
C163	C	0.432947	0.646508	-0.646256
C164	C	0.486773	0.705417	-0.704981
C165	C	0.445665	0.772806	-0.772133
H166	H	0.400771	0.606477	-0.692191
H167	H	0.400733	0.692308	-0.606030
H168	H	0.518973	0.659622	-0.745204
H169	H	0.518950	0.745469	-0.659074
H170	H	0.413451	0.818607	-0.731907
H171	H	0.413490	0.732767	-0.818061
H172	H	0.482179	0.812791	-0.811979
H173	H	1.243293	0.806285	-0.640722
H174	H	1.243396	1.204413	-0.640803
C175	C	1.040992	0.776899	-0.371736
C176	C	0.965714	0.740655	-0.398429
C177	C	0.965494	0.630922	-0.398423
H178	H	1.078254	0.751876	-0.421409
H179	H	1.054632	0.752070	-0.303939
H180	H	0.952084	0.765474	-0.466216
H181	H	0.928439	0.765650	-0.348765
H182	H	0.979134	0.606093	-0.330626
H183	H	1.002758	0.605909	-0.448096
H184	H	0.914417	0.606317	-0.416524
H185	H	1.041304	0.371540	-0.807741
C186	C	1.243528	0.640496	-0.777906
C187	C	1.298588	0.713729	-0.741584
C188	C	1.298718	0.713891	-0.631850
H189	H	1.192552	0.658694	-0.752947
H190	H	1.257260	0.572727	-0.753065
H191	H	1.284852	0.781483	-0.766415
H192	H	1.349572	0.695548	-0.766514
H193	H	1.312450	0.646122	-0.607009
H194	H	1.247739	0.732087	-0.606902
H195	H	1.336080	0.763572	-0.607192
H196	H	0.443966	0.384075	-0.384592
H197	H	1.334981	0.905627	-0.762745
H198	H	1.041381	0.371430	-1.205869
H199	H	1.335081	0.762267	-0.907205
