data_functionalizedCrystal
_audit_creation_method	'MofGen! by Chris Wilmer'
_symmetry_space_group_name_H-M	'P1'
_symmetry_Int_Tables_number	1
_symmetry_cell_setting	triclinic
loop_
_symmetry_equiv_pos_as_xyz
  x,y,z
_cell_length_a	16.992694
_cell_length_b	11.792241
_cell_length_c	10.868271
_cell_angle_alpha	89.998441
_cell_angle_beta	90.001136
_cell_angle_gamma	87.430819
loop_
_atom_site_label
_atom_site_type_symbol
_atom_site_fract_x
_atom_site_fract_y
_atom_site_fract_z
O1	O	1.041415	0.240748	-0.102169
O2	O	0.813118	0.238107	-0.102205
O3	O	0.932807	0.074710	-0.102178
O4	O	0.921727	0.404145	-0.102197
O5	O	0.932796	0.074715	0.102467
O6	O	0.813108	0.238111	0.102439
O7	O	1.041404	0.240753	0.102476
Zn8	Zn	0.927254	0.239433	0.134949
Zn9	Zn	0.927268	0.239427	-0.134679
O10	O	0.921716	0.404149	0.102448
C11	C	0.783886	0.234711	0.000112
C12	C	0.696799	0.224573	0.000099
C13	C	0.646974	0.322391	0.000094
C14	C	0.565147	0.312859	0.000112
C15	C	0.533146	0.205507	0.000125
C16	C	0.582977	0.107682	0.000134
C17	C	0.664803	0.117216	0.000125
C18	C	0.289380	0.165995	0.000160
C19	C	0.207548	0.156468	0.000165
C20	C	0.189724	0.361646	0.000146
C21	C	0.271552	0.371170	0.000130
C22	C	0.321376	0.273345	0.000145
N23	N	0.449506	0.195761	0.000139
N24	N	0.405014	0.283092	0.000139
C25	C	0.932105	0.032364	0.000144
C26	C	0.930022	-0.093820	0.000143
C27	C	0.926191	-0.324845	0.000121
C28	C	0.928320	-0.196286	0.000133
C29	C	1.070637	0.244148	0.000155
C30	C	1.157724	0.254286	0.000161
C31	C	0.922417	0.446495	0.000123
C32	C	0.924500	0.572679	0.000117
N33	N	0.927250	0.239437	0.318963
N34	N	0.927279	0.239414	-0.318693
C35	C	0.927256	0.239438	0.430301
C36	C	0.927266	0.239428	0.569978
H37	H	0.329938	0.086338	0.000173
C38	C	0.510343	0.420459	0.000103
H39	H	0.541121	0.485758	0.000078
H40	H	0.478057	0.421013	0.071471
H41	H	0.478049	0.420998	-0.071266
C42	C	0.719610	0.009616	0.000118
H43	H	0.688833	-0.055684	0.000113
H44	H	0.751906	0.009069	0.071476
H45	H	0.751894	0.009073	-0.071261
H46	H	0.181497	0.069046	0.000175
H47	H	0.673022	0.409808	0.000082
C48	C	0.306751	0.489254	0.000109
H49	H	0.362620	0.480921	0.000091
H50	H	0.289685	0.529855	0.071467
H51	H	0.289673	0.529830	-0.071270
C52	C	0.134917	0.469243	0.000145
H53	H	0.081601	0.448195	0.000163
H54	H	0.144660	0.512959	-0.071220
H55	H	0.144671	0.512952	0.071517
C56	C	0.547778	-0.010402	0.000146
H57	H	0.491910	-0.002072	0.000137
H58	H	0.564853	-0.050991	0.071511
H59	H	0.564849	-0.050988	-0.071227
