data_functionalizedCrystal
_audit_creation_method	'MofGen! by Chris Wilmer'
_symmetry_space_group_name_H-M	'P1'
_symmetry_Int_Tables_number	1
_symmetry_cell_setting	triclinic
loop_
_symmetry_equiv_pos_as_xyz
  x,y,z
_cell_length_a	16.959455
_cell_length_b	12.645330
_cell_length_c	16.959447
_cell_angle_alpha	89.971796
_cell_angle_beta	89.979626
_cell_angle_gamma	90.009666
loop_
_atom_site_label
_atom_site_type_symbol
_atom_site_fract_x
_atom_site_fract_y
_atom_site_fract_z
Zn1	Zn	1.208425	-0.422103	-0.447048
Zn2	Zn	1.208364	-0.599394	-0.314874
Zn3	Zn	1.076253	-0.422136	-0.314871
Zn4	Zn	1.076235	-0.599315	-0.446999
O5	O	1.142319	-0.510737	-0.380948
O6	O	1.319028	-0.445640	-0.429537
O7	O	1.190822	-0.575928	-0.204263
O8	O	1.093819	-0.273784	-0.332424
O9	O	1.318983	-0.575895	-0.332429
O10	O	1.190925	-0.273760	-0.429534
O11	O	1.093760	-0.445697	-0.204261
O12	O	0.965640	-0.445620	-0.332377
O13	O	1.093788	-0.575761	-0.557616
O14	O	0.965626	-0.575793	-0.429450
O15	O	1.190907	-0.445563	-0.557652
O16	O	1.190804	-0.747731	-0.332382
O17	O	1.093729	-0.747673	-0.429453
C18	C	0.936953	-0.510702	-0.380908
C19	C	0.849096	-0.510713	-0.380910
C20	C	0.477587	-0.578494	-0.330359
C21	C	0.477655	-0.443068	-0.431634
C22	C	0.560200	-0.443051	-0.431615
C23	C	0.601443	-0.510757	-0.380968
C24	C	0.560141	-0.578481	-0.330339
C25	C	0.601509	-0.375336	-0.482248
C26	C	0.684060	-0.375317	-0.482231
C27	C	0.725305	-0.443018	-0.431579
C28	C	0.683997	-0.510744	-0.380948
C29	C	0.725240	-0.578450	-0.330301
C30	C	0.683933	-0.646171	-0.279666
C31	C	0.601385	-0.646182	-0.279688
C32	C	0.807853	-0.443007	-0.431557
C33	C	0.807793	-0.578437	-0.330282
C34	C	1.142280	-0.786167	-0.380929
C35	C	1.142335	-0.903997	-0.380948
C36	C	1.203307	-1.071553	-0.319756
C37	C	1.203505	-0.948993	-0.319906
C38	C	1.164917	-0.948378	-0.464269
C39	C	1.165401	-1.070976	-0.463944
C40	C	1.058757	-1.071319	-0.359639
C41	C	1.059158	-0.948715	-0.357771
C42	C	1.348487	-0.510773	-0.380989
C43	C	1.436344	-0.510788	-0.381006
C44	C	1.142352	-0.510649	-0.587116
C45	C	1.142366	-0.510612	-0.674973
C46	C	1.142380	-0.234232	-0.380984
C47	C	1.142407	-0.116402	-0.381000
C48	C	1.091895	-0.578288	-1.046433
C49	C	1.193026	-0.442712	-1.046465
C50	C	1.193005	-0.442735	-0.963919
C51	C	1.142429	-0.510536	-0.922626
C52	C	1.091874	-0.578315	-0.963879
C53	C	1.243565	-0.374965	-0.922660
C54	C	1.243546	-0.374986	-0.840109
C55	C	1.192966	-0.442782	-0.798815
C56	C	1.142408	-0.510563	-0.840073
C57	C	1.091832	-0.578364	-0.798780
C58	C	1.041270	-0.646140	-0.840036
C59	C	1.041293	-0.646111	-0.922585
C60	C	1.192942	-0.442811	-0.716266
C61	C	1.091811	-0.578391	-0.716226
C62	C	1.142332	-0.510748	-0.175582
C63	C	1.142471	-0.510487	-0.087726
H64	H	0.444070	-0.387951	-0.472873
H65	H	1.000094	-0.701348	-0.806404
H66	H	1.226544	-1.099493	-0.482037
H67	H	1.225370	-0.917594	-0.482663
C68	C	0.799624	-0.309161	-0.531675
C69	C	0.853257	-0.368579	-0.487212
H70	H	0.827656	-0.263206	-0.566032
H71	H	0.767446	-0.355409	-0.561852
H72	H	0.767406	-0.268555	-0.497292
H73	H	0.885472	-0.409191	-0.521596
H74	H	0.885449	-0.322325	-0.457033
H75	H	1.050618	-0.633594	-0.682611
H76	H	1.050726	-0.633466	-1.080027
H77	H	1.122987	-1.100639	-0.511148
H78	H	1.000131	-0.701294	-0.956183
H79	H	1.011335	-0.918096	-0.399106
H80	H	1.121910	-0.919228	-0.511123
C81	C	0.960586	-1.169510	-0.288508
C82	C	1.031031	-1.113168	-0.279044
H83	H	0.943479	-1.195350	-0.238750
H84	H	0.921424	-1.124131	-0.309905
H85	H	0.969084	-1.227270	-0.323279
H86	H	1.022532	-1.055403	-0.244277
H87	H	1.070201	-1.158550	-0.257635
C88	C	0.384748	-0.721092	-0.319207
C89	C	0.432189	-0.652935	-0.274704
H90	H	0.356725	-0.767053	-0.284847
H91	H	0.348372	-0.680771	-0.349362
H92	H	0.416976	-0.761690	-0.353586
H93	H	0.399959	-0.612331	-0.240329
H94	H	0.468568	-0.693260	-0.244536
C95	C	1.282068	-0.195484	-0.814756
C96	C	1.299114	-0.300470	-0.794771
H97	H	1.316369	-0.149478	-0.786764
H98	H	1.289319	-0.185787	-0.869824
H99	H	1.228957	-0.179984	-0.801222
H100	H	1.352224	-0.315972	-0.808311
H101	H	1.291870	-0.310172	-0.739691
H102	H	0.567746	-0.701317	-0.238463
C103	C	0.961975	-0.949963	-0.254786
C104	C	1.036198	-0.909659	-0.274964
H105	H	0.947817	-0.925877	-0.203653
H106	H	0.923987	-0.926304	-0.291958
H107	H	0.963791	-1.025044	-0.255052
H108	H	1.034381	-0.834577	-0.274703
H109	H	1.074196	-0.933312	-0.237782
H110	H	1.265462	-0.919589	-0.334035
C111	C	0.963016	-1.023545	-0.457643
C112	C	0.997493	-1.110466	-0.419848
H113	H	0.925201	-1.047717	-0.494817
H114	H	0.937812	-0.979943	-0.419648
H115	H	1.002654	-0.984036	-0.484107
H116	H	0.957855	-1.149971	-0.393379
H117	H	1.022697	-1.154086	-0.457849
C118	C	1.237964	-0.382485	-1.173021
C119	C	1.248620	-0.368192	-1.091853
H120	H	1.272285	-0.336471	-1.201041
H121	H	1.249521	-0.453703	-1.186528
H122	H	1.184861	-0.366955	-1.186541
H123	H	1.301722	-0.383729	-1.078331
H124	H	1.237068	-0.296958	-1.078340
H125	H	1.284746	-0.319772	-0.956287
C126	C	1.184579	-0.797749	-0.236482
C127	C	1.184434	-0.908481	-0.236506
H128	H	1.172802	-0.772745	-0.184992
H129	H	1.235087	-0.772810	-0.252005
H130	H	1.145936	-0.772597	-0.272424
H131	H	1.223081	-0.933633	-0.200567
H132	H	1.133919	-0.933430	-0.220972
H133	H	1.264931	-1.102287	-0.333727
H134	H	0.717685	-0.320173	-0.523461
C135	C	1.187959	-1.222076	-0.234779
C136	C	1.184478	-1.111457	-0.236109
H137	H	1.176334	-1.246711	-0.183135
H138	H	1.150544	-1.250016	-0.270852
H139	H	1.239365	-1.244519	-0.249434
H140	H	1.133070	-1.089014	-0.221459
H141	H	1.221895	-1.083506	-0.200024
C142	C	1.231485	-0.263325	-0.690884
C143	C	1.248513	-0.368321	-0.670914
H144	H	1.265791	-0.217336	-0.662881
H145	H	1.238742	-0.253614	-0.745950
H146	H	1.178375	-0.247814	-0.677352
H147	H	1.301622	-0.383834	-0.684452
H148	H	1.241262	-0.378036	-0.615837
H149	H	0.717524	-0.701303	-0.238433
C150	C	0.799434	-0.712307	-0.230177
C151	C	0.853125	-0.652867	-0.274610
H152	H	0.827422	-0.758261	-0.195812
H153	H	0.767227	-0.666072	-0.200008
H154	H	0.767250	-0.752913	-0.264578
H155	H	0.885305	-0.612255	-0.240209
H156	H	0.885345	-0.699108	-0.304781
C157	C	0.474997	-0.315219	-0.527229
C158	C	0.556175	-0.300913	-0.537913
H159	H	0.447009	-0.269264	-0.561592
H160	H	0.461475	-0.386458	-0.538711
H161	H	0.461453	-0.299619	-0.474139
H162	H	0.569721	-0.316521	-0.591002
H163	H	0.569703	-0.229658	-0.526437
