data_functionalizedCrystal
_audit_creation_method	'MofGen! by Chris Wilmer'
_symmetry_space_group_name_H-M	'P1'
_symmetry_Int_Tables_number	1
_symmetry_cell_setting	triclinic
loop_
_symmetry_equiv_pos_as_xyz
  x,y,z
_cell_length_a	19.188930
_cell_length_b	19.188905
_cell_length_c	18.266242
_cell_angle_alpha	90.016065
_cell_angle_beta	90.010255
_cell_angle_gamma	83.139668
loop_
_atom_site_label
_atom_site_type_symbol
_atom_site_fract_x
_atom_site_fract_y
_atom_site_fract_z
O1	O	0.087084	0.926160	0.061010
O2	O	0.098837	0.722847	0.060986
O3	O	-0.008696	0.830371	0.060984
O4	O	0.194617	0.818636	0.061011
O5	O	-0.008699	0.830353	-0.060778
O6	O	0.098834	0.722828	-0.060776
O7	O	0.087081	0.926142	-0.060752
Zn8	Zn	0.092957	0.824482	-0.080097
Zn9	Zn	0.092961	0.824506	0.080330
O10	O	0.194614	0.818618	-0.060751
C11	C	0.098458	0.696826	0.000102
C12	C	0.097324	0.619321	0.000092
C13	C	0.096781	0.582939	0.066466
C14	C	0.095708	0.510115	0.066475
C15	C	0.095164	0.473678	0.000106
C16	C	0.095711	0.510068	-0.066277
C17	C	0.096791	0.582890	-0.066284
N18	N	0.053734	0.364651	-0.049292
N19	N	0.052706	0.295474	-0.049280
C20	C	0.091911	0.254272	0.000123
N21	N	0.132173	0.284861	0.049526
N22	N	0.133198	0.354045	0.049517
C23	C	0.093993	0.394716	0.000106
C24	C	0.090206	0.138926	0.066512
C25	C	0.089137	0.066100	0.066518
C26	C	0.089133	0.066056	-0.066236
C27	C	0.090209	0.138879	-0.066240
C28	C	0.090742	0.175310	0.000136
C29	C	-0.034708	0.829982	0.000101
C30	C	-0.112213	0.828841	0.000095
C31	C	-0.157142	0.891933	0.000099
C32	C	-0.229966	0.890861	0.000110
C33	C	-0.257857	0.826694	0.000103
C34	C	-0.212917	0.763594	0.000103
C35	C	-0.140095	0.764668	0.000099
N36	N	-0.365858	0.777640	-0.041341
N37	N	-0.435037	0.776624	-0.041338
C38	C	-0.477265	0.823456	0.000118
N39	N	-0.447703	0.871352	0.041561
N40	N	-0.378518	0.872369	0.041556
C41	C	-0.336819	0.825523	0.000108
C42	C	-0.601159	0.885390	0.000135
C43	C	-0.673984	0.884315	0.000151
C44	C	-0.656933	0.757047	0.000137
C45	C	-0.584110	0.758123	0.000128
C46	C	-0.556228	0.822296	0.000124
C47	C	0.220626	0.819007	0.000134
C48	C	0.298131	0.820148	0.000145
C49	C	0.087460	0.952163	0.000134
C50	C	0.088594	1.029668	0.000148
N51	N	0.092954	0.824471	-0.189583
C52	C	0.135196	0.866681	-0.227875
C53	C	0.135194	0.866692	-0.304520
C54	C	0.092958	0.824481	-0.342870
C55	C	0.050708	0.782269	-0.304570
C56	C	0.050706	0.782264	-0.227926
N57	N	0.091244	0.763333	-0.463231
N58	N	0.091250	0.763339	-0.536039
C59	C	0.092961	0.824495	-0.573793
N60	N	0.094679	0.885645	-0.535988
N61	N	0.094677	0.885637	-0.463173
C62	C	0.092955	0.824482	-0.425977
C63	C	0.135202	0.866721	-0.695191
C64	C	0.135195	0.866734	-0.771838
C65	C	0.050714	0.782304	-0.771886
C66	C	0.050717	0.782298	-0.695241
C67	C	0.092965	0.824505	-0.656898
N68	N	0.092959	0.824523	0.189817
H69	H	0.090646	0.168502	-0.120290
O70	O	0.095055	0.474663	-0.130729
C71	C	0.033376	0.400494	-0.207754
C72	C	0.034019	0.440571	-0.134740
H73	H	-0.015958	0.372908	-0.211013
H74	H	0.033904	0.438984	-0.255226
H75	H	0.081743	0.359877	-0.211053
H76	H	-0.014339	0.481187	-0.131370
H77	H	0.033528	0.402038	-0.087303
H78	H	-0.679641	0.704801	0.000135
O79	O	0.088728	0.030682	-0.130726
C80	C	0.148847	0.000285	-0.244197
C81	C	0.149398	0.040370	-0.171181
H82	H	0.197885	0.008115	-0.276933
H83	H	0.148028	-0.058027	-0.232832
H84	H	0.100183	0.021132	-0.276905
H85	H	0.198054	0.019582	-0.138436
H86	H	0.150180	0.098676	-0.182598
O87	O	0.176330	0.907645	-0.190714
C88	C	0.293778	0.934515	-0.167205
C89	C	0.247275	0.888083	-0.209347
H90	H	0.351147	0.918706	-0.182242
H91	H	0.278122	0.991900	-0.182276
H92	H	0.286488	0.927280	-0.105850
H93	H	0.254541	0.895257	-0.270711
H94	H	0.262941	0.830716	-0.194215
O95	O	0.097281	0.618131	-0.130829
C96	C	0.097207	0.610396	-0.262500
C97	C	0.096636	0.570399	-0.189456
H98	H	0.096701	0.571820	-0.309919
H99	H	0.048847	0.651016	-0.265877
H100	H	0.146550	0.637964	-0.265774
H101	H	0.047325	0.542789	-0.186133
H102	H	0.145029	0.529819	-0.186109
H103	H	0.097215	0.612597	0.120515
H104	H	0.090647	0.168589	0.120559
O105	O	-0.574100	0.947741	0.000272
C106	C	-0.566403	1.056864	0.063352
C107	C	-0.597079	0.986270	0.063294
H108	H	-0.584981	1.088041	0.114292
H109	H	-0.506634	1.046833	0.063392
H110	H	-0.584923	1.088000	0.012380
H111	H	-0.578612	0.955098	0.114258
H112	H	-0.656845	0.996351	0.063216
O113	O	0.095082	0.474702	0.130909
C114	C	0.033357	0.400656	0.207962
C115	C	0.033987	0.440712	0.134959
H116	H	-0.016041	0.373176	0.211267
H117	H	0.081667	0.359972	0.211307
H118	H	0.033959	0.439214	0.255386
H119	H	0.033360	0.402207	0.087493
H120	H	-0.014319	0.481406	0.131678
H121	H	0.088699	0.036479	0.120570
H122	H	0.016324	0.747936	-0.803110
O123	O	-0.130174	0.954330	0.000131
C124	C	-0.154774	1.080446	0.000093
C125	C	-0.185410	1.009832	0.000073
H126	H	-0.199417	1.125339	0.000030
H127	H	-0.121123	1.084191	0.051061
H128	H	-0.121093	1.084083	-0.050854
H129	H	-0.219123	1.006148	0.050985
H130	H	-0.219022	1.006118	-0.050929
H131	H	-0.266555	0.942239	0.000116
O132	O	-0.240090	0.701306	0.000193
C133	C	-0.312370	0.626229	0.063293
C134	C	-0.281658	0.696803	0.063269
H135	H	-0.345973	0.622559	0.114292
H136	H	-0.346092	0.622525	0.012371
H137	H	-0.267734	0.581329	0.063254
H138	H	-0.326250	0.741743	0.063334
H139	H	-0.247918	0.700446	0.114187
O140	O	-0.096546	0.703313	0.000059
C141	C	-0.087320	0.576969	0.000093
C142	C	-0.136720	0.646401	0.000123
H143	H	-0.119780	0.530937	0.000161
H144	H	-0.052826	0.574233	-0.050880
H145	H	-0.052773	0.574339	0.051034
H146	H	-0.171311	0.649077	-0.050783
H147	H	-0.171166	0.649107	0.051131
O148	O	-0.717658	0.945589	0.000288
C149	C	-0.809780	1.018234	0.063362
C150	C	-0.760347	0.948823	0.063306
H151	H	-0.844316	1.020865	0.114299
H152	H	-0.777372	1.064307	0.063405
H153	H	-0.844281	1.020894	0.012387
H154	H	-0.725835	0.946094	0.114272
H155	H	-0.792797	0.902783	0.063225
O156	O	-0.540561	0.696771	0.000083
C157	C	-0.531337	0.570427	0.000111
C158	C	-0.580736	0.639859	0.000143
H159	H	-0.563799	0.524396	0.000175
H160	H	-0.496842	0.567693	-0.050862
H161	H	-0.496792	0.567794	0.051053
H162	H	-0.615326	0.642539	-0.050765
H163	H	-0.615184	0.642564	0.051149
H164	H	0.169594	0.901065	-0.335703
O165	O	0.009794	0.741238	-0.657965
C166	C	0.006026	0.646927	-0.571521
C167	C	0.052452	0.693396	-0.613672
H168	H	0.040497	0.608226	-0.535711
H169	H	-0.032618	0.681329	-0.535578
H170	H	-0.024172	0.616792	-0.612114
H171	H	0.082695	0.723539	-0.573132
H172	H	0.091052	0.658956	-0.649626
H173	H	0.016319	0.747901	-0.335800
O174	O	0.176253	0.907789	-0.658053
C175	C	0.260077	0.991500	-0.666093
C176	C	0.213609	0.945037	-0.708239
H177	H	0.290302	1.021616	-0.706650
H178	H	0.225670	1.030207	-0.630220
H179	H	0.298699	0.957028	-0.630198
H180	H	0.174980	0.979453	-0.744174
H181	H	0.248059	0.906325	-0.744066
H182	H	0.016307	0.747890	-0.196750
H183	H	0.169592	0.901111	-0.803013
