data_functionalizedCrystal
_audit_creation_method	'MofGen! by Chris Wilmer'
_symmetry_space_group_name_H-M	'P1'
_symmetry_Int_Tables_number	1
_symmetry_cell_setting	triclinic
loop_
_symmetry_equiv_pos_as_xyz
  x,y,z
_cell_length_a	10.654554
_cell_length_b	14.519731
_cell_length_c	9.130313
_cell_angle_alpha	89.997760
_cell_angle_beta	89.999583
_cell_angle_gamma	84.087848
loop_
_atom_site_label
_atom_site_type_symbol
_atom_site_fract_x
_atom_site_fract_y
_atom_site_fract_z
O1	O	1.666598	0.129548	-0.121809
O2	O	1.301003	0.141884	-0.121811
O3	O	1.493480	0.001529	-0.121797
O4	O	1.474122	0.269903	-0.121824
O5	O	1.493478	0.001533	0.121802
O6	O	1.301001	0.141888	0.121788
O7	O	1.666596	0.129551	0.121790
Cu8	Cu	1.483798	0.135720	0.144031
Cu9	Cu	1.483801	0.135715	-0.144053
O10	O	1.474119	0.269906	0.121775
C11	C	1.254213	0.140979	-0.000012
C12	C	1.114796	0.138266	-0.000012
C13	C	0.933068	0.050527	-0.000016
C14	C	1.064066	0.053075	-0.000005
C15	C	1.034521	0.220915	-0.000014
C16	C	0.903526	0.218366	-0.000014
C17	C	0.882346	-0.034670	-0.000024
C18	C	0.962612	-0.117320	-0.000019
C19	C	1.093610	-0.114771	-0.000009
C20	C	1.144341	-0.029574	-0.000003
C21	C	1.492572	-0.032833	0.000003
C22	C	1.489854	-0.135228	0.000004
C23	C	1.487645	-0.218383	0.000000
C24	C	1.484886	-0.322706	-0.000011
C25	C	1.482695	-0.405857	-0.000020
C26	C	1.479936	-0.510187	-0.000029
C27	C	1.713387	0.130456	-0.000013
C28	C	1.852804	0.133169	-0.000022
C29	C	1.475028	0.304269	-0.000028
C30	C	1.477746	0.406663	-0.000038
N31	N	1.483806	0.135723	0.346654
N32	N	1.483804	0.135706	-0.346675
C33	C	1.569056	0.073595	0.423312
C34	C	1.569053	0.073584	0.576649
C35	C	1.398544	0.197836	0.576656
C36	C	1.398543	0.197842	0.423322
C37	C	1.654319	0.011475	0.346644
C38	C	1.739577	-0.050657	0.423303
C39	C	1.739574	-0.050668	0.576640
C40	C	1.654312	0.011453	0.653318
H41	H	1.158959	-0.182068	0.000009
O42	O	0.825369	0.298556	0.000040
C43	C	0.698875	0.278035	0.000008
H44	H	0.693686	0.205564	0.046130
H45	H	0.661000	0.281288	-0.116858
C46	C	0.625246	0.438128	0.038889
C47	C	0.618871	0.349121	0.095549
H48	H	0.575893	0.481979	0.097817
H49	H	0.710467	0.451955	0.038905
H50	H	0.593685	0.440825	-0.058499
H51	H	0.650446	0.346421	0.192927
H52	H	0.533653	0.335295	0.095551
H53	H	1.251009	-0.027506	0.000019
H54	H	1.654308	0.011432	0.778175
O55	O	1.084007	0.303591	-0.000090
C56	C	1.216838	0.288119	-0.000058
H57	H	1.247421	0.216343	-0.046163
H58	H	1.253315	0.292826	0.116806
C59	C	1.233787	0.449974	-0.038980
C60	C	1.271349	0.361820	-0.095618
H61	H	1.267414	0.495438	-0.097920
H62	H	1.144296	0.460399	-0.038996
H63	H	1.264187	0.453883	0.058406
H64	H	1.240936	0.357908	-0.192995
H65	H	1.360837	0.351396	-0.095620
H66	H	1.654332	0.011480	0.221790
O67	O	1.822199	-0.111072	0.348692
C68	C	1.754782	-0.168436	0.260056
H69	H	1.656622	-0.132349	0.237057
H70	H	1.746045	-0.236635	0.319191
C71	C	1.946104	-0.232043	0.142668
C72	C	1.825545	-0.187717	0.114410
H73	H	1.989755	-0.243940	0.052829
H74	H	1.991525	-0.193398	0.202387
H75	H	1.938806	-0.288871	0.191951
H76	H	1.832845	-0.130885	0.065145
H77	H	1.780127	-0.226352	0.054679
H78	H	1.329123	0.248432	0.360906
O79	O	1.315783	0.258307	0.650973
C80	C	1.336420	0.349744	0.613535
H81	H	1.384823	0.349967	0.502204
H82	H	1.398993	0.378690	0.699833
C83	C	1.149602	0.409950	0.743195
C84	C	1.209042	0.410225	0.606450
H85	H	1.071031	0.447259	0.738830
H86	H	1.135700	0.348347	0.768423
H87	H	1.201759	0.434069	0.815096
H88	H	1.156892	0.386095	0.534556
H89	H	1.222932	0.471825	0.581209
O90	O	1.822505	-0.111057	0.650881
C91	C	1.897731	-0.165897	0.550325
H92	H	1.899232	-0.128067	0.441027
H93	H	1.856807	-0.234688	0.534009
C94	C	2.031314	-0.230439	0.744407
C95	C	2.033166	-0.183973	0.610170
H96	H	2.114856	-0.241594	0.781323
H97	H	1.980631	-0.193495	0.812155
H98	H	1.997205	-0.287760	0.730792
H99	H	2.067260	-0.126649	0.623789
H100	H	2.083859	-0.220908	0.542425
H101	H	0.775683	-0.036755	-0.000036
H102	H	0.921298	-0.186684	-0.000036
