data_functionalizedCrystal
_audit_creation_method	'MofGen! by Chris Wilmer'
_symmetry_space_group_name_H-M	'P1'
_symmetry_Int_Tables_number	1
_symmetry_cell_setting	triclinic
loop_
_symmetry_equiv_pos_as_xyz
  x,y,z
_cell_length_a	21.395362
_cell_length_b	13.031981
_cell_length_c	21.395356
_cell_angle_alpha	82.789575
_cell_angle_beta	89.964122
_cell_angle_gamma	97.204883
loop_
_atom_site_label
_atom_site_type_symbol
_atom_site_fract_x
_atom_site_fract_y
_atom_site_fract_z
Zn1	Zn	0.926236	-0.415703	-0.322908
Zn2	Zn	1.426236	0.084297	0.177092
Zn3	Zn	0.912877	-0.590497	-0.204810
Zn4	Zn	1.412877	-0.090497	0.295190
Zn5	Zn	0.821460	-0.415781	-0.218103
Zn6	Zn	1.321460	0.084219	0.281897
Zn7	Zn	0.808145	-0.590490	-0.309515
Zn8	Zn	1.308145	-0.090490	0.190485
O9	O	0.867179	-0.503118	-0.263834
O10	O	1.367179	-0.003118	0.236166
O11	O	1.012144	-0.438860	-0.307283
O12	O	1.512144	0.061140	0.192717
O13	O	0.900732	-0.567357	-0.118893
O14	O	1.400732	-0.067357	0.381107
O15	O	0.846522	-0.269502	-0.243173
O16	O	1.346522	0.230498	0.256827
O17	O	1.002329	-0.567281	-0.220518
O18	O	1.502329	-0.067281	0.279482
O19	O	0.923500	-0.269445	-0.320173
O20	O	1.423500	0.230555	0.179827
O21	O	0.833568	-0.438994	-0.128659
O22	O	1.333568	0.061006	0.371341
O23	O	0.732013	-0.438986	-0.230187
O24	O	1.232013	0.061014	0.269813
O25	O	0.823828	-0.567268	-0.398973
O26	O	1.323828	-0.067268	0.101027
O27	O	0.722231	-0.567343	-0.297348
O28	O	1.222231	-0.067343	0.202652
O29	O	0.910589	-0.438853	-0.408812
O30	O	1.410589	0.061147	0.091188
O31	O	0.887821	-0.736765	-0.207532
O32	O	1.387821	-0.236765	0.292468
O33	O	0.810874	-0.736759	-0.284458
O34	O	1.310874	-0.236759	0.215542
C35	C	0.704387	-0.503173	-0.263757
C36	C	1.204387	-0.003173	0.236243
C37	C	0.634742	-0.503222	-0.263737
C38	C	1.134742	-0.003222	0.236263
C39	C	0.596945	-0.570146	-0.298641
C40	C	1.096945	-0.070146	0.201359
C41	C	0.531512	-0.570121	-0.298671
C42	C	1.031512	-0.070121	0.201329
C43	C	0.503877	-0.503182	-0.263785
C44	C	1.003877	-0.003182	0.236215
C45	C	0.541683	-0.436244	-0.228879
C46	C	1.041683	0.063756	0.271121
C47	C	0.607116	-0.436264	-0.228856
C48	C	1.107116	0.063736	0.271144
C49	C	0.400799	-0.494777	-0.208020
C50	C	0.900799	0.005223	0.291980
C51	C	0.335367	-0.494764	-0.208042
C52	C	0.835367	0.005236	0.291958
C53	C	0.302062	-0.503113	-0.263859
C54	C	0.802062	-0.003113	0.236141
C55	C	0.334195	-0.511497	-0.319654
C56	C	0.834195	-0.011497	0.180346
C57	C	0.399628	-0.511517	-0.319630
C58	C	0.899628	-0.011517	0.180370
C59	C	0.432927	-0.503152	-0.263807
C60	C	0.932927	-0.003152	0.236193
C61	C	0.193314	-0.570014	-0.298798
C62	C	0.693314	-0.070014	0.201202
C63	C	0.127880	-0.569981	-0.298830
C64	C	0.627880	-0.069981	0.201170
C65	C	0.138052	-0.436110	-0.229033
C66	C	0.638052	0.063890	0.270967
C67	C	0.203485	-0.436137	-0.229007
C68	C	0.703485	0.063863	0.270993
C69	C	0.231112	-0.503095	-0.263889
C70	C	0.731112	-0.003095	0.236111
C71	C	0.846470	-0.774687	-0.243113
C72	C	1.346470	-0.274687	0.256887
C73	C	0.837668	-0.890866	-0.234270
C74	C	1.337668	-0.390866	0.265730
C75	C	0.871806	-0.942550	-0.268462
C76	C	1.371806	-0.442550	0.231538
C77	C	0.862710	-1.062627	-0.259323
C78	C	1.362710	-0.562627	0.240677
C79	C	1.030607	-0.503063	-0.263912
C80	C	1.530607	-0.003063	0.236088
C81	C	1.100250	-0.503040	-0.263945
C82	C	1.600250	-0.003040	0.236055
C83	C	0.867213	-0.503051	-0.427262
C84	C	1.367213	-0.003051	0.072738
C85	C	0.867228	-0.503022	-0.496906
C86	C	1.367228	-0.003022	0.003094
C87	C	0.887986	-0.230488	-0.284650
C88	C	1.387986	0.269512	0.215350
C89	C	0.896853	-0.114309	-0.293520
C90	C	1.396853	0.385691	0.206480
C91	C	0.912476	-0.435990	-1.003839
C92	C	1.412476	0.064010	-0.503839
C93	C	0.912469	-0.436015	-0.938402
C94	C	1.412469	0.063985	-0.438402
C95	C	0.867292	-0.502883	-0.900555
C96	C	1.367292	-0.002883	-0.400555
C97	C	0.822129	-0.569749	-0.928149
C98	C	1.322129	-0.069749	-0.428149
C99	C	0.822141	-0.569730	-0.993585
C100	C	1.322141	-0.069730	-0.493585
C101	C	0.810193	-0.511186	-0.796227
C102	C	1.310193	-0.011186	-0.296227
C103	C	0.810180	-0.511199	-0.730793
C104	C	1.310180	-0.011199	-0.230793
C105	C	0.867255	-0.502950	-0.698729
C106	C	1.367255	-0.002950	-0.198729
C107	C	0.924346	-0.494666	-0.732109
C108	C	1.424346	0.005334	-0.232109
C109	C	0.924358	-0.494646	-0.797544
C110	C	1.424358	0.005354	-0.297544
C111	C	0.867274	-0.502912	-0.829600
C112	C	1.367274	-0.002912	-0.329600
C113	C	0.912411	-0.436120	-0.600188
C114	C	1.412411	0.063880	-0.100188
C115	C	0.912405	-0.436152	-0.534748
C116	C	1.412405	0.063848	-0.034748
C117	C	0.822059	-0.569881	-0.524497
C118	C	1.322059	-0.069881	-0.024497
C119	C	0.822071	-0.569854	-0.589935
C120	C	1.322071	-0.069854	-0.089935
C121	C	0.867246	-0.502968	-0.627776
C122	C	1.367246	-0.002968	-0.127776
C123	C	0.867187	-0.503109	-0.101047
C124	C	1.367187	-0.003109	0.398953
C125	C	0.867316	-0.502843	-0.031426
C126	C	1.367316	-0.002843	0.468574
H127	H	0.425788	-0.518341	-0.365060
H128	H	0.925788	-0.018341	0.134940
O129	O	0.748603	-0.520098	-0.694803
O130	O	1.248603	-0.020098	-0.194803
H131	H	0.719550	-0.594469	-0.701661
H132	H	1.219550	-0.094469	-0.201661
H133	H	0.970822	-0.487945	-0.706004
H134	H	1.470822	0.012055	-0.206004
O135	O	0.108251	-0.363920	-0.191400
O136	O	0.608251	0.136080	0.308600
H137	H	0.082528	-0.310797	-0.223556
H138	H	0.582528	0.189203	0.276444
H139	H	0.949244	-0.381571	-0.915936
H140	H	1.449244	0.118429	-0.415936
O141	O	0.944500	-1.055175	-0.341254
O142	O	1.444500	-0.555175	0.158746
H143	H	0.992112	-1.075996	-0.328989
H144	H	1.492112	-0.575996	0.171011
O145	O	0.436714	-0.485774	-0.147811
O146	O	0.936714	0.014226	0.352189
H147	H	0.471943	-0.414972	-0.154261
H148	H	0.971943	0.085028	0.345739
H149	H	0.785365	-0.624172	-1.016045
H150	H	1.285365	-0.124172	-0.516045
H151	H	0.500731	-0.624618	-0.327096
H152	H	1.000731	-0.124618	0.172904
H153	H	0.826743	-1.107271	-0.223284
H154	H	1.326743	-0.607271	0.276716
O155	O	0.961204	-0.363854	-1.044650
O156	O	1.461204	0.136146	-0.544650
H157	H	0.953625	-0.375063	-1.094788
H158	H	1.453625	0.124937	-0.594788
O159	O	0.223109	-0.642206	-0.336441
O160	O	0.723109	-0.142206	0.163559
H161	H	0.256526	-0.595484	-0.371912
H162	H	0.756526	-0.095484	0.128088
O163	O	0.961117	-0.364047	-0.504988
O164	O	1.461117	0.135953	-0.004988
H165	H	0.992528	-0.317532	-0.542298
H166	H	1.492528	0.182468	-0.042298
H167	H	0.637891	-0.381763	-0.200433
H168	H	1.137891	0.118237	0.299567
H169	H	0.785294	-0.624289	-0.612396
H170	H	1.285294	-0.124289	-0.112396
H171	H	0.519179	-0.381740	-0.200476
H172	H	1.019179	0.118260	0.299524
H173	H	0.907766	-0.897906	-0.304504
H174	H	1.407766	-0.397906	0.195496
H175	H	0.801703	-0.935513	-0.198233
H176	H	1.301703	-0.435513	0.301767
H177	H	0.970843	-0.487904	-0.824719
H178	H	1.470843	0.012096	-0.324719
O179	O	0.961135	-0.363966	-0.640997
O180	O	1.461135	0.136034	-0.140997
H181	H	0.937146	-0.310779	-0.674844
H182	H	1.437146	0.189221	-0.174844
H183	H	0.785277	-0.624330	-0.493683
H184	H	1.285277	-0.124330	0.006317
H185	H	0.785346	-0.624195	-0.897330
H186	H	1.285346	-0.124195	-0.397330
H187	H	0.763712	-0.517905	-0.822328
H188	H	1.263712	-0.017905	-0.322328
O189	O	0.298278	-0.520485	-0.379862
O190	O	0.798278	-0.020485	0.120138
H191	H	0.315960	-0.454091	-0.415746
H192	H	0.815960	0.045909	0.084254
H193	H	0.097106	-0.624476	-0.327257
H194	H	0.597106	-0.124476	0.172743
O195	O	0.626745	-0.642347	-0.336271
O196	O	1.126745	-0.142347	0.163729
H197	H	0.589466	-0.688871	-0.360553
H198	H	1.089466	-0.188871	0.139447
H199	H	0.234260	-0.381645	-0.200581
H200	H	0.734260	0.118355	0.299419
H201	H	0.309208	-0.487944	-0.162610
H202	H	0.809208	0.012056	0.337390
