data_functionalizedCrystal
_audit_creation_method	'MofGen! by Chris Wilmer'
_symmetry_space_group_name_H-M	'P1'
_symmetry_Int_Tables_number	1
_symmetry_cell_setting	triclinic
loop_
_symmetry_equiv_pos_as_xyz
  x,y,z
_cell_length_a	16.109318
_cell_length_b	16.109304
_cell_length_c	9.730223
_cell_angle_alpha	90.005306
_cell_angle_beta	89.995603
_cell_angle_gamma	83.465600
loop_
_atom_site_label
_atom_site_type_symbol
_atom_site_fract_x
_atom_site_fract_y
_atom_site_fract_z
O1	O	1.103117	0.106940	0.114167
O2	O	0.861057	0.120225	0.114194
O3	O	0.988735	-0.007448	0.114180
O4	O	0.975439	0.234613	0.114180
O5	O	0.988738	-0.007461	-0.114400
O6	O	0.861060	0.120211	-0.114386
O7	O	1.103120	0.106927	-0.114413
Zn8	Zn	0.982090	0.113567	-0.150692
Zn9	Zn	0.982087	0.113585	0.150472
O10	O	0.975442	0.234599	-0.114400
C11	C	0.830084	0.119677	-0.000093
C12	C	0.737789	0.118056	-0.000082
C13	C	0.438714	0.112829	0.124492
C14	C	0.525435	0.114346	0.124501
C15	C	0.525457	0.114320	-0.124710
C16	C	0.438738	0.112797	-0.124716
C17	C	0.395368	0.112055	-0.000111
C18	C	0.568809	0.115096	-0.000096
C19	C	0.662836	0.116741	-0.000088
C20	C	0.301336	0.110408	-0.000119
C21	C	0.988198	-0.038430	-0.000107
C22	C	0.986582	-0.130725	-0.000097
C23	C	0.982847	-0.343055	0.124497
C24	C	0.981321	-0.429775	0.124496
C25	C	0.981328	-0.429787	-0.124714
C26	C	0.982848	-0.343068	-0.124712
C27	C	0.983612	-0.299704	-0.000102
C28	C	0.980565	-0.473144	-0.000106
C29	C	0.978911	-0.567170	-0.000108
C30	C	0.985265	-0.205672	-0.000099
C31	C	1.134093	0.107474	-0.000124
C32	C	1.226388	0.109095	-0.000125
C33	C	0.975979	0.265581	-0.000110
C34	C	0.977595	0.357876	-0.000110
N35	N	0.982099	0.113554	-0.356228
N36	N	0.982085	0.113591	0.356009
C37	C	0.931787	0.063033	0.427931
C38	C	0.931796	0.063012	0.571814
C39	C	1.032402	0.164114	0.571839
C40	C	1.032397	0.164130	0.427959
H41	H	0.403445	0.112166	-0.226190
H42	H	0.980708	-0.465104	-0.226167
C43	C	0.573171	0.115160	-0.261762
C44	C	0.551792	0.187104	-0.364544
C45	C	0.599505	0.187955	-0.501597
C46	C	0.668598	0.116862	-0.535868
C47	C	0.689981	0.044914	-0.433084
C48	C	0.642267	0.044063	-0.296031
H49	H	0.500642	0.239735	-0.339177
H50	H	0.583676	0.241216	-0.577685
H51	H	0.703919	0.117492	-0.637323
H52	H	0.741130	-0.007718	-0.458451
H53	H	0.658096	-0.009198	-0.219943
C54	C	0.876452	0.007435	0.348784
C55	C	0.821130	-0.048181	0.427904
C56	C	0.765796	-0.103783	0.348762
C57	C	0.765784	-0.103769	0.190499
C58	C	0.821108	-0.048150	0.111370
C59	C	0.876442	0.007452	0.190512
H60	H	0.821137	-0.048194	0.545068
H61	H	0.724841	-0.144956	0.407339
H62	H	0.724822	-0.144929	0.131913
H63	H	0.821101	-0.048138	-0.005794
H64	H	0.917397	0.048624	0.131935
H65	H	1.073360	0.205300	0.369398
H66	H	0.403405	0.112224	0.225954
C67	C	0.983678	-0.295353	0.261564
C68	C	0.982832	-0.343042	0.398620
C69	C	0.983661	-0.295342	0.535691
C70	C	0.985336	-0.199955	0.535705
C71	C	0.986182	-0.152261	0.398644
C72	C	0.985353	-0.199960	0.261573
H73	H	0.981592	-0.413658	0.398614
H74	H	0.983034	-0.330649	0.637153
H75	H	0.985949	-0.164645	0.637173
H76	H	0.987422	-0.081645	0.398650
H77	H	0.985980	-0.164654	0.160111
C78	C	0.876464	0.007401	0.650927
C79	C	0.888914	-0.088046	0.631089
C80	C	0.833580	-0.143660	0.710201
C81	C	0.765795	-0.103828	0.809151
C82	C	0.753341	-0.008377	0.828993
C83	C	0.808675	0.047238	0.749882
H84	H	0.939096	-0.117536	0.557836
H85	H	0.842799	-0.214320	0.695511
H86	H	0.724833	-0.144998	0.867714
H87	H	0.703159	0.021114	0.902246
H88	H	0.799456	0.117898	0.764571
H89	H	0.560724	0.114975	0.225966
H90	H	0.980696	-0.465067	0.225957
C91	C	1.087736	0.219712	0.650988
C92	C	1.087740	0.219703	0.809251
C93	C	1.143073	0.275305	0.888397
C94	C	1.198400	0.330917	0.809279
C95	C	1.198398	0.330929	0.651008
C96	C	1.143066	0.275326	0.571862
H97	H	1.046782	0.178533	0.867826
H98	H	1.143074	0.275296	1.005560
H99	H	1.239361	0.372078	0.867868
H100	H	1.239357	0.372099	0.592433
H101	H	1.143064	0.275335	0.454699
H102	H	0.983466	-0.307770	-0.226181
