data_functionalizedCrystal
_audit_creation_method	'MofGen! by Chris Wilmer'
_symmetry_space_group_name_H-M	'P1'
_symmetry_Int_Tables_number	1
_symmetry_cell_setting	triclinic
loop_
_symmetry_equiv_pos_as_xyz
  x,y,z
_cell_length_a	17.699077
_cell_length_b	10.723024
_cell_length_c	16.776229
_cell_angle_alpha	89.994545
_cell_angle_beta	89.993415
_cell_angle_gamma	83.874223
loop_
_atom_site_label
_atom_site_type_symbol
_atom_site_fract_x
_atom_site_fract_y
_atom_site_fract_z
O1	O	1.005076	0.157762	-0.066276
O2	O	0.784827	0.178299	-0.066279
O3	O	0.900032	-0.013633	-0.066274
O4	O	0.889871	0.349694	-0.066280
O5	O	0.900017	-0.013645	0.066302
O6	O	0.784811	0.178287	0.066297
O7	O	1.005061	0.157750	0.066301
Zn8	Zn	0.894934	0.168017	0.087348
Zn9	Zn	0.894954	0.168032	-0.087327
O10	O	0.889856	0.349682	0.066296
C11	C	0.756618	0.177559	0.000009
C12	C	0.672585	0.175355	0.000007
C13	C	0.633103	0.174310	0.072275
C14	C	0.554147	0.172219	0.072276
C15	C	0.514675	0.171182	0.000008
C16	C	0.554163	0.172223	-0.072266
C17	C	0.633118	0.174305	-0.072266
C18	C	0.235747	0.163826	-0.072267
C19	C	0.156786	0.161748	-0.072262
C20	C	0.156776	0.161740	0.072275
C21	C	0.235731	0.163822	0.072275
C22	C	0.275213	0.164856	0.000002
C23	C	0.360826	0.167121	0.000001
C24	C	0.429062	0.168927	0.000007
C25	C	0.899285	-0.060126	0.000013
C26	C	0.897073	-0.198642	0.000010
C27	C	0.961535	-0.274732	0.000010
C28	C	0.959250	-0.417896	0.000007
C29	C	1.033270	0.158490	0.000011
C30	C	1.117303	0.160694	0.000008
C31	C	0.890603	0.396175	0.000007
C32	C	0.892815	0.534691	0.000005
N33	N	0.894925	0.168005	0.206560
N34	N	0.894969	0.168034	-0.206538
C35	C	0.945954	0.083053	0.248279
C36	C	0.945958	0.083052	0.331731
C37	C	0.894937	0.168010	0.373463
C38	C	0.843903	0.252967	0.331737
C39	C	0.843895	0.252961	0.248287
C40	C	0.843930	0.252992	0.668285
C41	C	0.843943	0.252993	0.751741
C42	C	0.945993	0.083082	0.751729
C43	C	0.945986	0.083076	0.668278
C44	C	0.894949	0.168028	0.626561
C45	C	0.894944	0.168026	0.536072
C46	C	0.894945	0.168019	0.463949
H47	H	0.267865	0.164672	0.131123
Cl48	Cl	1.049359	-0.211683	0.000006
Cl49	Cl	1.010152	-0.023722	0.804179
Cl50	Cl	0.682717	0.175621	0.163133
H51	H	0.522019	0.171370	-0.131108
H52	H	0.665263	0.175158	-0.131114
Cl53	Cl	1.010109	-0.023749	0.384180
H54	H	0.802392	0.322179	0.785718
Cl55	Cl	1.044457	-0.518833	0.000013
Cl56	Cl	0.779775	0.359790	0.615845
Cl57	Cl	0.779739	0.359760	0.195840
H58	H	0.124621	0.160892	0.131124
H59	H	0.837627	-0.399936	0.000010
Cl60	Cl	0.285370	0.165129	-0.163126
Cl61	Cl	1.010103	-0.023754	0.195825
H62	H	0.124649	0.160903	-0.131115
Cl63	Cl	0.809249	-0.261692	0.000001
H64	H	0.987535	0.013899	0.634303
Cl65	Cl	0.779756	0.359769	0.384198
H66	H	0.522006	0.171347	0.131124
