data_functionalizedCrystal
_audit_creation_method	'MofGen! by Chris Wilmer'
_symmetry_space_group_name_H-M	'P1'
_symmetry_Int_Tables_number	1
_symmetry_cell_setting	triclinic
loop_
_symmetry_equiv_pos_as_xyz
  x,y,z
_cell_length_a	12.759395
_cell_length_b	18.101397
_cell_length_c	12.759387
_cell_angle_alpha	89.962982
_cell_angle_beta	89.979491
_cell_angle_gamma	90.022002
loop_
_atom_site_label
_atom_site_type_symbol
_atom_site_fract_x
_atom_site_fract_y
_atom_site_fract_z
Zn1	Zn	1.606227	-0.294760	-0.593960
Zn2	Zn	2.106227	0.205240	-0.093960
Zn3	Zn	1.606100	-0.418620	-0.418261
Zn4	Zn	2.106100	0.081380	0.081739
Zn5	Zn	1.430525	-0.294801	-0.418297
Zn6	Zn	1.930525	0.205199	0.081703
Zn7	Zn	1.430499	-0.418568	-0.593900
Zn8	Zn	1.930499	0.081432	-0.093900
O9	O	1.518338	-0.356687	-0.506104
O10	O	2.018338	0.143313	-0.006104
O11	O	1.753231	-0.311196	-0.570663
O12	O	2.253231	0.188804	-0.070663
O13	O	1.582767	-0.402234	-0.271245
O14	O	2.082767	0.097766	0.228755
O15	O	1.453896	-0.191162	-0.441638
O16	O	1.953896	0.308838	0.058362
O17	O	1.753137	-0.402195	-0.441578
O18	O	2.253137	0.097805	0.058422
O19	O	1.582983	-0.191133	-0.570697
O20	O	2.082983	0.308867	-0.070697
O21	O	1.453773	-0.311264	-0.271271
O22	O	1.953773	0.188736	0.228729
O23	O	1.283500	-0.311213	-0.441581
O24	O	1.783500	0.188787	0.058419
O25	O	1.453853	-0.402105	-0.740929
O26	O	1.953853	0.097895	-0.240929
O27	O	1.283482	-0.402145	-0.570596
O28	O	1.783482	0.097855	-0.070596
O29	O	1.582959	-0.311145	-0.740973
O30	O	2.082959	0.188855	-0.240973
O31	O	1.582742	-0.522246	-0.441520
O32	O	2.082742	-0.022246	0.058480
O33	O	1.453729	-0.522208	-0.570561
O34	O	1.953729	-0.022208	-0.070561
C35	C	1.245370	-0.356678	-0.506086
C36	C	1.745370	0.143322	-0.006086
C37	C	1.128593	-0.356692	-0.506103
C38	C	1.628593	0.143308	-0.006103
C39	C	1.128613	-0.451532	-0.640230
C40	C	1.628613	0.048468	-0.140230
C41	C	1.073761	-0.498958	-0.707296
C42	C	1.573761	0.001042	-0.207296
C43	C	0.964040	-0.498967	-0.707309
C44	C	1.464040	0.001033	-0.207309
C45	C	0.909167	-0.451543	-0.640250
C46	C	1.409167	0.048457	-0.140250
C47	C	0.964018	-0.404118	-0.573184
C48	C	1.464018	0.095882	-0.073184
C49	C	1.073742	-0.404115	-0.573176
C50	C	1.573742	0.095885	-0.073176
C51	C	0.963999	-0.309275	-0.439065
C52	C	1.463999	0.190725	0.060935
C53	C	1.073720	-0.309269	-0.439045
C54	C	1.573720	0.190731	0.060955
C55	C	0.909126	-0.261852	-0.372007
C56	C	1.409126	0.238148	0.127993
C57	C	0.963977	-0.214429	-0.304934
C58	C	1.463977	0.285571	0.195066
C59	C	1.073705	-0.214422	-0.304923
C60	C	1.573705	0.285578	0.195077
C61	C	1.128572	-0.261843	-0.371979
C62	C	1.628572	0.238157	0.128021
C63	C	1.518248	-0.549098	-0.506053
C64	C	2.018248	-0.049098	-0.006053
C65	C	1.518305	-0.631412	-0.506067
C66	C	2.018305	-0.131412	-0.006067
C67	C	1.518439	-0.930503	-0.506163
C68	C	2.018439	-0.430503	-0.006163
C69	C	1.599384	-0.899171	-0.424756
C70	C	2.099384	-0.399171	0.075244
C71	C	1.599665	-0.813553	-0.424967
C72	C	2.099665	-0.313553	0.075033
C73	C	1.518373	-0.782120	-0.506114
C74	C	2.018373	-0.282120	-0.006114
C75	C	1.548394	-0.813118	-0.616855
C76	C	2.048394	-0.313118	-0.116855
C77	C	1.549020	-0.898763	-0.616412
C78	C	2.049020	-0.398763	-0.116412
C79	C	1.407258	-0.899016	-0.477787
C80	C	1.907258	-0.399016	0.022213
C81	C	1.407807	-0.813367	-0.475315
C82	C	1.907807	-0.313367	0.024685
C83	C	1.518334	-0.698261	-0.506094
C84	C	2.018334	-0.198261	-0.006094
C85	C	1.518481	-1.014362	-0.506191
C86	C	2.018481	-0.514362	-0.006191
C87	C	1.792371	-0.356697	-0.506123
C88	C	2.292371	0.143303	-0.006123
C89	C	1.909148	-0.356701	-0.506131
C90	C	2.409148	0.143299	-0.006131
C91	C	1.518417	-0.356615	-0.780138
C92	C	2.018417	0.143385	-0.280138
C93	C	1.518451	-0.356584	-0.896915
C94	C	2.018451	0.143416	-0.396915
C95	C	1.518456	-0.163525	-0.506178
C96	C	2.018456	0.336475	-0.006178
C97	C	1.518507	-0.081211	-0.506210
C98	C	2.018507	0.418789	-0.006210
C99	C	1.652898	-0.261872	-0.896980
C100	C	2.152898	0.238128	-0.396980
C101	C	1.720136	-0.214506	-0.951874
C102	C	2.220136	0.285494	-0.451874
C103	C	1.720162	-0.214479	-1.061595
C104	C	2.220162	0.285521	-0.561595
C105	C	1.652940	-0.261822	-1.116426
C106	C	2.152940	0.238178	-0.616426
C107	C	1.585701	-0.309189	-1.061533
C108	C	2.085701	0.190811	-0.561533
C109	C	1.585685	-0.309212	-0.951808
C110	C	2.085685	0.190788	-0.451808
C111	C	1.451251	-0.403895	-1.061467
C112	C	1.951251	0.096105	-0.561467
C113	C	1.451229	-0.403927	-0.951745
C114	C	1.951229	0.096073	-0.451745
C115	C	1.384028	-0.451238	-1.116298
C116	C	1.884028	0.048762	-0.616298
C117	C	1.316794	-0.498610	-1.061404
C118	C	1.816794	0.001390	-0.561404
C119	C	1.316772	-0.498636	-0.951676
C120	C	1.816772	0.001364	-0.451676
C121	C	1.383990	-0.451294	-0.896852
C122	C	1.883990	0.048706	-0.396852
C123	C	1.518319	-0.356706	-0.233137
C124	C	2.018319	0.143294	0.266863
C125	C	1.518489	-0.356528	-0.116361
C126	C	2.018489	0.143472	0.383639
H127	H	0.819826	-0.451549	-0.640276
H128	H	1.319826	0.048451	-0.140276
H129	H	1.118451	-0.537568	-0.761895
H130	H	1.618451	-0.037568	-0.261895
F131	F	1.324733	-0.785411	-0.547138
F132	F	1.824733	-0.285411	-0.047138
F133	F	1.328427	-0.925501	-0.555283
F134	F	1.828427	-0.425501	-0.055283
H135	H	0.919380	-0.537581	-0.761925
H136	H	1.419380	-0.037581	-0.261925
H137	H	1.217913	-0.261844	-0.371974
H138	H	1.717913	0.238156	0.128026
F139	F	0.905572	-0.163958	-0.233581
F140	F	1.405572	0.336042	0.266419
H141	H	1.682022	-0.793006	-0.443741
H142	H	2.182022	-0.293006	0.056259
F143	F	1.245388	-0.451535	-0.640209
F144	F	1.745388	0.048465	-0.140209
H145	H	1.652894	-0.261897	-0.807639
H146	H	2.152894	0.238103	-0.307639
F147	F	1.473685	-0.786511	-0.698268
F148	F	1.973685	-0.286511	-0.198268
F149	F	1.653429	-0.785004	-0.648808
F150	F	2.153429	-0.285004	-0.148808
H151	H	1.262062	-0.537149	-1.106056
H152	H	1.762062	-0.037149	-0.606056
F153	F	1.475298	-0.925852	-0.698386
F154	F	1.975298	-0.425852	-0.198386
H155	H	1.774865	-0.175958	-0.907218
H156	H	2.274865	0.324042	-0.407218
H157	H	1.652957	-0.261789	-1.205767
H158	H	2.152957	0.238211	-0.705767
H159	H	0.819785	-0.261859	-0.372027
H160	H	1.319785	0.238141	0.127973
H161	H	1.384050	-0.451210	-1.205639
H162	H	1.884050	0.048790	-0.705639
H163	H	1.774906	-0.175904	-1.106289
H164	H	2.274906	0.324096	-0.606289
F165	F	1.371560	-0.927337	-0.374068
F166	F	1.871560	-0.427337	0.125932
H167	H	1.385170	-0.793115	-0.393818
H168	H	1.885170	-0.293115	0.106182
F169	F	1.132074	-0.163940	-0.233545
F170	F	1.632074	0.336060	0.266455
F171	F	1.245201	-0.549047	-0.893263
F172	F	1.745201	-0.049047	-0.393263
F173	F	1.575060	-0.786161	-0.317652
F174	F	2.075060	-0.286161	0.182348
F175	F	1.383977	-0.451320	-0.780076
F176	F	1.883977	0.048680	-0.280076
H177	H	1.630289	-0.918679	-0.640449
H178	H	2.130289	-0.418679	-0.140449
H179	H	1.580828	-0.919821	-0.342397
H180	H	2.080828	-0.419821	0.157603
H181	H	1.681291	-0.920636	-0.443314
H182	H	2.181291	-0.420636	0.056686
