data_functionalizedCrystal
_audit_creation_method	'MofGen! by Chris Wilmer'
_symmetry_space_group_name_H-M	'P1'
_symmetry_Int_Tables_number	1
_symmetry_cell_setting	triclinic
loop_
_symmetry_equiv_pos_as_xyz
  x,y,z
_cell_length_a	16.109301
_cell_length_b	17.699083
_cell_length_c	14.586319
_cell_angle_alpha	89.995320
_cell_angle_beta	89.999213
_cell_angle_gamma	83.372248
loop_
_atom_site_label
_atom_site_type_symbol
_atom_site_fract_x
_atom_site_fract_y
_atom_site_fract_z
O1	O	1.102963	0.097285	-0.076184
O2	O	0.860880	0.109391	-0.076199
O3	O	0.988761	-0.006841	-0.076183
O4	O	0.975082	0.213517	-0.076200
O5	O	0.988752	-0.006843	0.076298
O6	O	0.860872	0.109390	0.076282
O7	O	1.102954	0.097283	0.076297
Cu8	Cu	0.981912	0.103336	0.090212
Cu9	Cu	0.981923	0.103338	-0.090114
O10	O	0.975074	0.213516	0.076281
C11	C	0.829902	0.108900	0.000040
C12	C	0.737609	0.107430	0.000034
C13	C	0.515224	0.172981	0.000040
C14	C	0.428506	0.171594	0.000046
C15	C	0.448618	0.033688	0.000053
C16	C	0.535334	0.035076	0.000053
C17	C	0.568635	0.104725	0.000042
C18	C	0.395200	0.101949	0.000047
C19	C	0.301177	0.100445	0.000054
C20	C	0.662664	0.106230	0.000037
C21	C	0.988267	-0.035040	0.000057
C22	C	0.986796	-0.119060	0.000058
C23	C	1.061860	-0.167574	0.000064
C24	C	1.060473	-0.246519	0.000055
C25	C	0.984022	-0.276949	0.000048
C26	C	0.908953	-0.228429	0.000039
C27	C	0.910341	-0.149485	0.000041
C28	C	0.903356	-0.546800	0.000031
C29	C	0.901974	-0.625750	0.000033
C30	C	1.053488	-0.643834	0.000046
C31	C	1.054876	-0.564890	0.000048
C32	C	0.979807	-0.516377	0.000034
C33	C	0.981312	-0.430776	0.000041
C34	C	0.982517	-0.362549	0.000047
C35	C	1.133933	0.097774	0.000056
C36	C	1.226226	0.099244	0.000055
C37	C	0.975568	0.241714	0.000038
C38	C	0.977039	0.325734	0.000032
N39	N	0.981911	0.103334	0.217044
N40	N	0.981931	0.103334	-0.216946
C41	C	1.038555	0.051884	0.452057
C42	C	1.038558	0.051882	0.548038
C43	C	0.925280	0.154787	0.548034
C44	C	0.925274	0.154785	0.452054
C45	C	0.981917	0.103334	0.404068
C46	C	0.981925	0.103334	0.596029
C47	C	0.981927	0.103333	0.700096
C48	C	0.981914	0.103334	0.299995
H49	H	0.385022	0.227175	0.000046
H50	H	1.084675	0.009988	0.412989
O51	O	1.093658	0.001876	0.594512
C52	C	1.143632	-0.043547	0.531573
H53	H	1.144503	-0.012514	0.463153
H54	H	1.116754	-0.099780	0.521372
C55	C	1.232281	-0.097238	0.653061
C56	C	1.233357	-0.059120	0.569029
H57	H	1.287626	-0.106847	0.676166
H58	H	1.198611	-0.066638	0.695466
H59	H	1.209878	-0.144094	0.644549
H60	H	1.255749	-0.012260	0.577544
H61	H	1.267032	-0.089712	0.526627
O62	O	0.547612	0.240617	-0.000127
C63	C	0.597186	0.245545	-0.079088
H64	H	0.576761	0.206000	-0.134283
H65	H	0.665609	0.228074	-0.061234
C66	C	0.611585	0.376516	-0.047106
C67	C	0.586495	0.327951	-0.114900
H68	H	0.604994	0.427348	-0.069195
H69	H	0.578189	0.373196	0.006093
H70	H	0.668603	0.361948	-0.032234
H71	H	0.529476	0.342513	-0.129763
H72	H	0.619881	0.331275	-0.168103
H73	H	0.421494	-0.023018	0.000067
O74	O	0.587105	-0.031303	0.000014
C75	C	0.539120	-0.093075	0.000038
H76	H	0.474358	-0.073853	-0.028833
H77	H	0.532989	-0.114426	0.073192
C78	C	0.662013	-0.181282	-0.024295
C79	C	0.582473	-0.157675	-0.059762
H80	H	0.688755	-0.221133	-0.061178
H81	H	0.694342	-0.139666	-0.024308
H82	H	0.656892	-0.199070	0.036666
H83	H	0.587595	-0.139879	-0.120717
H84	H	0.550145	-0.199290	-0.059760
H85	H	0.879165	0.196679	0.587113
O86	O	0.830381	-0.499761	-0.000093
C87	C	0.783966	-0.513537	-0.079076
H88	H	0.804510	-0.573423	-0.105405
H89	H	0.795242	-0.470353	-0.134374
C90	C	0.665051	-0.432468	-0.022749
C91	C	0.690278	-0.506024	-0.055083
H92	H	0.607259	-0.427831	-0.007952
H93	H	0.696321	-0.423184	0.030462
H94	H	0.674454	-0.396490	-0.068836
H95	H	0.680884	-0.542000	-0.008992
H96	H	0.659003	-0.515313	-0.108286
O97	O	0.870335	0.204873	0.405475
C98	C	0.883684	0.279802	0.428930
H99	H	0.950246	0.280191	0.455310
H100	H	0.837561	0.302023	0.484642
C101	C	0.788904	0.330629	0.311261
C102	C	0.870659	0.331108	0.343653
H103	H	0.780866	0.362279	0.258660
H104	H	0.779908	0.280149	0.295460
H105	H	0.750477	0.349145	0.357695
H106	H	0.909083	0.312583	0.297224
H107	H	0.879661	0.381587	0.359444
O108	O	1.136198	-0.138144	0.000028
C109	C	1.202152	-0.197896	0.000051
H110	H	1.178953	-0.251516	-0.028816
H111	H	1.225298	-0.209078	0.073204
C112	C	1.302765	-0.109773	-0.024291
C113	C	1.274272	-0.175628	-0.059754
H114	H	1.347254	-0.096036	-0.061177
H115	H	1.258331	-0.069516	-0.024303
H116	H	1.322047	-0.119100	0.036670
H117	H	1.254981	-0.166297	-0.120708
H118	H	1.318705	-0.215883	-0.059753
O119	O	1.133370	-0.293673	-0.000102
C120	C	1.137102	-0.339882	-0.079066
H121	H	1.094531	-0.310955	-0.134263
H122	H	1.115703	-0.397287	-0.061220
C123	C	1.279881	-0.387416	-0.047073
C124	C	1.227600	-0.351884	-0.114870
H125	H	1.335704	-0.394823	-0.069157
H126	H	1.277366	-0.356287	0.006129
H127	H	1.262038	-0.435249	-0.032207
H128	H	1.245436	-0.304048	-0.129726
H129	H	1.230120	-0.383005	-0.168075
H130	H	1.117130	-0.540119	0.000058
H131	H	0.849216	-0.109986	0.000036
O132	O	1.126336	-0.691069	0.000008
C133	C	1.108725	-0.767273	0.000023
H134	H	1.043431	-0.770283	-0.028852
H135	H	1.111916	-0.790112	0.073175
C136	C	1.253573	-0.811902	-0.024304
C137	C	1.173380	-0.815598	-0.059777
H138	H	1.293457	-0.841712	-0.061187
H139	H	1.265439	-0.760562	-0.024311
H140	H	1.256221	-0.830933	0.036656
H141	H	1.170731	-0.796559	-0.120730
H142	H	1.161515	-0.866936	-0.059781
H143	H	0.839715	-0.650523	0.000028
H144	H	0.846705	-0.253211	0.000027
