data_functionalizedCrystal
_audit_creation_method	'MofGen! by Chris Wilmer'
_symmetry_space_group_name_H-M	'P1'
_symmetry_Int_Tables_number	1
_symmetry_cell_setting	triclinic
loop_
_symmetry_equiv_pos_as_xyz
  x,y,z
_cell_length_a	10.654583
_cell_length_b	17.666332
_cell_length_c	10.654558
_cell_angle_alpha	89.994512
_cell_angle_beta	84.493378
_cell_angle_gamma	89.984984
loop_
_atom_site_label
_atom_site_type_symbol
_atom_site_fract_x
_atom_site_fract_y
_atom_site_fract_z
O1	O	-1.667831	0.063047	-0.176600
O2	O	-1.302358	0.063026	-0.193362
O3	O	-1.493492	0.063034	-0.002243
O4	O	-1.476697	0.063039	-0.367718
O5	O	-1.493458	-0.062863	-0.002233
O6	O	-1.302324	-0.062871	-0.193351
O7	O	-1.667797	-0.062850	-0.176589
Cu8	Cu	-1.485057	-0.074356	-0.184969
Cu9	Cu	-1.485097	0.074532	-0.184982
O10	O	-1.476663	-0.062857	-0.367708
C11	C	-1.255544	0.000075	-0.192117
C12	C	-1.116102	0.000067	-0.188409
C13	C	-1.050554	-0.068555	-0.186673
C14	C	-0.919533	-0.068546	-0.183198
C15	C	-0.919620	0.068713	-0.183201
C16	C	-1.050639	0.068704	-0.186666
C17	C	-1.050502	-0.147801	-0.186677
C18	C	-0.919481	-0.147792	-0.183203
N19	N	-1.485038	-0.179075	-0.184960
C20	C	-1.569700	-0.218681	-0.100374
C21	C	-1.569708	-0.297929	-0.100368
C22	C	-1.485065	-0.337567	-0.184969
C23	C	-1.400387	-0.297951	-0.269561
C24	C	-1.400373	-0.218705	-0.269556
N25	N	-1.470049	-0.461985	-0.295957
N26	N	-1.470070	-0.537265	-0.295958
C27	C	-1.485098	-0.576331	-0.184987
N28	N	-1.500131	-0.537273	-0.074012
N29	N	-1.500117	-0.461985	-0.074013
C30	C	-1.485069	-0.423496	-0.184984
C31	C	-1.569773	-0.701867	-0.100389
C32	C	-1.569771	-0.781116	-0.100381
C33	C	-1.400457	-0.781137	-0.269585
C34	C	-1.400452	-0.701889	-0.269581
C35	C	-1.485117	-0.662259	-0.184985
C36	C	-0.714613	0.000095	-0.177815
C37	C	-0.854061	0.000085	-0.181468
C38	C	-1.492240	0.000086	0.044560
C39	C	-1.488544	0.000088	0.184003
N40	N	-1.485126	0.179251	-0.184981
C41	C	-1.477915	0.000092	-0.414511
C42	C	-1.481611	0.000095	-0.553954
C43	C	-1.486786	-0.068537	0.249523
C44	C	-1.483324	-0.068534	0.380546
C45	C	-1.483372	0.068725	0.380518
C46	C	-1.486843	0.068722	0.249498
C47	C	-1.486753	-0.147783	0.249539
C48	C	-1.483291	-0.147780	0.380562
H49	H	-1.104007	0.124583	-0.188060
C50	C	-1.283168	-0.202791	0.267546
C51	C	-1.366008	-0.180989	0.179749
H52	H	-1.208630	-0.223294	0.224457
H53	H	-1.262219	-0.159941	0.315162
H54	H	-1.322472	-0.239936	0.322551
H55	H	-1.326708	-0.143840	0.124750
H56	H	-1.386957	-0.223844	0.132112
H57	H	-1.080072	-0.172387	-0.278273
C58	C	-1.737122	-0.709803	0.066871
C59	C	-1.662819	-0.658299	-0.007389
H60	H	-1.794558	-0.682906	0.124290
H61	H	-1.782754	-0.740697	0.014169
H62	H	-1.684442	-0.740727	0.112534
H63	H	-1.715499	-0.627379	-0.053059
H64	H	-1.617184	-0.627392	0.045319
C65	C	-1.233109	-0.709872	-0.436837
C66	C	-1.307401	-0.658349	-0.362576
H67	H	-1.175666	-0.682990	-0.494253
H68	H	-1.187486	-0.740792	-0.384136
H69	H	-1.285796	-0.740768	-0.482503
H70	H	-1.254715	-0.627456	-0.316903
H71	H	-1.353028	-0.627415	-0.415284
C72	C	-1.486553	0.204395	0.262638
C73	C	-1.488785	0.144157	0.177479
H74	H	-1.487745	0.250967	0.218172
H75	H	-1.558301	0.201540	0.322666
H76	H	-1.412085	0.201537	0.304813
H77	H	-1.563258	0.147011	0.135310
H78	H	-1.417030	0.147013	0.117428
C79	C	-1.740400	-0.387017	-0.074744
C80	C	-1.662779	-0.341475	-0.007387
H81	H	-1.797852	-0.413900	-0.017338
H82	H	-1.786013	-0.356086	-0.127438
H83	H	-1.689972	-0.421960	-0.125120
H84	H	-1.713207	-0.306527	0.042983
H85	H	-1.617162	-0.372408	0.045329
H86	H	-0.866304	0.124594	-0.181782
C87	C	-1.675581	-0.213743	0.326710
C88	C	-1.606449	-0.188845	0.216003
H89	H	-1.749479	-0.239086	0.306003
H90	H	-1.625523	-0.247537	0.370142
H91	H	-1.698644	-0.171487	0.379058
H92	H	-1.583379	-0.231101	0.163659
H93	H	-1.656517	-0.155049	0.172552
C94	C	-1.325244	-0.419440	-0.344709
C95	C	-1.307349	-0.341519	-0.362561
H96	H	-1.267806	-0.446335	-0.402129
H97	H	-1.310878	-0.432435	-0.260772
H98	H	-1.409184	-0.432397	-0.359143
H99	H	-1.223412	-0.328560	-0.348118
H100	H	-1.321706	-0.328518	-0.446518
H101	H	-0.889883	-0.172385	-0.091604
C102	C	-1.478075	0.129678	0.581350
C103	C	-1.481492	0.144165	0.452513
H104	H	-1.476905	0.176253	0.625791
H105	H	-1.550602	0.101489	0.611747
H106	H	-1.404386	0.101476	0.593888
H107	H	-1.555186	0.172362	0.439974
H108	H	-1.408957	0.172365	0.422107
H109	H	-1.572727	-0.172370	0.432258
H110	H	-1.394612	-0.178214	0.405413
H111	H	-1.096750	-0.178233	-0.099884
H112	H	-1.638636	-0.186417	-0.031488
H113	H	-0.873189	-0.178215	-0.269993
C114	C	-1.328515	-0.194306	-0.486284
C115	C	-1.307316	-0.175164	-0.362549
H116	H	-1.271071	-0.167421	-0.543693
H117	H	-1.316399	-0.247167	-0.498382
H118	H	-1.412451	-0.181298	-0.500695
H119	H	-1.223382	-0.188177	-0.348135
H120	H	-1.319422	-0.122291	-0.350445
H121	H	-1.638710	-0.813364	-0.031494
H122	H	-1.331534	-0.813409	-0.338464
