data_functionalizedCrystal
_audit_creation_method	'MofGen! by Chris Wilmer'
_symmetry_space_group_name_H-M	'P1'
_symmetry_Int_Tables_number	1
_symmetry_cell_setting	triclinic
loop_
_symmetry_equiv_pos_as_xyz
  x,y,z
_cell_length_a	17.699083
_cell_length_b	14.971486
_cell_length_c	14.048226
_cell_angle_alpha	89.993360
_cell_angle_beta	89.999567
_cell_angle_gamma	83.448572
loop_
_atom_site_label
_atom_site_type_symbol
_atom_site_fract_x
_atom_site_fract_y
_atom_site_fract_z
O1	O	1.004356	0.113112	-0.079028
O2	O	0.784014	0.127829	-0.079059
O3	O	0.900091	-0.009750	-0.079036
O4	O	0.888279	0.250691	-0.079051
O5	O	0.900077	-0.009758	0.079286
O6	O	0.784000	0.127820	0.079262
O7	O	1.004342	0.113104	0.079294
Zn8	Zn	0.894169	0.120461	0.104415
Zn9	Zn	0.894187	0.120472	-0.104180
O10	O	0.888265	0.250683	0.079270
C11	C	0.899556	-0.043077	0.000125
C12	C	0.897973	-0.142368	0.000124
C13	C	0.755809	0.127297	0.000098
C14	C	0.671787	0.125715	0.000086
C15	C	0.966165	-0.199828	0.000134
C16	C	0.964673	-0.293123	0.000124
C17	C	0.894988	-0.328955	0.000111
C18	C	0.826791	-0.271488	0.000098
C19	C	0.828284	-0.178196	0.000101
C20	C	0.823685	-0.465940	0.000094
C21	C	0.822192	-0.559239	0.000093
C22	C	0.960074	-0.580867	0.000117
C23	C	0.961566	-0.487574	0.000120
C24	C	0.893369	-0.430114	0.000109
C25	C	0.623365	0.206471	0.000082
C26	C	0.544418	0.204979	0.000094
C27	C	0.513894	0.122731	0.000104
C28	C	0.562323	0.041969	0.000111
C29	C	0.641268	0.043462	0.000106
C30	C	0.243945	0.035947	0.000135
C31	C	0.164993	0.034461	0.000138
C32	C	0.147094	0.197465	0.000124
C33	C	0.226040	0.198958	0.000118
C34	C	0.274461	0.118196	0.000130
C35	C	0.360064	0.119815	0.000119
C36	C	0.428293	0.121111	0.000109
C37	C	1.032547	0.113636	0.000135
C38	C	1.116569	0.115218	0.000140
C39	C	0.888801	0.284010	0.000108
C40	C	0.890383	0.383301	0.000103
N41	N	0.894162	0.120453	0.246776
N42	N	0.894200	0.120472	-0.246541
C43	C	0.945577	0.059559	0.296604
C44	C	0.945582	0.059558	0.396262
C45	C	0.894175	0.120457	0.446089
C46	C	0.842755	0.181355	0.396254
C47	C	0.842746	0.181350	0.296598
C48	C	0.842776	0.181361	0.603968
C49	C	0.842785	0.181367	0.703631
C50	C	0.945612	0.059569	0.703632
C51	C	0.945604	0.059565	0.603976
C52	C	0.894184	0.120464	0.554148
H53	H	1.022910	-0.170661	0.000151
F54	F	0.095554	0.283419	0.000114
H55	H	0.800902	0.230949	0.563401
F56	F	0.132511	-0.053083	0.000149
F57	F	0.295469	-0.050006	0.000148
H58	H	0.250887	0.265933	0.000105
F59	F	1.000337	-0.005243	0.756667
H60	H	0.770052	-0.300671	0.000081
H61	H	0.537465	-0.024999	0.000133
F62	F	0.755704	-0.117043	0.000087
F63	F	0.692803	-0.042490	0.000114
H64	H	1.015603	-0.627656	0.000124
H65	H	0.987441	0.009971	0.256041
H66	H	1.020202	-0.339903	0.000135
F67	F	0.788039	0.246165	0.449285
F68	F	0.655842	0.294012	0.000065
F69	F	1.035732	-0.449441	0.000132
F70	F	1.000302	-0.005254	0.449293
F71	F	0.751100	-0.404788	0.000079
F72	F	0.788070	0.246183	0.756654
F73	F	0.788021	0.246161	0.243568
F74	F	0.748025	-0.597373	0.000080
F75	F	0.492886	0.290931	0.000085
F76	F	1.000320	-0.005245	0.550945
