data_functionalizedCrystal
_audit_creation_method	'MofGen! by Chris Wilmer'
_symmetry_space_group_name_H-M	'P1'
_symmetry_Int_Tables_number	1
_symmetry_cell_setting	triclinic
loop_
_symmetry_equiv_pos_as_xyz
  x,y,z
_cell_length_a	10.967926
_cell_length_b	10.908878
_cell_length_c	10.065875
_cell_angle_alpha	96.606954
_cell_angle_beta	93.120479
_cell_angle_gamma	72.684821
loop_
_atom_site_label
_atom_site_type_symbol
_atom_site_fract_x
_atom_site_fract_y
_atom_site_fract_z
O1	O	1.568541	0.221803	0.255422
O2	O	2.068541	0.721803	0.755422
O3	O	1.217771	0.225435	0.172920
O4	O	1.717771	0.725435	0.672920
O5	O	1.439654	0.038916	0.225113
O6	O	1.939654	0.538916	0.725113
O7	O	1.346658	0.408322	0.203230
O8	O	1.846658	0.908322	0.703230
O9	O	1.397314	0.074632	0.442142
O10	O	1.897314	0.574632	0.942142
O11	O	1.175431	0.261151	0.389950
O12	O	1.675431	0.761151	0.889950
O13	O	1.526201	0.257519	0.472451
O14	O	2.026201	0.757519	0.972451
Zn15	Zn	1.344094	0.265006	0.465659
Zn16	Zn	1.844094	0.765006	0.965659
Zn17	Zn	1.399879	0.217949	0.179713
Zn18	Zn	1.899879	0.717949	0.679713
O19	O	1.304318	0.444038	0.420259
O20	O	1.804318	0.944038	0.920259
C21	C	1.152400	0.240330	0.271039
C22	C	1.652400	0.740330	0.771039
C23	C	1.020698	0.231486	0.240062
C24	C	1.520698	0.731486	0.740062
C25	C	0.940048	0.246045	0.338680
C26	C	1.440048	0.746045	0.838680
C27	C	0.803926	0.236905	0.306666
C28	C	1.303926	0.736905	0.806666
C29	C	1.427176	0.009349	0.335670
C30	C	1.927176	0.509349	0.835670
C31	C	1.453059	-0.131964	0.341753
C32	C	1.953059	0.368036	0.841753
C33	C	1.358619	-0.185499	0.319538
C34	C	1.858619	0.314501	0.819538
C35	C	1.385369	-0.331553	0.325825
C36	C	1.885369	0.168447	0.825825
C37	C	1.591573	0.242624	0.374330
C38	C	2.091573	0.742624	0.874330
C39	C	1.723277	0.251466	0.405298
C40	C	2.223277	0.751466	0.905298
C41	C	1.316797	0.473605	0.309699
C42	C	1.816797	0.973605	0.809699
C43	C	1.290916	0.614917	0.303607
C44	C	1.790916	1.114917	0.803607
N45	N	1.306031	0.297121	0.660811
N46	N	1.806031	0.797121	1.160811
N47	N	1.437953	0.185824	-0.015437
N48	N	1.937953	0.685824	0.484563
C49	C	1.386630	0.229114	0.747548
C50	C	1.886630	0.729114	1.247548
C51	C	1.357343	0.253841	0.897827
C52	C	1.857343	0.753841	1.397827
H53	H	0.754997	0.270695	0.513436
H54	H	1.254997	0.770695	1.013436
Cl55	Cl	0.971729	0.201784	0.073113
Cl56	Cl	1.471729	0.701784	0.573113
Cl57	Cl	1.578175	0.067942	0.927515
Cl58	Cl	2.078175	0.567942	1.427515
Cl59	Cl	1.166011	0.415274	0.717916
Cl60	Cl	1.666011	0.915274	1.217916
H61	H	0.971777	0.265269	0.446810
H62	H	1.471777	0.765269	0.946810
H63	H	1.266648	0.330371	0.934814
H64	H	1.766648	0.830371	1.434814
H65	H	0.772207	0.217669	0.198529
H66	H	1.272207	0.717669	0.698529
H67	H	1.477312	0.152579	0.710555
H68	H	1.977312	0.652579	1.210555
H69	H	1.257961	-0.123202	0.295872
H70	H	1.757961	0.376798	0.795872
Cl71	Cl	1.135493	-0.288919	0.267068
Cl72	Cl	1.635493	0.211081	0.767068
H73	H	1.486031	-0.393843	0.349505
H74	H	1.986031	0.106157	0.849505
Cl75	Cl	1.608469	-0.228132	0.378314
Cl76	Cl	2.108469	0.271868	0.878314
