data_functionalizedCrystal
_audit_creation_method	'MofGen! by Chris Wilmer'
_symmetry_space_group_name_H-M	'P1'
_symmetry_Int_Tables_number	1
_symmetry_cell_setting	triclinic
loop_
_symmetry_equiv_pos_as_xyz
  x,y,z
_cell_length_a	12.759401
_cell_length_b	12.759399
_cell_length_c	12.759393
_cell_angle_alpha	89.971302
_cell_angle_beta	89.979705
_cell_angle_gamma	90.014909
loop_
_atom_site_label
_atom_site_type_symbol
_atom_site_fract_x
_atom_site_fract_y
_atom_site_fract_z
Zn1	Zn	1.606254	-0.418245	-0.594024
Zn2	Zn	1.606143	-0.593959	-0.418348
Zn3	Zn	1.430554	-0.418292	-0.418360
Zn4	Zn	1.430541	-0.593880	-0.593985
O5	O	1.518373	-0.506094	-0.506179
O6	O	1.753260	-0.441568	-0.570731
O7	O	1.582810	-0.570709	-0.271328
O8	O	1.453913	-0.271265	-0.441683
O9	O	1.753179	-0.570664	-0.441663
O10	O	1.582998	-0.271231	-0.570743
O11	O	1.453805	-0.441647	-0.271337
O12	O	1.283531	-0.441571	-0.441646
O13	O	1.453891	-0.570530	-0.741012
O14	O	1.283522	-0.570575	-0.570677
O15	O	1.582986	-0.441491	-0.741040
O16	O	1.582797	-0.740970	-0.441625
O17	O	1.453783	-0.740912	-0.570666
C18	C	1.245406	-0.506070	-0.506159
C19	C	1.128629	-0.506085	-0.506175
C20	C	1.073741	-0.438825	-0.439112
C21	C	0.964017	-0.438850	-0.439125
C22	C	0.964078	-0.573398	-0.573275
C23	C	1.073800	-0.573377	-0.573256
C24	C	0.814004	-0.401189	-0.315311
C25	C	0.759112	-0.333912	-0.248257
C26	C	0.794722	-0.231372	-0.232296
C27	C	0.885222	-0.196087	-0.283404
C28	C	0.940108	-0.263358	-0.350467
C29	C	0.904500	-0.365913	-0.366408
C30	C	1.223816	-0.611027	-0.697071
C31	C	1.278704	-0.678294	-0.764140
C32	C	1.243096	-0.780836	-0.780112
C33	C	1.152592	-0.816117	-0.729021
C34	C	1.097704	-0.748850	-0.661953
C35	C	1.133320	-0.646309	-0.645979
C36	C	1.518306	-0.779062	-0.506163
C37	C	1.518373	-0.895838	-0.506191
C38	C	1.451185	-0.950708	-0.573333
C39	C	1.451251	-1.060432	-0.573353
C40	C	1.585701	-1.060407	-0.439086
C41	C	1.585629	-0.950685	-0.439061
C42	C	1.327424	-1.210469	-0.610817
C43	C	1.260246	-1.265342	-0.677976
C44	C	1.244039	-1.229672	-0.780468
C45	C	1.295026	-1.139130	-0.815822
C46	C	1.362212	-1.084262	-0.748669
C47	C	1.378399	-1.119930	-0.646162
C48	C	1.709457	-0.800646	-0.401608
C49	C	1.776650	-0.745776	-0.334460
C50	C	1.792867	-0.781444	-0.231965
C51	C	1.741899	-0.871990	-0.196615
C52	C	1.674707	-0.926860	-0.263764
C53	C	1.658487	-0.891185	-0.366257
C54	C	1.792406	-0.506119	-0.506200
C55	C	1.909183	-0.506130	-0.506209
C56	C	1.518449	-0.505996	-0.780213
C57	C	1.518482	-0.505955	-0.896989
C58	C	1.518469	-0.232061	-0.506219
C59	C	1.518510	-0.115284	-0.506235
C60	C	1.585682	-0.573079	-1.061582
C61	C	1.585657	-0.573129	-0.951858
C62	C	1.451321	-0.438734	-0.951850
C63	C	1.451342	-0.438691	-1.061573
C64	C	1.623121	-0.697098	-0.801901
C65	C	1.690291	-0.764306	-0.747044
C66	C	1.792806	-0.780433	-0.782670
C67	C	1.828172	-0.729337	-0.873151
C68	C	1.761007	-0.662120	-0.928002
C69	C	1.658478	-0.646013	-0.892378
C70	C	1.413889	-0.314720	-1.211532
C71	C	1.346728	-0.247498	-1.266385
C72	C	1.244211	-0.231360	-1.230761
C73	C	1.208849	-0.282438	-1.140277
C74	C	1.276009	-0.349661	-1.085423
C75	C	1.378525	-0.365800	-1.121055
C76	C	1.518357	-0.506116	-0.233212
C77	C	1.518528	-0.505862	-0.116436
H78	H	1.287787	-0.835598	-0.834738
H79	H	1.633207	-1.000589	-0.234973
Cl80	Cl	1.494226	-0.676861	-0.757130
H81	H	1.125377	-0.269285	-1.111261
H82	H	1.352381	-0.649550	-0.805762
Cl83	Cl	1.670256	-1.129364	-0.354708
Cl84	Cl	1.366886	-0.354272	-0.882872
H85	H	1.013785	-0.234627	-0.392087
H86	H	1.640389	-0.627775	-1.106249
Cl87	Cl	1.805458	-0.597886	-1.041742
Cl88	Cl	1.159787	-0.146838	-1.299715
H89	H	1.696241	-0.771584	-0.485061
Cl90	Cl	1.762291	-0.916840	-0.067764
Cl91	Cl	0.769175	-0.530072	-0.335446
Cl92	Cl	0.725711	-0.146797	-0.148001
H93	H	1.661486	-0.805909	-0.673374
H94	H	1.911655	-0.742463	-0.902143
Cl95	Cl	1.877350	-0.712469	-0.147554
Cl96	Cl	1.107819	-0.945029	-0.749104
H97	H	1.247208	-0.391252	-1.011746
Cl98	Cl	1.274662	-1.094303	-0.944684
Cl99	Cl	0.895144	-0.657995	-0.657594
Cl100	Cl	1.159588	-1.298660	-0.864895
H101	H	1.818153	-0.672051	-0.363252
Cl102	Cl	0.983928	-0.793206	-0.597721
H103	H	1.218732	-1.339062	-0.649181
H104	H	1.847496	-0.835156	-0.737997
Cl105	Cl	1.347766	-1.255299	-0.481953
H106	H	0.914204	-0.112585	-0.270410
Cl107	Cl	1.391191	-0.183271	-1.380130
H108	H	1.497371	-0.327847	-1.240540
Cl109	Cl	1.366630	-0.881762	-0.657720
H110	H	1.118379	-0.384029	-0.384493
H111	H	1.252822	-0.527531	-0.684065
Cl112	Cl	0.645344	-0.378269	-0.184009
H113	H	1.403726	-1.010545	-0.777454
