data_functionalizedCrystal
_audit_creation_method	'MofGen! by Chris Wilmer'
_symmetry_space_group_name_H-M	'P1'
_symmetry_Int_Tables_number	1
_symmetry_cell_setting	triclinic
loop_
_symmetry_equiv_pos_as_xyz
  x,y,z
_cell_length_a	10.654550
_cell_length_b	23.532407
_cell_length_c	9.130313
_cell_angle_alpha	89.990840
_cell_angle_beta	89.999724
_cell_angle_gamma	83.666804
loop_
_atom_site_label
_atom_site_type_symbol
_atom_site_fract_x
_atom_site_fract_y
_atom_site_fract_z
O1	O	1.665305	0.079985	-0.121707
O2	O	1.299585	0.087605	-0.121735
O3	O	1.493474	0.000935	-0.121693
O4	O	1.471417	0.166655	-0.121749
O5	O	1.493460	0.000933	0.121905
O6	O	1.299572	0.087603	0.121863
O7	O	1.665292	0.079982	0.121892
Cu8	Cu	1.482431	0.083792	0.144120
Cu9	Cu	1.482447	0.083795	-0.143964
O10	O	1.471404	0.166652	0.121850
C11	C	1.252799	0.087044	0.000061
C12	C	1.113408	0.085370	0.000051
C13	C	1.492905	-0.020286	0.000110
C14	C	1.491217	-0.083514	0.000121
C15	C	1.032306	0.136400	0.000038
C16	C	0.901335	0.134824	0.000064
C17	C	0.932582	0.031183	0.000110
C18	C	1.063550	0.032760	0.000094
C19	C	1.595364	-0.481938	0.000049
C20	C	1.593795	-0.541349	0.000037
O21	O	1.690341	-0.577464	-0.000009
N22	N	1.478529	-0.564726	0.000030
C23	C	1.364824	-0.528689	0.000018
O24	O	1.266636	-0.554029	0.000009
C25	C	1.366394	-0.469280	0.000019
C26	C	1.481668	-0.445906	0.000041
C27	C	1.710629	-0.458564	0.000070
C28	C	1.712197	-0.399158	0.000084
C29	C	1.598500	-0.363126	0.000077
C30	C	1.483236	-0.386500	0.000055
C31	C	1.252690	-0.433244	-0.000003
C32	C	1.254270	-0.373831	-0.000004
C33	C	1.369544	-0.350458	0.000019
C34	C	1.371107	-0.291061	0.000062
N35	N	1.486374	-0.267684	0.000070
C36	C	1.600070	-0.303716	0.000077
C37	C	1.361535	-0.653453	0.000014
C38	C	1.359964	-0.712861	0.000023
C39	C	1.588936	-0.725517	0.000040
C40	C	1.590506	-0.666108	0.000041
C41	C	1.476802	-0.630076	0.000022
C42	C	1.603355	-0.178958	0.000108
C43	C	1.604913	-0.119546	0.000128
C44	C	1.375942	-0.106896	0.000104
C45	C	1.374383	-0.166303	0.000091
C46	C	1.488100	-0.202333	0.000088
O47	O	1.274613	-0.254911	0.000103
O48	O	1.698241	-0.278369	0.000067
C49	C	1.712079	0.080543	0.000093
C50	C	1.851469	0.082217	0.000093
C51	C	1.471972	0.187873	0.000044
C52	C	1.473661	0.251101	0.000023
N53	N	1.482429	0.083790	0.346743
N54	N	1.482458	0.083793	-0.346586
C55	C	1.568311	0.045429	0.423413
C56	C	1.568323	0.045429	0.576750
C57	C	1.396567	0.122156	0.576733
C58	C	1.396550	0.122153	0.423399
H59	H	1.072896	0.179239	0.000014
H60	H	0.835306	0.176378	0.000057
H61	H	1.638238	0.014190	0.361004
H62	H	1.326609	0.153392	0.360969
H63	H	1.158822	-0.452264	-0.000031
C64	C	1.239759	-0.225782	0.125292
C65	C	1.247671	-0.191996	0.000082
H66	H	1.161527	-0.241636	0.125278
H67	H	1.307234	-0.255744	0.125276
H68	H	1.245131	-0.202873	0.210241
H69	H	1.242308	-0.214905	-0.084868
H70	H	1.180177	-0.162029	0.000085
C71	C	1.230442	-0.579309	0.125238
C72	C	1.236542	-0.613847	0.000015
H73	H	1.153280	-0.554859	0.125229
H74	H	1.234588	-0.602755	0.210169
H75	H	1.299314	-0.556883	0.125227
H76	H	1.167674	-0.636276	0.000032
H77	H	1.232384	-0.590399	-0.084938
H78	H	1.684372	-0.647081	0.000058
H79	H	1.283373	-0.077548	0.000103
C80	C	0.745690	-0.017253	0.000139
C81	C	0.877772	-0.026644	0.000138
H82	H	0.711858	-0.052955	0.000144
H83	H	0.717820	0.003775	0.085076
H84	H	0.717816	0.003782	-0.084821
H85	H	0.905647	-0.047675	0.085104
H86	H	0.905654	-0.047681	-0.084808
C87	C	1.738104	-0.030407	0.561355
C88	C	1.662733	0.003263	0.661026
H89	H	1.796395	-0.056437	0.613387
H90	H	1.686091	-0.051113	0.501571
H91	H	1.782959	-0.006503	0.501528
H92	H	1.617871	-0.020640	0.720846
H93	H	1.714753	0.023971	0.720835
C94	C	1.905333	-0.487621	-0.125123
C95	C	1.835622	-0.498163	0.000086
H96	H	1.982507	-0.512063	-0.125097
H97	H	1.858055	-0.494763	-0.210064
H98	H	1.922731	-0.448889	-0.125108
H99	H	1.818215	-0.536894	0.000065
H100	H	1.882909	-0.491026	0.085048
H101	H	1.129588	-0.008797	0.000109
C102	C	1.719998	-0.799660	-0.125211
C103	C	1.713920	-0.765129	0.000025
H104	H	1.797157	-0.824113	-0.125223
H105	H	1.651128	-0.822079	-0.125203
H106	H	1.715851	-0.776206	-0.210142
H107	H	1.718057	-0.788584	0.084957
H108	H	1.782809	-0.742709	0.000031
H109	H	1.695954	-0.208288	0.000100
C110	C	1.846813	-0.339691	-0.125137
C111	C	1.838911	-0.373471	0.000086
H112	H	1.925043	-0.323834	-0.125133
H113	H	1.841434	-0.362599	-0.210068
H114	H	1.779330	-0.309724	-0.125120
H115	H	1.906389	-0.403440	0.000063
H116	H	1.844302	-0.350561	0.085039
C117	C	1.133797	-0.694370	0.000004
C118	C	1.233251	-0.738549	0.000010
H119	H	1.055569	-0.710228	-0.000020
H120	H	1.139170	-0.671472	0.084954
H121	H	1.139194	-0.671453	-0.084944
H122	H	1.227860	-0.761464	0.084964
H123	H	1.227875	-0.761457	-0.084948
H124	H	1.326648	0.153392	0.639161
C125	C	1.027780	-0.367294	-0.000037
C126	C	1.129278	-0.334226	-0.000019
H127	H	0.950618	-0.342843	-0.000035
H128	H	1.031942	-0.390720	-0.084984
H129	H	1.031935	-0.390738	0.084914
H130	H	1.125129	-0.310785	-0.084975
H131	H	1.125114	-0.310790	0.084937
H132	H	1.698787	-0.100519	0.000150
