data_functionalizedCrystal
_audit_creation_method	'MofGen! by Chris Wilmer'
_symmetry_space_group_name_H-M	'P1'
_symmetry_Int_Tables_number	1
_symmetry_cell_setting	triclinic
loop_
_symmetry_equiv_pos_as_xyz
  x,y,z
_cell_length_a	15.995292
_cell_length_b	23.532407
_cell_length_c	22.010155
_cell_angle_alpha	89.993714
_cell_angle_beta	90.003009
_cell_angle_gamma	83.158647
loop_
_atom_site_label
_atom_site_type_symbol
_atom_site_fract_x
_atom_site_fract_y
_atom_site_fract_z
O1	O	1.110406	0.073237	0.050548
O2	O	0.866548	0.082337	0.050546
O3	O	0.995830	-0.005118	0.050536
O4	O	0.981123	0.160691	0.050558
O5	O	0.995821	-0.005095	-0.050514
O6	O	0.866539	0.082360	-0.050504
O7	O	1.110396	0.073260	-0.050502
Cu8	Cu	0.988467	0.077812	-0.059730
Cu9	Cu	0.988478	0.077785	0.059774
O10	O	0.981114	0.160714	-0.050492
C11	C	0.835351	0.081978	0.000021
C12	C	0.742407	0.080867	0.000020
C13	C	0.995451	-0.026323	0.000009
C14	C	0.994325	-0.089545	0.000005
C15	C	0.404703	0.076786	0.000026
C16	C	0.427490	0.139908	0.000260
C17	C	0.524156	0.141108	0.000030
C18	C	0.572242	0.078811	0.000023
C19	C	0.543397	0.047266	-0.057684
C20	C	0.446613	0.046506	-0.057730
C21	C	0.446779	0.045191	0.057183
C22	C	0.543252	0.047530	0.057944
C23	C	0.666928	0.079952	0.000020
C24	C	0.310016	0.075642	0.000025
C25	C	1.063769	-0.488390	0.000038
C26	C	1.062723	-0.547795	0.000043
O27	O	1.127099	-0.584301	0.000066
N28	N	0.985865	-0.570706	0.000042
C29	C	0.910048	-0.534209	0.000043
O30	O	0.844578	-0.559151	0.000043
C31	C	0.911095	-0.474806	0.000042
C32	C	0.987958	-0.451898	0.000037
C33	C	1.140626	-0.465482	0.000034
C34	C	1.141672	-0.406082	0.000028
C35	C	1.065861	-0.369590	0.000027
C36	C	0.989004	-0.392498	0.000031
C37	C	0.835278	-0.438310	0.000047
C38	C	0.836332	-0.378904	0.000048
C39	C	0.913195	-0.355997	0.000042
C40	C	0.914238	-0.296606	0.000024
N41	N	0.991096	-0.273695	0.000025
C42	C	1.066908	-0.310187	0.000027
C43	C	0.907855	-0.658960	0.000044
C44	C	0.906807	-0.718361	0.000040
C45	C	1.059483	-0.731943	0.000042
C46	C	1.060530	-0.672540	0.000041
C47	C	0.984713	-0.636049	0.000045
C48	C	1.069098	-0.185443	0.000014
C49	C	1.070137	-0.126037	0.000006
C50	C	0.917461	-0.112460	0.000008
C51	C	0.916422	-0.171861	0.000013
C52	C	0.992247	-0.208351	0.000018
O53	O	0.849896	-0.260066	0.000004
O54	O	1.132367	-0.285237	0.000034
C55	C	1.141594	0.073619	0.000024
C56	C	1.234537	0.074729	0.000030
C57	C	0.981493	0.181920	0.000036
C58	C	0.982619	0.245141	0.000045
N59	N	0.988465	0.077831	-0.143782
C60	C	0.931200	0.116510	-0.436390
C61	C	0.931198	0.116515	-0.372782
O62	O	0.882484	0.149425	-0.339887
N63	N	0.988459	0.077809	-0.340967
C64	C	1.045720	0.039091	-0.372762
O65	O	1.094425	0.006169	-0.339860
C66	C	1.045718	0.039084	-0.436368
C67	C	0.988459	0.077797	-0.468181
C68	C	0.873945	0.155219	-0.468202
C69	C	0.873948	0.155215	-0.531805
C70	C	0.931207	0.116501	-0.563596
C71	C	0.988462	0.077792	-0.531784
C72	C	1.102975	0.000364	-0.468162
C73	C	1.102967	0.000360	-0.531773
C74	C	1.045708	0.039072	-0.563586
C75	C	1.045724	0.039074	-0.627178
N76	N	0.988463	0.077780	-0.658994
C77	C	0.931204	0.116494	-0.627203
C78	C	1.045720	0.039109	-0.239184
C79	C	1.045727	0.039119	-0.175579
C80	C	0.931203	0.116542	-0.175604
C81	C	0.931201	0.116535	-0.239210
C82	C	0.988459	0.077815	-0.271000
C83	C	0.931216	0.116481	-0.760774
C84	C	0.931227	0.116475	-0.824383
C85	C	1.045748	0.039050	-0.824353
C86	C	1.045740	0.039058	-0.760749
C87	C	0.988467	0.077776	-0.728962
O88	O	1.094411	0.006179	-0.660114
O89	O	0.882501	0.149406	-0.660113
N90	N	0.988486	0.077761	0.143826
H91	H	0.542980	0.165810	0.041398
N92	N	0.409149	0.071368	0.115125
H93	H	0.383064	0.041392	0.139094
H94	H	0.364470	0.103980	0.104859
H95	H	0.884579	0.148064	-0.149708
H96	H	0.774591	-0.349195	0.000052
H97	H	0.884575	0.148058	-0.265108
N98	N	1.164734	-0.041398	-0.566058
H99	H	1.156052	-0.035531	-0.611181
H100	H	1.155400	-0.081801	-0.554931
N101	N	0.567615	0.077941	0.114497
H102	H	0.597306	0.111840	0.102655
H103	H	0.606481	0.050683	0.140085
H104	H	1.092370	0.007531	-0.850247
N105	N	1.143431	-0.647834	0.000040
H106	H	1.147267	-0.623488	-0.037420
H107	H	1.191245	-0.680003	0.000061
H108	H	0.433172	-0.001271	0.057569
H109	H	0.576600	0.002059	0.061424
H110	H	0.419610	0.068372	-0.100862
N111	N	0.390145	0.172129	0.055076
H112	H	0.358090	0.146125	0.080291
H113	H	0.350601	0.206362	0.041263
H114	H	0.575647	0.001425	-0.059834
H115	H	0.853834	-0.190513	-0.000000
N116	N	1.141253	-0.771310	0.000051
H117	H	1.190107	-0.747788	0.000050
H118	H	1.144138	-0.796251	-0.037408
H119	H	1.092374	0.007541	-0.734847
N120	N	0.752375	-0.463008	0.000045
H121	H	0.704516	-0.430869	0.000046
H122	H	0.748610	-0.487362	0.037506
N123	N	0.388791	0.171969	-0.054245
H124	H	0.434738	0.185563	-0.080011
H125	H	0.349139	0.206015	-0.040107
H126	H	0.432447	0.000226	-0.060356
N127	N	1.107496	-0.002627	-0.141270
H128	H	1.143767	-0.027150	-0.171067
H129	H	1.075658	-0.027814	-0.114876
H130	H	0.542348	0.165981	-0.041401
N131	N	1.153042	-0.101330	-0.000003
H132	H	1.200907	-0.133464	-0.000000
H133	H	1.156809	-0.076980	0.037454
N134	N	0.569717	0.076303	-0.114567
H135	H	0.600317	0.109885	-0.103088
H136	H	0.518136	0.090255	-0.139291
N137	N	1.150878	-0.224795	0.000020
H138	H	1.199719	-0.201261	0.000015
H139	H	1.153768	-0.249735	-0.037440
N140	N	1.224575	-0.381379	0.000025
H141	H	1.272435	-0.413517	0.000028
H142	H	1.228342	-0.357033	0.037485
N143	N	0.869459	0.158228	-0.858691
H144	H	0.832573	0.136451	-0.885079
H145	H	0.901298	0.183444	-0.885050
N146	N	1.107497	-0.002644	-0.273470
H147	H	1.143772	-0.027157	-0.243659
H148	H	1.144325	0.019174	-0.299860
H149	H	0.827320	0.186736	-0.557703
N150	N	0.823901	-0.743059	0.000032
H151	H	0.790712	-0.729751	0.037489
H152	H	0.834797	-0.786225	0.000010
N153	N	1.222401	-0.504836	0.000034
H154	H	1.271241	-0.481301	0.000031
H155	H	1.225291	-0.529772	-0.037428
N156	N	0.835696	-0.073096	-0.000010
H157	H	0.848029	-0.031990	-0.000016
H158	H	0.802171	-0.080507	0.037448
N159	N	1.164733	-0.041393	-0.433864
H160	H	1.132951	-0.066616	-0.407469
H161	H	1.201616	-0.019583	-0.407513
N162	N	0.869446	0.158245	-0.726500
H163	H	0.901226	0.183474	-0.700114
H164	H	0.832563	0.136440	-0.700142
N165	N	0.826076	-0.619602	0.000043
H166	H	0.777234	-0.643135	0.000042
H167	H	0.823179	-0.594657	-0.037418
N168	N	0.812177	0.196975	-0.433920
H169	H	0.775911	0.221491	-0.463733
H170	H	0.844016	0.222168	-0.407536
