data_functionalizedCrystal
_audit_creation_method	'MofGen! by Chris Wilmer'
_symmetry_space_group_name_H-M	'P1'
_symmetry_Int_Tables_number	1
_symmetry_cell_setting	triclinic
loop_
_symmetry_equiv_pos_as_xyz
  x,y,z
_cell_length_a	14.519709
_cell_length_b	15.995343
_cell_length_c	13.596369
_cell_angle_alpha	89.989290
_cell_angle_beta	90.000291
_cell_angle_gamma	83.584665
loop_
_atom_site_label
_atom_site_type_symbol
_atom_site_fract_x
_atom_site_fract_y
_atom_site_fract_z
O1	O	1.223666	0.109760	-0.081674
O2	O	1.723666	0.609760	0.418326
O3	O	0.955165	0.122686	-0.081705
O4	O	1.455165	0.622686	0.418295
O5	O	1.096759	-0.005654	-0.081671
O6	O	1.596759	0.494346	0.418329
O7	O	1.082072	0.238100	-0.081709
O8	O	1.582072	0.738100	0.418291
O9	O	1.096745	-0.005661	0.081912
O10	O	1.596745	0.494339	0.581912
O11	O	0.955151	0.122679	0.081878
O12	O	1.455151	0.622679	0.581878
O13	O	1.223652	0.109754	0.081909
O14	O	1.723652	0.609754	0.581909
Zn15	Zn	1.089399	0.116215	0.107866
Zn16	Zn	1.589399	0.616215	0.607866
Zn17	Zn	1.089418	0.116224	-0.107662
Zn18	Zn	1.589418	0.616224	0.392338
O19	O	1.082058	0.238093	0.081874
O20	O	1.582058	0.738093	0.581874
C21	C	0.920799	0.122080	0.000082
C22	C	1.420799	0.622080	0.500082
C23	C	0.818421	0.120275	0.000071
C24	C	1.318421	0.620275	0.500071
C25	C	0.443538	0.113630	0.000117
C26	C	0.943538	0.613630	0.500117
C27	C	0.547842	0.115475	0.000104
C28	C	1.047842	0.615475	0.500104
C29	C	0.630976	0.116952	0.000093
C30	C	1.130976	0.616952	0.500093
C31	C	0.735287	0.118798	0.000082
C32	C	1.235287	0.618798	0.500082
C33	C	1.096146	-0.036853	0.000123
C34	C	1.596146	0.463147	0.500123
C35	C	1.094329	-0.129807	0.000131
C36	C	1.594329	0.370193	0.500131
C37	C	1.091032	-0.299998	0.000108
C38	C	1.591032	0.200002	0.500108
C39	C	0.988823	-0.323497	0.000094
C40	C	1.488823	0.176503	0.500094
C41	C	0.986900	-0.420177	-0.000288
C42	C	1.486900	0.079823	0.499712
C43	C	1.087784	-0.467563	0.000087
C44	C	1.587784	0.032437	0.500087
C45	C	1.139185	-0.438383	-0.093133
C46	C	1.639185	0.061617	0.406867
C47	C	1.140397	-0.341589	-0.093200
C48	C	1.640397	0.158411	0.406800
C49	C	1.141877	-0.341698	0.092831
C50	C	1.641877	0.158302	0.592831
C51	C	1.138104	-0.438199	0.094045
C52	C	1.638104	0.061801	0.594045
C53	C	1.085955	-0.562264	0.000071
C54	C	1.585955	-0.062264	0.500071
C55	C	1.092865	-0.205297	0.000117
C56	C	1.592865	0.294703	0.500117
C57	C	1.258017	0.110359	0.000119
C58	C	1.758017	0.610359	0.500119
C59	C	1.360395	0.112164	0.000124
C60	C	1.860395	0.612164	0.500124
C61	C	1.082671	0.269293	0.000078
C62	C	1.582671	0.769293	0.500078
C63	C	1.084487	0.362246	0.000064
C64	C	1.584487	0.862246	0.500064
N65	N	1.089393	0.116209	0.254957
N66	N	1.589393	0.616209	0.754957
N67	N	1.089431	0.116224	-0.254754
N68	N	1.589431	0.616224	0.245246
C69	C	1.089416	0.116225	0.656248
C70	C	1.589416	0.616225	1.156248
C71	C	1.089407	0.116223	0.544597
C72	C	1.589407	0.616223	1.044597
C73	C	1.089405	0.116217	0.455606
C74	C	1.589405	0.616217	0.955606
C75	C	1.089395	0.116214	0.343948
C76	C	1.589395	0.616214	0.843948
H77	H	0.946656	-0.439264	0.066516
H78	H	1.446656	0.060736	0.566516
C79	C	1.236279	-0.481916	0.102135
C80	C	1.736279	0.018084	0.602135
C81	C	1.278372	-0.453891	0.186779
C82	C	1.778372	0.046109	0.686779
C83	C	1.368811	-0.494151	0.194262
C84	C	1.868811	0.005849	0.694262
H85	H	1.270855	-0.469144	0.045850
H86	H	1.770855	0.030856	0.545850
H87	H	1.234495	-0.541014	0.106098
H88	H	1.734495	-0.041014	0.606098
H89	H	1.280162	-0.394806	0.182808
H90	H	1.780162	0.105194	0.682808
H91	H	1.243823	-0.466663	0.243079
H92	H	1.743823	0.033337	0.743079
H93	H	1.367026	-0.553249	0.198225
H94	H	1.867026	-0.053249	0.698225
H95	H	1.403378	-0.481376	0.137972
H96	H	1.903378	0.018624	0.637972
H97	H	1.397379	-0.475148	0.251697
H98	H	1.897379	0.024852	0.751697
H99	H	1.217107	-0.327566	0.093745
H100	H	1.717107	0.172434	0.593745
H101	H	1.103928	-0.458518	-0.162783
H102	H	1.603928	0.041482	0.337217
C103	C	1.238118	-0.480856	-0.097463
C104	C	1.738118	0.019144	0.402537
C105	C	1.237075	-0.568206	-0.101615
C106	C	1.737075	-0.068206	0.398385
C107	C	1.328193	-0.607361	-0.105616
C108	C	1.828193	-0.107361	0.394384
H109	H	1.270811	-0.466645	-0.040439
H110	H	1.770811	0.033355	0.459561
H111	H	1.267938	-0.462381	-0.154401
H112	H	1.767938	0.037619	0.345599
H113	H	1.207268	-0.586674	-0.044683
H114	H	1.707268	-0.086674	0.455317
H115	H	1.204401	-0.582441	-0.158637
H116	H	1.704401	-0.082441	0.341363
H117	H	1.358013	-0.588887	-0.162553
H118	H	1.858013	-0.088887	0.337447
H119	H	1.360879	-0.593144	-0.048590
H120	H	1.860879	-0.093144	0.451410
H121	H	1.327498	-0.666632	-0.108442
H122	H	1.827498	-0.166632	0.391558
C123	C	1.098712	-0.304015	0.186974
C124	C	1.598712	0.195985	0.686974
C125	C	1.025623	-0.242606	0.163439
C126	C	1.525623	0.257394	0.663439
C127	C	0.985818	-0.207882	0.250131
C128	C	1.485818	0.292118	0.750131
H129	H	1.144156	-0.279096	0.223689
H130	H	1.644156	0.220904	0.723689
H131	H	1.075828	-0.347038	0.225025
H132	H	1.575828	0.152962	0.725025
H133	H	1.048508	-0.199590	0.125404
H134	H	1.548508	0.300410	0.625404
H135	H	0.980160	-0.267504	0.126736
H136	H	1.480160	0.232496	0.626736
H137	H	0.962934	-0.250905	0.288182
H138	H	1.462934	0.249095	0.788182
H139	H	1.031269	-0.182968	0.286840
H140	H	1.531269	0.317032	0.786840
H141	H	0.936218	-0.166218	0.234175
H142	H	1.436218	0.333782	0.734175
C143	C	0.933518	-0.445004	-0.089849
C144	C	1.433518	0.054996	0.410151
C145	C	0.931625	-0.532327	-0.090411
C146	C	1.431625	-0.032327	0.409589
C147	C	0.882448	-0.555226	-0.172897
C148	C	1.382448	-0.055226	0.327103
H149	H	0.963026	-0.428443	-0.147914
H150	H	1.463026	0.071557	0.352086
H151	H	0.871924	-0.417871	-0.087347
H152	H	1.371924	0.082129	0.412653
H153	H	0.993208	-0.559450	-0.092922
H154	H	1.493208	-0.059450	0.407078
H155	H	0.902109	-0.548909	-0.032365
H156	H	1.402109	-0.048909	0.467635
H157	H	0.820854	-0.528093	-0.170395
H158	H	1.320854	-0.028093	0.329605
H159	H	0.911961	-0.538660	-0.230956
H160	H	1.411961	-0.038660	0.269044
H161	H	0.881150	-0.614475	-0.173285
H162	H	1.381150	-0.114475	0.326715
H163	H	0.949200	-0.295556	0.066935
H164	H	1.449200	0.204444	0.566935
C165	C	0.936938	-0.284771	-0.088889
C166	C	1.436938	0.215229	0.411111
C167	C	0.935460	-0.197148	-0.085439
C168	C	1.435460	0.302852	0.414561
C169	C	0.887689	-0.161449	-0.167404
C170	C	1.387689	0.338551	0.332596
H171	H	0.875221	-0.299178	-0.088432
H172	H	1.375221	0.200822	0.411568
H173	H	0.967266	-0.305578	-0.147293
H174	H	1.467266	0.194422	0.352707
H175	H	0.905129	-0.176348	-0.027050
H176	H	1.405129	0.323652	0.472950
H177	H	0.997163	-0.182718	-0.085909
H178	H	1.497163	0.317282	0.414091
H179	H	0.918017	-0.182256	-0.225809
H180	H	1.418017	0.317744	0.274191
H181	H	0.825975	-0.175861	-0.166940
H182	H	1.325975	0.324139	0.333060
H183	H	0.886687	-0.101994	-0.165079
H184	H	1.386687	0.398006	0.334921
C185	C	1.093426	-0.306081	-0.186509
C186	C	1.593426	0.193919	0.313491
C187	C	1.064231	-0.371812	-0.242297
C188	C	1.564231	0.128188	0.257703
C189	C	1.020944	-0.339138	-0.328254
C190	C	1.520944	0.160862	0.171746
H191	H	1.135954	-0.277992	-0.223810
H192	H	1.635954	0.222008	0.276190
H193	H	1.041322	-0.267425	-0.169669
H194	H	1.541322	0.232575	0.330331
H195	H	1.116328	-0.410454	-0.259139
H196	H	1.616328	0.089546	0.240861
H197	H	1.021692	-0.399907	-0.205026
H198	H	1.521692	0.100093	0.294974
H199	H	0.968840	-0.300481	-0.311413
H200	H	1.468840	0.199519	0.188587
H201	H	1.063477	-0.311049	-0.365546
H202	H	1.563477	0.188951	0.134454
H203	H	1.001122	-0.383730	-0.366112
H204	H	1.501122	0.116270	0.133888
C205	C	1.240283	-0.321870	-0.098647
C206	C	1.740283	0.178130	0.401353
C207	C	1.252462	-0.274791	-0.183549
C208	C	1.752462	0.225209	0.316451
C209	C	1.344457	-0.256604	-0.188601
C210	C	1.844457	0.243396	0.311399
H211	H	1.280593	-0.372873	-0.100833
H212	H	1.780593	0.127127	0.399167
H213	H	1.254111	-0.290449	-0.042296
H214	H	1.754111	0.209551	0.457704
H215	H	1.238644	-0.306212	-0.239885
H216	H	1.738644	0.193788	0.260115
H217	H	1.212174	-0.223779	-0.181382
H218	H	1.712174	0.276221	0.318618
H219	H	1.358285	-0.225182	-0.132250
H220	H	1.858285	0.274818	0.367750
H221	H	1.384759	-0.307610	-0.190783
H222	H	1.884759	0.192390	0.309217
H223	H	1.352731	-0.224652	-0.246201
H224	H	1.852731	0.275348	0.253799
C225	C	1.088257	-0.463195	0.185971
C226	C	1.588257	0.036805	0.685971
C227	C	1.088654	-0.550746	0.188285
C228	C	1.588654	-0.050746	0.688285
C229	C	1.042745	-0.573805	0.272953
C230	C	1.542745	-0.073805	0.772953
H231	H	1.026099	-0.437338	0.185219
H232	H	1.526099	0.062662	0.685219
H233	H	1.119019	-0.445315	0.242594
H234	H	1.619019	0.054685	0.742594
H235	H	1.057891	-0.568618	0.131677
H236	H	1.557891	-0.068618	0.631677
H237	H	1.150800	-0.576624	0.189053
H238	H	1.650800	-0.076624	0.689053
H239	H	1.073506	-0.555925	0.329576
H240	H	1.573506	-0.055925	0.829576
H241	H	0.980589	-0.547943	0.272193
H242	H	1.480589	-0.047943	0.772193
H243	H	1.043016	-0.633210	0.274539
H244	H	1.543016	-0.133210	0.774539
