data_functionalizedCrystal
_audit_creation_method	'MofGen! by Chris Wilmer'
_symmetry_space_group_name_H-M	'P1'
_symmetry_Int_Tables_number	1
_symmetry_cell_setting	triclinic
loop_
_symmetry_equiv_pos_as_xyz
  x,y,z
_cell_length_a	13.897449
_cell_length_b	18.101397
_cell_length_c	13.897441
_cell_angle_alpha	89.965096
_cell_angle_beta	89.976606
_cell_angle_gamma	90.021292
loop_
_atom_site_label
_atom_site_type_symbol
_atom_site_fract_x
_atom_site_fract_y
_atom_site_fract_z
Zn1	Zn	1.474684	-0.294790	-0.545421
Zn2	Zn	1.808017	0.038544	-0.212087
Zn3	Zn	2.141351	0.371877	0.121246
Zn4	Zn	1.474570	-0.418645	-0.384110
Zn5	Zn	1.807904	-0.085312	-0.050777
Zn6	Zn	2.141237	0.248021	0.282557
Zn7	Zn	1.313373	-0.294824	-0.384132
Zn8	Zn	1.646707	0.038509	-0.050798
Zn9	Zn	1.980040	0.371843	0.282535
Zn10	Zn	1.313347	-0.418596	-0.545355
Zn11	Zn	1.646680	-0.085262	-0.212022
Zn12	Zn	1.980014	0.248071	0.121311
O13	O	1.393994	-0.356714	-0.464754
O14	O	1.727327	-0.023380	-0.131421
O15	O	2.060660	0.309953	0.201912
O16	O	1.609651	-0.311226	-0.524041
O17	O	1.942984	0.022108	-0.190708
O18	O	2.276317	0.355441	0.142626
O19	O	1.453150	-0.402255	-0.249131
O20	O	1.786484	-0.068922	0.084202
O21	O	2.119817	0.264411	0.417535
O22	O	1.334830	-0.191186	-0.405564
O23	O	1.668163	0.142147	-0.072230
O24	O	2.001497	0.475480	0.261103
O25	O	1.609567	-0.402222	-0.405527
O26	O	1.942900	-0.068889	-0.072193
O27	O	2.276234	0.264445	0.261140
O28	O	1.453344	-0.191161	-0.524062
O29	O	1.786678	0.142172	-0.190729
O30	O	2.120011	0.475505	0.142605
O31	O	1.334720	-0.311284	-0.249147
O32	O	1.668053	0.022049	0.084186
O33	O	2.001386	0.355382	0.417520
O34	O	1.178388	-0.311236	-0.405500
O35	O	1.511721	0.022097	-0.072167
O36	O	1.845055	0.355431	0.261167
O37	O	1.334785	-0.402137	-0.680346
O38	O	1.668119	-0.068804	-0.347012
O39	O	2.001452	0.264529	-0.013679
O40	O	1.178369	-0.402171	-0.523950
O41	O	1.511702	-0.068837	-0.190617
O42	O	1.845036	0.264496	0.142717
O43	O	1.453319	-0.311178	-0.680394
O44	O	1.786652	0.022156	-0.347060
O45	O	2.119986	0.355489	-0.013727
O46	O	1.453125	-0.522272	-0.405463
O47	O	1.786458	-0.188938	-0.072130
O48	O	2.119792	0.144395	0.261204
O49	O	1.334675	-0.522235	-0.523929
O50	O	1.668008	-0.188902	-0.190596
O51	O	2.001342	0.144432	0.142738
C52	C	1.143379	-0.356702	-0.464721
C53	C	1.476713	-0.023369	-0.131387
C54	C	1.810046	0.309964	0.201946
C55	C	1.036165	-0.356715	-0.464729
C56	C	1.369499	-0.023382	-0.131396
C57	C	1.702832	0.309952	0.201937
C58	C	0.949096	-0.356718	-0.464745
C59	C	1.282429	-0.023384	-0.131412
C60	C	1.615762	0.309949	0.201921
C61	C	0.839863	-0.356723	-0.464775
C62	C	1.173196	-0.023389	-0.131441
C63	C	1.506530	0.309944	0.201892
C64	C	1.393911	-0.549124	-0.464708
C65	C	1.727244	-0.215791	-0.131374
C66	C	2.060578	0.117542	0.201959
C67	C	1.393964	-0.631438	-0.464720
C68	C	1.727297	-0.298105	-0.131387
C69	C	2.060631	0.035228	0.201947
C70	C	1.394087	-0.930529	-0.464808
C71	C	1.727421	-0.597196	-0.131475
C72	C	2.060754	-0.263862	0.201859
C73	C	1.468405	-0.899196	-0.390073
C74	C	1.801738	-0.565863	-0.056739
C75	C	2.135071	-0.232529	0.276594
C76	C	1.468662	-0.813577	-0.390266
C77	C	1.801996	-0.480244	-0.056933
C78	C	2.135329	-0.146911	0.276400
C79	C	1.394026	-0.782147	-0.464763
C80	C	1.727359	-0.448813	-0.131430
C81	C	2.060693	-0.115480	0.201903
C82	C	1.421587	-0.813148	-0.566438
C83	C	1.754920	-0.479814	-0.233105
C84	C	2.088253	-0.146481	0.100229
C85	C	1.422162	-0.898793	-0.566031
C86	C	1.755495	-0.565459	-0.232698
C87	C	2.088829	-0.232126	0.100636
C88	C	1.292011	-0.899041	-0.438749
C89	C	1.625344	-0.565707	-0.105415
C90	C	1.958677	-0.232374	0.227918
C91	C	1.292515	-0.813391	-0.436479
C92	C	1.625848	-0.480058	-0.103146
C93	C	1.959181	-0.146725	0.230188
C94	C	1.393990	-0.698287	-0.464745
C95	C	1.727323	-0.364954	-0.131411
C96	C	2.060657	-0.031621	0.201922
C97	C	1.394126	-1.014389	-0.464834
C98	C	1.727459	-0.681055	-0.131500
C99	C	2.060792	-0.347722	0.201833
C100	C	1.645587	-0.356726	-0.464789
C101	C	1.978920	-0.023392	-0.131455
C102	C	2.312253	0.309941	0.201878
C103	C	1.752800	-0.356731	-0.464803
C104	C	2.086134	-0.023397	-0.131470
C105	C	2.419467	0.309936	0.201863
C106	C	1.394062	-0.356648	-0.716348
C107	C	1.727395	-0.023315	-0.383014
C108	C	2.060729	0.310019	-0.049681
C109	C	1.394091	-0.356620	-0.823562
C110	C	1.727425	-0.023287	-0.490228
C111	C	2.060758	0.310046	-0.156895
C112	C	1.394103	-0.163552	-0.464822
C113	C	1.727436	0.169782	-0.131489
C114	C	2.060769	0.503115	0.201844
C115	C	1.394149	-0.081238	-0.464851
C116	C	1.727483	0.252096	-0.131518
C117	C	2.060816	0.585429	0.201815
C118	C	1.394117	-0.356570	-1.019857
C119	C	1.727451	-0.023237	-0.686524
C120	C	2.060784	0.310097	-0.353190
C121	C	1.394100	-0.356600	-0.910624
C122	C	1.727433	-0.023267	-0.577291
C123	C	2.060767	0.310067	-0.243958
C124	C	1.393981	-0.356725	-0.214140
C125	C	1.727314	-0.023392	0.119193
C126	C	2.060648	0.309941	0.452527
C127	C	1.394139	-0.356545	-0.106927
C128	C	1.727472	-0.023211	0.226407
C129	C	2.060805	0.310122	0.559740
H130	H	1.451370	-0.919844	-0.314457
H131	H	1.784703	-0.586510	0.018877
H132	H	2.118037	-0.253177	0.352210
O133	O	1.218662	-0.925884	-0.510846
O134	O	1.551995	-0.592550	-0.177513
O135	O	1.885328	-0.259217	0.155820
H136	H	1.146796	-0.903415	-0.491967
H137	H	1.480129	-0.570082	-0.158634
H138	H	1.813462	-0.236748	0.174699
O139	O	1.519495	-0.785042	-0.596197
O140	O	1.852828	-0.451709	-0.262864
O141	O	2.186162	-0.118375	0.070469
H142	H	1.512953	-0.753110	-0.664086
H143	H	1.846286	-0.419776	-0.330753
H144	H	2.179620	-0.086443	0.002581
O145	O	1.353573	-0.926240	-0.642307
O146	O	1.686906	-0.592907	-0.308973
O147	O	2.020240	-0.259574	0.024360
H148	H	1.296639	-0.960351	-0.608123
H149	H	1.629972	-0.627018	-0.274790
H150	H	1.963305	-0.293685	0.058544
H151	H	1.451419	-0.792620	-0.314876
H152	H	1.784752	-0.459287	0.018457
H153	H	2.118086	-0.125954	0.351791
H154	H	1.496775	-0.918710	-0.588105
H155	H	1.830109	-0.585376	-0.254772
H156	H	2.163442	-0.252043	0.078562
H157	H	1.369113	-0.792786	-0.623619
H158	H	1.702446	-0.459452	-0.290286
H159	H	2.035779	-0.126119	0.043047
H160	H	1.544275	-0.793032	-0.407508
H161	H	1.877608	-0.459699	-0.074175
H162	H	2.210941	-0.126366	0.259158
H163	H	1.271733	-0.793137	-0.361655
H164	H	1.605067	-0.459804	-0.028321
H165	H	1.938400	-0.126471	0.305012
O166	O	1.568017	-0.927626	-0.412648
O167	O	1.901351	-0.594292	-0.079315
O168	O	2.234684	-0.260959	0.254019
H169	H	1.619912	-0.905181	-0.359469
H170	H	1.953245	-0.571848	-0.026136
H171	H	2.286579	-0.238515	0.307198
H172	H	1.266939	-0.920706	-0.365893
H173	H	1.600272	-0.587372	-0.032560
H174	H	1.933605	-0.254039	0.300774
H175	H	1.234164	-0.792004	-0.486926
H176	H	1.567497	-0.458670	-0.153593
H177	H	1.900830	-0.125337	0.179741
