data_functionalizedCrystal
_audit_creation_method	'MofGen! by Chris Wilmer'
_symmetry_space_group_name_H-M	'P1'
_symmetry_Int_Tables_number	1
_symmetry_cell_setting	triclinic
loop_
_symmetry_equiv_pos_as_xyz
  x,y,z
_cell_length_a	19.288864
_cell_length_b	17.699083
_cell_length_c	18.366186
_cell_angle_alpha	89.992864
_cell_angle_beta	89.977106
_cell_angle_gamma	83.209630
loop_
_atom_site_label
_atom_site_type_symbol
_atom_site_fract_x
_atom_site_fract_y
_atom_site_fract_z
O1	O	0.921465	0.094417	-0.060785
O2	O	0.719219	0.107154	-0.060735
O3	O	0.826056	-0.009412	-0.060755
O4	O	0.814628	0.210983	-0.060765
O5	O	0.826038	-0.009417	0.060345
O6	O	0.719201	0.107148	0.060364
O7	O	0.921446	0.094412	0.060315
Zn8	Zn	0.820321	0.100779	0.079567
Zn9	Zn	0.820345	0.100786	-0.079987
O10	O	0.814610	0.210977	0.060335
C11	C	0.693333	0.106741	-0.000179
C12	C	0.616228	0.105511	-0.000160
C13	C	0.825637	-0.037611	-0.000205
C14	C	0.824409	-0.121627	-0.000204
C15	C	0.571613	0.173906	-0.000174
C16	C	0.499164	0.172751	-0.000182
C17	C	0.471334	0.103196	-0.000190
C18	C	0.515959	0.034791	-0.000172
C19	C	0.588406	0.035949	-0.000156
C20	C	0.363014	0.048520	-0.042639
C21	C	0.290568	0.047365	-0.042659
C22	C	0.247884	0.099622	-0.000234
C23	C	0.277654	0.153047	0.042200
C24	C	0.350101	0.154205	0.042216
C25	C	0.392779	0.101932	-0.000206
C26	C	0.124712	0.166769	-0.000256
C27	C	0.052262	0.165610	-0.000260
C28	C	0.069059	0.027649	-0.000257
C29	C	0.141507	0.028809	-0.000246
C30	C	0.169329	0.098371	-0.000249
C31	C	0.887120	-0.170336	-0.000219
C32	C	0.885961	-0.249278	-0.000225
C33	C	0.822091	-0.279509	-0.000211
C34	C	0.759375	-0.230794	-0.000199
C35	C	0.760535	-0.151854	-0.000198
C36	C	0.754699	-0.549150	-0.000204
C37	C	0.753545	-0.628097	-0.000203
C38	C	0.880126	-0.646575	-0.000230
C39	C	0.881285	-0.567635	-0.000230
C40	C	0.818570	-0.518926	-0.000221
C41	C	0.819827	-0.433329	-0.000216
C42	C	0.820834	-0.365105	-0.000211
C43	C	0.947332	0.094824	-0.000243
C44	C	1.024437	0.096054	-0.000267
C45	C	0.815028	0.239176	-0.000217
C46	C	0.816257	0.323193	-0.000222
N47	N	0.820310	0.100773	0.188458
N48	N	0.820361	0.100786	-0.188878
C49	C	0.867632	0.049183	0.226550
C50	C	0.867637	0.049180	0.302777
C51	C	0.820325	0.100780	0.340911
C52	C	0.772993	0.152373	0.302810
C53	C	0.772986	0.152370	0.226583
C54	C	0.811108	0.169742	0.461669
C55	C	0.811121	0.169746	0.537894
C56	C	0.820345	0.100789	0.576018
C57	C	0.829571	0.031825	0.537908
C58	C	0.829563	0.031822	0.461681
C59	C	0.820328	0.100788	0.423565
C60	C	0.867675	0.049191	0.696765
C61	C	0.867674	0.049187	0.772994
C62	C	0.773034	0.152387	0.773025
C63	C	0.773031	0.152385	0.696797
C64	C	0.820355	0.100788	0.658672
H65	H	0.594260	0.230549	-0.000178
Cl66	Cl	0.967418	-0.132340	-0.000228
Cl67	Cl	0.841172	-0.054869	0.585826
H68	H	0.803585	0.225898	0.430635
H69	H	0.931192	-0.686243	-0.000241
Cl70	Cl	0.387524	0.221361	0.095563
Cl71	Cl	0.159691	0.254216	-0.000253
Cl72	Cl	0.673245	-0.666100	-0.000188
H73	H	0.493296	-0.021841	-0.000188
Cl74	Cl	0.927134	-0.015681	0.350672
H75	H	0.703632	-0.509501	-0.000197
Cl76	Cl	0.443066	0.258740	-0.000199
H77	H	0.015936	0.221308	-0.000268
Cl78	Cl	0.679081	-0.268799	-0.000191
Cl79	Cl	0.224003	0.218747	0.095538
H80	H	0.837073	-0.024330	0.430655
Cl81	Cl	0.681695	-0.090619	-0.000183
Cl82	Cl	0.961582	-0.529635	-0.000249
H83	H	0.906208	0.007172	0.804009
Cl84	Cl	0.927164	-0.015677	0.648834
H85	H	0.906165	0.007168	0.195510
H86	H	0.266335	0.003866	-0.077214
Cl87	Cl	0.713551	0.217249	0.820959
Cl88	Cl	0.713541	0.217248	0.648906
H89	H	0.803613	0.225900	0.568918
Cl90	Cl	0.964802	-0.310510	-0.000241
Cl91	Cl	0.713512	0.217239	0.350747
H92	H	0.046401	-0.028984	-0.000308
Cl93	Cl	0.197598	-0.057179	-0.000232
H94	H	0.734449	0.194382	0.195569
H95	H	0.397762	0.005964	-0.077190
H96	H	0.624733	-0.019749	-0.000145
