data_functionalizedCrystal
_audit_creation_method	'MofGen! by Chris Wilmer'
_symmetry_space_group_name_H-M	'P1'
_symmetry_Int_Tables_number	1
_symmetry_cell_setting	triclinic
loop_
_symmetry_equiv_pos_as_xyz
  x,y,z
_cell_length_a	10.540539
_cell_length_b	14.750779
_cell_length_c	15.538191
_cell_angle_alpha	97.569385
_cell_angle_beta	114.101207
_cell_angle_gamma	102.773388
loop_
_atom_site_label
_atom_site_type_symbol
_atom_site_fract_x
_atom_site_fract_y
_atom_site_fract_z
O1	O	1.586458	-0.079772	-0.152519
O2	O	1.211142	-0.079783	-0.164991
O3	O	1.471856	-0.079780	-0.022118
O4	O	1.325743	-0.079775	-0.295392
O5	O	1.545555	0.079872	0.018266
O6	O	1.284840	0.079869	-0.124607
O7	O	1.660156	0.079880	-0.112135
Zn8	Zn	1.484199	0.105222	-0.111959
Zn9	Zn	1.387098	-0.105125	-0.165167
O10	O	1.399442	0.079876	-0.255008
C11	C	1.201129	0.000041	-0.143864
C12	C	1.061503	0.000037	-0.141068
N13	N	1.550478	0.248779	-0.075646
N14	N	1.320833	-0.248682	-0.201473
C15	C	0.928954	0.000408	-0.033770
C16	C	1.074060	0.000038	-0.036700
C17	C	0.933990	-0.091127	-0.214354
C18	C	0.789099	-0.091194	-0.210809
C19	C	0.871416	0.090359	-0.167008
C20	C	1.018495	0.091554	-0.167667
C21	C	1.670167	0.000053	-0.133262
C22	C	1.809791	0.000052	-0.136060
C23	C	1.523991	0.000043	0.033066
C24	C	1.569524	0.000035	0.137332
C25	C	1.135746	0.600592	-0.302850
C26	C	1.182196	0.701091	-0.277410
C27	C	1.413072	0.701057	-0.150943
C28	C	1.366639	0.600555	-0.176369
C29	C	1.227975	0.550331	-0.252324
C30	C	1.458868	0.550294	-0.125843
C31	C	1.412440	0.449801	-0.151271
C32	C	1.273784	0.399569	-0.227224
C33	C	1.181547	0.449838	-0.277752
C34	C	1.597535	0.600520	-0.049893
C35	C	1.689764	0.550259	0.000633
C36	C	1.643333	0.449764	-0.024790
C37	C	1.504676	0.399533	-0.100744
C38	C	1.735569	0.399496	0.025737
C39	C	1.689142	0.299003	0.000309
C40	C	1.458249	0.299040	-0.126171
C41	C	1.347305	0.000051	-0.310193
C42	C	1.301770	0.000053	-0.414460
C43	C	1.117136	0.000042	0.428167
C44	C	1.159958	0.000046	0.526146
C45	C	1.400814	0.000052	0.546970
C46	C	1.358011	0.000044	0.448990
C47	C	1.216170	0.000040	0.389596
C48	C	1.457045	0.000042	0.410419
C49	C	1.414246	0.000039	0.312449
C50	C	1.272414	0.000038	0.253050
C51	C	1.173372	0.000037	0.291626
C52	C	1.598888	0.000053	0.469817
C53	C	1.697922	0.000051	0.431246
C54	C	1.655121	0.000041	0.333272
C55	C	1.513288	0.000040	0.273873
C56	C	1.754163	0.000042	0.294696
C57	C	1.711364	0.000039	0.196726
C58	C	1.470490	0.000037	0.175903
H59	H	1.165534	0.065389	0.019350
H60	H	1.057868	0.000027	0.243262
H61	H	0.746989	-0.159341	-0.190925
F62	F	0.970283	-0.179811	-0.191184
F63	F	1.319522	0.000024	0.112683
F64	F	1.113538	-0.085664	-0.006570
H65	H	1.635333	0.682348	-0.029196
H66	H	1.869654	0.000055	0.343071
H67	H	0.918525	-0.094518	-0.291856
F68	F	1.006430	0.098750	-0.265306
H69	H	1.802668	0.591164	0.062474
F70	F	1.848878	0.000063	0.494468
H71	H	1.848476	0.440402	0.087574
F72	F	0.892767	0.180682	-0.100011
H73	H	1.792009	0.000039	0.165321
F74	F	1.054543	0.000053	0.567193
F75	F	1.226867	0.000043	0.148782
F76	F	0.677496	-0.096601	-0.310282
H77	H	1.107946	0.158998	-0.113915
F78	F	1.787307	0.245511	0.054084
H79	H	1.068627	0.408943	-0.339595
H80	H	1.022826	0.559697	-0.364693
H81	H	0.950051	0.065787	0.023998
H82	H	0.788817	0.090977	-0.242235
F83	F	1.310657	0.245585	-0.207004
H84	H	0.888154	-0.064609	-0.009160
H85	H	1.001632	0.000032	0.379803
F86	F	1.224376	0.292614	-0.254290
H87	H	1.516303	0.000059	0.595343
F88	F	1.084019	0.754577	-0.331197
H89	H	1.633726	0.000047	0.549587
F90	F	1.560647	0.754518	-0.070110
