data_functionalizedCrystal
_audit_creation_method	'MofGen! by Chris Wilmer'
_symmetry_space_group_name_H-M	'P1'
_symmetry_Int_Tables_number	1
_symmetry_cell_setting	triclinic
loop_
_symmetry_equiv_pos_as_xyz
  x,y,z
_cell_length_a	16.992694
_cell_length_b	16.974813
_cell_length_c	16.053802
_cell_angle_alpha	88.912550
_cell_angle_beta	87.249047
_cell_angle_gamma	87.024634
loop_
_atom_site_label
_atom_site_type_symbol
_atom_site_fract_x
_atom_site_fract_y
_atom_site_fract_z
O1	O	1.044046	0.164036	-0.080405
O2	O	1.544046	0.664036	0.419595
O3	O	0.815757	0.162201	-0.080306
O4	O	1.315757	0.662201	0.419694
O5	O	0.935897	0.048765	-0.072625
O6	O	1.435897	0.548765	0.427375
O7	O	0.923906	0.277473	-0.088087
O8	O	1.423906	0.777473	0.411913
O9	O	0.929284	0.054981	0.065813
O10	O	1.429284	0.554981	0.565813
O11	O	0.809145	0.168418	0.058132
O12	O	1.309145	0.668418	0.558132
O13	O	1.037433	0.170253	0.058033
O14	O	1.537433	0.670253	0.558033
Zn15	Zn	0.922239	0.170322	0.080062
Zn16	Zn	1.422239	0.670322	0.580062
Zn17	Zn	0.930951	0.162132	-0.102336
Zn18	Zn	1.430951	0.662132	0.397664
O19	O	0.917293	0.283689	0.050351
O20	O	1.417293	0.783689	0.550351
C21	C	0.783234	0.162951	-0.010931
C22	C	1.283234	0.662951	0.489069
C23	C	0.696175	0.155912	-0.010465
C24	C	1.196175	0.655912	0.489535
C25	C	0.646080	0.223821	-0.015055
C26	C	1.146080	0.723821	0.484945
C27	C	0.564279	0.217204	-0.014596
C28	C	1.064279	0.717204	0.485404
C29	C	0.532574	0.142676	-0.009553
C30	C	1.032574	0.642676	0.490447
C31	C	0.582675	0.074762	-0.004959
C32	C	1.082675	0.574762	0.495041
C33	C	0.664475	0.081380	-0.005412
C34	C	1.164475	0.581380	0.494588
C35	C	0.288916	0.115246	-0.007676
C36	C	0.788916	0.615246	0.492324
C37	C	0.207111	0.108632	-0.007226
C38	C	0.707111	0.608632	0.492774
C39	C	0.188719	0.251075	-0.016861
C40	C	0.688719	0.751075	0.483139
C41	C	0.270522	0.257687	-0.017318
C42	C	0.770522	0.757687	0.482682
C43	C	0.320615	0.189773	-0.012721
C44	C	0.820615	0.689773	0.487279
N45	N	0.448960	0.135910	-0.009086
N46	N	0.948960	0.635910	0.490914
N47	N	0.404227	0.196540	-0.013181
N48	N	0.904227	0.696540	0.486819
C49	C	0.932011	0.022473	-0.001420
C50	C	1.432011	0.522473	0.498580
C51	C	0.930277	-0.065130	0.004496
C52	C	1.430277	0.434870	0.504496
C53	C	1.069957	0.169503	-0.011344
C54	C	1.569957	0.669503	0.488656
C55	C	1.157016	0.176542	-0.011816
C56	C	1.657016	0.676542	0.488184
C57	C	0.933069	-0.109669	-0.068186
C58	C	1.433069	0.390331	0.431814
C59	C	0.931434	-0.191981	-0.062625
C60	C	1.431434	0.308019	0.437375
C61	C	0.927013	-0.229752	0.015620
C62	C	1.427013	0.270248	0.515620
C63	C	0.924219	-0.185206	0.088308
C64	C	1.424219	0.314794	0.588308
C65	C	0.925848	-0.102895	0.082746
C66	C	1.425848	0.397105	0.582746
C67	C	0.921749	-0.475560	0.040348
C68	C	1.421749	0.024440	0.540348
C69	C	0.920122	-0.557877	0.045906
C70	C	1.420122	-0.057877	0.545906
C71	C	0.927336	-0.564647	-0.105028
C72	C	1.427336	-0.064647	0.394972
C73	C	0.928969	-0.482334	-0.110584
C74	C	1.428969	0.017666	0.389416
C75	C	0.926171	-0.437795	-0.037896
C76	C	1.426171	0.062205	0.462104
N77	N	0.925344	-0.313887	0.021307
N78	N	1.425344	0.186113	0.521307
N79	N	0.927834	-0.353661	-0.043583
N80	N	1.427834	0.146339	0.456417
C81	C	0.921179	0.309981	-0.020855
C82	C	1.421179	0.809981	0.479145
C83	C	0.922914	0.397583	-0.026777
C84	C	1.422914	0.897583	0.473223
N85	N	0.916298	0.175912	0.204544
N86	N	1.416298	0.675912	0.704544
N87	N	0.936898	0.156536	-0.226817
N88	N	1.436898	0.656536	0.273183
C89	C	0.967436	0.127664	0.251505
C90	C	1.467436	0.627664	0.751505
C91	C	0.963288	0.131582	0.338647
C92	C	1.463288	0.631582	0.838647
C93	C	0.908005	0.183752	0.378825
C94	C	1.408005	0.683752	0.878825
C95	C	0.856862	0.232002	0.331858
C96	C	1.356862	0.732002	0.831858
C97	C	0.861007	0.228080	0.244718
C98	C	1.361007	0.728080	0.744718
C99	C	0.889899	0.200864	0.639076
C100	C	1.389899	0.700864	1.139076
C101	C	0.885760	0.204784	0.726222
C102	C	1.385760	0.704784	1.226222
C103	C	0.992186	0.104363	0.733005
C104	C	1.492186	0.604363	1.233005
C105	C	0.996329	0.100448	0.645863
C106	C	1.496329	0.600448	1.145863
C107	C	0.945183	0.148695	0.598903
C108	C	1.445183	0.648695	1.098903
N109	N	0.903765	0.187760	0.467898
N110	N	1.403765	0.687760	0.967898
N111	N	0.949419	0.144683	0.509833
N112	N	1.449419	0.644683	1.009833
H113	H	0.523494	0.272503	-0.018335
H114	H	1.023494	0.772503	0.481665
C115	C	0.233502	-0.031508	0.002262
C116	C	0.733502	0.468492	0.502262
C117	C	0.172260	0.026705	-0.001680
C118	C	0.672260	0.526705	0.498320
H119	H	0.211984	-0.082083	0.005688
H120	H	0.711984	0.417917	0.505688
H121	H	0.267325	-0.028137	-0.046385
H122	H	0.767325	0.471863	0.453615
H123	H	0.262722	-0.023791	0.050167
H124	H	0.762722	0.476209	0.550167
H125	H	0.143042	0.018992	-0.049589
H126	H	0.643042	0.518992	0.450411
H127	H	0.138423	0.023332	0.046972
H128	H	0.638423	0.523332	0.546972
H129	H	0.296329	0.318375	-0.021435
H130	H	0.796329	0.818375	0.478565
H131	H	0.329693	0.059945	-0.003932
H132	H	0.829693	0.559945	0.496068
H133	H	0.147925	0.306367	-0.020602
H134	H	0.647925	0.806367	0.479398
C135	C	0.850217	-0.200168	0.218347
C136	C	1.350217	0.299832	0.718347
C137	C	0.919359	-0.226724	0.174316
C138	C	1.419359	0.273276	0.674316
H139	H	0.847218	-0.225803	0.271443
H140	H	1.347218	0.274197	0.771443
H141	H	0.850791	-0.144780	0.225438
H142	H	1.350791	0.355220	0.725438
H143	H	0.805749	-0.211923	0.188026
H144	H	1.305749	0.288077	0.688026
H145	H	0.963827	-0.214963	0.204635
H146	H	1.463827	0.285037	0.704635
H147	H	0.918791	-0.282125	0.167229
H148	H	1.418791	0.217875	0.667229
H149	H	0.819364	0.267367	0.206483
H150	H	1.319364	0.767367	0.706483
H151	H	0.556854	0.014080	-0.000841
H152	H	1.056854	0.514080	0.499159
H153	H	0.923564	-0.066631	0.141932
H154	H	1.423564	0.433369	0.641932
H155	H	0.811845	0.274478	0.364576
H156	H	1.311845	0.774478	0.864576
C157	C	0.866450	-0.283843	-0.144291
C158	C	1.366450	0.216157	0.355709
C159	C	0.934515	-0.240926	-0.142530
C160	C	1.434515	0.259074	0.357470
H161	H	0.868354	-0.314051	-0.193629
H162	H	1.368354	0.185949	0.306371
H163	H	0.863584	-0.318127	-0.096912
H164	H	1.363584	0.181873	0.403088
H165	H	0.821251	-0.248455	-0.143540
H166	H	1.321251	0.251545	0.356460
H167	H	0.979714	-0.276315	-0.143275
H168	H	1.479714	0.223685	0.356725
H169	H	0.937389	-0.206639	-0.189921
H170	H	1.437389	0.293361	0.310079
H171	H	1.012457	0.085185	0.218798
H172	H	1.512457	0.585185	0.718798
H173	H	0.929612	-0.600919	-0.164206
H174	H	1.429612	-0.100919	0.335794
H175	H	1.041345	0.057967	0.613151
H176	H	1.541345	0.557967	1.113151
H177	H	0.936673	-0.078923	-0.131902
H178	H	1.436673	0.421077	0.368098
C179	C	0.619676	0.363954	-0.024524
C180	C	1.119676	0.863954	0.475476
C181	C	0.680925	0.305746	-0.020597
C182	C	1.180925	0.805746	0.479403
H183	H	0.641188	0.414531	-0.027938
H184	H	1.141188	0.914531	0.472062
H185	H	0.590455	0.356243	-0.072421
H186	H	1.090455	0.856243	0.427579
H187	H	0.585854	0.360570	0.024133
H188	H	1.085854	0.860570	0.524133
H189	H	0.714744	0.309126	-0.069257
H190	H	1.214744	0.809126	0.430743
H191	H	0.710159	0.313460	0.027305
H192	H	1.210159	0.813460	0.527305
C193	C	0.935924	-0.497296	-0.259217
C194	C	1.435924	0.002704	0.240783
C195	C	0.933822	-0.440819	-0.196593
C196	C	1.433822	0.059181	0.303407
H197	H	0.938917	-0.471664	-0.312315
H198	H	1.438917	0.028336	0.187685
H199	H	0.980825	-0.532389	-0.253694
H200	H	1.480825	-0.032389	0.246306
H201	H	0.889446	-0.526130	-0.254118
H202	H	1.389446	-0.026130	0.245882
H203	H	0.980302	-0.411990	-0.201688
H204	H	1.480302	0.088010	0.298312
H205	H	0.888917	-0.405713	-0.202119
H206	H	1.388917	0.094287	0.297881
C207	C	0.674443	-0.060082	0.004142
C208	C	1.174443	0.439918	0.504142
C209	C	0.719543	0.006732	-0.000374
C210	C	1.219543	0.506732	0.499626
H211	H	0.708441	-0.106168	0.007249
H212	H	1.208441	0.393832	0.507249
H213	H	0.639860	-0.057535	0.052393
H214	H	1.139860	0.442465	0.552393
H215	H	0.644451	-0.061863	-0.044161
H216	H	1.144451	0.438137	0.455839
H217	H	0.749530	0.008515	0.047932
H218	H	1.249530	0.508515	0.547932
H219	H	0.754140	0.004183	-0.048629
H220	H	1.254140	0.504183	0.451371
C221	C	0.975438	0.029787	0.443819
C222	C	1.475438	0.529787	0.943819
C223	C	1.019507	0.078546	0.390260
C224	C	1.519507	0.578546	0.890260
H225	H	1.010149	-0.002959	0.475677
H226	H	1.510149	0.497041	0.975677
H227	H	0.941929	0.061413	0.480220
H228	H	1.441929	0.561413	0.980220
H229	H	0.944358	-0.002170	0.411880
H230	H	1.444358	0.497830	0.911880
H231	H	1.050583	0.110508	0.422200
H232	H	1.550583	0.610508	0.922200
H233	H	1.053030	0.046917	0.353855
H234	H	1.553030	0.546917	0.853855
C235	C	0.913138	-0.542921	0.194546
C236	C	1.413138	-0.042921	0.694546
C237	C	0.915255	-0.599395	0.131919
C238	C	1.415255	-0.099395	0.631919
H239	H	0.910130	-0.568554	0.247642
H240	H	1.410130	-0.068554	0.747642
H241	H	0.959608	-0.514088	0.189462
H242	H	1.459608	-0.014088	0.689462
H243	H	0.868231	-0.507826	0.189012
H244	H	1.368231	-0.007826	0.689012
H245	H	0.960166	-0.634487	0.137449
H246	H	1.460166	-0.134487	0.637449
H247	H	0.868780	-0.628241	0.137005
H248	H	1.368780	-0.128241	0.637005
H249	H	1.033826	0.065081	0.771247
H250	H	1.533826	0.565081	1.271247
H251	H	0.840739	0.247271	0.758931
H252	H	1.340739	0.747271	1.258931
C253	C	0.784294	0.300526	0.641137
C254	C	1.284294	0.800526	1.141137
C255	C	0.833686	0.253903	0.587465
C256	C	1.333686	0.753903	1.087465
H257	H	0.749593	0.333275	0.609269
H258	H	1.249593	0.833275	1.109269
H259	H	0.754405	0.267450	0.677470
H260	H	1.254405	0.767450	1.177470
H261	H	0.815391	0.332481	0.673060
H262	H	1.315391	0.832481	1.173060
H263	H	0.802590	0.221943	0.555546
H264	H	1.302590	0.721943	1.055546
H265	H	0.863579	0.286982	0.551117
H266	H	1.363579	0.786982	1.051117
C267	C	0.852048	-0.374471	0.121364
C268	C	1.352048	0.125529	0.621364
C269	C	0.918684	-0.426619	0.120253
C270	C	1.418684	0.073381	0.620253
H271	H	0.850158	-0.344262	0.170701
H272	H	1.350158	0.155738	0.670701
H273	H	0.854916	-0.340190	0.073983
H274	H	1.354916	0.159810	0.573983
H275	H	0.805879	-0.403598	0.120177
H276	H	1.305879	0.096402	0.620177
H277	H	0.964854	-0.397492	0.121434
H278	H	1.464854	0.102508	0.621434
H279	H	0.915823	-0.460904	0.167646
H280	H	1.415823	0.039096	0.667646
