data_functionalizedCrystal
_audit_creation_method	'MofGen! by Chris Wilmer'
_symmetry_space_group_name_H-M	'P1'
_symmetry_Int_Tables_number	1
_symmetry_cell_setting	triclinic
loop_
_symmetry_equiv_pos_as_xyz
  x,y,z
_cell_length_a	16.956995
_cell_length_b	16.992695
_cell_length_c	16.053942
_cell_angle_alpha	87.264413
_cell_angle_beta	87.615586
_cell_angle_gamma	96.638653
loop_
_atom_site_label
_atom_site_type_symbol
_atom_site_fract_x
_atom_site_fract_y
_atom_site_fract_z
O1	O	1.063233	-0.028863	-0.069486
O2	O	0.832822	-0.056277	-0.069475
O3	O	0.947104	0.071512	-0.069474
O4	O	0.948952	-0.156653	-0.069487
O5	O	0.940831	0.064520	0.069382
O6	O	0.826549	-0.063269	0.069381
O7	O	1.056960	-0.035855	0.069370
Zn8	Zn	0.940759	-0.050672	0.091422
Zn9	Zn	0.949023	-0.041460	-0.091527
O10	O	0.942679	-0.163644	0.069369
C11	C	0.800067	-0.061177	-0.000046
C12	C	0.711812	-0.065350	-0.000042
C13	C	0.941591	0.097075	-0.000046
C14	C	0.934500	0.183660	-0.000046
C15	C	0.214503	-0.096567	-0.000074
C16	C	0.297428	-0.092640	-0.000074
C17	C	0.343818	-0.018927	-0.000063
C18	C	0.307280	0.050863	-0.000062
C19	C	0.224357	0.046935	-0.000069
C20	C	0.592351	0.000513	-0.000047
C21	C	0.675280	0.004435	-0.000038
C22	C	0.665422	-0.139068	-0.000051
C23	C	0.582497	-0.142989	-0.000053
C24	C	0.545966	-0.073199	-0.000056
N25	N	0.428581	-0.014912	-0.000059
N26	N	0.461206	-0.077215	-0.000066
C27	C	1.089715	-0.030955	-0.000061
C28	C	1.177970	-0.026782	-0.000071
N29	N	0.954664	-0.035167	-0.216385
C30	C	0.948192	-0.189207	-0.000061
C31	C	0.955283	-0.275791	-0.000067
C32	C	1.002915	0.238334	-0.000048
C33	C	0.996248	0.319689	-0.000056
C34	C	0.921166	0.346367	-0.000055
C35	C	0.852746	0.291686	-0.000055
C36	C	0.859413	0.210333	-0.000054
C37	C	0.893530	0.588175	-0.000065
C38	C	0.886868	0.669534	-0.000064
C39	C	1.030371	0.697531	-0.000066
C40	C	1.037032	0.616175	-0.000060
C41	C	0.968612	0.561502	-0.000064
N42	N	0.914349	0.429525	-0.000060
N43	N	0.975430	0.478346	-0.000065
C44	C	0.983852	-0.002680	-0.740004
C45	C	0.979884	-0.007089	-0.652599
C46	C	0.927192	-0.065781	-0.608912
C47	C	0.878459	-0.120062	-0.652634
C48	C	0.882423	-0.115648	-0.740038
C49	C	0.909895	-0.085035	-0.347510
C50	C	0.905936	-0.089445	-0.260101
C51	C	1.007361	0.023528	-0.260072
C52	C	1.011324	0.027934	-0.347477
C53	C	0.962588	-0.026344	-0.391191
N54	N	0.923137	-0.070291	-0.519570
N55	N	0.966639	-0.021830	-0.480532
N56	N	0.935124	-0.056958	0.216280
H57	H	0.327169	-0.149465	-0.000084
H58	H	0.176737	-0.156592	-0.000077
H59	H	1.086074	0.742055	-0.000064
H60	H	0.544731	-0.203014	-0.000064
O61	O	0.862484	-0.137661	-0.390009
C62	C	0.759588	-0.156090	-0.488753
C63	C	0.813216	-0.096401	-0.440653
H64	H	0.719753	-0.122754	-0.529722
H65	H	0.721195	-0.198794	-0.442555
H66	H	0.798162	-0.190916	-0.529635
H67	H	0.774704	-0.061521	-0.399769
H68	H	0.851615	-0.053750	-0.486895
H69	H	0.194614	0.103762	-0.000067
O70	O	0.813869	0.695318	-0.000110
C71	C	0.672235	0.658967	-0.000077
C72	C	0.754850	0.629658	-0.000045
H73	H	0.624495	0.605896	-0.000007
H74	H	0.668111	0.699248	-0.058203
H75	H	0.662937	0.693462	0.058019
H76	H	0.764203	0.595130	-0.058102
H77	H	0.758935	0.589418	0.058119
H78	H	0.713050	0.064464	-0.000033
O79	O	0.556998	0.068378	-0.000003
C80	C	0.575536	0.211129	-0.000024
C81	C	0.615679	0.134329	-0.000058
H82	H	0.622962	0.264470	-0.000087
H83	H	0.534352	0.210002	0.058098
H84	H	0.539567	0.215770	-0.058124
H85	H	0.651689	0.129639	0.058002
H86	H	0.656816	0.135489	-0.058219
H87	H	0.863026	-0.137243	-0.224535
O88	O	1.075875	0.212468	-0.000198
C89	C	1.203830	0.215167	-0.072121
C90	C	1.121224	0.244502	-0.072060
H91	H	1.240524	0.241068	-0.130207
H92	H	1.196896	0.147633	-0.072173
H93	H	1.235245	0.235129	-0.013987
H94	H	1.089764	0.224597	-0.130184
H95	H	1.128214	0.312034	-0.071965
O96	O	1.054808	0.076191	-0.217646
C97	C	1.188826	0.129284	-0.190921
C98	C	1.135188	0.069587	-0.239002
H99	H	1.253824	0.123977	-0.208183
H100	H	1.177014	0.116061	-0.120937
H101	H	1.175342	0.192057	-0.208094
H102	H	1.148641	0.006793	-0.221899
H103	H	1.147010	0.082879	-0.308974
H104	H	1.019562	0.037108	-0.617006
O105	O	0.352251	0.122509	0.000057
C106	C	0.382815	0.242718	0.072031
C107	C	0.331824	0.161606	0.071989
H108	H	0.366330	0.274344	0.130190
H109	H	0.371558	0.280307	0.013960
H110	H	0.448355	0.233524	0.071996
H111	H	0.266267	0.170726	0.072053
H112	H	0.343149	0.124044	0.130054
H113	H	1.051959	0.364203	-0.000056
O114	O	1.109994	0.590313	-0.000208
C115	C	1.237958	0.593015	-0.072113
C116	C	1.155351	0.622346	-0.072066
H117	H	1.274658	0.618915	-0.130195
H118	H	1.231027	0.525481	-0.072162
H119	H	1.269365	0.612980	-0.013976
H120	H	1.123899	0.602439	-0.130193
H121	H	1.162337	0.689878	-0.071973
H122	H	0.835552	-0.167848	-0.617059
H123	H	0.837818	0.543668	-0.000069
H124	H	0.791612	0.313414	-0.000060
H125	H	0.842743	-0.159847	-0.775631
H126	H	0.695174	-0.195887	-0.000050
H127	H	1.054230	0.075725	-0.383045
H128	H	0.803702	0.165817	-0.000052
H129	H	1.026763	0.045110	-0.775568
