data_functionalizedCrystal
_audit_creation_method	'MofGen! by Chris Wilmer'
_symmetry_space_group_name_H-M	'P1'
_symmetry_Int_Tables_number	1
_symmetry_cell_setting	triclinic
loop_
_symmetry_equiv_pos_as_xyz
  x,y,z
_cell_length_a	12.759401
_cell_length_b	17.640280
_cell_length_c	12.759401
_cell_angle_alpha	101.207112
_cell_angle_beta	90.003555
_cell_angle_gamma	78.802151
loop_
_atom_site_label
_atom_site_type_symbol
_atom_site_fract_x
_atom_site_fract_y
_atom_site_fract_z
Zn1	Zn	1.690701	-0.314737	0.509524
Zn2	Zn	1.726169	-0.446872	0.298371
Zn3	Zn	1.515052	-0.314731	0.333861
Zn4	Zn	1.550514	-0.446865	0.474010
O5	O	1.620609	-0.380801	0.403941
O6	O	1.842429	-0.332271	0.481524
O7	O	1.698167	-0.429344	0.156058
O8	O	1.508667	-0.204134	0.386879
O9	O	1.868487	-0.429350	0.326391
O10	O	1.637716	-0.204138	0.515938
O11	O	1.543059	-0.332260	0.182132
O12	O	1.372733	-0.332253	0.352442
O13	O	1.569107	-0.429338	0.625742
O14	O	1.398787	-0.429332	0.455409
O15	O	1.672103	-0.332264	0.651834
O16	O	1.732553	-0.557469	0.291954
O17	O	1.603499	-0.557464	0.420995
C18	C	1.347639	-0.380792	0.403923
C19	C	1.230866	-0.380807	0.403935
C20	C	1.189619	-0.431432	0.457423
C21	C	1.079896	-0.431435	0.457444
C22	C	1.052677	-0.330185	0.350478
C23	C	1.162397	-0.330178	0.350465
C24	C	1.675752	-0.586143	0.348793
C25	C	1.699438	-0.673990	0.325235
C26	C	1.441097	-0.963029	0.583289
C27	C	1.463356	-1.045574	0.561120
C28	C	1.597823	-1.045514	0.426885
C29	C	1.575579	-0.962967	0.449047
C30	C	1.497214	-0.921731	0.527250
C31	C	1.631696	-0.921669	0.393007
C32	C	1.609449	-0.839130	0.415164
C33	C	1.531086	-0.797888	0.493360
C34	C	1.474968	-0.839192	0.549406
C35	C	1.710055	-0.962907	0.314800
C36	C	1.766172	-0.921609	0.258760
C37	C	1.743931	-0.839068	0.280922
C38	C	1.665568	-0.797827	0.359118
C39	C	1.800049	-0.797765	0.224876
C40	C	1.777803	-0.715226	0.247032
C41	C	1.643321	-0.715287	0.381275
C42	C	1.894645	-0.380812	0.403960
C43	C	2.011423	-0.380816	0.403968
C44	C	1.620604	-0.380801	0.677975
C45	C	1.620602	-0.380800	0.794752
C46	C	1.565280	-0.174657	0.459329
C47	C	1.541702	-0.086811	0.482931
C48	C	1.539848	-0.330255	0.863188
C49	C	1.539843	-0.330263	0.972910
C50	C	1.701357	-0.431362	0.945749
C51	C	1.701356	-0.431358	0.836028
C52	C	1.620607	-0.380818	1.130970
C53	C	1.620598	-0.380812	1.014195
H54	H	0.996916	-0.288966	0.306943
H55	H	1.661625	-1.079099	0.363210
H56	H	1.767119	-0.472521	0.780303
Br57	Br	1.368627	-0.783221	0.655553
H58	H	1.579516	-0.681711	0.444963
Br59	Br	1.501157	-0.685869	0.523700
Br60	Br	1.334757	-0.907058	0.689436
Br61	Br	1.387172	-1.101619	0.637167
H62	H	1.829973	-0.955195	0.195085
Br63	Br	1.906387	-0.853737	0.118738
Br64	Br	1.810946	-0.499973	1.001774
Br65	Br	1.430229	-0.261677	1.065782
Br66	Br	1.740287	-1.074926	0.284769
H67	H	1.195979	-0.288948	0.306910
Br68	Br	1.282538	-0.500140	0.529992
Br69	Br	1.430253	-0.261643	0.807173
Br70	Br	1.023920	-0.500141	0.530044
Br71	Br	1.853947	-0.659173	0.170964
