data_functionalizedCrystal
_audit_creation_method	'MofGen! by Chris Wilmer'
_symmetry_space_group_name_H-M	'P1'
_symmetry_Int_Tables_number	1
_symmetry_cell_setting	triclinic
loop_
_symmetry_equiv_pos_as_xyz
  x,y,z
_cell_length_a	14.519709
_cell_length_b	14.044220
_cell_length_c	13.596369
_cell_angle_alpha	89.993157
_cell_angle_beta	90.000291
_cell_angle_gamma	88.434511
loop_
_atom_site_label
_atom_site_type_symbol
_atom_site_fract_x
_atom_site_fract_y
_atom_site_fract_z
O1	O	1.233892	0.124273	-0.081665
O2	O	1.483892	0.374273	0.168335
O3	O	1.733892	0.624273	0.418335
O4	O	1.983892	0.874273	0.668335
O5	O	0.966596	0.138907	-0.081695
O6	O	1.216596	0.388907	0.168305
O7	O	1.466596	0.638907	0.418305
O8	O	1.716596	0.888907	0.668305
O9	O	1.096232	-0.006402	-0.081671
O10	O	1.346232	0.243598	0.168329
O11	O	1.596232	0.493598	0.418329
O12	O	1.846232	0.743598	0.668329
O13	O	1.104256	0.269581	-0.081690
O14	O	1.354256	0.519581	0.168310
O15	O	1.604256	0.769581	0.418310
O16	O	1.854256	1.019581	0.668310
O17	O	1.096217	-0.006409	0.081912
O18	O	1.346217	0.243591	0.331912
O19	O	1.596217	0.493591	0.581912
O20	O	1.846217	0.743591	0.831912
O21	O	0.966581	0.138899	0.081887
O22	O	1.216581	0.388899	0.331887
O23	O	1.466581	0.638899	0.581887
O24	O	1.716581	0.888899	0.831887
O25	O	1.233878	0.124265	0.081918
O26	O	1.483878	0.374265	0.331918
O27	O	1.733878	0.624265	0.581918
O28	O	1.983878	0.874265	0.831918
Zn29	Zn	1.100227	0.131581	0.107875
Zn30	Zn	1.350227	0.381581	0.357875
Zn31	Zn	1.600227	0.631581	0.607875
Zn32	Zn	1.850227	0.881581	0.857875
Zn33	Zn	1.100246	0.131591	-0.107653
Zn34	Zn	1.350246	0.381591	0.142347
Zn35	Zn	1.600246	0.631591	0.392347
Zn36	Zn	1.850246	0.881591	0.642347
O37	O	1.104241	0.269574	0.081893
O38	O	1.354241	0.519574	0.331893
O39	O	1.604241	0.769574	0.581893
O40	O	1.854241	1.019574	0.831893
C41	C	0.932174	0.138221	0.000092
C42	C	1.182174	0.388221	0.250092
C43	C	1.432174	0.638221	0.500092
C44	C	1.682174	0.888221	0.750092
C45	C	0.829628	0.136177	0.000081
C46	C	1.079628	0.386177	0.250081
C47	C	1.329628	0.636177	0.500081
C48	C	1.579628	0.886177	0.750081
C49	C	0.454125	0.128653	0.000126
C50	C	0.704125	0.378653	0.250126
C51	C	0.954125	0.628653	0.500126
C52	C	1.204125	0.878653	0.750126
C53	C	0.558601	0.130743	0.000113
C54	C	0.808601	0.380743	0.250113
C55	C	1.058601	0.630743	0.500113
C56	C	1.308601	0.880743	0.750113
C57	C	0.641873	0.132415	0.000103
C58	C	0.891873	0.382415	0.250103
C59	C	1.141873	0.632415	0.500103
C60	C	1.391873	0.882415	0.750103
C61	C	0.746356	0.134505	0.000092
C62	C	0.996356	0.384505	0.250092
C63	C	1.246356	0.634505	0.500092
C64	C	1.496356	0.884505	0.750092
C65	C	1.092712	-0.041726	0.000120
C66	C	1.342712	0.208274	0.250120
C67	C	1.592712	0.458274	0.500120
C68	C	1.842712	0.708274	0.750120
C69	C	1.082235	-0.146969	0.000120
C70	C	1.332235	0.103031	0.250120
C71	C	1.582235	0.353031	0.500120
C72	C	1.832235	0.603031	0.750120
C73	C	1.063081	-0.339663	0.000104
C74	C	1.313081	-0.089663	0.250104
C75	C	1.563081	0.160337	0.500104
C76	C	1.813081	0.410337	0.750104
C77	C	1.137389	-0.397170	0.000110
C78	C	1.387389	-0.147170	0.250110
C79	C	1.637389	0.102830	0.500110
C80	C	1.887389	0.352830	0.750110
C81	C	1.126731	-0.504392	0.000101
C82	C	1.376731	-0.254392	0.250101
C83	C	1.626731	-0.004392	0.500101
C84	C	1.876731	0.245608	0.750101
C85	C	1.073737	-0.232432	0.000113
C86	C	1.323737	0.017568	0.250113
C87	C	1.573737	0.267568	0.500113
C88	C	1.823737	0.517568	0.750113
C89	C	1.268300	0.124951	0.000128
C90	C	1.518300	0.374951	0.250128
C91	C	1.768300	0.624951	0.500128
C92	C	2.018300	0.874951	0.750128
C93	C	1.370846	0.126995	0.000133
C94	C	1.620846	0.376995	0.250133
C95	C	1.870846	0.626995	0.500133
C96	C	2.120846	0.876995	0.750133
C97	C	1.107761	0.304898	0.000100
C98	C	1.357761	0.554898	0.250100
C99	C	1.607761	0.804898	0.500100
C100	C	1.857761	1.054898	0.750100
C101	C	1.118238	0.410141	0.000093
C102	C	1.368238	0.660141	0.250093
C103	C	1.618238	0.910141	0.500093
C104	C	1.868238	1.160141	0.750093
N105	N	1.100220	0.131573	0.254967
N106	N	1.350220	0.381573	0.504967
N107	N	1.600220	0.631573	0.754967
N108	N	1.850220	0.881573	1.004967
N109	N	1.100260	0.131591	-0.254744
N110	N	1.350260	0.381591	-0.004744
N111	N	1.600260	0.631591	0.245256
N112	N	1.850260	0.881591	0.495256
C113	C	1.100245	0.131592	0.656258
C114	C	1.350245	0.381592	0.906258
C115	C	1.600245	0.631592	1.156258
C116	C	1.850245	0.881592	1.406258
C117	C	1.100236	0.131590	0.544606
C118	C	1.350236	0.381590	0.794606
C119	C	1.600236	0.631590	1.044606
C120	C	1.850236	0.881590	1.294606
C121	C	1.100233	0.131583	0.455616
C122	C	1.350233	0.381583	0.705616
C123	C	1.600233	0.631583	0.955616
C124	C	1.850233	0.881583	1.205616
C125	C	1.100223	0.131580	0.343957
C126	C	1.350223	0.381580	0.593957
C127	C	1.600223	0.631580	0.843957
C128	C	1.850223	0.881580	1.093957
H129	H	0.991465	-0.370954	0.000094
H130	H	1.241465	-0.120954	0.250094
H131	H	1.491465	0.129046	0.500094
H132	H	1.741465	0.379046	0.750094
N133	N	1.232264	-0.355735	0.000142
N134	N	1.482264	-0.105735	0.250142
N135	N	1.732264	0.144265	0.500142
N136	N	1.982264	0.394265	0.750142
H137	H	1.266926	-0.377754	-0.060491
H138	H	1.516926	-0.127754	0.189509
H139	H	1.766926	0.122246	0.439509
H140	H	2.016926	0.372246	0.689509
H141	H	1.226458	-0.283909	0.000188
H142	H	1.476458	-0.033909	0.250188
H143	H	1.726458	0.216091	0.500188
H144	H	1.976458	0.466091	0.750188
