data_functionalizedCrystal
_audit_creation_method	'MofGen! by Chris Wilmer'
_symmetry_space_group_name_H-M	'P1'
_symmetry_Int_Tables_number	1
_symmetry_cell_setting	triclinic
loop_
_symmetry_equiv_pos_as_xyz
  x,y,z
_cell_length_a	21.606444
_cell_length_b	20.016444
_cell_length_c	20.016444
_cell_angle_alpha	90.002879
_cell_angle_beta	60.001269
_cell_angle_gamma	60.004280
loop_
_atom_site_label
_atom_site_type_symbol
_atom_site_fract_x
_atom_site_fract_y
_atom_site_fract_z
Zr1	Zr	0.677472	-0.087648	0.643572
O2	O	0.806581	-0.194315	0.536898
O3	O	0.548357	-0.054952	0.676275
O4	O	0.677469	-0.194320	0.676273
O5	O	0.677474	0.054993	0.536900
O6	O	0.677474	-0.194320	0.786212
O7	O	0.677469	-0.054947	0.536900
O8	O	0.446516	0.054985	0.786216
O9	O	0.908432	-0.194312	0.536897
O10	O	0.601470	-0.041003	0.772267
O11	O	0.601470	0.041044	0.690221
O12	O	0.753483	-0.123045	0.690218
O13	O	0.753483	-0.040998	0.608172
Zr14	Zr	0.677488	0.087693	0.818914
Zr15	Zr	0.677480	-0.087648	0.818914
Zr16	Zr	0.677480	0.087694	0.643573
Zr17	Zr	0.839912	-0.087642	0.643570
Zr18	Zr	0.515047	0.087688	0.818916
O19	O	0.806603	0.054997	0.786212
O20	O	0.806592	-0.194316	0.786211
O21	O	0.806592	0.054997	0.536899
O22	O	0.548379	0.194361	0.925588
O23	O	0.548368	-0.054952	0.925587
O24	O	0.548368	0.194361	0.676275
O25	O	0.677486	-0.054947	0.925586
O26	O	0.677491	0.194366	0.786214
O27	O	0.677486	0.194366	0.676274
O28	O	0.677491	0.054992	0.925586
O29	O	0.908438	-0.194312	0.676270
O30	O	0.446522	0.194358	0.786217
O31	O	0.446528	0.194357	0.925590
O32	O	0.446522	0.054984	0.925589
O33	O	0.908438	-0.054939	0.536897
O34	O	0.908444	-0.054939	0.676270
O35	O	0.601477	0.123090	0.772268
O36	O	0.601477	0.041043	0.854315
O37	O	0.753490	-0.040998	0.772266
O38	O	0.753490	0.041049	0.690219
C39	C	0.474292	0.000016	0.731246
C40	C	0.405332	0.000013	0.731246
C41	C	0.677470	0.000023	0.511918
C42	C	0.677467	0.000023	0.437481
C43	C	0.677490	0.219348	0.731244
C44	C	0.677493	0.293785	0.731244
C45	C	0.372934	-0.042816	0.774072
C46	C	0.308134	-0.042810	0.774075
C47	C	0.275737	0.000020	0.731247
C48	C	0.308138	0.042854	0.688420
C49	C	0.372932	0.042853	0.688422
C50	C	0.046828	0.042861	0.688410
C51	C	-0.017969	0.042857	0.688409
C52	C	-0.017969	-0.042802	0.774063
C53	C	0.046825	-0.042803	0.774065
C54	C	0.079216	0.000034	0.731242
C55	C	0.149479	0.000029	0.731241
C56	C	0.205481	0.000021	0.731243
C57	C	0.880668	0.000030	0.731241
C58	C	0.949628	0.000032	0.731240
C59	C	0.677470	-0.219303	0.731242
C60	C	0.677467	-0.293740	0.731242
C61	C	0.756832	0.422228	0.688413
C62	C	0.756828	0.492173	0.688410
C63	C	0.598122	0.577816	0.774075
C64	C	0.598126	0.507872	0.774072
C65	C	0.677484	0.430078	0.731243
C66	C	0.677476	0.569968	0.731243
C67	C	0.677471	0.645805	0.731241
C68	C	0.677489	0.354235	0.731244
C69	C	0.598128	0.042850	0.309042
C70	C	0.598132	0.042852	0.239097
C71	C	0.756838	-0.042806	0.153446
C72	C	0.756834	-0.042802	0.223390
C73	C	0.677476	0.000023	0.301188
C74	C	0.677484	0.000022	0.161298
C75	C	0.677489	0.000024	0.085461
C76	C	0.677471	0.000023	0.377031
C77	C	0.677490	0.000022	0.950569
C78	C	0.677493	0.000022	1.025006
C79	C	0.474302	0.000015	0.950571
C80	C	0.405345	0.000013	1.025009
C81	C	0.474302	0.219341	0.731246
C82	C	0.405345	0.293776	0.731247
C83	C	0.474311	0.219341	0.950572
C84	C	0.405358	0.293775	1.025010
C85	C	0.880649	-0.219295	0.511915
C86	C	0.949602	-0.293730	0.437477
C87	C	0.880658	0.000030	0.511916
C88	C	0.949615	0.000033	0.437478
C89	C	0.880658	-0.219295	0.731240
C90	C	0.949615	-0.293730	0.731239
C91	C	0.372958	-0.042823	1.017138
C92	C	0.308175	-0.042842	1.087073
C93	C	0.275775	-0.000019	1.164879
C94	C	0.308168	0.042818	1.172748
C95	C	0.372955	0.042832	1.102814
C96	C	0.372966	0.371566	0.774076
C97	C	0.308183	0.441512	0.774074
C98	C	0.275775	0.433666	0.731248
C99	C	0.308161	0.355867	0.688414
C100	C	0.372947	0.285923	0.688412
C101	C	0.372976	0.285903	1.102802
C102	C	0.308196	0.355835	1.172751
C103	C	0.275794	0.433639	1.164906
C104	C	0.308182	0.441510	1.087106
C105	C	0.372965	0.371579	1.017159
C106	C	0.981991	-0.285857	0.359685
C107	C	1.046792	-0.355790	0.289736
C108	C	1.079197	-0.433594	0.297580
C109	C	1.046805	-0.441465	0.375380
C110	C	0.982011	-0.371533	0.445327
C111	C	0.982009	0.042861	0.445349
C112	C	1.046810	0.042861	0.375413
C113	C	1.079212	0.000036	0.297608
C114	C	1.046816	-0.042798	0.289738
C115	C	0.982020	-0.042802	0.359673
C116	C	0.982002	-0.285858	0.774073
C117	C	1.046786	-0.355790	0.774088
C118	C	1.079186	-0.433594	0.731264
C119	C	1.046792	-0.441465	0.688428
C120	C	0.982006	-0.371533	0.688418
H121	H	0.399311	-0.077697	0.808943
H122	H	0.399345	0.377970	0.808950
H123	H	0.281833	0.349412	1.236092
Cl124	Cl	-0.058697	0.096706	0.634565
Cl125	Cl	0.267408	0.346017	0.634581
H126	H	0.821441	0.485773	0.653532
Cl127	Cl	0.267462	-0.096695	1.077161
Cl128	Cl	0.941266	-0.188055	0.349802
H129	H	0.955632	0.077740	0.508696
Cl130	Cl	1.087556	-0.096628	0.191919
Cl131	Cl	0.856596	0.324432	0.634567
Cl132	Cl	0.267480	0.539305	0.827929
Cl133	Cl	0.413655	0.096695	1.112723
Cl134	Cl	1.087500	-0.345877	0.827938
Cl135	Cl	0.267398	0.096711	0.634591
Cl136	Cl	1.087550	-0.539282	0.385228
H137	H	0.399337	-0.077705	0.953791
Cl138	Cl	1.087542	-0.539282	0.634586
H139	H	0.399302	0.222585	0.653539
Cl140	Cl	0.413703	0.188100	1.112685
Cl141	Cl	0.267423	0.096653	1.270568
Cl142	Cl	0.194326	-0.000043	1.252790
H143	H	1.073176	0.077745	0.381837
H144	H	0.281756	-0.077684	0.808947
H145	H	0.223022	0.490625	0.731256
Cl146	Cl	0.194349	0.521547	1.252849
H147	H	1.131973	0.000046	0.240669
Cl148	Cl	0.267437	0.539328	1.077259
H149	H	1.131957	-0.490530	0.240618
H150	H	0.073203	-0.077683	0.808936
H151	H	0.955647	-0.077676	0.353253
Cl152	Cl	0.498363	0.675616	0.827918
H153	H	0.399322	0.378000	0.953820
H154	H	1.073154	-0.349365	0.226395
H155	H	0.955640	-0.377953	0.508667
H156	H	0.533508	0.514270	0.808950
H157	H	0.955632	-0.222512	0.808946
Cl158	Cl	-0.058697	-0.096652	0.827902
H159	H	1.131940	-0.490531	0.731278
Cl160	Cl	0.941307	-0.381444	0.634555
H161	H	0.399311	0.077726	0.653547
Cl162	Cl	0.087537	0.096717	0.634579
Cl163	Cl	0.856594	-0.096641	0.213515
H164	H	0.533518	0.077726	0.245500
Cl165	Cl	0.498364	0.096691	0.406843
H166	H	0.821448	-0.077673	0.090096
