data_functionalizedCrystal
_audit_creation_method	'MofGen! by Chris Wilmer'
_symmetry_space_group_name_H-M	'P1'
_symmetry_Int_Tables_number	1
_symmetry_cell_setting	triclinic
loop_
_symmetry_equiv_pos_as_xyz
  x,y,z
_cell_length_a	25.639242
_cell_length_b	25.639239
_cell_length_c	21.395355
_cell_angle_alpha	90.019334
_cell_angle_beta	90.033313
_cell_angle_gamma	90.034213
loop_
_atom_site_label
_atom_site_type_symbol
_atom_site_fract_x
_atom_site_fract_y
_atom_site_fract_z
Zn1	Zn	0.799283	-0.208274	0.354404
Zn2	Zn	0.799189	-0.295693	0.249625
Zn3	Zn	0.711842	-0.208267	0.249625
Zn4	Zn	0.711804	-0.295673	0.354349
O5	O	0.755529	-0.251977	0.302001
O6	O	0.872435	-0.219881	0.340528
O7	O	0.787579	-0.284102	0.161947
O8	O	0.723496	-0.135103	0.263547
O9	O	0.872367	-0.284108	0.263547
O10	O	0.787738	-0.135108	0.340528
O11	O	0.723405	-0.219870	0.161947
O12	O	0.638672	-0.219850	0.263494
O13	O	0.723432	-0.284074	0.442035
O14	O	0.638644	-0.284067	0.340434
O15	O	0.787702	-0.219862	0.442075
O16	O	0.787542	-0.368856	0.263494
O17	O	0.723341	-0.368841	0.340435
C18	C	0.619687	-0.251956	0.301959
C19	C	0.561573	-0.251960	0.301955
C20	C	0.201204	-0.285470	0.342026
C21	C	0.146600	-0.285474	0.342036
O22	O	0.118358	-0.313940	0.376070
N23	N	0.119290	-0.251991	0.302042
C24	C	0.146588	-0.218500	0.262040
O25	O	0.118345	-0.190020	0.228023
C26	C	0.201191	-0.218494	0.262034
C27	C	0.228498	-0.251983	0.302026
C28	C	0.228511	-0.318956	0.382015
C29	C	0.283111	-0.318953	0.382004
C30	C	0.310405	-0.285465	0.342004
C31	C	0.283098	-0.251980	0.302015
C32	C	0.228488	-0.185000	0.222035
C33	C	0.283095	-0.184998	0.222033
C34	C	0.310402	-0.218486	0.262025
C35	C	0.364993	-0.218489	0.262004
N36	N	0.392302	-0.251972	0.301998
C37	C	0.365008	-0.285460	0.341998
C38	C	0.031917	-0.218513	0.262057
C39	C	-0.022685	-0.218521	0.262059
C40	C	-0.022669	-0.285494	0.342056
C41	C	0.031934	-0.285489	0.342050
C42	C	0.059227	-0.251995	0.302051
C43	C	0.479674	-0.285452	0.341972
C44	C	0.534279	-0.285448	0.341955
C45	C	0.534259	-0.218473	0.261961
C46	C	0.479658	-0.218479	0.261975
C47	C	0.452367	-0.251970	0.301985
O48	O	0.393269	-0.190036	0.227989
O49	O	0.393258	-0.313930	0.376015
C50	C	0.755441	-0.387819	0.301972
C51	C	0.755452	-0.445933	0.301981
C52	C	0.789046	-0.806292	0.262006
C53	C	0.789067	-0.860896	0.262015
O54	O	0.817539	-0.889129	0.227996
N55	N	0.755621	-0.888216	0.302043
C56	C	0.722157	-0.860929	0.342069
O57	O	0.693712	-0.889180	0.376117
C58	C	0.722140	-0.806325	0.342063
C59	C	0.755584	-0.779008	0.302028
C60	C	0.822488	-0.778975	0.221975
C61	C	0.822467	-0.724374	0.221966
C62	C	0.789004	-0.697091	0.261988
C63	C	0.755563	-0.724408	0.302019
C64	C	0.688679	-0.779039	0.382092
C65	C	0.688665	-0.724432	0.382084
C66	C	0.722109	-0.697115	0.342049
C67	C	0.722079	-0.642524	0.342032
N68	N	0.755524	-0.615204	0.302005
C69	C	0.788987	-0.642487	0.261983
C70	C	0.722197	-0.975599	0.342079
C71	C	0.722211	-1.030202	0.342082
C72	C	0.789121	-1.030165	0.262028
C73	C	0.789104	-0.975562	0.262022
C74	C	0.755642	-0.948279	0.302051
C75	C	0.788940	-0.527822	0.261966
C76	C	0.788914	-0.473217	0.261959
C77	C	0.722006	-0.473258	0.342014
C78	C	0.722030	-0.527859	0.342020
C79	C	0.755501	-0.555139	0.301994
O80	O	0.693623	-0.614256	0.376036
O81	O	0.817433	-0.614229	0.227946
C82	C	0.891902	-0.251998	0.302044
C83	C	0.950016	-0.252007	0.302062
C84	C	0.755573	-0.251966	0.465424
C85	C	0.755591	-0.251962	0.535066
C86	C	0.755632	-0.115604	0.302044
C87	C	0.755676	-0.057490	0.302062
C88	C	0.755516	-0.251950	0.139213
C89	C	0.755599	-0.251807	0.069573
C90	C	0.789055	-0.218525	0.567801
C91	C	0.789055	-0.218503	0.633236
C92	C	0.755595	-0.251926	0.665934
C93	C	0.722125	-0.285365	0.633191
C94	C	0.722123	-0.285383	0.567757
C95	C	0.751437	-0.299003	0.769598
C96	C	0.751442	-0.298986	0.835031
C97	C	0.755599	-0.251871	0.867755
C98	C	0.759760	-0.204771	0.835038
C99	C	0.759758	-0.204789	0.769604
C100	C	0.755594	-0.251910	0.736886
C101	C	0.789064	-0.218407	0.971443
C102	C	0.789059	-0.218384	1.036879
C103	C	0.722132	-0.285251	1.036833
C104	C	0.722134	-0.285269	0.971397
C105	C	0.755602	-0.251848	0.938706
H106	H	0.457460	-0.312723	0.374553
H107	H	0.694887	-0.312500	0.944744
O108	O	0.309552	-0.351497	0.420917
C109	C	0.273744	-0.381059	0.456209
H110	H	0.234835	-0.359645	0.458422
H111	H	0.267902	-0.420741	0.433182
C112	C	0.342869	-0.414974	0.520160
C113	C	0.295082	-0.388671	0.522882
H114	H	0.356031	-0.419672	0.561287
H115	H	0.366994	-0.395059	0.496382
H116	H	0.337994	-0.448039	0.500968
H117	H	0.299958	-0.355604	0.542067
H118	H	0.270957	-0.408580	0.546666
H119	H	0.816337	-0.953323	0.229423
O120	O	0.689613	-0.554456	0.380934
C121	C	0.719378	-0.585982	0.421458
H122	H	0.759014	-0.594131	0.399413
H123	H	0.725094	-0.564912	0.467892
C124	C	0.641949	-0.627867	0.459853
C125	C	0.690628	-0.637879	0.432775
H126	H	0.624214	-0.659878	0.466837
H127	H	0.621895	-0.606626	0.432553
H128	H	0.646719	-0.610307	0.498545
H129	H	0.685857	-0.655432	0.394080
H130	H	0.710681	-0.659124	0.460068
H131	H	0.763146	-0.166405	0.861680
O132	O	0.201958	-0.152552	0.183100
C133	C	0.170337	-0.182276	0.142574
H134	H	0.186761	-0.223454	0.138642
H135	H	0.128955	-0.184088	0.161920
C136	C	0.149340	-0.106098	0.082312
C137	C	0.169514	-0.156672	0.077479
H138	H	0.148829	-0.090303	0.042159
H139	H	0.170642	-0.086071	0.109616
H140	H	0.114856	-0.107615	0.098436
H141	H	0.203999	-0.155154	0.061362
H142	H	0.148218	-0.176698	0.050170
H143	H	0.849701	-0.702136	0.189368
H144	H	0.748057	-0.337338	0.861664
O145	O	0.689580	-0.446724	0.380958
C146	C	0.719330	-0.415087	0.421440
H147	H	0.760510	-0.431509	0.425360
H148	H	0.721129	-0.373712	0.402058
C149	C	0.643189	-0.394067	0.481730
C150	C	0.693766	-0.414240	0.486549
H151	H	0.627419	-0.393542	0.521892
H152	H	0.623145	-0.415380	0.454456
H153	H	0.644695	-0.359590	0.465576
H154	H	0.692258	-0.448718	0.502696
H155	H	0.713809	-0.392933	0.513828
O156	O	0.689549	-0.317778	0.664923
C157	C	0.637447	-0.306356	0.648891
H158	H	0.634838	-0.264591	0.630904
H159	H	0.623757	-0.334395	0.610900
C160	C	0.605758	-0.363717	0.729090
C161	C	0.602552	-0.312419	0.707002
H162	H	0.584232	-0.367459	0.764934
H163	H	0.640860	-0.371414	0.739890
H164	H	0.594350	-0.387077	0.697425
H165	H	0.613966	-0.289061	0.738664
H166	H	0.567451	-0.304718	0.696209
O167	O	0.689703	-1.056653	0.381026
C168	C	0.660156	-1.020856	0.416333
H169	H	0.681559	-0.981913	0.418519
H170	H	0.620455	-1.015095	0.393335
C171	C	0.626311	-1.089973	0.480327
C172	C	0.652601	-1.042143	0.483017
H173	H	0.621648	-1.103104	0.521460
H174	H	0.646215	-1.114090	0.456539
H175	H	0.593229	-1.085166	0.461160
H176	H	0.685684	-1.046952	0.502177
H177	H	0.632702	-1.018027	0.506810
H178	H	0.747912	-0.337360	0.742960
H179	H	0.556491	-0.191209	0.229392
H180	H	0.457424	-0.191211	0.229409
O181	O	-0.049165	-0.318097	0.380851
C182	C	-0.035854	-0.370191	0.367059
H183	H	-0.020871	-0.372773	0.316999
H184	H	-0.004150	-0.383899	0.400621
C185	C	-0.102780	-0.401919	0.435765
C186	C	-0.084382	-0.405092	0.374278
H187	H	-0.132714	-0.423449	0.440221
H188	H	-0.111747	-0.366823	0.445059
H189	H	-0.076356	-0.413342	0.463726
H190	H	-0.110804	-0.393663	0.346319
H191	H	-0.075421	-0.440187	0.364980
H192	H	0.305314	-0.157720	0.189463
H193	H	0.816148	-0.450977	0.229356
H194	H	0.556510	-0.312720	0.374522
H195	H	0.816196	-0.550028	0.229375
H196	H	0.849740	-0.801183	0.189384
H197	H	0.206294	-0.346226	0.414592
H198	H	0.816370	-1.052389	0.229442
O199	O	-0.049145	-0.186020	0.223114
C200	C	-0.035847	-0.197384	0.160645
H201	H	0.003784	-0.217487	0.159308
H202	H	-0.066607	-0.224237	0.139483
C203	C	-0.081978	-0.121680	0.124440
C204	C	-0.033301	-0.146366	0.122798
H205	H	-0.080409	-0.090210	0.101092
H206	H	-0.090939	-0.114024	0.166526
H207	H	-0.107606	-0.144062	0.106806
H208	H	-0.007675	-0.123986	0.140438
H209	H	-0.024335	-0.154017	0.080713
O210	O	0.058434	-0.317960	0.380992
C211	C	0.045117	-0.306619	0.443461
H212	H	0.030130	-0.264855	0.446714
H213	H	0.013414	-0.334672	0.459778
C214	C	0.112045	-0.364047	0.481270
C215	C	0.093643	-0.312750	0.485266
H216	H	0.141977	-0.367831	0.507058
H217	H	0.121016	-0.371689	0.439183
H218	H	0.085621	-0.387419	0.494866
H219	H	0.120063	-0.289380	0.471663
H220	H	0.084677	-0.305103	0.527352
O221	O	0.689658	-0.949042	0.380872
C222	C	0.655882	-0.917512	0.345154
H223	H	0.674341	-0.909326	0.297697
H224	H	0.617149	-0.938599	0.338217
C225	C	0.623706	-0.875700	0.437903
C226	C	0.646378	-0.865641	0.379617
H227	H	0.617841	-0.843705	0.459161
H228	H	0.646460	-0.896943	0.461967
H229	H	0.591430	-0.893273	0.432114
H230	H	0.678656	-0.848075	0.385407
H231	H	0.623629	-0.844394	0.355554
H232	H	0.816309	-0.191153	1.063531
H233	H	0.661443	-0.801271	0.414690
H234	H	0.661417	-0.702221	0.414682
H235	H	0.694884	-0.312459	1.063455
H236	H	0.054136	-0.191239	0.229480
H237	H	0.816307	-0.191310	0.541188
H238	H	0.816304	-0.191272	0.659894
H239	H	0.763145	-0.166439	0.742968
O240	O	0.821585	-0.185890	0.939779
C241	C	0.851128	-0.156377	0.982707
H242	H	0.829714	-0.154550	1.029336
H243	H	0.890823	-0.175526	0.989694
C244	C	0.885004	-0.102984	0.899902
C245	C	0.858701	-0.100736	0.957171
H246	H	0.889678	-0.068662	0.884150
H247	H	0.865103	-0.122868	0.870980
H248	H	0.918081	-0.118943	0.905733
H249	H	0.825623	-0.084782	0.951339
H250	H	0.878597	-0.080847	0.986092
H251	H	0.694870	-0.312610	0.541104
