data_functionalizedCrystal
_audit_creation_method	'MofGen! by Chris Wilmer'
_symmetry_space_group_name_H-M	'P1'
_symmetry_Int_Tables_number	1
_symmetry_cell_setting	triclinic
loop_
_symmetry_equiv_pos_as_xyz
  x,y,z
_cell_length_a	13.897449
_cell_length_b	19.121111
_cell_length_c	13.897441
_cell_angle_alpha	92.408591
_cell_angle_beta	90.018596
_cell_angle_gamma	87.528441
loop_
_atom_site_label
_atom_site_type_symbol
_atom_site_fract_x
_atom_site_fract_y
_atom_site_fract_z
Zn1	Zn	1.458227	0.279574	0.561740
Zn2	Zn	1.451213	0.397036	0.407314
Zn3	Zn	1.296920	0.279605	0.400460
Zn4	Zn	1.289987	0.396991	0.568564
O5	O	1.374087	0.338302	0.484520
O6	O	1.592278	0.295161	0.541267
O7	O	1.430712	0.381490	0.271425
O8	O	1.324155	0.181317	0.416130
O9	O	1.587125	0.381459	0.427812
O10	O	1.442666	0.181294	0.534621
O11	O	1.317354	0.295214	0.266389
O12	O	1.161019	0.295172	0.422747
O13	O	1.312338	0.381384	0.702639
O14	O	1.155925	0.381415	0.546252
O15	O	1.435943	0.295118	0.697625
O16	O	1.423989	0.495314	0.434429
O17	O	1.305537	0.495282	0.552899
C18	C	1.123473	0.338292	0.484497
C19	C	1.016258	0.338305	0.484511
C20	C	1.363276	0.520782	0.495169
C21	C	1.358739	0.598848	0.499757
C22	C	0.819963	0.338308	0.484537
C23	C	0.929196	0.338304	0.484520
C24	C	1.418328	0.635517	0.440283
C25	C	1.414067	0.708868	0.444604
C26	C	1.350212	0.745549	0.508395
C27	C	1.290621	0.708875	0.567875
C28	C	1.294887	0.635525	0.563559
C29	C	1.334246	0.967019	0.524516
C30	C	1.329982	1.040374	0.528826
C31	C	1.453429	1.040362	0.405555
C32	C	1.457686	0.967011	0.401240
C33	C	1.398099	0.930343	0.460724
C34	C	1.345852	0.820526	0.512811
C35	C	1.402464	0.855368	0.456313
C36	C	1.625679	0.338312	0.484543
C37	C	1.732893	0.338316	0.484553
C38	C	1.374149	0.338243	0.736109
C39	C	1.374176	0.338218	0.843322
C40	C	1.384958	1.155109	0.473862
C41	C	1.389570	1.077043	0.469352
C42	C	1.374083	0.338310	0.233906
C43	C	1.374255	0.338137	0.126682
C44	C	1.374197	0.338198	0.930390
C45	C	1.374226	0.338166	1.039621
H46	H	1.470321	0.605656	0.388334
O47	O	1.228463	0.744426	0.629793
C48	C	1.063044	0.766971	0.677761
C49	C	1.133336	0.726657	0.607592
H50	H	0.986118	0.752631	0.659824
H51	H	1.080705	0.752482	0.754717
H52	H	1.070276	0.825692	0.670647
H53	H	1.126143	0.667927	0.614619
H54	H	1.115656	0.741204	0.530664
O55	O	1.464353	0.819708	0.394242
C56	C	1.482199	0.736915	0.259200
C57	C	1.412006	0.777277	0.329421
H58	H	1.439906	0.702590	0.206787
H59	H	1.524043	0.775688	0.217352
H60	H	1.534628	0.702550	0.301529
H61	H	1.359519	0.811643	0.287166
H62	H	1.370232	0.738467	0.371270
O63	O	1.283926	0.856129	0.574907
C64	C	1.235665	0.878492	0.740251
C65	C	1.305869	0.838137	0.670035
H66	H	1.253368	0.863950	0.817175
H67	H	1.242865	0.937223	0.733199
H68	H	1.158735	0.864143	0.722345
H69	H	1.382829	0.852429	0.687895
H70	H	1.298585	0.779417	0.677100
H71	H	1.285726	0.937169	0.572949
H72	H	1.462589	0.738721	0.396173
O73	O	1.519672	0.931462	0.339149
C74	C	1.567867	0.909053	0.173794
C75	C	1.497620	0.949366	0.244009
H76	H	1.550050	0.923502	0.096858
H77	H	1.644813	0.923435	0.191576
H78	H	1.560701	0.850331	0.180972
H79	H	1.504699	1.008096	0.236871
H80	H	1.420702	0.934925	0.226208
O81	O	1.511284	1.076090	0.347886
C82	C	1.559404	1.189084	0.299876
C83	C	1.493836	1.148711	0.365252
H84	H	1.545306	1.247805	0.313880
H85	H	1.638030	1.174653	0.316049
H86	H	1.543370	1.174676	0.221241
H87	H	1.509784	1.163097	0.443908
H88	H	1.415230	1.163146	0.348996
O89	O	1.267931	1.075898	0.590887
C90	C	1.145911	1.068173	0.712673
C91	C	1.216149	1.027855	0.642455
H92	H	1.104012	1.029348	0.754370
H93	H	1.188137	1.102441	0.765222
H94	H	1.093536	1.102588	0.670355
H95	H	1.268540	0.993403	0.684693
H96	H	1.173861	0.993632	0.589906
H97	H	1.246365	0.605670	0.611990
