data_functionalizedCrystal
_audit_creation_method	'MofGen! by Chris Wilmer'
_symmetry_space_group_name_H-M	'P1'
_symmetry_Int_Tables_number	1
_symmetry_cell_setting	triclinic
loop_
_symmetry_equiv_pos_as_xyz
  x,y,z
_cell_length_a	16.625548
_cell_length_b	18.050590
_cell_length_c	18.050591
_cell_angle_alpha	90.018837
_cell_angle_beta	90.008826
_cell_angle_gamma	90.019620
loop_
_atom_site_label
_atom_site_type_symbol
_atom_site_fract_x
_atom_site_fract_y
_atom_site_fract_z
Zn1	Zn	1.232609	-0.295718	0.419908
Zn2	Zn	1.565942	0.037615	0.753241
Zn3	Zn	1.899276	0.370948	1.086574
Zn4	Zn	1.232549	-0.419892	0.295716
Zn5	Zn	1.565882	-0.086559	0.629050
Zn6	Zn	1.899216	0.246775	0.962383
Zn7	Zn	1.097798	-0.295723	0.295732
Zn8	Zn	1.431132	0.037611	0.629065
Zn9	Zn	1.764465	0.370944	0.962399
Zn10	Zn	1.097750	-0.419873	0.419865
Zn11	Zn	1.431084	-0.086540	0.753198
Zn12	Zn	1.764417	0.246793	1.086531
O13	O	1.165177	-0.357802	0.357805
O14	O	1.498510	-0.024468	0.691139
O15	O	1.831843	0.308865	1.024472
O16	O	1.345433	-0.312196	0.403445
O17	O	1.678767	0.021137	0.736778
O18	O	2.012100	0.354470	1.070112
O19	O	1.214669	-0.403430	0.191794
O20	O	1.548002	-0.070097	0.525127
O21	O	1.881336	0.263237	0.858460
O22	O	1.115726	-0.191797	0.312229
O23	O	1.449060	0.141536	0.645562
O24	O	1.782393	0.474869	0.978896
O25	O	1.345389	-0.403426	0.312202
O26	O	1.678723	-0.070093	0.645535
O27	O	2.012056	0.263241	0.978869
O28	O	1.214771	-0.191794	0.403460
O29	O	1.548105	0.141539	0.736794
O30	O	1.881438	0.474872	1.070127
O31	O	1.115668	-0.312203	0.191805
O32	O	1.449002	0.021130	0.525139
O33	O	1.782335	0.354463	0.858472
O34	O	0.984960	-0.312185	0.312187
O35	O	1.318293	0.021148	0.645520
O36	O	1.651626	0.354481	0.978854
O37	O	1.115645	-0.403394	0.523795
O38	O	1.448978	-0.070061	0.857128
O39	O	1.782311	0.263272	1.190462
O40	O	0.984924	-0.403399	0.403387
O41	O	1.318258	-0.070065	0.736720
O42	O	1.651591	0.263268	1.070053
O43	O	1.214725	-0.312178	0.523827
O44	O	1.548058	0.021155	0.857160
O45	O	1.881391	0.354488	1.190493
O46	O	1.214623	-0.523814	0.312160
O47	O	1.547956	-0.190481	0.645493
O48	O	1.881289	0.142853	0.978827
O49	O	1.115587	-0.523800	0.403371
O50	O	1.448920	-0.190467	0.736705
O51	O	1.782253	0.142866	1.070038
C52	C	0.955686	-0.357791	0.357784
C53	C	1.289019	-0.024458	0.691118
C54	C	1.622353	0.308876	1.024451
C55	C	0.866065	-0.357804	0.357793
C56	C	1.199398	-0.024471	0.691126
C57	C	1.532731	0.308862	1.024460
C58	C	0.537889	-0.357809	0.357825
C59	C	0.871222	-0.024476	0.691158
C60	C	1.204556	0.308857	1.024492
C61	C	0.629198	-0.357806	0.357814
C62	C	0.962531	-0.024472	0.691147
C63	C	1.295864	0.308861	1.024480
C64	C	0.701974	-0.357807	0.357808
C65	C	1.035307	-0.024474	0.691142
C66	C	1.368641	0.308859	1.024475
C67	C	0.793288	-0.357803	0.357798
C68	C	1.126622	-0.024470	0.691132
C69	C	1.459955	0.308864	1.024465
C70	C	1.165115	-0.550754	0.357776
C71	C	1.498448	-0.217420	0.691109
C72	C	1.831781	0.115913	1.024442
C73	C	1.165162	-0.633300	0.357788
C74	C	1.498495	-0.299966	0.691121
C75	C	1.831829	0.033367	1.024454
C76	C	1.219130	-0.832731	0.308256
C77	C	1.552463	-0.499397	0.641590
C78	C	1.885796	-0.166064	0.974923
C79	C	1.238812	-0.882074	0.376036
C80	C	1.572145	-0.548741	0.709370
C81	C	1.905479	-0.215408	1.042703
C82	C	1.165208	-0.784430	0.357817
C83	C	1.498541	-0.451097	0.691151
C84	C	1.831874	-0.117763	1.024484
C85	C	1.145608	-0.882168	0.290068
C86	C	1.478941	-0.548835	0.623401
C87	C	1.812274	-0.215501	0.956734
C88	C	1.165253	-0.930415	0.357840
C89	C	1.498587	-0.597082	0.691173
C90	C	1.831920	-0.263748	1.024507
C91	C	1.184928	-0.832686	0.425633
C92	C	1.518261	-0.499353	0.758966
C93	C	1.851594	-0.166020	1.092300
C94	C	1.091689	-0.832776	0.339619
C95	C	1.425023	-0.499442	0.672952
C96	C	1.758356	-0.166109	1.006285
C97	C	1.111343	-0.882097	0.407446
C98	C	1.444677	-0.548764	0.740779
C99	C	1.778010	-0.215430	1.074112
C100	C	1.165183	-0.700332	0.357803
C101	C	1.498517	-0.366998	0.691137
C102	C	1.831850	-0.033665	1.024470
C103	C	1.165278	-1.014511	0.357862
C104	C	1.498611	-0.681178	0.691195
C105	C	1.831944	-0.347845	1.024528
C106	C	1.375486	-0.357813	0.357826
C107	C	1.708819	-0.024479	0.691160
C108	C	2.042152	0.308854	1.024493
C109	C	1.465107	-0.357818	0.357836
C110	C	1.798440	-0.024484	0.691169
C111	C	2.131773	0.308849	1.024502
C112	C	1.165186	-0.357784	0.551511
C113	C	1.498519	-0.024451	0.884844
C114	C	1.831853	0.308883	1.218177
C115	C	1.165190	-0.357776	0.634057
C116	C	1.498523	-0.024443	0.967390
C117	C	1.831857	0.308890	1.300723
C118	C	1.165261	-0.164096	0.357851
C119	C	1.498594	0.169237	0.691184
C120	C	1.831928	0.502571	1.024518
C121	C	1.165297	-0.081550	0.357871
C122	C	1.498630	0.251783	0.691204
C123	C	1.831963	0.585116	1.024537
C124	C	1.219076	-0.308185	0.882899
C125	C	1.552409	0.025148	1.216233
C126	C	1.885742	0.358481	1.549566
C127	C	1.238772	-0.375936	0.833484
C128	C	1.572105	-0.042603	1.166818
C129	C	1.905439	0.290731	1.500151
C130	C	1.165189	-0.357804	0.931177
C131	C	1.498522	-0.024470	1.264510
C132	C	1.831856	0.308863	1.597844
C133	C	1.145531	-0.290044	0.833510
C134	C	1.478865	0.043290	1.166844
C135	C	1.812198	0.376623	1.500177
C136	C	1.165192	-0.357787	0.785192
C137	C	1.498525	-0.024453	1.118525
C138	C	1.831858	0.308880	1.451858
C139	C	1.184924	-0.425590	0.882849
C140	C	1.518257	-0.092257	1.216183
C141	C	1.851590	0.241076	1.549516
C142	C	1.091649	-0.339652	0.882879
C143	C	1.424982	-0.006319	1.216213
C144	C	1.758315	0.327015	1.549546
C145	C	1.111317	-0.407449	0.833487
C146	C	1.444650	-0.074116	1.166820
C147	C	1.777984	0.259217	1.500153
C148	C	1.165190	-0.357813	1.015275
C149	C	1.498523	-0.024479	1.348609
C150	C	1.831856	0.308854	1.681942
C151	C	1.165191	-0.357786	0.701095
C152	C	1.498524	-0.024452	1.034429
C153	C	1.831857	0.308881	1.367762
C154	C	1.165169	-0.357829	1.164853
C155	C	1.498502	-0.024495	1.498186
C156	C	1.831836	0.308838	1.831520
C157	C	1.165188	-0.357815	1.082307
C158	C	1.498522	-0.024482	1.415641
C159	C	1.831855	0.308851	1.748974
H160	H	1.301005	-0.903731	0.391443
H161	H	1.634338	-0.570398	0.724777
H162	H	1.967671	-0.237064	1.058110
H163	H	1.201641	-0.482899	0.904432
H164	H	1.534974	-0.149566	1.237765
H165	H	1.868308	0.183768	1.571098
N166	N	1.050973	-0.910629	0.463044
N167	N	1.384307	-0.577295	0.796377
N168	N	1.717640	-0.243962	1.129711
H169	H	1.050984	-0.966579	0.462451
H170	H	1.384318	-0.633246	0.795785
H171	H	1.717651	-0.299913	1.129118
H172	H	0.995616	-0.891846	0.449719
H173	H	1.328950	-0.558513	0.783053
H174	H	1.662283	-0.225179	1.116386
N175	N	1.123506	-0.214150	0.804799
N176	N	1.456839	0.119184	1.138132
N177	N	1.790172	0.452517	1.471465
H178	H	1.114016	-0.179578	0.847925
H179	H	1.447350	0.153755	1.181258
H180	H	1.780683	0.487089	1.514592
H181	H	1.072941	-0.217745	0.773989
H182	H	1.406275	0.115588	1.107322
H183	H	1.739608	0.448922	1.440655
N184	N	1.123619	-0.910945	0.214159
N185	N	1.456953	-0.577611	0.547492
N186	N	1.790286	-0.244278	0.880826
H187	H	1.068468	-0.892237	0.200021
H188	H	1.401802	-0.558904	0.533354
H189	H	1.735135	-0.225570	0.866687
H190	H	1.123333	-0.966891	0.214889
H191	H	1.456666	-0.633557	0.548222
H192	H	1.789999	-0.300224	0.881555
N193	N	1.279551	-0.804010	0.252801
N194	N	1.612885	-0.470677	0.586135
N195	N	1.946218	-0.137343	0.919468
H196	H	1.278744	-0.748062	0.252852
H197	H	1.612077	-0.414728	0.586185
H198	H	1.945411	-0.081395	0.919518
H199	H	1.265267	-0.822833	0.201770
H200	H	1.598600	-0.489500	0.535104
H201	H	1.931934	-0.156167	0.868437
N202	N	1.009331	-0.804063	0.319190
N203	N	1.342665	-0.470730	0.652523
N204	N	1.675998	-0.137397	0.985856
H205	H	0.994555	-0.822031	0.267967
H206	H	1.327889	-0.488698	0.601301
H207	H	1.661222	-0.155365	0.934634
H208	H	1.009860	-0.748117	0.319856
H209	H	1.343193	-0.414784	0.653189
H210	H	1.676526	-0.081451	0.986522
N211	N	1.207006	-0.804027	0.501564
N212	N	1.540339	-0.470694	0.834897
N213	N	1.873672	-0.137360	1.168230
H214	H	1.206875	-0.748076	0.501081
H215	H	1.540208	-0.414742	0.834415
H216	H	1.873541	-0.081409	1.167748
H217	H	1.262362	-0.822449	0.515386
H218	H	1.595695	-0.489115	0.848720
H219	H	1.929028	-0.155782	1.182053
H220	H	1.065748	-0.449451	0.811928
H221	H	1.399081	-0.116118	1.145262
H222	H	1.732414	0.217215	1.478595
N223	N	1.279477	-0.252686	0.911651
N224	N	1.612810	0.080647	1.244984
N225	N	1.946143	0.413981	1.578317
H226	H	1.335016	-0.266493	0.893685
H227	H	1.668349	0.066840	1.227018
H228	H	2.001682	0.400173	1.560351
H229	H	1.278612	-0.252781	0.967596
H230	H	1.611945	0.080552	1.300930
H231	H	1.945278	0.413885	1.634263
N232	N	1.321148	-0.396272	0.804736
N233	N	1.654481	-0.062939	1.138069
N234	N	1.987815	0.270394	1.471403
H235	H	1.361816	-0.358768	0.822704
H236	H	1.695149	-0.025435	1.156038
H237	H	2.028482	0.307898	1.489371
H238	H	1.320326	-0.396597	0.748790
H239	H	1.653659	-0.063263	1.082124
H240	H	1.986992	0.270070	1.415457
N241	N	1.009289	-0.319299	0.911644
N242	N	1.342623	0.014034	1.244977
N243	N	1.675956	0.347367	1.578310
H244	H	0.994486	-0.268084	0.893729
H245	H	1.327819	0.065249	1.227062
H246	H	1.661153	0.398582	1.560396
H247	H	1.009832	-0.319980	0.967589
H248	H	1.343166	0.013354	1.300922
H249	H	1.676499	0.346687	1.634255
