data_functionalizedCrystal
_audit_creation_method	'MofGen! by Chris Wilmer'
_symmetry_space_group_name_H-M	'P1'
_symmetry_Int_Tables_number	1
_symmetry_cell_setting	triclinic
loop_
_symmetry_equiv_pos_as_xyz
  x,y,z
_cell_length_a	29.839131
_cell_length_b	12.759401
_cell_length_c	12.759393
_cell_angle_alpha	90.020566
_cell_angle_beta	89.963184
_cell_angle_gamma	89.960371
loop_
_atom_site_label
_atom_site_type_symbol
_atom_site_fract_x
_atom_site_fract_y
_atom_site_fract_z
Zn1	Zn	-0.178853	-1.606071	-0.593963
Zn2	Zn	-0.253990	-1.605880	-0.418264
Zn3	Zn	-0.178873	-1.430370	-0.418300
Zn4	Zn	-0.253954	-1.430280	-0.593903
O5	O	-0.216418	-1.518150	-0.506107
O6	O	-0.188827	-1.753067	-0.570667
O7	O	-0.244049	-1.582556	-0.271248
O8	O	-0.116003	-1.453795	-0.441642
O9	O	-0.244030	-1.752927	-0.441582
O10	O	-0.115989	-1.582882	-0.570702
O11	O	-0.188860	-1.453610	-0.271274
O12	O	-0.188826	-1.283337	-0.441583
O13	O	-0.243969	-1.453641	-0.740932
O14	O	-0.243988	-1.283271	-0.570598
O15	O	-0.188792	-1.582794	-0.740976
O16	O	-0.316853	-1.582469	-0.441523
O17	O	-0.316826	-1.453456	-0.570563
C18	C	-0.216405	-1.245183	-0.506088
C19	C	-0.216411	-1.128406	-0.506105
C20	C	-0.187718	-1.073618	-0.573423
C21	C	-0.187721	-0.963894	-0.573428
C22	C	-0.245113	-0.963756	-0.438795
C23	C	-0.245108	-1.073478	-0.438785
C24	C	-0.333140	-1.517961	-0.506055
C25	C	-0.383075	-1.517976	-0.506068
C26	C	-0.692719	-1.585450	-0.439014
C27	C	-0.880392	-1.585579	-0.439055
O28	O	-0.904658	-1.642798	-0.382003
N29	N	-0.903860	-1.518368	-0.506187
C30	C	-0.880406	-1.451125	-0.573318
O31	O	-0.904673	-1.393968	-0.630426
C32	C	-0.692734	-1.451001	-0.573282
C33	C	-0.669269	-1.518209	-0.506138
C34	C	-0.669254	-1.652653	-0.371877
C35	C	-0.622338	-1.652616	-0.371863
C36	C	-0.598888	-1.585375	-0.438987
C37	C	-0.622353	-1.518172	-0.506124
C38	C	-0.669281	-1.383764	-0.640417
C39	C	-0.622360	-1.383741	-0.640404
C40	C	-0.598895	-1.450949	-0.573261
C41	C	-0.551988	-1.450895	-0.573235
N42	N	-0.528520	-1.518106	-0.506103
C43	C	-0.551970	-1.585346	-0.438979
C44	C	-0.978937	-1.451193	-0.573331
C45	C	-1.025855	-1.451222	-0.573339
C46	C	-1.025837	-1.585678	-0.439077
C47	C	-0.978919	-1.585643	-0.439064
C48	C	-0.955469	-1.518404	-0.506199
C49	C	-0.453444	-1.585262	-0.438955
C50	C	-0.406525	-1.585216	-0.438944
C51	C	-0.406546	-1.450764	-0.573210
C52	C	-0.453462	-1.450806	-0.573217
C53	C	-0.476910	-1.518064	-0.506086
O54	O	-0.527693	-1.393715	-0.630265
O55	O	-0.527695	-1.642510	-0.381896
C56	C	-0.739634	-1.585487	-0.439028
C57	C	-0.763100	-1.518283	-0.506165
C58	C	-0.739649	-1.451043	-0.573289
C59	C	-0.810017	-1.518313	-0.506173
C60	C	-0.833468	-1.585553	-0.439049
C61	C	-0.810000	-1.652764	-0.371917
C62	C	-0.763085	-1.652727	-0.371904
C63	C	-0.763117	-1.383832	-0.640421
C64	C	-0.810032	-1.383874	-0.640428
C65	C	-0.833483	-1.451114	-0.573304
C66	C	-0.099239	-1.518369	-0.506183
C67	C	-0.049305	-1.518463	-0.506215
C68	C	-0.216374	-1.518229	-0.780141
C69	C	-0.216356	-1.518263	-0.896918
C70	C	-0.216426	-0.792184	-0.506123
C71	C	-0.216419	-0.908960	-0.506120
C72	C	-0.187621	-1.585518	-0.951805
C73	C	-0.187602	-1.585535	-1.061529
C74	C	-0.245056	-1.451040	-1.061469
C75	C	-0.245073	-1.451018	-0.951747
C76	C	-0.216428	-1.518133	-0.233140
C77	C	-0.216320	-1.518303	-0.116364
H78	H	-0.268478	-0.919021	-0.383987
H79	H	-0.268474	-1.118088	-0.383962
O80	O	-0.276063	-1.378472	-0.892527
H81	H	-0.255950	-1.325056	-0.842556
H82	H	-0.959816	-1.640370	-0.384391
H83	H	-1.044938	-1.640429	-0.384422
H84	H	-0.164349	-1.118337	-0.628236
O85	O	-0.276028	-1.378514	-1.120608
H86	H	-0.298883	-1.425499	-1.170585
H87	H	-0.472530	-1.640032	-0.384293
O88	O	-0.156774	-0.904797	-0.646036
H89	H	-0.136822	-0.961429	-0.692847
H90	H	-0.387421	-1.639945	-0.384264
H91	H	-0.688342	-1.707414	-0.317216
H92	H	-0.603236	-1.707345	-0.317192
H93	H	-0.164202	-1.640299	-1.106213
H94	H	-1.044956	-1.396485	-0.628004
O95	O	-0.156645	-1.658039	-0.892671
H96	H	-0.176763	-1.711452	-0.842687
O97	O	-0.953647	-1.378642	-0.645719
H98	H	-0.977852	-1.331903	-0.692380
O99	O	-0.694584	-1.311282	-0.712844
H100	H	-0.670388	-1.264539	-0.759521
H101	H	-0.387446	-1.396015	-0.627858
H102	H	-0.472568	-1.396083	-0.627894
O103	O	-0.597071	-1.311201	-0.712806
H104	H	-0.606045	-1.329176	-0.795280
O105	O	-0.737778	-1.725226	-0.299495
H106	H	-0.761973	-1.771990	-0.252837
O107	O	-0.835297	-1.725312	-0.299538
H108	H	-0.871863	-1.714050	-0.310848
H109	H	-0.829134	-1.329136	-0.695104
H110	H	-0.744027	-1.329078	-0.695083
