data_functionalizedCrystal
_audit_creation_method	'MofGen! by Chris Wilmer'
_symmetry_space_group_name_H-M	'P1'
_symmetry_Int_Tables_number	1
_symmetry_cell_setting	triclinic
loop_
_symmetry_equiv_pos_as_xyz
  x,y,z
_cell_length_a	16.625546
_cell_length_b	13.034296
_cell_length_c	13.032831
_cell_angle_alpha	105.185450
_cell_angle_beta	97.173222
_cell_angle_gamma	82.786634
loop_
_atom_site_label
_atom_site_type_symbol
_atom_site_fract_x
_atom_site_fract_y
_atom_site_fract_z
Zn1	Zn	-0.408761	-0.806419	-1.700150
Zn2	Zn	0.091239	-0.306419	-1.200150
Zn3	Zn	-0.558797	-0.628778	-1.677445
Zn4	Zn	-0.058797	-0.128778	-1.177445
Zn5	Zn	-0.408768	-0.606300	-1.499953
Zn6	Zn	0.091232	-0.106300	-0.999953
Zn7	Zn	-0.528334	-0.783834	-1.522480
Zn8	Zn	-0.028334	-0.283834	-1.022480
O9	O	-0.476165	-0.706333	-1.600007
O10	O	0.023835	-0.206333	-1.100007
O11	O	-0.441409	-0.801714	-1.845775
O12	O	0.058591	-0.301714	-1.345775
O13	O	-0.551647	-0.477154	-1.634971
O14	O	-0.051647	0.022846	-1.134971
O15	O	-0.295937	-0.632892	-1.526584
O16	O	0.204063	-0.132892	-1.026584
O17	O	-0.551640	-0.671201	-1.829094
O18	O	-0.051640	-0.171201	-1.329094
O19	O	-0.295932	-0.779918	-1.673668
O20	O	0.204068	-0.279918	-1.173668
O21	O	-0.441422	-0.460640	-1.504568
O22	O	0.058578	0.039360	-1.004568
O23	O	-0.411883	-0.610992	-1.354305
O24	O	0.088117	-0.110992	-0.854305
O25	O	-0.499720	-0.935472	-1.564978
O26	O	0.000280	-0.435472	-1.064978
O27	O	-0.499728	-0.741425	-1.370855
O28	O	0.000272	-0.241425	-0.870855
O29	O	-0.411870	-0.952065	-1.695512
O30	O	0.088130	-0.452065	-1.195512
O31	O	-0.667586	-0.649301	-1.656815
O32	O	-0.167586	-0.149301	-1.156815
O33	O	-0.645205	-0.763220	-1.542963
O34	O	-0.145205	-0.263220	-1.042963
C35	C	-0.685651	-0.706276	-1.599901
C36	C	-0.185651	-0.206276	-1.099901
C37	C	-0.775275	-0.706299	-1.599957
C38	C	-0.275275	-0.206299	-1.099957
C39	C	-0.452501	-0.671319	-1.324040
C40	C	0.047499	-0.171319	-0.824040
C41	C	-0.442395	-0.656365	-1.205984
C42	C	0.057605	-0.156365	-0.705984
C43	C	-0.452396	-0.983387	-1.635290
C44	C	0.047604	-0.483387	-1.135290
C45	C	-0.442268	-1.101452	-1.650326
C46	C	0.057732	-0.601452	-1.150326
C47	C	-1.103457	-0.706433	-1.600157
C48	C	-0.603457	-0.206433	-1.100157
C49	C	-1.012146	-0.706398	-1.600098
C50	C	-0.512146	-0.206398	-1.100098
C51	C	-0.939369	-0.706365	-1.600056
C52	C	-0.439369	-0.206365	-1.100056
C53	C	-0.848053	-0.706332	-1.599999
C54	C	-0.348053	-0.206332	-1.099999
C55	C	-0.265861	-0.706417	-1.600146
C56	C	0.234139	-0.206417	-1.100146
C57	C	-0.176242	-0.706453	-1.600205
C58	C	0.323758	-0.206453	-1.100205
C59	C	-0.481218	-1.145878	-1.592444
C60	C	0.018782	-0.645878	-1.092444
C61	C	-0.470751	-1.267903	-1.607983
C62	C	0.029249	-0.767903	-1.107983
C63	C	-0.499788	-0.430364	-1.564922
C64	C	0.000212	0.069636	-1.064922
C65	C	-0.509707	-0.312326	-1.550093
C66	C	-0.009707	0.187674	-1.050093
C67	C	-0.499922	-0.741484	-1.877052
C68	C	0.000078	-0.241484	-1.377052
C69	C	-0.510046	-0.756463	-1.995112
C70	C	-0.010046	-0.256463	-1.495112
C71	C	-0.481440	-0.714137	-1.161555
C72	C	0.018560	-0.214137	-0.661555
C73	C	-0.470995	-0.698683	-1.039537
C74	C	0.029005	-0.198683	-0.539537
H75	H	-0.522318	-1.093575	-1.531390
H76	H	-0.022318	-0.593575	-1.031390
O77	O	-0.530547	-0.786877	-1.223782
O78	O	-0.030547	-0.286877	-0.723782
C79	C	-0.620521	-0.919908	-1.229444
C80	C	-0.120521	-0.419908	-0.729444
C81	C	-0.564918	-0.837584	-1.158853
C82	C	-0.064918	-0.337584	-0.658853
H83	H	-0.648339	-0.960912	-1.176976
H84	H	-0.148339	-0.460912	-0.676976
H85	H	-0.583240	-0.982139	-1.288462
H86	H	-0.083240	-0.482139	-0.788462
H87	H	-0.671197	-0.877559	-1.275159
H88	H	-0.171197	-0.377559	-0.775159
H89	H	-0.514233	-0.879841	-1.113070
H90	H	-0.014233	-0.379841	-0.613070
H91	H	-0.602255	-0.775358	-1.099901
H92	H	-0.102255	-0.275358	-0.599901
H93	H	-0.429654	-1.320204	-1.669049
H94	H	0.070346	-0.820204	-1.169049
O95	O	-0.558859	-1.250007	-1.477359
O96	O	-0.058859	-0.750007	-0.977359
C97	C	-0.694484	-1.209311	-1.421341
C98	C	-0.194484	-0.709311	-0.921341
C99	C	-0.638918	-1.279942	-1.503800
C100	C	-0.138918	-0.779942	-1.003800
H101	H	-0.759219	-1.233502	-1.442676
H102	H	-0.259219	-0.733502	-0.942676
H103	H	-0.694265	-1.121999	-1.421785
H104	H	-0.194265	-0.621999	-0.921785
H105	H	-0.671083	-1.220189	-1.338461
H106	H	-0.171083	-0.720189	-0.838461
H107	H	-0.662279	-1.269156	-1.586719
H108	H	-0.162279	-0.769156	-1.086719
H109	H	-0.639141	-1.367227	-1.503262
H110	H	-0.139141	-0.867227	-1.003262
O111	O	-0.393239	-1.163990	-1.723089
O112	O	0.106761	-0.663990	-1.223089
C113	C	-0.338165	-1.342640	-1.804992
C114	C	0.161835	-0.842640	-1.304992
C115	C	-0.393703	-1.271943	-1.722534
C116	C	0.106297	-0.771943	-1.222534
H117	H	-0.338535	-1.429936	-1.804587
H118	H	0.161465	-0.929936	-1.304587
H119	H	-0.273380	-1.318631	-1.783636
H120	H	0.226620	-0.818631	-1.283636
H121	H	-0.361513	-1.331690	-1.887862
H122	H	0.138487	-0.831690	-1.387862
H123	H	-0.370429	-1.282857	-1.639636
H124	H	0.129571	-0.782857	-1.139636
H125	H	-0.458479	-1.295969	-1.743982
H126	H	0.041521	-0.795969	-1.243982
O127	O	-0.422014	-0.625891	-0.977105
O128	O	0.077986	-0.125891	-0.477105
C129	C	-0.412648	-0.466759	-0.833422
C130	C	0.087352	0.033241	-0.333422
C131	C	-0.468209	-0.549109	-0.904065
C132	C	0.031791	-0.049109	-0.404065
H133	H	-0.449971	-0.404673	-0.774337
H134	H	0.050029	0.095327	-0.274337
H135	H	-0.384898	-0.425581	-0.885799
H136	H	0.115102	0.074419	-0.385799
H137	H	-0.361921	-0.509111	-0.787781
H138	H	0.138079	-0.009111	-0.287781
H139	H	-0.518978	-0.506840	-0.949718
H140	H	-0.018978	-0.006840	-0.449718
H141	H	-0.495897	-0.590284	-0.851631
H142	H	0.004103	-0.090284	-0.351631
O143	O	-0.559052	-0.829273	-1.057455
O144	O	-0.059052	-0.329273	-0.557455
C145	C	-0.585846	-1.014152	-1.114567
C146	C	-0.085846	-0.514152	-0.614567
C147	C	-0.530271	-0.931813	-1.043934
C148	C	-0.030271	-0.431813	-0.543934
H149	H	-0.562608	-1.097071	-1.103643
H150	H	-0.062608	-0.597071	-0.603643
H151	H	-0.585512	-1.013770	-1.201887
H152	H	-0.085512	-0.513770	-0.701887
H153	H	-0.650603	-0.992552	-1.090405
H154	H	-0.150603	-0.492552	-0.590405
H155	H	-0.465489	-0.953356	-1.068002
H156	H	0.034511	-0.453356	-0.568002
H157	H	-0.530674	-0.932211	-0.956632
H158	H	-0.030674	-0.432211	-0.456632
O159	O	-0.393357	-0.583709	-1.143444
O160	O	0.106643	-0.083709	-0.643444
C161	C	-0.338185	-0.502123	-0.964819
C162	C	0.161815	-0.002123	-0.464819
C163	C	-0.393754	-0.584434	-1.035514
C164	C	0.106246	-0.084434	-0.535514
H165	H	-0.338474	-0.502697	-0.877545
H166	H	0.161526	-0.002697	-0.377545
H167	H	-0.361449	-0.419144	-0.975554
H168	H	0.138551	0.080856	-0.475554
H169	H	-0.273440	-0.523647	-0.989038
H170	H	0.226560	-0.023647	-0.489038
H171	H	-0.458513	-0.563009	-1.011340
H172	H	0.041487	-0.063009	-0.511340
H173	H	-0.370422	-0.667390	-1.024770
H174	H	0.129578	-0.167390	-0.524770
