data_functionalizedCrystal
_audit_creation_method	'MofGen! by Chris Wilmer'
_symmetry_space_group_name_H-M	'P1'
_symmetry_Int_Tables_number	1
_symmetry_cell_setting	triclinic
loop_
_symmetry_equiv_pos_as_xyz
  x,y,z
_cell_length_a	16.992694
_cell_length_b	15.944551
_cell_length_c	16.053802
_cell_angle_alpha	92.564789
_cell_angle_beta	87.249047
_cell_angle_gamma	87.083481
loop_
_atom_site_label
_atom_site_type_symbol
_atom_site_fract_x
_atom_site_fract_y
_atom_site_fract_z
O1	O	1.043704	0.174798	-0.069327
O2	O	1.543704	0.674798	0.430673
O3	O	0.815419	0.172843	-0.069352
O4	O	1.315419	0.672843	0.430648
O5	O	0.935795	0.051964	-0.069332
O6	O	1.435795	0.551964	0.430668
O7	O	0.923328	0.295677	-0.069348
O8	O	1.423328	0.795677	0.430652
O9	O	0.929169	0.058588	0.069526
O10	O	1.429169	0.558588	0.569526
O11	O	0.808793	0.179467	0.069506
O12	O	1.308793	0.679467	0.569506
O13	O	1.037078	0.181422	0.069530
O14	O	1.537078	0.681422	0.569530
Zn15	Zn	0.921884	0.181497	0.091565
Zn16	Zn	1.421884	0.681497	0.591565
Zn17	Zn	0.930613	0.172769	-0.091386
Zn18	Zn	1.430613	0.672769	0.408614
O19	O	0.916702	0.302301	0.069510
O20	O	1.416702	0.802301	0.569510
C21	C	0.782894	0.173641	0.000074
C22	C	1.282894	0.673641	0.500074
C23	C	0.695850	0.166141	0.000065
C24	C	1.195850	0.666141	0.500065
C25	C	0.645613	0.238506	0.000061
C26	C	1.145613	0.738506	0.500061
C27	C	0.563826	0.231454	0.000073
C28	C	1.063826	0.731454	0.500073
C29	C	0.532276	0.152037	0.000083
C30	C	1.032276	0.652037	0.500083
C31	C	0.582519	0.079667	0.000089
C32	C	1.082519	0.579667	0.500089
C33	C	0.664305	0.086719	0.000083
C34	C	1.164305	0.586719	0.500083
C35	C	0.288676	0.122807	0.000107
C36	C	0.788676	0.622807	0.500107
C37	C	0.206884	0.115759	0.000111
C38	C	0.706884	0.615759	0.500111
C39	C	0.188196	0.267548	0.000095
C40	C	0.688196	0.767548	0.500095
C41	C	0.269984	0.274593	0.000084
C42	C	0.769984	0.774593	0.500084
C43	C	0.320220	0.202223	0.000095
C44	C	0.820220	0.702223	0.500095
N45	N	0.448677	0.144827	0.000092
N46	N	0.948677	0.644827	0.500092
N47	N	0.403818	0.209434	0.000092
N48	N	0.903818	0.709434	0.500092
C49	C	0.931964	0.023948	0.000097
C50	C	1.431964	0.523948	0.500097
C51	C	0.930413	-0.069402	0.000098
C52	C	1.430413	0.430598	0.500098
C53	C	0.852090	-0.289513	0.000078
C54	C	1.352090	0.210487	0.500078
C55	C	0.885194	-0.344825	0.068547
C56	C	1.385194	0.155175	0.568547
C57	C	0.927606	-0.240317	0.000091
C58	C	1.427606	0.259683	0.500091
C59	C	0.891744	-0.351338	-0.068356
C60	C	1.391744	0.148662	0.431644
C61	C	0.924889	-0.405412	0.000081
C62	C	1.424889	0.094588	0.500081
C63	C	0.960728	-0.294396	0.068617
C64	C	1.460728	0.205604	0.568617
C65	C	0.967271	-0.300907	-0.068348
C66	C	1.467271	0.199093	0.431652
C67	C	1.000429	-0.356196	0.000138
C68	C	1.500429	0.143804	0.500138
C69	C	0.929169	-0.145209	0.000098
C70	C	1.429169	0.354791	0.500098
C71	C	0.923332	-0.500518	0.000080
C72	C	1.423332	-0.000518	0.500080
C73	C	1.069603	0.180624	0.000103
C74	C	1.569603	0.680624	0.500103
C75	C	1.156648	0.188124	0.000106
C76	C	1.656648	0.688124	0.500106
C77	C	0.920533	0.330318	0.000079
C78	C	1.420533	0.830318	0.500079
C79	C	0.922085	0.423667	0.000073
C80	C	1.422085	0.923667	0.500073
N81	N	0.915931	0.187453	0.216424
N82	N	1.415931	0.687453	0.716424
N83	N	0.936572	0.166806	-0.216246
N84	N	1.436572	0.666806	0.283754
C85	C	0.967170	0.136040	0.260127
C86	C	1.467170	0.636040	0.760127
C87	C	0.963014	0.140215	0.347533
C88	C	1.463014	0.640215	0.847533
C89	C	0.907622	0.195808	0.391235
C90	C	1.407622	0.695808	0.891235
C91	C	0.856378	0.247223	0.347526
C92	C	1.356378	0.747223	0.847526
C93	C	0.860531	0.243043	0.260121
C94	C	1.360531	0.743043	0.760121
C95	C	0.889481	0.214042	0.652641
C96	C	1.389481	0.714042	1.152641
C97	C	0.885333	0.218220	0.740052
C98	C	1.385333	0.718220	1.240052
C99	C	0.991968	0.111209	0.740053
C100	C	1.491968	0.611209	1.240053
C101	C	0.996120	0.107038	0.652646
C102	C	1.496120	0.607038	1.152646
C103	C	0.944873	0.158450	0.608945
C104	C	1.444873	0.658450	1.108945
N105	N	0.903374	0.200078	0.480578
N106	N	1.403374	0.700078	0.980578
N107	N	0.949118	0.154175	0.519604
N108	N	1.449118	0.654175	1.019604
H109	H	0.181201	0.051085	0.000118
H110	H	0.681201	0.551085	0.500118
N111	N	0.548495	-0.005991	0.000114
N112	N	1.048495	0.494009	0.500114
H113	H	0.489061	0.000520	0.000117
H114	H	0.989061	0.500520	0.500117
H115	H	0.569321	-0.040362	-0.051358
H116	H	1.069321	0.459638	0.448642
N117	N	1.047233	0.055759	0.787192
N118	N	1.547233	0.555759	1.287192
H119	H	1.038926	-0.005196	0.771992
H120	H	1.538926	0.494804	1.271992
H121	H	1.103578	0.068547	0.771952
H122	H	1.603578	0.568547	1.271952
H123	H	0.295666	0.339262	0.000066
H124	H	0.795666	0.839262	0.500066
N125	N	1.055865	0.047078	0.605512
N126	N	1.555865	0.547078	1.105512
H127	H	1.087694	0.015140	0.646462
H128	H	1.587694	0.515140	1.146462
H129	H	1.027570	0.006177	0.569258
H130	H	1.527570	0.506177	1.069258
N131	N	1.013202	-0.275064	-0.145018
N132	N	1.513202	0.224936	0.354982
H133	H	0.977970	-0.238219	-0.178724
H134	H	1.477970	0.261781	0.321276
H135	H	1.059824	-0.242869	-0.127508
H136	H	1.559824	0.257131	0.372492
N137	N	0.853081	-0.384451	-0.145026
N138	N	1.353081	0.115549	0.354974
H139	H	0.797053	-0.360040	-0.144967
H140	H	1.297053	0.139960	0.355033
H141	H	0.883562	-0.367724	-0.196694
H142	H	1.383562	0.132276	0.303306
H143	H	0.840224	0.263494	0.775630
H144	H	1.340224	0.763494	1.275630
H145	H	0.705207	0.027792	0.000086
H146	H	1.205207	0.527792	0.500086
N147	N	1.018305	0.084793	0.394670
N148	N	1.518305	0.584793	0.894670
H149	H	1.054038	0.048955	0.353722
H150	H	1.554038	0.548955	0.853722
H151	H	1.051230	0.121066	0.430908
H152	H	1.551230	0.621066	0.930908
H153	H	0.147286	0.326467	0.000088
H154	H	0.647286	0.826467	0.500088
N155	N	0.834206	0.269486	0.605513
N156	N	1.334206	0.769486	1.105513
H157	H	0.798488	0.305337	0.646463
H158	H	1.298488	0.805337	1.146463
H159	H	0.865938	0.306923	0.569232
H160	H	1.365938	0.806923	1.069232
H161	H	1.012279	0.090773	0.224550
H162	H	1.512279	0.590773	0.724550
N163	N	0.342850	0.044751	0.000099
N164	N	0.842850	0.544751	0.500099
H165	H	0.399450	0.061264	0.000094
H166	H	0.899450	0.561264	0.500094
H167	H	0.330187	0.012829	0.051575
H168	H	0.830187	0.512829	0.551575
N169	N	0.796637	0.307184	0.394665
N170	N	1.296637	0.807184	0.894665
H171	H	0.806389	0.366684	0.379440
H172	H	1.306389	0.866684	0.879440
H173	H	0.741737	0.292940	0.379449
H174	H	1.241737	0.792940	0.879449
N175	N	0.805263	0.298491	0.212980
N176	N	1.305263	0.798491	0.712980
H177	H	0.769542	0.334344	0.253927
H178	H	1.269542	0.834344	0.753927
H179	H	0.837000	0.335925	0.176702
H180	H	1.337000	0.835925	0.676702
H181	H	1.063164	-0.385145	0.000184
H182	H	1.563164	0.114855	0.500184
H183	H	0.850491	-0.364314	0.126426
H184	H	1.350491	0.135686	0.626426
N185	N	0.679639	0.324163	0.000040
N186	N	1.179639	0.824163	0.500040
H187	H	0.635401	0.368935	0.000040
H188	H	1.135401	0.868935	0.500040
H189	H	0.710718	0.332855	0.051512
H190	H	1.210718	0.832855	0.551512
H191	H	0.789404	-0.260406	0.000139
H192	H	1.289404	0.239594	0.500139
N193	N	0.509673	0.309534	0.000137
N194	N	1.009673	0.809534	0.500137
H195	H	0.522256	0.341519	-0.051322
H196	H	1.022256	0.841519	0.448678
H197	H	0.453082	0.292995	0.000202
H198	H	0.953082	0.792995	0.500202
N199	N	0.999343	-0.261430	0.145377
N200	N	1.499343	0.238570	0.645377
H201	H	1.000128	-0.198156	0.144920
H202	H	1.500128	0.301844	0.644920
H203	H	0.968548	-0.277813	0.196980
H204	H	1.468548	0.222187	0.696980
