data_functionalizedCrystal
_audit_creation_method	'MofGen! by Chris Wilmer'
_symmetry_space_group_name_H-M	'P1'
_symmetry_Int_Tables_number	1
_symmetry_cell_setting	triclinic
loop_
_symmetry_equiv_pos_as_xyz
  x,y,z
_cell_length_a	13.033748
_cell_length_b	16.120484
_cell_length_c	16.120704
_cell_angle_alpha	84.364775
_cell_angle_beta	80.339620
_cell_angle_gamma	99.720859
loop_
_atom_site_label
_atom_site_type_symbol
_atom_site_fract_x
_atom_site_fract_y
_atom_site_fract_z
Zn1	Zn	1.564909	-0.189608	0.322636
Zn2	Zn	1.564812	-0.322258	0.189954
Zn3	Zn	1.397248	-0.200418	0.200753
Zn4	Zn	1.378240	-0.349300	0.349569
O5	O	1.476302	-0.265396	0.265728
O6	O	1.713143	-0.191362	0.289245
O7	O	1.550498	-0.299302	0.073578
O8	O	1.427484	-0.081161	0.210169
O9	O	1.713072	-0.288820	0.191764
O10	O	1.550664	-0.073219	0.299716
O11	O	1.427390	-0.209787	0.081512
O12	O	1.246480	-0.236009	0.236284
O13	O	1.395088	-0.334910	0.463805
O14	O	1.232515	-0.345392	0.345619
O15	O	1.532233	-0.217584	0.444017
O16	O	1.532067	-0.443667	0.217880
O17	O	1.394994	-0.463535	0.335148
C18	C	1.201058	-0.294809	0.295047
C19	C	1.083305	-0.307413	0.307611
C20	C	1.037688	-0.258840	0.259193
C21	C	0.915984	-0.271866	0.272177
C22	C	1.461485	-0.484149	0.278280
C23	C	1.455241	-0.577724	0.283668
C24	C	1.443846	-0.749046	0.293521
C25	C	1.508948	-0.780886	0.237929
C26	C	1.502607	-0.876215	0.243411
C27	C	1.450184	-0.653708	0.288040
C28	C	1.752621	-0.235869	0.236295
C29	C	1.870372	-0.223286	0.223753
C30	C	1.461551	-0.278058	0.485311
C31	C	1.455265	-0.283454	0.578885
C32	C	1.491205	-0.045786	0.253142
C33	C	1.497556	0.047799	0.247779
C34	C	1.508812	-0.237612	0.782106
C35	C	1.443755	-0.293274	0.750200
C36	C	1.450161	-0.287808	0.654871
C37	C	1.502407	-0.243077	0.877443
C38	C	1.490993	-0.252810	1.047000
C39	C	1.497298	-0.247436	0.953426
H40	H	1.088736	-0.207614	0.208125
Cl41	Cl	1.004501	-0.386513	0.386449
Cl42	Cl	1.602347	-0.712438	0.158087
H43	H	0.921414	-0.172056	0.172682
H44	H	1.383353	-0.793379	0.345227
Cl45	Cl	1.350335	-0.373188	0.818559
H46	H	0.864941	-0.323100	0.323243
Cl47	Cl	1.602215	-0.157696	0.713748
