data_functionalizedCrystal
_audit_creation_method	'MofGen! by Chris Wilmer'
_symmetry_space_group_name_H-M	'P1'
_symmetry_Int_Tables_number	1
_symmetry_cell_setting	triclinic
loop_
_symmetry_equiv_pos_as_xyz
  x,y,z
_cell_length_a	15.625110
_cell_length_b	23.532357
_cell_length_c	14.185569
_cell_angle_alpha	76.926768
_cell_angle_beta	120.554511
_cell_angle_gamma	83.571146
loop_
_atom_site_label
_atom_site_type_symbol
_atom_site_fract_x
_atom_site_fract_y
_atom_site_fract_z
O1	O	1.290742	0.014665	0.386171
O2	O	1.002309	0.039744	0.281228
O3	O	1.155254	-0.056189	0.336896
O4	O	1.137796	0.110598	0.330503
O5	O	1.200436	-0.084525	0.520176
O6	O	1.047490	0.011407	0.464508
O7	O	1.335923	-0.013671	0.569451
Cu8	Cu	1.195832	-0.003719	0.533714
Cu9	Cu	1.142400	0.029792	0.316965
O10	O	1.182978	0.082261	0.513783
C11	C	0.988006	0.027249	0.359445
C12	C	0.878074	0.032229	0.319449
C13	C	0.698502	0.054693	0.163177
C14	C	0.801803	0.050012	0.200772
C15	C	0.851067	0.019123	0.400579
C16	C	0.747768	0.023804	0.363001
C17	C	0.671493	0.041589	0.244299
C18	C	0.720758	0.010700	0.444122
C19	C	0.617469	0.015378	0.406547
C20	C	0.541189	0.033160	0.287851
C21	C	0.568203	0.046267	0.206724
C22	C	0.797036	-0.007089	0.562824
C23	C	0.770026	-0.020193	0.643946
C24	C	0.666734	-0.015511	0.606371
C25	C	0.590455	0.002271	0.487674
C26	C	0.639720	-0.028618	0.687498
C27	C	0.536431	-0.023940	0.649923
C28	C	0.487165	0.006949	0.450099
C29	C	1.177410	-0.091551	0.428381
C30	C	1.176100	-0.154703	0.427914
C31	C	1.143220	-0.530828	0.324952
C32	C	1.141971	-0.590161	0.324492
O33	O	1.120347	-0.607706	0.239279
N34	N	1.165981	-0.635286	0.424171
C35	C	1.191231	-0.621074	0.524313
O36	O	1.211537	-0.664905	0.609055
C37	C	1.192472	-0.561741	0.524769
C38	C	1.168471	-0.516620	0.425087
C39	C	1.119220	-0.485708	0.225278
C40	C	1.120470	-0.426379	0.225739
C41	C	1.145721	-0.412170	0.325874
C42	C	1.169722	-0.457291	0.425548
C43	C	1.217715	-0.547529	0.624908
C44	C	1.218953	-0.488191	0.625355
C45	C	1.194952	-0.443069	0.525673
C46	C	1.196223	-0.383753	0.526145
N47	N	1.172214	-0.338629	0.426466
C48	C	1.146963	-0.352837	0.326330
C49	C	1.188620	-0.745677	0.523346
C50	C	1.187386	-0.805010	0.522894
C51	C	1.138125	-0.774093	0.323072
C52	C	1.139366	-0.714759	0.323528
C53	C	1.164610	-0.700552	0.423667
C54	C	1.149592	-0.228243	0.327307
C55	C	1.150849	-0.168911	0.327778
C56	C	1.200105	-0.199833	0.527598
C57	C	1.198853	-0.259161	0.527129
C58	C	1.173591	-0.273363	0.426973
O59	O	1.217833	-0.366164	0.611313
O60	O	1.126647	-0.309000	0.241598
C61	C	1.350226	-0.001176	0.491232
C62	C	1.460156	-0.006155	0.531221
C63	C	1.160822	0.117624	0.422296
C64	C	1.162130	0.180777	0.422756
N65	N	1.233421	-0.027290	0.686166
N66	N	1.104819	0.053358	0.164516
C67	C	0.994384	0.122584	0.966813
C68	C	1.022863	0.104733	1.082201
C69	C	1.158324	0.019812	1.131466
C70	C	1.129852	0.037654	1.016079
C71	C	1.047882	0.089041	0.933761
C72	C	1.183351	0.004111	0.983027
C73	C	1.154885	0.021954	0.867652
C74	C	1.072920	0.073340	0.785328
C75	C	1.019416	0.106884	0.818386
C76	C	1.265325	-0.047273	1.065348
C77	C	1.318824	-0.080816	1.032296
C78	C	1.290353	-0.062976	0.916917
C79	C	1.208388	-0.011590	0.834594
C80	C	1.343857	-0.096520	0.883860
C81	C	1.315391	-0.078677	0.768484
C82	C	1.179922	0.006253	0.719219
H83	H	1.129016	-0.239797	0.245749
H84	H	1.206945	-0.841747	0.604071
H85	H	0.952661	0.148724	0.751355
H86	H	1.131306	-0.132174	0.246602
H87	H	1.049747	0.087868	0.691384
N88	N	0.933335	-0.000059	0.528602
H89	H	1.002868	-0.001034	0.540099
H90	H	0.917645	0.029769	0.562591
H91	H	0.514438	-0.034600	0.715979
N92	N	1.091505	0.061676	0.630426
H93	H	1.117274	0.092224	0.596214
H94	H	1.036112	0.049664	0.566773
H95	H	1.098653	-0.497267	0.143729
H96	H	1.239496	-0.476626	0.706897
N97	N	0.852295	-0.039374	0.771969
H98	H	0.921828	-0.040350	0.783466
H99	H	0.836605	-0.009547	0.805959
H100	H	1.220668	-0.188254	0.609127
N101	N	1.224756	-0.307834	0.634645
H102	H	1.240947	-0.289827	0.698151
H103	H	1.163904	-0.325090	0.616466
H104	H	0.701839	-0.043104	0.784145
H105	H	1.100922	-0.389644	0.144566
H106	H	1.209181	-0.734116	0.604898
H107	H	1.119821	-0.678024	0.242357
N108	N	1.407226	-0.136239	1.121091
H109	H	1.391277	-0.172949	1.097022
H110	H	1.472450	-0.130396	1.126505
N111	N	1.110888	-0.789423	0.215064
H112	H	1.113742	-0.833857	0.229907
H113	H	1.038946	-0.764275	0.149173
H114	H	0.636392	0.069183	0.066518
H115	H	0.979292	0.132053	1.109102
N116	N	1.243604	-0.596187	0.732424
H117	H	1.259780	-0.578172	0.795916
H118	H	1.182755	-0.613447	0.714246
H119	H	0.927629	0.164424	0.899783
H120	H	0.506093	0.060756	0.110064
N121	N	1.246735	-0.035608	1.220254
H122	H	1.256654	-0.041822	1.298361
H123	H	1.230732	-0.072285	1.196086
H124	H	1.358956	-0.105991	0.741575
H125	H	0.823785	0.060688	0.134703
H126	H	1.288502	-0.061797	1.159294
N127	N	1.432272	-0.151936	0.972658
H128	H	1.406506	-0.182484	1.006876
H129	H	1.461812	-0.170429	0.934140
N130	N	0.404878	0.026137	0.322072
H131	H	0.403691	0.067826	0.281869
H132	H	0.420513	-0.003709	0.288081
N133	N	0.429784	0.038204	0.247322
H134	H	0.386842	0.081144	0.195977
H135	H	0.403718	0.009614	0.202162
H136	H	0.881139	-0.010897	0.593414
