data_functionalizedCrystal
_audit_creation_method	'MofGen! by Chris Wilmer'
_symmetry_space_group_name_H-M	'P1'
_symmetry_Int_Tables_number	1
_symmetry_cell_setting	triclinic
loop_
_symmetry_equiv_pos_as_xyz
  x,y,z
_cell_length_a	10.654550
_cell_length_b	11.026607
_cell_length_c	9.130313
_cell_angle_alpha	90.000037
_cell_angle_beta	89.996220
_cell_angle_gamma	96.535460
loop_
_atom_site_label
_atom_site_type_symbol
_atom_site_fract_x
_atom_site_fract_y
_atom_site_fract_z
O1	O	1.704901	0.170762	-0.121918
O2	O	1.342954	0.187032	-0.121895
O3	O	1.493930	0.001991	-0.121899
O4	O	1.553926	0.355802	-0.121914
O5	O	1.493929	0.001996	0.121700
O6	O	1.342953	0.187037	0.121704
O7	O	1.704900	0.170767	0.121681
Cu8	Cu	1.523927	0.178902	0.143935
Cu9	Cu	1.523928	0.178896	-0.144149
O10	O	1.553924	0.355807	0.121685
C11	C	1.295897	0.185839	-0.000092
C12	C	1.155677	0.182265	-0.000083
C13	C	1.099841	0.291214	-0.000109
C14	C	0.968090	0.287849	-0.000134
C15	C	0.948022	0.066576	-0.000114
C16	C	1.079771	0.069943	-0.000078
C17	C	1.111426	0.418964	-0.000127
C18	C	0.979675	0.415599	-0.000152
C19	C	1.482861	-0.043310	-0.000101
C20	C	1.449867	-0.178302	-0.000104
C21	C	1.540970	-0.251341	-0.000112
C22	C	1.506871	-0.390862	-0.000115
C23	C	1.751958	0.171959	-0.000125
C24	C	1.892177	0.175533	-0.000144
C25	C	1.564993	0.401109	-0.000116
C26	C	1.597988	0.536100	-0.000123
N27	N	1.523934	0.178906	0.346558
N28	N	1.523928	0.178883	-0.346771
C29	C	1.590814	0.096998	0.423208
C30	C	1.590808	0.096983	0.576544
C31	C	1.457040	0.260795	0.576568
C32	C	1.457040	0.260803	0.423234
C33	C	1.668049	0.002426	0.423195
C34	C	1.668043	0.002411	0.576532
H35	H	1.155912	0.459640	-0.105300
H36	H	1.626321	-0.091025	0.381581
H37	H	1.402568	0.327488	0.360827
H38	H	1.765661	0.032038	0.375630
C39	C	1.600937	-0.116895	0.640771
C40	C	1.649979	-0.239670	0.605348
C41	C	1.582873	-0.358976	0.669580
C42	C	1.466725	-0.355506	0.769235
C43	C	1.417677	-0.232726	0.804663
C44	C	1.484783	-0.113421	0.740431
H45	H	1.735964	-0.242243	0.531572
H46	H	1.619182	-0.449866	0.643353
H47	H	1.417050	-0.443823	0.816784
H48	H	1.331692	-0.230154	0.878438
H49	H	1.448473	-0.022531	0.766657
H50	H	0.886203	-0.024874	-0.000132
H51	H	1.701236	-0.423147	-0.000240
H52	H	1.151603	0.468929	0.101823
H53	H	1.769076	0.023243	0.618141
C54	C	0.929282	0.467751	0.141916
C55	C	1.021840	0.515908	0.263679
C56	C	0.971443	0.568052	0.405746
C57	C	0.828489	0.572040	0.426049
C58	C	0.735922	0.523882	0.304281
C59	C	0.786318	0.471738	0.162215
H60	H	1.127671	0.512957	0.248654
H61	H	1.039968	0.603702	0.495886
H62	H	0.791182	0.610640	0.531215
H63	H	0.630090	0.526833	0.319307
H64	H	0.717794	0.436088	0.072074
C65	C	1.383464	0.350884	0.660914
C66	C	1.383721	0.351091	0.829575
C67	C	1.310145	0.441184	0.913917
C68	C	1.236313	0.531069	0.829598
C69	C	1.236054	0.530865	0.660928
C70	C	1.309630	0.440772	0.576586
H71	H	1.438378	0.284550	0.892002
H72	H	1.310337	0.441335	1.038779
H73	H	1.181847	0.597761	0.892033
H74	H	1.181396	0.597406	0.598502
H75	H	1.309437	0.440621	0.451724
H76	H	0.948391	0.463731	-0.102107
C77	C	1.141188	-0.049904	-0.000031
C78	C	1.228965	-0.078005	0.126500
C79	C	1.290380	-0.197859	0.126550
C80	C	1.264019	-0.289612	0.000071
C81	C	1.176238	-0.261513	-0.126469
C82	C	1.114822	-0.141660	-0.126520
H83	H	1.248483	-0.010082	0.220136
H84	H	1.355362	-0.218658	0.220224
H85	H	1.309482	-0.378334	0.000108
H86	H	1.156719	-0.329436	-0.220106
H87	H	1.049841	-0.120860	-0.220194
H88	H	1.644212	-0.210581	-0.000109
H89	H	1.403623	-0.431617	-0.000118
H90	H	1.346625	-0.219062	-0.000107
