data_functionalizedCrystal
_audit_creation_method	'MofGen! by Chris Wilmer'
_symmetry_space_group_name_H-M	'P1'
_symmetry_Int_Tables_number	1
_symmetry_cell_setting	triclinic
loop_
_symmetry_equiv_pos_as_xyz
  x,y,z
_cell_length_a	10.654550
_cell_length_b	11.026607
_cell_length_c	9.130313
_cell_angle_alpha	90.000037
_cell_angle_beta	89.996220
_cell_angle_gamma	96.535460
loop_
_atom_site_label
_atom_site_type_symbol
_atom_site_fract_x
_atom_site_fract_y
_atom_site_fract_z
O1	O	1.704901	0.170762	-0.121918
O2	O	1.342954	0.187032	-0.121895
O3	O	1.493930	0.001991	-0.121899
O4	O	1.553926	0.355802	-0.121914
O5	O	1.493929	0.001996	0.121700
O6	O	1.342953	0.187037	0.121704
O7	O	1.704900	0.170767	0.121681
Cu8	Cu	1.523927	0.178902	0.143935
Cu9	Cu	1.523928	0.178896	-0.144149
O10	O	1.553924	0.355807	0.121685
C11	C	1.295897	0.185839	-0.000092
C12	C	1.155677	0.182265	-0.000083
C13	C	1.482861	-0.043310	-0.000101
C14	C	1.449867	-0.178302	-0.000104
C15	C	1.099841	0.291214	-0.000109
C16	C	0.968090	0.287849	-0.000134
C17	C	0.948022	0.066576	-0.000114
C18	C	1.079771	0.069943	-0.000078
C19	C	1.111426	0.418964	-0.000127
C20	C	0.979675	0.415599	-0.000152
C21	C	1.540970	-0.251341	-0.000112
C22	C	1.506871	-0.390862	-0.000115
C23	C	1.751958	0.171959	-0.000125
C24	C	1.892177	0.175533	-0.000144
C25	C	1.564993	0.401109	-0.000116
C26	C	1.597988	0.536100	-0.000123
N27	N	1.523934	0.178906	0.346558
N28	N	1.523928	0.178883	-0.346771
C29	C	1.590814	0.096998	0.423208
C30	C	1.590808	0.096983	0.576544
C31	C	1.457040	0.260795	0.576568
C32	C	1.457040	0.260803	0.423234
C33	C	1.668049	0.002426	0.423195
C34	C	1.668043	0.002411	0.576532
H35	H	1.125227	-0.018774	-0.000036
H36	H	1.765661	0.032038	0.375630
C37	C	1.250506	-0.194546	-0.125325
C38	C	1.310490	-0.233315	-0.000103
H39	H	1.164461	-0.228514	-0.125327
H40	H	1.255134	-0.108012	-0.125308
H41	H	1.291232	-0.220839	-0.210266
H42	H	1.269769	-0.207014	0.084838
H43	H	1.305853	-0.319867	-0.000107
H44	H	0.948391	0.463731	-0.102107
H45	H	1.402568	0.327488	0.360827
C46	C	1.360685	-0.573435	-0.000109
C47	C	1.367487	-0.445868	-0.000107
H48	H	1.274637	-0.607391	-0.000096
H49	H	1.401390	-0.599712	-0.085057
H50	H	1.401400	-0.599716	0.084840
H51	H	1.326780	-0.419587	-0.085063
H52	H	1.326765	-0.419580	0.084850
H53	H	1.626321	-0.091025	0.381581
H54	H	1.402575	0.327472	0.639014
H55	H	0.942384	0.454209	0.105015
C56	C	1.744179	-0.281329	-0.000123
C57	C	1.737373	-0.408897	-0.000129
H58	H	1.830228	-0.247376	-0.000118
H59	H	1.703477	-0.255046	-0.085064
H60	H	1.703463	-0.255052	0.084834
H61	H	1.778081	-0.435175	-0.085091
H62	H	1.778092	-0.435190	0.084821
C63	C	1.076567	0.506515	-0.235372
C64	C	1.171495	0.473882	-0.142097
H65	H	1.113655	0.540423	-0.323015
H66	H	1.020004	0.436152	-0.258193
H67	H	1.031678	0.565120	-0.188171
H68	H	1.216379	0.415270	-0.189293
H69	H	1.228080	0.544255	-0.119278
H70	H	1.644212	-0.210581	-0.000109
H71	H	1.769076	0.023243	0.618141
C72	C	0.737148	-0.036836	-0.000159
C73	C	0.864581	-0.056885	-0.000123
H74	H	0.685639	-0.113059	-0.000175
H75	H	0.719666	0.008063	0.084778
H76	H	0.719711	0.008070	-0.085120
H77	H	0.882019	-0.101783	0.084844
H78	H	0.882069	-0.101803	-0.085068
C79	C	1.066799	0.523938	0.220944
C80	C	1.165675	0.486406	0.137500
H81	H	1.100293	0.565564	0.305910
H82	H	1.022101	0.577142	0.164292
H83	H	1.010959	0.454555	0.249240
H84	H	1.221510	0.555790	0.109194
H85	H	1.210394	0.433199	0.194162
C86	C	1.557009	-0.195110	0.526521
C87	C	1.601026	-0.116821	0.640742
H88	H	1.515655	-0.268723	0.566167
H89	H	1.499243	-0.156784	0.467999
H90	H	1.626285	-0.212933	0.467948
H91	H	1.531748	-0.098990	0.699310
H92	H	1.658796	-0.155154	0.699289
