data_functionalizedCrystal
_audit_creation_method	'MofGen! by Chris Wilmer'
_symmetry_space_group_name_H-M	'P1'
_symmetry_Int_Tables_number	1
_symmetry_cell_setting	triclinic
loop_
_symmetry_equiv_pos_as_xyz
  x,y,z
_cell_length_a	19.188930
_cell_length_b	19.188930
_cell_length_c	17.666332
_cell_angle_alpha	90.023234
_cell_angle_beta	89.988397
_cell_angle_gamma	96.855221
loop_
_atom_site_label
_atom_site_type_symbol
_atom_site_fract_x
_atom_site_fract_y
_atom_site_fract_z
O1	O	0.087169	-0.926150	-0.063200
O2	O	0.098903	-0.722838	-0.063149
O3	O	-0.008620	-0.830361	-0.063161
O4	O	0.194692	-0.818627	-0.063188
O5	O	-0.008625	-0.830342	0.062735
O6	O	0.098897	-0.722820	0.062747
O7	O	0.087163	-0.926131	0.062697
Cu8	Cu	0.093030	-0.824473	0.074217
Cu9	Cu	0.093036	-0.824496	-0.074670
O10	O	0.194686	-0.818608	0.062709
C11	C	0.098520	-0.696818	-0.000194
C12	C	0.097380	-0.619313	-0.000174
C13	C	-0.034634	-0.829972	-0.000211
C14	C	-0.112138	-0.828831	-0.000204
C15	C	0.087546	-0.952151	-0.000260
C16	C	0.088687	-1.029656	-0.000285
C17	C	-0.157062	-0.891922	-0.000216
C18	C	-0.229886	-0.890850	-0.000228
C19	C	-0.257782	-0.826684	-0.000212
C20	C	-0.212849	-0.763585	-0.000205
C21	C	-0.140026	-0.764658	-0.000200
N22	N	-0.365789	-0.777630	0.042645
N23	N	-0.434968	-0.776615	0.042642
C24	C	-0.477191	-0.823446	-0.000227
N25	N	-0.447624	-0.871341	-0.043084
N26	N	-0.378439	-0.872359	-0.043079
C27	C	-0.336745	-0.825513	-0.000218
C28	C	-0.601079	-0.885379	-0.000253
C29	C	-0.673904	-0.884305	-0.000270
C30	C	-0.656865	-0.757038	-0.000239
C31	C	-0.584042	-0.758114	-0.000230
C32	C	-0.556154	-0.822287	-0.000233
C33	C	0.220700	-0.818997	-0.000244
C34	C	0.298204	-0.820138	-0.000255
N35	N	0.093025	-0.824463	0.178937
C36	C	0.160470	-0.574389	-0.000194
C37	C	0.159399	-0.501566	-0.000203
C38	C	0.095233	-0.473669	-0.000206
C39	C	0.032133	-0.518603	-0.000181
C40	C	0.033207	-0.591425	-0.000166
N41	N	0.046188	-0.365695	-0.043078
N42	N	0.045172	-0.296517	-0.043095
C43	C	0.091994	-0.254260	-0.000252
N44	N	0.139881	-0.283795	0.042599
N45	N	0.140899	-0.352979	0.042612
C46	C	0.094062	-0.394707	-0.000222
C47	C	0.153928	-0.130372	-0.000280
C48	C	0.152853	-0.057547	-0.000283
C49	C	0.025586	-0.074586	-0.000270
C50	C	0.026662	-0.147409	-0.000258
C51	C	0.090835	-0.175298	-0.000267
N52	N	0.093036	-0.824512	-0.179390
C53	C	0.045437	-0.872089	0.218541
C54	C	0.045433	-0.872093	0.297789
C55	C	0.093030	-0.824478	0.337429
C56	C	0.140621	-0.776842	0.297815
C57	C	0.140619	-0.776835	0.218569
N58	N	0.154837	-0.815401	0.461841
N59	N	0.154837	-0.815413	0.537121
C60	C	0.093040	-0.824496	0.576193
N61	N	0.031239	-0.833582	0.537140
N62	N	0.031240	-0.833574	0.461853
C63	C	0.093038	-0.824480	0.423358
C64	C	0.045444	-0.872130	0.701727
C65	C	0.045440	-0.872129	0.780976
C66	C	0.140634	-0.776881	0.781000
C67	C	0.140632	-0.776878	0.701753
C68	C	0.093038	-0.824506	0.662121
H69	H	-0.134360	-0.944176	-0.000222
H70	H	-0.235567	-0.711340	-0.000194
H71	H	-0.578372	-0.937632	-0.000259
C72	C	-0.464847	-0.703254	-0.000213
C73	C	-0.534656	-0.688762	-0.000211
H74	H	-0.434359	-0.660436	-0.000209
H75	H	-0.456425	-0.729561	0.043683
H76	H	-0.456411	-0.729584	-0.044124
H77	H	-0.543093	-0.662436	0.043703
H78	H	-0.543081	-0.662443	-0.044111
H79	H	-0.679578	-0.704792	-0.000230
H80	H	0.179371	-0.738051	0.186322
C81	C	-0.683427	-1.010209	-0.000279
C82	C	-0.723288	-0.953660	-0.000281
H83	H	-0.713917	-1.053025	-0.000280
H84	H	-0.654661	-1.007993	-0.044176
H85	H	-0.654678	-1.007963	0.043631
H86	H	-0.752034	-0.955903	-0.044193
H87	H	-0.752067	-0.955877	0.043621
C88	C	0.286159	-0.550227	-0.000207
C89	C	0.231008	-0.605043	-0.000191
H90	H	0.329705	-0.569154	-0.000199
H91	H	0.283096	-0.522207	-0.044115
H92	H	0.283084	-0.522151	0.043692
H93	H	0.234080	-0.633116	-0.044093
H94	H	0.234072	-0.633076	0.043721
C95	C	0.212083	-0.234440	-0.000264
C96	C	0.224463	-0.161034	-0.000276
H97	H	0.255630	-0.253366	-0.000264
H98	H	0.186113	-0.249847	0.043638
H99	H	0.186120	-0.249890	-0.044168
H100	H	0.250422	-0.145584	0.043631
H101	H	0.250445	-0.145621	-0.044183
H102	H	0.006684	-0.910910	0.813222
C103	C	-0.100100	-0.098747	-0.000250
C104	C	-0.044948	-0.043932	-0.000269
H105	H	-0.143646	-0.079819	-0.000242
H106	H	-0.097034	-0.126816	-0.044146
H107	H	-0.097030	-0.126774	0.043660
H108	H	-0.048016	-0.015907	-0.044182
H109	H	-0.048016	-0.015851	0.043632
C110	C	-0.075522	-0.913524	0.677262
C111	C	-0.006852	-0.924473	0.658125
H112	H	-0.107799	-0.945836	0.650332
H113	H	-0.082355	-0.920363	0.730114
H114	H	-0.082986	-0.866948	0.664306
H115	H	0.000614	-0.971047	0.671086
H116	H	-0.000015	-0.917639	0.605261
C117	C	0.232009	-0.409817	-0.064959
C118	C	0.228751	-0.452170	-0.000230
H119	H	0.274822	-0.379321	-0.064973
H120	H	0.229786	-0.438606	-0.108846
H121	H	0.193633	-0.382791	-0.064949
H122	H	0.267124	-0.479200	-0.000242
H123	H	0.230981	-0.423377	0.043668
C124	C	0.235691	-0.761434	0.612619
C125	C	0.192952	-0.724534	0.658215
H126	H	0.267989	-0.729115	0.585739
H127	H	0.260731	-0.790415	0.643514
H128	H	0.207336	-0.789788	0.577674
H129	H	0.221307	-0.696184	0.693164
H130	H	0.167911	-0.695541	0.627317
H131	H	0.179374	-0.738072	0.330094
C132	C	-0.028198	-0.266605	-0.000232
C133	C	-0.042689	-0.196796	-0.000247
H134	H	-0.071016	-0.297092	-0.000220
H135	H	-0.001878	-0.275058	-0.044132
H136	H	-0.001880	-0.275008	0.043674
H137	H	-0.069003	-0.188390	-0.044157
H138	H	-0.069020	-0.188339	0.043657
H139	H	0.204232	-0.020970	-0.000295
C140	C	-0.026019	-0.414536	-0.000213
C141	C	-0.038399	-0.487942	-0.000189
H142	H	-0.069566	-0.395609	-0.000221
H143	H	-0.000058	-0.399080	0.043681
H144	H	-0.000047	-0.399135	-0.044125
H145	H	-0.064368	-0.503343	0.043726
H146	H	-0.064372	-0.503404	-0.044088
H147	H	0.006680	-0.910878	0.330041
C148	C	-0.321658	-0.963489	-0.064957
C149	C	-0.279279	-0.960204	-0.000237
H150	H	-0.352146	-1.006307	-0.064962
H151	H	-0.348686	-0.925122	-0.064948
H152	H	-0.292880	-0.961277	-0.108854
H153	H	-0.308056	-0.962411	0.043661
H154	H	-0.252248	-0.998581	-0.000239
H155	H	-0.103448	-0.713281	-0.000190
H156	H	-0.018171	-0.628003	-0.000150
C157	C	0.181932	-0.655894	0.805449
C158	C	0.192952	-0.724538	0.824564
H159	H	0.214228	-0.623579	0.832350
H160	H	0.188745	-0.649080	0.752591
H161	H	0.135350	-0.648468	0.818456
H162	H	0.239533	-0.731966	0.811551
H163	H	0.186145	-0.731355	0.877434
H164	H	0.006681	-0.910869	0.186275
