data_functionalizedCrystal
_audit_creation_method	'MofGen! by Chris Wilmer'
_symmetry_space_group_name_H-M	'P1'
_symmetry_Int_Tables_number	1
_symmetry_cell_setting	triclinic
loop_
_symmetry_equiv_pos_as_xyz
  x,y,z
_cell_length_a	19.121241
_cell_length_b	19.121063
_cell_length_c	18.215399
_cell_angle_alpha	92.409843
_cell_angle_beta	87.536725
_cell_angle_gamma	95.003121
loop_
_atom_site_label
_atom_site_type_symbol
_atom_site_fract_x
_atom_site_fract_y
_atom_site_fract_z
Zn1	Zn	1.063748	-0.234335	-0.474205
Zn2	Zn	1.313748	0.015665	-0.224205
Zn3	Zn	1.563748	0.265665	0.025795
Zn4	Zn	1.813748	0.515665	0.275795
Zn5	Zn	1.058635	-0.352008	-0.356162
Zn6	Zn	1.308635	-0.102008	-0.106162
Zn7	Zn	1.558635	0.147992	0.143838
Zn8	Zn	1.808635	0.397992	0.393838
Zn9	Zn	0.946079	-0.239367	-0.346108
Zn10	Zn	1.196079	0.010633	-0.096108
Zn11	Zn	1.446079	0.260633	0.153892
Zn12	Zn	1.696079	0.510633	0.403892
Zn13	Zn	0.941024	-0.356975	-0.474142
Zn14	Zn	1.191024	-0.106975	-0.224142
Zn15	Zn	1.441024	0.143025	0.025858
Zn16	Zn	1.691024	0.393025	0.275858
O17	O	1.002372	-0.295671	-0.412654
O18	O	1.252372	-0.045671	-0.162654
O19	O	1.502372	0.204329	0.087346
O20	O	1.752372	0.454329	0.337346
O21	O	1.161536	-0.245761	-0.462780
O22	O	1.411536	0.004239	-0.212780
O23	O	1.661536	0.254239	0.037220
O24	O	1.911536	0.504239	0.287220
O25	O	1.043680	-0.337093	-0.251844
O26	O	1.293680	-0.087093	-0.001844
O27	O	1.543680	0.162907	0.248156
O28	O	1.793680	0.412907	0.498156
O29	O	0.965944	-0.140234	-0.358919
O30	O	1.215944	0.109766	-0.108919
O31	O	1.465944	0.359766	0.141081
O32	O	1.715944	0.609766	0.391081
O33	O	1.157779	-0.332214	-0.376054
O34	O	1.407779	-0.082214	-0.126054
O35	O	1.657779	0.167786	0.123946
O36	O	1.907779	0.417786	0.373946
O37	O	1.052395	-0.136537	-0.453031
O38	O	1.302395	0.113463	-0.203031
O39	O	1.552395	0.363463	0.046969
O40	O	1.802395	0.613463	0.296969
O41	O	0.960986	-0.254336	-0.244458
O42	O	1.210986	-0.004336	0.005542
O43	O	1.460986	0.245664	0.255542
O44	O	1.710986	0.495664	0.505542
O45	O	0.846943	-0.259152	-0.358858
O46	O	1.096943	-0.009152	-0.108858
O47	O	1.346943	0.240848	0.141142
O48	O	1.596943	0.490848	0.391142
O49	O	0.957327	-0.340680	-0.577135
O50	O	1.207327	-0.090680	-0.327135
O51	O	1.457327	0.159320	-0.077135
O52	O	1.707327	0.409320	0.172865
O53	O	0.843228	-0.345558	-0.452925
O54	O	1.093228	-0.095558	-0.202925
O55	O	1.343228	0.154442	0.047075
O56	O	1.593228	0.404442	0.297075
O57	O	1.047493	-0.250577	-0.577181
O58	O	1.297493	-0.000577	-0.327181
O59	O	1.547493	0.249423	-0.077181
O60	O	1.797493	0.499423	0.172819
O61	O	1.038778	-0.451133	-0.375993
O62	O	1.288778	-0.201133	-0.125993
O63	O	1.538778	0.048867	0.124007
O64	O	1.788778	0.298867	0.374007
O65	O	0.952369	-0.454782	-0.462673
O66	O	1.202369	-0.204782	-0.212673
O67	O	1.452369	0.045218	0.037327
O68	O	1.702369	0.295218	0.287327
C69	C	0.819555	-0.303441	-0.404794
C70	C	1.069555	-0.053441	-0.154794
C71	C	1.319555	0.196559	0.095206
C72	C	1.569555	0.446559	0.345206
C73	C	0.741344	-0.306782	-0.401450
C74	C	0.991344	-0.056782	-0.151450
C75	C	1.241344	0.193218	0.098550
C76	C	1.491344	0.443218	0.348550
C77	C	0.706554	-0.263411	-0.445107
C78	C	0.956554	-0.013411	-0.195107
C79	C	1.206554	0.236589	0.054893
C80	C	1.456554	0.486589	0.304893
C81	C	0.633067	-0.266546	-0.441958
C82	C	0.883067	-0.016546	-0.191958
C83	C	1.133067	0.233454	0.058042
C84	C	1.383067	0.483454	0.308042
C85	C	0.594371	-0.313057	-0.395155
C86	C	0.844371	-0.063057	-0.145155
C87	C	1.094371	0.186943	0.104845
C88	C	1.344371	0.436943	0.354845
C89	C	0.629166	-0.356429	-0.351493
C90	C	0.879166	-0.106429	-0.101493
C91	C	1.129166	0.143571	0.148507
C92	C	1.379166	0.393571	0.398507
C93	C	0.702652	-0.353290	-0.354639
C94	C	0.952652	-0.103290	-0.104639
C95	C	1.202652	0.146710	0.145361
C96	C	1.452652	0.396710	0.395361
C97	C	0.372393	-0.324782	-0.383392
C98	C	0.622393	-0.074782	-0.133392
C99	C	0.872393	0.175218	0.116608
C100	C	1.122393	0.425218	0.366608
C101	C	0.298902	-0.327919	-0.380251
C102	C	0.548902	-0.077919	-0.130251
C103	C	0.798902	0.172081	0.119749
C104	C	1.048902	0.422081	0.369749
C105	C	0.302808	-0.238035	-0.470715
C106	C	0.552808	0.011965	-0.220715
C107	C	0.802808	0.261965	0.029285
C108	C	1.052808	0.511965	0.279285
C109	C	0.376295	-0.234902	-0.473860
C110	C	0.626295	0.015098	-0.223860
C111	C	0.876295	0.265098	0.026140
C112	C	1.126295	0.515098	0.276140
C113	C	0.411084	-0.278272	-0.430195
C114	C	0.661084	-0.028272	-0.180195
C115	C	0.911084	0.221728	0.069805
C116	C	1.161084	0.471728	0.319805
C117	C	0.519255	-0.316265	-0.391937
C118	C	0.769255	-0.066265	-0.141937
C119	C	1.019255	0.183735	0.108063
C120	C	1.269255	0.433735	0.358063
C121	C	0.486199	-0.275061	-0.433410
C122	C	0.736199	-0.025061	-0.183410
C123	C	0.986199	0.224939	0.066590
C124	C	1.236199	0.474939	0.316590
C125	C	0.994489	-0.478488	-0.420434
C126	C	1.244489	-0.228488	-0.170434
C127	C	1.494489	0.021512	0.079566
C128	C	1.744489	0.271512	0.329566
C129	C	0.991182	-0.556694	-0.423790
C130	C	1.241182	-0.306694	-0.173790
C131	C	1.491182	-0.056694	0.076210
C132	C	1.741182	0.193306	0.326210
C133	C	1.034651	-0.591511	-0.380278
C134	C	1.284651	-0.341511	-0.130278
C135	C	1.534651	-0.091511	0.119722
C136	C	1.784651	0.158489	0.369722
C137	C	1.031545	-0.664995	-0.383438
C138	C	1.281545	-0.414995	-0.133438
C139	C	1.531545	-0.164995	0.116562
C140	C	1.781545	0.085005	0.366562
C141	C	0.984965	-0.703660	-0.430108
C142	C	1.234965	-0.453660	-0.180108
C143	C	1.484965	-0.203660	0.069892
C144	C	1.734965	0.046340	0.319892
C145	C	0.941493	-0.668838	-0.473625
C146	C	1.191493	-0.418838	-0.223625
C147	C	1.441493	-0.168838	0.026375
C148	C	1.691493	0.081162	0.276375
C149	C	0.944604	-0.595356	-0.470468
C150	C	1.194604	-0.345356	-0.220468
C151	C	1.444604	-0.095356	0.029532
C152	C	1.694604	0.154644	0.279532
C153	C	0.973323	-0.925626	-0.441900
C154	C	1.223323	-0.675626	-0.191900
C155	C	1.473323	-0.425626	0.058100
C156	C	1.723323	-0.175626	0.308100
C157	C	0.970214	-0.999113	-0.445052
C158	C	1.220214	-0.749113	-0.195052
C159	C	1.470214	-0.499113	0.054948
C160	C	1.720214	-0.249113	0.304948
C161	C	1.060267	-0.995265	-0.354866
C162	C	1.310267	-0.745265	-0.104866
C163	C	1.560267	-0.495265	0.145134
C164	C	1.810267	-0.245265	0.395134
C165	C	1.063370	-0.921782	-0.351709
C166	C	1.313370	-0.671782	-0.101709
C167	C	1.563370	-0.421782	0.148291
C168	C	1.813370	-0.171782	0.398291
C169	C	1.019902	-0.886966	-0.395229
C170	C	1.269902	-0.636966	-0.145229
C171	C	1.519902	-0.386966	0.104771
C172	C	1.769902	-0.136966	0.354771
C173	C	0.981786	-0.778773	-0.433338
C174	C	1.231786	-0.528773	-0.183338
C175	C	1.481786	-0.278773	0.066662
C176	C	1.731786	-0.028773	0.316662
C177	C	1.023084	-0.811855	-0.392003
C178	C	1.273084	-0.561855	-0.142003
C179	C	1.523084	-0.311855	0.107997
C180	C	1.773084	-0.061855	0.357997
C181	C	1.185902	-0.287872	-0.420545
C182	C	1.435902	-0.037872	-0.170545
C183	C	1.685902	0.212128	0.079455
C184	C	1.935902	0.462128	0.329455
C185	C	1.264112	-0.284549	-0.423908
C186	C	1.514112	-0.034549	-0.173908
C187	C	1.764112	0.215451	0.076092
C188	C	2.014112	0.465451	0.326092
C189	C	1.002416	-0.295621	-0.604607
C190	C	1.252416	-0.045621	-0.354607
C191	C	1.502416	0.204379	-0.104607
C192	C	1.752416	0.454379	0.145393
C193	C	1.002436	-0.295600	-0.686406
C194	C	1.252436	-0.045600	-0.436406
C195	C	1.502436	0.204400	-0.186406
C196	C	1.752436	0.454400	0.063594
C197	C	1.010304	-0.112140	-0.404861
C198	C	1.260304	0.137860	-0.154861
C199	C	1.510304	0.387860	0.095139
C200	C	1.760304	0.637860	0.345139
C201	C	1.013684	-0.033930	-0.401540
C202	C	1.263684	0.216070	-0.151540
C203	C	1.513684	0.466070	0.098460
C204	C	1.763684	0.716070	0.348460
C205	C	1.049403	-0.248640	-0.874624
C206	C	1.299403	0.001360	-0.624624
C207	C	1.549403	0.251360	-0.374624
C208	C	1.799403	0.501360	-0.124624
C209	C	1.049412	-0.248619	-0.951482
C210	C	1.299412	0.001381	-0.701482
C211	C	1.549412	0.251381	-0.451482
C212	C	1.799412	0.501381	-0.201482
C213	C	0.955523	-0.342448	-0.951423
C214	C	1.205523	-0.092448	-0.701423
C215	C	1.455523	0.157552	-0.451423
C216	C	1.705523	0.407552	-0.201423
C217	C	0.955511	-0.342465	-0.874566
C218	C	1.205511	-0.092465	-0.624566
C219	C	1.455511	0.157535	-0.374566
C220	C	1.705511	0.407535	-0.124566
C221	C	1.002455	-0.295562	-0.836169
C222	C	1.252455	-0.045562	-0.586169
C223	C	1.502455	0.204438	-0.336169
C224	C	1.752455	0.454438	-0.086169
C225	C	1.002476	-0.295524	-0.989884
C226	C	1.252476	-0.045524	-0.739884
C227	C	1.502476	0.204476	-0.489884
C228	C	1.752476	0.454476	-0.239884
C229	C	1.002486	-0.295502	-1.073217
C230	C	1.252486	-0.045502	-0.823217
C231	C	1.502486	0.204498	-0.573217
C232	C	1.752486	0.454498	-0.323217
C233	C	1.002444	-0.295583	-0.752830
C234	C	1.252444	-0.045583	-0.502830
C235	C	1.502444	0.204417	-0.252830
C236	C	1.752444	0.454417	-0.002830
C237	C	1.002369	-0.295669	-0.221448
C238	C	1.252369	-0.045669	0.028552
C239	C	1.502369	0.204331	0.278552
C240	C	1.752369	0.454331	0.528552
C241	C	1.002495	-0.295486	-0.139647
C242	C	1.252495	-0.045486	0.110353
C243	C	1.502495	0.204514	0.360353
C244	C	1.752495	0.454514	0.610353
H245	H	0.407797	-0.197031	-0.511974
H246	H	0.657797	0.052969	-0.261974
H247	H	0.907797	0.302969	-0.011974
H248	H	1.157797	0.552969	0.238026
H249	H	0.267398	-0.365797	-0.342138
H250	H	0.517398	-0.115797	-0.092138
H251	H	0.767398	0.134203	0.157862
H252	H	1.017398	0.384203	0.407862
H253	H	0.917305	-0.380636	-0.982696
H254	H	1.167305	-0.130636	-0.732696
H255	H	1.417305	0.119364	-0.482696
H256	H	1.667305	0.369364	-0.232696
H257	H	1.101300	-0.890301	-0.313707
H258	H	1.351300	-0.640301	-0.063707
H259	H	1.601300	-0.390301	0.186293
H260	H	1.851300	-0.140301	0.436293
H261	H	0.932292	-1.030593	-0.483069
H262	H	1.182292	-0.780593	-0.233069
H263	H	1.432292	-0.530593	0.016931
H264	H	1.682292	-0.280593	0.266931
H265	H	0.909208	-0.567009	-0.505901
H266	H	1.159208	-0.317009	-0.255901
H267	H	1.409208	-0.067009	-0.005901
H268	H	1.659208	0.182991	0.244099
H269	H	0.400709	-0.360097	-0.347837
H270	H	0.650709	-0.110097	-0.097837
H271	H	0.900709	0.139903	0.152163
H272	H	1.150709	0.389903	0.402163
H273	H	0.903570	-0.700326	-0.511628
H274	H	1.153570	-0.450326	-0.261628
H275	H	1.403570	-0.200326	-0.011628
H276	H	1.653570	0.049674	0.238372
H277	H	0.917275	-0.380674	-0.843255
H278	H	1.167275	-0.130674	-0.593255
H279	H	1.417275	0.119326	-0.343255
H280	H	1.667275	0.369326	-0.093255
H281	H	0.487741	-0.354134	-0.353830
H282	H	0.737741	-0.104134	-0.103830
H283	H	0.987741	0.145866	0.146170
H284	H	1.237741	0.395866	0.396170
H285	H	0.738055	-0.225539	-0.483221
H286	H	0.988055	0.024461	-0.233221
H287	H	1.238055	0.274461	0.016779
H288	H	1.488055	0.524461	0.266779
H289	H	0.517708	-0.237189	-0.471513
H290	H	0.767708	0.012811	-0.221513
H291	H	1.017708	0.262811	0.028487
H292	H	1.267708	0.512811	0.278487
H293	H	1.072579	-0.560035	-0.342271
H294	H	1.322579	-0.310035	-0.092271
H295	H	1.572579	-0.060035	0.157729
H296	H	1.822579	0.189965	0.407729
H297	H	0.274475	-0.202725	-0.506264
H298	H	0.524475	0.047275	-0.256264
H299	H	0.774475	0.297275	-0.006264
H300	H	1.024475	0.547275	0.243736
H301	H	1.066942	-0.693340	-0.348005
H302	H	1.316942	-0.443340	-0.098005
H303	H	1.566942	-0.193340	0.151995
H304	H	1.816942	0.056660	0.401995
H305	H	0.597654	-0.394296	-0.313382
H306	H	0.847654	-0.144296	-0.063382
H307	H	1.097654	0.105704	0.186618
H308	H	1.347654	0.355704	0.436618
H309	H	0.604744	-0.231231	-0.477510
H310	H	0.854744	0.018769	-0.227510
H311	H	1.104744	0.268769	0.022490
H312	H	1.354744	0.518769	0.272490
H313	H	0.730977	-0.388607	-0.319088
H314	H	0.980977	-0.138607	-0.069088
H315	H	1.230977	0.111393	0.180912
H316	H	1.480977	0.361393	0.430912
H317	H	1.095657	-1.023620	-0.319435
H318	H	1.345657	-0.773620	-0.069435
H319	H	1.595657	-0.523620	0.180565
H320	H	1.845657	-0.273620	0.430565
H321	H	0.937928	-0.897285	-0.477334
H322	H	1.187928	-0.647285	-0.227334
H323	H	1.437928	-0.397285	0.022666
H324	H	1.687928	-0.147285	0.272666
H325	H	1.061012	-0.780371	-0.354007
H326	H	1.311012	-0.530371	-0.104007
H327	H	1.561012	-0.280371	0.145993
H328	H	1.811012	-0.030371	0.395993
H329	H	0.943859	-0.810262	-0.471335
H330	H	1.193859	-0.560262	-0.221335
H331	H	1.443859	-0.310262	0.028665
H332	H	1.693859	-0.060262	0.278665
H333	H	1.087625	-0.210447	-0.843363
H334	H	1.337625	0.039553	-0.593363
H335	H	1.587625	0.289553	-0.343363
H336	H	1.837625	0.539553	-0.093363
H337	H	1.087641	-0.210410	-0.982789
H338	H	1.337641	0.039590	-0.732789
H339	H	1.587641	0.289590	-0.482789
H340	H	1.837641	0.539590	-0.232789
