data_functionalizedCrystal
_audit_creation_method	'MofGen! by Chris Wilmer'
_symmetry_space_group_name_H-M	'P1'
_symmetry_Int_Tables_number	1
_symmetry_cell_setting	triclinic
loop_
_symmetry_equiv_pos_as_xyz
  x,y,z
_cell_length_a	10.489741
_cell_length_b	16.992695
_cell_length_c	16.053802
_cell_angle_alpha	87.245349
_cell_angle_beta	92.592148
_cell_angle_gamma	87.603698
loop_
_atom_site_label
_atom_site_type_symbol
_atom_site_fract_x
_atom_site_fract_y
_atom_site_fract_z
O1	O	0.265579	1.045197	-0.069395
O2	O	0.262609	0.816896	-0.069404
O3	O	0.078948	0.936241	-0.069395
O4	O	0.449240	0.925852	-0.069405
O5	O	0.089013	0.929672	0.069464
O6	O	0.272674	0.810326	0.069454
O7	O	0.275644	1.038628	0.069463
Zn8	Zn	0.275757	0.923434	0.091505
Zn9	Zn	0.262496	0.932089	-0.091446
O10	O	0.459304	0.919282	0.069453
C11	C	0.036381	0.932172	0.000034
C12	C	-0.105453	0.929824	0.000033
C13	C	0.263822	0.784377	0.000024
C14	C	0.252427	0.697268	0.000021
C15	C	0.274430	1.071147	0.000033
C16	C	0.285825	1.158255	0.000031
C17	C	-0.180200	0.853888	0.000023
C18	C	-0.264239	0.886521	0.068489
C19	C	-0.274135	0.893015	-0.068414
C20	C	-0.187620	0.962485	0.068555
C21	C	-0.197512	0.968972	-0.068410
C22	C	-0.281518	1.001659	0.000072
C23	C	0.501872	0.923352	0.000023
C24	C	0.643705	0.925700	0.000019
N25	N	0.284807	0.917533	0.216365
C26	C	0.175876	1.207875	0.000031
C27	C	0.186591	1.289722	0.000034
C28	C	0.307256	1.321948	0.000030
C29	C	0.417214	1.272322	0.000033
C30	C	0.406498	1.190476	0.000036
C31	C	0.351669	1.565797	0.000026
C32	C	0.362376	1.647649	0.000020
C33	C	0.131752	1.665043	0.000023
C34	C	0.121047	1.583195	0.000021
C35	C	0.231005	1.533576	0.000028
N36	N	0.318211	1.405609	0.000031
N37	N	0.220049	1.449917	0.000034
N38	N	0.253437	0.937997	-0.216306
C39	C	0.206690	0.968333	0.260063
C40	C	0.213034	0.964212	0.347470
C41	C	0.297501	0.909294	0.391177
C42	C	0.375620	0.858488	0.347472
C43	C	0.369270	0.862606	0.260068
C44	C	0.325205	0.891308	0.652585
C45	C	0.331553	0.887196	0.739996
C46	C	0.168964	0.992920	0.739987
C47	C	0.162626	0.997036	0.652580
C48	C	0.240741	0.946227	0.608884
N49	N	0.303990	0.905083	0.480520
N50	N	0.234245	0.950435	0.519542
H51	H	-0.135976	0.791451	0.000090
H52	H	0.093846	1.041754	0.616996
H53	H	0.042231	1.705451	0.000019
C54	C	-0.238895	1.024346	0.194907
C55	C	-0.136571	1.002122	0.146784
H56	H	-0.207375	1.048818	0.243199
H57	H	-0.283241	0.978944	0.211263
H58	H	-0.295451	1.060360	0.162896
H59	H	-0.080019	0.966103	0.178793
H60	H	-0.092204	1.047530	0.130429
H61	H	0.137914	1.013056	0.224483
H62	H	-0.312091	0.863614	-0.126302
C63	C	-0.252792	0.762082	0.146499
C64	C	-0.304226	0.839453	0.146624
H65	H	-0.277482	0.733022	0.194732
H66	H	-0.162283	0.762833	0.146808
H67	H	-0.283747	0.737916	0.097877
H68	H	-0.273263	0.863621	0.195244
H69	H	-0.394753	0.838705	0.146323
H70	H	-0.167870	1.003814	-0.126294
H71	H	-0.325502	1.064148	0.000113
H72	H	0.496031	1.150076	0.000039
H73	H	0.077617	1.181644	0.000029
C74	C	0.510645	0.866503	0.838267
C75	C	0.424405	0.826821	0.788035
H76	H	0.567969	0.829231	0.867919
H77	H	0.465035	0.896164	0.876800
H78	H	0.557431	0.901018	0.804146
H79	H	0.377611	0.792311	0.822156
H80	H	0.470019	0.797147	0.749497
C81	C	0.051723	1.069149	0.338682
C82	C	0.127186	1.020067	0.395502
H83	H	-0.001267	1.103637	0.368337
H84	H	-0.000034	1.037847	0.304608
H85	H	0.105298	1.099259	0.304574
H86	H	0.073611	0.989952	0.429606
H87	H	0.178949	1.051372	0.429590
H88	H	0.105365	1.034285	0.775573
C89	C	-0.042443	1.298695	0.000028
C90	C	0.065730	1.344264	0.000032
H91	H	-0.117059	1.332369	0.000024
H92	H	-0.038319	1.264122	0.048447
H93	H	-0.045322	1.268698	-0.048399
H94	H	0.068615	1.374257	0.048463
H95	H	0.061605	1.378850	-0.048392
C96	C	-0.105838	1.608613	0.000043
C97	C	-0.011592	1.547775	0.000036
H98	H	-0.187722	1.586743	0.000056
H99	H	-0.100380	1.642458	-0.048380
H100	H	-0.093338	1.637888	0.048466
H101	H	-0.024086	1.518503	-0.048391
H102	H	-0.017053	1.513916	0.048464
C103	C	0.486564	0.786401	0.661385
C104	C	0.411079	0.835466	0.604561
H105	H	0.539587	0.751929	0.631733
H106	H	0.433013	0.756279	0.695486
H107	H	0.538301	0.817721	0.695465
H108	H	0.359334	0.804146	0.570485
H109	H	0.464636	0.865590	0.570445
C110	C	0.589274	1.622237	0.000032
C111	C	0.495022	1.683073	0.000022
H112	H	0.671158	1.644109	0.000037
H113	H	0.576799	1.592962	-0.048385
H114	H	0.583798	1.588390	0.048462
H115	H	0.500492	1.716917	-0.048411
H116	H	0.507501	1.712361	0.048444
C117	C	0.457559	0.805239	0.481460
C118	C	0.468472	0.798123	0.395513
H119	H	0.514893	0.767975	0.511115
H120	H	0.372560	0.795563	0.495793
H121	H	0.477848	0.857004	0.495761
H122	H	0.448175	0.746359	0.381211
H123	H	0.553491	0.807793	0.381175
C124	C	0.437658	1.432616	0.000024
C125	C	0.472532	1.511262	0.000018
H126	H	0.512280	1.398948	0.000021
H127	H	0.385016	1.425069	-0.048391
H128	H	0.392045	1.420494	0.048456
H129	H	0.518137	1.523387	-0.048417
H130	H	0.525195	1.518813	0.048438
C131	C	0.557885	1.357639	-0.071357
C132	C	0.549853	1.307742	0.000029
H133	H	0.639776	1.379500	-0.071361
H134	H	0.493945	1.398901	-0.071352
H135	H	0.545402	1.328349	-0.119772
H136	H	0.562327	1.337033	0.048444
H137	H	0.613812	1.266474	0.000032
C138	C	0.530631	0.757698	0.268850
C139	C	0.455144	0.806768	0.212031
H140	H	0.583649	0.723227	0.239193
H141	H	0.477081	0.727575	0.302950
H142	H	0.582372	0.789014	0.302931
H143	H	0.403395	0.775452	0.177954
H144	H	0.508699	0.836894	0.177916
