data_functionalizedCrystal
_audit_creation_method	'MofGen! by Chris Wilmer'
_symmetry_space_group_name_H-M	'P1'
_symmetry_Int_Tables_number	1
_symmetry_cell_setting	triclinic
loop_
_symmetry_equiv_pos_as_xyz
  x,y,z
_cell_length_a	14.395555
_cell_length_b	14.395555
_cell_length_c	14.560438
_cell_angle_alpha	60.000323
_cell_angle_beta	89.999508
_cell_angle_gamma	59.998346
loop_
_atom_site_label
_atom_site_type_symbol
_atom_site_fract_x
_atom_site_fract_y
_atom_site_fract_z
Zr1	Zr	0.894811	1.016872	-0.120545
O2	O	0.746475	1.210671	-0.267189
O3	O	0.940292	0.823071	-0.075590
O4	O	0.940280	1.016877	-0.267194
O5	O	0.746487	1.016862	0.075555
O6	O	1.093147	1.016884	-0.267198
O7	O	0.746487	1.016865	-0.075586
O8	O	1.093169	0.670200	0.075546
O9	O	0.746465	1.363546	-0.267189
O10	O	1.073762	0.902790	-0.056420
O11	O	0.959679	0.902783	0.056377
O12	O	0.959665	1.130965	-0.169212
O13	O	0.845582	1.130958	-0.056415
Zr14	Zr	1.138616	1.016879	0.120502
Zr15	Zr	1.138616	1.016883	-0.120550
Zr16	Zr	0.894811	1.016868	0.120508
Zr17	Zr	0.894795	1.260691	-0.120544
Zr18	Zr	1.138632	0.773061	0.120501
O19	O	1.093135	1.210681	0.075548
O20	O	1.093135	1.210687	-0.267197
O21	O	0.746475	1.210665	0.075556
O22	O	1.286952	0.823080	0.267147
O23	O	1.286952	0.823086	-0.075599
O24	O	0.940292	0.823065	0.267155
O25	O	1.286940	1.016889	-0.075598
O26	O	1.093147	1.016875	0.267152
O27	O	0.940280	1.016868	0.267155
O28	O	1.286940	1.016887	0.075543
O29	O	0.940258	1.363555	-0.267194
O30	O	1.093169	0.670196	0.267151
O31	O	1.286962	0.670205	0.267146
O32	O	1.286962	0.670208	0.075542
O33	O	0.746465	1.363543	-0.075585
O34	O	0.940258	1.363552	-0.075589
O35	O	1.073762	0.902786	0.169169
O36	O	1.187845	0.902794	0.056372
O37	O	1.073748	1.130968	-0.056420
O38	O	0.959665	1.130961	0.056378
C39	C	1.016732	0.711896	-0.000022
C40	C	1.016739	0.608389	-0.000022
C41	C	1.078917	0.485908	-0.061527
C42	C	0.971659	0.624031	-0.106107
C43	C	1.123976	0.471677	0.044507
C44	C	0.909367	0.562186	-0.044663
C45	C	1.061762	0.409758	0.106010
C46	C	0.954440	0.547872	0.061456
C47	C	0.711750	1.016862	-0.000014
C48	C	0.608248	1.016857	-0.000012
C49	C	0.609870	0.892446	0.061485
C50	C	0.516851	0.954639	0.106061
C51	C	0.516839	0.954670	-0.044556
C52	C	0.516592	1.079050	0.044626
C53	C	0.516595	1.079064	-0.106050
C54	C	0.423558	1.141347	-0.061500
C55	C	1.321677	1.016890	-0.000029
C56	C	1.425179	1.016894	-0.000031
C57	C	1.016713	1.016881	-0.301541
C58	C	1.016713	1.016883	-0.403874
C59	C	1.016695	1.321855	-0.000021
C60	C	1.016688	1.425363	-0.000021
C61	C	0.957151	1.135986	-0.510826
C62	C	0.957154	1.135979	-0.606975
C63	C	1.076284	0.897757	-0.489205
C64	C	1.076286	0.897765	-0.393059
C65	C	0.897578	1.255104	-0.521641
C66	C	0.838010	1.374216	-0.628598
C67	C	0.838013	1.374210	-0.724747
C68	C	0.897585	1.255091	-0.713939
C69	C	1.016714	1.016871	0.301498
C70	C	1.016714	1.016869	0.403831
C71	C	1.321696	0.711910	-0.000029
C72	C	1.425204	0.608407	-0.000032
C73	C	1.016733	0.711891	0.301497
C74	C	1.016739	0.608382	0.403830
C75	C	1.321696	0.711905	0.301490
C76	C	1.425205	0.608400	0.403821
C77	C	0.711731	1.321847	-0.301533
C78	C	0.608222	1.425351	-0.403863
C79	C	0.711731	1.321842	-0.000014
C80	C	0.608223	1.425344	-0.000011
C81	C	1.016694	1.321861	-0.301540
C82	C	1.016688	1.425370	-0.403873
C83	C	1.414285	0.559776	-0.058906
C84	C	1.511546	0.462532	-0.058912
C85	C	1.630642	0.462555	0.058839
C86	C	1.533382	0.559804	0.058838
C87	C	1.306108	0.608380	-0.117776
C88	C	1.295184	0.559748	-0.176653
C89	C	1.392445	0.462504	-0.176659
C90	C	1.500630	0.413892	-0.117788
C91	C	1.076294	0.559750	0.510783
C92	C	1.076291	0.462497	0.606931
C93	C	0.957177	0.462514	0.489161
C94	C	0.957174	0.559771	0.393015
C95	C	1.135860	0.608361	0.521598
C96	C	1.195421	0.559728	0.628555
C97	C	1.195418	0.462475	0.724704
C98	C	1.135854	0.413856	0.713895
C99	C	1.533383	0.559773	0.393020
C100	C	1.630636	0.462526	0.489174
C101	C	1.511518	0.462538	0.606927
C102	C	1.414268	0.559790	0.510774
C103	C	1.544320	0.608384	0.286067
C104	C	1.652504	0.559755	0.275261
C105	C	1.749757	0.462508	0.371415
C106	C	1.738826	0.413890	0.478375
H107	H	0.818614	0.599589	-0.082430
H108	H	1.718730	0.422966	0.106771
Br109	Br	1.135837	0.281883	0.844385
H110	H	0.689632	0.787245	0.113560
H111	H	1.099895	0.318121	0.195661
Br112	Br	0.517954	1.166628	0.107573
Br113	Br	1.148371	0.625733	-0.256562
Br114	Br	0.515322	0.866998	-0.107334
Br115	Br	0.757186	1.535858	-0.869899
Br116	Br	1.548195	0.625819	0.138730
H117	H	1.214688	0.434463	0.082167
Br118	Br	0.897606	1.255086	-0.844429
Br119	Br	0.866791	0.592317	0.148475
Br120	Br	1.377621	0.396518	-0.256576
Br121	Br	1.157121	0.736107	-0.474542
Br122	Br	0.897563	1.255119	-0.391157
Br123	Br	0.518207	1.166632	-0.255472
H124	H	1.124785	0.800781	-0.305972
H125	H	1.579822	0.334714	-0.117803
H126	H	0.515927	0.902057	0.195729
Br127	Br	1.174108	0.740341	-0.117758
H128	H	1.818021	0.334713	0.556665
H129	H	1.243906	0.422890	0.811788
Br130	Br	0.757183	1.535869	-0.643266
Br131	Br	1.135872	0.740341	0.391114
Br132	Br	1.276236	0.625725	0.643223
H133	H	0.908684	0.422918	0.480371
H134	H	0.908681	0.599366	0.305928
H135	H	1.465139	0.687564	0.207767
Br136	Br	0.908132	0.776724	-0.255567
H137	H	1.661397	0.599353	0.188171
H138	H	0.343923	1.246634	-0.113502
Br139	Br	1.896574	0.396528	0.356751
Br140	Br	1.496689	0.396555	0.752080
H141	H	1.131431	0.458798	-0.113601
Br142	Br	1.267446	0.625798	0.525427
