data_functionalizedCrystal
_audit_creation_method	'MofGen! by Chris Wilmer'
_symmetry_space_group_name_H-M	'P1'
_symmetry_Int_Tables_number	1
_symmetry_cell_setting	triclinic
loop_
_symmetry_equiv_pos_as_xyz
  x,y,z
_cell_length_a	19.188905
_cell_length_b	9.730223
_cell_length_c	10.654550
_cell_angle_alpha	89.993925
_cell_angle_beta	96.190257
_cell_angle_gamma	90.011412
loop_
_atom_site_label
_atom_site_type_symbol
_atom_site_fract_x
_atom_site_fract_y
_atom_site_fract_z
O1	O	0.927180	0.114516	-0.156633
O2	O	0.724004	0.114469	-0.177771
O3	O	0.830264	0.114485	0.015637
O4	O	0.820921	0.114500	-0.350041
O5	O	0.830255	-0.114095	0.015648
O6	O	0.723996	-0.114111	-0.177759
O7	O	0.927171	-0.114064	-0.156621
Zn8	Zn	0.825582	-0.150379	-0.167189
Zn9	Zn	0.825594	0.150785	-0.167204
O10	O	0.820912	-0.114080	-0.350029
C11	C	0.697984	0.000173	-0.177086
C12	C	0.620466	0.000155	-0.175047
N13	N	0.825580	-0.355916	-0.167177
C14	C	0.782887	-0.571792	-0.091228
C15	C	0.782877	-0.427909	-0.091211
C16	C	0.868299	-0.427812	-0.243157
C17	C	0.868312	-0.571693	-0.243167
C18	C	0.584072	0.124758	-0.174074
C19	C	0.511236	0.124775	-0.172144
C20	C	0.474798	0.000182	-0.171162
C21	C	0.511200	-0.124437	-0.172142
C22	C	0.584033	-0.124450	-0.174085
N23	N	0.365287	-0.092543	-0.096643
N24	N	0.296097	-0.092522	-0.094795
C25	C	0.255353	0.000215	-0.165311
N26	N	0.286412	0.092951	-0.237730
N27	N	0.355608	0.092934	-0.239572
C28	C	0.395821	0.000183	-0.169056
C29	C	0.139982	0.124845	-0.162247
C30	C	0.067144	0.124856	-0.160325
C31	C	0.067109	-0.124359	-0.160311
C32	C	0.139945	-0.124367	-0.162246
C33	C	0.176377	0.000238	-0.163208
C34	C	0.953191	0.000235	-0.157306
C35	C	1.030710	0.000262	-0.159345
C36	C	0.829573	0.000196	0.062426
C37	C	0.827521	0.000197	0.201826
N38	N	0.825602	0.356321	-0.167205
C39	C	0.821603	0.000213	-0.396818
C40	C	0.823655	0.000220	-0.536218
C41	C	0.890085	0.000212	0.282645
C42	C	0.888152	0.000229	0.413625
C43	C	0.761086	0.000209	0.382952
C44	C	0.763020	0.000203	0.251975
H45	H	0.748110	-0.630399	-0.029374
H46	H	0.748096	-0.369385	-0.029342
O47	O	0.475896	-0.245554	-0.171018
C48	C	0.501065	-0.321350	-0.062739
H49	H	0.556418	-0.285932	-0.027904
H50	H	0.501877	-0.435339	-0.087256
H51	H	0.465254	-0.304073	0.014498
H52	H	0.169645	0.226306	-0.163044
H53	H	0.903072	-0.369184	-0.305004
H54	H	0.903099	-0.630224	-0.305037
O55	O	0.475810	0.245734	-0.171021
C56	C	0.441090	0.253194	-0.061143
H57	H	0.432629	0.145005	-0.024606
H58	H	0.388218	0.305941	-0.084226
H59	H	0.474347	0.314667	0.014250
H60	H	0.613731	0.226221	-0.174857
O61	O	0.619478	-0.245408	-0.174853
C62	C	0.668983	-0.252888	-0.067219
H63	H	0.682372	-0.144706	-0.031264
H64	H	0.718532	-0.305631	-0.093030
H65	H	0.646078	-0.314375	0.009671
O66	O	0.175407	-0.245285	-0.163229
C67	C	0.247508	-0.218581	-0.165117
H68	H	0.254769	-0.111499	-0.205142
H69	H	0.271036	-0.298167	-0.226797
H70	H	0.275021	-0.224486	-0.064941
H71	H	0.939098	0.000244	0.479424
O72	O	0.031900	0.246025	-0.159326
C73	C	0.079676	0.355993	-0.160621
H74	H	0.134291	0.319449	-0.122255
H75	H	0.062788	0.443134	-0.099102
H76	H	0.080583	0.394321	-0.261549
O77	O	0.031709	-0.245357	-0.159127
C78	C	-0.003043	-0.252793	-0.049282
H79	H	0.024081	-0.182082	0.026125
H80	H	-0.001399	-0.362996	-0.012748
H81	H	-0.059910	-0.219315	-0.072396
H82	H	0.942605	0.000211	0.241818
O83	O	0.698493	0.000141	0.431880
C84	C	0.710201	0.000179	0.564815
H85	H	0.764535	-0.043083	0.595888
H86	H	0.668889	-0.066192	0.604805
H87	H	0.706645	0.109840	0.601245
O88	O	0.702176	0.000126	0.173637
C89	C	0.644831	0.000156	0.245983
H90	H	0.662072	-0.043115	0.343849
H91	H	0.600953	-0.066213	0.197415
H92	H	0.625098	0.109815	0.255183
