data_functionalizedCrystal
_audit_creation_method	'MofGen! by Chris Wilmer'
_symmetry_space_group_name_H-M	'P1'
_symmetry_Int_Tables_number	1
_symmetry_cell_setting	triclinic
loop_
_symmetry_equiv_pos_as_xyz
  x,y,z
_cell_length_a	19.188931
_cell_length_b	19.188930
_cell_length_c	17.666332
_cell_angle_alpha	90.011603
_cell_angle_beta	89.992176
_cell_angle_gamma	96.855219
loop_
_atom_site_label
_atom_site_type_symbol
_atom_site_fract_x
_atom_site_fract_y
_atom_site_fract_z
O1	O	0.926150	-0.087169	-0.062930
O2	O	1.426150	0.412831	0.437070
O3	O	0.722838	-0.098903	-0.062938
O4	O	1.222838	0.401097	0.437062
O5	O	0.830361	0.008620	-0.062919
O6	O	1.330361	0.508620	0.437081
O7	O	0.818627	-0.194692	-0.062949
O8	O	1.318627	0.305308	0.437051
O9	O	0.830342	0.008625	0.062978
O10	O	1.330342	0.508625	0.562978
O11	O	0.722819	-0.098897	0.062959
O12	O	1.222819	0.401103	0.562959
O13	O	0.926131	-0.087163	0.062967
O14	O	1.426131	0.412837	0.562967
Cu15	Cu	0.824473	-0.093030	0.074458
Cu16	Cu	1.324473	0.406970	0.574458
Cu17	Cu	0.824496	-0.093036	-0.074429
Cu18	Cu	1.324496	0.406964	0.425571
O19	O	0.818608	-0.194686	0.062948
O20	O	1.318608	0.305314	0.562948
C21	C	0.696818	-0.098520	0.000009
C22	C	1.196818	0.401480	0.500009
C23	C	0.619313	-0.097380	0.000007
C24	C	1.119313	0.402620	0.500007
C25	C	0.829972	0.034634	0.000032
C26	C	1.329972	0.534634	0.500032
C27	C	0.828831	0.112138	0.000038
C28	C	1.328831	0.612138	0.500038
C29	C	0.952151	-0.087546	0.000018
C30	C	1.452151	0.412454	0.500018
C31	C	1.029656	-0.088687	0.000016
C32	C	1.529656	0.411313	0.500016
C33	C	1.074580	-0.025596	0.000019
C34	C	1.574580	0.474404	0.500019
C35	C	1.147403	-0.026667	0.000023
C36	C	1.647403	0.473333	0.500023
C37	C	1.175300	-0.090834	0.000009
C38	C	1.675300	0.409166	0.500009
C39	C	1.130366	-0.153933	0.000011
C40	C	1.630366	0.346067	0.500011
C41	C	1.057544	-0.152859	0.000014
C42	C	1.557544	0.347141	0.500014
N43	N	1.283301	-0.139883	-0.042856
N44	N	1.783301	0.360117	0.457144
N45	N	1.352480	-0.140898	-0.042860
N46	N	1.852480	0.359102	0.457140
C47	C	1.394709	-0.094072	0.000001
C48	C	1.894709	0.405928	0.500001
N49	N	1.365147	-0.046181	0.042858
N50	N	1.865147	0.453819	0.542858
N51	N	1.295962	-0.045163	0.042859
N52	N	1.795962	0.454837	0.542859
C53	C	1.254262	-0.092005	0.000006
C54	C	1.754262	0.407995	0.500006
C55	C	1.518597	-0.032139	0.000010
C56	C	2.018597	0.467861	0.500010
C57	C	1.591422	-0.033213	0.000019
C58	C	2.091422	0.466787	0.500019
C59	C	1.574383	-0.160480	-0.000001
C60	C	2.074383	0.339520	0.499999
C61	C	1.501560	-0.159404	-0.000002
C62	C	2.001560	0.340596	0.499998
C63	C	1.473671	-0.095231	-0.000000
C64	C	1.973671	0.404769	0.500000
C65	C	0.818997	-0.220700	-0.000004
C66	C	1.318997	0.279300	0.499996
C67	C	0.820138	-0.298204	-0.000016
C68	C	1.320138	0.201796	0.499984
N69	N	0.824463	-0.093025	0.179178
N70	N	1.324463	0.406975	0.679178
C71	C	0.891922	0.157062	0.000044
C72	C	1.391922	0.657062	0.500044
C73	C	0.890850	0.229886	0.000032
C74	C	1.390850	0.729886	0.500032
C75	C	0.826684	0.257782	0.000029
C76	C	1.326684	0.757782	0.500029
C77	C	0.763585	0.212849	0.000018
C78	C	1.263585	0.712849	0.500018
C79	C	0.764658	0.140026	0.000023
C80	C	1.264658	0.640026	0.500023
N81	N	0.777630	0.365789	0.042872
N82	N	1.277630	0.865789	0.542872
N83	N	0.776615	0.434968	0.042869
N84	N	1.276615	0.934968	0.542869
C85	C	0.823446	0.477191	0.000014
C86	C	1.323446	0.977191	0.500014
N87	N	0.871341	0.447624	-0.042830
N88	N	1.371341	0.947624	0.457170
N89	N	0.872359	0.378439	-0.042824
N90	N	1.372359	0.878439	0.457176
C91	C	0.825513	0.336745	0.000024
C92	C	1.325513	0.836745	0.500024
C93	C	0.885379	0.601079	0.000006
C94	C	1.385379	1.101079	0.500006
C95	C	0.884305	0.673904	-0.000011
C96	C	1.384305	1.173904	0.499989
C97	C	0.757038	0.656865	-0.000017
C98	C	1.257038	1.156865	0.499983
C99	C	0.758114	0.584042	-0.000008
C100	C	1.258114	1.084042	0.499992
C101	C	0.822286	0.556154	0.000007
C102	C	1.322286	1.056154	0.500007
N103	N	0.824512	-0.093036	-0.179149
N104	N	1.324512	0.406964	0.320851
C105	C	0.872089	-0.045437	0.218796
C106	C	1.372089	0.454563	0.718796
C107	C	0.872093	-0.045433	0.298044
C108	C	1.372093	0.454567	0.798044
C109	C	0.824478	-0.093030	0.337670
C110	C	1.324478	0.406970	0.837670
C111	C	0.776842	-0.140621	0.298042
C112	C	1.276842	0.359379	0.798042
C113	C	0.776835	-0.140619	0.218796
C114	C	1.276835	0.359381	0.718796
N115	N	0.815401	-0.154837	0.462079
N116	N	1.315401	0.345163	0.962079
N117	N	0.815413	-0.154837	0.537360
N118	N	1.315413	0.345163	1.037360
C119	C	0.824496	-0.093040	0.576434
C120	C	1.324496	0.406960	1.076434
N121	N	0.833582	-0.031239	0.537384
N122	N	1.333582	0.468761	1.037384
N123	N	0.833574	-0.031240	0.462096
N124	N	1.333574	0.468760	0.962096
C125	C	0.824480	-0.093038	0.423599
C126	C	1.324480	0.406962	0.923599
C127	C	0.872129	-0.045444	0.701981
C128	C	1.372129	0.454556	1.201981
C129	C	0.872129	-0.045440	0.781231
C130	C	1.372129	0.454560	1.281231
C131	C	0.776881	-0.140634	0.781227
C132	C	1.276881	0.359366	1.281227
C133	C	0.776878	-0.140632	0.701980
C134	C	1.276878	0.359368	1.201980
C135	C	0.824506	-0.093038	0.662362
C136	C	1.324506	0.406962	1.162362
H137	H	1.183987	0.024710	0.000023
H138	H	1.683987	0.524710	0.500023
C139	C	1.640842	0.036189	0.000022
C140	C	2.140842	0.536189	0.500022
H141	H	1.688207	0.026360	0.000029
H142	H	2.188207	0.526360	0.500029
H143	H	1.632413	0.062504	-0.043879
H144	H	2.132413	0.562504	0.456121
H145	H	1.632402	0.062515	0.043932
H146	H	2.132402	0.562515	0.543932
C147	C	0.953708	0.723321	-0.000003
C148	C	1.453708	1.223321	0.499997
H149	H	0.992078	0.696279	0.000014
H150	H	1.492078	1.196279	0.500014
H151	H	0.955948	0.752074	-0.043908
H152	H	1.455948	1.252074	0.456092
H153	H	0.955922	0.752092	0.043904
H154	H	1.455922	1.252092	0.543904
C155	C	0.960251	0.279314	0.000044
C156	C	1.460251	0.779314	0.500044
H157	H	0.950419	0.326678	0.000036
H158	H	1.450419	0.826678	0.500036
H159	H	0.986561	0.270889	0.043952
H160	H	1.486561	0.770889	0.543952
H161	H	0.986583	0.270874	-0.043859
H162	H	1.486583	0.770874	0.456141
C163	C	0.962507	0.126385	0.000058
C164	C	1.462507	0.626385	0.500058
H165	H	0.954112	0.076580	0.000067
H166	H	1.454112	0.576580	0.500067
H167	H	0.988487	0.141810	-0.043841
H168	H	1.488487	0.641810	0.456159
H169	H	0.988463	0.141830	0.043971
H170	H	1.488463	0.641830	0.543971
H171	H	0.706738	0.547464	-0.000009
H172	H	1.206738	1.047464	0.499991
C173	C	0.924522	0.006908	0.824811
C174	C	1.424522	0.506908	1.324811
H175	H	0.952889	0.035247	0.789863
H176	H	1.452889	0.535247	1.289863
H177	H	0.899505	0.035915	0.855739
H178	H	1.399505	0.535915	1.355739
H179	H	0.953507	-0.018146	0.855710
H180	H	1.453507	0.481854	1.355710
H181	H	0.738109	-0.179385	0.813490
H182	H	1.238109	0.320615	1.313490
C183	C	0.924486	0.006911	0.341637
C184	C	1.424486	0.506911	0.841637
H185	H	0.917665	0.000094	0.394507
H186	H	1.417665	0.500094	0.894507
H187	H	0.971055	-0.000560	0.328635
H188	H	1.471055	0.499440	0.828635
H189	H	0.917049	0.053496	0.328668
H190	H	1.417049	0.553496	0.828668
H191	H	0.910909	-0.006688	0.669723
H192	H	1.410909	0.493312	1.169723
H193	H	0.704792	0.679578	-0.000024
H194	H	1.204792	1.179578	0.499976
H195	H	0.738072	-0.179374	0.330310
H196	H	1.238072	0.320626	0.830310
H197	H	0.711340	0.235567	0.000014
H198	H	1.211340	0.735567	0.500014
H199	H	1.051878	0.026658	0.000023
H200	H	1.551878	0.526658	0.500023
H201	H	0.713280	0.103449	0.000018
H202	H	1.213280	0.603449	0.500018
H203	H	1.495889	0.020115	0.000015
H204	H	1.995889	0.520115	0.500015
C205	C	1.008123	-0.222260	0.000005
C206	C	1.508123	0.277740	0.500005
H207	H	0.960758	-0.212430	0.000011
H208	H	1.460758	0.287570	0.500011
H209	H	1.016563	-0.248585	-0.043901
H210	H	1.516563	0.251415	0.456099
H211	H	1.016550	-0.248578	0.043910
H212	H	1.516550	0.251422	0.543910
C213	C	0.955964	0.570399	0.000014
C214	C	1.455964	1.070399	0.500014
H215	H	0.993387	0.607587	0.000004
H216	H	1.493387	1.107587	0.500004
H217	H	0.959023	0.542357	0.043920
H218	H	1.459023	1.042357	0.543920
H219	H	0.959033	0.542334	-0.043892
H220	H	1.459033	1.042334	0.456108
H221	H	0.738099	-0.179386	0.669720
H222	H	1.238099	0.320614	1.169720
H223	H	1.153084	-0.206177	0.000002
H224	H	1.653084	0.293823	0.500002
C225	C	0.724449	-0.192973	0.175214
C226	C	1.224449	0.307027	0.675214
H227	H	0.696092	-0.221323	0.210161
H228	H	1.196092	0.278677	0.710161
H229	H	0.695463	-0.167929	0.144310
H230	H	1.195463	0.332071	0.644310
H231	H	0.749478	-0.221977	0.144291
H232	H	1.249478	0.278023	0.644291
H233	H	1.464981	-0.210779	-0.000009
H234	H	1.964981	0.289221	0.499991
C235	C	1.605057	-0.231063	-0.000012
C236	C	2.105057	0.268937	0.499988
H237	H	1.567868	-0.268486	-0.000010
H238	H	2.067868	0.231514	0.499990
H239	H	1.633117	-0.234132	-0.043914
H240	H	2.133117	0.265868	0.456086
H241	H	1.633104	-0.234123	0.043898
H242	H	2.133104	0.265877	0.543898
C243	C	0.924470	0.006922	0.175220
C244	C	1.424470	0.506922	0.675220
H245	H	0.952831	0.035269	0.210170
H246	H	1.452831	0.535269	0.710170
H247	H	0.953452	-0.018118	0.144288
H248	H	1.453452	0.481882	0.644288
H249	H	0.899437	0.035930	0.144325
H250	H	1.399437	0.535930	0.644325
