data_functionalizedCrystal
_audit_creation_method	'MofGen! by Chris Wilmer'
_symmetry_space_group_name_H-M	'P1'
_symmetry_Int_Tables_number	1
_symmetry_cell_setting	triclinic
loop_
_symmetry_equiv_pos_as_xyz
  x,y,z
_cell_length_a	23.532407
_cell_length_b	16.109301
_cell_length_c	15.186229
_cell_angle_alpha	89.994833
_cell_angle_beta	89.998012
_cell_angle_gamma	96.844921
loop_
_atom_site_label
_atom_site_type_symbol
_atom_site_fract_x
_atom_site_fract_y
_atom_site_fract_z
O1	O	0.755631	-0.100924	0.073122
O2	O	1.255631	0.399076	0.573122
O3	O	0.589822	-0.115528	0.073148
O4	O	1.089822	0.384472	0.573148
O5	O	0.677281	0.012841	0.073125
O6	O	1.177281	0.512841	0.573125
O7	O	0.668171	-0.229293	0.073144
O8	O	1.168171	0.270707	0.573144
O9	O	0.677275	0.012843	-0.073332
O10	O	1.177275	0.512843	0.426668
O11	O	0.589816	-0.115526	-0.073310
O12	O	1.089816	0.384474	0.426690
O13	O	0.755625	-0.100923	-0.073336
O14	O	1.255625	0.399077	0.426664
Zn15	Zn	0.672720	-0.108224	-0.096576
Zn16	Zn	1.172720	0.391776	0.403424
Zn17	Zn	0.672727	-0.108226	0.096388
Zn18	Zn	1.172727	0.391774	0.596388
O19	O	0.668165	-0.229291	-0.073313
O20	O	1.168165	0.270709	0.426687
C21	C	0.568601	-0.115155	-0.000078
C22	C	1.068601	0.384845	0.499922
C23	C	0.505380	-0.114037	-0.000068
C24	C	1.005380	0.385963	0.499932
N25	N	0.672718	-0.108222	-0.228269
N26	N	1.172718	0.391778	0.271731
C27	C	0.676909	0.043814	-0.000104
C28	C	1.176909	0.543814	0.499896
C29	C	0.675803	0.136100	-0.000105
C30	C	1.175803	0.636100	0.499895
C31	C	0.106531	-0.182990	-0.000102
C32	C	0.606531	0.317010	0.499898
C33	C	0.047127	-0.181951	-0.000108
C34	C	0.547127	0.318049	0.499892
O35	O	0.010619	-0.245872	-0.000135
O36	O	0.510619	0.254128	0.499865
N37	N	0.024220	-0.105636	-0.000112
N38	N	0.524220	0.394364	0.499888
C39	C	0.060719	-0.030355	-0.000121
C40	C	0.560719	0.469645	0.499879
O41	O	0.035780	0.034652	-0.000126
O42	O	0.535780	0.534652	0.499874
C43	C	0.120122	-0.031395	-0.000121
C44	C	0.620122	0.468605	0.499879
C45	C	0.143027	-0.107715	-0.000108
C46	C	0.643027	0.392285	0.499892
C47	C	0.129436	-0.259304	-0.000090
C48	C	0.629436	0.240696	0.499910
C49	C	0.188836	-0.260342	-0.000083
C50	C	0.688836	0.239658	0.499917
C51	C	0.225331	-0.185066	-0.000088
C52	C	0.725331	0.314934	0.499912
C53	C	0.202427	-0.108753	-0.000101
C54	C	0.702427	0.391247	0.499899
C55	C	0.156621	0.043886	-0.000136
C56	C	0.656621	0.543886	0.499864
C57	C	0.216027	0.042840	-0.000137
C58	C	0.716027	0.542840	0.499863
C59	C	0.238932	-0.033480	-0.000124
C60	C	0.738932	0.466520	0.499876
C61	C	0.298322	-0.034516	-0.000099
C62	C	0.798322	0.465484	0.499901
N63	N	0.321229	-0.110831	-0.000094
N64	N	0.821229	0.389169	0.499906
C65	C	0.284734	-0.186106	-0.000089
C66	C	0.784734	0.313894	0.499911
C67	C	-0.064031	-0.028178	-0.000120
C68	C	0.435969	0.471822	0.499880
C69	C	-0.123433	-0.027138	-0.000113
C70	C	0.376567	0.472862	0.499887
C71	C	-0.137021	-0.178734	-0.000102
C72	C	0.362979	0.321266	0.499898
C73	C	-0.077618	-0.179774	-0.000103
C74	C	0.422382	0.320226	0.499897
C75	C	-0.041123	-0.104493	-0.000116
C76	C	0.458877	0.395507	0.499884
C77	C	0.409479	-0.188281	-0.000073
C78	C	0.909479	0.311719	0.499927
C79	C	0.468885	-0.189312	-0.000062
C80	C	0.968885	0.310688	0.499938
C81	C	0.482468	-0.037716	-0.000078
C82	C	0.982468	0.462284	0.499922
C83	C	0.423067	-0.036684	-0.000084
C84	C	0.923067	0.463316	0.499916
C85	C	0.386574	-0.111973	-0.000085
C86	C	0.886574	0.388027	0.499915
O87	O	0.334865	0.029371	-0.000076
O88	O	0.834865	0.529371	0.499924
O89	O	0.309682	-0.251102	-0.000095
O90	O	0.809682	0.248898	0.499905
C91	C	0.776846	-0.101295	-0.000108
C92	C	1.276846	0.398705	0.499892
C93	C	0.840067	-0.102414	-0.000112
C94	C	1.340067	0.397586	0.499888
C95	C	0.668537	-0.260264	-0.000082
C96	C	1.168537	0.239736	0.499918
C97	C	0.669644	-0.352551	-0.000075
C98	C	1.169644	0.147449	0.499925
C99	C	0.725127	0.358760	-0.000099
C100	C	1.225127	0.858760	0.499901
C101	C	0.724083	0.445473	-0.000092
C102	C	1.224083	0.945473	0.499908
C103	C	0.620315	0.424782	-0.000079
C104	C	1.120315	0.924782	0.499921
C105	C	0.621360	0.338072	-0.000080
C106	C	1.121360	0.838072	0.499920
C107	C	0.673768	0.305063	-0.000094
C108	C	1.173768	0.805063	0.499906
C109	C	0.671679	0.478486	-0.000086
C110	C	1.171679	0.978486	0.499914
C111	C	0.670547	0.572503	-0.000078
C112	C	1.170547	1.072503	0.499922
C113	C	0.674900	0.211040	-0.000101
C114	C	1.174900	0.711040	0.499899
C115	C	0.711459	-0.051399	-0.454002
C116	C	1.211459	0.448601	0.045998
C117	C	0.711461	-0.051397	-0.546191
C118	C	1.211461	0.448603	-0.046191
C119	C	0.633988	-0.165047	-0.546180
C120	C	1.133988	0.334953	-0.046180
C121	C	0.633984	-0.165044	-0.453992
C122	C	1.133984	0.334956	0.046008
C123	C	0.672723	-0.108222	-0.407905
C124	C	1.172723	0.391778	0.092095
C125	C	0.672729	-0.108222	-0.592283
C126	C	1.172729	0.391778	-0.092283
C127	C	0.672730	-0.108220	-0.692239
C128	C	1.172730	0.391780	-0.192239
C129	C	0.672720	-0.108222	-0.307943
C130	C	1.172720	0.391778	0.192057
N131	N	0.672733	-0.108222	0.228081
N132	N	1.172733	0.391778	0.728081
H133	H	0.487530	-0.251464	-0.000051
H134	H	0.987530	0.248536	0.499949
C135	C	0.780578	0.504539	-0.000093
C136	C	1.280578	1.004539	0.499907
H137	H	0.772452	0.560909	-0.000079
H138	H	1.272452	1.060909	0.499921
H139	H	0.802068	0.494588	-0.051168
H140	H	1.302068	0.994588	0.448832
H141	H	0.802064	0.494569	0.050984
H142	H	1.302064	0.994569	0.550984
C143	C	0.562672	0.461095	-0.000075
C144	C	1.062672	0.961095	0.499925
H145	H	0.569405	0.520427	-0.000085
H146	H	1.069405	1.020427	0.499915
H147	H	0.541523	0.442631	0.050998
H148	H	1.041523	0.942631	0.550998
H149	H	0.541528	0.442637	-0.051154
H150	H	1.041528	0.942637	0.448846
H151	H	0.207479	-0.322489	-0.000071
H152	H	0.707479	0.177511	0.499929
C153	C	0.564862	0.279001	-0.000077
C154	C	1.064862	0.779001	0.499923
H155	H	0.533500	0.311077	-0.000081
H156	H	1.033500	0.811077	0.499919
H157	H	0.563114	0.244740	0.050995
H158	H	1.063114	0.744740	0.550995
H159	H	0.563114	0.244752	-0.051157
H160	H	1.063114	0.744752	0.448843
C161	C	0.591366	-0.227530	-0.596874
C162	C	1.091366	0.272470	-0.096874
H163	H	0.568287	-0.261359	-0.556215
H164	H	1.068287	0.238641	-0.056215
H165	H	0.611829	-0.261999	-0.632845
H166	H	1.111829	0.238001	-0.132845
H167	H	0.567673	-0.197770	-0.632827
H168	H	1.067673	0.302230	-0.132827
H169	H	0.602438	-0.211316	-0.416458
H170	H	1.102438	0.288684	0.083542
H171	H	0.379772	-0.249588	-0.000076
H172	H	0.879772	0.250412	0.499924
H173	H	0.099727	-0.320606	-0.000088
H174	H	0.599727	0.179394	0.499912
C175	C	0.754064	0.011110	-0.403309
C176	C	1.254064	0.511110	0.096691
H177	H	0.777130	0.044957	-0.443969
H178	H	1.277130	0.544957	0.056031
H179	H	0.777763	-0.018616	-0.367339
H180	H	1.277763	0.481384	0.132661
H181	H	0.733578	0.045570	-0.367354
H182	H	1.233578	0.545570	0.132646
C183	C	0.754072	0.011104	-0.596894
C184	C	1.254072	0.511104	-0.096894
H185	H	0.777144	0.044939	-0.556240
H186	H	1.277144	0.544939	-0.056240
H187	H	0.733598	0.045563	-0.632861
H188	H	1.233598	0.545563	-0.132861
H189	H	0.777774	-0.018635	-0.632850
H190	H	1.277774	0.481365	-0.132850
C191	C	-0.177173	-0.261537	-0.000104
C192	C	0.322827	0.238463	0.499896
H193	H	-0.215830	-0.249981	-0.000115
H194	H	0.284170	0.250019	0.499885
H195	H	-0.170237	-0.292857	0.050970
H196	H	0.329763	0.207143	0.550970
H197	H	-0.170230	-0.292847	-0.051182
H198	H	0.329770	0.207153	0.448818
C199	C	-0.148621	0.056814	-0.000120
C200	C	0.351379	0.556814	0.499880
H201	H	-0.118373	0.101492	-0.000128
H202	H	0.381627	0.601492	0.499872
H203	H	-0.171516	0.060376	0.050949
H204	H	0.328484	0.560376	0.550949
H205	H	-0.171506	0.060373	-0.051203
H206	H	0.328494	0.560373	0.448797
C207	C	-0.052429	-0.263724	-0.000096
C208	C	0.447571	0.236276	0.499904
H209	H	-0.082676	-0.308402	-0.000097
H210	H	0.417324	0.191598	0.499903
H211	H	-0.029537	-0.267286	0.050975
H212	H	0.470463	0.232714	0.550975
H213	H	-0.029540	-0.267283	-0.051177
H214	H	0.470460	0.232717	0.448823
H215	H	-0.034320	0.033129	-0.000123
H216	H	0.465680	0.533129	0.499877
H217	H	0.245739	0.104144	-0.000148
H218	H	0.745739	0.604144	0.499852
C219	C	0.131439	0.127839	-0.000163
C220	C	0.631439	0.627839	0.499837
H221	H	0.161690	0.172513	-0.000179
H222	H	0.661690	0.672513	0.499821
H223	H	0.108545	0.131413	0.050904
H224	H	0.608545	0.631413	0.550904
H225	H	0.108555	0.131392	-0.051248
H226	H	0.608555	0.631392	0.448752
C227	C	0.397871	0.047265	-0.000090
C228	C	0.897871	0.547265	0.499910
H229	H	0.428116	0.091947	-0.000094
H230	H	0.928116	0.591947	0.499906
H231	H	0.374974	0.050822	0.050977
H232	H	0.874974	0.550822	0.550977
H233	H	0.374988	0.050822	-0.051176
H234	H	0.874988	0.550822	0.448824
C235	C	0.782773	0.322453	-0.000105
C236	C	1.282773	0.822453	0.499895
H237	H	0.813211	0.366855	-0.000099
H238	H	1.313211	0.866855	0.499901
H239	H	0.785339	0.289062	-0.051178
H240	H	1.285339	0.789062	0.448822
H241	H	0.785336	0.289054	0.050974
H242	H	1.285336	0.789054	0.550974
H243	H	0.512193	0.023571	-0.000079
H244	H	1.012193	0.523571	0.499921
