data_functionalizedCrystal
_audit_creation_method	'MofGen! by Chris Wilmer'
_symmetry_space_group_name_H-M	'P1'
_symmetry_Int_Tables_number	1
_symmetry_cell_setting	triclinic
loop_
_symmetry_equiv_pos_as_xyz
  x,y,z
_cell_length_a	6.817900
_cell_length_b	19.551823
_cell_length_c	9.582880
_cell_angle_alpha	93.823963
_cell_angle_beta	111.207034
_cell_angle_gamma	101.663376
loop_
_atom_site_label
_atom_site_type_symbol
_atom_site_fract_x
_atom_site_fract_y
_atom_site_fract_z
V1	V	-4.107767	-0.096380	-0.467299
O2	O	-4.102840	0.004935	-0.457683
O3	O	-4.049976	-0.191396	-0.464795
O4	O	-4.098689	-0.094764	-0.670788
O5	O	-4.053790	-0.092367	-0.250265
V6	V	-4.587517	-0.084277	-0.441256
O7	O	-4.377303	-0.122928	-0.524427
O8	O	-4.768178	-0.057729	-0.384128
O9	O	-4.422101	0.010740	-0.443759
O10	O	-4.709840	-0.185591	-0.450871
O11	O	-4.758891	-0.088290	-0.658290
O12	O	-4.373388	-0.085893	-0.237766
C13	C	-3.891420	-0.214564	-0.457602
C14	C	-3.925718	-0.292240	-0.456912
C15	C	-4.125043	-0.332281	-0.464071
C16	C	-4.157277	-0.405268	-0.463437
C17	C	-3.990160	-0.438208	-0.455614
C18	C	-3.790812	-0.398158	-0.448462
C19	C	-3.758590	-0.325174	-0.449111
C20	C	-3.858594	-0.544756	-0.360718
C21	C	-3.890818	-0.617738	-0.360060
C22	C	-4.089537	-0.663315	-0.453619
C23	C	-4.256053	-0.635901	-0.547818
C24	C	-4.223832	-0.562917	-0.548467
C25	C	-4.025079	-0.517347	-0.454910
C26	C	-4.323828	-0.782497	-0.460094
C27	C	-4.356060	-0.855486	-0.459469
C28	C	-3.989581	-0.848373	-0.444479
C29	C	-3.957362	-0.775387	-0.445119
C30	C	-4.124490	-0.742453	-0.452919
C31	C	-3.953557	-0.091298	-0.720365
C32	C	-4.027357	-0.090606	-0.886723
C33	C	-4.243998	0.033903	-0.450948
C34	C	-4.188940	0.111579	-0.451649
C35	C	-4.181860	-0.089360	-0.188182
C36	C	-4.087299	-0.090049	-0.021823
H37	H	-4.261140	-0.305472	-0.470433
H38	H	-3.755234	-0.640052	-0.283348
H39	H	-3.696760	-0.507652	-0.284536
H40	H	-4.319596	-0.437876	-0.469267
C41	C	-4.588076	-0.588193	-0.734013
C42	C	-4.406842	-0.532783	-0.652021
H43	H	-4.701049	-0.569588	-0.797952
H44	H	-4.636196	-0.612893	-0.665747
H45	H	-4.549896	-0.619670	-0.793965
H46	H	-4.445018	-0.501308	-0.592060
H47	H	-4.358716	-0.508071	-0.720294
H48	H	-4.417728	-0.673020	-0.624209
H49	H	-3.654748	-0.424983	-0.442096
H50	H	-3.596274	-0.292573	-0.443283
C51	C	-4.438203	-0.695219	-0.340191
C52	C	-4.507526	-0.746288	-0.468681
H53	H	-4.551616	-0.672869	-0.345491
H54	H	-4.314886	-0.660929	-0.336020
H55	H	-4.401126	-0.717227	-0.251922
H56	H	-4.544587	-0.724279	-0.556950
H57	H	-4.630881	-0.780583	-0.472867
C58	C	-4.616310	-0.874680	-0.342696
C59	C	-4.575176	-0.899498	-0.467331
H60	H	-4.751581	-0.901854	-0.347546
H61	H	-4.621025	-0.826505	-0.344207
H62	H	-4.504234	-0.878860	-0.251810
H63	H	-4.687245	-0.895313	-0.558218
H64	H	-4.570479	-0.947685	-0.465835
H65	H	-3.853515	-0.875193	-0.438119
H66	H	-3.795047	-0.742785	-0.439280
