data_functionalizedCrystal
_audit_creation_method	'MofGen! by Chris Wilmer'
_symmetry_space_group_name_H-M	'P1'
_symmetry_Int_Tables_number	1
_symmetry_cell_setting	triclinic
loop_
_symmetry_equiv_pos_as_xyz
  x,y,z
_cell_length_a	16.959455
_cell_length_b	29.839131
_cell_length_c	16.959447
_cell_angle_alpha	90.033915
_cell_angle_beta	90.014322
_cell_angle_gamma	90.038367
loop_
_atom_site_label
_atom_site_type_symbol
_atom_site_fract_x
_atom_site_fract_y
_atom_site_fract_z
Zn1	Zn	1.208267	-0.178881	0.446889
Zn2	Zn	1.708267	0.321119	0.946889
Zn3	Zn	1.208140	-0.254014	0.314702
Zn4	Zn	1.708140	0.245986	0.814702
Zn5	Zn	1.076095	-0.178895	0.314726
Zn6	Zn	1.576095	0.321105	0.814726
Zn7	Zn	1.076010	-0.253981	0.446841
Zn8	Zn	1.576010	0.246019	0.946841
O9	O	1.142128	-0.216443	0.380790
O10	O	1.642128	0.283557	0.880790
O11	O	1.318861	-0.188856	0.429364
O12	O	1.818861	0.311144	0.929364
O13	O	1.190606	-0.244070	0.204094
O14	O	1.690606	0.255930	0.704094
O15	O	1.093716	-0.116026	0.332288
O16	O	1.593716	0.383974	0.832288
O17	O	1.318767	-0.244056	0.332247
O18	O	1.818767	0.255944	0.832247
O19	O	1.190822	-0.116016	0.429388
O20	O	1.690822	0.383984	0.929388
O21	O	1.093593	-0.188880	0.204112
O22	O	1.593593	0.311120	0.704112
O23	O	0.965473	-0.188847	0.332242
O24	O	1.465473	0.311153	0.832242
O25	O	1.093572	-0.243999	0.557458
O26	O	1.593572	0.256001	1.057458
O27	O	0.965411	-0.244012	0.429305
O28	O	1.465411	0.255988	0.929305
O29	O	1.190740	-0.188823	0.557493
O30	O	1.690740	0.311177	1.057493
O31	O	1.190524	-0.316877	0.332200
O32	O	1.690524	0.183123	0.832200
O33	O	1.093449	-0.316852	0.429282
O34	O	1.593449	0.183148	0.929282
C35	C	0.936762	-0.216428	0.380771
C36	C	1.436762	0.283572	0.880771
C37	C	0.848905	-0.216433	0.380782
C38	C	1.348905	0.283567	0.880782
C39	C	0.477437	-0.187695	0.330354
C40	C	0.977437	0.312305	0.830354
C41	C	0.477421	-0.245228	0.431270
C42	C	0.977421	0.254772	0.931270
C43	C	0.559967	-0.245221	0.431265
C44	C	1.059967	0.254779	0.931265
C45	C	0.601252	-0.216452	0.380803
C46	C	1.101252	0.283548	0.880803
C47	C	0.559991	-0.187688	0.330346
C48	C	1.059991	0.312312	0.830346
C49	C	0.601235	-0.273987	0.481716
C50	C	1.101235	0.226013	0.981716
C51	C	0.683786	-0.273982	0.481713
C52	C	1.183786	0.226018	0.981713
C53	C	0.725072	-0.245210	0.431254
C54	C	1.225072	0.254790	0.931254
C55	C	0.683806	-0.216445	0.380795
C56	C	1.183806	0.283555	0.880795
C57	C	0.725090	-0.187676	0.330333
C58	C	1.225090	0.312324	0.830333
C59	C	0.683826	-0.158908	0.279878
C60	C	1.183826	0.341092	0.779878
C61	C	0.601277	-0.158916	0.279887
C62	C	1.101277	0.341084	0.779887
C63	C	0.807620	-0.245202	0.431245
C64	C	1.307620	0.254798	0.931245
C65	C	0.807644	-0.187669	0.330325
C66	C	1.307644	0.312331	0.830325
C67	C	1.141985	-0.333165	0.380750
C68	C	1.641985	0.166835	0.880750
C69	C	1.141996	-0.383100	0.380760
C70	C	1.641996	0.116900	0.880760
C71	C	1.192767	-0.692743	0.330313
C72	C	1.692767	-0.192743	0.830313
C73	C	1.192864	-0.880416	0.330344
C74	C	1.692864	-0.380416	0.830344
O75	O	1.235918	-0.904681	0.287422
O76	O	1.735918	-0.404681	0.787422
N77	N	1.142292	-0.903885	0.380849
N78	N	1.642292	-0.403885	0.880849
C79	C	1.091695	-0.880432	0.431354
C80	C	1.591695	-0.380432	0.931354
O81	O	1.048688	-0.904700	0.474319
O82	O	1.548688	-0.404700	0.974319
C83	C	1.091602	-0.692760	0.431327
C84	C	1.591602	-0.192760	0.931327
C85	C	1.142172	-0.669294	0.380812
C86	C	1.642172	-0.169294	0.880812
C87	C	1.243333	-0.669277	0.279803
C88	C	1.743333	-0.169277	0.779803
C89	C	1.243305	-0.622362	0.279793
C90	C	1.743305	-0.122362	0.779793
C91	C	1.192711	-0.598913	0.330293
C92	C	1.692711	-0.098913	0.830293
C93	C	1.142144	-0.622379	0.380802
C94	C	1.642144	-0.122379	0.880802
C95	C	1.041010	-0.669308	0.481835
C96	C	1.541010	-0.169308	0.981835
C97	C	1.040992	-0.622387	0.481826
C98	C	1.540992	-0.122387	0.981826
C99	C	1.091563	-0.598921	0.431311
C100	C	1.591563	-0.098921	0.931311
C101	C	1.091522	-0.552014	0.431292
C102	C	1.591522	-0.052014	0.931292
N103	N	1.142094	-0.528545	0.380786
N104	N	1.642094	-0.028545	0.880786
C105	C	1.192689	-0.551995	0.330287
C106	C	1.692689	-0.051995	0.830287
C107	C	1.091746	-0.978963	0.431364
C108	C	1.591746	-0.478963	0.931364
C109	C	1.091768	-1.025881	0.431370
C110	C	1.591768	-0.525881	0.931370
C111	C	1.192939	-1.025862	0.330360
C112	C	1.692939	-0.525862	0.830360
C113	C	1.192912	-0.978943	0.330351
C114	C	1.692912	-0.478943	0.830351
C115	C	1.142319	-0.955494	0.380858
C116	C	1.642319	-0.455494	0.880858
C117	C	1.192626	-0.453469	0.330268
C118	C	1.692626	0.046531	0.830268
C119	C	1.192591	-0.406549	0.330260
C120	C	1.692591	0.093451	0.830260
C121	C	1.091424	-0.406572	0.431273
C122	C	1.591424	0.093428	0.931273
C123	C	1.091455	-0.453488	0.431278
C124	C	1.591455	0.046512	0.931278
C125	C	1.142063	-0.476935	0.380773
C126	C	1.642063	0.023065	0.880773
O127	O	1.048497	-0.527720	0.474197
O128	O	1.548497	-0.027720	0.974197
O129	O	1.235702	-0.527719	0.287341
O130	O	1.735702	-0.027719	0.787341
C131	C	1.192795	-0.739659	0.330323
C132	C	1.692795	-0.239659	0.830323
C133	C	1.142228	-0.763125	0.380833
C134	C	1.642228	-0.263125	0.880833
C135	C	1.091633	-0.739675	0.431332
C136	C	1.591633	-0.239675	0.931332
C137	C	1.142250	-0.810043	0.380839
C138	C	1.642250	-0.310043	0.880839
C139	C	1.192845	-0.833492	0.330339
C140	C	1.692845	-0.333492	0.830339
C141	C	1.243417	-0.810024	0.279834
C142	C	1.743417	-0.310024	0.779834
C143	C	1.243389	-0.763108	0.279824
C144	C	1.743389	-0.263108	0.779824
C145	C	1.041061	-0.763144	0.481838
C146	C	1.541061	-0.263144	0.981838
C147	C	1.041092	-0.810059	0.481843
C148	C	1.541092	-0.310059	0.981843
C149	C	1.091687	-0.833509	0.431344
C150	C	1.591687	-0.333509	0.931344
C151	C	1.348296	-0.216458	0.380808
C152	C	1.848296	0.283542	0.880808
C153	C	1.436153	-0.216465	0.380816
C154	C	1.936153	0.283535	0.880816
C155	C	1.142161	-0.216406	0.586958
C156	C	1.642161	0.283594	1.086958
C157	C	1.142175	-0.216390	0.674814
C158	C	1.642175	0.283610	1.174814
C159	C	1.142293	-0.099264	0.380846
C160	C	1.642293	0.400736	0.880846
C161	C	1.142363	-0.049330	0.380870
C162	C	1.642363	0.450670	0.880870
C163	C	1.142141	-0.216447	0.175423
C164	C	1.642141	0.283553	0.675423
C165	C	1.142280	-0.216337	0.087567
C166	C	1.642280	0.283663	0.587567
C167	C	1.091678	-0.245070	1.046274
C168	C	1.591678	0.254930	1.546274
C169	C	1.192860	-0.187615	1.046306
C170	C	1.692860	0.312385	1.546306
C171	C	1.192839	-0.187625	0.963760
C172	C	1.692839	0.312375	1.463760
C173	C	1.142238	-0.216358	0.922468
C174	C	1.642238	0.283642	1.422468
C175	C	1.091657	-0.245081	0.963721
C176	C	1.591657	0.254919	1.463721
C177	C	1.243424	-0.158905	0.922501
C178	C	1.743424	0.341095	1.422501
C179	C	1.243406	-0.158914	0.839950
C180	C	1.743406	0.341086	1.339950
C181	C	1.192800	-0.187645	0.798656
C182	C	1.692800	0.312355	1.298656
C183	C	1.142217	-0.216369	0.839914
C184	C	1.642217	0.283631	1.339914
C185	C	1.091615	-0.245102	0.798621
C186	C	1.591615	0.254898	1.298621
C187	C	1.041028	-0.273824	0.839878
C188	C	1.541028	0.226176	1.339878
C189	C	1.041051	-0.273812	0.922426
C190	C	1.541051	0.226188	1.422426
C191	C	1.192776	-0.187657	0.716107
C192	C	1.692776	0.312343	1.216107
C193	C	1.091594	-0.245113	0.716068
C194	C	1.591594	0.254887	1.216068
H195	H	0.567615	-0.297413	0.522794
H196	H	1.067615	0.202587	1.022794
H197	H	1.233771	-0.387445	0.289123
H198	H	1.733771	0.112555	0.789123
H199	H	1.284611	-0.829124	0.238713
H200	H	1.784611	-0.329124	0.738713
H201	H	1.234091	-0.959840	0.289218
H202	H	1.734091	-0.459840	0.789218
H203	H	1.233837	-0.472554	0.289144
H204	H	1.733837	0.027446	0.789144
H205	H	1.050381	-0.268507	0.682453
H206	H	1.550381	0.231493	1.182453
H207	H	1.284486	-0.603259	0.238662
H208	H	1.784486	-0.103259	0.738662
H209	H	1.284538	-0.688365	0.238680
H210	H	1.784538	-0.188365	0.738680
H211	H	0.999826	-0.688406	0.522966
H212	H	1.499826	-0.188406	1.022966
H213	H	1.234135	-1.044962	0.289242
H214	H	1.734135	-0.544962	0.789242
H215	H	0.999832	-0.297221	0.806247
H216	H	1.499832	0.202779	1.306247
H217	H	1.233966	-0.164273	0.682520
H218	H	1.733966	0.335727	1.182520
H219	H	0.999868	-0.297198	0.956025
H220	H	1.499868	0.202802	1.456025
H221	H	0.999862	-0.744055	0.522962
H222	H	1.499862	-0.244055	1.022962
H223	H	1.284597	-0.135526	0.806366
H224	H	1.784597	0.364474	1.306366
H225	H	0.841252	-0.164238	0.289237
H226	H	1.341252	0.335762	0.789237
H227	H	0.717376	-0.297406	0.522797
H228	H	1.217376	0.202594	1.022797
H229	H	1.050582	-1.044983	0.472496
H230	H	1.550582	-0.544983	0.972496
H231	H	0.999905	-0.829161	0.522978
H232	H	1.499905	-0.329161	1.022978
H233	H	1.050545	-0.959874	0.472494
H234	H	1.550545	-0.459874	0.972494
H235	H	1.284568	-0.744006	0.238690
H236	H	1.784568	-0.244006	0.738690
H237	H	0.999794	-0.603298	0.522958
H238	H	1.499794	-0.103298	1.022958
H239	H	1.050279	-0.472595	0.472414
H240	H	1.550279	0.027405	0.972414
H241	H	1.050228	-0.387473	0.472387
H242	H	1.550228	0.112527	0.972387
H243	H	1.050489	-0.268453	1.079869
H244	H	1.550489	0.231547	1.579869
H245	H	1.234062	-0.164225	1.079932
H246	H	1.734062	0.335775	1.579932
H247	H	1.284626	-0.135515	0.956128
H248	H	1.784626	0.364485	1.456128
H249	H	0.717450	-0.135486	0.238788
H250	H	1.217450	0.364514	0.738788
H251	H	0.567672	-0.135496	0.238808
H252	H	1.067672	0.364504	0.738808
H253	H	0.443836	-0.164272	0.289277
H254	H	0.943836	0.335728	0.789277
H255	H	0.443803	-0.268653	0.472350
H256	H	0.943803	0.231347	0.972350
H257	H	0.841214	-0.268625	0.472322
H258	H	1.341214	0.231375	0.972322
