data_functionalizedCrystal
_audit_creation_method	'MofGen! by Chris Wilmer'
_symmetry_space_group_name_H-M	'P1'
_symmetry_Int_Tables_number	1
_symmetry_cell_setting	triclinic
loop_
_symmetry_equiv_pos_as_xyz
  x,y,z
_cell_length_a	10.968094
_cell_length_b	11.026607
_cell_length_c	9.730223
_cell_angle_alpha	89.997552
_cell_angle_beta	102.124165
_cell_angle_gamma	96.379842
loop_
_atom_site_label
_atom_site_type_symbol
_atom_site_fract_x
_atom_site_fract_y
_atom_site_fract_z
O1	O	1.693920	0.170478	0.286858
O2	O	1.334305	0.186809	0.201694
O3	O	1.484308	0.001743	0.237222
O4	O	1.543917	0.355544	0.251329
O5	O	1.484295	0.001738	0.465799
O6	O	1.334292	0.186804	0.430270
O7	O	1.693906	0.170473	0.515434
Zn8	Zn	1.514097	0.178638	0.509144
Zn9	Zn	1.514115	0.178645	0.207984
O10	O	1.543904	0.355539	0.479906
C11	C	1.287545	0.185620	0.304910
C12	C	1.148229	0.182070	0.271917
C13	C	0.942112	0.176802	0.341509
C14	C	1.086103	0.180480	0.375622
C15	C	1.473305	-0.043561	0.348905
C16	C	1.440523	-0.178547	0.341136
C17	C	1.531039	-0.251602	0.362571
C18	C	1.497159	-0.391117	0.354542
C19	C	1.740667	0.171662	0.412215
C20	C	1.879982	0.175213	0.445199
C21	C	1.554907	0.400844	0.368220
C22	C	1.587689	0.535830	0.375979
N23	N	1.514094	0.178633	0.714679
N24	N	1.514125	0.178640	0.002450
C25	C	1.580551	0.096720	0.802346
C26	C	1.580564	0.096721	0.946232
C27	C	1.447660	0.260557	0.914772
C28	C	1.447641	0.260549	0.770887
H29	H	1.139506	0.181837	0.489658
C30	C	1.669617	-0.196572	0.395392
C31	C	1.721103	-0.113059	0.526283
C32	C	1.859684	-0.058032	0.559105
C33	C	1.946779	-0.086519	0.461035
C34	C	1.895294	-0.170037	0.330135
C35	C	1.756713	-0.225064	0.297313
H36	H	1.656629	-0.091967	0.598888
H37	H	1.897796	0.003794	0.656007
H38	H	2.049364	-0.045785	0.485332
H39	H	1.959767	-0.191129	0.257530
H40	H	1.718601	-0.286890	0.200412
C41	C	1.358574	-0.446138	0.321720
C42	C	1.307068	-0.529668	0.428214
C43	C	1.168486	-0.584690	0.395392
C44	C	1.081409	-0.556183	0.256076
C45	C	1.132914	-0.472649	0.149572
C46	C	1.271496	-0.417626	0.182394
H47	H	1.371528	-0.550775	0.531352
H48	H	1.130359	-0.646528	0.474234
H49	H	0.978822	-0.596913	0.231779
H50	H	1.068454	-0.451542	0.046434
H51	H	1.309623	-0.355789	0.103552
H52	H	1.094827	0.180709	0.157880
H53	H	1.634678	0.030019	1.017607
H54	H	0.888703	0.175432	0.227480
H55	H	0.933390	0.176569	0.559227
H56	H	1.690272	-0.423435	0.400170
C57	C	1.301944	-0.233574	0.308315
C58	C	1.250438	-0.317104	0.414810
C59	C	1.111855	-0.372126	0.381988
C60	C	1.024779	-0.343618	0.242672
C61	C	1.076284	-0.260084	0.136168
C62	C	1.214866	-0.205062	0.168990
H63	H	1.314898	-0.338210	0.517948
H64	H	1.073729	-0.433963	0.460830
H65	H	0.922192	-0.384349	0.218375
H66	H	1.011824	-0.238978	0.033030
H67	H	1.252993	-0.143225	0.090148
H68	H	1.634660	0.030017	0.756586
H69	H	1.393557	0.327253	0.960551
H70	H	1.393517	0.327253	0.699501
