data_functionalizedCrystal
_audit_creation_method	'MofGen! by Chris Wilmer'
_symmetry_space_group_name_H-M	'P1'
_symmetry_Int_Tables_number	1
_symmetry_cell_setting	triclinic
loop_
_symmetry_equiv_pos_as_xyz
  x,y,z
_cell_length_a	11.792241
_cell_length_b	10.654550
_cell_length_c	9.730223
_cell_angle_alpha	90.003749
_cell_angle_beta	89.998500
_cell_angle_gamma	95.660841
loop_
_atom_site_label
_atom_site_type_symbol
_atom_site_fract_x
_atom_site_fract_y
_atom_site_fract_z
O1	O	0.159415	-1.667383	-0.114404
O2	O	0.174603	-1.301862	-0.114382
O3	O	0.001859	-1.493493	-0.114383
O4	O	0.332159	-1.475752	-0.114402
O5	O	0.001863	-1.493490	0.114196
O6	O	0.174608	-1.301859	0.114198
O7	O	0.159419	-1.667381	0.114176
Zn8	Zn	0.167014	-1.484620	0.150479
Zn9	Zn	0.167008	-1.484623	-0.150685
O10	O	0.332163	-1.475750	0.114178
C11	C	-0.040432	-1.492377	-0.000094
C12	C	-0.166454	-1.489042	-0.000095
C13	C	0.173490	-1.255066	-0.000089
C14	C	0.170154	-1.115632	-0.000080
C15	C	0.160532	-1.714177	-0.000120
C16	C	0.163869	-1.853611	-0.000137
C17	C	-0.397180	-1.482908	-0.000118
C18	C	-0.268787	-1.486316	-0.000105
C19	C	0.374455	-1.476865	-0.000114
C20	C	0.500476	-1.480201	-0.000122
N21	N	0.167017	-1.484627	0.356016
C22	C	0.271863	-1.035858	-0.000106
C23	C	0.268721	-0.904847	-0.000129
C24	C	0.062152	-0.933394	-0.000107
C25	C	0.065295	-1.064404	-0.000074
C26	C	0.376722	-1.087087	-0.000112
C27	C	0.478439	-1.007312	-0.000139
C28	C	0.475297	-0.876300	-0.000163
C29	C	0.370438	-0.825063	-0.000159
N30	N	0.166996	-1.484625	-0.356221
C31	C	0.090552	-1.569503	0.427941
C32	C	0.090539	-1.569500	0.571824
C33	C	0.243465	-1.399740	0.571844
C34	C	0.243472	-1.399739	0.427963
C35	C	0.014098	-1.654391	0.355993
C36	C	-0.062373	-1.739275	0.427919
C37	C	-0.062387	-1.739272	0.571802
C38	C	0.014070	-1.654385	0.643759
H39	H	0.563812	-1.049039	-0.000130
C40	C	0.014054	-1.654372	0.802027
H41	H	0.070536	-1.591660	0.834577
H42	H	0.030258	-1.734740	0.834579
H43	H	-0.058644	-1.636686	0.834565
C44	C	0.014116	-1.654396	0.197728
H45	H	0.070612	-1.591694	0.165195
H46	H	-0.058571	-1.636732	0.165163
H47	H	0.030345	-1.734770	0.165186
H48	H	-0.023220	-0.891666	-0.000127
C49	C	-0.146475	-1.832640	0.348778
H50	H	-0.192025	-1.883180	0.412225
H51	H	-0.105201	-1.885193	0.292651
H52	H	-0.194104	-1.787139	0.292651
C53	C	0.587178	-0.788552	-0.000191
H54	H	0.650074	-0.837830	-0.000200
H55	H	0.590257	-0.736829	0.079506
H56	H	0.590237	-0.736876	-0.079926
H57	H	0.367888	-0.718383	-0.000157
H58	H	0.305714	-1.330630	0.630441
C59	C	-0.146500	-1.832636	0.650916
H60	H	-0.192024	-1.883194	0.587456
H61	H	-0.194138	-1.787149	0.707045
H62	H	-0.105222	-1.885188	0.707041
H63	H	0.305736	-1.330623	0.369401
H64	H	-0.017526	-1.129358	-0.000057
H65	H	0.379291	-1.193762	-0.000099
