data_functionalizedCrystal
_audit_creation_method	'MofGen! by Chris Wilmer'
_symmetry_space_group_name_H-M	'P1'
_symmetry_Int_Tables_number	1
_symmetry_cell_setting	triclinic
loop_
_symmetry_equiv_pos_as_xyz
  x,y,z
_cell_length_a	15.944493
_cell_length_b	15.944493
_cell_length_c	10.065875
_cell_angle_alpha	98.793649
_cell_angle_beta	81.254849
_cell_angle_gamma	83.475044
loop_
_atom_site_label
_atom_site_type_symbol
_atom_site_fract_x
_atom_site_fract_y
_atom_site_fract_z
O1	O	1.126820	0.095758	-0.113459
O2	O	0.882262	0.109165	-0.113463
O3	O	1.011246	-0.019819	-0.113472
O4	O	0.997836	0.224742	-0.113450
O5	O	0.986650	0.004875	0.113518
O6	O	0.857666	0.133859	0.113527
O7	O	1.102225	0.120452	0.113531
Zn8	Zn	0.976040	0.131076	0.149569
Zn9	Zn	1.008446	0.098541	-0.149501
O10	O	0.973240	0.249436	0.113540
C11	C	0.838669	0.120964	0.000031
C12	C	0.745421	0.119321	0.000028
C13	C	0.509645	0.195244	0.000034
C14	C	0.446968	0.166478	0.111955
C15	C	0.574701	0.116277	0.000031
C16	C	0.471222	0.142112	-0.111840
C17	C	0.409792	0.113342	0.000027
C18	C	0.513242	0.087542	0.112043
C19	C	0.537510	0.063177	-0.111852
C20	C	0.474863	0.034356	0.000096
C21	C	0.669700	0.117970	0.000034
C22	C	0.314795	0.111643	0.000033
C23	C	0.998401	-0.038768	0.000017
C24	C	0.996760	-0.132018	-0.000000
C25	C	1.072679	-0.367790	0.000027
C26	C	1.043864	-0.430526	-0.111891
C27	C	0.993714	-0.302736	0.000016
C28	C	1.019596	-0.406155	0.111903
C29	C	0.990777	-0.467643	0.000038
C30	C	0.964930	-0.364253	-0.111994
C31	C	0.940663	-0.339868	0.111901
C32	C	0.911793	-0.402574	-0.000045
C33	C	0.995408	-0.207738	0.000002
C34	C	0.989077	-0.562639	0.000042
C35	C	1.145817	0.108653	0.000034
C36	C	1.239066	0.110295	0.000028
C37	C	0.986086	0.268384	0.000048
C38	C	0.987728	0.361633	0.000056
N39	N	0.953930	0.153281	0.353676
N40	N	1.030563	0.076330	-0.353608
C41	C	1.000748	0.106261	0.421452
C42	C	0.983738	0.123356	0.578620
H43	H	0.525242	0.263277	0.000145
H44	H	0.843727	-0.418032	-0.000107
H45	H	0.901252	0.206189	0.412006
H46	H	1.140711	-0.352188	-0.000085
H47	H	0.941864	-0.345731	-0.206714
H48	H	0.576717	0.019559	-0.206482
H49	H	0.897090	-0.300607	0.206523
H50	H	1.042710	-0.424800	0.206515
H51	H	1.053421	0.053346	0.363124
H52	H	0.931056	0.176268	0.636945
H53	H	1.083238	0.023411	0.588067
H54	H	0.407771	0.210121	0.206579
H55	H	1.087465	-0.469772	-0.206510
H56	H	0.531814	0.064517	0.206757
H57	H	0.459405	-0.033710	0.000154
H58	H	0.452528	0.165185	-0.206447
