data_functionalizedCrystal
_audit_creation_method	'MofGen! by Chris Wilmer'
_symmetry_space_group_name_H-M	'P1'
_symmetry_Int_Tables_number	1
_symmetry_cell_setting	triclinic
loop_
_symmetry_equiv_pos_as_xyz
  x,y,z
_cell_length_a	16.625548
_cell_length_b	18.101397
_cell_length_c	16.625539
_cell_angle_alpha	89.970010
_cell_angle_beta	89.982945
_cell_angle_gamma	90.021534
loop_
_atom_site_label
_atom_site_type_symbol
_atom_site_fract_x
_atom_site_fract_y
_atom_site_fract_z
Zn1	Zn	1.232664	-0.294821	-0.455889
Zn2	Zn	1.565997	0.038513	-0.122556
Zn3	Zn	1.899330	0.371846	0.210777
Zn4	Zn	1.232580	-0.418666	-0.321048
Zn5	Zn	1.565913	-0.085332	0.012285
Zn6	Zn	1.899247	0.248001	0.345618
Zn7	Zn	1.097834	-0.294845	-0.321070
Zn8	Zn	1.431167	0.038488	0.012263
Zn9	Zn	1.764500	0.371822	0.345597
Zn10	Zn	1.097801	-0.418627	-0.455838
Zn11	Zn	1.431134	-0.085294	-0.122505
Zn12	Zn	1.764467	0.248039	0.210828
O13	O	1.165220	-0.356740	-0.388461
O14	O	1.498553	-0.023406	-0.055128
O15	O	1.831886	0.309927	0.278205
O16	O	1.345485	-0.311255	-0.438015
O17	O	1.678818	0.022078	-0.104682
O18	O	2.012152	0.355412	0.228652
O19	O	1.214684	-0.402267	-0.208219
O20	O	1.548018	-0.068934	0.125115
O21	O	1.881351	0.264400	0.458448
O22	O	1.115768	-0.191209	-0.338985
O23	O	1.449102	0.142124	-0.005651
O24	O	1.782435	0.475458	0.327682
O25	O	1.345423	-0.402243	-0.338948
O26	O	1.678757	-0.068910	-0.005614
O27	O	2.012090	0.264423	0.327719
O28	O	1.214827	-0.191191	-0.438036
O29	O	1.548161	0.142142	-0.104703
O30	O	1.881494	0.475476	0.228631
O31	O	1.115687	-0.311296	-0.208235
O32	O	1.449020	0.022037	0.125099
O33	O	1.782354	0.355370	0.458432
O34	O	0.984997	-0.311259	-0.338935
O35	O	1.318330	0.022074	-0.005602
O36	O	1.651664	0.355408	0.327732
O37	O	1.115712	-0.402178	-0.568677
O38	O	1.449045	-0.068845	-0.235344
O39	O	1.782378	0.264489	0.097989
O40	O	0.984973	-0.402201	-0.437949
O41	O	1.318306	-0.068868	-0.104615
O42	O	1.651639	0.264465	0.228718
O43	O	1.214795	-0.311218	-0.568715
O44	O	1.548128	0.022116	-0.235382
O45	O	1.881462	0.355449	0.097952
O46	O	1.214652	-0.522294	-0.338898
O47	O	1.547986	-0.188960	-0.005565
O48	O	1.881319	0.144373	0.327769
O49	O	1.115630	-0.522265	-0.437928
O50	O	1.448964	-0.188932	-0.104594
O51	O	1.782297	0.144401	0.228739
C52	C	0.955729	-0.356729	-0.388439
C53	C	1.289062	-0.023396	-0.055106
C54	C	1.622395	0.309938	0.278228
C55	C	0.866108	-0.356742	-0.388448
C56	C	1.199441	-0.023409	-0.055115
C57	C	1.532774	0.309924	0.278218
C58	C	0.537932	-0.356747	-0.388483
C59	C	0.871265	-0.023414	-0.055150
C60	C	1.204599	0.309919	0.278184
C61	C	0.629240	-0.356744	-0.388471
C62	C	0.962574	-0.023411	-0.055137
C63	C	1.295907	0.309923	0.278196
C64	C	0.702017	-0.356745	-0.388465
C65	C	1.035350	-0.023412	-0.055132
C66	C	1.368684	0.309921	0.278202
C67	C	0.793331	-0.356741	-0.388454
C68	C	1.126664	-0.023408	-0.055121
C69	C	1.459998	0.309926	0.278213
C70	C	1.165151	-0.549150	-0.388422
C71	C	1.498484	-0.215817	-0.055089
C72	C	1.831817	0.117516	0.278244
C73	C	1.165195	-0.631464	-0.388433
C74	C	1.498528	-0.298131	-0.055099
C75	C	1.831861	0.035202	0.278234
C76	C	1.165298	-0.930555	-0.388506
C77	C	1.498631	-0.597222	-0.055173
C78	C	1.831964	-0.263889	0.278160
C79	C	1.227426	-0.899217	-0.326033
C80	C	1.560759	-0.565884	0.007301
C81	C	1.894092	-0.232550	0.340634
C82	C	1.227641	-0.813598	-0.326194
C83	C	1.560974	-0.480265	0.007139
C84	C	1.894308	-0.146932	0.340472
C85	C	1.165247	-0.782173	-0.388469
C86	C	1.498580	-0.448839	-0.055136
C87	C	1.831913	-0.115506	0.278198
C88	C	1.188278	-0.813180	-0.473459
C89	C	1.521611	-0.479847	-0.140126
C90	C	1.854944	-0.146514	0.193208
C91	C	1.188759	-0.898825	-0.473119
C92	C	1.522092	-0.565492	-0.139786
C93	C	1.855425	-0.232159	0.193548
C94	C	1.079973	-0.899065	-0.366725
C95	C	1.413306	-0.565732	-0.033392
C96	C	1.746639	-0.232399	0.299941
C97	C	1.080394	-0.813416	-0.364828
C98	C	1.413728	-0.480083	-0.031495
C99	C	1.747061	-0.146749	0.301839
C100	C	1.165216	-0.698313	-0.388453
C101	C	1.498550	-0.364980	-0.055120
C102	C	1.831883	-0.031647	0.278213
C103	C	1.165330	-1.014415	-0.388528
C104	C	1.498663	-0.681081	-0.055194
C105	C	1.831997	-0.347748	0.278139
C106	C	1.375528	-0.356751	-0.388485
C107	C	1.708862	-0.023418	-0.055151
C108	C	2.042195	0.309916	0.278182
C109	C	1.465149	-0.356756	-0.388494
C110	C	1.798483	-0.023422	-0.055161
C111	C	2.131816	0.309911	0.278172
C112	C	1.165259	-0.356691	-0.598770
C113	C	1.498592	-0.023357	-0.265437
C114	C	1.831926	0.309976	0.067896
C115	C	1.165276	-0.356670	-0.688392
C116	C	1.498609	-0.023337	-0.355058
C117	C	1.831943	0.309997	-0.021725
C118	C	1.165311	-0.163578	-0.388518
C119	C	1.498644	0.169756	-0.055185
C120	C	1.831977	0.503089	0.278148
C121	C	1.165350	-0.081264	-0.388543
C122	C	1.498683	0.252070	-0.055209
C123	C	1.832016	0.585403	0.278124
C124	C	1.165289	-0.356654	-0.761174
C125	C	1.498622	-0.023320	-0.427841
C126	C	1.831956	0.310013	-0.094507
C127	C	1.165308	-0.356626	-0.852483
C128	C	1.498641	-0.023293	-0.519149
C129	C	1.831975	0.310041	-0.185816
C130	C	1.165327	-0.356600	-0.925259
C131	C	1.498660	-0.023267	-0.591926
C132	C	1.831994	0.310067	-0.258593
C133	C	1.165347	-0.356573	-1.016574
C134	C	1.498680	-0.023240	-0.683240
C135	C	1.832014	0.310093	-0.349907
C136	C	1.165227	-0.356735	-0.178971
C137	C	1.498560	-0.023402	0.154363
C138	C	1.831893	0.309932	0.487696
C139	C	1.165366	-0.356547	-0.089350
C140	C	1.498699	-0.023214	0.243983
C141	C	1.832033	0.310119	0.577317
H142	H	1.213233	-0.792637	-0.263176
H143	H	1.546566	-0.459303	0.070158
H144	H	1.879899	-0.125970	0.403491
F145	F	1.268886	-0.785070	-0.497984
F146	F	1.602219	-0.451736	-0.164651
F147	F	1.935552	-0.118403	0.168682
H148	H	1.213191	-0.919860	-0.262825
H149	H	1.546525	-0.586526	0.070508
H150	H	1.879858	-0.253193	0.403842
F151	F	1.309588	-0.927273	-0.344652
F152	F	1.642921	-0.593939	-0.011318
F153	F	1.976255	-0.260606	0.322015
F154	F	1.310252	-0.786742	-0.345035
F155	F	1.643586	-0.453409	-0.011701
F156	F	1.976919	-0.120075	0.321632
H157	H	1.145489	-0.919553	-0.521271
H158	H	1.478823	-0.586220	-0.187937
H159	H	1.812156	-0.252887	0.145396
H160	H	1.144410	-0.792822	-0.521259
H161	H	1.477743	-0.459489	-0.187925
H162	H	1.811077	-0.126156	0.145408
F163	F	1.052585	-0.927377	-0.287125
F164	F	1.385918	-0.594044	0.046208
F165	F	1.719251	-0.260711	0.379542
H166	H	1.251127	-0.918743	-0.491569
H167	H	1.584460	-0.585410	-0.158236
H168	H	1.917794	-0.252077	0.175098
H169	H	1.063028	-0.793157	-0.302282
H170	H	1.396361	-0.459824	0.031051
H171	H	1.729695	-0.126491	0.364384
F172	F	1.016633	-0.785466	-0.419947
F173	F	1.349966	-0.452133	-0.086614
F174	F	1.683300	-0.118800	0.246719
F175	F	1.019468	-0.925557	-0.426198
F176	F	1.352801	-0.592224	-0.092864
F177	F	1.686134	-0.258890	0.240469
