data_functionalizedCrystal
_audit_creation_method	'MofGen! by Chris Wilmer'
_symmetry_space_group_name_H-M	'P1'
_symmetry_Int_Tables_number	1
_symmetry_cell_setting	triclinic
loop_
_symmetry_equiv_pos_as_xyz
  x,y,z
_cell_length_a	14.586319
_cell_length_b	16.109301
_cell_length_c	16.109301
_cell_angle_alpha	83.461481
_cell_angle_beta	90.005214
_cell_angle_gamma	90.000787
loop_
_atom_site_label
_atom_site_type_symbol
_atom_site_fract_x
_atom_site_fract_y
_atom_site_fract_z
O1	O	-0.076185	-1.103131	-0.106866
O2	O	-0.076200	-0.861069	-0.120165
O3	O	-0.076183	-0.988749	0.007515
O4	O	-0.076203	-0.975450	-0.234547
O5	O	0.076298	-0.988741	0.007517
O6	O	0.076281	-0.861060	-0.120164
O7	O	0.076295	-1.103122	-0.106864
Cu8	Cu	0.090211	-0.982090	-0.113514
Cu9	Cu	-0.090115	-0.982101	-0.113516
O10	O	0.076278	-0.975441	-0.234545
C11	C	0.000038	-0.830090	-0.119626
C12	C	0.000033	-0.737794	-0.118011
N13	N	0.217042	-0.982089	-0.113512
N14	N	-0.216947	-0.982109	-0.113511
C15	C	0.000058	-0.988206	0.038491
C16	C	0.000059	-0.986591	0.130786
C17	C	0.452057	-1.038644	-0.056994
C18	C	0.548038	-1.038647	-0.056992
C19	C	0.548032	-0.925547	-0.170032
C20	C	0.452052	-0.925541	-0.170030
C21	C	0.404067	-0.982095	-0.113511
C22	C	0.596028	-0.982103	-0.113512
C23	C	0.700095	-0.982105	-0.113510
C24	C	0.299993	-0.982092	-0.113512
C25	C	0.000055	-1.134101	-0.107404
C26	C	0.000054	-1.226397	-0.109019
C27	C	0.000038	-0.515522	-0.190018
C28	C	0.000044	-0.428801	-0.188494
C29	C	0.000052	-0.448676	-0.037006
C30	C	0.000053	-0.535394	-0.038530
C31	C	0.000041	-0.568815	-0.115039
C32	C	0.000046	-0.395376	-0.111990
C33	C	0.000053	-0.301350	-0.110337
C34	C	0.000036	-0.662847	-0.116693
C35	C	0.000035	-0.975984	-0.265521
C36	C	0.000028	-0.977600	-0.357816
C37	C	0.000049	-1.058599	0.353059
C38	C	0.000041	-1.057075	0.439779
C39	C	0.000036	-0.905586	0.419905
C40	C	0.000037	-0.907111	0.333186
C41	C	0.000048	-0.983620	0.299766
C42	C	0.000039	-0.980571	0.473205
C43	C	0.000031	-0.978918	0.567231
C44	C	0.000055	-0.985273	0.205734
H45	H	0.412989	-1.084693	-0.010972
Br46	Br	0.613158	-0.848800	-0.246734
H47	H	0.000043	-0.385413	-0.249550
Br48	Br	0.000069	-0.607728	0.063234
Br49	Br	0.386916	-0.848783	-0.246731
Br50	Br	0.000037	-1.158837	0.512103
Br51	Br	0.000065	-1.162431	0.307705
Br52	Br	0.000017	-0.801758	0.465267
Br53	Br	0.000025	-0.560876	-0.293851
H54	H	0.000067	-0.421454	0.025285
H55	H	0.000033	-0.846050	0.289792
H56	H	0.587108	-1.084694	-0.010969
