data_functionalizedCrystal
_audit_creation_method	'MofGen! by Chris Wilmer'
_symmetry_space_group_name_H-M	'P1'
_symmetry_Int_Tables_number	1
_symmetry_cell_setting	triclinic
loop_
_symmetry_equiv_pos_as_xyz
  x,y,z
_cell_length_a	13.897448
_cell_length_b	13.897449
_cell_length_c	13.897441
_cell_angle_alpha	90.026069
_cell_angle_beta	89.969401
_cell_angle_gamma	89.982380
loop_
_atom_site_label
_atom_site_type_symbol
_atom_site_fract_x
_atom_site_fract_y
_atom_site_fract_z
Zn1	Zn	-0.383986	-1.474703	-0.545519
Zn2	Zn	-0.545308	-1.474597	-0.384220
Zn3	Zn	-0.384028	-1.313392	-0.384222
Zn4	Zn	-0.545240	-1.313374	-0.545457
O5	O	-0.464641	-1.394016	-0.464854
O6	O	-0.405396	-1.609670	-0.524147
O7	O	-0.523959	-1.453176	-0.249238
O8	O	-0.249041	-1.334842	-0.405645
O9	O	-0.523918	-1.609592	-0.405641
O10	O	-0.249010	-1.453356	-0.524149
O11	O	-0.405468	-1.334739	-0.249240
O12	O	-0.405403	-1.178408	-0.405585
O13	O	-0.523804	-1.334811	-0.680447
O14	O	-0.523845	-1.178394	-0.524045
O15	O	-0.405331	-1.453339	-0.680492
O16	O	-0.680280	-1.453158	-0.405582
O17	O	-0.680231	-1.334708	-0.524043
C18	C	-0.464622	-1.143402	-0.464809
C19	C	-0.464637	-1.036188	-0.464813
C20	C	-0.464639	-0.949118	-0.464825
C21	C	-0.464644	-0.839886	-0.464849
C22	C	-0.715255	-1.393946	-0.464827
C23	C	-0.822469	-1.394004	-0.464847
C24	C	-1.018764	-1.394105	-0.464907
C25	C	-0.909531	-1.394046	-0.464877
C26	C	-0.213048	-1.394113	-0.464904
C27	C	-0.105834	-1.394154	-0.464925
C28	C	-0.464555	-1.394085	-0.716448
C29	C	-0.464519	-1.394114	-0.823662
C30	C	-0.464656	-0.645609	-0.464889
C31	C	-0.464653	-0.752823	-0.464873
C32	C	-0.464454	-1.394140	-1.019957
C33	C	-0.464493	-1.394122	-0.910724
C34	C	-0.464656	-1.394004	-0.214240
C35	C	-0.464420	-1.394161	-0.107027
