data_functionalizedCrystal
_audit_creation_method	'MofGen! by Chris Wilmer'
_symmetry_space_group_name_H-M	'P1'
_symmetry_Int_Tables_number	1
_symmetry_cell_setting	triclinic
loop_
_symmetry_equiv_pos_as_xyz
  x,y,z
_cell_length_a	27.732048
_cell_length_b	27.732048
_cell_length_c	15.455313
_cell_angle_alpha	92.637842
_cell_angle_beta	87.346468
_cell_angle_gamma	82.642655
loop_
_atom_site_label
_atom_site_type_symbol
_atom_site_fract_x
_atom_site_fract_y
_atom_site_fract_z
O1	O	0.643059	0.055390	-0.072028
O2	O	0.893059	0.305390	0.177972
O3	O	1.143059	0.555390	0.427972
O4	O	1.393059	0.805390	0.677972
O5	O	0.502266	0.064134	-0.072055
O6	O	0.752266	0.314134	0.177945
O7	O	1.002266	0.564134	0.427945
O8	O	1.252266	0.814134	0.677945
O9	O	0.577035	-0.010634	-0.072024
O10	O	0.827035	0.239366	0.177976
O11	O	1.077035	0.489366	0.427976
O12	O	1.327035	0.739366	0.677976
O13	O	0.568290	0.130158	-0.072059
O14	O	0.818290	0.380158	0.177941
O15	O	1.068290	0.630158	0.427941
O16	O	1.318290	0.880158	0.677941
O17	O	0.572759	-0.006376	0.072236
O18	O	0.822759	0.243624	0.322236
O19	O	1.072759	0.493624	0.572236
O20	O	1.322759	0.743624	0.822236
O21	O	0.497991	0.068393	0.072205
O22	O	0.747991	0.318393	0.322205
O23	O	0.997991	0.568393	0.572205
O24	O	1.247991	0.818393	0.822205
O25	O	0.638783	0.059648	0.072233
O26	O	0.888783	0.309648	0.322233
O27	O	1.138783	0.559648	0.572233
O28	O	1.388783	0.809648	0.822233
Cu29	Cu	0.567996	0.064409	0.085391
Cu30	Cu	0.817996	0.314409	0.335391
Cu31	Cu	1.067996	0.564409	0.585391
Cu32	Cu	1.317996	0.814409	0.835391
Cu33	Cu	0.573053	0.059373	-0.085213
Cu34	Cu	0.823053	0.309373	0.164787
Cu35	Cu	1.073053	0.559373	0.414787
Cu36	Cu	1.323053	0.809373	0.664787
O37	O	0.564015	0.134416	0.072202
O38	O	0.814015	0.384416	0.322202
O39	O	1.064015	0.634416	0.572202
O40	O	1.314015	0.884416	0.822202
C41	C	0.482121	0.066080	0.000072
C42	C	0.732121	0.316080	0.250072
C43	C	0.982121	0.566080	0.500072
C44	C	1.232121	0.816080	0.750072
C45	C	0.428467	0.065527	0.000062
C46	C	0.678467	0.315527	0.250062
C47	C	0.928467	0.565527	0.500062
C48	C	1.178467	0.815527	0.750062
C49	C	0.089651	0.106231	0.000089
C50	C	0.339651	0.356231	0.250089
C51	C	0.589651	0.606231	0.500089
C52	C	0.839651	0.856231	0.750089
C53	C	-0.112009	0.104181	0.000098
C54	C	0.137991	0.354181	0.250098
C55	C	0.387991	0.604181	0.500098
C56	C	0.637991	0.854181	0.750098
O57	O	-0.143265	0.141402	0.000126
O58	O	0.106735	0.391402	0.250126
O59	O	0.356735	0.641402	0.500126
O60	O	0.606735	0.891402	0.750126
N61	N	-0.131133	0.059846	0.000107
N62	N	0.118867	0.309846	0.250107
N63	N	0.368867	0.559846	0.500107
N64	N	0.618867	0.809846	0.750107
C65	C	-0.099839	0.016021	0.000120
C66	C	0.150161	0.266021	0.250120
C67	C	0.400161	0.516021	0.500120
C68	C	0.650161	0.766021	0.750120
O69	O	-0.120732	-0.021736	0.000137
O70	O	0.129268	0.228264	0.250137
O71	O	0.379268	0.478264	0.500137
O72	O	0.629268	0.728264	0.750137
C73	C	0.101820	0.018072	0.000118
C74	C	0.351820	0.268072	0.250118
C75	C	0.601820	0.518072	0.500118
C76	C	0.851820	0.768072	0.750118
C77	C	0.120941	0.062409	0.000100
C78	C	0.370941	0.312409	0.250100
C79	C	0.620941	0.562409	0.500100
C80	C	0.870941	0.812409	0.750100
C81	C	0.108773	0.150565	0.000072
C82	C	0.358773	0.400565	0.250072
C83	C	0.608773	0.650565	0.500072
C84	C	0.858773	0.900565	0.750072
C85	C	0.159185	0.151077	0.000065
C86	C	0.409185	0.401077	0.250065
C87	C	0.659185	0.651077	0.500065
C88	C	0.909185	0.901077	0.750065
C89	C	0.190475	0.107256	0.000076
C90	C	0.440475	0.357256	0.250076
C91	C	0.690475	0.607256	0.500076
C92	C	0.940475	0.857256	0.750076
C93	C	0.171353	0.062922	0.000093
C94	C	0.421353	0.312922	0.250093
C95	C	0.671353	0.562922	0.500093
C96	C	0.921353	0.812922	0.750093
C97	C	0.133113	-0.025753	0.000137
C98	C	0.383113	0.224247	0.250137
C99	C	0.633113	0.474247	0.500137
C100	C	0.883113	0.724247	0.750137
C101	C	0.183530	-0.025236	0.000139
C102	C	0.433530	0.224764	0.250139
C103	C	0.683530	0.474764	0.500139
C104	C	0.933530	0.724764	0.750139
C105	C	0.202652	0.019102	0.000121
C106	C	0.452652	0.269102	0.250121
C107	C	0.702652	0.519102	0.500121
C108	C	0.952652	0.769102	0.750121
C109	C	0.253056	0.019612	0.000097
C110	C	0.503056	0.269612	0.250097
C111	C	0.753056	0.519612	0.500097
C112	C	1.003056	0.769612	0.750097
N113	N	0.272180	0.063947	0.000087
N114	N	0.522180	0.313947	0.250087
N115	N	0.772180	0.563947	0.500087
N116	N	1.022180	0.813947	0.750087
C117	C	0.240890	0.107769	0.000077
C118	C	0.490890	0.357769	0.250077
C119	C	0.740890	0.607769	0.500077
C120	C	0.990890	0.857769	0.750077
C121	C	-0.205713	0.014947	0.000120
C122	C	0.044287	0.264947	0.250120
C123	C	0.294287	0.514947	0.500120
C124	C	0.544287	0.764947	0.750120
C125	C	-0.256127	0.014434	0.000118
C126	C	-0.006127	0.264434	0.250118
C127	C	0.243873	0.514434	0.500118
C128	C	0.493873	0.764434	0.750118
C129	C	-0.268294	0.102594	0.000098
C130	C	-0.018294	0.352594	0.250098
C131	C	0.231706	0.602594	0.500098
C132	C	0.481706	0.852594	0.750098
C133	C	-0.217878	0.103106	0.000093
C134	C	0.032122	0.353106	0.250093
C135	C	0.282122	0.603106	0.500093
C136	C	0.532122	0.853106	0.750093
C137	C	-0.186589	0.059281	0.000110
C138	C	0.063411	0.309281	0.250110
C139	C	0.313411	0.559281	0.500110
C140	C	0.563411	0.809281	0.750110
C141	C	0.346759	0.108841	0.000062
C142	C	0.596759	0.358841	0.250062
C143	C	0.846759	0.608841	0.500062
C144	C	1.096759	0.858841	0.750062
C145	C	0.397176	0.109349	0.000052
C146	C	0.647176	0.359349	0.250052
C147	C	0.897176	0.609349	0.500052
C148	C	1.147176	0.859349	0.750052
C149	C	0.409339	0.021189	0.000077
C150	C	0.659339	0.271189	0.250077
C151	C	0.909339	0.521189	0.500077
C152	C	1.159339	0.771189	0.750077
C153	C	0.358926	0.020680	0.000083
C154	C	0.608926	0.270680	0.250083
C155	C	0.858926	0.520680	0.500083
C156	C	1.108926	0.770680	0.750083
C157	C	0.327637	0.064510	0.000078
C158	C	0.577637	0.314510	0.250078
C159	C	0.827637	0.564510	0.500078
C160	C	1.077637	0.814510	0.750078
O161	O	0.284341	-0.017590	0.000078
O162	O	0.534341	0.232410	0.250078
O163	O	0.784341	0.482410	0.500078
O164	O	1.034341	0.732410	0.750078
O165	O	0.261792	0.145520	0.000079
O166	O	0.511792	0.395520	0.250079
O167	O	0.761792	0.645520	0.500079
O168	O	1.011792	0.895520	0.750079
C169	C	0.039239	0.105719	0.000096
C170	C	0.289239	0.355719	0.250096
C171	C	0.539239	0.605719	0.500096
C172	C	0.789239	0.855719	0.750096
C173	C	0.020117	0.061385	0.000113
C174	C	0.270117	0.311385	0.250113
C175	C	0.520117	0.561385	0.500113
C176	C	0.770117	0.811385	0.750113
C177	C	0.051407	0.017563	0.000124
C178	C	0.301407	0.267563	0.250124
C179	C	0.551407	0.517563	0.500124
C180	C	0.801407	0.767563	0.750124
C181	C	-0.030297	0.060872	0.000112
C182	C	0.219703	0.310872	0.250112
C183	C	0.469703	0.560872	0.500112
C184	C	0.719703	0.810872	0.750112
C185	C	-0.061588	0.104694	0.000102
C186	C	0.188412	0.354694	0.250102
C187	C	0.438412	0.604694	0.500102
C188	C	0.688412	0.854694	0.750102
C189	C	-0.042464	0.149029	0.000093
C190	C	0.207536	0.399029	0.250093
C191	C	0.457536	0.649029	0.500093
C192	C	0.707536	0.899029	0.750093
C193	C	0.007948	0.149541	0.000086
C194	C	0.257948	0.399541	0.250086
C195	C	0.507948	0.649541	0.500086
C196	C	0.757948	0.899541	0.750086
C197	C	0.032283	-0.026771	0.000133
C198	C	0.282283	0.223229	0.250133
C199	C	0.532283	0.473229	0.500133
C200	C	0.782283	0.723229	0.750133
C201	C	-0.018129	-0.027280	0.000139
C202	C	0.231871	0.222720	0.250139
C203	C	0.481871	0.472720	0.500139
C204	C	0.731871	0.722720	0.750139
C205	C	-0.049420	0.016542	0.000129
C206	C	0.200580	0.266542	0.250129
C207	C	0.450580	0.516542	0.500129
C208	C	0.700580	0.766542	0.750129
C209	C	0.574713	-0.026512	0.000109
C210	C	0.824713	0.223488	0.250109
C211	C	1.074713	0.473488	0.500109
C212	C	1.324713	0.723488	0.750109
C213	C	0.574160	-0.080167	0.000116
C214	C	0.824160	0.169833	0.250116
C215	C	1.074160	0.419833	0.500116
C216	C	1.324160	0.669833	0.750116
C217	C	0.614865	-0.418983	0.000079
C218	C	0.864865	-0.168983	0.250079
C219	C	1.114865	0.081017	0.500079
C220	C	1.364865	0.331017	0.750079
C221	C	0.612814	-0.620643	0.000067
C222	C	0.862814	-0.370643	0.250067
C223	C	1.112814	-0.120643	0.500067
C224	C	1.362814	0.129357	0.750067
O225	O	0.650036	-0.651899	0.000036
O226	O	0.900036	-0.401899	0.250036
O227	O	1.150036	-0.151899	0.500036
O228	O	1.400036	0.098101	0.750036
N229	N	0.568479	-0.639767	0.000059
N230	N	0.818479	-0.389767	0.250059
N231	N	1.068479	-0.139767	0.500059
N232	N	1.318479	0.110233	0.750059
C233	C	0.524654	-0.608472	0.000048
C234	C	0.774654	-0.358472	0.250048
C235	C	1.024654	-0.108472	0.500048
C236	C	1.274654	0.141528	0.750048
O237	O	0.486898	-0.629366	0.000032
O238	O	0.736898	-0.379366	0.250032
O239	O	0.986898	-0.129366	0.500032
O240	O	1.236898	0.120634	0.750032
C241	C	0.526705	-0.406813	0.000054
C242	C	0.776705	-0.156813	0.250054
C243	C	1.026705	0.093187	0.500054
C244	C	1.276705	0.343187	0.750054
C245	C	0.571043	-0.387692	0.000071
C246	C	0.821043	-0.137692	0.250071
C247	C	1.071043	0.112308	0.500071
C248	C	1.321043	0.362308	0.750071
C249	C	0.659199	-0.399861	0.000095
C250	C	0.909199	-0.149861	0.250095
C251	C	1.159199	0.100139	0.500095
C252	C	1.409199	0.350139	0.750095
C253	C	0.659711	-0.349449	0.000103
C254	C	0.909711	-0.099449	0.250103
C255	C	1.159711	0.150551	0.500103
C256	C	1.409711	0.400551	0.750103
C257	C	0.615889	-0.318158	0.000095
C258	C	0.865889	-0.068158	0.250095
C259	C	1.115889	0.181842	0.500095
C260	C	1.365889	0.431842	0.750095
C261	C	0.571555	-0.337280	0.000079
C262	C	0.821555	-0.087280	0.250079
C263	C	1.071555	0.162720	0.500079
C264	C	1.321555	0.412720	0.750079
C265	C	0.482881	-0.375520	0.000038
C266	C	0.732881	-0.125520	0.250038
C267	C	0.982881	0.124480	0.500038
C268	C	1.232881	0.374480	0.750038
C269	C	0.483398	-0.325103	0.000037
C270	C	0.733398	-0.075103	0.250037
C271	C	0.983398	0.174897	0.500037
C272	C	1.233398	0.424897	0.750037
C273	C	0.527735	-0.305982	0.000054
C274	C	0.777735	-0.055982	0.250054
C275	C	1.027735	0.194018	0.500054
C276	C	1.277735	0.444018	0.750054
C277	C	0.528245	-0.255577	0.000079
C278	C	0.778245	-0.005577	0.250079
C279	C	1.028245	0.244423	0.500079
C280	C	1.278245	0.494423	0.750079
N281	N	0.572580	-0.236453	0.000087
N282	N	0.822580	0.013547	0.250087
N283	N	1.072580	0.263547	0.500087
N284	N	1.322580	0.513547	0.750087
C285	C	0.616402	-0.267744	0.000095
C286	C	0.866402	-0.017744	0.250095
C287	C	1.116402	0.232256	0.500095
C288	C	1.366402	0.482256	0.750095
C289	C	0.523580	-0.714346	0.000047
C290	C	0.773580	-0.464346	0.250047
C291	C	1.023580	-0.214346	0.500047
C292	C	1.273580	0.035654	0.750047
C293	C	0.523067	-0.764761	0.000047
C294	C	0.773067	-0.514761	0.250047
C295	C	1.023067	-0.264761	0.500047
C296	C	1.273067	-0.014761	0.750047
C297	C	0.611228	-0.776928	0.000063
C298	C	0.861228	-0.526928	0.250063
C299	C	1.111228	-0.276928	0.500063
C300	C	1.361228	-0.026928	0.750063
C301	C	0.611740	-0.726512	0.000069
C302	C	0.861740	-0.476512	0.250069
C303	C	1.111740	-0.226512	0.500069
C304	C	1.361740	0.023488	0.750069
C305	C	0.567915	-0.695222	0.000054
C306	C	0.817915	-0.445222	0.250054
C307	C	1.067915	-0.195222	0.500054
C308	C	1.317915	0.054778	0.750054
C309	C	0.617474	-0.161874	0.000112
C310	C	0.867474	0.088126	0.250112
C311	C	1.117474	0.338126	0.500112
C312	C	1.367474	0.588126	0.750112
C313	C	0.617982	-0.111457	0.000123
C314	C	0.867982	0.138543	0.250123
C315	C	1.117982	0.388543	0.500123
C316	C	1.367982	0.638543	0.750123
C317	C	0.529822	-0.099295	0.000102
C318	C	0.779822	0.150705	0.250102
C319	C	1.029822	0.400705	0.500102
C320	C	1.279822	0.650705	0.750102
C321	C	0.529314	-0.149707	0.000095
C322	C	0.779314	0.100293	0.250095
C323	C	1.029314	0.350293	0.500095
C324	C	1.279314	0.600293	0.750095
C325	C	0.573144	-0.180996	0.000097
C326	C	0.823144	0.069004	0.250097
C327	C	1.073144	0.319004	0.500097
C328	C	1.323144	0.569004	0.750097
O329	O	0.491044	-0.224293	0.000100
O330	O	0.741044	0.025707	0.250100
O331	O	0.991044	0.275707	0.500100
O332	O	1.241044	0.525707	0.750100
O333	O	0.654154	-0.246841	0.000091
O334	O	0.904154	0.003159	0.250091
O335	O	1.154154	0.253159	0.500091
O336	O	1.404154	0.503159	0.750091
C337	C	0.614353	-0.469395	0.000071
C338	C	0.864353	-0.219395	0.250071
C339	C	1.114353	0.030605	0.500071
C340	C	1.364353	0.280605	0.750071
C341	C	0.570019	-0.488517	0.000055
C342	C	0.820019	-0.238517	0.250055
C343	C	1.070019	0.011483	0.500055
C344	C	1.320019	0.261483	0.750055
C345	C	0.526197	-0.457226	0.000048
C346	C	0.776197	-0.207226	0.250048
C347	C	1.026197	0.042774	0.500048
C348	C	1.276197	0.292774	0.750048
C349	C	0.569506	-0.538931	0.000055
C350	C	0.819506	-0.288931	0.250055
C351	C	1.069506	-0.038931	0.500055
C352	C	1.319506	0.211069	0.750055
C353	C	0.613328	-0.570221	0.000063
C354	C	0.863328	-0.320221	0.250063
C355	C	1.113328	-0.070221	0.500063
C356	C	1.363328	0.179779	0.750063
C357	C	0.657663	-0.551097	0.000071
C358	C	0.907663	-0.301097	0.250071
C359	C	1.157663	-0.051097	0.500071
C360	C	1.407663	0.198903	0.750071
C361	C	0.658175	-0.500685	0.000079
C362	C	0.908175	-0.250685	0.250079
C363	C	1.158175	-0.000685	0.500079
C364	C	1.408175	0.249315	0.750079
C365	C	0.481862	-0.476350	0.000040
C366	C	0.731862	-0.226350	0.250040
C367	C	0.981862	0.023650	0.500040
C368	C	1.231862	0.273650	0.750040
C369	C	0.481354	-0.526763	0.000033
C370	C	0.731354	-0.276763	0.250033
C371	C	0.981354	-0.026763	0.500033
C372	C	1.231354	0.223237	0.750033
C373	C	0.525176	-0.558053	0.000041
C374	C	0.775176	-0.308053	0.250041
C375	C	1.025176	-0.058053	0.500041
C376	C	1.275176	0.191947	0.750041
C377	C	0.658928	0.057702	0.000104
C378	C	0.908928	0.307702	0.250104
C379	C	1.158928	0.557702	0.500104
C380	C	1.408928	0.807702	0.750104
C381	C	0.712583	0.058255	0.000108
C382	C	0.962583	0.308255	0.250108
C383	C	1.212583	0.558255	0.500108
C384	C	1.462583	0.808255	0.750108
C385	C	0.566336	0.150294	0.000067
C386	C	0.816336	0.400294	0.250067
C387	C	1.066336	0.650294	0.500067
C388	C	1.316336	0.900294	0.750067
C389	C	0.566889	0.203949	0.000054
C390	C	0.816889	0.453949	0.250054
C391	C	1.066889	0.703949	0.500054
C392	C	1.316889	0.953949	0.750054
N393	N	0.564444	0.067951	0.205385
N394	N	0.814444	0.317951	0.455385
N395	N	1.064444	0.567951	0.705385
N396	N	1.314444	0.817951	0.955385
N397	N	0.576609	0.055828	-0.205208
N398	N	0.826609	0.305828	0.044792
N399	N	1.076609	0.555828	0.294792
N400	N	1.326609	0.805828	0.544792
C401	C	0.596219	0.036198	0.250792
C402	C	0.846219	0.286198	0.500792
C403	C	1.096219	0.536198	0.750792
C404	C	1.346219	0.786198	1.000792
C405	C	0.593536	0.038881	0.341599
C406	C	0.843536	0.288881	0.591599
C407	C	1.093536	0.538881	0.841599
C408	C	1.343536	0.788881	1.091599
C409	C	0.559081	0.073319	0.386997
C410	C	0.809081	0.323319	0.636997
C411	C	1.059081	0.573319	0.886997
C412	C	1.309081	0.823319	1.136997
C413	C	0.527302	0.105073	0.341583
C414	C	0.777302	0.355073	0.591583
C415	C	1.027302	0.605073	0.841583
C416	C	1.277302	0.855073	1.091583
C417	C	0.529983	0.102388	0.250778
C418	C	0.779983	0.352388	0.500778
C419	C	1.029983	0.602388	0.750778
C420	C	1.279983	0.852388	1.000778
C421	C	0.547511	0.084897	0.658574
C422	C	0.797511	0.334897	0.908574
C423	C	1.047511	0.584897	1.158574
C424	C	1.297511	0.834897	1.408574
C425	C	0.544834	0.087581	0.749385
C426	C	0.794834	0.337581	0.999385
C427	C	1.044834	0.587581	1.249385
C428	C	1.294834	0.837581	1.499385
C429	C	0.611068	0.021387	0.749395
C430	C	0.861068	0.271387	0.999395
C431	C	1.111068	0.521387	1.249395
C432	C	1.361068	0.771387	1.499395
C433	C	0.613747	0.018707	0.658588
C434	C	0.863747	0.268707	0.908588
C435	C	1.113747	0.518707	1.158588
C436	C	1.363747	0.768707	1.408588
C437	C	0.581967	0.050460	0.613182
C438	C	0.831967	0.300460	0.863182
C439	C	1.081967	0.550460	1.113182
C440	C	1.331967	0.800460	1.363182
N441	N	0.556339	0.076063	0.479816
N442	N	0.806339	0.326063	0.729816
N443	N	1.056339	0.576063	0.979816
N444	N	1.306339	0.826063	1.229816
N445	N	0.584707	0.047713	0.520365
N446	N	0.834707	0.297713	0.770365
N447	N	1.084707	0.547713	1.020365
N448	N	1.334707	0.797713	1.270365
H449	H	-0.271690	-0.021671	0.000120
H450	H	-0.021690	0.228329	0.250120
H451	H	0.228310	0.478329	0.500120
H452	H	0.478310	0.728329	0.750120
Br453	Br	0.422705	-0.401457	0.000012
Br454	Br	0.672705	-0.151457	0.250012
Br455	Br	0.922705	0.098543	0.500012
Br456	Br	1.172705	0.348543	0.750012
H457	H	-0.067949	0.184710	0.000081
H458	H	0.182051	0.434710	0.250081
H459	H	0.432051	0.684710	0.500081
H460	H	0.682051	0.934710	0.750081
H461	H	0.516775	0.115627	0.786344
H462	H	0.766775	0.365627	1.036344
H463	H	1.016775	0.615627	1.286344
H464	H	1.266775	0.865627	1.536344
Br465	Br	0.504383	0.127989	0.596956
Br466	Br	0.754383	0.377989	0.846956
Br467	Br	1.004383	0.627989	1.096956
Br468	Br	1.254383	0.877989	1.346956
H469	H	0.057756	-0.062457	0.000144
H470	H	0.307756	0.187543	0.250144
H471	H	0.557756	0.437543	0.500144
H472	H	0.807756	0.687543	0.750144
H473	H	0.499245	0.133112	0.378551
H474	H	0.749245	0.383112	0.628551
H475	H	0.999245	0.633112	0.878551
H476	H	1.249245	0.883112	1.128551
H477	H	0.446176	-0.450878	0.000031
H478	H	0.696176	-0.200878	0.250031
H479	H	0.946176	0.049122	0.500031
H480	H	1.196176	0.299122	0.750031
Br481	Br	0.636659	-0.004215	0.403227
Br482	Br	0.886659	0.245785	0.653227
Br483	Br	1.136659	0.495785	0.903227
Br484	Br	1.386659	0.745785	1.153227
Br485	Br	0.464098	-0.671888	0.000025
Br486	Br	0.714098	-0.421888	0.250025
Br487	Br	0.964098	-0.171888	0.500025
Br488	Br	1.214098	0.078112	0.750025
H489	H	0.447709	-0.299629	0.000024
H490	H	0.697709	-0.049629	0.250024
H491	H	0.947709	0.200371	0.500024
H492	H	1.197709	0.450371	0.750024
H493	H	-0.180240	-0.020743	0.000134
H494	H	0.069760	0.229257	0.250134
H495	H	0.319760	0.479257	0.500134
H496	H	0.569760	0.729257	0.750134
H497	H	-0.033692	-0.063388	0.000147
H498	H	0.216308	0.186612	0.250147
H499	H	0.466308	0.436612	0.500147
H500	H	0.716308	0.686612	0.750147
H501	H	-0.293779	0.138275	0.000089
H502	H	-0.043779	0.388275	0.250089
H503	H	0.206221	0.638275	0.500089
H504	H	0.456221	0.888275	0.750089
Br505	Br	0.107177	-0.085929	0.000143
Br506	Br	0.357177	0.164071	0.250143
Br507	Br	0.607177	0.414071	0.500143
Br508	Br	0.857177	0.664071	0.750143
H509	H	0.504107	0.128243	0.213808
H510	H	0.754107	0.378243	0.463808
H511	H	1.004107	0.628243	0.713808
H512	H	1.254107	0.878243	0.963808
Br513	Br	0.660510	-0.028029	0.596975
Br514	Br	0.910510	0.221971	0.846975
Br515	Br	1.160510	0.471971	1.096975
Br516	Br	1.410510	0.721971	1.346975
H517	H	0.321289	0.144531	0.000061
H518	H	0.571289	0.394531	0.250061
H519	H	0.821289	0.644531	0.500061
H520	H	1.071289	0.894531	0.750061
Br521	Br	0.423123	0.169525	0.000021
Br522	Br	0.673123	0.419525	0.250021
Br523	Br	0.923123	0.669525	0.500021
Br524	Br	1.173123	0.919525	0.750021
H525	H	0.653165	-0.187345	0.000110
H526	H	0.903165	0.062655	0.250110
H527	H	1.153165	0.312655	0.500110
H528	H	1.403165	0.562655	0.750110
H529	H	0.654089	-0.095892	0.000139
H530	H	0.904089	0.154108	0.250139
H531	H	1.154089	0.404108	0.500139
H532	H	1.404089	0.654108	0.750139
H533	H	-0.202314	0.139210	0.000083
H534	H	0.047686	0.389210	0.250083
H535	H	0.297686	0.639210	0.500083
H536	H	0.547686	0.889210	0.750083
Br537	Br	0.654195	-0.021704	0.811020
Br538	Br	0.904195	0.228296	1.061020
Br539	Br	1.154195	0.478296	1.311020
Br540	Br	1.404195	0.728296	1.561020
Br541	Br	0.332975	-0.039492	0.000110
Br542	Br	0.582975	0.210508	0.250110
Br543	Br	0.832975	0.460508	0.500110
Br544	Br	1.082975	0.710508	0.750110
Br545	Br	0.185127	0.211253	0.000045
Br546	Br	0.435127	0.461253	0.250045
Br547	Br	0.685127	0.711253	0.500045
Br548	Br	0.935127	0.961253	0.750045
H549	H	0.083300	0.186253	0.000067
H550	H	0.333300	0.436253	0.250067
H551	H	0.583300	0.686253	0.500067
H552	H	0.833300	0.936253	0.750067
H553	H	0.209005	-0.060924	0.000154
H554	H	0.459005	0.189076	0.250154
H555	H	0.709005	0.439076	0.500154
H556	H	0.959005	0.689076	0.750154
H557	H	0.624278	0.008157	0.213836
H558	H	0.874278	0.258157	0.463836
H559	H	1.124278	0.508157	0.713836
H560	H	1.374278	0.758157	0.963836
Br561	Br	0.451813	-0.038281	0.000093
Br562	Br	0.701813	0.211719	0.250093
Br563	Br	0.951813	0.461719	0.500093
Br564	Br	1.201813	0.711719	0.750093
H565	H	0.695815	-0.333885	0.000113
H566	H	0.945815	-0.083885	0.250113
H567	H	1.195815	0.166115	0.500113
H568	H	1.445815	0.416115	0.750113
Br569	Br	0.033891	0.209717	0.000059
Br570	Br	0.283891	0.459717	0.250059
Br571	Br	0.533891	0.709717	0.500059
Br572	Br	0.783891	0.959717	0.750059
H573	H	0.694886	-0.425333	0.000098
H574	H	0.944886	-0.175333	0.250098
H575	H	1.194886	0.074667	0.500098
H576	H	1.444886	0.324667	0.750098
Br577	Br	0.671914	-0.700568	0.000094
Br578	Br	0.921914	-0.450568	0.250094
Br579	Br	1.171914	-0.200568	0.500094
Br580	Br	1.421914	0.049432	0.750094
H581	H	0.493210	-0.165276	0.000106
H582	H	0.743210	0.084724	0.250106
H583	H	0.993210	0.334724	0.500106
H584	H	1.243210	0.584724	0.750106
Br585	Br	0.670700	-0.819403	0.000072
Br586	Br	0.920700	-0.569403	0.250072
Br587	Br	1.170700	-0.319403	0.500072
Br588	Br	1.420700	-0.069403	0.750072
H589	H	0.486963	-0.780324	0.000048
H590	H	0.736963	-0.530324	0.250048
H591	H	0.986963	-0.280324	0.500048
H592	H	1.236963	-0.030324	0.750048
H593	H	0.693344	-0.576583	0.000081
H594	H	0.943344	-0.326583	0.250081
H595	H	1.193344	-0.076583	0.500081
H596	H	1.443344	0.173417	0.750081
Br597	Br	0.718351	-0.474743	0.000096
Br598	Br	0.968351	-0.224743	0.250096
Br599	Br	1.218351	0.025257	0.500096
Br600	Br	1.468351	0.275257	0.750096
H601	H	0.494143	-0.073809	0.000099
H602	H	0.744143	0.176191	0.250099
H603	H	0.994143	0.426191	0.500099
H604	H	1.244143	0.676191	0.750099
Br605	Br	0.421175	-0.552706	0.000017
Br606	Br	0.671175	-0.302706	0.250017
Br607	Br	0.921175	-0.052706	0.500017
Br608	Br	1.171175	0.197294	0.750017
