data_functionalizedCrystal
_audit_creation_method	'MofGen! by Chris Wilmer'
_symmetry_space_group_name_H-M	'P1'
_symmetry_Int_Tables_number	1
_symmetry_cell_setting	triclinic
loop_
_symmetry_equiv_pos_as_xyz
  x,y,z
_cell_length_a	11.792241
_cell_length_b	23.532407
_cell_length_c	10.268362
_cell_angle_alpha	89.990068
_cell_angle_beta	89.999626
_cell_angle_gamma	83.521047
loop_
_atom_site_label
_atom_site_type_symbol
_atom_site_fract_x
_atom_site_fract_y
_atom_site_fract_z
O1	O	1.505071	0.078055	-0.108188
O2	O	2.005071	0.578055	0.391812
O3	O	1.174541	0.086099	-0.108220
O4	O	1.674541	0.586099	0.391780
O5	O	1.349773	-0.000795	-0.108179
O6	O	1.849773	0.499205	0.391821
O7	O	1.329839	0.164950	-0.108229
O8	O	1.829839	0.664950	0.391771
O9	O	1.349758	-0.000799	0.108421
O10	O	1.849758	0.499201	0.608421
O11	O	1.174526	0.086096	0.108380
O12	O	1.674526	0.586096	0.608380
O13	O	1.505056	0.078051	0.108412
O14	O	2.005056	0.578051	0.608412
Cu15	Cu	1.339790	0.082073	0.128174
Cu16	Cu	1.839790	0.582073	0.628174
Cu17	Cu	1.339808	0.082078	-0.127982
Cu18	Cu	1.839808	0.582078	0.372018
O19	O	1.329824	0.164946	0.108372
O20	O	1.829824	0.664946	0.608372
C21	C	1.132254	0.085592	0.000076
C22	C	1.632254	0.585592	0.500076
C23	C	1.006276	0.084080	0.000065
C24	C	1.506276	0.584080	0.500065
C25	C	0.775630	0.081299	0.000104
C26	C	1.275630	0.581299	0.500104
C27	C	0.903978	0.082844	0.000082
C28	C	1.403978	0.582844	0.500082
C29	C	1.349258	-0.022016	0.000124
C30	C	1.849258	0.477984	0.500124
C31	C	1.347732	-0.085242	0.000134
C32	C	1.847732	0.414758	0.500134
C33	C	1.441858	-0.483788	0.000072
C34	C	1.941858	0.016212	0.500072
C35	C	1.440440	-0.543196	0.000062
C36	C	1.940440	-0.043196	0.500062
O37	O	1.527696	-0.579424	0.000022
O38	O	2.027696	-0.079424	0.500022
N39	N	1.336265	-0.566440	0.000053
N40	N	1.836265	-0.066440	0.500053
C41	C	1.233500	-0.530271	0.000040
C42	C	1.733500	-0.030271	0.500040
O43	O	1.144761	-0.555497	0.000030
O44	O	1.644761	-0.055497	0.500030
C45	C	1.234919	-0.470864	0.000041
C46	C	1.734919	0.029136	0.500041
C47	C	1.339102	-0.447624	0.000063
C48	C	1.839102	0.052376	0.500063
C49	C	1.546032	-0.460547	0.000093
C50	C	2.046032	0.039453	0.500093
C51	C	1.547449	-0.401142	0.000105
C52	C	2.047449	0.098858	0.500105
C53	C	1.444693	-0.364979	0.000097
C54	C	1.944693	0.135021	0.500097
C55	C	1.340519	-0.388219	0.000076
C56	C	1.840519	0.111781	0.500076
C57	C	1.132156	-0.434696	0.000019
C58	C	1.632156	0.065304	0.500019
C59	C	1.133584	-0.375285	0.000019
C60	C	1.633584	0.124715	0.500019
C61	C	1.237766	-0.352045	0.000041
C62	C	1.737766	0.147955	0.500041
C63	C	1.239180	-0.292651	0.000080
C64	C	1.739180	0.207349	0.500080
N65	N	1.343355	-0.269407	0.000089
N66	N	1.843355	0.230593	0.500089
C67	C	1.446112	-0.305571	0.000097
C68	C	1.946112	0.194429	0.500097
C69	C	1.230528	-0.655031	0.000036
C70	C	1.730528	-0.155031	0.500036
C71	C	1.229108	-0.714438	0.000045
C72	C	1.729108	-0.214438	0.500045
C73	C	1.436049	-0.727359	0.000064
C74	C	1.936049	-0.227359	0.500064
C75	C	1.437468	-0.667951	0.000065
C76	C	1.937468	-0.167951	0.500065
C77	C	1.334704	-0.631788	0.000046
C78	C	1.834704	-0.131788	0.500046
C79	C	1.449080	-0.180817	0.000125
C80	C	1.949080	0.319183	0.500125
C81	C	1.450489	-0.121406	0.000142
C82	C	1.950489	0.378594	0.500142
C83	C	1.243549	-0.108491	0.000117
C84	C	1.743549	0.391509	0.500117
C85	C	1.242140	-0.167896	0.000106
C86	C	1.742140	0.332104	0.500106
C87	C	1.344915	-0.204058	0.000105
C88	C	1.844915	0.295942	0.500105
O89	O	1.151970	-0.256388	0.000114
O90	O	1.651970	0.243612	0.500114
O91	O	1.534837	-0.280337	0.000090
O92	O	2.034837	0.219663	0.500090
C93	C	1.547343	0.078558	0.000113
C94	C	2.047343	0.578558	0.500113
C95	C	1.673321	0.080071	0.000115
C96	C	2.173321	0.580071	0.500115
C97	C	1.330339	0.186167	0.000065
C98	C	1.830339	0.686167	0.500065
C99	C	1.331865	0.249393	0.000047
C100	C	1.831865	0.749393	0.500047
N101	N	1.339786	0.082070	0.308340
N102	N	1.839786	0.582070	0.808340
N103	N	1.339821	0.082076	-0.308148
N104	N	1.839821	0.582076	0.191852
C105	C	1.339802	0.082076	0.574010
C106	C	1.839802	0.582076	1.074010
C107	C	1.339789	0.082074	0.426172
C108	C	1.839789	0.582074	0.926172
H109	H	1.535330	-0.102488	0.000164
H110	H	2.035330	0.397512	0.500164
H111	H	1.049899	-0.345843	0.000001
H112	H	1.549899	0.154157	0.500001
H113	H	1.519719	-0.756814	0.000066
H114	H	2.019719	-0.256814	0.500066
H115	H	1.144273	-0.733354	0.000049
H116	H	1.644273	-0.233354	0.500049
H117	H	1.047320	-0.453608	-0.000007
H118	H	1.547320	0.046392	0.499993
C119	C	1.130522	-0.068702	0.000101
C120	C	1.630522	0.431298	0.500101
C121	C	1.103073	-0.026075	-0.112380
C122	C	1.603073	0.473925	0.387620
C123	C	0.990046	0.013716	-0.112407
C124	C	1.490046	0.513716	0.387593
C125	C	0.904469	0.010880	0.000048
C126	C	1.404469	0.510880	0.500048
C127	C	0.931916	-0.031749	0.112538
C128	C	1.431916	0.468251	0.612538
C129	C	1.044943	-0.071540	0.112565
C130	C	1.544943	0.428460	0.612565
H131	H	1.166424	-0.023973	-0.195634
H132	H	1.666424	0.476027	0.304366
H133	H	0.969729	0.045273	-0.195680
H134	H	1.469729	0.545273	0.304320
H135	H	0.820800	0.040336	0.000028
H136	H	1.320800	0.540336	0.500028
H137	H	0.868565	-0.033850	0.195791
H138	H	1.368565	0.466150	0.695791
H139	H	1.065260	-0.103097	0.195838
H140	H	1.565260	0.396903	0.695838
C141	C	1.562132	-0.220589	0.000135
C142	C	2.062132	0.279411	0.500135
C143	C	1.647667	-0.217756	0.112630
C144	C	2.147667	0.282244	0.612630
C145	C	1.760717	-0.257528	0.112651
C146	C	2.260717	0.242472	0.612651
C147	C	1.788232	-0.300135	0.000176
C148	C	2.288232	0.199865	0.500176
C149	C	1.702695	-0.302970	-0.112327
C150	C	2.202695	0.197030	0.387673
C151	C	1.589645	-0.263198	-0.112348
C152	C	2.089645	0.236802	0.387652
H153	H	1.627300	-0.186214	0.195898
H154	H	2.127300	0.313786	0.695898
H155	H	1.824036	-0.255429	0.195934
H156	H	2.324036	0.244571	0.695934
H157	H	1.871918	-0.329577	0.000192
H158	H	2.371918	0.170423	0.500192
H159	H	1.723061	-0.334512	-0.195595
H160	H	2.223061	0.165488	0.304405
H161	H	1.526325	-0.265297	-0.195631
H162	H	2.026325	0.234703	0.304369
C163	C	1.117479	-0.615253	0.000038
C164	C	1.617479	-0.115253	0.500038
C165	C	1.089985	-0.572646	0.112515
C166	C	1.589985	-0.072646	0.612515
C167	C	0.976937	-0.532871	0.112515
C168	C	1.476937	-0.032871	0.612515
C169	C	0.891384	-0.535705	0.000039
C170	C	1.391384	-0.035705	0.500039
C171	C	0.918875	-0.578314	-0.112446
C172	C	1.418875	-0.078314	0.387554
C173	C	1.031923	-0.618088	-0.112447
C174	C	1.531923	-0.118088	0.387553
H175	H	1.153319	-0.570547	0.195784
H176	H	1.653319	-0.070547	0.695784
H177	H	0.956586	-0.501329	0.195785
H178	H	1.456586	-0.001329	0.695785
H179	H	0.807699	-0.506261	0.000039
H180	H	1.307699	-0.006261	0.500039
H181	H	0.855542	-0.580413	-0.195716
H182	H	1.355542	-0.080413	0.304284
H183	H	1.052274	-0.649631	-0.195716
H184	H	1.552274	-0.149631	0.304284
H185	H	1.632285	-0.382226	0.000118
H186	H	2.132285	0.117774	0.500118
H187	H	1.629714	-0.489986	0.000095
H188	H	2.129714	0.010014	0.500095
H189	H	1.522302	-0.649034	0.000082
H190	H	2.022302	-0.149034	0.500082
H191	H	1.157306	-0.186819	0.000124
H192	H	1.657306	0.313181	0.500124
