data_functionalizedCrystal
_audit_creation_method	'MofGen! by Chris Wilmer'
_symmetry_space_group_name_H-M	'P1'
_symmetry_Int_Tables_number	1
_symmetry_cell_setting	triclinic
loop_
_symmetry_equiv_pos_as_xyz
  x,y,z
_cell_length_a	15.944551
_cell_length_b	15.944551
_cell_length_c	15.021413
_cell_angle_alpha	89.996935
_cell_angle_beta	90.002826
_cell_angle_gamma	83.498738
loop_
_atom_site_label
_atom_site_type_symbol
_atom_site_fract_x
_atom_site_fract_y
_atom_site_fract_z
O1	O	-1.114529	-0.108321	-0.073941
O2	O	-0.869979	-0.121677	-0.073964
O3	O	-0.998932	0.007276	-0.073944
O4	O	-0.985576	-0.237274	-0.073961
O5	O	-0.998912	0.007257	0.074121
O6	O	-0.869959	-0.121695	0.074101
O7	O	-1.114508	-0.108339	0.074123
Zn8	Zn	-0.992230	-0.115020	0.097620
Zn9	Zn	-0.992257	-0.114996	-0.097461
O10	O	-0.985555	-0.237292	0.074103
C11	C	-0.998367	0.038561	0.000089
C12	C	-0.996705	0.131807	0.000089
C13	C	-0.838675	-0.121132	0.000066
C14	C	-0.745429	-0.119470	0.000057
C15	C	-1.145813	-0.108885	0.000092
C16	C	-1.239059	-0.110547	0.000094
C17	C	-0.530572	-0.035565	0.000081
C18	C	-0.469562	-0.074518	-0.072926
C19	C	-0.574703	-0.116462	0.000068
C20	C	-0.469564	-0.074556	0.073054
C21	C	-0.409790	-0.113551	0.000083
C22	C	-0.514921	-0.155438	-0.072998
C23	C	-0.514930	-0.155464	0.073047
C24	C	-0.453937	-0.194476	0.000023
C25	C	-0.669705	-0.118137	0.000059
C26	C	-0.314789	-0.111883	0.000085
C27	C	-0.986120	-0.268577	0.000069
C28	C	-0.987782	-0.361823	0.000063
N29	N	-0.992218	-0.115036	0.230758
C30	C	-0.912801	0.346663	0.000069
C31	C	-0.951753	0.407672	0.073077
C32	C	-0.993698	0.302533	0.000082
C33	C	-0.951792	0.407673	-0.072903
C34	C	-0.990787	0.467445	0.000071
C35	C	-1.032672	0.362313	0.073150
C36	C	-1.032700	0.362308	-0.072895
C37	C	-1.071711	0.423298	0.000131
C38	C	-0.995372	0.207530	0.000089
C39	C	-0.989119	0.562446	0.000070
N40	N	-0.992276	-0.114973	-0.230598
C41	C	-0.932581	-0.174636	0.470432
C42	C	-1.008481	-0.190943	0.529772
C43	C	-0.992239	-0.115015	0.412365
C44	C	-0.916360	-0.098727	0.529766
C45	C	-0.992253	-0.114997	0.587789
C46	C	-1.068178	-0.131360	0.470398
C47	C	-0.976006	-0.039111	0.470387
C48	C	-1.051962	-0.055386	0.529701
C49	C	-0.992230	-0.115028	0.311307
C50	C	-0.992271	-0.114984	0.688844
H51	H	-0.449461	-0.040295	-0.134642
H52	H	-0.845652	0.313356	0.000136
C53	C	-1.119383	0.011872	0.564017
C54	C	-1.161609	0.053090	0.491840
C55	C	-1.223732	0.115040	0.523420
H56	H	-1.093702	0.051667	0.598812
H57	H	-1.158575	-0.013865	0.599597
H58	H	-1.122423	0.078827	0.456276
H59	H	-1.187308	0.013317	0.457039
H60	H	-1.262923	0.089302	0.558999
H61	H	-1.198043	0.154828	0.558214
H62	H	-1.252394	0.143008	0.474453
H63	H	-0.917528	0.427772	0.134794
C64	C	-1.078180	0.335483	0.155512
C65	C	-1.079153	0.247790	0.154587
C66	C	-1.121053	0.223041	0.230449
H67	H	-1.134489	0.362327	0.155807
H68	H	-1.049621	0.351323	0.207311
H69	H	-1.107714	0.231958	0.102801
H70	H	-1.022856	0.220925	0.154305
H71	H	-1.092494	0.238882	0.282248
H72	H	-1.177360	0.249891	0.230738
H73	H	-1.121712	0.163540	0.229835
C74	C	-0.541909	-0.200926	0.155369
C75	C	-0.598632	-0.146021	0.204970
C76	C	-0.623515	-0.187868	0.280812
H77	H	-0.493743	-0.218763	0.190666
H78	H	-0.568494	-0.248718	0.137867
H79	H	-0.572046	-0.098246	0.222473
H80	H	-0.646810	-0.128183	0.169699
H81	H	-0.650100	-0.235659	0.263310
H82	H	-0.575344	-0.205702	0.316101
H83	H	-0.662009	-0.150624	0.314471
C84	C	-0.957479	0.046402	0.435619
C85	C	-0.877910	0.063116	0.465628
C86	C	-0.860799	0.141877	0.433605
H87	H	-0.999235	0.088953	0.456773
H88	H	-0.958077	0.045933	0.372378
H89	H	-0.877319	0.063592	0.528856
H90	H	-0.836137	0.020586	0.444476
H91	H	-0.861397	0.141408	0.370364
H92	H	-0.902559	0.184421	0.454762
H93	H	-0.806807	0.153224	0.453955
C94	C	-0.830835	-0.080412	0.564711
C95	C	-0.832203	-0.079913	0.657907
C96	C	-0.753428	-0.063063	0.690125
H97	H	-0.818810	-0.026901	0.543600
H98	H	-0.788493	-0.122844	0.544468
H99	H	-0.874532	-0.037483	0.678142
H100	H	-0.844214	-0.133416	0.679042
H101	H	-0.711086	-0.105495	0.669882
H102	H	-0.741410	-0.009553	0.669008
H103	H	-0.754344	-0.062730	0.753361
C104	C	-0.409604	-0.284040	-0.000172
C105	C	-0.358585	-0.296169	-0.075979
C106	C	-0.317722	-0.378660	-0.076187
H107	H	-0.450471	-0.323003	-0.000736
H108	H	-0.375609	-0.292801	0.051673
H109	H	-0.392577	-0.287417	-0.127811
H110	H	-0.317702	-0.257227	-0.075431
H111	H	-0.283728	-0.387421	-0.024343
H112	H	-0.358596	-0.417615	-0.076749
H113	H	-0.283095	-0.386898	-0.127617
H114	H	-1.066896	0.342185	-0.134615
C115	C	-1.153678	-0.149921	0.435607
C116	C	-1.152645	-0.149800	0.342405
C117	C	-1.231375	-0.166938	0.310323
H118	H	-1.196187	-0.107872	0.456261
H119	H	-1.165269	-0.203690	0.456403
H120	H	-1.141063	-0.096038	0.321618
H121	H	-1.110153	-0.191849	0.321728
H122	H	-1.242967	-0.220707	0.331119
H123	H	-1.273878	-0.124887	0.330983
H124	H	-1.230682	-0.166866	0.247083
H125	H	-0.917574	0.427758	-0.134630
C126	C	-0.865484	-0.242042	0.435769
C127	C	-0.882893	-0.321368	0.465842
C128	C	-0.821114	-0.383484	0.433917
H129	H	-0.811643	-0.231124	0.456947
H130	H	-0.865618	-0.241296	0.372527
H131	H	-0.882750	-0.322113	0.529071
H132	H	-0.936723	-0.332314	0.444667
H133	H	-0.821248	-0.382738	0.370675
H134	H	-0.767277	-0.372557	0.455097
H135	H	-0.832922	-0.437314	0.454310
C136	C	-0.442900	-0.028795	0.155321
C137	C	-0.482091	0.054349	0.154980
C138	C	-0.457559	0.096531	0.230749
H139	H	-0.383369	-0.028425	0.155090
H140	H	-0.459223	-0.056946	0.207186
H141	H	-0.465763	0.082492	0.103129
H142	H	-0.541621	0.054004	0.155224
H143	H	-0.473882	0.068381	0.282614
H144	H	-0.398028	0.096895	0.230511
H145	H	-0.484152	0.152946	0.230532
H146	H	-1.138919	0.456457	0.000178
H147	H	-1.022224	-0.255126	0.555856
H148	H	-0.534918	-0.189621	-0.134787
H149	H	-0.563905	0.031573	-0.000005
