data_functionalizedCrystal
_audit_creation_method	'MofGen! by Chris Wilmer'
_symmetry_space_group_name_H-M	'P1'
_symmetry_Int_Tables_number	1
_symmetry_cell_setting	triclinic
loop_
_symmetry_equiv_pos_as_xyz
  x,y,z
_cell_length_a	19.288840
_cell_length_b	17.766277
_cell_length_c	19.288865
_cell_angle_alpha	90.011603
_cell_angle_beta	83.131131
_cell_angle_gamma	90.016585
loop_
_atom_site_label
_atom_site_type_symbol
_atom_site_fract_x
_atom_site_fract_y
_atom_site_fract_z
O1	O	0.921364	0.062729	0.086566
O2	O	0.719101	0.062704	0.098273
O3	O	0.826077	0.062702	-0.008711
O4	O	0.814388	0.062730	0.193550
O5	O	0.826058	-0.062487	-0.008717
O6	O	0.719082	-0.062485	0.098267
O7	O	0.921345	-0.062460	0.086560
Cu8	Cu	0.820212	-0.073903	0.092413
Cu9	Cu	0.820234	0.074147	0.092420
O10	O	0.814369	-0.062458	0.193545
C11	C	0.693215	0.000106	0.097896
C12	C	0.616110	0.000096	0.096774
C13	C	0.579917	0.068338	0.096238
C14	C	0.507470	0.068347	0.095176
C15	C	0.471221	0.000110	0.094636
C16	C	0.507423	-0.068141	0.095176
C17	C	0.579867	-0.068148	0.096245
C18	C	0.361886	-0.052164	0.052256
C19	C	0.289443	-0.052155	0.051183
C20	C	0.247778	0.000129	0.091342
C21	C	0.278565	0.052416	0.132566
C22	C	0.351010	0.052408	0.133635
C23	C	0.392667	0.000110	0.093477
C24	C	0.133029	0.068386	0.089655
C25	C	0.060580	0.068392	0.088598
C26	C	0.060535	-0.068098	0.088591
C27	C	0.132982	-0.068102	0.089656
C28	C	0.169225	0.000142	0.090185
N29	N	0.820202	-0.178034	0.092409
C30	C	0.867586	-0.217421	0.045059
C31	C	0.867590	-0.296223	0.045056
C32	C	0.820216	-0.335634	0.092414
C33	C	0.772823	-0.296237	0.139767
C34	C	0.772816	-0.217437	0.139764
C35	C	0.810917	-0.460464	0.155703
C36	C	0.810930	-0.539263	0.155706
C37	C	0.820235	-0.578680	0.092422
C38	C	0.829543	-0.539290	0.029132
C39	C	0.829535	-0.460489	0.029129
C40	C	0.820219	-0.421080	0.092422
C41	C	0.867626	-0.703514	0.045065
C42	C	0.867625	-0.782317	0.045061
C43	C	0.772862	-0.782330	0.139779
C44	C	0.772859	-0.703528	0.139777
C45	C	0.820245	-0.664125	0.092421
C46	C	0.947232	0.000139	0.086937
C47	C	1.024336	0.000154	0.088059
C48	C	0.825692	0.000105	-0.034591
C49	C	0.824563	0.000099	-0.111694
N50	N	0.820250	0.178277	0.092419
C51	C	0.887331	0.000103	-0.156396
C52	C	0.886270	0.000114	-0.228843
C53	C	0.822438	0.000107	-0.256585
C54	C	0.759661	0.000107	-0.211873
C55	C	0.760723	0.000103	-0.139428
C56	C	0.772251	-0.043750	-0.364870
C57	C	0.771191	-0.043750	-0.437314
C58	C	0.819158	0.000123	-0.480030
C59	C	0.868196	0.043988	-0.450295
C60	C	0.869259	0.043984	-0.377849
C61	C	0.821278	0.000112	-0.335139
C62	C	0.880781	0.000141	-0.603288
C63	C	0.879717	0.000158	-0.675736
C64	C	0.753106	0.000143	-0.658764
C65	C	0.754171	0.000134	-0.586318
C66	C	0.818010	0.000130	-0.558584
C67	C	0.814755	0.000140	0.219424
C68	C	0.815884	0.000152	0.296527
H69	H	0.477996	0.123920	0.094741
C70	C	0.955316	0.000114	-0.278027
H71	H	0.945539	0.000121	-0.325144
H72	H	0.981491	-0.043543	-0.269650
H73	H	0.981512	0.043775	-0.269635
C74	C	0.255583	-0.109667	0.005841
H75	H	0.290770	-0.140816	-0.017913
H76	H	0.231719	-0.083787	-0.027293
H77	H	0.223378	-0.139893	0.034762
C78	C	0.920959	0.092257	-0.497272
H79	H	0.913299	0.085987	-0.544676
H80	H	0.967088	0.076844	-0.491566
H81	H	0.915029	0.143723	-0.484564
C82	C	0.800692	-0.582589	0.225319
H83	H	0.802038	-0.635164	0.216259
H84	H	0.756805	-0.569688	0.250199
H85	H	0.836931	-0.569650	0.252443
C86	C	0.923192	0.092232	-0.345138
H87	H	0.916956	0.085940	-0.295876
H88	H	0.916924	0.143699	-0.356179
H89	H	0.968974	0.076812	-0.363172
C90	C	0.839763	-0.417160	-0.040482
H91	H	0.845401	-0.451914	-0.078173
H92	H	0.880149	-0.386317	-0.041954
H93	H	0.800034	-0.386523	-0.044270
H94	H	0.932763	0.000141	-0.580706
C95	C	0.919746	-0.825648	-0.007027
H96	H	0.912959	-0.878222	-0.000251
H97	H	0.966076	-0.812716	0.000395
H98	H	0.912348	-0.812745	-0.053368
C99	C	0.232742	0.109928	0.176746
H100	H	0.185187	0.102440	0.170214
H101	H	0.246548	0.159467	0.162621
H102	H	0.238214	0.103347	0.224664
C103	C	0.172801	-0.143167	0.090237
H104	H	0.221136	-0.133399	0.090956
H105	H	0.166350	-0.171212	0.049564
H106	H	0.155487	-0.171199	0.130562
C107	C	0.384873	0.109911	0.178985
H108	H	0.349687	0.141049	0.202755
H109	H	0.417080	0.140138	0.150075
H110	H	0.408733	0.084014	0.212116
H111	H	0.162539	0.123954	0.090094
C112	C	0.467545	-0.143200	0.094635
H113	H	0.419214	-0.133422	0.093931
H114	H	0.473993	-0.171198	0.135322
H115	H	0.484819	-0.171282	0.054324
C116	C	0.948767	0.000161	-0.724909
H117	H	0.986936	0.000150	-0.698013
H118	H	0.950997	0.043819	-0.753513
H119	H	0.950971	-0.043499	-0.753531
C120	C	0.682891	0.000137	-0.689272
H121	H	0.691247	0.000137	-0.738820
H122	H	0.657061	0.043789	-0.673901
H123	H	0.657049	-0.043528	-0.673924
C124	C	0.720751	-0.825672	0.191872
H125	H	0.727544	-0.878245	0.185095
H126	H	0.674420	-0.812779	0.184451
H127	H	0.728151	-0.812743	0.238212
C128	C	0.957550	0.000101	-0.125889
H129	H	0.949195	0.000091	-0.076340
H130	H	0.983397	0.043757	-0.141239
H131	H	0.983373	-0.043561	-0.141258
H132	H	0.703058	0.000127	-0.549920
C133	C	0.717253	-0.091999	-0.470017
H134	H	0.688829	-0.118119	-0.434202
H135	H	0.740843	-0.127265	-0.501503
H136	H	0.688798	-0.060373	-0.494512
C137	C	0.719483	-0.092014	-0.317888
H138	H	0.690134	-0.118144	-0.345972
H139	H	0.691856	-0.060400	-0.285861
H140	H	0.743911	-0.127283	-0.292855
C141	C	0.919716	-0.339562	-0.007026
H142	H	0.912930	-0.392136	-0.000244
H143	H	0.966044	-0.326626	0.000398
H144	H	0.912320	-0.326667	-0.053370
H145	H	0.803328	-0.428377	0.207239
H146	H	0.709608	0.000099	-0.103030
C147	C	0.720744	-0.660199	0.191869
H148	H	0.692533	-0.694955	0.220079
H149	H	0.691908	-0.629476	0.166960
H150	H	0.745641	-0.629444	0.220719
C151	C	0.839773	-0.582638	-0.040484
H152	H	0.838436	-0.635210	-0.031421
H153	H	0.883656	-0.569716	-0.065372
H154	H	0.803528	-0.569741	-0.067602
H155	H	0.395805	-0.094744	0.019552
H156	H	0.609422	0.123907	0.096669
H157	H	0.707687	0.000103	-0.234465
H158	H	0.609335	-0.123721	0.096683
C159	C	0.020764	0.143460	0.088011
H160	H	-0.027574	0.133692	0.087308
H161	H	0.038074	0.171492	0.047689
H162	H	0.027217	0.171505	0.128687
C163	C	0.020673	-0.143160	0.088000
H164	H	0.052607	-0.183805	0.088475
H165	H	-0.002161	-0.146002	0.047089
H166	H	-0.013017	-0.145986	0.128087
C167	C	0.919701	-0.174082	-0.007037
H168	H	0.947917	-0.208831	-0.035242
H169	H	0.948531	-0.143319	0.017869
H170	H	0.894799	-0.143365	-0.035891
H171	H	0.734250	-0.328329	0.178326
C172	C	0.919736	-0.660164	-0.007030
H173	H	0.912951	-0.607592	-0.000245
H174	H	0.912339	-0.673093	-0.053367
H175	H	0.966072	-0.673057	0.000392
C176	C	0.720696	-0.174108	0.191856
H177	H	0.692483	-0.208863	0.220064
H178	H	0.691862	-0.143383	0.166947
H179	H	0.745594	-0.143355	0.220707
