data_functionalizedCrystal
_audit_creation_method	'MofGen! by Chris Wilmer'
_symmetry_space_group_name_H-M	'P1'
_symmetry_Int_Tables_number	1
_symmetry_cell_setting	triclinic
loop_
_symmetry_equiv_pos_as_xyz
  x,y,z
_cell_length_a	16.959455
_cell_length_b	16.959453
_cell_length_c	12.759393
_cell_angle_alpha	89.964958
_cell_angle_beta	89.973386
_cell_angle_gamma	90.017008
loop_
_atom_site_label
_atom_site_type_symbol
_atom_site_fract_x
_atom_site_fract_y
_atom_site_fract_z
Zn1	Zn	1.208433	-0.314698	-0.594183
Zn2	Zn	1.708433	0.185302	-0.094183
Zn3	Zn	1.208341	-0.446899	-0.418493
Zn4	Zn	1.708341	0.053101	0.081507
Zn5	Zn	1.076247	-0.314732	-0.418498
Zn6	Zn	1.576247	0.185268	0.081502
Zn7	Zn	1.076226	-0.446831	-0.594109
Zn8	Zn	1.576226	0.053169	-0.094109
O9	O	1.142312	-0.380790	-0.506321
O10	O	1.642312	0.119210	-0.006321
O11	O	1.319032	-0.332249	-0.570907
O12	O	1.819032	0.167751	-0.070907
O13	O	1.190789	-0.429410	-0.271472
O14	O	1.690789	0.070590	0.228528
O15	O	1.093829	-0.204116	-0.441836
O16	O	1.593829	0.295884	0.058164
O17	O	1.318964	-0.429377	-0.441827
O18	O	1.818964	0.070623	0.058173
O19	O	1.190945	-0.204091	-0.570911
O20	O	1.690945	0.295909	-0.070911
O21	O	1.093740	-0.332307	-0.271476
O22	O	1.593740	0.167693	0.228524
O23	O	0.965633	-0.332241	-0.441764
O24	O	1.465633	0.167759	0.058236
O25	O	1.093793	-0.429261	-0.741140
O26	O	1.593793	0.070739	-0.241140
O27	O	0.965618	-0.429294	-0.570785
O28	O	1.465618	0.070706	-0.070785
O29	O	1.190925	-0.332183	-0.741195
O30	O	1.690925	0.167817	-0.241195
O31	O	1.190769	-0.557501	-0.441756
O32	O	1.690769	-0.057501	0.058244
O33	O	1.093705	-0.557451	-0.570781
O34	O	1.593705	-0.057451	-0.070781
C35	C	0.936946	-0.380764	-0.506268
C36	C	1.436946	0.119236	-0.006268
C37	C	0.849089	-0.380772	-0.506270
C38	C	1.349089	0.119228	-0.006270
C39	C	1.142246	-0.586156	-0.506282
C40	C	1.642246	-0.086156	-0.006282
C41	C	1.142290	-0.674013	-0.506301
C42	C	1.642290	-0.174013	-0.006301
C43	C	1.192945	-1.045417	-0.573657
C44	C	1.692945	-0.545417	-0.073657
C45	C	1.091899	-1.045560	-0.439141
C46	C	1.591899	-0.545560	0.060859
C47	C	1.091870	-0.963014	-0.439116
C48	C	1.591870	-0.463014	0.060884
C49	C	1.142378	-0.921666	-0.506365
C50	C	1.642378	-0.421666	-0.006365
C51	C	1.192916	-0.962863	-0.573637
C52	C	1.692916	-0.462863	-0.073637
C53	C	1.041328	-0.921810	-0.371853
C54	C	1.541328	-0.421810	0.128147
C55	C	1.041296	-0.839259	-0.371827
C56	C	1.541296	-0.339259	0.128173
C57	C	1.091809	-0.797910	-0.439071
C58	C	1.591809	-0.297910	0.060929
C59	C	1.142349	-0.839112	-0.506345
C60	C	1.642349	-0.339112	-0.006345
C61	C	1.192857	-0.797764	-0.573594
C62	C	1.692857	-0.297764	-0.073594
C63	C	1.243402	-0.838965	-0.640863
C64	C	1.743402	-0.338965	-0.140863
C65	C	1.243429	-0.921514	-0.640881
C66	C	1.743429	-0.421514	-0.140881
C67	C	1.091782	-0.715361	-0.439053
C68	C	1.591782	-0.215361	0.060947
C69	C	1.192828	-0.715210	-0.573574
C70	C	1.692828	-0.215210	-0.073574
C71	C	0.477568	-0.431314	-0.439075
C72	C	0.977568	0.068686	0.060925
C73	C	0.477659	-0.330331	-0.573695
C74	C	0.977659	0.169669	-0.073695
C75	C	0.560205	-0.330318	-0.573669
C76	C	1.060205	0.169682	-0.073669
C77	C	0.601436	-0.380805	-0.506347
C78	C	1.101436	0.119195	-0.006347
C79	C	0.560121	-0.431305	-0.439050
C80	C	1.060121	0.068695	0.060950
C81	C	0.601526	-0.279825	-0.640972
C82	C	1.101526	0.220175	-0.140972
C83	C	0.684077	-0.279811	-0.640950
C84	C	1.184077	0.220189	-0.140950
C85	C	0.725310	-0.330294	-0.573622
C86	C	1.225310	0.169706	-0.073622
C87	C	0.683990	-0.380795	-0.506321
C88	C	1.183990	0.119205	-0.006321
C89	C	0.725221	-0.431282	-0.438999
C90	C	1.225221	0.068718	0.061001
C91	C	0.683902	-0.481780	-0.371692
C92	C	1.183902	0.018220	0.128308
C93	C	0.601354	-0.481788	-0.371721
C94	C	1.101354	0.018212	0.128279
C95	C	0.807858	-0.330286	-0.573593
C96	C	1.307858	0.169714	-0.073593
C97	C	0.807774	-0.431272	-0.438973
C98	C	1.307774	0.068728	0.061027
C99	C	1.348480	-0.380816	-0.506375
C100	C	1.848480	0.119184	-0.006375
C101	C	1.436337	-0.380828	-0.506398
C102	C	1.936337	0.119172	-0.006398
C103	C	1.142367	-0.380710	-0.780354
C104	C	1.642367	0.119290	-0.280354
C105	C	1.142391	-0.380676	-0.897131
C106	C	1.642391	0.119324	-0.397131
C107	C	1.142400	-0.174622	-0.506383
C108	C	1.642400	0.325378	-0.006383
C109	C	1.142437	-0.086765	-0.506409
C110	C	1.642437	0.413235	-0.006409
C111	C	1.192974	-0.330123	-0.952023
C112	C	1.692974	0.169877	-0.452023
C113	C	1.192993	-0.330094	-1.061747
C114	C	1.692993	0.169906	-0.561747
C115	C	1.091843	-0.431179	-1.061678
C116	C	1.591843	0.068821	-0.561678
C117	C	1.091821	-0.431203	-0.951956
C118	C	1.591821	0.068797	-0.451956
C119	C	1.251375	-0.271765	-0.952064
C120	C	1.751375	0.228235	-0.452064
C121	C	1.251394	-0.271736	-1.061788
C122	C	1.751394	0.228264	-0.561788
C123	C	1.142302	-0.380812	-0.233354
C124	C	1.642302	0.119188	0.266646
C125	C	1.142432	-0.380624	-0.116577
C126	C	1.642432	0.119376	0.383423
H127	H	1.233961	-0.681550	-0.628332
H128	H	1.733961	-0.181550	-0.128332
H129	H	1.312611	-0.288135	-1.091577
H130	H	1.812611	0.211865	-0.591577
Br131	Br	1.261543	-1.101328	-0.664942
Br132	Br	1.761543	-0.601328	-0.164942
Br133	Br	0.545567	-0.211325	-0.732350
Br134	Br	1.045567	0.288675	-0.232350
H135	H	0.717483	-0.522890	-0.316884
H136	H	1.217483	-0.022890	0.183116
Br137	Br	1.224090	-0.169739	-0.902462
Br138	Br	1.724090	0.330261	-0.402462
H139	H	1.284522	-0.805290	-0.695623
H140	H	1.784522	-0.305290	-0.195623
H141	H	1.050775	-1.079231	-0.384394
H142	H	1.550775	-0.579231	0.115606
Br143	Br	1.023153	-0.499798	-0.877461
Br144	Br	1.523153	0.000202	-0.377461
Br145	Br	0.545275	-0.550315	-0.280386
Br146	Br	1.045275	-0.050315	0.219614
Br147	Br	1.023213	-0.499747	-1.136089
Br148	Br	1.523213	0.000253	-0.636089
Br149	Br	1.348265	-0.308344	-0.895340
Br150	Br	1.848265	0.191656	-0.395340
Br151	Br	0.421497	-0.499838	-0.347728
Br152	Br	0.921497	0.000162	0.152272
Br153	Br	1.214767	-0.174845	-1.118550
Br154	Br	1.714767	0.325155	-0.618550
H155	H	0.717712	-0.238692	-0.695755
H156	H	1.217712	0.261308	-0.195755
H157	H	1.000205	-0.955482	-0.317106
H158	H	1.500205	-0.455482	0.182894
H159	H	1.284579	-0.955067	-0.695650
H160	H	1.784579	-0.455067	-0.195650
H161	H	0.444084	-0.289232	-0.628511
H162	H	0.944084	0.210768	-0.128511
Br163	Br	0.972698	-0.783351	-0.280539
Br164	Br	1.472698	-0.283351	0.219461
H165	H	0.841339	-0.472382	-0.384147
H166	H	1.341339	0.027618	0.115853
Br167	Br	1.023188	-0.659448	-0.347771
Br168	Br	1.523188	-0.159448	0.152229
Br169	Br	0.863930	-0.261765	-0.664937
Br170	Br	1.363930	0.238235	-0.164937
