data_functionalizedCrystal
_audit_creation_method	'MofGen! by Chris Wilmer'
_symmetry_space_group_name_H-M	'P1'
_symmetry_Int_Tables_number	1
_symmetry_cell_setting	triclinic
loop_
_symmetry_equiv_pos_as_xyz
  x,y,z
_cell_length_a	14.519709
_cell_length_b	23.532407
_cell_length_c	13.596369
_cell_angle_alpha	89.989360
_cell_angle_beta	90.000291
_cell_angle_gamma	83.264412
loop_
_atom_site_label
_atom_site_type_symbol
_atom_site_fract_x
_atom_site_fract_y
_atom_site_fract_z
O1	O	1.222985	0.074654	-0.081674
O2	O	1.722985	0.574654	0.418326
O3	O	0.954404	0.083445	-0.081705
O4	O	1.454404	0.583445	0.418295
O5	O	1.096794	-0.003846	-0.081671
O6	O	1.596794	0.496154	0.418329
O7	O	1.080596	0.161945	-0.081708
O8	O	1.580596	0.661945	0.418292
O9	O	1.096780	-0.003850	0.081912
O10	O	1.596780	0.496150	0.581912
O11	O	0.954390	0.083441	0.081878
O12	O	1.454390	0.583441	0.581878
O13	O	1.222971	0.074649	0.081909
O14	O	1.722971	0.574649	0.581909
Zn15	Zn	1.088678	0.079044	0.107866
Zn16	Zn	1.588678	0.579044	0.607866
Zn17	Zn	1.088697	0.079050	-0.107662
Zn18	Zn	1.588697	0.579050	0.392338
O19	O	1.080582	0.161940	0.081874
O20	O	1.580582	0.661940	0.581874
C21	C	0.920042	0.083033	0.000083
C22	C	1.420042	0.583033	0.500083
C23	C	0.817676	0.081805	0.000071
C24	C	1.317676	0.581805	0.500071
C25	C	0.442833	0.077286	0.000117
C26	C	0.942833	0.577286	0.500117
C27	C	0.547126	0.078541	0.000104
C28	C	1.047126	0.578541	0.500104
C29	C	0.630251	0.079545	0.000093
C30	C	1.130251	0.579545	0.500093
C31	C	0.734551	0.080801	0.000082
C32	C	1.234551	0.580801	0.500082
C33	C	1.096374	-0.025066	0.000123
C34	C	1.596374	0.474934	0.500123
C35	C	1.095134	-0.088288	0.000131
C36	C	1.595134	0.411712	0.500131
C37	C	1.171619	-0.487046	0.000086
C38	C	1.671619	0.012954	0.500086
C39	C	1.170467	-0.546452	0.000078
C40	C	1.670467	-0.046452	0.500078
O41	O	1.241369	-0.582876	0.000050
O42	O	1.741369	-0.082876	0.500050
N43	N	1.085816	-0.569460	0.000069
N44	N	1.585816	-0.069460	0.500069
C45	C	1.002312	-0.533059	0.000057
C46	C	1.502312	-0.033059	0.500057
O47	O	0.930205	-0.558084	0.000048
O48	O	1.430205	-0.058084	0.500048
C49	C	1.003465	-0.473655	0.000058
C50	C	1.503465	0.026345	0.500058
C51	C	1.088121	-0.450650	0.000077
C52	C	1.588121	0.049350	0.500077
C53	C	1.256268	-0.464041	0.000104
C54	C	1.756268	0.035959	0.500104
C55	C	1.257420	-0.404640	0.000113
C56	C	1.757420	0.095360	0.500113
C57	C	1.173922	-0.368244	0.000105
C58	C	1.673922	0.131756	0.500105
C59	C	1.089273	-0.391249	0.000087
C60	C	1.589273	0.108751	0.500087
C61	C	0.919962	-0.437255	0.000039
C62	C	1.419962	0.062745	0.500039
C63	C	0.921123	-0.377847	0.000039
C64	C	1.421123	0.122153	0.500039
C65	C	1.005779	-0.354843	0.000058
C66	C	1.505779	0.145157	0.500058
C67	C	1.006927	-0.295451	0.000087
C68	C	1.506927	0.204549	0.500087
N69	N	1.091578	-0.272443	0.000097
N70	N	1.591578	0.227557	0.500097
C71	C	1.175075	-0.308839	0.000105
C72	C	1.675075	0.191161	0.500105
C73	C	0.999897	-0.657813	0.000055
C74	C	1.499897	-0.157813	0.500055
C75	C	0.998743	-0.717216	0.000061
C76	C	1.498743	-0.217216	0.500061
C77	C	1.166898	-0.730604	0.000080
C78	C	1.666898	-0.230604	0.500080
C79	C	1.168051	-0.671200	0.000080
C80	C	1.668051	-0.171200	0.500080
C81	C	1.084548	-0.634804	0.000064
C82	C	1.584548	-0.134804	0.500064
C83	C	1.177487	-0.184092	0.000126
C84	C	1.677487	0.315908	0.500126
C85	C	1.178632	-0.124685	0.000139
C86	C	1.678632	0.375315	0.500139
C87	C	1.010477	-0.111301	0.000115
C88	C	1.510477	0.388699	0.500115
C89	C	1.009332	-0.170703	0.000107
C90	C	1.509332	0.329297	0.500107
C91	C	1.092845	-0.207098	0.000109
C92	C	1.592845	0.292902	0.500109
O93	O	0.936062	-0.258992	0.000111
O94	O	1.436062	0.241008	0.500111
O95	O	1.247171	-0.283806	0.000102
O96	O	1.747171	0.216194	0.500102
C97	C	1.257333	0.075061	0.000119
C98	C	1.757333	0.575061	0.500119
C99	C	1.359700	0.076289	0.000124
C100	C	1.859700	0.576289	0.500124
C101	C	1.081001	0.183160	0.000078
C102	C	1.581001	0.683160	0.500078
C103	C	1.082241	0.246383	0.000064
C104	C	1.582241	0.746383	0.500064
N105	N	1.088673	0.079040	0.254958
N106	N	1.588673	0.579040	0.754958
N107	N	1.088710	0.079050	-0.254754
N108	N	1.588710	0.579050	0.245246
C109	C	1.088696	0.079051	0.656248
C110	C	1.588696	0.579051	1.156248
C111	C	1.088686	0.079050	0.544597
C112	C	1.588686	0.579050	1.044597
C113	C	1.088685	0.079046	0.455607
C114	C	1.588685	0.579046	0.955607
C115	C	1.088674	0.079044	0.343948
C116	C	1.588674	0.579044	0.843948
H117	H	1.247572	-0.105958	0.000158
H118	H	1.747572	0.394042	0.500158
C119	C	0.826839	-0.462547	0.000010
C120	C	1.326839	0.037453	0.500010
H121	H	0.777285	-0.432356	-0.000008
H122	H	1.277285	0.067644	0.499992
H123	H	0.822872	-0.485450	0.057049
H124	H	1.322872	0.014550	0.557049
H125	H	0.822901	-0.485432	-0.057048
H126	H	1.322901	0.014568	0.442952
C127	C	1.350542	-0.379342	0.000116
C128	C	1.850542	0.120658	0.500116
H129	H	1.400097	-0.409533	0.000108
H130	H	1.900097	0.090467	0.500108
H131	H	1.354497	-0.356452	0.057158
H132	H	1.854497	0.143548	0.557158
H133	H	1.354489	-0.356444	-0.056939
H134	H	1.854489	0.143556	0.443061
C135	C	0.908037	-0.617782	0.000055
C136	C	1.408037	-0.117782	0.500055
H137	H	0.857464	-0.639997	0.000058
H138	H	1.357464	-0.139997	0.500058
H139	H	0.904986	-0.594321	-0.056987
H140	H	1.404986	-0.094321	0.443013
H141	H	0.904987	-0.594339	0.057110
H142	H	1.404987	-0.094339	0.557110
C143	C	0.905622	-0.742514	0.000048
C144	C	1.405622	-0.242514	0.500048
H145	H	0.856064	-0.712325	0.000037
H146	H	1.356064	-0.212325	0.500037
H147	H	0.901665	-0.765419	0.057087
H148	H	1.401665	-0.265419	0.557087
H149	H	0.901681	-0.765399	-0.057010
H150	H	1.401681	-0.265399	0.442990
C151	C	1.269349	-0.224117	0.000136
C152	C	1.769349	0.275883	0.500136
H153	H	1.319921	-0.201901	0.000158
H154	H	1.819921	0.298099	0.500158
H155	H	1.272412	-0.247564	-0.056909
H156	H	1.772412	0.252436	0.443091
H157	H	1.272390	-0.247575	0.057189
H158	H	1.772390	0.252425	0.557189
C159	C	0.918637	-0.071258	0.000100
C160	C	1.418637	0.428742	0.500100
H161	H	0.931455	-0.032586	0.000096
H162	H	1.431455	0.467414	0.500096
H163	H	0.883887	-0.078245	0.057135
H164	H	1.383887	0.421755	0.557135
H165	H	0.883916	-0.078234	-0.056962
H166	H	1.383916	0.421766	0.443038
C167	C	0.829266	-0.337815	0.000025
C168	C	1.329266	0.162185	0.500025
H169	H	0.778690	-0.360028	0.000020
H170	H	1.278690	0.139972	0.500020
H171	H	0.826224	-0.314354	-0.057017
H172	H	1.326224	0.185646	0.442983
H173	H	0.826211	-0.314373	0.057080
H174	H	1.326211	0.185627	0.557080
C175	C	0.916214	-0.196010	0.000084
C176	C	1.416214	0.303990	0.500084
H177	H	0.866652	-0.165823	0.000074
H178	H	1.366652	0.334177	0.500074
H179	H	0.912255	-0.218919	0.057117
H180	H	1.412255	0.281081	0.557117
H181	H	0.912282	-0.218890	-0.056980
H182	H	1.412282	0.281110	0.443020
H183	H	1.324266	-0.493670	0.000107
H184	H	1.824266	0.006330	0.500107
H185	H	1.234886	-0.760249	0.000083
H186	H	1.734886	-0.260249	0.500083
C187	C	1.261171	-0.645900	0.000092
C188	C	1.761171	-0.145900	0.500092
H189	H	1.310730	-0.676089	0.000092
H190	H	1.810730	-0.176089	0.500092
H191	H	1.265117	-0.623009	0.057135
H192	H	1.765117	-0.123009	0.557135
H193	H	1.265124	-0.623002	-0.056962
H194	H	1.765124	-0.123002	0.443038
