data_functionalizedCrystal
_audit_creation_method	'MofGen! by Chris Wilmer'
_symmetry_space_group_name_H-M	'P1'
_symmetry_Int_Tables_number	1
_symmetry_cell_setting	triclinic
loop_
_symmetry_equiv_pos_as_xyz
  x,y,z
_cell_length_a	18.215407
_cell_length_b	16.120531
_cell_length_c	18.215399
_cell_angle_alpha	87.136265
_cell_angle_beta	89.985640
_cell_angle_gamma	87.070360
loop_
_atom_site_label
_atom_site_type_symbol
_atom_site_fract_x
_atom_site_fract_y
_atom_site_fract_z
Zn1	Zn	1.110153	0.331952	-0.430896
Zn2	Zn	1.360153	0.581952	-0.180896
Zn3	Zn	1.610153	0.831952	0.069104
Zn4	Zn	1.860153	1.081952	0.319104
Zn5	Zn	1.103811	0.471379	-0.314058
Zn6	Zn	1.353811	0.721379	-0.064058
Zn7	Zn	1.603811	0.971379	0.185942
Zn8	Zn	1.853811	1.221379	0.435942
Zn9	Zn	0.987091	0.331978	-0.307850
Zn10	Zn	1.237091	0.581978	-0.057850
Zn11	Zn	1.487091	0.831978	0.192150
Zn12	Zn	1.737091	1.081978	0.442150
Zn13	Zn	0.980797	0.471319	-0.437086
Zn14	Zn	1.230797	0.721319	-0.187086
Zn15	Zn	1.480797	0.971319	0.062914
Zn16	Zn	1.730797	1.221319	0.312914
O17	O	1.045463	0.401657	-0.372473
O18	O	1.295463	0.651657	-0.122473
O19	O	1.545463	0.901657	0.127527
O20	O	1.795463	1.151657	0.377527
O21	O	1.212296	0.350461	-0.415405
O22	O	1.462296	0.600461	-0.165405
O23	O	1.712296	0.850461	0.084595
O24	O	1.962296	1.100461	0.334595
O25	O	1.088308	0.452923	-0.210252
O26	O	1.338308	0.702923	0.039748
O27	O	1.588308	0.952923	0.289748
O28	O	1.838308	1.202923	0.539748
O29	O	1.008704	0.215309	-0.318984
O30	O	1.258704	0.465309	-0.068984
O31	O	1.508704	0.715309	0.181016
O32	O	1.758704	0.965309	0.431016
O33	O	1.207636	0.452898	-0.329565
O34	O	1.457636	0.702898	-0.079565
O35	O	1.707636	0.952898	0.170435
O36	O	1.957636	1.202898	0.420435
O37	O	1.099117	0.215290	-0.409385
O38	O	1.349117	0.465290	-0.159385
O39	O	1.599117	0.715290	0.090615
O40	O	1.849117	0.965290	0.340615
O41	O	1.002554	0.350505	-0.205691
O42	O	1.252554	0.600505	0.044309
O43	O	1.502554	0.850505	0.294309
O44	O	1.752554	1.100505	0.544309
O45	O	0.883273	0.350448	-0.324986
O46	O	1.133273	0.600448	-0.074986
O47	O	1.383273	0.850448	0.175014
O48	O	1.633273	1.100448	0.425014
O49	O	0.997977	0.452796	-0.539248
O50	O	1.247977	0.702796	-0.289248
O51	O	1.497977	0.952796	-0.039248
O52	O	1.747977	1.202796	0.210752
O53	O	0.878649	0.452821	-0.419935
O54	O	1.128649	0.702821	-0.169935
O55	O	1.378649	0.952821	0.080065
O56	O	1.628649	1.202821	0.330065
O57	O	1.093014	0.350404	-0.534700
O58	O	1.343014	0.600404	-0.284700
O59	O	1.593014	0.850404	-0.034700
O60	O	1.843014	1.100404	0.215300
O61	O	1.082205	0.588036	-0.335567
O62	O	1.332205	0.838036	-0.085567
O63	O	1.582205	1.088036	0.164433
O64	O	1.832205	1.338036	0.414433
O65	O	0.991827	0.587992	-0.425955
O66	O	1.241827	0.837992	-0.175955
O67	O	1.491827	1.087992	0.074045
O68	O	1.741827	1.337992	0.324045
C69	C	0.854258	0.401631	-0.372459
C70	C	1.104258	0.651631	-0.122459
C71	C	1.354258	0.901631	0.127541
C72	C	1.604258	1.151631	0.377541
C73	C	0.772459	0.401640	-0.372471
C74	C	1.022459	0.651640	-0.122471
C75	C	1.272459	0.901640	0.127529
C76	C	1.522459	1.151640	0.377529
C77	C	1.035665	0.618264	-0.382122
C78	C	1.285665	0.868264	-0.132122
C79	C	1.535665	1.118264	0.117878
C80	C	1.785665	1.368264	0.367878
C81	C	1.031540	0.710930	-0.386275
C82	C	1.281540	0.960930	-0.136275
C83	C	1.531540	1.210930	0.113725
C84	C	1.781540	1.460930	0.363725
C85	C	0.586685	0.348412	-0.417247
C86	C	0.836685	0.598412	-0.167247
C87	C	1.086685	0.848412	0.082753
C88	C	1.336685	1.098412	0.332753
C89	C	0.509826	0.348419	-0.417250
C90	C	0.759826	0.598419	-0.167250
C91	C	1.009826	0.848419	0.082750
C92	C	1.259826	1.098419	0.332750
C93	C	0.504992	0.454926	-0.327712
C94	C	0.754992	0.704926	-0.077712
C95	C	1.004992	0.954926	0.172288
C96	C	1.254992	1.204926	0.422288
C97	C	0.581850	0.454914	-0.327706
C98	C	0.831850	0.704914	-0.077706
C99	C	1.081850	0.954914	0.172294
C100	C	1.331850	1.204914	0.422294
C101	C	0.622695	0.401658	-0.372478
C102	C	0.872695	0.651658	-0.122478
C103	C	1.122695	0.901658	0.127522
C104	C	1.372695	1.151658	0.377522
C105	C	0.468978	0.401677	-0.372487
C106	C	0.718978	0.651677	-0.122487
C107	C	0.968978	0.901677	0.127513
C108	C	1.218978	1.151677	0.377513
C109	C	0.385644	0.401685	-0.372489
C110	C	0.635644	0.651685	-0.122489
C111	C	0.885644	0.901685	0.127511
C112	C	1.135644	1.151685	0.377511
C113	C	0.706034	0.401648	-0.372474
C114	C	0.956034	0.651648	-0.122474
C115	C	1.206034	0.901648	0.127526
C116	C	1.456034	1.151648	0.377526
C117	C	1.024015	0.880591	-0.393872
C118	C	1.274015	1.130591	-0.143872
C119	C	1.524015	1.380591	0.106128
C120	C	1.774015	1.630591	0.356128
C121	C	1.066939	0.921882	-0.351032
C122	C	1.316939	1.171882	-0.101032
C123	C	1.566939	1.421882	0.148968
C124	C	1.816939	1.671882	0.398968
C125	C	1.062752	1.016288	-0.355259
C126	C	1.312752	1.266288	-0.105259
C127	C	1.562752	1.516288	0.144741
C128	C	1.812752	1.766288	0.394741
C129	C	1.028201	0.786177	-0.389646
C130	C	1.278201	1.036177	-0.139646
C131	C	1.528201	1.286177	0.110354
C132	C	1.778201	1.536177	0.360354
C133	C	1.237415	0.401683	-0.372487
C134	C	1.487415	0.651683	-0.122487
C135	C	1.737415	0.901683	0.127513
C136	C	1.987415	1.151683	0.377513
C137	C	1.319213	0.401694	-0.372493
C138	C	1.569213	0.651694	-0.122493
C139	C	1.819213	0.901694	0.127507
C140	C	2.069213	1.151694	0.377507
C141	C	1.045501	0.401590	-0.564423
C142	C	1.295501	0.651590	-0.314423
C143	C	1.545501	0.901590	-0.064423
C144	C	1.795501	1.151590	0.185577
C145	C	1.045517	0.401562	-0.646220
C146	C	1.295517	0.651562	-0.396220
C147	C	1.545517	0.901562	-0.146220
C148	C	1.795517	1.151562	0.103780
C149	C	1.055294	1.184204	-0.362788
C150	C	1.305294	1.434204	-0.112788
C151	C	1.555294	1.684204	0.137212
C152	C	1.805294	1.934204	0.387212
C153	C	1.059416	1.091538	-0.358627
C154	C	1.309416	1.341538	-0.108627
C155	C	1.559416	1.591538	0.141373
C156	C	1.809416	1.841538	0.391373
C157	C	1.000906	0.348197	-0.832039
C158	C	1.250906	0.598197	-0.582039
C159	C	1.500906	0.848197	-0.332039
C160	C	1.750906	1.098197	-0.082039
C161	C	1.000920	0.348180	-0.908897
C162	C	1.250920	0.598180	-0.658897
C163	C	1.500920	0.848180	-0.408897
C164	C	1.750920	1.098180	-0.158897
C165	C	1.090220	0.454827	-0.913636
C166	C	1.340220	0.704827	-0.663636
C167	C	1.590220	0.954827	-0.413636
C168	C	1.840220	1.204827	-0.163636
C169	C	1.090202	0.454847	-0.836779
C170	C	1.340202	0.704847	-0.586779
C171	C	1.590202	0.954847	-0.336779
C172	C	1.840202	1.204847	-0.086779
C173	C	1.045547	0.401528	-0.795982
C174	C	1.295547	0.651528	-0.545982
C175	C	1.545547	0.901528	-0.295982
C176	C	1.795547	1.151528	-0.045982
C177	C	1.045578	0.401491	-0.949697
C178	C	1.295578	0.651491	-0.699697
C179	C	1.545578	0.901491	-0.449697
C180	C	1.795578	1.151491	-0.199697
C181	C	1.045593	0.401473	-1.033030
C182	C	1.295593	0.651473	-0.783030
C183	C	1.545593	0.901473	-0.533030
C184	C	1.795593	1.151473	-0.283030
C185	C	1.045530	0.401547	-0.712644
C186	C	1.295530	0.651547	-0.462644
C187	C	1.545530	0.901547	-0.212644
C188	C	1.795530	1.151547	0.037356
C189	C	1.045471	0.401663	-0.181267
C190	C	1.295471	0.651663	0.068733
C191	C	1.545471	0.901663	0.318733
C192	C	1.795471	1.151663	0.568733
C193	C	1.045608	0.401457	-0.099459
C194	C	1.295608	0.651457	0.150541
C195	C	1.545608	0.901457	0.400541
C196	C	1.795608	1.151457	0.650541
H197	H	0.619939	0.305045	-0.453701
H198	H	0.869939	0.555045	-0.203701
H199	H	1.119939	0.805045	0.046299
H200	H	1.369939	1.055045	0.296299
C201	C	0.470219	0.289846	-0.466502
C202	C	0.720219	0.539846	-0.216502
C203	C	0.970219	0.789846	0.033498
C204	C	1.220219	1.039846	0.283498
N205	N	0.440388	0.245726	-0.503602
N206	N	0.690388	0.495726	-0.253602
N207	N	0.940388	0.745726	-0.003602
N208	N	1.190388	0.995726	0.246398
H209	H	0.964569	0.304754	-0.938250
H210	H	1.214569	0.554754	-0.688250
H211	H	1.464569	0.804754	-0.438250
H212	H	1.714569	1.054754	-0.188250
C213	C	0.970115	0.928615	-0.447697
C214	C	1.220115	1.178615	-0.197697
C215	C	1.470115	1.428615	0.052303
C216	C	1.720115	1.678615	0.302303
N217	N	0.929516	0.964797	-0.488235
N218	N	1.179516	1.214797	-0.238235
N219	N	1.429516	1.464797	0.011765
N220	N	1.679516	1.714797	0.261765
C221	C	0.460056	0.513509	-0.278471
C222	C	0.710056	0.763509	-0.028471
C223	C	0.960056	1.013509	0.221529
C224	C	1.210056	1.263509	0.471529
N225	N	0.426211	0.557638	-0.241383
N226	N	0.676211	0.807638	0.008617
N227	N	0.926211	1.057638	0.258617
N228	N	1.176211	1.307638	0.508617
C229	C	1.139327	0.513503	-0.797114
C230	C	1.389327	0.763503	-0.547114
C231	C	1.639327	1.013503	-0.297114
C232	C	1.889327	1.263503	-0.047114
N233	N	1.176329	0.557676	-0.767239
N234	N	1.426329	0.807676	-0.517239
N235	N	1.676329	1.057676	-0.267239
N236	N	1.926329	1.307676	-0.017239
H237	H	0.964545	0.304781	-0.798824
H238	H	1.214545	0.554781	-0.548824
H239	H	1.464545	0.804781	-0.298824
H240	H	1.714545	1.054781	-0.048824
H241	H	1.106833	0.886332	-0.311181
H242	H	1.356833	1.136332	-0.061181
H243	H	1.606833	1.386332	0.188819
H244	H	1.856833	1.636332	0.438819
H245	H	0.611169	0.498274	-0.291245
H246	H	0.861169	0.748274	-0.041245
H247	H	1.111169	0.998274	0.208755
H248	H	1.361169	1.248274	0.458755
C249	C	1.139169	0.513658	-0.958527
C250	C	1.389169	0.763658	-0.708527
C251	C	1.639169	1.013658	-0.458527
C252	C	1.889169	1.263658	-0.208527
N253	N	1.175977	0.558036	-0.992341
N254	N	1.425977	0.808036	-0.742341
N255	N	1.675977	1.058036	-0.492341
N256	N	1.925977	1.308036	-0.242341
