data_functionalizedCrystal
_audit_creation_method	'MofGen! by Chris Wilmer'
_symmetry_space_group_name_H-M	'P1'
_symmetry_Int_Tables_number	1
_symmetry_cell_setting	triclinic
loop_
_symmetry_equiv_pos_as_xyz
  x,y,z
_cell_length_a	10.654545
_cell_length_b	15.944493
_cell_length_c	9.730223
_cell_angle_alpha	90.001475
_cell_angle_beta	89.997167
_cell_angle_gamma	83.979061
loop_
_atom_site_label
_atom_site_type_symbol
_atom_site_fract_x
_atom_site_fract_y
_atom_site_fract_z
O1	O	1.666279	0.117961	-0.114256
O2	O	1.300651	0.129206	-0.114260
O3	O	1.493488	0.001363	-0.114270
O4	O	1.473443	0.245804	-0.114247
O5	O	1.493475	0.001360	0.114310
O6	O	1.300639	0.129202	0.114320
O7	O	1.666267	0.117958	0.114323
Zn8	Zn	1.483451	0.123579	0.150614
Zn9	Zn	1.483467	0.123584	-0.150550
O10	O	1.473431	0.245800	0.114333
C11	C	1.253858	0.128379	0.000029
C12	C	1.114447	0.125911	0.000026
C13	C	1.048951	0.124748	0.124626
C14	C	0.917963	0.122415	0.124626
C15	C	0.917977	0.122413	-0.124585
C16	C	1.048964	0.124740	-0.124583
C17	C	1.492662	-0.029938	0.000014
C18	C	1.490206	-0.123201	-0.000003
C19	C	1.603714	-0.358305	0.000024
C20	C	1.542510	-0.409225	-0.112678
C21	C	1.485655	-0.293948	0.000014
C22	C	1.542470	-0.409205	0.112684
C23	C	1.481268	-0.458883	0.000036
C24	C	1.424482	-0.343640	-0.112781
C25	C	1.424460	-0.343616	0.112682
C26	C	1.363169	-0.394504	-0.000047
C27	C	1.488186	-0.198934	-0.000000
C28	C	1.478727	-0.553895	0.000040
C29	C	1.713060	0.118784	0.000031
C30	C	1.852471	0.121252	0.000025
C31	C	1.474256	0.277101	0.000046
C32	C	1.476712	0.370364	0.000054
N33	N	1.483449	0.123576	0.356150
N34	N	1.483479	0.123581	-0.356087
C35	C	1.568866	0.066991	0.428072
C36	C	1.568878	0.066991	0.571955
C37	C	1.398053	0.180168	0.571981
C38	C	1.398036	0.180163	0.428101
H39	H	0.864642	0.121468	0.226087
H40	H	1.374658	-0.315106	-0.208164
O41	O	0.854450	0.121139	-0.245661
C42	C	0.900726	0.049102	-0.321491
H43	H	0.946682	-0.001022	-0.248593
H44	H	0.819368	0.023203	-0.378022
H45	H	0.973547	0.066871	-0.399177
H46	H	1.592347	-0.437849	0.207959
O47	O	1.651734	0.012058	0.642032
C48	C	1.633458	0.024205	0.784454
H49	H	1.533611	0.054976	0.804125
H50	H	1.647462	-0.039321	0.839133
H51	H	1.704523	0.066781	0.825271
H52	H	1.102293	0.125685	-0.226053
H53	H	1.638413	0.020913	0.369492
H54	H	1.328473	0.226241	0.369538
O55	O	1.365207	-0.309458	0.226493
C56	C	1.427776	-0.343032	0.345092
H57	H	1.529334	-0.367050	0.318091
H58	H	1.427409	-0.291808	0.426875
H59	H	1.377182	-0.397384	0.386213
H60	H	1.328513	0.226242	0.630578
O61	O	1.112378	0.125836	0.245789
C62	C	1.026470	0.124327	0.355762
H63	H	0.938308	0.096125	0.319225
H64	H	1.072297	0.084287	0.442904
H65	H	0.999339	0.191348	0.394085
O66	O	1.725032	-0.338961	-0.000376
C67	C	1.786835	-0.372530	-0.119428
H68	H	1.713906	-0.382289	-0.202041
H69	H	1.854083	-0.326866	-0.158792
H70	H	1.842490	-0.435576	-0.093719
O71	O	1.602083	-0.443284	-0.226387
C72	C	1.647167	-0.378710	-0.305553
H73	H	1.658937	-0.322066	-0.237042
H74	H	1.742161	-0.402687	-0.352685
H75	H	1.576864	-0.359164	-0.390946
H76	H	1.261397	-0.410557	-0.000110
