data_functionalizedCrystal
_audit_creation_method	'MofGen! by Chris Wilmer'
_symmetry_space_group_name_H-M	'P1'
_symmetry_Int_Tables_number	1
_symmetry_cell_setting	triclinic
loop_
_symmetry_equiv_pos_as_xyz
  x,y,z
_cell_length_a	16.109302
_cell_length_b	13.262508
_cell_length_c	15.186229
_cell_angle_alpha	105.914579
_cell_angle_beta	89.994701
_cell_angle_gamma	83.968008
loop_
_atom_site_label
_atom_site_type_symbol
_atom_site_fract_x
_atom_site_fract_y
_atom_site_fract_z
O1	O	1.103625	0.134912	-0.040953
O2	O	0.861624	0.151701	-0.036925
O3	O	0.988714	-0.009484	-0.075531
O4	O	0.976535	0.296097	-0.002348
O5	O	0.988706	-0.009486	0.070926
O6	O	0.861616	0.151698	0.109531
O7	O	1.103616	0.134910	0.105503
Zn8	Zn	0.982615	0.143304	0.130771
Zn9	Zn	0.982626	0.143307	-0.062193
O10	O	0.976526	0.296095	0.144109
C11	C	0.830643	0.151019	0.036141
C12	C	0.738340	0.148980	0.035655
C13	C	0.525977	0.144264	0.114351
C14	C	0.439250	0.142336	0.113886
C15	C	0.439270	0.142344	-0.045788
C16	C	0.525996	0.144264	-0.045324
C17	C	0.569347	0.145229	0.034749
C18	C	0.395894	0.141382	0.033821
C19	C	0.301860	0.139292	0.033317
C20	C	0.663387	0.147317	0.035254
C21	C	0.988028	-0.048588	-0.011669
C22	C	0.985986	-0.165103	-0.039578
C23	C	0.980206	-0.493555	0.201095
C24	C	0.982119	-0.384083	0.227318
C25	C	0.983086	-0.329333	0.160597
C26	C	0.982140	-0.384065	0.067647
C27	C	0.980221	-0.493547	0.041422
C28	C	0.983100	-0.329324	0.000923
C29	C	0.982155	-0.384057	-0.092026
C30	C	0.980237	-0.493528	-0.118247
C31	C	0.979269	-0.548278	-0.051526
C32	C	0.985019	-0.219842	0.027149
C33	C	0.985034	-0.219834	-0.132525
C34	C	0.983122	-0.329306	-0.158748
C35	C	1.134598	0.135591	0.032435
C36	C	1.226901	0.137631	0.032915
C37	C	0.977213	0.335199	0.080245
C38	C	0.979255	0.451713	0.108148
N39	N	0.982613	0.143301	0.262463
N40	N	0.982634	0.143301	-0.193887
C41	C	1.038908	0.071953	0.471097
C42	C	1.038910	0.071950	0.563286
C43	C	0.926333	0.214653	0.597474
C44	C	0.926327	0.214650	0.505285
C45	C	0.982619	0.143301	0.442099
C46	C	0.982628	0.143302	0.626477
C47	C	0.982630	0.143299	0.726433
C48	C	0.982616	0.143301	0.342137
H49	H	0.403942	0.141550	0.178706
H50	H	0.403963	0.141560	-0.110980
H51	H	1.084744	0.013851	0.586891
H52	H	0.977717	-0.637420	-0.072872
Br53	Br	1.115302	-0.024880	0.385347
H54	H	0.984641	-0.240195	0.181953
Br55	Br	0.584862	0.145561	-0.153366
Br56	Br	0.986302	-0.145576	0.153290
Br57	Br	0.849942	0.311483	0.683228
H58	H	0.982897	-0.339529	0.302997
H59	H	0.979413	-0.538142	0.255410
Br60	Br	0.978937	-0.567803	-0.244392
H61	H	0.982351	-0.373884	-0.234429
Br62	Br	0.986325	-0.145536	-0.223082
H63	H	0.880486	0.272751	0.481675
H64	H	0.561271	0.145049	0.179552
