data_functionalizedCrystal
_audit_creation_method	'MofGen! by Chris Wilmer'
_symmetry_space_group_name_H-M	'P1'
_symmetry_Int_Tables_number	1
_symmetry_cell_setting	triclinic
loop_
_symmetry_equiv_pos_as_xyz
  x,y,z
_cell_length_a	10.723023
_cell_length_b	10.723024
_cell_length_c	15.455313
_cell_angle_alpha	92.691723
_cell_angle_beta	87.293778
_cell_angle_gamma	84.467709
loop_
_atom_site_label
_atom_site_type_symbol
_atom_site_fract_x
_atom_site_fract_y
_atom_site_fract_z
O1	O	1.662611	0.169612	-0.072120
O2	O	2.162611	0.669612	0.427880
O3	O	1.299459	0.186366	-0.072123
O4	O	1.799459	0.686366	0.427877
O5	O	1.489412	-0.003587	-0.072118
O6	O	1.989412	0.496413	0.427882
O7	O	1.472659	0.359565	-0.072125
O8	O	1.972659	0.859565	0.427875
O9	O	1.478549	0.007230	0.072144
O10	O	1.978549	0.507230	0.572144
O11	O	1.288596	0.197183	0.072139
O12	O	1.788596	0.697183	0.572139
O13	O	1.651749	0.180429	0.072142
O14	O	2.151749	0.680429	0.572142
Cu15	Cu	1.469181	0.189794	0.085313
Cu16	Cu	1.969181	0.689794	0.585313
Cu17	Cu	1.482027	0.177001	-0.085294
Cu18	Cu	1.982027	0.677001	0.414706
O19	O	1.461796	0.370382	0.072137
O20	O	1.961796	0.870382	0.572137
C21	C	1.247528	0.190555	0.000007
C22	C	1.747528	0.690555	0.500007
C23	C	1.108974	0.186908	0.000006
C24	C	1.608974	0.686908	0.500006
C25	C	1.041575	0.190886	0.074737
C26	C	1.541575	0.690886	0.574737
C27	C	0.898372	0.187116	0.074738
C28	C	1.398372	0.687116	0.574738
C29	C	1.482761	-0.044678	0.000012
C30	C	1.982761	0.455322	0.500012
C31	C	1.479114	-0.183233	0.000009
C32	C	1.979114	0.316767	0.500009
C33	C	1.585401	-0.258216	0.000009
C34	C	2.085401	0.241784	0.500009
C35	C	1.581634	-0.401419	0.000005
C36	C	2.081634	0.098581	0.500005
C37	C	1.703680	0.176239	0.000010
C38	C	2.203680	0.676239	0.500010
C39	C	1.842234	0.179886	0.000005
C40	C	2.342234	0.679886	0.500005
C41	C	1.468447	0.411473	0.000005
C42	C	1.968447	0.911473	0.500005
C43	C	1.472095	0.550027	0.000003
C44	C	1.972095	1.050027	0.500003
N45	N	1.460154	0.198791	0.205308
N46	N	1.960154	0.698791	0.705308
N47	N	1.491063	0.167994	-0.205289
N48	N	1.991063	0.667994	0.294711
C49	C	1.540881	0.118122	0.250704
C50	C	2.040881	0.618122	0.750704
C51	C	1.534067	0.124938	0.341512
C52	C	2.034067	0.624938	0.841512
C53	C	1.446530	0.212429	0.386922
C54	C	1.946530	0.712429	0.886922
C55	C	1.365794	0.293101	0.341519
C56	C	1.865794	0.793101	0.841519
C57	C	1.372604	0.286278	0.250713
C58	C	1.872604	0.786278	0.750713
C59	C	1.417137	0.241844	0.658502
C60	C	1.917137	0.741844	1.158502
C61	C	1.410336	0.248663	0.749315
C62	C	1.910336	0.748663	1.249315
C63	C	1.578608	0.080497	0.749301
C64	C	2.078608	0.580497	1.249301
C65	C	1.585415	0.073688	0.658494
C66	C	2.085415	0.573688	1.158494
C67	C	1.504675	0.154355	0.613099
C68	C	2.004675	0.654355	1.113099
N69	N	1.439565	0.219400	0.479742
N70	N	1.939565	0.719400	0.979742
N71	N	1.511634	0.147377	0.520281
N72	N	2.011634	0.647377	1.020281
H73	H	1.060660	0.180709	-0.063974
H74	H	1.560660	0.680709	0.436026
H75	H	1.679187	-0.216393	0.000015
H76	H	2.179187	0.283607	0.500015
O77	O	1.285511	0.373269	0.201750
O78	O	1.785511	0.873269	0.701750
H79	H	1.304935	0.353811	0.130979
H80	H	1.804935	0.853811	0.630979
O81	O	1.354875	-0.238615	0.000004
O82	O	1.854875	0.261385	0.500004
H83	H	1.296618	-0.202616	0.058801
H84	H	1.796618	0.297384	0.558801
H85	H	1.672624	-0.465852	0.000009
H86	H	2.172624	0.034148	0.500009
O87	O	0.821578	0.192125	0.159494
O88	O	1.321578	0.692125	0.659494
H89	H	0.721121	0.188634	0.146194
H90	H	1.221121	0.688634	0.646194
O91	O	1.105556	0.199106	0.159493
O92	O	1.605556	0.699106	0.659493
H93	H	1.174998	0.116046	0.163205
H94	H	1.674998	0.616046	0.663205
H95	H	0.900166	0.176494	-0.063978
H96	H	1.400166	0.676494	0.436022
O97	O	1.351549	-0.364648	0.000008
O98	O	1.851549	0.135352	0.500008
H99	H	1.352171	-0.309082	-0.058791
H100	H	1.852171	0.190918	0.441209
O101	O	1.635291	0.023751	0.201727
O102	O	2.135291	0.523751	0.701727
H103	H	1.690270	-0.031206	0.248554
H104	H	2.190270	0.468794	0.748554
O105	O	1.330062	0.328856	0.609550
O106	O	1.830062	0.828856	1.109550
H107	H	1.386210	0.386873	0.568160
H108	H	1.886210	0.886873	1.068160
H109	H	1.294514	0.364334	0.378497
H110	H	1.794514	0.864334	0.878497
H111	H	1.656694	0.002446	0.621523
H112	H	2.156694	0.502446	1.121523
O113	O	1.621158	0.037955	0.390479
O114	O	2.121158	0.537955	0.890479
H115	H	1.683189	-0.024010	0.343647
H116	H	2.183189	0.475990	0.843647
O117	O	1.665679	-0.006517	0.798260
O118	O	2.165679	0.493483	1.298260
H119	H	1.646235	0.012914	0.869032
H120	H	2.146235	0.512914	1.369032
H121	H	1.339050	0.319914	0.786283
H122	H	1.839050	0.819914	1.286283
