data_functionalizedCrystal
_audit_creation_method	'MofGen! by Chris Wilmer'
_symmetry_space_group_name_H-M	'P1'
_symmetry_Int_Tables_number	1
_symmetry_cell_setting	triclinic
loop_
_symmetry_equiv_pos_as_xyz
  x,y,z
_cell_length_a	15.995292
_cell_length_b	10.489716
_cell_length_c	15.072220
_cell_angle_alpha	90.002992
_cell_angle_beta	89.986330
_cell_angle_gamma	83.998876
loop_
_atom_site_label
_atom_site_type_symbol
_atom_site_fract_x
_atom_site_fract_y
_atom_site_fract_z
O1	O	1.112006	0.164048	-0.073799
O2	O	0.868346	0.184428	-0.073794
O3	O	0.995731	-0.011441	-0.073800
O4	O	0.984621	0.359917	-0.073793
O5	O	0.995699	-0.011430	0.073766
O6	O	0.868314	0.184439	0.073771
O7	O	1.111974	0.164059	0.073767
Zn8	Zn	0.990139	0.174251	0.097198
Zn9	Zn	0.990181	0.174236	-0.097225
O10	O	0.984589	0.359928	0.073772
C11	C	0.837129	0.183604	-0.000011
C12	C	0.744161	0.181117	-0.000010
C13	C	0.406368	0.171975	-0.000020
C14	C	0.430525	0.313349	-0.000347
C15	C	0.527217	0.316036	-0.000010
C16	C	0.573951	0.176512	-0.000015
C17	C	0.544409	0.105838	0.084247
C18	C	0.447609	0.104136	0.084314
C19	C	0.447772	0.101237	-0.083495
C20	C	0.544296	0.106476	-0.084605
C21	C	0.668663	0.179068	-0.000010
C22	C	0.311657	0.169415	-0.000019
C23	C	0.994880	-0.058956	-0.000020
C24	C	0.992383	-0.200551	-0.000028
C25	C	1.070499	-0.299343	-0.000021
C26	C	1.029236	-0.376118	-0.072775
C27	C	1.029187	-0.376071	0.072712
C28	C	0.951152	-0.275462	-0.072842
C29	C	0.951115	-0.275409	0.072711
C30	C	0.909794	-0.352135	-0.000061
C31	C	1.143191	0.164883	-0.000018
C32	C	1.236158	0.167370	-0.000026
C33	C	0.985440	0.407443	-0.000010
C34	C	0.987937	0.549038	-0.000008
N35	N	0.990117	0.174260	0.229887
N36	N	0.990210	0.174217	-0.229914
C37	C	0.990179	0.174231	0.589088
C38	C	0.921785	0.278686	0.551484
C39	C	0.921945	0.279067	0.448659
C40	C	0.990147	0.174246	0.410884
C41	C	1.077688	0.203286	0.448175
C42	C	1.077306	0.204028	0.551032
C43	C	0.971810	0.040427	0.551187
C44	C	0.969811	0.041320	0.448323
C45	C	0.990135	0.174251	0.310171
C46	C	0.990197	0.174229	0.689802
H47	H	0.421070	0.153091	0.147306
N48	N	0.819733	-0.383256	-0.000136
H49	H	0.780707	-0.301091	-0.000695
H50	H	0.809355	-0.435449	-0.054593
N51	N	0.428422	-0.036604	-0.084259
H52	H	0.393015	-0.053205	-0.030826
H53	H	0.396662	-0.053622	-0.140200
H54	H	1.138447	-0.275639	-0.000096
N55	N	0.884512	0.012110	0.416034
H56	H	0.871783	-0.073495	0.440325
H57	H	0.840287	0.081275	0.437088
N58	N	0.585812	-0.030157	0.088410
H59	H	0.570418	-0.078434	0.033825
H60	H	0.648838	-0.029286	0.091132
H61	H	1.062226	-0.420090	-0.134286
N62	N	0.552868	0.389365	-0.080015
H63	H	0.581751	0.465478	-0.059884
H64	H	0.592684	0.331441	-0.117917
H65	H	0.918207	-0.231691	-0.134418
N66	N	0.907458	-0.217097	0.154183
H67	H	0.847083	-0.237254	0.154773
H68	H	0.937086	-0.253887	0.209075
H69	H	1.062167	-0.420011	0.134219
N70	N	0.889015	0.003452	0.585577
H71	H	0.878471	-0.082672	0.560433
H72	H	0.890999	-0.001724	0.652466
N73	N	0.571346	0.170849	0.167321
H74	H	0.602677	0.246065	0.150566
H75	H	0.520062	0.202086	0.203430
H76	H	1.016329	-0.040050	0.422613
H77	H	0.856900	0.261769	0.423448
N78	N	1.146771	0.107046	0.583989
H79	H	1.177510	0.064011	0.531697
H80	H	1.187385	0.151825	0.621132
H81	H	0.432438	0.000481	0.088138
N82	N	0.835345	0.256166	0.584283
H83	H	0.839678	0.178038	0.623839
H84	H	0.810556	0.333439	0.618956
N85	N	0.937243	0.409487	0.585665
H86	H	0.988353	0.401374	0.625408
H87	H	0.947028	0.467299	0.533935
H88	H	0.933758	0.378362	0.424046
N89	N	1.098586	0.333280	0.582810
H90	H	1.108125	0.389240	0.530001
H91	H	1.050582	0.375221	0.619617
H92	H	1.021678	-0.037305	0.575503
H93	H	0.402867	0.367836	-0.060776
N94	N	1.146758	0.105189	0.415763
H95	H	1.148920	0.107065	0.348809
H96	H	1.202422	0.125786	0.440607
N97	N	1.099453	0.331068	0.414043
H98	H	1.055068	0.400901	0.433763
H99	H	1.155904	0.348781	0.438416
N100	N	0.392514	0.385135	0.079256
H101	H	0.408337	0.475853	0.078542
H102	H	0.329308	0.386667	0.077135
N103	N	0.552027	0.389808	0.080134
H104	H	0.500123	0.420698	0.115386
H105	H	0.591590	0.332171	0.118469
H106	H	0.419723	0.145420	-0.147362
H107	H	0.563186	0.157933	-0.146942
H108	H	0.576659	0.004637	-0.089698
