data_functionalizedCrystal
_audit_creation_method	'MofGen! by Chris Wilmer'
_symmetry_space_group_name_H-M	'P1'
_symmetry_Int_Tables_number	1
_symmetry_cell_setting	triclinic
loop_
_symmetry_equiv_pos_as_xyz
  x,y,z
_cell_length_a	14.908571
_cell_length_b	12.759400
_cell_length_c	14.908308
_cell_angle_alpha	93.269141
_cell_angle_beta	90.175053
_cell_angle_gamma	86.710990
loop_
_atom_site_label
_atom_site_type_symbol
_atom_site_fract_x
_atom_site_fract_y
_atom_site_fract_z
Zn1	Zn	1.345342	-0.548282	-0.587598
Zn2	Zn	1.353936	-0.714462	-0.437243
Zn3	Zn	1.203655	-0.528102	-0.428595
Zn4	Zn	1.194964	-0.713214	-0.578895
O5	O	1.274474	-0.626015	-0.508083
O6	O	1.472309	-0.579294	-0.574915
O7	O	1.341235	-0.681818	-0.310271
O8	O	1.222491	-0.383762	-0.449711
O9	O	1.478623	-0.701385	-0.464450
O10	O	1.326587	-0.398588	-0.566529
O11	O	1.230825	-0.544900	-0.303918
O12	O	1.076676	-0.543690	-0.441272
O13	O	1.207677	-0.699258	-0.705874
O14	O	1.070290	-0.679690	-0.551696
O15	O	1.318160	-0.578083	-0.712269
O16	O	1.332807	-0.861313	-0.456011
O17	O	1.216011	-0.860396	-0.560082
C18	C	1.040857	-0.609366	-0.494601
C19	C	0.940914	-0.602270	-0.488855
C20	C	0.746517	-0.730752	-0.592888
C21	C	0.652611	-0.724088	-0.587492
C22	C	0.659193	-0.582274	-0.472673
C23	C	0.753099	-0.588938	-0.478069
C24	C	0.796758	-0.663180	-0.538177
C25	C	0.890666	-0.669848	-0.543568
C26	C	0.897246	-0.528030	-0.428754
C27	C	0.803340	-0.521366	-0.423358
C28	C	1.274422	-0.898977	-0.508061
C29	C	1.274480	-1.015760	-0.508087
C30	C	1.335356	-1.071073	-0.453964
C31	C	1.335410	-1.180802	-0.453995
C32	C	1.213704	-1.179896	-0.562273
C33	C	1.213655	-1.070169	-0.562246
C34	C	1.396181	-1.016664	-0.399805
C35	C	1.457061	-1.071977	-0.345677
C36	C	1.457115	-1.181707	-0.345708
C37	C	1.396289	-1.236123	-0.399867
C38	C	1.509003	-0.642730	-0.521618
C39	C	1.608946	-0.649853	-0.527386
C40	C	1.260990	-0.640783	-0.742609
C41	C	1.255244	-0.647076	-0.842550
C42	C	1.274550	-0.351990	-0.508126
C43	C	1.274582	-0.235216	-0.508144
C44	C	1.359489	-0.532697	-1.037009
C45	C	1.354093	-0.538607	-1.130913
C46	C	1.239052	-0.664798	-1.124262
C47	C	1.244448	-0.658888	-1.030358
C48	C	1.304670	-0.592837	-0.986735
C49	C	1.310070	-0.586934	-0.892830
C50	C	1.195025	-0.713119	-0.886181
C51	C	1.189629	-0.719028	-0.980085
C52	C	1.287957	-0.611233	-0.274473
C53	C	1.293878	-0.604656	-0.174542
H54	H	0.623630	-0.521823	-0.423741
H55	H	0.938163	-0.473010	-0.384202
H56	H	1.506590	-1.027666	-0.301588
F57	F	1.396075	-1.352868	-0.399589
H58	H	0.782065	-0.791208	-0.641826
F59	F	0.599144	-0.796005	-0.645725
F60	F	1.521915	-1.240573	-0.288110
H61	H	1.164085	-1.025132	-0.606319
F62	F	1.374164	-0.516640	-0.846405
F63	F	1.136686	-0.777138	-0.832670
H64	H	1.408528	-0.478921	-1.001491
H65	H	0.767781	-0.460918	-0.374422
F66	F	1.412439	-0.474596	-1.184415
F67	F	1.396315	-0.899907	-0.399976
F68	F	1.148971	-1.237813	-0.619906
H69	H	1.190022	-0.718573	-1.159796
H70	H	1.140596	-0.772803	-1.015615
H71	H	0.926211	-0.730302	-0.592510
