data_functionalizedCrystal
_audit_creation_method	'MofGen! by Chris Wilmer'
_symmetry_space_group_name_H-M	'P1'
_symmetry_Int_Tables_number	1
_symmetry_cell_setting	triclinic
loop_
_symmetry_equiv_pos_as_xyz
  x,y,z
_cell_length_a	10.723023
_cell_length_b	10.723024
_cell_length_c	14.586319
_cell_angle_alpha	89.997376
_cell_angle_beta	89.996956
_cell_angle_gamma	84.467709
loop_
_atom_site_label
_atom_site_type_symbol
_atom_site_fract_x
_atom_site_fract_y
_atom_site_fract_z
O1	O	1.657187	0.175021	-0.076228
O2	O	2.157187	0.675021	0.423772
O3	O	1.294035	0.191775	-0.076232
O4	O	1.794035	0.691775	0.423768
O5	O	1.483988	0.001822	-0.076227
O6	O	1.983988	0.501822	0.423773
O7	O	1.467235	0.364974	-0.076234
O8	O	1.967235	0.864974	0.423766
O9	O	1.483975	0.001819	0.076254
O10	O	1.983975	0.501819	0.576254
O11	O	1.294022	0.191772	0.076249
O12	O	1.794022	0.691772	0.576249
O13	O	1.657174	0.175018	0.076252
O14	O	2.157174	0.675018	0.576252
Cu15	Cu	1.475597	0.183395	0.090173
Cu16	Cu	1.975597	0.683395	0.590173
Cu17	Cu	1.475612	0.183398	-0.090153
Cu18	Cu	1.975612	0.683398	0.409847
O19	O	1.467221	0.364971	0.076247
O20	O	1.967221	0.864971	0.576247
C21	C	1.247529	0.190555	0.000008
C22	C	1.747529	0.690555	0.500008
C23	C	1.108974	0.186908	0.000006
C24	C	1.608974	0.686908	0.500006
C25	C	1.047195	0.185280	0.078995
C26	C	1.547195	0.685280	0.578995
C27	C	0.903992	0.181510	0.078996
C28	C	1.403992	0.681510	0.578996
C29	C	1.482762	-0.044679	0.000012
C30	C	1.982762	0.455321	0.500012
C31	C	1.479114	-0.183233	0.000009
C32	C	1.979114	0.316767	0.500009
C33	C	1.585402	-0.258216	0.000009
C34	C	2.085402	0.241784	0.500009
C35	C	1.581634	-0.401420	0.000006
C36	C	2.081634	0.098580	0.500006
C37	C	1.703680	0.176239	0.000010
C38	C	2.203680	0.676239	0.500010
C39	C	1.842235	0.179886	0.000006
C40	C	2.342235	0.679886	0.500006
C41	C	1.468447	0.411473	0.000006
C42	C	1.968447	0.911473	0.500006
C43	C	1.472095	0.550027	0.000003
C44	C	1.972095	1.050027	0.500003
N45	N	1.475595	0.183392	0.217005
N46	N	1.975595	0.683392	0.717005
N47	N	1.475624	0.183392	-0.216985
N48	N	1.975624	0.683392	0.283015
C49	C	1.559734	0.099309	0.452014
C50	C	2.059734	0.599309	0.952014
C51	C	1.559738	0.099306	0.547995
C52	C	2.059738	0.599306	1.047995
C53	C	1.391476	0.267478	0.548000
C54	C	1.891476	0.767478	1.048000
C55	C	1.391467	0.267474	0.452020
C56	C	1.891467	0.767474	0.952020
C57	C	1.475603	0.183391	0.404030
C58	C	1.975603	0.683391	0.904030
C59	C	1.475616	0.183392	0.595990
C60	C	1.975616	0.683392	1.095990
C61	C	1.475619	0.183390	0.700058
C62	C	1.975619	0.683390	1.200058
C63	C	1.475599	0.183392	0.299956
C64	C	1.975599	0.683392	0.799956
H65	H	1.055849	0.185507	-0.067619
H66	H	1.555849	0.685507	0.432381
H67	H	0.850863	0.180118	0.146621
H68	H	1.350863	0.680118	0.646621
H69	H	1.322952	0.335945	0.412949
H70	H	1.822952	0.835945	0.912949
F71	F	1.649278	0.009812	0.599060
F72	F	2.149278	0.509812	1.099060
F73	F	1.700570	-0.485634	0.000012
F74	F	2.200570	0.014366	0.500012
H75	H	1.385328	-0.225055	0.000002
H76	H	1.885328	0.274945	0.500002
H77	H	1.322976	0.335939	0.587083
H78	H	1.822976	0.835939	1.087083
H79	H	1.100322	0.186670	0.146620
H80	H	1.600322	0.686670	0.646620
F81	F	1.707992	-0.203559	0.000005
F82	F	2.207992	0.296441	0.500005
F83	F	1.649276	0.009817	0.400942
F84	F	2.149276	0.509817	0.900942
F85	F	0.911664	0.181724	-0.088392
F86	F	1.411664	0.681724	0.411608
H87	H	1.381099	-0.385548	0.000009
H88	H	1.881099	0.114452	0.500009
