data_functionalizedCrystal
_audit_creation_method	'MofGen! by Chris Wilmer'
_symmetry_space_group_name_H-M	'P1'
_symmetry_Int_Tables_number	1
_symmetry_cell_setting	triclinic
loop_
_symmetry_equiv_pos_as_xyz
  x,y,z
_cell_length_a	19.188930
_cell_length_b	8.559649
_cell_length_c	7.088929
_cell_angle_alpha	95.344185
_cell_angle_beta	83.831241
_cell_angle_gamma	76.461723
loop_
_atom_site_label
_atom_site_type_symbol
_atom_site_fract_x
_atom_site_fract_y
_atom_site_fract_z
O1	O	-0.907629	-0.216103	-0.159581
O2	O	-0.702920	-0.242953	-0.159448
O3	O	-0.823310	0.003199	-0.159524
O4	O	-0.787240	-0.462255	-0.159505
O5	O	-0.839403	0.036169	0.158441
O6	O	-0.719013	-0.209983	0.158517
O7	O	-0.923722	-0.183133	0.158384
Cu8	Cu	-0.822837	-0.193548	0.187483
Cu9	Cu	-0.803805	-0.232538	-0.188547
O10	O	-0.803333	-0.429285	0.158460
C11	C	-0.834090	0.079233	-0.000547
C12	C	-0.842226	0.256668	-0.000563
C13	C	-0.685002	-0.225596	-0.000449
C14	C	-0.607637	-0.222980	-0.000399
C15	C	-0.941640	-0.200490	-0.000620
C16	C	-1.019005	-0.203108	-0.000682
C17	C	-0.555159	-0.367421	-0.000422
C18	C	-0.482463	-0.364970	-0.000444
C19	C	-0.462245	-0.218073	-0.000479
C20	C	-0.514734	-0.073612	-0.000444
C21	C	-0.587430	-0.076065	-0.000404
N22	N	-0.354655	-0.117016	-0.108778
N23	N	-0.285596	-0.114695	-0.108820
C24	C	-0.243218	-0.210672	-0.000596
N25	N	-0.272505	-0.309083	0.107648
N26	N	-0.341570	-0.311409	0.107682
C27	C	-0.383421	-0.215396	-0.000522
C28	C	-0.111914	-0.352465	-0.000640
C29	C	-0.039217	-0.350006	-0.000650
C30	C	-0.071489	-0.058646	-0.000670
C31	C	-0.144185	-0.061107	-0.000641
C32	C	-0.164392	-0.208021	-0.000636
C33	C	-0.792553	-0.505319	-0.000521
C34	C	-0.784416	-0.682755	-0.000518
N35	N	-0.836228	-0.166122	0.451963
N36	N	-0.790421	-0.259951	-0.453027
H37	H	-0.571606	-0.487050	-0.000422
O38	O	-0.733863	-0.376035	0.449409
C39	C	-0.760224	-0.486244	0.333624
H40	H	-0.816765	-0.425178	0.303770
H41	H	-0.762580	-0.596395	0.410649
C42	C	-0.640018	-0.615329	0.180092
C43	C	-0.709460	-0.540322	0.143412
H44	H	-0.608703	-0.648694	0.062764
H45	H	-0.622257	-0.541084	0.258104
H46	H	-0.641991	-0.707112	0.244284
H47	H	-0.707487	-0.448530	0.079243
H48	H	-0.727219	-0.614553	0.065385
O49	O	-0.131431	-0.495299	-0.000530
C50	C	-0.069518	-0.622269	-0.000584
H51	H	-0.025467	-0.571570	0.059590
H52	H	-0.049126	-0.682620	-0.153127
C53	C	-0.143045	-0.810194	0.050227
C54	C	-0.088942	-0.747926	0.124149
H55	H	-0.155026	-0.887710	0.127160
H56	H	-0.184757	-0.724654	0.050256
H57	H	-0.126044	-0.860475	-0.076891
H58	H	-0.105947	-0.697629	0.251254
H59	H	-0.047233	-0.833461	0.124144
O60	O	-0.892842	-0.049921	0.549119
C61	C	-0.887410	0.103173	0.500395
H62	H	-0.853162	0.087779	0.355045
H63	H	-0.860920	0.163874	0.613047
C64	C	-1.005588	0.228110	0.669861
C65	C	-0.963529	0.209203	0.491332
H66	H	-1.052542	0.293519	0.664279
H67	H	-1.009247	0.124969	0.702695
H68	H	-0.983505	0.278689	0.763719
H69	H	-0.985608	0.158607	0.397483
H70	H	-0.959876	0.312338	0.458482
O71	O	-0.195120	0.079211	-0.000981
C72	C	-0.178852	0.151374	-0.165649
H73	H	-0.143620	0.054876	-0.280753
H74	H	-0.148593	0.247491	-0.128447
C75	C	-0.292820	0.349238	-0.098921
C76	C	-0.249553	0.230715	-0.240299
H77	H	-0.336431	0.398186	-0.144966
H78	H	-0.303780	0.300626	0.012024
H79	H	-0.267596	0.429320	-0.067932
H80	H	-0.274773	0.150626	-0.271269
H81	H	-0.238599	0.279316	-0.351252
H82	H	-0.055023	0.060948	-0.000817
O83	O	-0.495045	0.069007	-0.000824
C84	C	-0.445640	0.062054	-0.165505
H85	H	-0.452587	-0.033285	-0.280586
H86	H	-0.388088	0.028634	-0.128309
C87	C	-0.451501	0.345487	-0.098839
C88	C	-0.460037	0.228399	-0.240190
H89	H	-0.460378	0.448098	-0.144905
H90	H	-0.484783	0.350172	0.012114
H91	H	-0.403540	0.317617	-0.067855
H92	H	-0.507999	0.256260	-0.271154
H93	H	-0.426763	0.223723	-0.351151
H94	H	-0.439728	-0.482594	-0.000458
H95	H	-0.630159	0.041560	-0.000386
H96	H	-0.728698	0.233363	-0.000475
H97	H	-0.897949	0.340561	-0.000584
H98	H	0.003510	-0.467631	-0.000658
