data_functionalizedCrystal
_audit_creation_method	'MofGen! by Chris Wilmer'
_symmetry_space_group_name_H-M	'P1'
_symmetry_Int_Tables_number	1
_symmetry_cell_setting	triclinic
loop_
_symmetry_equiv_pos_as_xyz
  x,y,z
_cell_length_a	14.971486
_cell_length_b	13.330367
_cell_length_c	14.971486
_cell_angle_alpha	89.995151
_cell_angle_beta	96.385871
_cell_angle_gamma	90.002597
loop_
_atom_site_label
_atom_site_type_symbol
_atom_site_fract_x
_atom_site_fract_y
_atom_site_fract_z
O1	O	1.186949	0.083309	-0.116562
O2	O	1.686949	0.583309	0.383438
O3	O	0.926549	0.083336	-0.130521
O4	O	1.426549	0.583336	0.369479
O5	O	1.063728	0.083314	0.006659
O6	O	1.563728	0.583314	0.506659
O7	O	1.049769	0.083330	-0.253742
O8	O	1.549769	0.583330	0.246258
O9	O	1.063708	-0.083533	0.006662
O10	O	1.563708	0.416467	0.506662
O11	O	0.926529	-0.083511	-0.130518
O12	O	1.426529	0.416489	0.369482
O13	O	1.186929	-0.083539	-0.116559
O14	O	1.686929	0.416461	0.383441
Cu15	Cu	1.056727	-0.098759	-0.123538
Cu16	Cu	1.556727	0.401241	0.376462
Cu17	Cu	1.056750	0.098557	-0.123542
Cu18	Cu	1.556750	0.598557	0.376458
O19	O	1.049749	-0.083517	-0.253738
O20	O	1.549749	0.416483	0.246262
C21	C	0.893214	-0.000084	-0.129895
C22	C	1.393214	0.499916	0.370105
C23	C	0.793917	-0.000074	-0.128024
C24	C	1.293917	0.499926	0.371976
N25	N	1.056717	-0.237541	-0.123535
N26	N	1.556717	0.262459	0.376465
C27	C	0.736691	-0.000070	-0.208614
C28	C	1.236691	0.499930	0.291386
C29	C	0.643392	-0.000085	-0.206850
C30	C	1.143392	0.499915	0.293150
C31	C	0.607320	-0.000097	-0.124497
C32	C	1.107320	0.499903	0.375503
C33	C	0.664552	-0.000103	-0.043902
C34	C	1.164552	0.499897	0.456098
C35	C	0.757850	-0.000095	-0.045666
C36	C	1.257850	0.499905	0.454334
C37	C	0.470090	-0.000117	-0.040231
C38	C	0.970090	0.499883	0.459769
C39	C	0.376786	-0.000123	-0.038466
C40	C	0.876786	0.499877	0.461534
C41	C	0.355632	-0.000107	-0.201415
C42	C	0.855632	0.499893	0.298585
C43	C	0.448930	-0.000099	-0.203179
C44	C	0.948930	0.499901	0.296821
C45	C	0.506156	-0.000104	-0.122584
C46	C	1.006156	0.499896	0.377416
C47	C	0.996005	-0.710154	-0.184261
C48	C	1.496005	-0.210154	0.315739
C49	C	1.117520	-0.710141	-0.062816
C50	C	1.617520	-0.210141	0.437184
C51	C	1.117510	-0.605123	-0.062813
C52	C	1.617510	-0.105123	0.437187
C53	C	1.056747	-0.552615	-0.123536
C54	C	1.556747	-0.052615	0.376464
C55	C	0.995995	-0.605126	-0.184262
C56	C	1.495995	-0.105126	0.315738
C57	C	1.178268	-0.552604	-0.002094
C58	C	1.678268	-0.052604	0.497906
C59	C	1.178261	-0.447579	-0.002090
C60	C	1.678261	0.052421	0.497910
C61	C	1.117493	-0.395070	-0.062809
C62	C	1.617493	0.104930	0.437191
C63	C	1.056737	-0.447587	-0.123537
C64	C	1.556737	0.052413	0.376463
C65	C	0.995974	-0.395080	-0.184260
C66	C	1.495974	0.104920	0.315740
C67	C	0.935213	-0.447595	-0.244984
C68	C	1.435213	0.052405	0.255016
C69	C	0.935227	-0.552617	-0.244981
C70	C	1.435227	-0.052617	0.255019
C71	C	1.117480	-0.290048	-0.062812
C72	C	1.617480	0.209952	0.437188
C73	C	0.995964	-0.290052	-0.184261
C74	C	1.495964	0.209948	0.315739
C75	C	1.220263	-0.000116	-0.117185
C76	C	1.720263	0.499884	0.382815
C77	C	1.319561	-0.000120	-0.119056
C78	C	1.819561	0.499880	0.380944
C79	C	1.063094	-0.000109	0.039985
C80	C	1.563094	0.499891	0.539985
C81	C	1.061223	-0.000108	0.139282
C82	C	1.561223	0.499892	0.639282
N83	N	1.056768	0.237338	-0.123538
N84	N	1.556768	0.737338	0.376462
C85	C	1.050384	-0.000092	-0.287065
C86	C	1.550384	0.499908	0.212935
C87	C	1.052254	-0.000086	-0.386362
C88	C	1.552254	0.499914	0.113638
C89	C	1.141812	-0.000117	0.196507
C90	C	1.641812	0.499883	0.696507
C91	C	1.140049	-0.000107	0.289807
C92	C	1.640049	0.499893	0.789807
C93	C	1.057696	-0.000094	0.325879
C94	C	1.557696	0.499906	0.825879
C95	C	0.977101	-0.000082	0.268646
C96	C	1.477101	0.499918	0.768646
C97	C	0.978865	-0.000085	0.175349
C98	C	1.478865	0.499915	0.675349
C99	C	0.973430	-0.000078	0.463109
C100	C	1.473430	0.499922	0.963109
C101	C	0.971665	-0.000077	0.556413
C102	C	1.471665	0.499923	1.056413
C103	C	1.134614	-0.000099	0.577567
C104	C	1.634614	0.499901	1.077567
C105	C	1.136378	-0.000103	0.484269
C106	C	1.636378	0.499897	0.984269
C107	C	1.055782	-0.000092	0.427043
C108	C	1.555782	0.499908	0.927043
H109	H	0.766054	-0.000060	-0.275675
H110	H	1.266054	0.499940	0.224325
H111	H	0.635175	-0.000127	0.023152
H112	H	1.135175	0.499873	0.523152
Cl113	Cl	0.858834	-0.381574	-0.321325
Cl114	Cl	1.358834	0.118426	0.178675
Cl115	Cl	1.245348	-0.000143	0.151169
Cl116	Cl	1.745348	0.499857	0.651169
Cl117	Cl	0.868134	-0.000062	0.601760
Cl118	Cl	1.368134	0.499938	1.101760
H119	H	0.907800	-0.000067	0.416517
H120	H	1.407800	0.499933	0.916517
H121	H	1.200238	-0.000105	0.624165
H122	H	1.700238	0.499895	1.124165
H123	H	0.804443	-0.000098	0.019958
H124	H	1.304443	0.499902	0.519958
Cl125	Cl	1.239909	-0.000113	0.438922
Cl126	Cl	1.739909	0.499887	0.938922
Cl127	Cl	0.873570	-0.000054	0.313995
Cl128	Cl	1.373570	0.499946	0.813995
H129	H	1.205673	-0.000116	0.336396
H130	H	1.705673	0.499884	0.836396
Cl131	Cl	0.919567	-0.224050	-0.260599
Cl132	Cl	1.419567	0.275950	0.239401
Cl133	Cl	1.254658	-0.618611	0.074235
Cl134	Cl	1.754658	-0.118611	0.574235
H135	H	0.885758	-0.595381	-0.294422
H136	H	1.385758	-0.095381	0.205578
Cl137	Cl	0.877548	-0.000070	0.103407
Cl138	Cl	1.377548	0.499930	0.603407
Cl139	Cl	1.193911	-0.776148	0.013513
Cl140	Cl	1.693911	-0.276148	0.513513
H141	H	0.596802	-0.000081	-0.272474
H142	H	1.096802	0.499919	0.227526
Cl143	Cl	1.254640	-0.381567	0.074249
Cl144	Cl	1.754640	0.118433	0.574249
H145	H	0.946532	-0.752915	-0.233699
H146	H	1.446532	-0.252915	0.266301
H147	H	0.478296	-0.000081	-0.270239
H148	H	0.978296	0.499919	0.229761
Cl149	Cl	0.283691	-0.000104	-0.302736
Cl150	Cl	0.783691	0.499896	0.197264
H151	H	0.516682	-0.000123	0.025399
H152	H	1.016682	0.499877	0.525399
Cl153	Cl	0.331439	-0.000171	0.065065
Cl154	Cl	0.831439	0.499829	0.565065
Cl155	Cl	1.193864	-0.224036	0.013516
Cl156	Cl	1.693864	0.275964	0.513516
