data_functionalizedCrystal
_audit_creation_method	'MofGen! by Chris Wilmer'
_symmetry_space_group_name_H-M	'P1'
_symmetry_Int_Tables_number	1
_symmetry_cell_setting	triclinic
loop_
_symmetry_equiv_pos_as_xyz
  x,y,z
_cell_length_a	15.944564
_cell_length_b	15.944551
_cell_length_c	14.421503
_cell_angle_alpha	89.996660
_cell_angle_beta	90.003143
_cell_angle_gamma	83.501336
loop_
_atom_site_label
_atom_site_type_symbol
_atom_site_fract_x
_atom_site_fract_y
_atom_site_fract_z
O1	O	-1.114523	-0.108371	-0.077017
O2	O	-0.869974	-0.121716	-0.077040
O3	O	-0.998927	0.007231	-0.077020
O4	O	-0.985570	-0.237318	-0.077038
O5	O	-0.998905	0.007211	0.077204
O6	O	-0.869953	-0.121736	0.077183
O7	O	-1.114501	-0.108391	0.077206
Cu8	Cu	-0.992225	-0.115065	0.091277
Cu9	Cu	-0.992250	-0.115042	-0.091110
O10	O	-0.985549	-0.237338	0.077186
C11	C	-0.838670	-0.121170	0.000069
C12	C	-0.745425	-0.119504	0.000060
C13	C	-0.530569	-0.035589	0.000084
C14	C	-0.469560	-0.074539	-0.075959
C15	C	-0.574700	-0.116488	0.000071
C16	C	-0.469561	-0.074578	0.076093
C17	C	-0.409788	-0.113570	0.000086
C18	C	-0.514919	-0.155461	-0.076035
C19	C	-0.514926	-0.155488	0.076086
C20	C	-0.453935	-0.194497	0.000024
C21	C	-0.669701	-0.118167	0.000062
C22	C	-0.314787	-0.111898	0.000089
N23	N	-0.992214	-0.115080	0.219558
C24	C	-0.998361	0.038515	0.000092
C25	C	-0.996699	0.131761	0.000093
C26	C	-0.145807	-0.108925	0.000096
C27	C	-0.239057	-0.110558	0.000098
C28	C	-0.986114	-0.268622	0.000072
C29	C	-0.987777	-0.361868	0.000065
C30	C	-0.912795	0.346622	0.000072
C31	C	-0.951747	0.407628	0.076117
C32	C	-0.993692	0.302487	0.000085
C33	C	-0.951787	0.407630	-0.075935
C34	C	-0.990781	0.467400	0.000074
C35	C	-1.032666	0.362265	0.076193
C36	C	-1.032695	0.362261	-0.075927
C37	C	-1.071705	0.423249	0.000136
C38	C	-0.995366	0.207485	0.000092
C39	C	-0.989113	0.562401	0.000073
N40	N	-0.992269	-0.115020	-0.219392
C41	C	-0.932576	-0.174679	0.469202
C42	C	-1.008475	-0.190989	0.531011
C43	C	-0.992234	-0.115060	0.408719
C44	C	-0.916354	-0.098769	0.531005
C45	C	-0.992247	-0.115043	0.591441
C46	C	-1.068172	-0.131409	0.469167
C47	C	-0.976001	-0.039156	0.469156
C48	C	-1.051955	-0.055434	0.530936
C49	C	-0.992225	-0.115072	0.303458
C50	C	-0.992264	-0.115030	0.696700
H51	H	-0.449459	-0.040314	-0.140243
O52	O	-1.151893	0.462774	0.000355
C53	C	-1.194213	0.439631	0.080625
H54	H	-1.145982	0.417721	0.136402
H55	H	-1.237550	0.496316	0.107168
H56	H	-1.233325	0.386144	0.063212
O57	O	-0.832677	0.306921	0.000313
C58	C	-0.790319	0.329911	0.080624
H59	H	-0.838530	0.351893	0.136387
H60	H	-0.747110	0.273125	0.107156
H61	H	-0.751067	0.383305	0.063270
O62	O	-0.570348	0.044498	0.000169
C63	C	-0.620676	0.057238	0.080421
H64	H	-0.595507	0.010412	0.136283
H65	H	-0.618631	0.124362	0.106840
H66	H	-0.688585	0.047243	0.063037
H67	H	-1.066890	0.342137	-0.140215
O68	O	-1.024729	-0.267615	0.563388
C69	C	-0.961691	-0.330303	0.531923
H70	H	-0.902094	-0.300179	0.514578
H71	H	-0.947065	-0.379735	0.588499
H72	H	-0.984938	-0.361687	0.467249
O73	O	-1.144672	-0.148014	0.436751
C74	C	-1.143727	-0.147867	0.338991
H75	H	-1.075860	-0.161007	0.313423
H76	H	-1.182093	-0.198874	0.312015
H77	H	-1.172465	-0.083603	0.312483
O78	O	-0.414273	-0.274630	-0.000151
C79	C	-0.362907	-0.286935	-0.079663
H80	H	-0.346549	-0.223310	-0.105842
H81	H	-0.302386	-0.328759	-0.061390
H82	H	-0.398246	-0.318687	-0.136052
O83	O	-0.910977	0.431466	-0.152703
C84	C	-0.883208	0.359565	-0.206071
H85	H	-0.923325	0.306747	-0.189192
H86	H	-0.889565	0.375886	-0.282900
H87	H	-0.814280	0.337922	-0.189277
O88	O	-1.112274	0.004738	0.562923
C89	C	-1.154816	0.046322	0.487276
H90	H	-1.147962	0.003641	0.423677
H91	H	-1.224551	0.061653	0.504957
H92	H	-1.126337	0.107297	0.472023
O93	O	-0.538915	-0.196182	-0.152791
C94	C	-0.627212	-0.197247	-0.151879
H95	H	-0.657404	-0.143333	-0.106810
H96	H	-0.652669	-0.189298	-0.225605
H97	H	-0.642962	-0.259968	-0.122485
O98	O	-0.910841	0.431706	0.152709
C99	C	-0.840799	0.472427	0.125407
H100	H	-0.851373	0.498327	0.052140
H101	H	-0.832960	0.526560	0.175144
H102	H	-0.781429	0.425323	0.126860
O103	O	-0.839866	-0.082227	0.563518
C104	C	-0.849907	-0.007890	0.617241
H105	H	-0.917556	0.003391	0.643884
H106	H	-0.804491	-0.014885	0.678527
H107	H	-0.835794	0.047933	0.572758
H108	H	-0.962235	0.025007	0.441965
O109	O	-0.538920	-0.196160	0.152871
C110	C	-0.516057	-0.153310	0.232893
H111	H	-0.509293	-0.084827	0.214680
H112	H	-0.566979	-0.155370	0.288071
H113	H	-0.453416	-0.185081	0.260637
O114	O	-0.445559	-0.033635	0.152693
C115	C	-0.404807	0.036390	0.125401
H116	H	-0.425617	0.056319	0.052266
H117	H	-0.422316	0.090988	0.175343
H118	H	-0.333535	0.018488	0.126527
O119	O	-1.073384	0.338265	0.152950
C120	C	-1.074443	0.249967	0.152036
H121	H	-1.020530	0.219779	0.106965
H122	H	-1.066491	0.224508	0.225762
H123	H	-1.137164	0.234214	0.122645
O124	O	-0.872553	-0.234915	0.436741
C125	C	-0.910987	-0.292840	0.381650
H126	H	-0.974029	-0.261495	0.354511
H127	H	-0.868050	-0.313591	0.320700
H128	H	-0.921960	-0.350274	0.425190
