data_functionalizedCrystal
_audit_creation_method	'MofGen! by Chris Wilmer'
_symmetry_space_group_name_H-M	'P1'
_symmetry_Int_Tables_number	1
_symmetry_cell_setting	triclinic
loop_
_symmetry_equiv_pos_as_xyz
  x,y,z
_cell_length_a	18.101398
_cell_length_b	21.295417
_cell_length_c	18.101389
_cell_angle_alpha	90.022566
_cell_angle_beta	90.009745
_cell_angle_gamma	90.026064
loop_
_atom_site_label
_atom_site_type_symbol
_atom_site_fract_x
_atom_site_fract_y
_atom_site_fract_z
Zn1	Zn	1.132124	-0.250750	0.418529
Zn2	Zn	1.465457	0.082583	0.751863
Zn3	Zn	1.798791	0.415917	1.085196
Zn4	Zn	1.132021	-0.356003	0.294679
Zn5	Zn	1.465354	-0.022670	0.628012
Zn6	Zn	1.798688	0.310663	0.961345
Zn7	Zn	1.008283	-0.250744	0.294722
Zn8	Zn	1.341616	0.082589	0.628055
Zn9	Zn	1.674950	0.415923	0.961389
Zn10	Zn	1.008235	-0.355977	0.418499
Zn11	Zn	1.341568	-0.022644	0.751832
Zn12	Zn	1.674902	0.310690	1.085166
O13	O	1.070166	-0.303369	0.356607
O14	O	1.403499	0.029965	0.689941
O15	O	1.736832	0.363298	1.023274
O16	O	1.235743	-0.264726	0.402095
O17	O	1.569077	0.068608	0.735428
O18	O	1.902410	0.401941	1.068762
O19	O	1.115584	-0.342049	0.191052
O20	O	1.448917	-0.008716	0.524385
O21	O	1.782251	0.324618	0.857718
O22	O	1.024774	-0.162655	0.311176
O23	O	1.358107	0.170678	0.644509
O24	O	1.691440	0.504011	0.977843
O25	O	1.235668	-0.342055	0.311102
O26	O	1.569001	-0.008722	0.644436
O27	O	1.902334	0.324612	0.977769
O28	O	1.115759	-0.162660	0.402137
O29	O	1.449093	0.170674	0.735470
O30	O	1.782426	0.504007	1.068803
O31	O	1.024674	-0.264715	0.191083
O32	O	1.358007	0.068618	0.524417
O33	O	1.691341	0.401951	0.857750
O34	O	0.904644	-0.264690	0.311147
O35	O	1.237977	0.068644	0.644480
O36	O	1.571310	0.401977	0.977813
O37	O	1.024692	-0.342010	0.522136
O38	O	1.358025	-0.008677	0.855469
O39	O	1.691359	0.324657	1.188802
O40	O	0.904608	-0.342004	0.402085
O41	O	1.237942	-0.008671	0.735418
O42	O	1.571275	0.324663	1.068752
O43	O	1.115713	-0.264700	0.522158
O44	O	1.449046	0.068633	0.855491
O45	O	1.782379	0.401967	1.188825
O46	O	1.115538	-0.444089	0.311073
O47	O	1.448871	-0.110756	0.644406
O48	O	1.782204	0.222577	0.977740
O49	O	1.024592	-0.444070	0.402043
O50	O	1.357926	-0.110737	0.735376
O51	O	1.691259	0.222597	1.068710
C52	C	0.877755	-0.303344	0.356618
C53	C	1.211089	0.029990	0.689951
C54	C	1.544422	0.363323	1.023284
C55	C	0.795441	-0.303348	0.356640
C56	C	1.128774	0.029985	0.689973
C57	C	1.462108	0.363318	1.023306
C58	C	0.496350	-0.303385	0.356609
C59	C	0.829683	0.029948	0.689942
C60	C	1.163017	0.363281	1.023275
C61	C	0.527678	-0.352265	0.413542
C62	C	0.861011	-0.018931	0.746875
C63	C	1.194345	0.314402	1.080209
C64	C	0.613296	-0.352112	0.413776
C65	C	0.946630	-0.018778	0.747109
C66	C	1.279963	0.314555	1.080443
C67	C	0.644733	-0.303368	0.356624
C68	C	0.978066	0.029966	0.689957
C69	C	1.311399	0.363299	1.023291
C70	C	0.613677	-0.237068	0.377957
C71	C	0.947011	0.096266	0.711291
C72	C	1.280344	0.429599	1.044624
C73	C	0.528032	-0.237361	0.378362
C74	C	0.861366	0.095972	0.711695
C75	C	1.194699	0.429305	1.045029
C76	C	0.527898	-0.320222	0.278204
C77	C	0.861231	0.013112	0.611538
C78	C	1.194564	0.346445	0.944871
C79	C	0.613548	-0.321676	0.278623
C80	C	0.946881	0.011657	0.611957
C81	C	1.280214	0.344990	0.945290
C82	C	0.728592	-0.303353	0.356631
C83	C	1.061925	0.029980	0.689965
C84	C	1.395259	0.363313	1.023298
C85	C	0.412491	-0.303395	0.356603
C86	C	0.745824	0.029938	0.689936
C87	C	1.079157	0.363272	1.023270
C88	C	1.070069	-0.466920	0.356566
C89	C	1.403402	-0.133587	0.689900
C90	C	1.736735	0.199746	1.023233
C91	C	1.070095	-0.536888	0.356573
C92	C	1.403428	-0.203555	0.689907
C93	C	1.736762	0.129778	1.023240
C94	C	1.117492	-0.569744	0.309254
C95	C	1.450825	-0.236411	0.642587
C96	C	1.784159	0.096923	0.975920
C97	C	1.117527	-0.635487	0.309270
C98	C	1.450860	-0.302153	0.642604
C99	C	1.784193	0.031180	0.975937
C100	C	1.070151	-0.668371	0.356599
C101	C	1.403484	-0.335037	0.689932
C102	C	1.736818	-0.001704	1.023266
C103	C	1.022751	-0.635507	0.403928
C104	C	1.356084	-0.302174	0.737261
C105	C	1.689417	0.031160	1.070594
C106	C	1.022722	-0.569766	0.403915
C107	C	1.356056	-0.236432	0.737248
C108	C	1.689389	0.096901	1.070582
N109	N	1.005367	-0.771633	0.362248
N110	N	1.338700	-0.438300	0.695581
N111	N	1.672033	-0.104966	1.028915
N112	N	1.005396	-0.834084	0.362256
N113	N	1.338729	-0.500751	0.695589
N114	N	1.672062	-0.167418	1.028923
C115	C	1.070234	-0.866445	0.356641
C116	C	1.403567	-0.533112	0.689975
C117	C	1.736901	-0.199779	1.023308
N118	N	1.135044	-0.833996	0.351004
N119	N	1.468377	-0.500662	0.684338
N120	N	1.801711	-0.167329	1.017671
N121	N	1.135014	-0.771539	0.350993
N122	N	1.468348	-0.438205	0.684326
N123	N	1.801681	-0.104872	1.017659
C124	C	1.070177	-0.739656	0.356618
C125	C	1.403510	-0.406323	0.689952
C126	C	1.736843	-0.072989	1.023285
C127	C	1.117673	-0.970587	0.309337
C128	C	1.451006	-0.637254	0.642671
C129	C	1.784340	-0.303920	0.976004
C130	C	1.117709	-1.036331	0.309359
C131	C	1.451042	-0.702997	0.642692
C132	C	1.784376	-0.369664	0.976026
C133	C	1.022926	-1.036350	0.404013
C134	C	1.356259	-0.703016	0.737346
C135	C	1.689593	-0.369683	1.070679
C136	C	1.022897	-0.970607	0.403995
C137	C	1.356230	-0.637274	0.737328
C138	C	1.689563	-0.303941	1.070661
C139	C	1.070269	-0.937730	0.356653
C140	C	1.403602	-0.604396	0.689986
C141	C	1.736936	-0.271063	1.023320
C142	C	1.263328	-0.303394	0.356597
C143	C	1.596661	0.029939	0.689931
C144	C	1.929994	0.363273	1.023264
C145	C	1.345642	-0.303405	0.356593
C146	C	1.678975	0.029929	0.689926
C147	C	2.012308	0.363262	1.023260
C148	C	1.070209	-0.303353	0.549769
C149	C	1.403542	0.029981	0.883102
C150	C	1.736875	0.363314	1.216436
C151	C	1.070227	-0.303346	0.632083
C152	C	1.403560	0.029987	0.965417
C153	C	1.736893	0.363321	1.298750
C154	C	1.070283	-0.139178	0.356665
C155	C	1.403617	0.194155	0.689998
C156	C	1.736950	0.527488	1.023331
C157	C	1.070334	-0.069210	0.356689
C158	C	1.403667	0.264123	0.690022
C159	C	1.737000	0.597457	1.023356
C160	C	1.070166	-0.303339	0.164197
C161	C	1.403499	0.029994	0.497530
C162	C	1.736832	0.363328	0.830863
C163	C	1.070291	-0.303168	0.081883
C164	C	1.403624	0.030165	0.415216
C165	C	1.736958	0.363498	0.748550
C166	C	1.070270	-0.303228	0.931174
C167	C	1.403603	0.030105	1.264508
C168	C	1.736937	0.363439	1.597841
C169	C	1.012805	-0.351714	0.899835
C170	C	1.346138	-0.018381	1.233169
C171	C	1.679472	0.314952	1.566502
C172	C	1.012960	-0.351939	0.814217
C173	C	1.346294	-0.018606	1.147550
C174	C	1.679627	0.314727	1.480884
C175	C	1.070248	-0.303286	0.782792
C176	C	1.403581	0.030047	1.116125
C177	C	1.736915	0.363380	1.449458
C178	C	1.148273	-0.321298	0.813876
C179	C	1.481607	0.012035	1.147209
C180	C	1.814940	0.345368	1.480543
C181	C	1.147953	-0.321617	0.899521
C182	C	1.481287	0.011717	1.232855
C183	C	1.814620	0.345050	1.566188
C184	C	1.050388	-0.236622	0.899609
C185	C	1.383721	0.096712	1.232943
C186	C	1.717054	0.430045	1.566276
C187	C	1.048652	-0.237006	0.813959
C188	C	1.381985	0.096327	1.147292
C189	C	1.715318	0.429660	1.480626
C190	C	1.070240	-0.303318	0.698932
C191	C	1.403574	0.030015	1.032266
C192	C	1.736907	0.363348	1.365599
C193	C	1.070283	-0.303197	1.015034
C194	C	1.403616	0.030136	1.348367
C195	C	1.736949	0.363469	1.681701
H196	H	0.507063	-0.401591	0.400320
H197	H	0.840397	-0.068257	0.733653
H198	H	1.173730	0.265076	1.066987
Cl199	Cl	1.174749	-0.395674	0.780761
Cl200	Cl	1.508082	-0.062340	1.114095
Cl201	Cl	1.841416	0.270993	1.447428
Cl202	Cl	1.033269	-0.428156	0.782576
Cl203	Cl	1.366602	-0.094823	1.115910
Cl204	Cl	1.699936	0.238511	1.449243
H205	H	0.994480	-0.220212	0.921211
H206	H	1.327814	0.113121	1.254544
H207	H	1.661147	0.446454	1.587878
Cl208	Cl	0.959995	-0.216036	0.782603
Cl209	Cl	1.293328	0.117297	1.115936
Cl210	Cl	1.626662	0.450630	1.449269
H211	H	0.506167	-0.341268	0.471298
H212	H	0.839501	-0.007934	0.804632
H213	H	1.172834	0.325399	1.137965
H214	H	0.634041	-0.199662	0.337784
H215	H	0.967375	0.133671	0.671117
H216	H	1.300708	0.467004	1.004450
Cl217	Cl	0.963304	-0.929300	0.463482
Cl218	Cl	1.296638	-0.595967	0.796816
Cl219	Cl	1.629971	-0.262634	1.130149
H220	H	1.156067	-0.542977	0.270707
H221	H	1.489401	-0.209644	0.604041
H222	H	1.822734	0.123689	0.937374
Cl223	Cl	1.115007	-0.180847	0.930901
Cl224	Cl	1.448341	0.152486	1.264234
Cl225	Cl	1.781674	0.485820	1.597568
H226	H	0.984355	-1.063123	0.442552
H227	H	1.317688	-0.729790	0.775885
H228	H	1.651022	-0.396457	1.109218
H229	H	0.633799	-0.340973	0.471868
H230	H	0.967132	-0.007639	0.805202
H231	H	1.300465	0.325694	1.138535
Cl232	Cl	1.177225	-0.929252	0.249823
Cl233	Cl	1.510558	-0.595919	0.583157
Cl234	Cl	1.843892	-0.262586	0.916490
H235	H	0.508071	-0.223080	0.435679
H236	H	0.841404	0.110253	0.769013
H237	H	1.174738	0.443587	1.102346
Cl238	Cl	0.923631	-0.334534	0.781765
Cl239	Cl	1.256964	-0.001201	1.115098
Cl240	Cl	1.590297	0.332133	1.448432
H241	H	0.984178	-0.662285	0.442464
H242	H	1.317512	-0.328952	0.775798
H243	H	1.650845	0.004381	1.109131
Cl244	Cl	1.177305	-1.077636	0.249871
Cl245	Cl	1.510638	-0.744302	0.583205
Cl246	Cl	1.843972	-0.410969	0.916538
Cl247	Cl	0.494518	-0.393581	0.248266
Cl248	Cl	0.827852	-0.060247	0.581600
Cl249	Cl	1.161185	0.273086	0.914933
Cl250	Cl	1.177115	-0.676800	0.249777
Cl251	Cl	1.510448	-0.343467	0.583110
Cl252	Cl	1.843782	-0.010133	0.916444
H253	H	0.954772	-0.340558	0.920437
H254	H	1.288105	-0.007225	1.253770
H255	H	1.621438	0.326109	1.587103
H256	H	1.025801	-0.400784	0.921353
H257	H	1.359134	-0.067450	1.254687
H258	H	1.692468	0.265883	1.588020
H259	H	0.633852	-0.370463	0.262534
H260	H	0.967186	-0.037130	0.595867
H261	H	1.300519	0.296203	0.929200
Cl262	Cl	1.108565	-0.178269	0.780946
Cl263	Cl	1.441898	0.155064	1.114279
Cl264	Cl	1.775232	0.488398	1.447613
Cl265	Cl	1.173974	-0.396790	0.930364
Cl266	Cl	1.507307	-0.063457	1.263698
Cl267	Cl	1.840640	0.269876	1.597031
Cl268	Cl	1.216156	-0.268489	0.782454
Cl269	Cl	1.549490	0.064844	1.115787
Cl270	Cl	1.882823	0.398177	1.449121
Cl271	Cl	0.645715	-0.428026	0.393164
Cl272	Cl	0.979049	-0.094692	0.726497
Cl273	Cl	1.312382	0.238641	1.059831
H274	H	1.192220	-0.287834	0.920253
H275	H	1.525554	0.045499	1.253586
H276	H	1.858887	0.378832	1.586920
H277	H	0.507310	-0.199638	0.338796
H278	H	0.840643	0.133695	0.672130
H279	H	1.173977	0.467028	1.005463
H280	H	0.634947	-0.288659	0.233925
H281	H	0.968281	0.044674	0.567258
H282	H	1.301614	0.378007	0.900591
Cl283	Cl	0.646812	-0.214618	0.465490
Cl284	Cl	0.980146	0.118715	0.798823
Cl285	Cl	1.313479	0.452049	1.132156
Cl286	Cl	0.496618	-0.265255	0.212709
Cl287	Cl	0.829951	0.068078	0.546042
Cl288	Cl	1.163284	0.401411	0.879376
Cl289	Cl	0.963132	-0.528459	0.463407
Cl290	Cl	1.296465	-0.195126	0.796740
Cl291	Cl	1.629798	0.138208	1.130074
