data_functionalizedCrystal
_audit_creation_method	'MofGen! by Chris Wilmer'
_symmetry_space_group_name_H-M	'P1'
_symmetry_Int_Tables_number	1
_symmetry_cell_setting	triclinic
loop_
_symmetry_equiv_pos_as_xyz
  x,y,z
_cell_length_a	14.044220
_cell_length_b	9.065218
_cell_length_c	7.540329
_cell_angle_alpha	89.996962
_cell_angle_beta	90.002479
_cell_angle_gamma	90.897619
loop_
_atom_site_label
_atom_site_type_symbol
_atom_site_fract_x
_atom_site_fract_y
_atom_site_fract_z
O1	O	-0.139141	1.975818	-0.147483
O2	O	0.360859	2.475818	0.352517
O3	O	-0.150554	1.547798	-0.147485
O4	O	0.349446	2.047798	0.352515
O5	O	-0.006808	1.755384	-0.147477
O6	O	0.493192	2.255384	0.352523
O7	O	-0.282887	1.768233	-0.147492
O8	O	0.217113	2.268233	0.352508
O9	O	-0.006806	1.755370	0.147488
O10	O	0.493194	2.255370	0.647488
O11	O	-0.150552	1.547785	0.147480
O12	O	0.349448	2.047785	0.647480
O13	O	-0.139139	1.975805	0.147482
O14	O	0.360861	2.475805	0.647482
Cu15	Cu	-0.144845	1.761793	0.174413
Cu16	Cu	0.355155	2.261793	0.674413
Cu17	Cu	-0.144848	1.761810	-0.174417
Cu18	Cu	0.355152	2.261810	0.325583
O19	O	-0.282885	1.768219	0.147473
O20	O	0.217115	2.268219	0.647473
C21	C	-0.149456	1.492683	-0.000003
C22	C	0.350544	1.992683	0.499997
C23	C	-0.146176	1.328477	-0.000004
C24	C	0.353824	1.828477	0.499996
C25	C	-0.318249	1.773850	-0.000012
C26	C	0.181751	2.273850	0.499988
C27	C	-0.423619	1.790627	-0.000018
C28	C	0.076381	2.290627	0.499982
C29	C	-0.616544	1.821299	-0.000010
C30	C	-0.116544	2.321299	0.499990
C31	C	-0.673155	1.702310	-0.000009
C32	C	-0.173155	2.202310	0.499991
C33	C	-0.780505	1.719376	-0.000005
C34	C	-0.280505	2.219376	0.499995
C35	C	-0.509184	1.804235	-0.000015
C36	C	-0.009184	2.304235	0.499985
C37	C	0.028556	1.749752	0.000004
C38	C	0.528556	2.249752	0.500004
C39	C	0.133926	1.732975	-0.000001
C40	C	0.633926	2.232975	0.499999
C41	C	-0.140237	2.030920	-0.000004
C42	C	0.359763	2.530920	0.499996
C43	C	-0.143517	2.195126	-0.000015
C44	C	0.356483	2.695126	0.499985
N45	N	-0.144843	1.761793	0.419762
N46	N	0.355157	2.261793	0.919762
N47	N	-0.144842	1.761821	-0.419766
N48	N	0.355158	2.261821	0.080234
H49	H	-0.641000	1.587623	-0.000009
H50	H	-0.141000	2.087623	0.499991
H51	H	-0.648697	1.935977	-0.000003
H52	H	-0.148697	2.435977	0.499997
