data_functionalizedCrystal
_audit_creation_method	'MofGen! by Chris Wilmer'
_symmetry_space_group_name_H-M	'P1'
_symmetry_Int_Tables_number	1
_symmetry_cell_setting	triclinic
loop_
_symmetry_equiv_pos_as_xyz
  x,y,z
_cell_length_a	11.792241
_cell_length_b	10.723024
_cell_length_c	9.198806
_cell_angle_alpha	89.997723
_cell_angle_beta	90.000241
_cell_angle_gamma	84.330643
loop_
_atom_site_label
_atom_site_type_symbol
_atom_site_fract_x
_atom_site_fract_y
_atom_site_fract_z
O1	O	-1.507282	-0.171036	0.120747
O2	O	-1.176980	-0.188664	0.120781
O3	O	-1.349750	0.001746	0.120758
O4	O	-1.334512	-0.361446	0.120770
O5	O	-1.349736	0.001748	-0.121027
O6	O	-1.176966	-0.188662	-0.121004
O7	O	-1.507269	-0.171035	-0.121038
Cu8	Cu	-1.342116	-0.179848	-0.143098
Cu9	Cu	-1.342133	-0.179850	0.142841
O10	O	-1.334499	-0.361445	-0.121015
C11	C	-1.134680	-0.187556	-0.000108
C12	C	-1.008659	-0.184242	-0.000095
C13	C	-1.348634	0.048244	-0.000133
C14	C	-1.345317	0.186789	-0.000127
C15	C	-1.549569	-0.172143	-0.000146
C16	C	-1.675590	-0.175457	-0.000150
C17	C	-0.777933	-0.178147	-0.000137
C18	C	-0.906326	-0.181533	-0.000114
C19	C	-1.335614	-0.407942	-0.000121
C20	C	-1.338932	-0.546488	-0.000117
N21	N	-1.342113	-0.179847	-0.344212
C22	C	-1.441990	0.262028	-0.000135
C23	C	-1.438563	0.405222	-0.000130
C24	C	-1.408296	-0.252033	-0.416414
C25	C	-1.408313	-0.252031	-0.583827
N26	N	-1.342145	-0.179842	0.343955
H27	H	-1.521323	0.469873	-0.000143
H28	H	-1.260014	0.228386	-0.000109
H29	H	-1.256168	0.388868	-0.000120
H30	H	-1.527292	0.220431	-0.000153
H31	H	-1.464949	-0.313830	-0.354289
C32	C	-1.483909	-0.334575	-0.666344
C33	C	-1.544930	-0.401195	-0.567261
C34	C	-1.614571	-0.477261	-0.643225
H35	H	-1.535692	-0.283768	-0.725722
H36	H	-1.437965	-0.391812	-0.725693
H37	H	-1.590871	-0.343965	-0.507937
H38	H	-1.493176	-0.452026	-0.507880
H39	H	-1.568627	-0.534498	-0.702574
H40	H	-1.666348	-0.426444	-0.702601
H41	H	-1.655974	-0.522480	-0.576009
H42	H	-1.285475	-0.118044	-0.593962
H43	H	-1.285468	-0.118041	-0.406337
