data_functionalizedCrystal
_audit_creation_method	'MofGen! by Chris Wilmer'
_symmetry_space_group_name_H-M	'P1'
_symmetry_Int_Tables_number	1
_symmetry_cell_setting	triclinic
loop_
_symmetry_equiv_pos_as_xyz
  x,y,z
_cell_length_a	14.908571
_cell_length_b	15.297327
_cell_length_c	14.908694
_cell_angle_alpha	103.447437
_cell_angle_beta	83.592472
_cell_angle_gamma	96.991395
loop_
_atom_site_label
_atom_site_type_symbol
_atom_site_fract_x
_atom_site_fract_y
_atom_site_fract_z
Zn1	Zn	1.335576	-0.474947	-0.669165
Zn2	Zn	1.303555	-0.616576	-0.540958
Zn3	Zn	1.178500	-0.456494	-0.506084
Zn4	Zn	1.160998	-0.616506	-0.683545
O5	O	1.244657	-0.541131	-0.599938
O6	O	1.456726	-0.501486	-0.660736
O7	O	1.280889	-0.587648	-0.408409
O8	O	1.220062	-0.332704	-0.507104
O9	O	1.433200	-0.605541	-0.566542
O10	O	1.335465	-0.346261	-0.626919
O11	O	1.189012	-0.470037	-0.382786
O12	O	1.050780	-0.469969	-0.521047
O13	O	1.190233	-0.605421	-0.809561
O14	O	1.037922	-0.587529	-0.651427
O15	O	1.318495	-0.501418	-0.798996
O16	O	1.263919	-0.742805	-0.580486
O17	O	1.159183	-0.742754	-0.685244
C18	C	1.011837	-0.526740	-0.584014
C19	C	0.912233	-0.520606	-0.577226
C20	C	0.711688	-0.631665	-0.700109
C21	C	0.618101	-0.625905	-0.693736
C22	C	0.631470	-0.503322	-0.558110
C23	C	0.725057	-0.509082	-0.564484
C24	C	0.765163	-0.573257	-0.635485
C25	C	0.858751	-0.579020	-0.641854
C26	C	0.872119	-0.456434	-0.506233
C27	C	0.778532	-0.450674	-0.499859
C28	C	1.206202	-0.775514	-0.638231
C29	C	1.189834	-0.875791	-0.654649
C30	C	1.362024	-1.158459	-0.482933
C31	C	1.377402	-1.064244	-0.467503
C32	C	1.330512	-1.017126	-0.514288
C33	C	1.268241	-1.064233	-0.576506
C34	C	1.252856	-1.158457	-0.591932
C35	C	1.221344	-1.017124	-0.623288
C36	C	1.159072	-1.064231	-0.685506
C37	C	1.143691	-1.158446	-0.700930
C38	C	1.190582	-1.205564	-0.654144
C39	C	1.236728	-0.922900	-0.607861
C40	C	1.127560	-0.922898	-0.716861
C41	C	1.112182	-1.017114	-0.732291
C42	C	1.478387	-0.555579	-0.615925
C43	C	1.577988	-0.561736	-0.622738
C44	C	1.255984	-0.555470	-0.838375
C45	C	1.260810	-0.561581	-0.939983
C46	C	1.283288	-0.305835	-0.561517
C47	C	1.299750	-0.205566	-0.545145
C48	C	1.174186	-0.450595	-1.104235
C49	C	1.178719	-0.456333	-1.199703
C50	C	1.274402	-0.578799	-1.226391
C51	C	1.269869	-0.573060	-1.130922
C52	C	1.219761	-0.508956	-1.069847
C53	C	1.215234	-0.503214	-0.974376
C54	C	1.310911	-0.625683	-1.001066
C55	C	1.315444	-0.631421	-1.096535
C56	C	1.233437	-0.526786	-0.362421
C57	C	1.228826	-0.520432	-0.260784
H58	H	0.745865	-0.398422	-0.442054
H59	H	1.141607	-0.408810	-1.227697
H60	H	1.400190	-1.196831	-0.444841
H61	H	1.287429	-0.884554	-0.557203
H62	H	1.315183	-0.631001	-1.276136
O63	O	0.750669	-0.694094	-0.768960
C64	C	0.792795	-0.752460	-0.730009
H65	H	0.760259	-0.751854	-0.656972
H66	H	0.784043	-0.823984	-0.774380
H67	H	0.868148	-0.728741	-0.727179
H68	H	1.174438	-0.451013	-0.924649
O69	O	1.125443	-0.388301	-1.045032
C70	C	1.086211	-0.338001	-1.095855
H71	H	1.080274	-0.378846	-1.169732
H72	H	1.015877	-0.322358	-1.061867
H73	H	1.130754	-0.272125	-1.097060
O74	O	0.592587	-0.440852	-0.489227
C75	C	0.631188	-0.353601	-0.496227
H76	H	0.661128	-0.355150	-0.570295
H77	H	0.576592	-0.304747	-0.476952
H78	H	0.687058	-0.330353	-0.447096
O79	O	0.924002	-0.399774	-0.443334
C80	C	0.893551	-0.412449	-0.353832
H81	H	0.855786	-0.482643	-0.359125
H82	H	0.954224	-0.405684	-0.311587
H83	H	0.846023	-0.359272	-0.318409
H84	H	1.089376	-0.884535	-0.754956
O85	O	1.364235	-0.693567	-1.155894
C86	C	1.433146	-0.649100	-1.206707
H87	H	1.448974	-0.576662	-1.166713
H88	H	1.496807	-0.686049	-1.217840
H89	H	1.409381	-0.648633	-1.276657
O90	O	1.355040	-0.682466	-0.967630
C91	C	1.291846	-0.734247	-0.918409
H92	H	1.221718	-0.737193	-0.943255
H93	H	1.312815	-0.805607	-0.930883
H94	H	1.289907	-0.701815	-0.841288
O95	O	0.897834	-0.641238	-0.710854
C96	C	0.963180	-0.596847	-0.765300
H97	H	0.986882	-0.527366	-0.722941
H98	H	1.023546	-0.638395	-0.787985
H99	H	0.931956	-0.588886	-0.829000
O100	O	0.566282	-0.682737	-0.756565
C101	C	0.621757	-0.740593	-0.820611
H102	H	0.686177	-0.745518	-0.788206
H103	H	0.583523	-0.810600	-0.840028
H104	H	0.640429	-0.712447	-0.885386
H105	H	1.343035	-0.940411	-0.501720
H106	H	1.178067	-1.282282	-0.666707
O107	O	1.437953	-1.018631	-0.407075
C108	C	1.476027	-1.080416	-0.369074
H109	H	1.469915	-1.150004	-0.417722
H110	H	1.550632	-1.056916	-0.359747
H111	H	1.438325	-1.084289	-0.299027
O112	O	1.083306	-1.204178	-0.761493
C113	C	1.110904	-1.187771	-0.850171
H114	H	1.186950	-1.166513	-0.855489
H115	H	1.095179	-1.251959	-0.904940
H116	H	1.072901	-1.131578	-0.861791
O117	O	1.051799	-1.062852	-0.792855
C118	C	1.079395	-1.046448	-0.881534
H119	H	1.155440	-1.025182	-0.886851
H120	H	1.063677	-1.110640	-0.936301
H121	H	1.041385	-0.990261	-0.893159
