data_functionalizedCrystal
_audit_creation_method	'MofGen! by Chris Wilmer'
_symmetry_space_group_name_H-M	'P1'
_symmetry_Int_Tables_number	1
_symmetry_cell_setting	triclinic
loop_
_symmetry_equiv_pos_as_xyz
  x,y,z
_cell_length_a	14.908520
_cell_length_b	15.298708
_cell_length_c	14.908308
_cell_angle_alpha	102.311050
_cell_angle_beta	96.360765
_cell_angle_gamma	102.383294
loop_
_atom_site_label
_atom_site_type_symbol
_atom_site_fract_x
_atom_site_fract_y
_atom_site_fract_z
Zn1	Zn	-0.140808	1.354605	-0.284158
Zn2	Zn	-0.283473	1.354500	-0.141548
Zn3	Zn	-0.158713	1.209921	-0.159349
Zn4	Zn	-0.322206	1.191013	-0.322837
O5	O	-0.226300	1.277510	-0.226973
O6	O	-0.136030	1.483562	-0.241604
O7	O	-0.258207	1.343191	-0.015806
O8	O	-0.028210	1.237070	-0.167167
O9	O	-0.240845	1.483485	-0.136829
O10	O	-0.015056	1.343369	-0.258864
O11	O	-0.166546	1.236969	-0.028884
O12	O	-0.204104	1.078441	-0.204673
O13	O	-0.306859	1.204844	-0.445810
O14	O	-0.324221	1.064550	-0.324787
O15	O	-0.173588	1.325035	-0.417393
O16	O	-0.416739	1.324856	-0.174334
O17	O	-0.445195	1.204743	-0.307527
C18	C	-0.270309	1.038055	-0.270859
C19	C	-0.289160	0.935612	-0.289657
C20	C	-0.091815	0.675672	-0.092862
C21	C	-0.074099	0.771922	-0.075201
C22	C	-0.127863	0.812849	-0.128813
C23	C	-0.199346	0.757517	-0.200090
C24	C	-0.217059	0.661257	-0.217758
C25	C	-0.253107	0.798435	-0.253709
C26	C	-0.324590	0.743102	-0.324986
C27	C	-0.342301	0.646852	-0.342649
C28	C	-0.288537	0.605925	-0.289037
C29	C	-0.235393	0.894694	-0.236041
C30	C	-0.360637	0.880280	-0.360937
C31	C	-0.378354	0.784030	-0.378598
C32	C	-0.464186	1.262760	-0.243211
C33	C	-0.565941	1.256533	-0.250173
C34	C	-0.727441	1.370021	-0.124634
C35	C	-0.823048	1.364173	-0.131172
C36	C	-0.852764	1.238994	-0.269790
C37	C	-0.757156	1.244842	-0.263252
C38	C	-0.694498	1.310356	-0.190671
C39	C	-0.598889	1.316199	-0.184130
C40	C	-0.628606	1.191026	-0.322751
C41	C	-0.724214	1.185178	-0.329289
C42	C	0.012518	1.292341	-0.210687
C43	C	0.114288	1.298661	-0.203747
C44	C	-0.242547	1.262842	-0.465746
C45	C	-0.249470	1.256592	-0.567497
C46	C	-0.182120	1.517900	-0.182916
C47	C	-0.163293	1.620339	-0.164142
C48	C	-0.123683	1.369999	-0.729107
C49	C	-0.130185	1.364130	-0.824711
C50	C	-0.268970	1.238978	-0.854309
C51	C	-0.262469	1.244848	-0.758706
C52	C	-0.189824	1.310362	-0.696108
C53	C	-0.183327	1.316235	-0.600502
C54	C	-0.322108	1.191080	-0.630103
C55	C	-0.328609	1.185211	-0.725706
C56	C	-0.210041	1.292177	0.010885
C57	C	-0.202826	1.298622	0.112686
H58	H	-0.302962	0.527551	-0.303409
Cl59	Cl	-0.419928	1.102855	-0.804408
Cl60	Cl	0.015766	0.841475	0.014395
Cl61	Cl	-0.032369	1.452366	-0.650409
Cl62	Cl	-0.047032	1.439105	-0.866193
Cl63	Cl	-0.428223	0.931724	-0.428347
Cl64	Cl	-0.587190	1.116003	-0.405764
Cl65	Cl	-0.648669	1.452366	-0.033381
H66	H	-0.328114	1.185640	-0.905292
Cl67	Cl	-0.092004	1.398596	-0.521809
Cl68	Cl	-0.405268	1.116112	-0.588612
Cl69	Cl	-0.520120	1.398556	-0.092884
H70	H	-0.903795	1.185661	-0.328887
Cl71	Cl	-0.145533	0.964243	-0.146438
H72	H	-0.113433	0.891221	-0.114430
Cl73	Cl	-0.024226	0.624215	-0.025482
H74	H	-0.400501	0.601803	-0.400694
H75	H	-0.436556	0.738965	-0.436633
H76	H	-0.849865	1.412759	-0.077399
Cl77	Cl	-0.802991	1.102824	-0.420530
