data_functionalizedCrystal
_audit_creation_method	'MofGen! by Chris Wilmer'
_symmetry_space_group_name_H-M	'P1'
_symmetry_Int_Tables_number	1
_symmetry_cell_setting	triclinic
loop_
_symmetry_equiv_pos_as_xyz
  x,y,z
_cell_length_a	19.188933
_cell_length_b	16.109311
_cell_length_c	15.186229
_cell_angle_alpha	90.001591
_cell_angle_beta	90.004182
_cell_angle_gamma	83.305638
loop_
_atom_site_label
_atom_site_type_symbol
_atom_site_fract_x
_atom_site_fract_y
_atom_site_fract_z
O1	O	0.926391	0.103799	0.073202
O2	O	1.426391	0.603799	0.573202
O3	O	0.723113	0.117770	0.073210
O4	O	1.223113	0.617770	0.573210
O5	O	0.830333	-0.010264	0.073197
O6	O	1.330333	0.489736	0.573197
O7	O	0.819172	0.231833	0.073215
O8	O	1.319172	0.731833	0.573215
O9	O	0.830320	-0.010257	-0.073260
O10	O	1.330320	0.489743	0.426740
O11	O	0.723101	0.117777	-0.073247
O12	O	1.223101	0.617777	0.426753
O13	O	0.926379	0.103806	-0.073255
O14	O	1.426379	0.603806	0.426745
Zn15	Zn	0.824738	0.110793	-0.096504
Zn16	Zn	1.324738	0.610793	0.403496
Zn17	Zn	0.824754	0.110783	0.096459
Zn18	Zn	1.324754	0.610783	0.596459
O19	O	0.819159	0.231841	-0.073242
O20	O	1.319159	0.731841	0.426758
C21	C	0.697095	0.117321	-0.000017
C22	C	1.197095	0.617321	0.499983
C23	C	0.619587	0.115962	-0.000014
C24	C	1.119587	0.615962	0.499986
C25	C	0.066316	0.106259	0.079809
C26	C	0.566316	0.606259	0.579809
C27	C	0.139143	0.107531	0.079813
C28	C	0.639143	0.607531	0.579813
C29	C	0.175555	0.108175	-0.000021
C30	C	0.675555	0.608175	0.499979
C31	C	0.139135	0.107525	-0.079864
C32	C	0.639135	0.607525	0.420136
C33	C	0.066310	0.106245	-0.079865
C34	C	0.566310	0.606245	0.420135
N35	N	0.284686	0.157498	-0.059441
N36	N	0.784686	0.657498	0.440559
N37	N	0.353867	0.158716	-0.059434
N38	N	0.853867	0.658716	0.440566
C39	C	0.394973	0.112030	-0.000022
C40	C	0.894973	0.612030	0.499978
N41	N	0.364283	0.064091	0.059397
N42	N	0.864283	0.564091	0.559397
N43	N	0.295096	0.062877	0.059393
N44	N	0.795096	0.562877	0.559393
C45	C	0.254521	0.109562	-0.000028
C46	C	0.754521	0.609562	0.499972
C47	C	0.510351	0.114053	0.079820
C48	C	1.010351	0.614053	0.579820
C49	C	0.583181	0.115320	0.079820
C50	C	1.083181	0.615320	0.579820
C51	C	0.583171	0.115322	-0.079859
C52	C	1.083171	0.615322	0.420141
C53	C	0.510344	0.114047	-0.079857
C54	C	1.010344	0.614047	0.420143
C55	C	0.473938	0.113417	-0.000015
C56	C	0.973938	0.613417	0.499985
C57	C	0.829873	-0.041234	-0.000032
C58	C	1.329873	0.458766	0.499968
C59	C	0.828514	-0.133524	-0.000033
C60	C	1.328514	0.366476	0.499967
C61	C	0.952397	0.104255	-0.000026
C62	C	1.452397	0.604255	0.499974
C63	C	1.029905	0.105614	-0.000023
C64	C	1.529905	0.605614	0.499977
N65	N	0.824732	0.110799	-0.228197
N66	N	1.324732	0.610799	0.271803
C67	C	0.819619	0.262810	-0.000011
C68	C	1.319619	0.762810	0.499989
C69	C	0.820978	0.355101	-0.000005
C70	C	1.320978	0.855101	0.499995
C71	C	0.825397	0.654153	0.079813
C72	C	1.325397	1.154153	0.579813
C73	C	0.824117	0.567437	0.079819
C74	C	1.324117	1.067437	0.579819
C75	C	0.824093	0.567429	-0.079857
C76	C	1.324093	1.067429	0.420143
C77	C	0.825368	0.654145	-0.079862
C78	C	1.325368	1.154145	0.420138
C79	C	0.826023	0.697504	-0.000024
C80	C	1.326023	1.197504	0.499976
C81	C	0.823469	0.524072	-0.000014
C82	C	1.323469	1.024072	0.499986
C83	C	0.822081	0.430051	-0.000008
C84	C	1.322081	0.930051	0.499992
C85	C	0.827410	0.791532	-0.000029
C86	C	1.327410	1.291532	0.499971
C87	C	0.867078	0.161087	-0.453918
C88	C	1.367078	0.661087	0.046082
C89	C	0.867086	0.161081	-0.546108
C90	C	1.367086	0.661081	-0.046108
C91	C	0.782418	0.060477	-0.546121
C92	C	1.282418	0.560477	-0.046121
C93	C	0.782415	0.060479	-0.453933
C94	C	1.282415	0.560479	0.046067
C95	C	0.824743	0.110789	-0.407834
C96	C	1.324743	0.610789	0.092166
C97	C	0.824754	0.110781	-0.592211
C98	C	1.324754	0.610781	-0.092211
C99	C	0.824762	0.110774	-0.692168
C100	C	1.324762	0.610774	-0.192168
C101	C	0.824737	0.110795	-0.307871
C102	C	1.324737	0.610795	0.192129
N103	N	0.824766	0.110771	0.228152
N104	N	1.324766	0.610771	0.728152
H105	H	0.168787	0.108048	-0.144865
H106	H	0.668787	0.608048	0.355135
C107	C	0.657222	0.188214	0.172448
C108	C	1.157222	0.688214	0.672448
C109	C	0.623208	0.116028	0.167579
C110	C	1.123208	0.616028	0.667579
H111	H	0.681936	0.188647	0.226626
H112	H	1.181936	0.688647	0.726626
H113	H	0.623479	0.236178	0.169129
H114	H	1.123479	0.736178	0.669129
H115	H	0.689327	0.188762	0.124898
H116	H	1.189327	0.688762	0.624898
H117	H	0.591098	0.115482	0.215125
H118	H	1.091098	0.615482	0.715125
H119	H	0.656954	0.068051	0.170907
H120	H	1.156954	0.568051	0.670907
C121	C	0.073617	0.106377	-0.237699
C122	C	0.573617	0.606377	0.262301
C123	C	0.026282	0.105545	-0.167623
C124	C	0.526282	0.605545	0.332377
H125	H	0.048902	0.105952	-0.291876
H126	H	0.548902	0.605952	0.208124
H127	H	0.107352	0.058405	-0.234381
H128	H	0.607352	0.558405	0.265619
H129	H	0.096691	0.155349	-0.234369
H130	H	0.596691	0.655349	0.265631
H131	H	0.003212	0.056570	-0.170949
H132	H	0.503212	0.556570	0.329051
H133	H	-0.007465	0.153522	-0.170943
H134	H	0.492535	0.653522	0.329057
C135	C	0.766802	0.761218	-0.172492
C136	C	1.266802	1.261218	0.327508
C137	C	0.826055	0.701802	-0.167626
C138	C	1.326055	1.201802	0.332374
H139	H	0.767223	0.790636	-0.226674
H140	H	1.267223	1.290636	0.273326
H141	H	0.767376	0.799446	-0.124951
H142	H	1.267376	1.299446	0.375049
H143	H	0.725620	0.733863	-0.169166
H144	H	1.225620	1.233863	0.330834
H145	H	0.867237	0.729157	-0.170946
H146	H	1.367237	1.229157	0.329054
H147	H	0.825488	0.663568	-0.215180
H148	H	1.325488	1.163568	0.284820
C149	C	-0.023433	0.176275	0.172455
C150	C	0.476567	0.676275	0.672455
C151	C	0.026304	0.105558	0.167573
C152	C	0.526304	0.605558	0.667573
H153	H	-0.048131	0.175841	0.226640
H154	H	0.451869	0.675841	0.726640
H155	H	-0.055543	0.175702	0.124918
H156	H	0.444457	0.675702	0.624918
H157	H	-0.000351	0.225241	0.169133
H158	H	0.499649	0.725241	0.669133
H159	H	0.003221	0.056591	0.170888
H160	H	0.503221	0.556591	0.670888
H161	H	0.058418	0.106122	0.215123
H162	H	0.558418	0.606122	0.715123
C163	C	0.871428	0.272882	-0.649786
C164	C	1.371428	0.772882	-0.149786
C165	C	0.913620	0.216369	-0.596767
C166	C	1.413620	0.716369	-0.096767
H167	H	0.900160	0.307011	-0.681065
H168	H	1.400160	0.807011	-0.181065
H169	H	0.839296	0.307047	-0.613830
H170	H	1.339296	0.807047	-0.113830
H171	H	0.846223	0.242913	-0.690432
H172	H	1.346223	0.742913	-0.190432
H173	H	0.938821	0.246339	-0.556117
H174	H	1.438821	0.746339	-0.056117
H175	H	0.945765	0.182201	-0.632727
H176	H	1.445765	0.682201	-0.132727
H177	H	0.168794	0.108061	0.144824
H178	H	0.668794	0.608061	0.644824
C179	C	0.517673	0.114178	0.237654
C180	C	1.017673	0.614178	0.737654
C181	C	0.470329	0.113353	0.167579
C182	C	0.970329	0.613353	0.667579
H183	H	0.492966	0.113742	0.291832
H184	H	0.992966	0.613742	0.791832
H185	H	0.540745	0.163143	0.234334
H186	H	1.040745	0.663143	0.734334
H187	H	0.551411	0.066199	0.234327
H188	H	1.051411	0.566199	0.734327
H189	H	0.436595	0.161336	0.170902
H190	H	0.936595	0.661336	0.670902
H191	H	0.447246	0.064383	0.170901
H192	H	0.947246	0.564383	0.670901
C193	C	0.575842	0.115193	-0.237690
C194	C	1.075842	0.615193	0.262310
C195	C	0.623185	0.116026	-0.167616
C196	C	1.123185	0.616026	0.332384
H197	H	0.600550	0.115620	-0.291868
H198	H	1.100550	0.615620	0.208132
H199	H	0.542106	0.163164	-0.234370
H200	H	1.042106	0.663164	0.265630
H201	H	0.552769	0.066220	-0.234363
H202	H	1.052769	0.566220	0.265637
H203	H	0.646254	0.165003	-0.170939
H204	H	1.146254	0.665003	0.329061
H205	H	0.656933	0.068051	-0.170938
H206	H	1.156933	0.568051	0.329062
H207	H	0.747940	0.019516	-0.416410
H208	H	1.247940	0.519516	0.083590
C209	C	0.765813	0.690407	0.215909
C210	C	1.265813	1.190407	0.715909
C211	C	0.826103	0.701811	0.167573
C212	C	1.326103	1.201811	0.667573
H213	H	0.766246	0.719831	0.270088
H214	H	1.266246	1.219831	0.770088
H215	H	0.764971	0.632563	0.227326
H216	H	1.264971	1.132563	0.727326
H217	H	0.725335	0.711109	0.183097
H218	H	1.225335	1.211109	0.683097
H219	H	0.866582	0.681104	0.200383
H220	H	1.366582	1.181104	0.700383
H221	H	0.826952	0.759667	0.156158
H222	H	1.326952	1.259667	0.656158
H223	H	0.823605	0.532145	0.144830
H224	H	1.323605	1.032145	0.644830
H225	H	0.747955	0.019518	-0.583666
H226	H	1.247955	0.519518	-0.083666
H227	H	0.480697	0.113525	-0.144865
H228	H	0.980697	0.613525	0.355135
C229	C	0.822143	0.434494	-0.150750
C230	C	1.322143	0.934494	0.349250
C231	C	0.823387	0.519763	-0.167612
C232	C	1.323387	1.019763	0.332388
H233	H	0.821714	0.405069	-0.204929
H234	H	1.321714	0.905069	0.295071
H235	H	0.781248	0.426771	-0.117953
H236	H	1.281248	0.926771	0.382047
H237	H	0.862630	0.413811	-0.117945
H238	H	1.362630	0.913811	0.382055
H239	H	0.782896	0.540448	-0.200411
H240	H	1.282896	1.040448	0.299589
H241	H	0.864285	0.527492	-0.200423
H242	H	1.364285	1.027492	0.299577
H243	H	0.901545	0.202052	-0.416387
H244	H	1.401545	0.702052	0.083613
