data_functionalizedCrystal
_audit_creation_method	'MofGen! by Chris Wilmer'
_symmetry_space_group_name_H-M	'P1'
_symmetry_Int_Tables_number	1
_symmetry_cell_setting	triclinic
loop_
_symmetry_equiv_pos_as_xyz
  x,y,z
_cell_length_a	16.974800
_cell_length_b	16.992695
_cell_length_c	13.448316
_cell_angle_alpha	89.993283
_cell_angle_beta	93.650053
_cell_angle_gamma	87.021674
loop_
_atom_site_label
_atom_site_type_symbol
_atom_site_fract_x
_atom_site_fract_y
_atom_site_fract_z
O1	O	1.055459	0.099873	0.002277
O2	O	0.826058	0.112614	-0.016193
O3	O	0.939839	-0.007898	-0.007024
O4	O	0.941678	0.220385	-0.006892
O5	O	0.939823	-0.007905	0.158358
O6	O	0.826042	0.112607	0.149189
O7	O	1.055444	0.099866	0.167659
Cu8	Cu	0.940742	0.106236	0.173525
Cu9	Cu	0.940760	0.106244	-0.022059
O10	O	0.941663	0.220378	0.158491
C11	C	0.796561	0.112128	0.064124
C12	C	0.708693	0.110681	0.057049
C13	C	0.667409	0.109995	0.143878
C14	C	0.584848	0.108623	0.137234
C15	C	0.543573	0.107942	0.043760
C16	C	0.584864	0.108625	-0.043075
C17	C	0.667423	0.109992	-0.036430
C18	C	0.296658	0.103849	0.014218
C19	C	0.214093	0.102485	0.007579
C20	C	0.214083	0.102481	0.187889
C21	C	0.296644	0.103852	0.194526
C22	C	0.337927	0.104532	0.107691
N23	N	0.459183	0.106542	0.036966
N24	N	0.422316	0.105926	0.114486
C25	C	0.937465	-0.037112	0.075476
C26	C	0.930406	-0.124148	0.074908
C27	C	0.998521	-0.174465	0.080393
C28	C	0.991883	-0.256244	0.079849
C29	C	0.917129	-0.287704	0.073827
C30	C	0.849009	-0.237380	0.068338
C31	C	0.855647	-0.155603	0.068875
C32	C	0.889614	-0.531271	0.071598
C33	C	0.882981	-0.613055	0.071065
C34	C	1.025856	-0.631913	0.082574
C35	C	1.032488	-0.550134	0.083116
C36	C	0.964368	-0.499817	0.077622
N37	N	0.910342	-0.371295	0.073274
N38	N	0.971155	-0.416227	0.078168
C39	C	1.084940	0.100352	0.087340
C40	C	1.172808	0.101799	0.094408
C41	C	0.944037	0.249591	0.075988
C42	C	0.951096	0.336628	0.076550
N43	N	0.940734	0.106229	0.311089
N44	N	0.940773	0.106245	-0.159622
C45	C	0.991134	0.052888	0.367191
C46	C	0.991139	0.052887	0.471294
C47	C	0.940747	0.106232	0.519294
C48	C	0.890342	0.159575	0.463185
C49	C	0.890333	0.159572	0.359083
C50	C	0.890364	0.159581	0.680167
C51	C	0.890373	0.159586	0.784276
C52	C	0.991170	0.052896	0.792378
C53	C	0.991162	0.052893	0.688276
C54	C	0.940757	0.106237	0.632174
H55	H	0.180461	0.101926	0.258586
H56	H	0.849291	0.203006	0.313405
C57	C	0.168692	0.101732	-0.095251
C58	C	0.107258	0.168846	-0.125003
C59	C	0.061858	0.168095	-0.227828
C60	C	0.077894	0.100231	-0.300901
C61	C	0.139331	0.033112	-0.271151
C62	C	0.184730	0.033863	-0.168326
H63	H	0.095385	0.219088	-0.070908
H64	H	0.016378	0.217781	-0.249850
H65	H	0.044286	0.099675	-0.377019
H66	H	0.151204	-0.017130	-0.325246
H67	H	0.230210	-0.015823	-0.146304
H68	H	0.551252	0.108065	-0.119184
C69	C	0.712840	0.110749	-0.131942
C70	C	0.706178	0.042515	-0.206849
C71	C	0.751595	0.043268	-0.302364
C72	C	0.803674	0.112255	-0.322972
C73	C	0.810339	0.180494	-0.248063
C74	C	0.764922	0.179742	-0.152548
H75	H	0.667623	-0.008558	-0.191596
H76	H	0.746660	-0.007248	-0.357816
H77	H	0.837295	0.112812	-0.393677
H78	H	0.848894	0.231568	-0.263316
H79	H	0.769856	0.230257	-0.097096
H80	H	1.059393	-0.148858	0.085303
C81	C	0.780720	-0.100249	0.062843
C82	C	0.720884	-0.103705	-0.027856
C83	C	0.645954	-0.048352	-0.033895
C84	C	0.630861	0.010458	0.050766
C85	C	0.690699	0.013916	0.141472
C86	C	0.765629	-0.041437	0.147510
H87	H	0.732055	-0.147241	-0.090533
H88	H	0.601658	-0.050912	-0.101042
H89	H	0.575394	0.051434	0.046296
H90	H	0.679528	0.057453	0.204149
H91	H	0.809925	-0.038876	0.214657
C92	C	1.100785	-0.687262	0.088606
C93	C	1.160639	-0.683785	0.007546
C94	C	1.235572	-0.739133	0.013574
C95	C	1.250652	-0.797958	0.100663
C96	C	1.190796	-0.801437	0.181730
C97	C	1.115863	-0.746089	0.175702
H98	H	1.149478	-0.640237	-0.056929
H99	H	1.279881	-0.736557	-0.046437
H100	H	1.306122	-0.838930	0.105126
H101	H	1.201957	-0.844985	0.246205
H102	H	1.071554	-0.748665	0.235713
C103	C	0.766779	-0.271986	0.061712
C104	C	0.708746	-0.252969	0.142916
C105	C	0.626515	-0.287575	0.136293
C106	C	0.602317	-0.341196	0.048466
C107	C	0.660351	-0.360215	-0.032744
C108	C	0.742582	-0.325610	-0.026121
H109	H	0.726658	-0.213273	0.207936
H110	H	0.583555	-0.273495	0.196410
H111	H	0.541445	-0.366813	0.043563
H112	H	0.642440	-0.399912	-0.097764
H113	H	0.785543	-0.339690	-0.086238
C114	C	1.066813	-0.311591	0.085886
C115	C	1.126646	-0.308136	0.176590
C116	C	1.201581	-0.363481	0.182625
C117	C	1.216684	-0.422281	0.097957
C118	C	1.156850	-0.425738	0.007247
C119	C	1.081915	-0.370393	0.001212
H120	H	1.115468	-0.264607	0.239272
H121	H	1.245875	-0.360922	0.249775
H122	H	1.272156	-0.463251	0.102425
H123	H	1.168028	-0.469268	-0.055435
H124	H	1.037621	-0.372953	-0.065938
C125	C	0.800750	-0.647669	0.064431
C126	C	0.742707	-0.628660	0.145626
C127	C	0.660483	-0.663279	0.138994
C128	C	0.636300	-0.716906	0.051167
C129	C	0.694344	-0.735918	-0.030035
C130	C	0.776568	-0.701299	-0.023403
H131	H	0.760608	-0.588959	0.210647
H132	H	0.617515	-0.649205	0.199105
H133	H	0.575433	-0.742533	0.046257
H134	H	0.676444	-0.775618	-0.095056
H135	H	0.819536	-0.715373	-0.083514
C136	C	1.046568	-0.005793	0.314396
C137	C	1.102003	-0.064470	0.376112
C138	C	1.157436	-0.123156	0.323321
C139	C	1.157433	-0.123164	0.208814
C140	C	1.101996	-0.064485	0.147091
C141	C	1.046563	-0.005799	0.199882
H142	H	1.102007	-0.064466	0.460884
H143	H	1.198474	-0.166594	0.369014
H144	H	1.198468	-0.166606	0.169735
H145	H	1.101992	-0.064489	0.062319
H146	H	1.005525	0.037639	0.154190
H147	H	1.093360	-0.524526	0.088020
H148	H	0.701008	0.110556	0.219995
H149	H	0.551239	0.108051	0.207939
H150	H	0.330244	0.104403	0.270643
C151	C	1.046592	-0.005784	0.635470
C152	C	1.039632	-0.095068	0.649234
C153	C	1.095061	-0.153747	0.596426
C154	C	1.157450	-0.123141	0.529856
C155	C	1.164413	-0.033853	0.516090
C156	C	1.108984	0.024826	0.568897
H157	H	0.993445	-0.117728	0.698516
H158	H	1.089906	-0.219844	0.606617
H159	H	1.198482	-0.166579	0.490764
H160	H	1.210600	-0.011193	0.466808
H161	H	1.114139	0.090923	0.558706
H162	H	1.032211	0.009461	0.838063
H163	H	0.330261	0.104400	-0.056489
H164	H	0.834146	-0.490312	0.067125
H165	H	1.032178	0.009453	0.516972
H166	H	0.849338	0.203024	0.823352
H167	H	0.849316	0.203017	0.634491
H168	H	0.849307	0.203007	0.502272
