data_functionalizedCrystal
_audit_creation_method	'MofGen! by Chris Wilmer'
_symmetry_space_group_name_H-M	'P1'
_symmetry_Int_Tables_number	1
_symmetry_cell_setting	triclinic
loop_
_symmetry_equiv_pos_as_xyz
  x,y,z
_cell_length_a	11.792241
_cell_length_b	16.992695
_cell_length_c	16.053802
_cell_angle_alpha	92.741074
_cell_angle_beta	87.405349
_cell_angle_gamma	87.430819
loop_
_atom_site_label
_atom_site_type_symbol
_atom_site_fract_x
_atom_site_fract_y
_atom_site_fract_z
O1	O	1.520188	0.104234	-0.069348
O2	O	2.020188	0.604234	0.430652
O3	O	1.190755	0.115313	-0.069368
O4	O	1.690755	0.615313	0.430632
O5	O	1.354150	-0.004375	-0.069352
O6	O	1.854150	0.495625	0.430648
O7	O	1.356793	0.223921	-0.069365
O8	O	1.856793	0.723921	0.430635
O9	O	1.345154	0.002186	0.069506
O10	O	1.845154	0.502186	0.569506
O11	O	1.181759	0.121873	0.069490
O12	O	1.681759	0.621873	0.569490
O13	O	1.511192	0.110794	0.069510
O14	O	2.011192	0.610794	0.569510
Zn15	Zn	1.345047	0.117375	0.091547
Zn16	Zn	1.845047	0.617375	0.591547
Zn17	Zn	1.356900	0.108732	-0.091405
Zn18	Zn	1.856900	0.608732	0.408595
O19	O	1.347796	0.230482	0.069493
O20	O	1.847796	0.730482	0.569493
C21	C	1.346255	-0.030321	0.000077
C22	C	1.846255	0.469679	0.500077
C23	C	1.336117	-0.117409	0.000076
C24	C	1.836117	0.382591	0.500076
C25	C	1.143909	0.117897	0.000059
C26	C	1.643909	0.617897	0.500059
C27	C	1.017725	0.115813	0.000051
C28	C	1.517725	0.615813	0.500051
C29	C	1.433934	-0.167233	0.000083
C30	C	1.933934	0.332767	0.500083
C31	C	1.424402	-0.249061	0.000074
C32	C	1.924402	0.250939	0.500074
C33	C	1.317051	-0.281062	0.000065
C34	C	1.817051	0.218938	0.500065
C35	C	1.219227	-0.231231	0.000056
C36	C	1.719227	0.268769	0.500056
C37	C	1.228760	-0.149406	0.000059
C38	C	1.728760	0.350594	0.500059
C39	C	1.277540	-0.524828	0.000051
C40	C	1.777540	-0.024828	0.500051
C41	C	1.268013	-0.606660	0.000051
C42	C	1.768013	-0.106660	0.500051
C43	C	1.473190	-0.624484	0.000068
C44	C	1.973190	-0.124484	0.500068
C45	C	1.482713	-0.542656	0.000076
C46	C	1.982713	-0.042656	0.500076
C47	C	1.384889	-0.492833	0.000062
C48	C	1.884889	0.007167	0.500062
N49	N	1.307305	-0.364703	0.000059
N50	N	1.807305	0.135297	0.500059
N51	N	1.394636	-0.409194	0.000062
N52	N	1.894636	0.090806	0.500062
C53	C	0.786698	0.111984	0.000076
C54	C	1.286698	0.611984	0.500076
C55	C	0.915258	0.114112	0.000062
C56	C	1.415258	0.614112	0.500062
C57	C	1.558038	0.108210	0.000081
C58	C	2.058038	0.608210	0.500081
C59	C	1.684222	0.110293	0.000083
C60	C	2.184222	0.610293	0.500083
C61	C	1.355692	0.256428	0.000063
C62	C	1.855692	0.756428	0.500063
C63	C	1.365831	0.343515	0.000058
C64	C	1.865831	0.843515	0.500058
N65	N	1.336966	0.123274	0.216406
N66	N	1.836966	0.623274	0.716406
N67	N	1.364989	0.102827	-0.216264
N68	N	1.864989	0.602827	0.283736
C69	C	1.406520	0.072365	0.260107
C70	C	1.906520	0.572365	0.760107
C71	C	1.400878	0.076499	0.347513
C72	C	1.900878	0.576499	0.847513
C73	C	1.325688	0.131546	0.391217
C74	C	1.825688	0.631546	0.891217
C75	C	1.256126	0.182457	0.347510
C76	C	1.756126	0.682457	0.847510
C77	C	1.261763	0.178319	0.260105
C78	C	1.761763	0.678319	0.760105
C79	C	1.301064	0.149600	0.652624
C80	C	1.801064	0.649600	1.152624
C81	C	1.295435	0.153735	0.740035
C82	C	1.795435	0.653735	1.240035
C83	C	1.440186	0.047776	0.740032
C84	C	1.940186	0.547776	1.240032
C85	C	1.445821	0.043646	0.652626
C86	C	1.945821	0.543646	1.152626
C87	C	1.376256	0.094554	0.608926
C88	C	1.876256	0.594554	1.108926
N89	N	1.319922	0.135774	0.480560
N90	N	1.819922	0.635774	0.980560
N91	N	1.382016	0.090321	0.519585
N92	N	1.882016	0.590321	1.019585
H93	H	1.521350	-0.141184	0.000096
H94	H	2.021350	0.358816	0.500096
Br95	Br	1.557161	-0.316677	0.000083
Br96	Br	2.057161	0.183323	0.500083
H97	H	1.507047	-0.001178	0.617044
H98	H	2.007047	0.498822	1.117044
H99	H	1.131820	-0.257293	0.000043
H100	H	1.631820	0.242707	0.500043
H101	H	1.205123	0.219774	0.224525
H102	H	1.705123	0.719774	0.724525
Br103	Br	1.144777	-0.457222	0.000028
Br104	Br	1.644777	0.042778	0.500028
H105	H	1.149107	-0.108839	0.000053
H106	H	1.649107	0.391161	0.500053
Br107	Br	1.508578	-0.002340	0.200804
Br108	Br	2.008578	0.497660	0.700804
H109	H	1.496822	0.006328	0.775620
H110	H	1.996822	0.506328	1.275620
Br111	Br	1.206659	0.218689	0.593322
Br112	Br	1.706659	0.718689	1.093322
Br113	Br	1.628411	-0.499232	0.000061
Br114	Br	2.128411	0.000768	0.500061
Br115	Br	1.495269	0.007405	0.406824
Br116	Br	1.995269	0.507405	0.906824
Br117	Br	1.154071	0.257160	0.406819
Br118	Br	1.654071	0.757160	0.906819
Br119	Br	1.605944	-0.692104	0.000087
Br120	Br	2.105944	-0.192104	0.500087
Br121	Br	1.122313	-0.650090	0.000048
Br122	Br	1.622313	-0.150090	0.500048
H123	H	1.234203	0.198565	0.775614
H124	H	1.734203	0.698565	1.275614
