data_functionalizedCrystal
_audit_creation_method	'MofGen! by Chris Wilmer'
_symmetry_space_group_name_H-M	'P1'
_symmetry_Int_Tables_number	1
_symmetry_cell_setting	triclinic
loop_
_symmetry_equiv_pos_as_xyz
  x,y,z
_cell_length_a	8.597339
_cell_length_b	8.559649
_cell_length_c	26.210047
_cell_angle_alpha	90.005433
_cell_angle_beta	97.691081
_cell_angle_gamma	77.626154
loop_
_atom_site_label
_atom_site_type_symbol
_atom_site_fract_x
_atom_site_fract_y
_atom_site_fract_z
O1	O	-2.053674	-0.238105	-0.047835
O2	O	-1.594559	-0.256347	-0.027655
O3	O	-1.864565	-0.015257	-0.039523
O4	O	-1.783668	-0.479194	-0.035967
O5	O	-1.864514	-0.015295	-0.124379
O6	O	-1.594508	-0.256384	-0.112511
O7	O	-2.053623	-0.238142	-0.132691
Cu8	Cu	-1.824061	-0.247267	-0.130349
Cu9	Cu	-1.824121	-0.247222	-0.029997
O10	O	-1.783617	-0.479232	-0.120823
C11	C	-1.536301	-0.254402	-0.067524
C12	C	-1.362788	-0.248532	-0.059897
N13	N	-1.824030	-0.247297	-0.200931
C14	C	-1.870670	0.044158	-0.082220
C15	C	-1.888919	0.221252	-0.083019
C16	C	-1.111883	-0.240080	-0.092824
C17	C	-1.285401	-0.245929	-0.100454
C18	C	-1.777512	-0.538647	-0.078125
C19	C	-1.759264	-0.715741	-0.077322
C20	C	-1.943666	-0.140492	-0.558704
C21	C	-1.943703	-0.140471	-0.772364
O22	O	-2.045361	-0.049668	-0.804455
N23	N	-1.824134	-0.247187	-0.793830
C24	C	-1.704541	-0.353910	-0.761877
O25	O	-1.602831	-0.444668	-0.785037
C26	C	-1.704498	-0.353923	-0.548217
C27	C	-1.824085	-0.247210	-0.526755
C28	C	-2.063242	-0.033787	-0.537241
C29	C	-2.063237	-0.033799	-0.483830
C30	C	-1.943655	-0.140517	-0.451881
C31	C	-1.824079	-0.247222	-0.473343
C32	C	-1.584900	-0.460636	-0.516265
C33	C	-1.584897	-0.460627	-0.462847
C34	C	-1.704484	-0.353914	-0.441385
C35	C	-1.704493	-0.353952	-0.387983
N36	N	-1.824062	-0.247236	-0.366517
C37	C	-1.943643	-0.140518	-0.398466
C38	C	-1.704573	-0.353898	-0.874051
C39	C	-1.704585	-0.353897	-0.927466
C40	C	-1.943746	-0.140455	-0.937950
C41	C	-1.943740	-0.140465	-0.884535
C42	C	-1.824143	-0.247181	-0.852586
C43	C	-1.943624	-0.140553	-0.286297
C44	C	-1.943611	-0.140579	-0.232881
C45	C	-1.704446	-0.354015	-0.222401
C46	C	-1.704462	-0.353995	-0.275813
C47	C	-1.824059	-0.247251	-0.307760
O48	O	-1.602878	-0.444696	-0.355861
O49	O	-2.045318	-0.049750	-0.375295
C50	C	-1.943672	-0.140480	-0.612116
C51	C	-1.824096	-0.247185	-0.633578
C52	C	-1.704515	-0.353903	-0.601629
C53	C	-1.824108	-0.247184	-0.686993
C54	C	-1.943689	-0.140467	-0.718942
C55	C	-2.063258	-0.033750	-0.697476
C56	C	-2.063253	-0.033762	-0.644065
C57	C	-1.584945	-0.460619	-0.623095
C58	C	-1.584961	-0.460600	-0.676507
C59	C	-1.704543	-0.353882	-0.708456
N60	N	-1.824166	-0.247180	0.040585
H61	H	-1.296303	-0.246257	-0.019337
H62	H	-1.607088	-0.440908	-0.196380
H63	H	-2.041117	-0.053570	-0.867064
C64	C	-1.592670	0.175468	-0.069892
C65	C	-1.574491	0.079021	-0.025426
C66	C	-1.421037	-0.021212	-0.018561
H67	H	-1.579846	0.109694	-0.098884
H68	H	-1.513724	0.238685	-0.066396
H69	H	-1.653414	0.015810	-0.028926
H70	H	-1.587283	0.144753	0.003574
H71	H	-1.342091	0.042005	-0.015065
H72	H	-1.408227	-0.086976	-0.047555
H73	H	-1.408677	-0.086652	0.011611
C74	C	-2.055522	0.330050	-0.090238
C75	C	-2.073758	0.426556	-0.047378
C76	C	-2.227215	0.526784	-0.054006
H77	H	-2.068312	0.395785	-0.120359
H78	H	-2.134464	0.266830	-0.093678
H79	H	-1.994839	0.489770	-0.043944
H80	H	-2.061000	0.360864	-0.017251
H81	H	-2.306158	0.463563	-0.057446
H82	H	-2.239992	0.592508	-0.084129
H83	H	-2.239614	0.592264	-0.024926
C84	C	-2.193177	0.082286	-0.620864
C85	C	-2.297863	0.175764	-0.660283
C86	C	-2.417560	0.282707	-0.638933
H87	H	-2.251637	0.024048	-0.602592
H88	H	-2.144893	0.149686	-0.597917
H89	H	-2.346143	0.108373	-0.683221
H90	H	-2.239451	0.234036	-0.678558
H91	H	-2.369276	0.350107	-0.615987
H92	H	-2.476007	0.224456	-0.620662
H93	H	-2.488595	0.346154	-0.665675
C94	C	-2.192906	0.082052	-0.732255
C95	C	-2.167273	0.059232	-0.783623
C96	C	-2.286645	0.165893	-0.815676
H97	H	-2.295436	0.063145	-0.728068
H98	H	-2.188716	0.188804	-0.723344
H99	H	-2.171479	-0.047495	-0.792531
H100	H	-2.064766	0.078151	-0.787826
H101	H	-2.282455	0.272645	-0.806766
H102	H	-2.389168	0.146978	-0.811485
H103	H	-2.269262	0.150435	-0.850533
C104	C	-1.455197	-0.576760	-0.428194
C105	C	-1.461725	-0.733893	-0.441473
C106	C	-1.342290	-0.840918	-0.409559
H107	H	-1.352665	-0.557948	-0.432425
H108	H	-1.472305	-0.561599	-0.393302
H109	H	-1.444605	-0.749047	-0.476356
H110	H	-1.564230	-0.752756	-0.437239
H111	H	-1.359398	-0.825757	-0.374667
H112	H	-1.239766	-0.822091	-0.413793
H113	H	-1.346713	-0.947544	-0.418562
H114	H	-2.040999	-0.053681	-0.215409
H115	H	-1.607180	-0.440803	-0.848041
H116	H	-2.160610	0.053099	-0.466359
C117	C	-2.073528	-0.024323	-0.972576
C118	C	-2.067029	0.132807	-0.959286
C119	C	-2.186556	0.239832	-0.991169
H120	H	-2.056535	-0.039392	-1.007474
H121	H	-2.176022	-0.043228	-0.968313
H122	H	-1.964559	0.151705	-0.963553
H123	H	-2.084039	0.147927	-0.924393
H124	H	-2.289050	0.220927	-0.986906
H125	H	-2.169553	0.224749	-1.026065
H126	H	-2.182172	0.346456	-0.982153
H127	H	-2.041008	-0.053630	-0.312303
C128	C	-1.374310	-0.248712	-0.154516
C129	C	-1.502091	-0.115059	-0.162794
C130	C	-1.584042	-0.117580	-0.212585
H131	H	-1.302694	-0.246215	-0.178987
H132	H	-1.414866	-0.343579	-0.158201
H133	H	-1.461535	-0.020216	-0.159113
H134	H	-1.573743	-0.117528	-0.138334
H135	H	-1.624598	-0.212447	-0.216270
H136	H	-1.512414	-0.115087	-0.237052
H137	H	-1.670759	-0.026907	-0.218206
C138	C	-1.574441	-0.469917	-0.299018
C139	C	-1.469695	-0.563351	-0.259602
C140	C	-1.349872	-0.670125	-0.280953
H141	H	-1.622557	-0.537372	-0.321977
H142	H	-1.516074	-0.411502	-0.317274
H143	H	-1.528054	-0.621762	-0.241355
H144	H	-1.421539	-0.495939	-0.236640
H145	H	-1.291505	-0.611710	-0.299209
H146	H	-1.398003	-0.737569	-0.303912
H147	H	-1.278779	-0.733522	-0.254212
C148	C	-1.574572	-0.469838	-0.950664
C149	C	-1.469828	-0.563257	-0.911245
C150	C	-1.350019	-0.670060	-0.932592
H151	H	-1.622699	-0.537300	-0.973618
H152	H	-1.516200	-0.411444	-0.968926
H153	H	-1.528192	-0.621647	-0.892991
H154	H	-1.421661	-0.495839	-0.888289
H155	H	-1.291647	-0.611667	-0.950854
H156	H	-1.398161	-0.737511	-0.955545
H157	H	-1.278928	-0.733448	-0.905849
H158	H	-2.160620	0.053122	-0.563250
H159	H	-1.487521	-0.547530	-0.533731
H160	H	-1.487581	-0.547512	-0.693977
H161	H	-1.487566	-0.547520	-0.597086
