data_functionalizedCrystal
_audit_creation_method	'MofGen! by Chris Wilmer'
_symmetry_space_group_name_H-M	'P1'
_symmetry_Int_Tables_number	1
_symmetry_cell_setting	triclinic
loop_
_symmetry_equiv_pos_as_xyz
  x,y,z
_cell_length_a	18.050591
_cell_length_b	18.050590
_cell_length_c	16.625539
_cell_angle_alpha	90.029956
_cell_angle_beta	90.026599
_cell_angle_gamma	90.014558
loop_
_atom_site_label
_atom_site_type_symbol
_atom_site_fract_x
_atom_site_fract_y
_atom_site_fract_z
Zn1	Zn	1.135384	-0.295737	0.456030
Zn2	Zn	1.635384	0.204263	0.956030
Zn3	Zn	1.135303	-0.419935	0.321193
Zn4	Zn	1.635303	0.080065	0.821193
Zn5	Zn	1.011191	-0.295755	0.321196
Zn6	Zn	1.511191	0.204245	0.821196
Zn7	Zn	1.011172	-0.419881	0.455969
Zn8	Zn	1.511172	0.080119	0.955969
O9	O	1.073263	-0.357827	0.388597
O10	O	1.573263	0.142173	0.888597
O11	O	1.239298	-0.312227	0.438168
O12	O	1.739298	0.187773	0.938168
O13	O	1.118814	-0.403492	0.208361
O14	O	1.618814	0.096508	0.708361
O15	O	1.027707	-0.191828	0.339109
O16	O	1.527707	0.308172	0.839109
O17	O	1.239239	-0.403475	0.339104
O18	O	1.739239	0.096525	0.839104
O19	O	1.118951	-0.191815	0.438171
O20	O	1.618951	0.308185	0.938171
O21	O	1.027629	-0.312257	0.208363
O22	O	1.527629	0.187743	0.708363
O23	O	0.907264	-0.312205	0.339050
O24	O	1.407264	0.187795	0.839050
O25	O	1.027675	-0.403384	0.568809
O26	O	1.527675	0.096616	1.068809
O27	O	0.907250	-0.403400	0.438067
O28	O	1.407250	0.096600	0.938067
O29	O	1.118933	-0.312175	0.568854
O30	O	1.618933	0.187825	1.068854
O31	O	1.118796	-0.523852	0.339045
O32	O	1.618796	-0.023852	0.839045
O33	O	1.027597	-0.523813	0.438064
O34	O	1.527597	-0.023813	0.938064
C35	C	0.880311	-0.357799	0.388552
C36	C	1.380311	0.142201	0.888552
C37	C	0.797765	-0.357805	0.388552
C38	C	1.297765	0.142195	0.888552
C39	C	0.598300	-0.308156	0.334831
C40	C	1.098300	0.191844	0.834831
C41	C	0.548890	-0.375894	0.314987
C42	C	1.048890	0.124106	0.814987
C43	C	0.646634	-0.357828	0.388589
C44	C	1.146634	0.142172	0.888589
C45	C	0.548963	-0.290113	0.408430
C46	C	1.048963	0.209887	0.908430
C47	C	0.500649	-0.357844	0.388623
C48	C	1.000649	0.142156	0.888623
C49	C	0.598312	-0.425601	0.368707
C50	C	1.098312	0.074399	0.868707
C51	C	0.598389	-0.339775	0.462184
C52	C	1.098389	0.160225	0.962184
C53	C	0.549001	-0.407560	0.442368
C54	C	1.049001	0.092440	0.942368
C55	C	0.730733	-0.357818	0.388567
C56	C	1.230733	0.142182	0.888567
C57	C	0.416553	-0.357861	0.388644
C58	C	0.916553	0.142139	0.888644
C59	C	1.073206	-0.550779	0.388565
C60	C	1.573206	-0.050779	0.888565
C61	C	1.073249	-0.633325	0.388578
C62	C	1.573249	-0.133325	0.888578
C63	C	1.122946	-0.832770	0.334807
C64	C	1.622946	-0.332770	0.834807
C65	C	1.141088	-0.882102	0.408399
C66	C	1.641088	-0.382102	0.908399
C67	C	1.073291	-0.784455	0.388610
C68	C	1.573291	-0.284455	0.888610
C69	C	1.055225	-0.882205	0.315051
C70	C	1.555225	-0.382205	0.815051
C71	C	1.073333	-0.930440	0.388635
C72	C	1.573333	-0.430440	0.888635
C73	C	1.091468	-0.832700	0.462241
C74	C	1.591468	-0.332700	0.962241
C75	C	1.005573	-0.832798	0.368844
C76	C	1.505573	-0.332798	0.868844
C77	C	1.023689	-0.882108	0.442487
C78	C	1.523689	-0.382108	0.942487
C79	C	1.073269	-0.700357	0.388595
C80	C	1.573269	-0.200357	0.888595
C81	C	1.073356	-1.014537	0.388658
C82	C	1.573356	-0.514537	0.888658
C83	C	1.266968	-0.357855	0.388642
C84	C	1.766968	0.142145	0.888642
C85	C	1.349514	-0.357867	0.388661
C86	C	1.849514	0.142133	0.888661
C87	C	1.073311	-0.357772	0.598906
C88	C	1.573311	0.142228	1.098906
C89	C	1.073332	-0.357748	0.688527
C90	C	1.573332	0.142252	1.188527
C91	C	1.073340	-0.164121	0.388647
C92	C	1.573340	0.335879	0.888647
C93	C	1.073373	-0.081576	0.388668
C94	C	1.573373	0.418424	0.888668
C95	C	1.073257	-0.357828	0.179106
C96	C	1.573257	0.142172	0.679106
C97	C	1.073381	-0.357643	0.089485
C98	C	1.573381	0.142357	0.589485
C99	C	1.073366	-0.357665	1.016703
C100	C	1.573366	0.142335	1.516703
C101	C	1.073354	-0.357690	0.925394
C102	C	1.573354	0.142310	1.425394
C103	C	1.073349	-0.357707	0.852618
C104	C	1.573349	0.142293	1.352618
C105	C	1.073337	-0.357731	0.761304
C106	C	1.573337	0.142269	1.261304
H107	H	0.527149	-0.391175	0.252764
H108	H	1.027149	0.108825	0.752764
N109	N	0.521783	-0.218266	0.429482
N110	N	1.021783	0.281734	0.929482
N111	N	0.538551	-0.190187	0.495779
N112	N	1.038551	0.309813	0.995779
H113	H	0.519358	-0.139443	0.510643
H114	H	1.019358	0.360557	1.010643
N115	N	0.625476	-0.255514	0.277754
N116	N	1.125476	0.244486	0.777754
N117	N	0.665109	-0.202776	0.300688
N118	N	1.165109	0.297224	0.800688
H119	H	0.684304	-0.165601	0.260377
H120	H	1.184304	0.334399	0.760377
N121	N	1.110758	-0.805533	0.540308
N122	N	1.610758	-0.305533	1.040308
N123	N	1.166699	-0.765499	0.549072
N124	N	1.666699	-0.265499	1.049072
H125	H	1.180327	-0.746311	0.604205
H126	H	1.680327	-0.246311	1.104205
H127	H	0.948304	-0.811124	0.352088
H128	H	1.448304	-0.311124	0.852088
N129	N	1.036019	-0.909493	0.237009
N130	N	1.536019	-0.409493	0.737009
N131	N	1.032430	-0.977717	0.224681
N132	N	1.532430	-0.477717	0.724681
H133	H	1.018870	-0.996988	0.169563
H134	H	1.518870	-0.496988	0.669563
H135	H	0.619898	-0.482890	0.351870
H136	H	1.119898	0.017110	0.851870
H137	H	1.198374	-0.903761	0.425133
H138	H	1.698374	-0.403761	0.925133
N139	N	1.175649	-0.805585	0.277799
N140	N	1.675649	-0.305585	0.777799
N141	N	1.227741	-0.765062	0.300641
N142	N	1.727741	-0.265062	0.800641
H143	H	1.264965	-0.745862	0.260385
H144	H	1.764965	-0.245862	0.760385
N145	N	0.522022	-0.460329	0.499416
N146	N	1.022022	0.039671	0.999416
N147	N	0.537994	-0.527353	0.491900
N148	N	1.037994	-0.027353	0.991900
H149	H	0.518940	-0.564623	0.532188
H150	H	1.018940	-0.064623	1.032188
H151	H	0.981716	-0.903635	0.488050
H152	H	1.481716	-0.403635	0.988050
H153	H	0.620147	-0.324474	0.524389
H154	H	1.120147	0.175526	1.024389
