data_functionalizedCrystal
_audit_creation_method	'MofGen! by Chris Wilmer'
_symmetry_space_group_name_H-M	'P1'
_symmetry_Int_Tables_number	1
_symmetry_cell_setting	triclinic
loop_
_symmetry_equiv_pos_as_xyz
  x,y,z
_cell_length_a	10.654545
_cell_length_b	15.711784
_cell_length_c	9.130313
_cell_angle_alpha	89.998699
_cell_angle_beta	89.996934
_cell_angle_gamma	102.035940
loop_
_atom_site_label
_atom_site_type_symbol
_atom_site_fract_x
_atom_site_fract_y
_atom_site_fract_z
O1	O	1.722227	0.121724	-0.121777
O2	O	1.361932	0.133327	-0.121782
O3	O	1.494135	0.001407	-0.121778
O4	O	1.590024	0.253644	-0.121781
O5	O	1.494120	0.001403	0.121821
O6	O	1.361917	0.133323	0.121817
O7	O	1.722212	0.121720	0.121822
Cu8	Cu	1.542063	0.127521	0.144062
Cu9	Cu	1.542080	0.127526	-0.144022
O10	O	1.590009	0.253640	0.121818
C11	C	1.314746	0.132474	0.000016
C12	C	1.174164	0.129927	0.000014
C13	C	1.108116	0.128727	0.132801
C14	C	0.976021	0.126320	0.132801
C15	C	0.976036	0.126318	-0.132784
C16	C	1.108126	0.128719	-0.132783
C17	C	1.478463	-0.030893	0.000019
C18	C	1.431774	-0.127131	0.000010
C19	C	1.256005	-0.253130	-0.000001
C20	C	1.299890	-0.162702	0.000006
C21	C	1.519826	-0.181982	0.000016
C22	C	1.475960	-0.272414	0.000016
C23	C	1.344049	-0.307981	0.000006
C24	C	1.564003	-0.327265	0.000023
C25	C	1.520140	-0.417689	0.000015
C26	C	1.388234	-0.453263	0.000000
C27	C	1.300186	-0.398405	-0.000002
C28	C	1.695914	-0.291697	0.000022
C29	C	1.783958	-0.346548	0.000029
C30	C	1.740095	-0.436974	0.000032
C31	C	1.608189	-0.472547	0.000017
C32	C	1.828144	-0.491831	0.000034
C33	C	1.784281	-0.582256	0.000027
C34	C	1.564326	-0.562971	0.000010
C35	C	1.769398	0.122573	0.000020
C36	C	1.909979	0.125120	0.000013
C37	C	1.605680	0.285940	0.000018
C38	C	1.652369	0.382178	0.000017
N39	N	1.542059	0.127518	0.346684
N40	N	1.542091	0.127523	-0.346645
C41	C	1.600639	0.069128	0.423338
C42	C	1.600651	0.069128	0.576675
C43	C	1.483503	0.185915	0.576691
C44	C	1.483484	0.185910	0.423357
H45	H	1.161881	0.129711	0.240932
H46	H	0.922251	0.125342	0.240929
H47	H	1.935547	-0.462859	0.000032
C48	C	1.205638	-0.572291	-0.000024
C49	C	1.340010	-0.552659	-0.000010
H50	H	1.175869	-0.633654	-0.000039
H51	H	1.174948	-0.548280	0.084919
H52	H	1.174969	-0.548264	-0.084979
H53	H	1.370679	-0.576681	0.084950
H54	H	1.370713	-0.576680	-0.084962
H55	H	0.922252	0.125335	-0.240902
C56	C	1.094886	0.128486	-0.395314
C57	C	1.180738	0.130043	-0.278753
H58	H	1.139717	0.129307	-0.485423
H59	H	1.029771	0.077097	-0.389793
H60	H	1.056961	0.178010	-0.389785
H61	H	1.218656	0.080515	-0.284276
H62	H	1.245875	0.181438	-0.284277
C63	C	1.367689	0.301343	0.561304
C64	C	1.419120	0.250099	0.660973
H65	H	1.327934	0.340964	0.613337
H66	H	1.434425	0.332859	0.501487
H67	H	1.305810	0.264958	0.501510
H68	H	1.481006	0.286484	0.720760
H69	H	1.352376	0.218581	0.720815
C70	C	1.087159	-0.370271	-0.000018
C71	C	1.155184	-0.437509	-0.000016
H72	H	0.997647	-0.394415	-0.000039
H73	H	1.108824	-0.335412	0.084932
H74	H	1.108860	-0.335395	-0.084965
H75	H	1.133490	-0.472382	0.084937
H76	H	1.133509	-0.472383	-0.084975
C77	C	1.078060	-0.152726	-0.000013
C78	C	1.203101	-0.102408	-0.000001
H79	H	1.018312	-0.115502	-0.000013
H80	H	1.065542	-0.188391	-0.084957
H81	H	1.065522	-0.188401	0.084941
H82	H	1.215643	-0.066737	-0.084960
H83	H	1.215625	-0.066727	0.084952
H84	H	1.456911	-0.591931	0.000035
C85	C	1.684731	-0.051930	0.000044
C86	C	1.664820	-0.142882	0.000036
H87	H	1.774246	-0.027795	0.000069
H88	H	1.646756	-0.033152	-0.084907
H89	H	1.646711	-0.033161	0.084991
H90	H	1.702833	-0.161651	-0.084917
H91	H	1.702812	-0.161667	0.084996
C92	C	1.862564	-0.695127	-0.125194
C93	C	1.881054	-0.642555	0.000037
H94	H	1.922315	-0.732350	-0.125193
H95	H	1.777736	-0.729246	-0.125193
H96	H	1.875122	-0.659437	-0.210129
H97	H	1.868486	-0.678246	0.084972
H98	H	1.965902	-0.608434	0.000050
H99	H	1.148590	-0.282090	0.000024
H100	H	1.731624	-0.218067	0.000032
C101	C	1.716420	-0.046317	0.438730
C102	C	1.665008	0.004936	0.339059
H103	H	1.756150	-0.085952	0.386699
H104	H	1.778303	-0.009945	0.498514
H105	H	1.649667	-0.077825	0.498556
H106	H	1.731764	0.036449	0.279238
H107	H	1.603120	-0.031440	0.279249
H108	H	1.891361	-0.317577	0.000043
H109	H	1.648350	0.021581	0.639082
H110	H	1.435776	0.233458	0.360941
