data_functionalizedCrystal
_audit_creation_method	'MofGen! by Chris Wilmer'
_symmetry_space_group_name_H-M	'P1'
_symmetry_Int_Tables_number	1
_symmetry_cell_setting	triclinic
loop_
_symmetry_equiv_pos_as_xyz
  x,y,z
_cell_length_a	16.992694
_cell_length_b	19.188930
_cell_length_c	15.455313
_cell_angle_alpha	92.650876
_cell_angle_beta	87.142206
_cell_angle_gamma	86.906503
loop_
_atom_site_label
_atom_site_type_symbol
_atom_site_fract_x
_atom_site_fract_y
_atom_site_fract_z
O1	O	1.043326	0.145160	-0.072038
O2	O	0.815047	0.143535	-0.072064
O3	O	0.935773	0.043078	-0.072033
O4	O	0.922600	0.245617	-0.072069
O5	O	0.928870	0.048798	0.072227
O6	O	0.808144	0.149255	0.072197
O7	O	1.036422	0.150879	0.072222
Cu8	Cu	0.921653	0.150589	0.085382
Cu9	Cu	0.929817	0.143825	-0.085223
O10	O	0.915696	0.251336	0.072192
C11	C	0.782390	0.144306	0.000064
C12	C	0.695368	0.138072	0.000055
C13	C	0.644922	0.198212	0.000045
C14	C	0.563155	0.192351	0.000058
C15	C	0.531836	0.126351	0.000075
C16	C	0.582288	0.066208	0.000087
C17	C	0.664053	0.072069	0.000080
C18	C	0.288320	0.102059	0.000102
C19	C	0.206548	0.096203	0.000106
C20	C	0.187420	0.222347	0.000079
C21	C	0.269188	0.228202	0.000067
C22	C	0.319633	0.168059	0.000084
N23	N	0.448257	0.120360	0.000085
N24	N	0.403210	0.174051	0.000079
C25	C	0.931895	0.019902	0.000099
C26	C	0.930614	-0.057677	0.000107
C27	C	1.001452	-0.098455	0.000119
C28	C	1.000250	-0.171350	0.000105
C29	C	0.928204	-0.203463	0.000096
C30	C	0.857356	-0.162676	0.000079
C31	C	0.858561	-0.089783	0.000085
N32	N	0.870784	-0.312744	0.049185
N33	N	0.869644	-0.381990	0.049181
C34	C	0.924569	-0.423085	0.000078
N35	N	0.980688	-0.392319	-0.049011
N36	N	0.981830	-0.323067	-0.049004
C37	C	0.926889	-0.282503	0.000090
C38	C	0.994108	-0.542904	0.000074
C39	C	0.992903	-0.615801	0.000054
C40	C	0.850007	-0.607124	0.000038
C41	C	0.851215	-0.534230	0.000048
C42	C	0.923267	-0.502124	0.000070
C43	C	1.069079	0.150109	0.000093
C44	C	1.156102	0.156342	0.000096
C45	C	0.919575	0.274513	0.000057
C46	C	0.920856	0.352092	0.000044
N47	N	0.915916	0.155346	0.205376
N48	N	0.935560	0.139063	-0.205217
C49	C	0.967222	0.112686	0.250783
C50	C	0.962891	0.116291	0.341590
C51	C	0.907257	0.162559	0.386988
C52	C	0.855945	0.205221	0.341574
C53	C	0.860273	0.201613	0.250769
C54	C	0.888576	0.178116	0.658564
C55	C	0.884253	0.181723	0.749376
C56	C	0.991199	0.092792	0.749385
C57	C	0.995525	0.089190	0.658578
C58	C	0.944211	0.131849	0.613173
N59	N	0.902830	0.166246	0.479807
N60	N	0.948634	0.128158	0.520355
H61	H	0.181052	0.042455	0.000119
H62	H	0.705127	0.023097	0.000088
H63	H	0.146339	0.271312	0.000067
O64	O	1.064167	-0.511826	0.000041
C65	C	1.126435	-0.563453	0.000058
H66	H	1.105935	-0.615221	-0.027257
H67	H	1.144971	-0.569807	0.069266
C68	C	1.222286	-0.477754	-0.022964
C69	C	1.197109	-0.541335	-0.056521
H70	H	1.265883	-0.464110	-0.057861
H71	H	1.180335	-0.442971	-0.022973
H72	H	1.237726	-0.483057	0.034708
H73	H	1.181660	-0.536029	-0.114188
H74	H	1.239059	-0.576117	-0.056524
H75	H	1.060123	-0.072320	0.000134
H76	H	0.791346	-0.633270	0.000026
O77	O	0.782327	-0.494716	0.000086
C78	C	0.718478	-0.538688	0.000054
H79	H	0.737257	-0.590842	0.027362
H80	H	0.699693	-0.547838	-0.069158
C81	C	0.625678	-0.439851	0.023083
C82	C	0.648740	-0.503906	0.056631
H83	H	0.582658	-0.418396	0.057979
H84	H	0.668693	-0.410226	0.023102
H85	H	0.610028	-0.447486	-0.034593
H86	H	0.664398	-0.496270	0.114301
H87	H	0.605726	-0.533530	0.056623
H88	H	0.846795	0.212852	0.621602
H89	H	0.810642	0.242891	0.378543
O90	O	0.337205	0.043566	0.000076
C91	C	0.292025	-0.015941	0.000112
H92	H	0.232241	-0.002708	-0.027203
H93	H	0.282962	-0.033210	0.069326
C94	C	0.409099	-0.091741	-0.022900
C95	C	0.335674	-0.075491	-0.056455
H96	H	0.436024	-0.128476	-0.057789
H97	H	0.439539	-0.051651	-0.022920
H98	H	0.401537	-0.106128	0.034778
H99	H	0.343237	-0.061096	-0.114127
H100	H	0.305236	-0.115580	-0.056446
H101	H	0.294682	0.281946	0.000043
H102	H	0.818493	0.236350	0.213800
O103	O	0.551899	0.002085	0.000255
C104	C	0.574149	-0.031898	0.074963
H105	H	0.588534	0.008686	0.127178
H106	H	0.628383	-0.068491	0.058076
C107	C	0.488093	-0.124258	0.044717
C108	C	0.505754	-0.074411	0.108851
H109	H	0.445907	-0.150485	0.065619
H110	H	0.473105	-0.101365	-0.005617
H111	H	0.533294	-0.154745	0.030650
H112	H	0.460558	-0.043920	0.122908
H113	H	0.520734	-0.097300	0.159188
O114	O	0.514265	0.250840	0.000009
C115	C	0.559440	0.310350	0.000009
H116	H	0.621832	0.294953	-0.027307
H117	H	0.561897	0.333113	0.069213
C118	C	0.444559	0.384318	-0.023024
C119	C	0.521187	0.365407	-0.056580
H120	H	0.420961	0.418282	-0.057927
H121	H	0.414122	0.344226	-0.023021
H122	H	0.446616	0.403283	0.034645
H123	H	0.519127	0.346435	-0.114244
H124	H	0.551622	0.405498	-0.056594
O125	O	1.021290	0.067681	0.206821
C126	C	1.065657	0.030813	0.266376
H127	H	1.030434	0.030788	0.331109
H128	H	1.123352	0.057142	0.276018
C129	C	1.127027	-0.044961	0.151454
C130	C	1.083762	-0.044996	0.230958
H131	H	1.138199	-0.091723	0.129606
H132	H	1.097139	-0.020121	0.111330
H133	H	1.175101	-0.023016	0.159500
H134	H	1.035685	-0.066932	0.222909
H135	H	1.113643	-0.069842	0.271080
O136	O	1.012627	0.074779	0.385732
C137	C	0.968301	0.031440	0.438292
H138	H	0.907786	0.025688	0.410941
H139	H	0.960838	0.055785	0.507108
C140	C	1.086032	-0.033954	0.473286
C141	C	1.011709	-0.041023	0.439688
H142	H	1.112810	-0.078652	0.474151
H143	H	1.115896	-0.004754	0.437878
H144	H	1.079803	-0.013664	0.530629
H145	H	1.017940	-0.061305	0.382343
H146	H	0.981847	-0.070228	0.475087
H147	H	1.057937	-0.204558	0.000111
O148	O	1.041115	0.051319	0.793358
C149	C	1.091129	0.009692	0.733816
H150	H	1.095007	0.035794	0.669080
H151	H	1.066307	-0.043978	0.724173
C152	C	1.169292	-0.030598	0.848758
C153	C	1.174060	0.001463	0.769251
H154	H	1.220447	-0.035677	0.870617
H155	H	1.135596	-0.002556	0.888874
H156	H	1.148604	-0.075320	0.840711
H157	H	1.194738	0.046187	0.777301
H158	H	1.207762	-0.026572	0.729137
H159	H	0.798696	-0.188827	0.000070
O160	O	1.049344	0.044175	0.614249
C161	C	1.100113	0.081928	0.561410
H162	H	1.100450	0.138108	0.588754
H163	H	1.078515	0.081628	0.492738
C164	C	1.183879	-0.021319	0.525933
C165	C	1.184298	0.047681	0.559522
H166	H	1.235807	-0.042445	0.524764
H167	H	1.149673	-0.046755	0.561529
H168	H	1.165877	-0.021560	0.468709
H169	H	1.202290	0.047920	0.616748
H170	H	1.218509	0.073116	0.523936
O171	O	0.830129	0.226680	0.793343
C172	C	0.785774	0.263568	0.733796
H173	H	0.788078	0.232329	0.669074
H174	H	0.811494	0.316480	0.724122
C175	C	0.696640	0.312951	0.848742
C176	C	0.699463	0.274580	0.769250
H177	H	0.643400	0.319747	0.870612
H178	H	0.726524	0.288101	0.888860
H179	H	0.718077	0.357041	0.840669
H180	H	0.678036	0.230488	0.777326
H181	H	0.669574	0.299423	0.729134
H182	H	1.050591	-0.649002	0.000059
H183	H	0.670415	0.251956	0.000031
H184	H	0.800874	-0.056581	0.000075
