data_functionalizedCrystal
_audit_creation_method	'MofGen! by Chris Wilmer'
_symmetry_space_group_name_H-M	'P1'
_symmetry_Int_Tables_number	1
_symmetry_cell_setting	triclinic
loop_
_symmetry_equiv_pos_as_xyz
  x,y,z
_cell_length_a	29.839131
_cell_length_b	12.759401
_cell_length_c	29.839126
_cell_angle_alpha	89.972489
_cell_angle_beta	90.021998
_cell_angle_gamma	89.961559
loop_
_atom_site_label
_atom_site_type_symbol
_atom_site_fract_x
_atom_site_fract_y
_atom_site_fract_z
Zn1	Zn	-0.178933	-1.606105	0.254026
Zn2	Zn	0.321067	-1.106105	0.754026
Zn3	Zn	-0.254051	-1.605904	0.178896
Zn4	Zn	0.245949	-1.105904	0.678896
Zn5	Zn	-0.178932	-1.430394	0.178907
Zn6	Zn	0.321068	-0.930394	0.678907
Zn7	Zn	-0.254033	-1.430314	0.253996
Zn8	Zn	0.245967	-0.930314	0.753996
O9	O	-0.216487	-1.518179	0.216456
O10	O	0.283513	-1.018179	0.716456
O11	O	-0.188906	-1.753099	0.244069
O12	O	0.311094	-1.253099	0.744069
O13	O	-0.244093	-1.582572	0.116031
O14	O	0.255907	-1.082572	0.616031
O15	O	-0.116065	-1.453820	0.188889
O16	O	0.383935	-0.953820	0.688889
O17	O	-0.244094	-1.752952	0.188871
O18	O	0.255906	-1.252952	0.688871
O19	O	-0.116066	-1.582914	0.244079
O20	O	0.383934	-1.082914	0.744079
O21	O	-0.188903	-1.453625	0.116038
O22	O	0.311097	-0.953625	0.616038
O23	O	-0.188886	-1.283362	0.188859
O24	O	0.311114	-0.783362	0.688859
O25	O	-0.244064	-1.453683	0.316867
O26	O	0.255936	-0.953683	0.816867
O27	O	-0.244062	-1.283303	0.244026
O28	O	0.255938	-0.783303	0.744026
O29	O	-0.188888	-1.582837	0.316889
O30	O	0.311112	-1.082837	0.816889
O31	O	-0.316915	-1.582494	0.188841
O32	O	0.183085	-1.082494	0.688841
O33	O	-0.316902	-1.453489	0.244016
O34	O	0.183098	-0.953489	0.744016
C35	C	-0.216472	-1.245212	0.216441
C36	C	0.283528	-0.745212	0.716441
C37	C	-0.216477	-1.128435	0.216445
C38	C	0.283523	-0.628435	0.716445
C39	C	-0.187716	-0.963842	0.187774
C40	C	0.312284	-0.463842	0.687774
C41	C	-0.187708	-1.073566	0.187770
C42	C	0.312292	-0.573566	0.687770
C43	C	-0.245253	-1.073575	0.245128
C44	C	0.254747	-0.573575	0.745128
C45	C	-0.245259	-0.963853	0.245134
C46	C	0.254741	-0.463853	0.745134
C47	C	-0.134693	-1.223561	0.171808
C48	C	0.365307	-0.723561	0.671808
C49	C	-0.105922	-1.278417	0.143120
C50	C	0.394078	-0.778417	0.643120
C51	C	-0.098963	-1.242753	0.099299
C52	C	0.401037	-0.742753	0.599299
C53	C	-0.120781	-1.152233	0.084157
C54	C	0.379219	-0.652233	0.584157
C55	C	-0.149556	-1.097382	0.112842
C56	C	0.350444	-0.597382	0.612842
C57	C	-0.156507	-1.133045	0.156669
C58	C	0.343493	-0.633045	0.656669
C59	C	-0.298274	-0.813856	0.261092
C60	C	0.201726	-0.313856	0.761092
C61	C	-0.327051	-0.759003	0.289775
C62	C	0.172949	-0.259003	0.789775
C63	C	-0.334015	-0.794665	0.333597
C64	C	0.165985	-0.294665	0.833597
C65	C	-0.312205	-0.885188	0.348738
C66	C	0.187795	-0.385188	0.848738
C67	C	-0.283428	-0.940041	0.320055
C68	C	0.216572	-0.440041	0.820055
C69	C	-0.276463	-0.904371	0.276233
C70	C	0.223537	-0.404371	0.776233
C71	C	-0.333210	-1.517989	0.216434
C72	C	0.166790	-1.017989	0.716434
C73	C	-0.383144	-1.518004	0.216439
C74	C	0.116856	-1.018004	0.716439
C75	C	-0.692782	-1.585475	0.187769
C76	C	-0.192782	-1.085475	0.687769
C77	C	-0.880455	-1.585604	0.187786
C78	C	-0.380455	-1.085604	0.687786
O79	O	-0.904714	-1.642819	0.163392
O80	O	-0.404714	-1.142819	0.663392
N81	N	-0.903929	-1.518397	0.216490
N82	N	-0.403929	-1.018397	0.716490
C83	C	-0.880482	-1.451158	0.245194
C84	C	-0.380482	-0.951158	0.745194
O85	O	-0.904755	-1.394004	0.269612
O86	O	-0.404755	-0.894004	0.769612
C87	C	-0.692810	-1.451034	0.245179
C88	C	-0.192810	-0.951034	0.745179
C89	C	-0.669338	-1.518238	0.216469
C90	C	-0.169338	-1.018238	0.716469
C91	C	-0.669310	-1.652674	0.159062
C92	C	-0.169310	-1.152674	0.659062
C93	C	-0.622394	-1.652637	0.159056
C94	C	-0.122394	-1.152637	0.659056
C95	C	-0.598951	-1.585400	0.187757
C96	C	-0.098951	-1.085400	0.687757
C97	C	-0.622423	-1.518201	0.216464
C98	C	-0.122423	-1.018201	0.716464
C99	C	-0.669364	-1.383800	0.273884
C100	C	-0.169364	-0.883800	0.773884
C101	C	-0.622443	-1.383777	0.273879
C102	C	-0.122443	-0.883777	0.773879
C103	C	-0.598971	-1.450981	0.245170
C104	C	-0.098971	-0.950981	0.745170
C105	C	-0.552064	-1.450927	0.245158
C106	C	-0.052064	-0.950927	0.745158
N107	N	-0.528589	-1.518134	0.216454
N108	N	-0.028589	-1.018134	0.716454
C109	C	-0.552033	-1.585371	0.187754
C110	C	-0.052033	-1.085371	0.687754
C111	C	-0.979013	-1.451226	0.245200
C112	C	-0.479013	-0.951226	0.745200
C113	C	-1.025931	-1.451255	0.245203
C114	C	-0.525931	-0.951255	0.745203
C115	C	-1.025900	-1.585704	0.187795
C116	C	-0.525900	-1.085704	0.687795
C117	C	-0.978981	-1.585668	0.187790
C118	C	-0.478981	-1.085668	0.687790
C119	C	-0.955538	-1.518433	0.216495
C120	C	-0.455538	-1.018433	0.716495
C121	C	-0.453507	-1.585287	0.187743
C122	C	0.046493	-1.085287	0.687743
C123	C	-0.406587	-1.585241	0.187739
C124	C	0.093413	-1.085241	0.687739
C125	C	-0.406622	-1.450797	0.245148
C126	C	0.093378	-0.950797	0.745148
C127	C	-0.453538	-1.450839	0.245151
C128	C	0.046462	-0.950839	0.745151
C129	C	-0.476979	-1.518092	0.216447
C130	C	0.023021	-1.018092	0.716447
O131	O	-0.527775	-1.393750	0.269543
O132	O	-0.027775	-0.893750	0.769543
O133	O	-0.527752	-1.642532	0.163346
O134	O	-0.027752	-1.142532	0.663346
C135	C	-0.739697	-1.585512	0.187774
C136	C	-0.239697	-1.085512	0.687774
C137	C	-0.763169	-1.518312	0.216481
C138	C	-0.263169	-1.018312	0.716481
C139	C	-0.739726	-1.451076	0.245182
C140	C	-0.239726	-0.951076	0.745182
C141	C	-0.810087	-1.518342	0.216484
C142	C	-0.310087	-1.018342	0.716484
C143	C	-0.833530	-1.585578	0.187784
C144	C	-0.333530	-1.085578	0.687784
C145	C	-0.810056	-1.652785	0.159079
C146	C	-0.310056	-1.152785	0.659079
C147	C	-0.763140	-1.652748	0.159074
C148	C	-0.263140	-1.152748	0.659074
C149	C	-0.763200	-1.383869	0.273886
C150	C	-0.263200	-0.883869	0.773886
C151	C	-0.810116	-1.383910	0.273889
C152	C	-0.310116	-0.883910	0.773889
C153	C	-0.833559	-1.451147	0.245188
C154	C	-0.333559	-0.951147	0.745188
C155	C	-0.099309	-1.518398	0.216488
C156	C	0.400691	-1.018398	0.716488
C157	C	-0.049374	-1.518492	0.216502
C158	C	0.450626	-1.018492	0.716502
C159	C	-0.216474	-1.518273	0.333635
C160	C	0.283526	-1.018273	0.833635
C161	C	-0.216469	-1.518314	0.383569
C162	C	0.283531	-1.018314	0.883569
C163	C	-0.216498	-0.792212	0.216466
C164	C	0.283502	-0.292212	0.716466
C165	C	-0.216492	-0.908989	0.216455
C166	C	0.283508	-0.408989	0.716455
C167	C	-0.216467	-1.518146	0.099734
C168	C	0.283533	-1.018146	0.599734
C169	C	-0.216346	-1.518309	0.049800
C170	C	0.283654	-1.018309	0.549800
C171	C	-0.245146	-1.585442	0.740155
C172	C	0.254854	-1.085442	1.240155
C173	C	-0.245177	-1.585444	0.552482
C174	C	0.254823	-1.085444	1.052482
O175	O	-0.269630	-1.642508	0.528217
O176	O	0.230370	-1.142508	1.028217
N177	N	-0.216447	-1.518309	0.529014
N178	N	0.283553	-1.018309	1.029014
C179	C	-0.187709	-1.451164	0.552467
C180	C	0.312291	-0.951164	1.052467
O181	O	-0.163276	-1.394054	0.528200
O182	O	0.336724	-0.894054	1.028200
C183	C	-0.187680	-1.451158	0.740140
C184	C	0.312320	-0.951158	1.240140
C185	C	-0.216409	-1.518304	0.763605
C186	C	0.283591	-1.018304	1.263605
C187	C	-0.273873	-1.652582	0.763621
C188	C	0.226127	-1.152582	1.263621
C189	C	-0.273863	-1.652585	0.810537
C190	C	0.226137	-1.152585	1.310537
C191	C	-0.245126	-1.585448	0.833986
C192	C	0.254874	-1.085448	1.333986
C193	C	-0.216399	-1.518307	0.810521
C194	C	0.283601	-1.018307	1.310521
C195	C	-0.158945	-1.384008	0.763592
C196	C	0.341055	-0.884008	1.263592
C197	C	-0.158941	-1.384011	0.810513
C198	C	0.341059	-0.884011	1.310513
C199	C	-0.187670	-1.451157	0.833979
C200	C	0.312330	-0.951157	1.333979
C201	C	-0.187653	-1.451173	0.880886
C202	C	0.312347	-0.951173	1.380886
N203	N	-0.216383	-1.518308	0.904354
N204	N	0.283617	-1.018308	1.404354
C205	C	-0.245120	-1.585445	0.880904
C206	C	0.254880	-1.085445	1.380904
C207	C	-0.187725	-1.451173	0.453937
C208	C	0.312275	-0.951173	0.953937
C209	C	-0.187732	-1.451176	0.407019
C210	C	0.312268	-0.951176	0.907019
C211	C	-0.245201	-1.585455	0.407037
C212	C	0.254799	-1.085455	0.907037
C213	C	-0.245192	-1.585457	0.453956
C214	C	0.254808	-1.085457	0.953956
C215	C	-0.216456	-1.518308	0.477405
C216	C	0.283544	-1.018308	0.977405
C217	C	-0.245097	-1.585447	0.979430
C218	C	0.254903	-1.085447	1.479430
C219	C	-0.245083	-1.585447	1.026350
C220	C	0.254917	-1.085447	1.526350
C221	C	-0.187616	-1.451165	1.026328
C222	C	0.312384	-0.951165	1.526328
C223	C	-0.187628	-1.451168	0.979412
C224	C	0.312372	-0.951168	1.479412
C225	C	-0.216372	-1.518313	0.955964
C226	C	0.283628	-1.018313	1.455964
O227	O	-0.163216	-1.394130	0.905180
O228	O	0.336784	-0.894130	1.405180
O229	O	-0.269556	-1.642530	0.905180
O230	O	0.230444	-1.142530	1.405180
C231	C	-0.245156	-1.585439	0.693240
C232	C	0.254844	-1.085439	1.193240
C233	C	-0.216429	-1.518299	0.669774
C234	C	0.283571	-1.018299	1.169774
C235	C	-0.187692	-1.451161	0.693224
C236	C	0.312308	-0.951161	1.193224
C237	C	-0.216435	-1.518301	0.622857
C238	C	0.283565	-1.018301	1.122857
C239	C	-0.245172	-1.585439	0.599407
C240	C	0.254828	-1.085439	1.099407
C241	C	-0.273903	-1.652574	0.622875
C242	C	0.226097	-1.152574	1.122875
C243	C	-0.273893	-1.652577	0.669790
C244	C	0.226107	-1.152577	1.169790
C245	C	-0.158962	-1.384026	0.669756
C246	C	0.341038	-0.884026	1.169756
C247	C	-0.158974	-1.384029	0.622841
C248	C	0.341026	-0.884029	1.122841
C249	C	-0.187710	-1.451167	0.599391
C250	C	0.312290	-0.951167	1.099391
H251	H	-0.268676	-1.118258	0.268477
H252	H	0.231324	-0.618258	0.768477
Br253	Br	-0.148617	-1.360056	1.058161
Br254	Br	0.351383	-0.860056	1.558161
H255	H	-0.167321	-1.023685	0.100513
H256	H	0.332679	-0.523685	0.600513
H257	H	-0.387528	-1.396050	0.268514
H258	H	0.112472	-0.896050	0.768514
Br259	Br	-0.731293	-1.743961	0.120110
Br260	Br	-0.231293	-1.243961	0.620110
H261	H	-1.045038	-1.396521	0.268577
H262	H	-0.545038	-0.896521	0.768577
H263	H	-0.268586	-1.640133	0.473058
H264	H	0.231414	-1.140133	0.973058
Br265	Br	-0.841881	-1.744030	0.120127
Br266	Br	-0.341881	-1.244030	0.620127
Br267	Br	-0.148733	-1.360009	0.485754
Br268	Br	0.351267	-0.860009	0.985754
H269	H	-0.472587	-1.640054	0.164371
H270	H	0.027413	-1.140054	0.664371
H271	H	-0.603286	-1.707363	0.135680
H272	H	-0.103286	-1.207363	0.635680
H273	H	-0.115117	-1.123210	0.048471
H274	H	0.384883	-0.623210	0.548471
H275	H	-0.688467	-1.329071	0.297260
H276	H	-0.188467	-0.829071	0.797260
Br277	Br	-0.119969	-1.292875	0.701574
Br278	Br	0.380031	-0.792875	1.201574
Br279	Br	-0.312860	-1.743706	0.842375
Br280	Br	0.187140	-1.243706	1.342375
H281	H	-0.140353	-1.252601	0.207492
H282	H	0.359647	-0.752601	0.707492
H283	H	-0.688392	-1.707432	0.135690
H284	H	-0.188392	-1.207432	0.635690
Br285	Br	-0.284074	-1.676584	1.058193
Br286	Br	0.215926	-1.176584	1.558193
H287	H	-0.135551	-1.329328	0.744494
H288	H	0.364449	-0.829328	1.244494
Br289	Br	-0.312885	-1.743708	0.701629
Br290	Br	0.187115	-1.243708	1.201629
Br291	Br	-0.947131	-1.676875	0.148826
Br292	Br	-0.447131	-1.176875	0.648826
H293	H	-0.959929	-1.396472	0.268575
H294	H	-0.459929	-0.896472	0.768575
H295	H	-0.135540	-1.329329	0.829603
H296	H	0.364460	-0.829329	1.329603
H297	H	-0.603359	-1.329028	0.297256
H298	H	-0.103359	-0.829028	0.797256
H299	H	-0.265668	-1.013750	0.332386
H300	H	0.234332	-0.513750	0.832386
Br301	Br	-0.288823	-0.765449	0.201617
Br302	Br	0.211177	-0.265449	0.701617
H303	H	-0.164228	-1.396506	0.960305
H304	H	0.335772	-0.896506	1.460305
H305	H	-0.297299	-1.707243	0.603774
H306	H	0.202701	-1.207243	1.103774
Br307	Br	-0.284202	-1.676568	0.375203
Br308	Br	0.215798	-1.176568	0.875203
Br309	Br	-0.321658	-0.933600	0.408211
Br310	Br	0.178342	-0.433600	0.908211
H311	H	-0.829222	-1.329175	0.297267
H312	H	-0.329222	-0.829175	0.797267
Br313	Br	-0.148733	-1.360063	0.375179
Br314	Br	0.351267	-0.860063	0.875179
Br315	Br	-0.119977	-1.292899	0.591000
Br316	Br	0.380023	-0.792899	1.091000
H317	H	-0.472650	-1.396119	0.268530
H318	H	0.027350	-0.896119	0.768530
H319	H	-0.357451	-0.749998	0.356949
H320	H	0.142549	-0.249998	0.856949
H321	H	-1.044995	-1.640450	0.164426
H322	H	-0.544995	-1.140450	0.664426
H323	H	-0.075536	-1.287425	0.075942
H324	H	0.424464	-0.787425	0.575942
Br325	Br	-0.148674	-0.889387	0.148853
Br326	Br	0.351326	-0.389387	0.648853
H327	H	-0.387478	-1.639966	0.164359
H328	H	0.112522	-1.139966	0.664359
H329	H	-0.744116	-1.329118	0.297258
H330	H	-0.244116	-0.829118	0.797258
Br331	Br	-0.284107	-1.676571	0.947616
Br332	Br	0.215893	-1.176571	1.447616
H333	H	-0.088158	-1.352118	0.155453
H334	H	0.411842	-0.852118	0.655453
H335	H	-0.344812	-0.685296	0.277443
H336	H	0.155188	-0.185296	0.777443
H337	H	-0.297276	-1.707255	0.744533
H338	H	0.202724	-1.207255	1.244533
