data_functionalizedCrystal
_audit_creation_method	'MofGen! by Chris Wilmer'
_symmetry_space_group_name_H-M	'P1'
_symmetry_Int_Tables_number	1
_symmetry_cell_setting	triclinic
loop_
_symmetry_equiv_pos_as_xyz
  x,y,z
_cell_length_a	16.959455
_cell_length_b	16.959453
_cell_length_c	15.296720
_cell_angle_alpha	80.355972
_cell_angle_beta	80.343069
_cell_angle_gamma	90.017008
loop_
_atom_site_label
_atom_site_type_symbol
_atom_site_fract_x
_atom_site_fract_y
_atom_site_fract_z
Zn1	Zn	1.131012	-0.392082	0.510172
Zn2	Zn	1.153813	-0.501402	0.359323
Zn3	Zn	1.021718	-0.369236	0.359327
Zn4	Zn	0.998815	-0.524206	0.510109
O5	O	1.076339	-0.446731	0.434733
O6	O	1.244644	-0.406602	0.490187
O7	O	1.155417	-0.464765	0.233089
O8	O	1.036259	-0.261660	0.379365
O9	O	1.261395	-0.486919	0.379358
O10	O	1.116557	-0.278445	0.490191
O11	O	1.058367	-0.367663	0.233092
O12	O	0.908073	-0.389775	0.379304
O13	O	0.997225	-0.525784	0.636351
O14	O	0.891246	-0.503631	0.490083
O15	O	1.094349	-0.428713	0.636398
O16	O	1.133209	-0.615034	0.379296
O17	O	1.019333	-0.631788	0.490078
C18	C	0.870980	-0.446699	0.434687
C19	C	0.783123	-0.446707	0.434689
C20	C	0.420357	-0.488498	0.376995
C21	C	0.402908	-0.405047	0.492581
C22	C	0.485457	-0.405031	0.492559
C23	C	0.535460	-0.446750	0.434755
C24	C	0.502914	-0.488485	0.376973
C25	C	0.518009	-0.363303	0.550346
C26	C	0.600563	-0.363286	0.550327
C27	C	0.650568	-0.405000	0.492518
C28	C	0.618017	-0.446737	0.434733
C29	C	0.668020	-0.488455	0.376929
C30	C	0.635472	-0.530188	0.319139
C31	C	0.552919	-0.530200	0.319164
C32	C	0.733120	-0.404988	0.492493
C33	C	0.750577	-0.488442	0.376907
C34	C	1.076279	-0.652093	0.434700
C35	C	1.076320	-0.739952	0.434716
C36	C	1.118199	-1.120128	0.492549
C37	C	1.034680	-1.102752	0.377051
C38	C	1.034654	-1.020203	0.377030
C39	C	1.076400	-0.987613	0.434771
C40	C	1.118172	-1.037572	0.492532
C41	C	0.992876	-0.970239	0.319277
C42	C	0.992848	-0.887685	0.319255
C43	C	1.034599	-0.855093	0.376991
C44	C	1.076373	-0.905057	0.434754
C45	C	1.118119	-0.872467	0.492494
C46	C	1.159899	-0.922429	0.550252
C47	C	1.159923	-1.004980	0.550268
C48	C	1.034574	-0.772542	0.376976
C49	C	1.118092	-0.789911	0.492477
C50	C	1.282501	-0.446765	0.434779
C51	C	1.370354	-0.446779	0.434799
C52	C	1.040689	-0.482341	0.670021
C53	C	1.025497	-0.497516	0.770287
C54	C	1.076419	-0.240571	0.434786
C55	C	1.076453	-0.152718	0.434808
C56	C	1.111897	-0.411204	0.200360
C57	C	1.127242	-0.395806	0.100095
C58	C	1.184950	-0.338138	1.053017
C59	C	1.199228	-0.323882	0.958812
C60	C	1.155797	-0.367289	0.911676
C61	C	1.098084	-0.424955	0.958754
C62	C	1.083808	-0.439216	1.052968
C63	C	1.054655	-0.468367	0.911627
C64	C	0.996942	-0.526033	0.958705
C65	C	0.982669	-0.540292	1.052910
C66	C	1.026100	-0.496885	1.100046
C67	C	1.068931	-0.454106	0.817413
C68	C	0.967789	-0.555184	0.817365
C69	C	0.953510	-0.569440	0.911569
H70	H	0.759617	-0.371013	0.539547
H71	H	0.935682	-0.587254	1.091238
H72	H	1.193884	-0.895885	0.597269
H73	H	0.676194	-0.564160	0.272080
C74	C	1.010396	-0.512566	1.203672
H75	H	1.044529	-0.478455	1.224998
H76	H	0.956165	-0.502116	1.224975
H77	H	1.020821	-0.566802	1.224975
C78	C	0.920014	-0.602941	0.765529
H79	H	0.883608	-0.639336	0.807059
H80	H	0.891155	-0.567141	0.728776
H81	H	0.955814	-0.631822	0.728780
H82	H	1.000689	-1.129293	0.330045
C83	C	0.946902	-0.832733	0.255715
H84	H	0.922049	-0.863966	0.221326
H85	H	0.907206	-0.805750	0.290169
H86	H	0.983117	-0.794586	0.216435
C87	C	0.890037	-0.632875	0.963361
H88	H	0.887762	-0.635153	1.026218
H89	H	0.839272	-0.618965	0.947916
H90	H	0.903929	-0.683650	0.947912
H91	H	0.393853	-0.522473	0.329941
H92	H	0.958887	-0.996781	0.272270
H93	H	1.115920	-0.407153	0.779092
C94	C	0.347908	-0.359159	0.556158
H95	H	0.294082	-0.365141	0.547891
H96	H	0.352278	-0.379971	0.616742
H97	H	0.363426	-0.304045	0.543049
C98	C	0.988621	-0.717589	0.313452
H99	H	0.963764	-0.748821	0.279066
H100	H	0.948927	-0.690610	0.347915
H101	H	1.024829	-0.679438	0.274168
C102	C	0.805574	-0.534338	0.313326
H103	H	0.774363	-0.559197	0.278921
H104	H	0.843719	-0.498109	0.274076
H105	H	0.832559	-0.574038	0.347764
H106	H	1.246220	-0.276932	0.920488
H107	H	0.526411	-0.564175	0.272114
C108	C	1.171496	-0.351601	0.808053
H109	H	1.212081	-0.311036	0.786766
H110	H	1.188367	-0.399381	0.786723
H111	H	1.123720	-0.334688	0.786740
H112	H	0.477290	-0.329344	0.597412
H113	H	0.627056	-0.329304	0.597383
C114	C	1.164005	-0.754069	0.556000
H115	H	1.188882	-0.795650	0.590405
H116	H	1.203681	-0.716633	0.521536
H117	H	1.127768	-0.727823	0.595268
C118	C	1.232715	-0.290396	1.104866
H119	H	1.215942	-0.307146	1.167715
H120	H	1.288157	-0.299632	1.089438
H121	H	1.223501	-0.234948	1.089442
H122	H	1.152217	-1.160810	0.539572
C123	C	1.205866	-1.059939	0.613804
H124	H	1.199892	-1.113772	0.605552
H125	H	1.260972	-1.044399	0.600668
H126	H	1.185059	-1.055564	0.674399
