data_functionalizedCrystal
_audit_creation_method	'MofGen! by Chris Wilmer'
_symmetry_space_group_name_H-M	'P1'
_symmetry_Int_Tables_number	1
_symmetry_cell_setting	triclinic
loop_
_symmetry_equiv_pos_as_xyz
  x,y,z
_cell_length_a	12.759401
_cell_length_b	13.897448
_cell_length_c	12.759393
_cell_angle_alpha	90.032272
_cell_angle_beta	90.020938
_cell_angle_gamma	90.019217
loop_
_atom_site_label
_atom_site_type_symbol
_atom_site_fract_x
_atom_site_fract_y
_atom_site_fract_z
Zn1	Zn	1.606245	-0.383929	0.594007
Zn2	Zn	1.939578	-0.050596	0.927340
Zn3	Zn	2.272911	0.282738	1.260674
Zn4	Zn	1.606126	-0.545255	0.418322
Zn5	Zn	1.939460	-0.211922	0.751655
Zn6	Zn	2.272793	0.121411	1.084988
Zn7	Zn	1.430543	-0.383980	0.418342
Zn8	Zn	1.763877	-0.050647	0.751676
Zn9	Zn	2.097210	0.282686	1.085009
Zn10	Zn	1.430526	-0.545188	0.593959
Zn11	Zn	1.763859	-0.211855	0.927292
Zn12	Zn	2.097193	0.121479	1.260626
O13	O	1.518360	-0.464588	0.506158
O14	O	1.851693	-0.131255	0.839491
O15	O	2.185027	0.202079	1.172824
O16	O	1.753250	-0.405336	0.570714
O17	O	2.086583	-0.072003	0.904047
O18	O	2.419917	0.261331	1.237380
O19	O	1.582793	-0.523912	0.271303
O20	O	1.916126	-0.190578	0.604637
O21	O	2.249459	0.142755	0.937970
O22	O	1.453907	-0.248992	0.441673
O23	O	1.787240	0.084341	0.775007
O24	O	2.120574	0.417675	1.108340
O25	O	1.753163	-0.523862	0.441638
O26	O	2.086496	-0.190528	0.774972
O27	O	2.419830	0.142805	1.108305
O28	O	1.582994	-0.248954	0.570734
O29	O	1.916327	0.084379	0.904067
O30	O	2.249661	0.417713	1.237400
O31	O	1.453793	-0.405423	0.271318
O32	O	1.787126	-0.072090	0.604652
O33	O	2.120459	0.261243	0.937985
O34	O	1.283520	-0.405358	0.441627
O35	O	1.616853	-0.072025	0.774960
O36	O	1.950187	0.261309	1.108293
O37	O	1.453878	-0.523747	0.740987
O38	O	1.787211	-0.190414	1.074320
O39	O	2.120544	0.142920	1.407653
O40	O	1.283507	-0.523797	0.570652
O41	O	1.616841	-0.190463	0.903985
O42	O	1.950174	0.142870	1.237318
O43	O	1.582977	-0.405271	0.741022
O44	O	1.916311	-0.071937	1.074355
O45	O	2.249644	0.261396	1.407689
O46	O	1.582776	-0.680228	0.441592
O47	O	1.916109	-0.346895	0.774925
O48	O	2.249443	-0.013561	1.108258
O49	O	1.453763	-0.680179	0.570632
O50	O	1.787096	-0.346845	0.903965
O51	O	2.120430	-0.013512	1.237298
C52	C	1.245393	-0.464576	0.506137
C53	C	1.578726	-0.131243	0.839470
C54	C	1.912059	0.202090	1.172803
C55	C	1.128616	-0.464595	0.506153
C56	C	1.461949	-0.131261	0.839486
C57	C	1.795283	0.202072	1.172819
C58	C	1.073775	-0.526359	0.573230
C59	C	1.407108	-0.193026	0.906564
C60	C	1.740442	0.140307	1.239897
C61	C	0.964051	-0.526363	0.573251
C62	C	1.297384	-0.193030	0.906584
C63	C	1.630718	0.140304	1.239918
C64	C	0.964019	-0.402834	0.439108
C65	C	1.297352	-0.069501	0.772441
C66	C	1.630685	0.263832	1.105775
C67	C	1.073741	-0.402827	0.439093
C68	C	1.407074	-0.069493	0.772426
C69	C	1.740407	0.263840	1.105760
C70	C	1.518283	-0.715203	0.506127
C71	C	1.851617	-0.381869	0.839461
C72	C	2.184950	-0.048536	1.172794
C73	C	1.518347	-0.822416	0.506149
C74	C	1.851680	-0.489083	0.839483
C75	C	2.185013	-0.155750	1.172816
C76	C	1.518457	-1.018711	0.506215
C77	C	1.851790	-0.685378	0.839549
C78	C	2.185124	-0.352045	1.172882
C79	C	1.518393	-0.909479	0.506182
C80	C	1.851726	-0.576146	0.839515
C81	C	2.185059	-0.242812	1.172848
C82	C	1.792393	-0.464601	0.506179
C83	C	2.125727	-0.131267	0.839512
C84	C	2.459060	0.202066	1.172846
C85	C	1.909170	-0.464606	0.506188
C86	C	2.242503	-0.131273	0.839522
C87	C	2.575837	0.202061	1.172855
C88	C	1.518439	-0.464496	0.780191
C89	C	1.851772	-0.131162	1.113524
C90	C	2.185105	0.202171	1.446858
C91	C	1.518472	-0.464456	0.896968
C92	C	1.851806	-0.131123	1.230301
C93	C	2.185139	0.202211	1.563634
C94	C	1.518466	-0.212995	0.506211
C95	C	1.851799	0.120338	0.839544
C96	C	2.185132	0.453672	1.172878
C97	C	1.518511	-0.105781	0.506234
C98	C	1.851844	0.227552	0.839567
C99	C	2.185177	0.560885	1.172901
C100	C	1.518342	-0.464611	0.233190
C101	C	1.851676	-0.131277	0.566524
C102	C	2.185009	0.202056	0.899857
C103	C	1.518512	-0.464379	0.116414
C104	C	1.851846	-0.131045	0.449747
C105	C	2.185179	0.202288	0.783081
C106	C	1.585699	-0.402756	0.951850
C107	C	1.919033	-0.069422	1.285183
C108	C	2.252366	0.263911	1.618517
C109	C	1.585717	-0.402714	1.061574
C110	C	1.919050	-0.069381	1.394907
C111	C	2.252384	0.263953	1.728241
C112	C	1.451278	-0.526082	1.061524
C113	C	1.784611	-0.192748	1.394858
C114	C	2.117944	0.140585	1.728191
C115	C	1.451255	-0.526118	0.951802
C116	C	1.784589	-0.192784	1.285136
C117	C	2.117922	0.140549	1.618469
H118	H	0.919404	-0.576657	0.627874
H119	H	1.252738	-0.243323	0.961207
H120	H	1.586071	0.090010	1.294540
H121	H	1.396554	-0.576287	1.106184
H122	H	1.729888	-0.242953	1.439517
H123	H	2.063221	0.090380	1.772851
Br124	Br	1.360002	-0.609852	0.877312
Br125	Br	1.693335	-0.276518	1.210646
Br126	Br	2.026669	0.056815	1.543979
H127	H	1.118451	-0.576652	0.627837
H128	H	1.451785	-0.243319	0.961170
H129	H	1.785118	0.090014	1.294504
H130	H	0.919326	-0.352547	0.384509
H131	H	1.252659	-0.019213	0.717842
H132	H	1.585992	0.314120	1.051175
H133	H	1.118394	-0.352524	0.384470
H134	H	1.451727	-0.019191	0.717804
H135	H	1.785060	0.314142	1.051137
Br136	Br	1.676919	-0.319071	0.877435
Br137	Br	2.010253	0.014263	1.210768
Br138	Br	2.343586	0.347596	1.544101
H139	H	1.640459	-0.352470	1.106254
H140	H	1.973792	-0.019136	1.439587
H141	H	2.307125	0.314197	1.772921
