data_functionalizedCrystal
_audit_creation_method	'MofGen! by Chris Wilmer'
_symmetry_space_group_name_H-M	'P1'
_symmetry_Int_Tables_number	1
_symmetry_cell_setting	triclinic
loop_
_symmetry_equiv_pos_as_xyz
  x,y,z
_cell_length_a	11.026607
_cell_length_b	10.489741
_cell_length_c	9.482900
_cell_angle_alpha	99.430409
_cell_angle_beta	78.636152
_cell_angle_gamma	96.562595
loop_
_atom_site_label
_atom_site_type_symbol
_atom_site_fract_x
_atom_site_fract_y
_atom_site_fract_z
O1	O	1.633618	0.519526	-0.120902
O2	O	1.279780	0.458584	-0.120903
O3	O	1.464749	0.305229	-0.120894
O4	O	1.448649	0.672881	-0.120911
O5	O	1.427179	0.336539	0.120897
O6	O	1.242210	0.489894	0.120887
O7	O	1.596048	0.550836	0.120889
Cu8	Cu	1.415698	0.523224	0.142965
Cu9	Cu	1.460129	0.486196	-0.142980
O10	O	1.411079	0.704190	0.120879
C11	C	1.215686	0.462996	-0.000008
C12	C	1.080679	0.429482	-0.000008
C13	C	1.007683	0.522021	-0.000014
C14	C	0.868146	0.487384	-0.000014
C15	C	1.444748	0.273085	0.000000
C16	C	1.441110	0.130655	-0.000002
C17	C	1.323420	0.036624	-0.000013
C18	C	1.360492	-0.027831	0.119202
C19	C	1.397561	-0.058669	-0.119184
C20	C	1.478215	0.068088	0.119312
C21	C	1.515284	0.037242	-0.119182
C22	C	1.552438	-0.027163	0.000063
C23	C	1.660143	0.546423	-0.000010
C24	C	1.795151	0.579936	-0.000019
C25	C	1.431080	0.736334	-0.000018
C26	C	1.434720	0.878763	-0.000025
N27	N	1.384457	0.549268	0.344084
N28	N	1.491380	0.460144	-0.344099
C29	C	1.450906	0.493869	0.416286
C30	C	1.424922	0.515551	0.583703
H31	H	0.827348	0.382504	-0.000046
H32	H	1.527029	0.430383	0.354162
C33	C	1.602508	0.076112	-0.253445
C34	C	1.605616	0.210268	-0.250903
C35	C	1.685956	0.246124	-0.374565
H36	H	1.573838	0.032362	-0.338178
H37	H	1.683581	0.053198	-0.254306
H38	H	1.524560	0.233170	-0.250057
H39	H	1.634299	0.254050	-0.166198
H40	H	1.767029	0.223211	-0.375426
H41	H	1.657278	0.202367	-0.459289
H42	H	1.688084	0.337154	-0.372850
H43	H	1.512292	0.122930	0.220212
H44	H	1.348785	0.579029	0.645823
C45	C	1.283041	0.633921	0.427171
C46	C	1.277459	0.638630	0.576705
C47	C	1.184059	0.716615	0.653285
H48	H	1.205469	0.598482	0.402493
H49	H	1.301059	0.719082	0.402377
H50	H	1.259433	0.553487	0.601489
H51	H	1.355007	0.674081	0.601427
H52	H	1.202077	0.801776	0.628492
H53	H	1.106494	0.681169	0.628595
H54	H	1.180266	0.719831	0.754752
H55	H	1.567508	0.396654	0.593781
C56	C	1.061964	0.661918	0.000281
C57	C	1.003749	0.738657	0.124691
C58	C	1.053727	0.867537	0.125021
H59	H	1.048815	0.692527	-0.083941
H60	H	1.148512	0.666681	0.000361
H61	H	0.917222	0.733901	0.124597
H62	H	1.016894	0.708090	0.208933
H63	H	1.140275	0.872300	0.125102
H64	H	1.040576	0.898133	0.040794
H65	H	1.014244	0.919618	0.209437
H66	H	1.226636	0.065005	0.000107
C67	C	0.849439	0.719837	0.000267
C68	C	0.791234	0.796588	0.124673
C69	C	0.841228	0.925463	0.124992
H70	H	0.836293	0.750444	-0.083958
H71	H	0.935986	0.724589	0.000345
H72	H	0.704708	0.791843	0.124582
H73	H	0.804376	0.766023	0.208918
H74	H	0.927775	0.930214	0.125070
H75	H	0.828080	0.956056	0.040762
H76	H	0.801752	0.977552	0.209406
C77	C	1.026057	0.289712	-0.000078
C78	C	0.898523	0.283138	-0.000116
C79	C	0.848172	0.154399	-0.000201
H80	H	1.039094	0.259142	0.084216
H81	H	1.065365	0.237411	-0.084430
H82	H	0.859227	0.335420	0.084227
H83	H	0.885451	0.313682	-0.084405
H84	H	0.887480	0.102098	-0.084553
H85	H	0.861218	0.123840	0.084095
H86	H	0.761638	0.149920	-0.000240
H87	H	1.295034	-0.056746	0.219990
H88	H	1.649280	-0.055274	0.000129
H89	H	1.363411	-0.113642	-0.219981
