data_functionalizedCrystal
_audit_creation_method	'MofGen! by Chris Wilmer'
_symmetry_space_group_name_H-M	'P1'
_symmetry_Int_Tables_number	1
_symmetry_cell_setting	triclinic
loop_
_symmetry_equiv_pos_as_xyz
  x,y,z
_cell_length_a	16.974897
_cell_length_b	16.974939
_cell_length_c	13.101018
_cell_angle_alpha	90.272530
_cell_angle_beta	90.293034
_cell_angle_gamma	96.362778
loop_
_atom_site_label
_atom_site_type_symbol
_atom_site_fract_x
_atom_site_fract_y
_atom_site_fract_z
O1	O	1.040722	-0.109159	0.162395
O2	O	0.811527	-0.120959	0.142433
O3	O	0.932023	-0.000464	0.162383
O4	O	0.920227	-0.229654	0.142445
O5	O	0.940661	0.008206	-0.006615
O6	O	0.820165	-0.112289	-0.026565
O7	O	1.049360	-0.100489	-0.006602
Zn8	Zn	0.936134	-0.105012	-0.043416
Zn9	Zn	0.924753	-0.116436	0.179246
O10	O	0.928865	-0.220984	-0.026552
C11	C	0.786511	-0.116012	0.055555
C12	C	0.699099	-0.114179	0.048466
C13	C	0.653318	-0.118046	0.137248
C14	C	0.571185	-0.116336	0.130571
C15	C	0.534835	-0.110754	0.035111
C16	C	0.580623	-0.106889	-0.053678
C17	C	0.662754	-0.108605	-0.047001
C18	C	0.289706	-0.105121	0.005262
C19	C	0.207570	-0.103403	-0.001409
C20	C	0.198137	-0.112851	0.182841
C21	C	0.280270	-0.114562	0.189511
C22	C	0.326050	-0.110701	0.100721
N23	N	0.450883	-0.109003	0.028284
N24	N	0.410000	-0.112458	0.107548
C25	C	0.935729	0.033206	0.080263
C26	C	0.933895	0.120615	0.087348
C27	C	1.074377	-0.105436	0.080278
C28	C	1.161788	-0.107269	0.087374
C29	C	0.923128	0.612130	0.137240
C30	C	0.924845	0.530000	0.130561
C31	C	0.930406	0.493677	0.035100
C32	C	0.934258	0.539489	-0.053687
C33	C	0.932547	0.621618	-0.047006
C34	C	0.936035	0.248556	0.005242
C35	C	0.937744	0.166421	-0.001432
C36	C	0.928332	0.156937	0.182817
C37	C	0.926616	0.239068	0.189489
C38	C	0.930473	0.284874	0.100702
N39	N	0.932159	0.409726	0.028270
N40	N	0.928725	0.368823	0.107533
C41	C	0.925155	0.745346	0.055562
C42	C	0.926977	0.657936	0.048460
N43	N	0.943907	-0.097216	-0.195376
N44	N	0.916987	-0.124226	0.331207
C45	C	0.954477	-0.086621	0.597333
C46	C	0.906419	-0.134819	0.538492
C47	C	0.912300	-0.128924	0.423148
C48	C	0.948597	-0.092515	0.712688
H49	H	0.551020	-0.102348	-0.131404
C50	C	0.940320	0.500205	-0.157425
C51	C	0.943338	0.557904	-0.233744
C52	C	0.948922	0.521748	-0.329322
H53	H	0.895329	0.462527	-0.168269
H54	H	0.987065	0.474228	-0.159649
H55	H	0.896598	0.583869	-0.231522
H56	H	0.988328	0.595586	-0.222934
H57	H	0.995668	0.495770	-0.331546
H58	H	0.903930	0.484070	-0.340155
H59	H	0.950978	0.560891	-0.381115
C60	C	0.339272	-0.100876	-0.091249
C61	C	0.289860	-0.095596	-0.176272
C62	C	0.335497	-0.091673	-0.265198
H63	H	0.365665	-0.147195	-0.096900
H64	H	0.377350	-0.055462	-0.088254
H65	H	0.251796	-0.141004	-0.179268
H66	H	0.263467	-0.049277	-0.170655
H67	H	0.373575	-0.046260	-0.262202
H68	H	0.361887	-0.137994	-0.270838
H69	H	0.301979	-0.088083	-0.322895
H70	H	0.700028	-0.105459	-0.119297
H71	H	0.939176	0.285842	-0.067054
H72	H	0.918592	0.641697	0.214974
H73	H	0.860858	-0.180509	0.574743
H74	H	1.000035	-0.040932	0.561087
H75	H	0.533912	-0.119485	0.202867
C76	C	0.692716	-0.124274	0.240905
C77	C	0.661269	-0.194386	0.288529
C78	C	0.697549	-0.200159	0.384014
H79	H	0.683190	-0.080131	0.282064
H80	H	0.748187	-0.124786	0.232207
H81	H	0.605811	-0.193866	0.297231
H82	H	0.670794	-0.238541	0.247399
H83	H	0.753020	-0.200672	0.375316
H84	H	0.688021	-0.156013	0.425164
H85	H	0.676223	-0.247733	0.416334
C86	C	0.319581	-0.120661	0.293246
C87	C	0.261905	-0.123698	0.369570
C88	C	0.298088	-0.129320	0.465143
H89	H	0.357268	-0.075678	0.304095
H90	H	0.345553	-0.167411	0.295460
H91	H	0.235946	-0.076953	0.367358
H92	H	0.224215	-0.168680	0.358755
H93	H	0.324060	-0.176070	0.467357
H94	H	0.335774	-0.084336	0.475981
H95	H	0.258960	-0.131389	0.516940
C96	C	0.920495	0.278368	0.293206
C97	C	0.850431	0.246889	0.340896
C98	C	0.844784	0.283058	0.436455
H99	H	0.919988	0.333844	0.284637
H100	H	0.964698	0.268766	0.334255
H101	H	0.806239	0.256498	0.299856
H102	H	0.850922	0.191416	0.349491
H103	H	0.888987	0.273456	0.477504
H104	H	0.844280	0.338534	0.427876
H105	H	0.797249	0.261700	0.468829
C106	C	0.920613	0.480398	0.227066
C107	C	0.915350	0.529783	0.312094
C108	C	0.911441	0.484118	0.401014
H109	H	0.966933	0.454001	0.232719
H110	H	0.875198	0.442323	0.224061
H111	H	0.960761	0.567844	0.315099
H112	H	0.869032	0.556180	0.306475
H113	H	0.866025	0.446042	0.398009
H114	H	0.957761	0.457723	0.406657
H115	H	0.907862	0.517617	0.458715
H116	H	0.160854	-0.115996	0.255128
C117	C	0.936593	0.671433	-0.143327
C118	C	0.868227	0.710247	-0.151175
C119	C	0.871934	0.756151	-0.239888
H120	H	0.940110	0.638128	-0.201219
H121	H	0.981964	0.709561	-0.140278
H122	H	0.822868	0.672124	-0.154233
H123	H	0.864696	0.743566	-0.093305
H124	H	0.917305	0.794279	-0.236839
H125	H	0.875453	0.722840	-0.297772
H126	H	0.825553	0.782498	-0.245220
H127	H	0.925194	0.119634	0.255101
C128	C	0.168076	-0.097189	-0.105013
C129	C	0.129852	-0.028250	-0.107930
C130	C	0.093469	-0.022495	-0.203350
H131	H	0.130326	-0.142129	-0.115810
H132	H	0.207082	-0.095093	-0.156969
H133	H	0.090850	-0.030352	-0.055989
H134	H	0.167585	0.016702	-0.097151
H135	H	0.132475	-0.020400	-0.255306
H136	H	0.055723	-0.067439	-0.214139
H137	H	0.067536	0.024283	-0.205345
H138	H	0.942249	0.136847	-0.079174
