data_functionalizedCrystal
_audit_creation_method	'MofGen! by Chris Wilmer'
_symmetry_space_group_name_H-M	'P1'
_symmetry_Int_Tables_number	1
_symmetry_cell_setting	triclinic
loop_
_symmetry_equiv_pos_as_xyz
  x,y,z
_cell_length_a	10.654556
_cell_length_b	10.654550
_cell_length_c	9.130313
_cell_angle_alpha	89.995631
_cell_angle_beta	89.998135
_cell_angle_gamma	84.486234
loop_
_atom_site_label
_atom_site_type_symbol
_atom_site_fract_x
_atom_site_fract_y
_atom_site_fract_z
O1	O	1.667835	0.176437	-0.121744
O2	O	1.302357	0.193235	-0.121759
O3	O	1.493499	0.002097	-0.121742
O4	O	1.476693	0.367575	-0.121761
O5	O	1.493486	0.002091	0.121857
O6	O	1.302344	0.193229	0.121840
O7	O	1.667822	0.176431	0.121855
Cu8	Cu	1.485082	0.184830	0.144090
Cu9	Cu	1.485097	0.184836	-0.143994
O10	O	1.476680	0.367569	0.121838
C11	C	1.255553	0.191997	0.000039
C12	C	1.116110	0.188302	0.000033
C13	C	0.919572	0.183102	-0.132741
C14	C	1.050594	0.186566	-0.132750
C15	C	1.050598	0.186560	0.132835
C16	C	0.919580	0.183087	0.132843
C17	C	1.492258	-0.044704	0.000057
C18	C	1.488567	-0.184147	0.000055
C19	C	1.601108	-0.263630	0.000059
C20	C	1.597631	-0.394651	0.000041
C21	C	1.369063	-0.366693	0.000021
C22	C	1.372540	-0.235675	0.000028
C23	C	1.714626	0.177669	0.000054
C24	C	1.854069	0.181364	0.000050
N25	N	1.485080	0.184824	0.346713
C26	C	1.477920	0.414370	0.000036
C27	C	1.481612	0.553813	0.000029
N28	N	1.485109	0.184832	-0.346616
C29	C	1.569746	0.100224	0.423372
C30	C	1.569758	0.100225	0.576709
C31	C	1.400433	0.269436	0.576714
C32	C	1.400416	0.269428	0.423380
H33	H	1.695584	-0.221681	0.000077
H34	H	1.280890	-0.170956	0.000021
O35	O	1.256331	-0.416693	-0.000254
C36	C	1.187653	-0.376139	-0.126402
H37	H	1.255483	-0.348292	-0.214575
H38	H	1.118409	-0.291377	-0.097881
C39	C	1.031233	-0.518160	-0.075321
C40	C	1.114544	-0.483968	-0.183622
H41	H	0.986130	-0.584671	-0.110615
H42	H	1.077499	-0.545479	0.009670
H43	H	0.973541	-0.447515	-0.051564
H44	H	1.172243	-0.554608	-0.207364
H45	H	1.068285	-0.456664	-0.268620
O46	O	1.652023	0.017915	0.349124
C47	C	1.726773	-0.056734	0.449675
H48	H	1.675282	-0.058626	0.558986
H49	H	1.820421	-0.015084	0.465958
C50	C	1.814720	-0.189662	0.255594
C51	C	1.751473	-0.191993	0.389849
H52	H	1.829963	-0.273095	0.218690
H53	H	1.764364	-0.139367	0.187850
H54	H	1.892753	-0.154948	0.269182
H55	H	1.673436	-0.226692	0.376256
H56	H	1.801818	-0.242297	0.457590
H57	H	1.638700	0.031334	0.639121
H58	H	1.689274	-0.459362	0.000041
O59	O	1.318121	0.351736	0.349130
C60	C	1.243385	0.426398	0.449674
H61	H	1.294895	0.428310	0.558967
H62	H	1.149743	0.384744	0.466007
C63	C	1.155395	0.559289	0.255567
C64	C	1.218665	0.561646	0.389800
H65	H	1.140141	0.642715	0.218633
H66	H	1.205742	0.508986	0.187827
H67	H	1.077367	0.524572	0.269196
H68	H	1.296698	0.596348	0.376166
H69	H	1.168330	0.611958	0.457536
H70	H	1.331504	0.338320	0.639151
H71	H	1.103921	0.187979	-0.240882
O72	O	0.856051	0.181592	-0.261821
C73	C	0.874765	0.291033	-0.342600
H74	H	0.965468	0.329752	-0.304850
H75	H	0.791730	0.365111	-0.324193
C76	C	0.773446	0.210656	-0.553060
C77	C	0.884855	0.258206	-0.506703
H78	H	0.779665	0.190410	-0.654287
H79	H	0.760833	0.136925	-0.498637
H80	H	0.704262	0.272395	-0.537709
H81	H	0.954035	0.196461	-0.522037
H82	H	0.897480	0.331926	-0.561132
O83	O	1.114397	0.188081	0.261728
C84	C	1.203443	0.081498	0.269694
H85	H	1.227495	0.045819	0.154403
H86	H	1.162251	0.004128	0.335236
C87	C	1.294324	0.161606	0.487203
C88	C	1.323873	0.117791	0.345599
H89	H	1.368609	0.183990	0.534030
H90	H	1.234329	0.233411	0.481840
H91	H	1.259995	0.097123	0.541802
H92	H	1.358186	0.182279	0.290997
H93	H	1.383876	0.045997	0.350955
H94	H	0.866246	0.181670	0.240984
