data_functionalizedCrystal
_audit_creation_method	'MofGen! by Chris Wilmer'
_symmetry_space_group_name_H-M	'P1'
_symmetry_Int_Tables_number	1
_symmetry_cell_setting	triclinic
loop_
_symmetry_equiv_pos_as_xyz
  x,y,z
_cell_length_a	10.654562
_cell_length_b	11.792254
_cell_length_c	9.730223
_cell_angle_alpha	89.998472
_cell_angle_beta	89.996961
_cell_angle_gamma	84.344351
loop_
_atom_site_label
_atom_site_type_symbol
_atom_site_fract_x
_atom_site_fract_y
_atom_site_fract_z
O1	O	1.667382	0.159483	-0.114381
O2	O	2.167382	0.659483	0.385619
O3	O	1.301863	0.174656	-0.114364
O4	O	1.801863	0.674656	0.385636
O5	O	1.493484	0.001921	-0.114363
O6	O	1.993484	0.501921	0.385637
O7	O	1.475760	0.332218	-0.114382
O8	O	1.975760	0.832218	0.385618
O9	O	1.493482	0.001925	0.114217
O10	O	1.993482	0.501925	0.614217
O11	O	1.301861	0.174660	0.114216
O12	O	1.801861	0.674660	0.614216
O13	O	1.667379	0.159487	0.114199
O14	O	2.167379	0.659487	0.614199
Zn15	Zn	1.484620	0.167074	0.150499
Zn16	Zn	1.984620	0.667074	0.650499
Zn17	Zn	1.484623	0.167069	-0.150665
Zn18	Zn	1.984623	0.667069	0.349335
O19	O	1.475758	0.332222	0.114198
O20	O	1.975758	0.832222	0.614198
C21	C	1.255067	0.173541	-0.000072
C22	C	1.755067	0.673541	0.499928
C23	C	1.115634	0.170199	-0.000065
C24	C	1.615634	0.670199	0.499935
C25	C	1.050107	0.168642	0.124523
C26	C	1.550107	0.668642	0.624523
C27	C	0.919093	0.165511	0.124500
C28	C	1.419093	0.665511	0.624500
C29	C	0.919146	0.165498	-0.124710
C30	C	1.419146	0.665498	0.375290
C31	C	1.050158	0.168621	-0.124686
C32	C	1.550158	0.668621	0.375314
C33	C	1.050074	0.168655	0.268403
C34	C	1.550074	0.668655	0.768403
C35	C	0.919061	0.165523	0.268380
C36	C	1.419061	0.665523	0.768380
C37	C	1.492367	-0.040371	-0.000074
C38	C	1.992367	0.459629	0.499926
C39	C	1.489025	-0.166391	-0.000075
C40	C	1.989025	0.333609	0.499925
C41	C	1.486310	-0.268734	-0.000080
C42	C	1.986310	0.231266	0.499920
C43	C	1.482914	-0.397129	-0.000092
C44	C	1.982914	0.102871	0.499908
C45	C	1.714175	0.160602	-0.000096
C46	C	2.214175	0.660602	0.499904
C47	C	1.853608	0.163944	-0.000112
C48	C	2.353608	0.663944	0.499888
C49	C	1.476876	0.374514	-0.000095
C50	C	1.976876	0.874514	0.499905
C51	C	1.480218	0.500534	-0.000102
C52	C	1.980218	1.000534	0.499898
N53	N	1.484627	0.167078	0.356036
N54	N	1.984627	0.667078	0.856036
N55	N	1.484625	0.167056	-0.356201
N56	N	1.984625	0.667056	0.143799
C57	C	1.569499	0.090617	0.427962
C58	C	2.069499	0.590617	0.927962
C59	C	1.569495	0.090603	0.571845
C60	C	2.069495	0.590603	1.071845
C61	C	1.399745	0.243521	0.571863
C62	C	1.899745	0.743521	1.071863
C63	C	1.399743	0.243529	0.427982
C64	C	1.899743	0.743529	0.927982
C65	C	1.667507	0.002333	0.427953
C66	C	2.167507	0.502333	0.927953
C67	C	1.667503	0.002320	0.571836
C68	C	2.167503	0.502320	1.071836
H69	H	0.872556	0.243966	0.323612
H70	H	1.372556	0.743966	0.823612
O71	O	1.120831	0.170287	-0.259068
O72	O	1.620831	0.670287	0.240932
H73	H	1.191161	0.094478	-0.265006
H74	H	1.691161	0.594478	0.234994
H75	H	1.637220	-0.080123	0.616458
H76	H	2.137220	0.419877	1.116458
H77	H	1.758613	0.029981	0.383321
H78	H	2.258613	0.529981	0.883321
H79	H	1.646306	-0.084908	0.388905
H80	H	2.146306	0.415092	0.888905
H81	H	0.865819	0.164213	-0.226172
H82	H	1.365819	0.664213	0.273828
H83	H	1.763960	0.021771	0.610881
H84	H	2.263960	0.521771	1.110881
H85	H	1.096552	0.090216	0.323660
H86	H	1.596552	0.590216	0.823660
H87	H	1.079419	0.251434	0.313042
H88	H	1.579419	0.751434	0.813042
H89	H	0.889702	0.082747	0.313031
H90	H	1.389702	0.582747	0.813031
O91	O	1.308193	0.325984	0.350395
O92	O	1.808193	0.825984	0.850395
H93	H	1.324788	0.414606	0.378000
H94	H	1.824788	0.914606	0.878000
O95	O	1.308203	0.325987	0.649460
O96	O	1.808203	0.825987	1.149460
H97	H	1.322466	0.313142	0.761593
H98	H	1.822466	0.813142	1.261593
