data_functionalizedCrystal
_audit_creation_method	'MofGen! by Chris Wilmer'
_symmetry_space_group_name_H-M	'P1'
_symmetry_Int_Tables_number	1
_symmetry_cell_setting	triclinic
loop_
_symmetry_equiv_pos_as_xyz
  x,y,z
_cell_length_a	18.215405
_cell_length_b	21.395364
_cell_length_c	21.395355
_cell_angle_alpha	90.025298
_cell_angle_beta	89.980149
_cell_angle_gamma	89.958414
loop_
_atom_site_label
_atom_site_type_symbol
_atom_site_fract_x
_atom_site_fract_y
_atom_site_fract_z
Zn1	Zn	-0.292742	-0.957885	-0.354268
Zn2	Zn	-0.415790	-0.957798	-0.249488
Zn3	Zn	-0.292778	-0.853100	-0.249504
Zn4	Zn	-0.415807	-0.853079	-0.354227
O5	O	-0.354279	-0.905465	-0.301872
O6	O	-0.309042	-1.045551	-0.340380
O7	O	-0.399480	-0.943881	-0.161812
O8	O	-0.189789	-0.867044	-0.263424
O9	O	-0.399445	-1.045487	-0.263398
O10	O	-0.189762	-0.944029	-0.340394
O11	O	-0.309103	-0.866960	-0.161824
O12	O	-0.309120	-0.765419	-0.263384
O13	O	-0.399474	-0.867010	-0.441910
O14	O	-0.399509	-0.765404	-0.340324
O15	O	-0.309058	-0.944010	-0.441941
O16	O	-0.518776	-0.943862	-0.263358
O17	O	-0.518789	-0.866926	-0.340310
C18	C	-0.354321	-0.742678	-0.301852
C19	C	-0.354356	-0.673036	-0.301858
C20	C	-0.307361	-0.640379	-0.342004
C21	C	-0.307344	-0.574943	-0.342006
C22	C	-0.354335	-0.542168	-0.301868
C23	C	-0.401333	-0.574834	-0.261715
C24	C	-0.401343	-0.640268	-0.261710
C25	C	-0.420614	-0.438449	-0.296828
C26	C	-0.420604	-0.373017	-0.296837
C27	C	-0.354302	-0.340347	-0.301879
C28	C	-0.288006	-0.373119	-0.306926
C29	C	-0.288017	-0.438553	-0.306921
C30	C	-0.354328	-0.471216	-0.301869
C31	C	-0.307284	-0.236737	-0.342029
C32	C	-0.307266	-0.171301	-0.342026
C33	C	-0.401261	-0.171192	-0.261738
C34	C	-0.401273	-0.236627	-0.261738
C35	C	-0.354285	-0.269396	-0.301887
C36	C	-0.545485	-0.905399	-0.301842
C37	C	-0.627284	-0.905428	-0.301850
C38	C	-0.815447	-0.945583	-0.261855
C39	C	-0.892306	-0.945611	-0.261870
C40	C	-0.892359	-0.865428	-0.341934
C41	C	-0.815501	-0.865403	-0.341921
C42	C	-0.777048	-0.905480	-0.301878
C43	C	-0.930764	-0.905532	-0.301906
C44	C	-1.014097	-0.905563	-0.301923
C45	C	-0.693709	-0.905451	-0.301862
C46	C	-0.162326	-0.905549	-0.301916
C47	C	-0.080527	-0.905584	-0.301934
C48	C	-0.354264	-0.905517	-0.465295
C49	C	-0.354258	-0.905539	-0.534936
C50	C	-0.354247	-0.068889	-0.301889
C51	C	-0.354256	-0.138530	-0.301887
C52	C	-0.307176	-0.945632	-0.567666
C53	C	-0.307145	-0.945631	-0.633102
C54	C	-0.354208	-0.905544	-0.665805
C55	C	-0.401292	-0.865444	-0.633067
C56	C	-0.401317	-0.865442	-0.567633
C57	C	-0.420473	-0.900574	-0.769469
C58	C	-0.420449	-0.900581	-0.834902
C59	C	-0.354130	-0.905548	-0.867626
C60	C	-0.287832	-0.910522	-0.834908
C61	C	-0.287857	-0.910519	-0.769474
C62	C	-0.354185	-0.905542	-0.736757
C63	C	-0.307010	-0.945642	-0.971308
C64	C	-0.306977	-0.945636	-1.036745
C65	C	-0.401131	-0.865453	-1.036709
C66	C	-0.401158	-0.865455	-0.971273
C67	C	-0.354098	-0.905553	-0.938577
C68	C	-0.354241	-0.905450	-0.139084
C69	C	-0.354040	-0.905549	-0.069443
H70	H	-0.474609	-0.465043	-0.292721
H71	H	-0.784234	-0.832747	-0.374516
O72	O	-0.452053	-0.822208	-0.668338
H73	H	-0.439439	-0.773040	-0.655764
O74	O	-0.451887	-0.822210	-1.071972
H75	H	-0.509649	-0.832924	-1.059415
O76	O	-0.491955	-0.895221	-0.870184
H77	H	-0.480799	-0.896066	-0.921182
O78	O	-0.452083	-0.822185	-0.532325
H79	H	-0.484800	-0.794304	-0.566056
O80	O	-0.451939	-0.135851	-0.218440
H81	H	-0.509719	-0.148375	-0.229088
O82	O	-0.933833	-0.822191	-0.385110
H83	H	-0.993728	-0.828937	-0.378388
H84	H	-0.439544	-0.263217	-0.229049
O85	O	-0.256601	-0.272085	-0.385325
H86	H	-0.219123	-0.301916	-0.357336
H87	H	-0.268856	-0.978281	-0.541049
O88	O	-0.256188	-0.988881	-1.072044
H89	H	-0.218732	-0.960856	-1.101836
O90	O	-0.452012	-0.539484	-0.218422
H91	H	-0.484689	-0.573189	-0.190499
O92	O	-0.452033	-0.675498	-0.218409
H93	H	-0.484709	-0.641717	-0.190499
O94	O	-0.773968	-0.988813	-0.218676
H95	H	-0.813585	-1.016709	-0.190853
H96	H	-0.923567	-0.978267	-0.229280
O97	O	-0.256369	-0.988880	-0.668416
H98	H	-0.223655	-1.016764	-0.634687
O99	O	-0.216357	-0.915880	-0.734183
H100	H	-0.170233	-0.919332	-0.767926
H101	H	-0.233828	-0.914568	-0.861550
O102	O	-0.256248	-0.988879	-0.936035
H103	H	-0.223494	-1.016751	-0.969790
O104	O	-0.256571	-0.136073	-0.385324
H105	H	-0.269288	-0.148639	-0.434479
H106	H	-0.474465	-0.896362	-0.742831
O107	O	-0.451919	-0.822196	-0.935965
H108	H	-0.484634	-0.794315	-0.969697
O109	O	-0.216519	-0.473903	-0.312347
H110	H	-0.170408	-0.440199	-0.315847
H111	H	-0.269072	-0.548349	-0.374696
O112	O	-0.256671	-0.675724	-0.385293
H113	H	-0.223983	-0.642017	-0.413204
O114	O	-0.492107	-0.337678	-0.291384
H115	H	-0.528325	-0.350236	-0.331156
O116	O	-0.216485	-0.337895	-0.312360
H117	H	-0.227611	-0.286889	-0.311506
