data_functionalizedCrystal
_audit_creation_method	'MofGen! by Chris Wilmer'
_symmetry_space_group_name_H-M	'P1'
_symmetry_Int_Tables_number	1
_symmetry_cell_setting	triclinic
loop_
_symmetry_equiv_pos_as_xyz
  x,y,z
_cell_length_a	19.188929
_cell_length_b	19.188930
_cell_length_c	9.130307
_cell_angle_alpha	89.984606
_cell_angle_beta	90.025066
_cell_angle_gamma	96.855224
loop_
_atom_site_label
_atom_site_type_symbol
_atom_site_fract_x
_atom_site_fract_y
_atom_site_fract_z
O1	O	-0.087166	0.926142	-0.122340
O2	O	-0.098901	0.722831	-0.122249
O3	O	0.008622	0.830353	-0.122206
O4	O	-0.194689	0.818619	-0.122382
O5	O	0.008623	0.830350	0.121393
O6	O	-0.098900	0.722827	0.121350
O7	O	-0.087165	0.926138	0.121259
Cu8	Cu	-0.093033	0.824482	0.143547
Cu9	Cu	-0.093034	0.824487	-0.144537
O10	O	-0.194688	0.818616	0.121217
C11	C	-0.098520	0.696818	-0.000436
C12	C	-0.097380	0.619313	-0.000397
C13	C	-0.160470	0.574389	-0.000474
C14	C	-0.159399	0.501566	-0.000489
C15	C	-0.095233	0.473669	-0.000456
C16	C	-0.032133	0.518603	-0.000371
C17	C	-0.033207	0.591425	-0.000341
N18	N	-0.046186	0.365690	-0.083380
N19	N	-0.045171	0.296511	-0.083412
C20	C	-0.091994	0.254260	-0.000543
N21	N	-0.139883	0.283800	0.082340
N22	N	-0.140900	0.352985	0.082365
C23	C	-0.094062	0.394707	-0.000488
C24	C	-0.153928	0.130372	-0.000635
C25	C	-0.152853	0.057547	-0.000641
C26	C	-0.025586	0.074586	-0.000537
C27	C	-0.026662	0.147409	-0.000516
C28	C	-0.090835	0.175298	-0.000572
C29	C	-0.220700	0.818997	-0.000606
C30	C	-0.298204	0.820138	-0.000676
C31	C	-0.343128	0.757047	-0.000619
C32	C	-0.415952	0.758119	-0.000586
C33	C	-0.443849	0.822285	-0.000582
C34	C	-0.398915	0.885384	-0.000648
C35	C	-0.326093	0.884311	-0.000695
N36	N	-0.551817	0.871331	0.082391
N37	N	-0.620995	0.872346	0.082439
C38	C	-0.663257	0.825523	-0.000442
N39	N	-0.633729	0.777636	-0.083355
N40	N	-0.564544	0.776618	-0.083397
C41	C	-0.522811	0.823456	-0.000531
C42	C	-0.787146	0.763590	-0.000351
C43	C	-0.859970	0.764664	-0.000328
C44	C	-0.842932	0.891931	-0.000375
C45	C	-0.770108	0.890855	-0.000413
C46	C	-0.742220	0.826683	-0.000394
C47	C	0.034634	0.829972	-0.000387
C48	C	0.112138	0.828831	-0.000326
C49	C	-0.087546	0.952151	-0.000557
C50	C	-0.088687	1.029656	-0.000606
N51	N	-0.093031	0.824485	0.346170
N52	N	-0.093029	0.824490	-0.347160
C53	C	0.002153	0.919735	0.346198
C54	C	0.049743	0.967364	0.422878
C55	C	0.049744	0.967371	0.576211
C56	C	0.002150	0.919742	0.652868
C57	C	-0.045440	0.872112	0.576187
C58	C	-0.045437	0.872112	0.422850
C59	C	-0.140620	0.776860	0.576160
C60	C	-0.140625	0.776856	0.422826
C61	C	-0.188213	0.729231	0.652816
C62	C	-0.235808	0.681604	0.576136
C63	C	-0.235807	0.681600	0.422793
C64	C	-0.188215	0.729226	0.346146
H65	H	-0.212725	0.597091	-0.000523
H66	H	-0.274558	0.642811	0.360368
H67	H	0.002152	0.919739	0.221345
H68	H	-0.289515	0.935689	-0.000744
H69	H	-0.452536	0.706741	-0.000536
H70	H	-0.274552	0.642825	0.638559
H71	H	-0.764438	0.711337	-0.000328
H72	H	0.088495	1.006142	0.360451
H73	H	0.024713	0.183988	-0.000461
H74	H	-0.320427	0.704793	-0.000616
H75	H	-0.188212	0.729229	0.221294
H76	H	-0.210776	0.464982	-0.000548
H77	H	-0.896548	0.713286	-0.000291
H78	H	-0.421633	0.937629	-0.000671
H79	H	-0.865644	0.944177	-0.000478
H80	H	-0.733530	0.942231	-0.000451
H81	H	0.088498	1.006153	0.638645
H82	H	0.020111	0.495885	-0.000364
H83	H	0.002159	0.919745	0.777720
H84	H	0.026659	0.051874	-0.000601
H85	H	-0.204232	0.020970	-0.000696
H86	H	-0.206181	0.153080	-0.000659
H87	H	0.018171	0.628003	-0.000278
H88	H	-0.188208	0.729236	0.777669
