data_functionalizedCrystal
_audit_creation_method	'MofGen! by Chris Wilmer'
_symmetry_space_group_name_H-M	'P1'
_symmetry_Int_Tables_number	1
_symmetry_cell_setting	triclinic
loop_
_symmetry_equiv_pos_as_xyz
  x,y,z
_cell_length_a	16.109301
_cell_length_b	16.098538
_cell_length_c	16.109301
_cell_angle_alpha	92.720629
_cell_angle_beta	96.538519
_cell_angle_gamma	92.735164
loop_
_atom_site_label
_atom_site_type_symbol
_atom_site_fract_x
_atom_site_fract_y
_atom_site_fract_z
O1	O	1.106853	0.069206	-0.103153
O2	O	1.606853	0.569206	0.396847
O3	O	0.864792	0.069220	-0.116452
O4	O	1.364792	0.569220	0.383548
O5	O	0.992471	0.069204	0.011228
O6	O	1.492471	0.569204	0.511228
O7	O	0.979173	0.069222	-0.230833
O8	O	1.479173	0.569222	0.269167
O9	O	0.985013	-0.069308	0.003799
O10	O	1.485013	0.430692	0.503799
O11	O	0.857333	-0.069292	-0.123881
O12	O	1.357333	0.430708	0.376119
O13	O	1.099394	-0.069306	-0.110582
O14	O	1.599394	0.430694	0.389418
Zn15	Zn	0.977180	-0.091291	-0.118411
Zn16	Zn	1.477180	0.408709	0.381589
Zn17	Zn	0.987006	0.091205	-0.108623
Zn18	Zn	1.487006	0.591205	0.391377
O19	O	0.971715	-0.069290	-0.238262
O20	O	1.471715	0.430710	0.261738
C21	C	0.830088	-0.000035	-0.119628
C22	C	1.330088	0.499965	0.380372
C23	C	0.737793	-0.000030	-0.118012
C24	C	1.237793	0.499970	0.381988
N25	N	0.970479	-0.215839	-0.125091
N26	N	1.470479	0.284161	0.374909
C27	C	0.515520	-0.000034	-0.190020
C28	C	1.015520	0.499966	0.309980
C29	C	0.428799	-0.000040	-0.188496
C30	C	0.928799	0.499960	0.311504
C31	C	0.448673	-0.000047	-0.037008
C32	C	0.948673	0.499953	0.462992
C33	C	0.535392	-0.000048	-0.038533
C34	C	1.035392	0.499952	0.461467
C35	C	0.568813	-0.000037	-0.115041
C36	C	1.068813	0.499963	0.384959
C37	C	0.395374	-0.000042	-0.111993
C38	C	0.895374	0.499958	0.388007
C39	C	0.301347	-0.000048	-0.110340
C40	C	0.801347	0.499952	0.389660
C41	C	0.662845	-0.000033	-0.116695
C42	C	1.162845	0.499967	0.383305
C43	C	1.024691	-0.259431	-0.070918
C44	C	1.524691	0.240569	0.429082
C45	C	1.020012	-0.346619	-0.075598
C46	C	1.520012	0.153381	0.424402
C47	C	0.961123	-0.390215	-0.134457
C48	C	1.461123	0.109785	0.365543
C49	C	0.906905	-0.346617	-0.188633
C50	C	1.406905	0.153383	0.311367
C51	C	0.911582	-0.259430	-0.183947
C52	C	1.411582	0.240570	0.316053
C53	C	0.944172	-0.653463	-0.151427
C54	C	1.444172	-0.153463	0.348573
C55	C	0.939501	-0.740655	-0.156110
C56	C	1.439501	-0.240655	0.343890
C57	C	1.052607	-0.740652	-0.043074
C58	C	1.552607	-0.240652	0.456926
C59	C	1.057282	-0.653464	-0.038398
C60	C	1.557282	-0.153464	0.461602
C61	C	1.003061	-0.609873	-0.092570
C62	C	1.503061	-0.109873	0.407430
C63	C	0.956341	-0.479335	-0.139244
C64	C	1.456341	0.020665	0.360756
C65	C	1.007840	-0.520754	-0.087778
C66	C	1.507840	-0.020754	0.412222
C67	C	1.134099	-0.000050	-0.107407
C68	C	1.634099	0.499950	0.392593
C69	C	1.226394	-0.000049	-0.109022
C70	C	1.726394	0.499951	0.390978
C71	C	0.988204	-0.000052	0.038488
C72	C	1.488204	0.499948	0.538488
C73	C	0.986588	-0.000054	0.130783
C74	C	1.486588	0.499946	0.630783
N75	N	0.993714	0.215753	-0.101937
N76	N	1.493714	0.715753	0.398063
C77	C	0.975983	-0.000032	-0.265522
C78	C	1.475983	0.499968	0.234478
C79	C	0.977598	-0.000026	-0.357817
C80	C	1.477598	0.499974	0.142183
C81	C	1.058597	-0.000044	0.353056
C82	C	1.558597	0.499956	0.853056
C83	C	1.057073	-0.000038	0.439777
C84	C	1.557073	0.499962	0.939777
C85	C	0.905584	-0.000032	0.419903
C86	C	1.405584	0.499968	0.919903
C87	C	0.907109	-0.000033	0.333184
C88	C	1.407109	0.499967	0.833184
C89	C	0.983618	-0.000044	0.299763
C90	C	1.483618	0.499956	0.799763
C91	C	0.980569	-0.000036	0.473203
C92	C	1.480569	0.499964	0.973203
C93	C	0.978916	-0.000028	0.567229
C94	C	1.478916	0.499972	1.067229
C95	C	0.985271	-0.000050	0.205731
C96	C	1.485271	0.499950	0.705731
H97	H	0.542728	-0.000032	-0.252318
H98	H	1.042728	0.499968	0.247682
H99	H	1.105233	-0.617970	0.009530
H100	H	1.605233	-0.117970	0.509530
C101	C	0.370180	-0.000041	-0.270980
C102	C	0.870180	0.499959	0.229020
N103	N	0.326028	-0.000044	-0.333110
N104	N	0.826028	0.499956	0.166890
C105	C	0.411902	-0.000051	0.047147
C106	C	0.911902	0.499949	0.547147
N107	N	0.384207	-0.000051	0.110535
N108	N	0.884207	0.499949	0.610535
H109	H	0.846049	-0.000030	0.289791
H110	H	1.346049	0.499970	0.789791
H111	H	0.578786	-0.000053	0.022527
H112	H	1.078786	0.499947	0.522527
C113	C	1.072608	-0.472797	-0.023028
C114	C	1.572608	0.027203	0.476972
N115	N	1.121392	-0.436668	0.025741
N116	N	1.621392	0.063332	0.525741
H117	H	1.072648	-0.223942	-0.022993
H118	H	1.572648	0.276058	0.477007
H119	H	1.064155	-0.382111	-0.031486
H120	H	1.564155	0.117889	0.468514
C121	C	1.142758	-0.000047	0.316297
C122	C	1.642758	0.499953	0.816297
N123	N	1.206151	-0.000044	0.288613
N124	N	1.706151	0.499956	0.788613
C125	C	1.112239	-0.788608	0.016518
C126	C	1.612239	-0.288608	0.516518
N127	N	1.157154	-0.824729	0.061409
N128	N	1.657154	-0.324729	0.561409
C129	C	0.874714	-0.788608	-0.220859
C130	C	1.374714	-0.288608	0.279141
N131	N	0.825919	-0.824726	-0.269626
N132	N	1.325919	-0.324726	0.230374
C133	C	0.884634	-0.605525	-0.211127
C134	C	1.384634	-0.105525	0.288873
N135	N	0.839826	-0.569415	-0.256135
N136	N	1.339826	-0.069415	0.243865
H137	H	0.858953	-0.382117	-0.236554
H138	H	1.358953	0.117883	0.263446
C139	C	0.851950	-0.211480	-0.243549
C140	C	1.351950	0.288520	0.256451
N141	N	0.807034	-0.175364	-0.288443
N142	N	1.307034	0.324636	0.211557
H143	H	1.118128	-0.000036	0.483166
H144	H	1.618128	0.499964	0.983166
H145	H	0.908394	-0.514837	-0.187170
H146	H	1.408394	-0.014837	0.312830
H147	H	0.843294	-0.000026	0.447125
H148	H	1.343294	0.499974	0.947125
