data_functionalizedCrystal
_audit_creation_method	'MofGen! by Chris Wilmer'
_symmetry_space_group_name_H-M	'P1'
_symmetry_Int_Tables_number	1
_symmetry_cell_setting	triclinic
loop_
_symmetry_equiv_pos_as_xyz
  x,y,z
_cell_length_a	10.654541
_cell_length_b	10.489741
_cell_length_c	9.730217
_cell_angle_alpha	89.997012
_cell_angle_beta	89.999932
_cell_angle_gamma	84.511551
loop_
_atom_site_label
_atom_site_type_symbol
_atom_site_fract_x
_atom_site_fract_y
_atom_site_fract_z
O1	O	1.667922	0.179145	-0.114247
O2	O	1.302451	0.196218	-0.114259
O3	O	1.493503	0.002080	-0.114245
O4	O	1.476871	0.373284	-0.114261
O5	O	1.493497	0.002078	0.114336
O6	O	1.302445	0.196216	0.114321
O7	O	1.667916	0.179143	0.114333
Zn8	Zn	1.485180	0.187679	0.150619
Zn9	Zn	1.485188	0.187682	-0.150545
O10	O	1.476865	0.373282	0.114319
C11	C	1.255650	0.194964	0.000030
C12	C	1.116205	0.191216	0.000025
C13	C	1.088342	0.423360	-0.000003
C14	C	1.008902	0.537667	-0.000022
C15	C	0.877882	0.534137	-0.000023
C16	C	0.826301	0.416288	-0.000001
C17	C	0.905742	0.301982	0.000019
C18	C	1.036763	0.305524	0.000016
C19	C	0.933604	0.069840	0.000056
C20	C	1.064624	0.073367	0.000048
C21	C	0.882024	-0.048009	0.000078
C22	C	0.961465	-0.162318	0.000088
C23	C	1.092492	-0.158783	0.000088
C24	C	1.144065	-0.040939	0.000067
C25	C	1.492244	-0.045452	0.000045
C26	C	1.488486	-0.187080	0.000042
C27	C	1.366925	-0.255160	0.000028
C28	C	1.424346	-0.347312	0.112732
C29	C	1.424381	-0.347285	-0.112630
C30	C	1.545957	-0.277366	0.112839
C31	C	1.545974	-0.277330	-0.112624
C32	C	1.603484	-0.369454	0.000107
C33	C	1.714718	0.180397	0.000041
C34	C	1.854163	0.184146	0.000037
N35	N	1.485184	0.187677	0.356156
C36	C	1.478124	0.420814	0.000026
C37	C	1.481882	0.562441	0.000020
N38	N	1.485194	0.187674	-0.356082
C39	C	1.654430	0.015818	0.356159
C40	C	1.739061	-0.070107	0.428101
C41	C	1.739074	-0.070108	0.571980
C42	C	1.654444	0.015823	0.643922
C43	C	1.569812	0.101749	0.571980
C44	C	1.569811	0.101743	0.428097
C45	C	1.400562	0.273600	0.571977
C46	C	1.400554	0.273609	0.428097
C47	C	1.315932	0.359532	0.643918
C48	C	1.231305	0.445466	0.571977
C49	C	1.231296	0.445464	0.428088
C50	C	1.315922	0.359535	0.356156
H51	H	0.919457	-0.258261	0.000105
O52	O	1.614104	-0.236318	-0.238840
H53	H	1.698054	-0.188554	-0.207133
H54	H	0.719617	0.413424	0.000015
H55	H	1.050913	0.633617	-0.000036
H56	H	1.250746	-0.038050	0.000050
O57	O	1.315914	0.359518	0.200971
H58	H	1.336852	0.454996	0.163010
H59	H	1.597345	-0.246560	0.208228
H60	H	1.157166	-0.251866	0.000109
O61	O	0.740711	-0.051827	0.000088
H62	H	0.700149	-0.002673	-0.093092
O63	O	1.229657	0.427167	0.000009
H64	H	1.270223	0.377987	-0.093147
H65	H	1.266979	-0.205460	0.000138
O66	O	1.736030	-0.434893	0.000122
H67	H	1.750693	-0.494913	-0.093505
H68	H	1.372933	-0.378223	-0.207922
O69	O	0.792184	0.657416	-0.000037
H70	H	0.810637	0.713747	-0.093215
O71	O	1.356228	-0.388361	0.238949
H72	H	1.258054	-0.342166	0.238720
O73	O	1.654414	0.015824	0.200974
H74	H	1.727472	-0.058367	0.163035
O75	O	1.830305	-0.162825	0.350512
H76	H	1.816078	-0.148400	0.238377
H77	H	1.807984	-0.140081	0.630555
O78	O	1.654459	0.015823	0.799107
H79	H	1.633534	-0.079664	0.837051
O80	O	1.315945	0.359547	0.799103
H81	H	1.389022	0.285374	0.837046
O82	O	1.140036	0.538146	0.649563
H83	H	1.154264	0.523710	0.761697
H84	H	1.162374	0.515430	0.369521
