data_functionalizedCrystal
_audit_creation_method	'MofGen! by Chris Wilmer'
_symmetry_space_group_name_H-M	'P1'
_symmetry_Int_Tables_number	1
_symmetry_cell_setting	triclinic
loop_
_symmetry_equiv_pos_as_xyz
  x,y,z
_cell_length_a	19.121215
_cell_length_b	19.121063
_cell_length_c	12.759393
_cell_angle_alpha	92.402665
_cell_angle_beta	87.533854
_cell_angle_gamma	95.002544
loop_
_atom_site_label
_atom_site_type_symbol
_atom_site_fract_x
_atom_site_fract_y
_atom_site_fract_z
Zn1	Zn	1.063760	-0.234290	-0.677040
Zn2	Zn	1.563760	0.265710	-0.177040
Zn3	Zn	1.058644	-0.351977	-0.508521
Zn4	Zn	1.558644	0.148023	-0.008521
Zn5	Zn	0.946088	-0.239336	-0.494162
Zn6	Zn	1.446088	0.260664	0.005838
Zn7	Zn	0.941035	-0.356929	-0.676943
Zn8	Zn	1.441035	0.143071	-0.176943
O9	O	1.002382	-0.295633	-0.589166
O10	O	1.502382	0.204367	-0.089166
O11	O	1.161547	-0.245718	-0.660735
O12	O	1.661547	0.254282	-0.160735
O13	O	1.043687	-0.337075	-0.359596
O14	O	1.543687	0.162925	0.140404
O15	O	0.965953	-0.140201	-0.512452
O16	O	1.465953	0.359799	-0.012452
O17	O	1.157789	-0.332182	-0.536925
O18	O	1.657789	0.167818	-0.036925
O19	O	1.052406	-0.136494	-0.646812
O20	O	1.552406	0.363506	-0.146812
O21	O	0.960993	-0.254318	-0.349046
O22	O	1.460993	0.245682	0.150954
O23	O	0.846952	-0.259119	-0.512358
O24	O	1.346952	0.240881	-0.012358
O25	O	0.957341	-0.340621	-0.823976
O26	O	1.457341	0.159379	-0.323976
O27	O	0.843239	-0.345513	-0.646647
O28	O	1.343239	0.154487	-0.146647
O29	O	1.047506	-0.250519	-0.824047
O30	O	1.547506	0.249481	-0.324047
O31	O	1.038788	-0.451099	-0.536832
O32	O	1.538788	0.048901	-0.036832
O33	O	0.952381	-0.454737	-0.660570
O34	O	1.452381	0.045263	-0.160570
C35	C	0.819564	-0.303401	-0.577934
C36	C	1.319564	0.196599	-0.077934
C37	C	0.741353	-0.306742	-0.573155
C38	C	1.241353	0.193258	-0.073155
C39	C	0.298910	-0.327888	-0.542921
C40	C	0.798910	0.172112	-0.042921
C41	C	0.372398	-0.324745	-0.547403
C42	C	0.872398	0.175255	-0.047403
C43	C	0.411097	-0.278231	-0.614219
C44	C	0.911097	0.221769	-0.114219
C45	C	0.376305	-0.234850	-0.676550
C46	C	0.876305	0.265150	-0.176550
C47	C	0.302819	-0.237989	-0.672061
C48	C	0.802819	0.262011	-0.172061
C49	C	0.633076	-0.266500	-0.630997
C50	C	1.133076	0.233500	-0.130997
C51	C	0.706567	-0.263366	-0.635483
C52	C	1.206567	0.236634	-0.135483
C53	C	0.702654	-0.353261	-0.506334
C54	C	1.202654	0.146739	-0.006334
C55	C	0.629166	-0.356399	-0.501856
C56	C	1.129166	0.143601	-0.001856
C57	C	0.594381	-0.313016	-0.564183
C58	C	1.094381	0.186984	-0.064183
C59	C	0.486213	-0.275019	-0.618805
C60	C	0.986213	0.224981	-0.118805
C61	C	0.519267	-0.316224	-0.559591
C62	C	1.019267	0.183776	-0.059591
C63	C	0.994500	-0.478448	-0.600273
C64	C	1.494500	0.021552	-0.100273
C65	C	0.991192	-0.556655	-0.605063
C66	C	1.491192	-0.056655	-0.105063
C67	C	1.034661	-0.591478	-0.542947
C68	C	1.534661	-0.091478	-0.042947
C69	C	1.031554	-0.664961	-0.547459
C70	C	1.531554	-0.164961	-0.047459
C71	C	0.984975	-0.703620	-0.614082
C72	C	1.484975	-0.203620	-0.114082
C73	C	0.941505	-0.668792	-0.676205
C74	C	1.441505	-0.168792	-0.176205
C75	C	0.944615	-0.595310	-0.671698
C76	C	1.444615	-0.095310	-0.171698
C77	C	0.973334	-0.925584	-0.630916
C78	C	1.473334	-0.425584	-0.130916
C79	C	0.970225	-0.999071	-0.635416
C80	C	1.470225	-0.499071	-0.135416
C81	C	1.060276	-0.995234	-0.506671
C82	C	1.560276	-0.495234	-0.006671
C83	C	1.063380	-0.921751	-0.502165
C84	C	1.563380	-0.421751	-0.002165
C85	C	1.019912	-0.886930	-0.564292
C86	C	1.519912	-0.386930	-0.064292
C87	C	0.981797	-0.778732	-0.618693
C88	C	1.481797	-0.278732	-0.118693
C89	C	1.023094	-0.811819	-0.559686
C90	C	1.523094	-0.311819	-0.059686
C91	C	1.185913	-0.287835	-0.600443
C92	C	1.685913	0.212165	-0.100443
C93	C	1.264123	-0.284512	-0.605248
C94	C	1.764123	0.215488	-0.105248
C95	C	1.002431	-0.295560	-0.863198
C96	C	1.502431	0.204440	-0.363198
C97	C	1.002451	-0.295528	-0.979974
C98	C	1.502451	0.204472	-0.479974
C99	C	1.010314	-0.112103	-0.578041
C100	C	1.510314	0.387897	-0.078041
C101	C	1.013694	-0.033894	-0.573300
C102	C	1.513694	0.466106	-0.073300
C103	C	0.959412	-0.252427	-1.029350
C104	C	1.459412	0.247573	-0.529350
C105	C	0.959434	-0.252406	-1.139074
C106	C	1.459434	0.247594	-0.639074
C107	C	1.045541	-0.338587	-1.150038
C108	C	1.545541	0.161413	-0.650038
C109	C	1.045515	-0.338612	-1.040316
C110	C	1.545515	0.161388	-0.540316
C111	C	0.909700	-0.202669	-1.023021
C112	C	1.409700	0.297331	-0.523021
C113	C	0.909722	-0.202647	-1.132745
C114	C	1.409722	0.297353	-0.632745
C115	C	1.002376	-0.295654	-0.316200
C116	C	1.502376	0.204346	0.183800
C117	C	1.002500	-0.295481	-0.199421
C118	C	1.502500	0.204519	0.300579
H119	H	0.407821	-0.196974	-0.730948
H120	H	0.907821	0.303026	-0.230948
H121	H	0.932303	-1.030545	-0.689687
H122	H	1.432303	-0.530545	-0.189687
H123	H	1.101308	-0.890276	-0.447916
H124	H	1.601308	-0.390276	0.052084
H125	H	0.517730	-0.237148	-0.673210
H126	H	1.017730	0.262852	-0.173210
C127	C	0.594821	-0.218783	-0.699566
C128	C	1.094821	0.281217	-0.199566
N129	N	0.566006	-0.182840	-0.751218
N130	N	1.066006	0.317160	-0.251218
H131	H	0.857117	-0.224357	-1.164782
H132	H	1.357117	0.275643	-0.664782
C133	C	0.890265	-0.711320	-0.749487
C134	C	1.390265	-0.211320	-0.249487
N135	N	0.851666	-0.743351	-0.804680
N136	N	1.351666	-0.243351	-0.304680
C137	C	0.896797	-0.557006	-0.740031
C138	C	1.396797	-0.057006	-0.240031
N139	N	0.860780	-0.528155	-0.791505
N140	N	1.360780	-0.028155	-0.291505
H141	H	1.080603	-0.373664	-1.199181
H142	H	1.580603	0.126336	-0.699181
H143	H	0.926672	-0.147522	-1.160120
H144	H	1.426672	0.352478	-0.660120
C145	C	0.264555	-0.190274	-0.740629
C146	C	0.764555	0.309726	-0.240629
N147	N	0.235734	-0.154332	-0.792275
N148	N	0.735734	0.345668	-0.292275
H149	H	0.597662	-0.394275	-0.447446
H150	H	1.097662	0.105725	0.052554
H151	H	0.730984	-0.388580	-0.455591
H152	H	1.230984	0.111420	0.044409
H153	H	0.854564	-0.219582	-0.990787
H154	H	1.354564	0.280418	-0.490787
H155	H	0.937939	-0.897238	-0.681500
H156	H	1.437939	-0.397238	-0.181500
H157	H	1.080551	-0.373719	-1.000119
H158	H	1.580551	0.126281	-0.500119
C159	C	0.749135	-0.212193	-0.708987
C160	C	1.249135	0.287807	-0.208987
N161	N	0.781197	-0.173651	-0.764349
N162	N	1.281197	0.326349	-0.264349
C163	C	0.939080	-0.131625	-0.974423
C164	C	1.439080	0.368375	-0.474423
N165	N	0.961208	-0.078115	-0.937818
N166	N	1.461208	0.421885	-0.437818
H167	H	0.943871	-0.810216	-0.672935
H168	H	1.443871	-0.310216	-0.172935
H169	H	1.095666	-1.023594	-0.456092
H170	H	1.595666	-0.523594	0.043908
H171	H	0.267406	-0.365768	-0.488517
H172	H	0.767406	0.134232	0.011483
C173	C	0.476695	-0.367389	-0.486095
C174	C	0.976695	0.132611	0.013905
N175	N	0.444624	-0.405930	-0.430742
N176	N	0.944624	0.094070	0.069258
H177	H	1.061022	-0.780341	-0.505445
H178	H	1.561022	-0.280341	-0.005445
H179	H	1.072588	-0.560006	-0.488691
H180	H	1.572588	-0.060006	0.011309
H181	H	0.400717	-0.360065	-0.496647
H182	H	0.900717	0.139935	0.003353
C183	C	1.079369	-0.703262	-0.479119
C184	C	1.579369	-0.203262	0.020881
N185	N	1.115385	-0.732111	-0.427641
N186	N	1.615385	-0.232111	0.072359
