data_functionalizedCrystal
_audit_creation_method	'MofGen! by Chris Wilmer'
_symmetry_space_group_name_H-M	'P1'
_symmetry_Int_Tables_number	1
_symmetry_cell_setting	triclinic
loop_
_symmetry_equiv_pos_as_xyz
  x,y,z
_cell_length_a	12.759395
_cell_length_b	12.645330
_cell_length_c	12.759387
_cell_angle_alpha	89.970586
_cell_angle_beta	89.979491
_cell_angle_gamma	90.019229
loop_
_atom_site_label
_atom_site_type_symbol
_atom_site_fract_x
_atom_site_fract_y
_atom_site_fract_z
Zn1	Zn	1.606247	-0.421940	-0.594015
Zn2	Zn	1.606128	-0.599242	-0.418340
Zn3	Zn	1.430545	-0.421998	-0.418352
Zn4	Zn	1.430528	-0.599167	-0.593979
O5	O	1.518362	-0.510587	-0.506172
O6	O	1.753252	-0.445467	-0.570722
O7	O	1.582794	-0.575786	-0.271320
O8	O	1.453909	-0.273643	-0.441674
O9	O	1.753165	-0.575730	-0.441654
O10	O	1.582996	-0.273600	-0.570733
O11	O	1.453794	-0.445565	-0.271329
O12	O	1.283522	-0.445492	-0.441639
O13	O	1.453880	-0.575601	-0.741005
O14	O	1.283509	-0.575657	-0.570672
O15	O	1.582980	-0.445394	-0.741032
O16	O	1.582778	-0.747579	-0.441619
O17	O	1.453765	-0.747524	-0.570660
C18	C	1.245395	-0.510574	-0.506153
C19	C	1.128618	-0.510594	-0.506171
C20	C	1.128644	-0.646354	-0.640315
C21	C	1.073796	-0.714242	-0.707390
C22	C	0.964074	-0.714255	-0.707403
C23	C	0.909198	-0.646370	-0.640335
C24	C	0.964046	-0.578482	-0.573260
C25	C	1.073770	-0.578478	-0.573253
C26	C	0.964020	-0.442718	-0.439123
C27	C	1.073742	-0.442709	-0.439103
C28	C	0.909144	-0.374833	-0.372056
C29	C	0.963992	-0.306948	-0.304974
C30	C	1.073720	-0.306939	-0.304963
C31	C	1.128590	-0.374820	-0.372028
C32	C	1.518285	-0.786016	-0.506157
C33	C	1.518349	-0.903846	-0.506186
C34	C	1.437522	-1.071420	-0.587616
C35	C	1.437108	-0.948860	-0.587354
C36	C	1.488373	-0.948450	-0.395464
C37	C	1.487880	-1.071049	-0.395958
C38	C	1.629646	-1.070930	-0.534579
C39	C	1.628964	-0.948323	-0.537001
C40	C	1.792395	-0.510600	-0.506190
C41	C	1.909172	-0.510606	-0.506198
C42	C	1.518441	-0.510483	-0.780205
C43	C	1.518475	-0.510438	-0.896982
C44	C	1.518468	-0.234081	-0.506209
C45	C	1.518513	-0.116251	-0.506225
C46	C	1.652916	-0.374862	-0.897029
C47	C	1.720151	-0.307058	-0.951914
C48	C	1.720176	-0.307019	-1.061636
C49	C	1.652958	-0.374790	-1.116475
C50	C	1.585723	-0.442594	-1.061591
C51	C	1.585707	-0.442627	-0.951867
C52	C	1.451278	-0.578163	-1.061543
C53	C	1.451256	-0.578209	-0.951822
C54	C	1.384059	-0.645934	-1.116383
C55	C	1.316828	-0.713745	-1.061498
C56	C	1.316806	-0.713781	-0.951770
C57	C	1.384021	-0.646013	-0.896937
C58	C	1.518344	-0.510614	-0.233204
C59	C	1.518513	-0.510359	-0.116428
H60	H	0.919417	-0.769531	-0.762026
F61	F	1.711994	-0.908258	-0.465165
H62	H	1.217985	-0.646358	-0.640303
H63	H	1.118488	-0.769511	-0.761996
H64	H	1.407980	-0.917843	-0.371009
F65	F	1.791721	-0.234842	-1.120049
F66	F	0.905584	-0.234701	-0.233612
H67	H	1.406640	-1.099744	-0.371938
H68	H	1.656990	-1.101767	-0.613945
H69	H	1.384014	-0.646041	-0.807596
F70	F	1.708520	-1.108840	-0.457110
F71	F	1.652980	-0.374736	-1.233251
H72	H	1.384081	-0.645893	-1.205724
H73	H	0.819857	-0.646378	-0.640361
H74	H	1.456104	-1.100824	-0.669985
H75	H	1.262098	-0.768912	-1.106157
F76	F	1.330508	-1.111832	-0.563395
H77	H	0.819803	-0.374843	-0.372076
H78	H	1.544310	-1.100709	-0.333248
F79	F	1.132085	-0.234676	-0.233576
F80	F	1.652907	-0.374911	-0.780253
F81	F	1.791666	-0.234915	-0.893543
F82	F	1.245365	-0.374821	-0.372018
F83	F	1.563031	-0.910345	-0.314031
H84	H	1.354719	-0.919629	-0.568570
H85	H	1.651570	-0.919166	-0.618486
H86	H	1.262044	-0.768984	-0.907089
H87	H	1.455863	-0.918699	-0.669454
