data_functionalizedCrystal
_audit_creation_method	'MofGen! by Chris Wilmer'
_symmetry_space_group_name_H-M	'P1'
_symmetry_Int_Tables_number	1
_symmetry_cell_setting	triclinic
loop_
_symmetry_equiv_pos_as_xyz
  x,y,z
_cell_length_a	17.917559
_cell_length_b	14.560438
_cell_length_c	14.560438
_cell_angle_alpha	59.995857
_cell_angle_beta	89.999262
_cell_angle_gamma	57.011822
loop_
_atom_site_label
_atom_site_type_symbol
_atom_site_fract_x
_atom_site_fract_y
_atom_site_fract_z
Zr1	Zr	0.754926	0.920731	-0.078298
O2	O	0.629800	1.126361	-0.231969
O3	O	0.793283	0.724824	-0.031182
O4	O	0.793284	0.916436	-0.222798
O5	O	0.629800	0.934747	0.110788
O6	O	0.922243	0.901987	-0.215574
O7	O	0.629799	0.934750	-0.040352
O8	O	0.922241	0.559229	0.127194
O9	O	0.629801	1.277505	-0.231979
O10	O	0.905883	0.791019	-0.005705
O11	O	0.809643	0.801800	0.101698
O12	O	0.809644	1.027398	-0.123906
O13	O	0.713403	1.038179	-0.016503
Zr14	Zr	0.960602	0.897682	0.174276
Zr15	Zr	0.960601	0.897686	-0.066776
Zr16	Zr	0.754926	0.920727	0.162754
Zr17	Zr	0.754927	1.161788	-0.078314
Zr18	Zr	0.960600	0.656625	0.174292
O19	O	0.922245	1.093588	0.127159
O20	O	0.922244	1.093595	-0.215586
O21	O	0.629801	1.126355	0.110776
O22	O	1.085727	0.692052	0.327947
O23	O	1.085727	0.692058	-0.014798
O24	O	0.793283	0.724818	0.311564
O25	O	1.085728	0.883666	-0.014810
O26	O	0.922244	0.901977	0.318776
O27	O	0.793284	0.916426	0.311552
O28	O	1.085728	0.883663	0.136330
O29	O	0.793286	1.259187	-0.222820
O30	O	0.922242	0.559225	0.318798
O31	O	1.085726	0.540908	0.327957
O32	O	1.085726	0.540911	0.136352
O33	O	0.629802	1.277502	-0.040374
O34	O	0.793286	1.259184	-0.031216
O35	O	0.905884	0.791015	0.219884
O36	O	1.002125	0.780234	0.112481
O37	O	0.905885	1.016613	-0.005720
O38	O	0.809644	1.027394	0.101683
C39	C	0.857762	0.607681	0.048008
C40	C	0.857761	0.505346	0.048015
C41	C	0.786715	0.548522	-0.039248
C42	C	0.786719	0.452382	-0.039276
C43	C	0.928820	0.269890	0.135231
C44	C	0.928819	0.366029	0.135254
C45	C	0.600495	0.938032	0.033576
C46	C	0.513180	0.947815	0.028685
C47	C	0.362188	0.852744	0.076223
C48	C	0.353347	0.965663	0.019758
C49	C	0.442288	0.955729	0.024726
C50	C	0.273241	0.862675	0.071256
C51	C	1.115032	0.880381	0.062402
C52	C	1.202347	0.870598	0.067293
C53	C	0.857763	0.909212	-0.253531
C54	C	0.857763	0.909214	-0.355864
C55	C	0.857766	1.210732	0.047970
C56	C	0.857766	1.313067	0.047963
C57	C	0.928808	0.901255	-0.399960
C58	C	0.928811	0.901242	-0.496105
C59	C	0.786716	0.917155	-0.504054
C60	C	0.786718	0.917157	-0.407905
C61	C	0.857764	0.909201	0.349509
C62	C	0.857764	0.909199	0.451842
C63	C	1.115031	0.578856	0.062421
C64	C	1.202345	0.466738	0.067319
C65	C	0.857762	0.607676	0.349528
C66	C	0.857762	0.505339	0.451867
C67	C	1.115031	0.578850	0.363941
C68	C	1.202345	0.466730	0.471172
C69	C	0.600497	1.239563	-0.267963
C70	C	0.513183	1.351682	-0.375194
C71	C	0.600497	1.239557	0.033557
C72	C	0.513183	1.351675	0.028659
C73	C	0.857765	1.210737	-0.253550
C74	C	0.857766	1.313074	-0.355889
C75	C	1.193111	0.419716	0.007917
C76	C	1.275144	0.314383	0.012496
C77	C	1.366409	0.256068	0.076485
C78	C	1.375641	0.303099	0.135888
C79	C	1.293609	0.408437	0.131302
C80	C	1.293594	0.408449	0.465466
C81	C	1.375643	0.303113	0.566212
C82	C	1.366440	0.256054	0.672663
C83	C	1.275182	0.314346	0.678366
C84	C	1.193135	0.419686	0.577621
C85	C	0.421934	1.409975	-0.369488
C86	C	0.339885	1.515341	-0.470234
C87	C	0.349087	1.562406	-0.576685
C88	C	0.440346	1.504107	-0.582388
C89	C	0.522392	1.398750	-0.481643
C90	C	0.522416	1.398707	0.088051
C91	C	0.440383	1.504066	0.083445
C92	C	0.349118	1.562385	0.019453
C93	C	0.339887	1.515349	-0.039946
C94	C	0.421919	1.409998	-0.035346
C95	C	0.907997	0.451629	0.561639
C96	C	0.907986	0.355483	0.657793
C97	C	0.807502	0.366761	0.534391
C98	C	0.807508	0.462913	0.438239
H99	H	0.728849	0.661957	-0.110278
F100	F	0.256148	1.101776	-0.048309
F101	F	0.754024	0.321597	0.519898
F102	F	1.095987	0.481764	-0.060195
F103	F	0.711102	0.498343	-0.132154
F104	F	0.450125	1.554209	-0.695691
F105	F	0.450228	1.554102	0.146673
H106	H	0.728864	0.923634	-0.371998
H107	H	0.282330	1.648167	0.015717
F108	F	1.004443	0.320070	0.228133
F109	F	1.453708	0.143957	0.081357
F110	F	0.459382	0.716641	0.144289
H111	H	0.986659	0.894784	-0.357588
F112	F	1.303410	0.458519	0.352183
H113	H	1.267609	0.276104	-0.035878
F114	F	1.004427	0.892767	-0.543030
F115	F	0.711106	0.925613	-0.559449
F116	F	1.265403	0.264247	0.791669
F117	F	1.096023	0.481697	0.583711
F118	F	1.472780	0.241019	0.203989
F119	F	0.412118	1.359903	-0.256205
H120	H	1.301140	0.446708	0.179681
H121	H	0.265586	1.562791	-0.465568
H122	H	1.449942	0.255662	0.561548
H123	H	1.433256	0.170278	0.754687
H124	H	0.986672	0.156450	0.206258
H125	H	0.282272	1.648195	-0.658709
F126	F	0.619504	1.336713	-0.487734
F127	F	0.619540	1.336661	0.156161
H128	H	0.265568	1.562848	-0.092047
F129	F	0.412077	1.359948	-0.098557
F130	F	0.961480	0.496781	0.576147
F131	F	0.961451	0.298329	0.774620
F132	F	0.754033	0.520085	0.321401
