data_functionalizedCrystal
_audit_creation_method	'MofGen! by Chris Wilmer'
_symmetry_space_group_name_H-M	'P1'
_symmetry_Int_Tables_number	1
_symmetry_cell_setting	triclinic
loop_
_symmetry_equiv_pos_as_xyz
  x,y,z
_cell_length_a	25.639242
_cell_length_b	25.639240
_cell_length_c	19.805399
_cell_angle_alpha	89.969206
_cell_angle_beta	90.026812
_cell_angle_gamma	89.961937
loop_
_atom_site_label
_atom_site_type_symbol
_atom_site_fract_x
_atom_site_fract_y
_atom_site_fract_z
Zn1	Zn	0.799236	0.208234	0.382835
Zn2	Zn	1.299236	0.708234	0.882835
Zn3	Zn	0.799144	0.295668	0.269641
Zn4	Zn	1.299144	0.795668	0.769641
Zn5	Zn	0.711804	0.208241	0.269645
Zn6	Zn	1.211804	0.708241	0.769645
Zn7	Zn	0.711750	0.295632	0.382773
Zn8	Zn	1.211750	0.795632	0.882773
O9	O	0.755484	0.251944	0.326224
O10	O	1.255484	0.751944	0.826224
O11	O	0.872389	0.219844	0.367844
O12	O	1.372389	0.719844	0.867844
O13	O	0.787543	0.284088	0.174925
O14	O	1.287543	0.784088	0.674925
O15	O	0.723463	0.135075	0.284688
O16	O	1.223463	0.635075	0.784688
O17	O	0.872322	0.284082	0.284680
O18	O	1.372322	0.784082	0.784680
O19	O	0.787699	0.135070	0.367848
O20	O	1.287699	0.635070	0.867848
O21	O	0.723374	0.219856	0.174928
O22	O	1.223374	0.719856	0.674928
O23	O	0.638632	0.219821	0.284628
O24	O	1.138632	0.719821	0.784628
O25	O	0.723371	0.284021	0.477498
O26	O	1.223371	0.784021	0.977498
O27	O	0.638592	0.284028	0.367742
O28	O	1.138592	0.784028	0.867742
O29	O	0.787646	0.219810	0.477544
O30	O	1.287646	0.719810	0.977544
O31	O	0.787491	0.368829	0.284620
O32	O	1.287491	0.868829	0.784620
O33	O	0.723283	0.368802	0.367738
O34	O	1.223283	0.868802	0.867738
C35	C	0.619641	0.251922	0.326179
C36	C	1.119641	0.751922	0.826179
C37	C	0.561527	0.251925	0.326177
C38	C	1.061527	0.751925	0.826177
C39	C	0.310345	0.218456	0.283021
C40	C	0.810345	0.718456	0.783021
C41	C	0.364950	0.218451	0.283012
C42	C	0.864950	0.718451	0.783012
O43	O	0.393196	0.189963	0.246281
O44	O	0.893196	0.689963	0.746281
N45	N	0.392253	0.251931	0.326211
N46	N	0.892253	0.751931	0.826211
C47	C	0.364950	0.285415	0.369426
C48	C	0.864950	0.785415	0.869426
O49	O	0.393187	0.313892	0.406169
O50	O	0.893187	0.813892	0.906169
C51	C	0.310346	0.285417	0.369437
C52	C	0.810346	0.785417	0.869437
C53	C	0.283046	0.251938	0.326231
C54	C	0.783046	0.751938	0.826231
C55	C	0.283045	0.184979	0.239819
C56	C	0.783045	0.684979	0.739819
C57	C	0.228444	0.184985	0.239826
C58	C	0.728444	0.684985	0.739826
C59	C	0.201144	0.218467	0.283037
C60	C	0.701144	0.718467	0.783037
C61	C	0.228445	0.251944	0.326239
C62	C	0.728445	0.751944	0.826239
C63	C	0.283044	0.318898	0.412655
C64	C	0.783044	0.818898	0.912655
C65	C	0.228436	0.318896	0.412663
C66	C	0.728436	0.818896	0.912663
C67	C	0.201136	0.285417	0.369457
C68	C	0.701136	0.785417	0.869457
C69	C	0.146545	0.285431	0.369457
C70	C	0.646545	0.785431	0.869457
N71	N	0.119241	0.251951	0.326258
N72	N	0.619241	0.751951	0.826258
C73	C	0.146541	0.218469	0.283048
C74	C	0.646541	0.718469	0.783048
C75	C	0.479620	0.285408	0.369399
C76	C	0.979620	0.785408	0.869399
C77	C	0.534222	0.285409	0.369385
C78	C	1.034222	0.785409	0.869385
C79	C	0.534219	0.218444	0.282972
C80	C	1.034219	0.718444	0.782972
C81	C	0.479616	0.218446	0.282983
C82	C	0.979616	0.718446	0.782983
C83	C	0.452317	0.251928	0.326200
C84	C	0.952317	0.751928	0.826200
C85	C	0.031876	0.218484	0.283067
C86	C	0.531876	0.718484	0.783067
C87	C	-0.022729	0.218494	0.283077
C88	C	0.477271	0.718494	0.783077
C89	C	-0.022721	0.285457	0.369492
C90	C	0.477279	0.785457	0.869492
C91	C	0.031879	0.285449	0.369480
C92	C	0.531879	0.785449	0.869480
C93	C	0.059177	0.251958	0.326266
C94	C	0.559177	0.751958	0.826266
O95	O	0.118263	0.313903	0.406171
O96	O	0.618263	0.813903	0.906171
O97	O	0.118297	0.189992	0.246317
O98	O	0.618297	0.689992	0.746317
C99	C	0.755385	0.387786	0.326186
C100	C	1.255385	0.887786	0.826186
C101	C	0.755391	0.445900	0.326193
C102	C	1.255391	0.945900	0.826193
C103	C	0.788961	0.806264	0.282992
C104	C	1.288961	1.306264	0.782992
C105	C	0.788977	0.860869	0.282998
C106	C	1.288977	1.360869	0.782998
O107	O	0.817450	0.889106	0.246246
O108	O	1.317450	1.389106	0.746246
N109	N	0.755526	0.888183	0.326239
N110	N	1.255526	1.388183	0.826239
C111	C	0.722061	0.860890	0.369480
C112	C	1.222061	1.360890	0.869480
O113	O	0.693610	0.889136	0.406260
O114	O	1.193610	1.389136	0.906260
C115	C	0.722048	0.806286	0.369477
C116	C	1.222048	1.306286	0.869477
C117	C	0.755497	0.778975	0.326229
C118	C	1.255497	1.278975	0.826229
C119	C	0.822408	0.778953	0.239748
C120	C	1.322408	1.278953	0.739748
C121	C	0.822391	0.724353	0.239741
C122	C	1.322391	1.224353	0.739741
C123	C	0.788927	0.697063	0.282977
C124	C	1.288927	1.197063	0.782977
C125	C	0.755480	0.724375	0.326221
C126	C	1.255480	1.224375	0.826221
C127	C	0.688585	0.778994	0.412721
C128	C	1.188585	1.278994	0.912721
C129	C	0.688575	0.724387	0.412714
C130	C	1.188575	1.224387	0.912714
C131	C	0.722025	0.697076	0.369466
C132	C	1.222025	1.197076	0.869466
C133	C	0.721999	0.642485	0.369451
C134	C	1.221999	1.142485	0.869451
N135	N	0.755450	0.615171	0.326211
N136	N	1.255450	1.115171	0.826211
C137	C	0.788914	0.642460	0.282974
C138	C	1.288914	1.142460	0.782974
C139	C	0.722091	0.975560	0.369485
C140	C	1.222091	1.475560	0.869485
C141	C	0.722101	1.030163	0.369486
C142	C	1.222101	1.530163	0.869486
C143	C	0.789018	1.030138	0.283005
C144	C	1.289018	1.530138	0.783005
C145	C	0.789005	0.975535	0.283001
C146	C	1.289005	1.475535	0.783001
C147	C	0.755542	0.948246	0.326245
C148	C	1.255542	1.448246	0.826245
C149	C	0.788876	0.527795	0.282962
C150	C	1.288876	1.027795	0.782962
C151	C	0.788855	0.473190	0.282956
C152	C	1.288855	0.973190	0.782956
C153	C	0.721940	0.473219	0.369439
C154	C	1.221940	0.973219	0.869439
C155	C	0.721959	0.527820	0.369443
C156	C	1.221959	1.027820	0.869443
C157	C	0.755431	0.555106	0.326201
C158	C	1.255431	1.055106	0.826201
O159	O	0.693543	0.614213	0.406186
O160	O	1.193543	1.114213	0.906186
O161	O	0.817365	0.614207	0.246206
O162	O	1.317365	1.114207	0.746206
C163	C	0.891857	0.251966	0.326268
C164	C	1.391857	0.751966	0.826268
C165	C	0.949971	0.251976	0.326287
C166	C	1.449971	0.751976	0.826287
C167	C	0.755513	0.251911	0.502766
C168	C	1.255513	0.751911	1.002766
C169	C	0.755526	0.251897	0.577998
C170	C	1.255526	0.751897	1.077998
C171	C	0.755577	1.115571	0.326264
C172	C	1.255577	1.615571	0.826264
C173	C	0.755567	1.057457	0.326251
C174	C	1.255567	1.557457	0.826251
C175	C	0.755485	0.251939	0.150368
C176	C	1.255485	0.751939	0.650368
C177	C	0.755573	0.251806	0.075136
C178	C	1.255573	0.751806	0.575136
C179	C	0.788994	0.218460	0.613367
C180	C	1.288994	0.718460	1.113367
C181	C	0.789000	0.218445	0.684056
C182	C	1.289000	0.718445	1.184056
C183	C	0.755539	0.251870	0.719374
C184	C	1.255539	0.751870	1.219374
C185	C	0.722066	0.285307	0.684000
C186	C	1.222066	0.785307	1.184000
C187	C	0.722058	0.285320	0.613313
C188	C	1.222058	0.785320	1.113313
C189	C	0.722096	0.285259	0.969074
C190	C	1.222096	0.785259	1.469074
C191	C	0.722107	0.285245	1.039766
C192	C	1.222107	0.785245	1.539766
C193	C	0.789037	0.218384	1.039817
C194	C	1.289037	0.718384	1.539817
C195	C	0.789029	0.218396	0.969129
C196	C	1.289029	0.718396	1.469129
C197	C	0.755555	0.251832	0.933762
C198	C	1.255555	0.751832	1.433762
C199	C	0.755549	0.251848	0.857113
C200	C	1.255549	0.751848	1.357113
C201	C	0.755547	0.251857	0.796021
C202	C	1.255547	0.751857	1.296021
H203	H	0.556446	0.312677	0.404560
H204	H	1.056446	0.812677	0.904560
H205	H	0.816255	0.191219	0.712850
H206	H	1.316255	0.691219	1.212850
F207	F	0.450571	0.321050	0.415395
F208	F	0.950571	0.821050	0.915395
H209	H	0.694856	0.312464	1.068520
H210	H	1.194856	0.812464	1.568520
H211	H	0.694846	0.312492	0.940286
H212	H	1.194846	0.812492	1.440286
H213	H	0.816244	0.191244	0.584616
H214	H	1.316244	0.691244	1.084616
H215	H	0.694819	0.312520	0.712762
H216	H	1.194819	0.812520	1.212762
H217	H	-0.044955	0.191230	0.247891
H218	H	0.455045	0.691230	0.747891
F219	F	0.824645	0.182824	0.931545
F220	F	1.324645	0.682824	1.431545
F221	F	0.652988	0.808049	0.458758
F222	F	1.152988	1.308049	0.958758
H223	H	0.305262	0.346160	0.447838
H224	H	0.805262	0.846160	0.947838
H225	H	0.556456	0.191180	0.247789
H226	H	1.056456	0.691180	0.747789
F227	F	0.686435	0.320906	0.575671
F228	F	1.186435	0.820906	1.075671
H229	H	0.206221	0.157723	0.204644
H230	H	0.706221	0.657723	0.704644
H231	H	0.457391	0.191183	0.247803
H232	H	0.957391	0.691183	0.747803
H233	H	0.206213	0.346160	0.447859
H234	H	0.706213	0.846160	0.947859
F235	F	0.858029	0.807988	0.193727
F236	F	1.358029	1.307988	0.693727
F237	F	0.686328	0.444166	0.415454
F238	F	1.186328	0.944166	0.915454
H239	H	0.054095	0.191210	0.247881
H240	H	0.554095	0.691210	0.747881
F241	F	0.686469	0.946523	0.415510
F242	F	1.186469	1.446523	0.915510
H243	H	0.816133	0.550005	0.247752
H244	H	1.316133	1.050005	0.747752
H245	H	0.816291	0.191157	1.068622
H246	H	1.316291	0.691157	1.568622
F247	F	0.060936	0.321086	0.415458
F248	F	0.560936	0.821086	0.915458
F249	F	-0.051785	0.321095	0.415469
F250	F	0.448215	0.821095	0.915469
F251	F	0.312091	0.149338	0.193826
F252	F	0.812091	0.649338	0.693826
F253	F	0.824457	0.444126	0.236923
F254	F	1.324457	0.944126	0.736923
H255	H	0.849630	0.702119	0.204527
H256	H	1.349630	1.202119	0.704527
F257	F	0.824633	1.059191	0.236987
F258	F	1.324633	1.559191	0.736987
F259	F	0.824606	0.946473	0.236972
F260	F	1.324606	1.446473	0.736972
F261	F	0.686494	1.059223	0.415509
F262	F	1.186494	1.559223	0.915509
H263	H	0.661326	0.702172	0.447930
H264	H	1.161326	1.202172	0.947930
F265	F	0.686349	0.556887	0.415459
F266	F	1.186349	1.056887	0.915459
