data_functionalizedCrystal
_audit_creation_method	'MofGen! by Chris Wilmer'
_symmetry_space_group_name_H-M	'P1'
_symmetry_Int_Tables_number	1
_symmetry_cell_setting	triclinic
loop_
_symmetry_equiv_pos_as_xyz
  x,y,z
_cell_length_a	29.839134
_cell_length_b	29.839131
_cell_length_c	17.077396
_cell_angle_alpha	89.960433
_cell_angle_beta	89.980462
_cell_angle_gamma	90.015800
loop_
_atom_site_label
_atom_site_type_symbol
_atom_site_fract_x
_atom_site_fract_y
_atom_site_fract_z
Zn1	Zn	0.686771	-0.179086	-0.443783
Zn2	Zn	1.186771	0.320914	0.056217
Zn3	Zn	0.686702	-0.254217	-0.312491
Zn4	Zn	1.186702	0.245783	0.187509
Zn5	Zn	0.611645	-0.179076	-0.312531
Zn6	Zn	1.111645	0.320924	0.187469
Zn7	Zn	0.611610	-0.254164	-0.443715
Zn8	Zn	1.111610	0.245836	0.056285
O9	O	0.649182	-0.216636	-0.378130
O10	O	1.149182	0.283364	0.121870
O11	O	0.749629	-0.189079	-0.426379
O12	O	1.249629	0.310921	0.073621
O13	O	0.676731	-0.244267	-0.202650
O14	O	1.176731	0.255733	0.297350
O15	O	0.621654	-0.116210	-0.329986
O16	O	1.121654	0.383790	0.170014
O17	O	0.749578	-0.244277	-0.329919
O18	O	1.249578	0.255723	0.170081
O19	O	0.676849	-0.116218	-0.426417
O20	O	1.176849	0.383782	0.073583
O21	O	0.621587	-0.189062	-0.202678
O22	O	1.121587	0.310938	0.297322
O23	O	0.548773	-0.189011	-0.329921
O24	O	1.048773	0.310989	0.170079
O25	O	0.621595	-0.244187	-0.553571
O26	O	1.121595	0.255813	-0.053571
O27	O	0.548748	-0.244178	-0.426301
O28	O	1.048748	0.255822	0.073699
O29	O	0.676816	-0.189028	-0.553621
O30	O	1.176816	0.310972	-0.053621
O31	O	0.676697	-0.317077	-0.329854
O32	O	1.176697	0.182923	0.170146
O33	O	0.621528	-0.317039	-0.426263
O34	O	1.121528	0.182961	0.073737
C35	C	0.649114	-0.333359	-0.378064
C36	C	1.149114	0.166641	0.121936
C37	C	0.649125	-0.383293	-0.378062
C38	C	1.149125	0.116707	0.121938
C39	C	0.532460	-0.216588	-0.378108
C40	C	1.032460	0.283412	0.121892
C41	C	0.482525	-0.216578	-0.378117
C42	C	0.982525	0.283422	0.121883
C43	C	0.125960	-0.187954	-0.428455
C44	C	0.625960	0.312046	0.071545
C45	C	0.313633	-0.187918	-0.428437
C46	C	0.813633	0.312082	0.071563
O47	O	0.337917	-0.163524	-0.471232
O48	O	0.837917	0.336476	0.028768
N49	N	0.337080	-0.216607	-0.378136
N50	N	0.837080	0.283393	0.121864
C51	C	0.313605	-0.245310	-0.327839
C52	C	0.813605	0.254690	0.172161
O53	O	0.337854	-0.269715	-0.285061
O54	O	0.837854	0.230285	0.214939
C55	C	0.125933	-0.245348	-0.327862
C56	C	0.625933	0.254652	0.172138
C57	C	0.102489	-0.216654	-0.378161
C58	C	0.602489	0.283346	0.121839
C59	C	0.102516	-0.159262	-0.478750
C60	C	0.602516	0.340738	0.021250
C61	C	0.055601	-0.159270	-0.478751
C62	C	0.555601	0.340730	0.021249
C63	C	0.032129	-0.187969	-0.428457
C64	C	0.532129	0.312031	0.071543
C65	C	0.055574	-0.216661	-0.378162
C66	C	0.555574	0.283339	0.121838
C67	C	0.102459	-0.274053	-0.277570
C68	C	0.602459	0.225947	0.222430
C69	C	0.055538	-0.274060	-0.277582
C70	C	0.555538	0.225940	0.222418
C71	C	0.032094	-0.245366	-0.327880
C72	C	0.532094	0.254634	0.172120
C73	C	-0.014813	-0.245368	-0.327869
C74	C	0.485187	0.254632	0.172131
N75	N	-0.038260	-0.216679	-0.378170
N76	N	0.461740	0.283321	0.121830
C77	C	-0.014788	-0.187979	-0.428464
C78	C	0.485212	0.312021	0.071536
C79	C	0.412136	-0.245287	-0.327830
C80	C	0.912136	0.254713	0.172170
C81	C	0.459054	-0.245277	-0.327823
C82	C	0.959054	0.254723	0.172177
C83	C	0.459079	-0.187886	-0.428422
C84	C	0.959079	0.312114	0.071578
C85	C	0.412160	-0.187894	-0.428424
C86	C	0.912160	0.312106	0.071576
C87	C	0.388689	-0.216598	-0.378131
C88	C	0.888689	0.283402	0.121869
C89	C	-0.113314	-0.187997	-0.428462
C90	C	0.386686	0.312003	0.071538
C91	C	-0.160234	-0.188006	-0.428456
C92	C	0.339766	0.311994	0.071544
C93	C	-0.160255	-0.245399	-0.327860
C94	C	0.339745	0.254601	0.172140
C95	C	-0.113339	-0.245389	-0.327863
C96	C	0.386661	0.254611	0.172137
C97	C	-0.089870	-0.216686	-0.378170
C98	C	0.410130	0.283314	0.121830
O99	O	-0.039126	-0.269753	-0.285102
O100	O	0.460874	0.230247	0.214898
O101	O	-0.039046	-0.163585	-0.471248
O102	O	0.460954	0.336415	0.028752
C103	C	0.172876	-0.187947	-0.428454
C104	C	0.672876	0.312053	0.071546
C105	C	0.196320	-0.216638	-0.378159
C106	C	0.696320	0.283362	0.121841
C107	C	0.172849	-0.245338	-0.327865
C108	C	0.672849	0.254662	0.172135
C109	C	0.243238	-0.216628	-0.378152
C110	C	0.743238	0.283372	0.121848
C111	C	0.266709	-0.187929	-0.428446
C112	C	0.766709	0.312071	0.071554
C113	C	0.243263	-0.159240	-0.478747
C114	C	0.743263	0.340760	0.021253
C115	C	0.196347	-0.159247	-0.478748
C116	C	0.696347	0.340753	0.021252
C117	C	0.196295	-0.274027	-0.277564
C118	C	0.696295	0.225973	0.222436
C119	C	0.243211	-0.274017	-0.277566
C120	C	0.743211	0.225983	0.222434
C121	C	0.266682	-0.245317	-0.327860
C122	C	0.766682	0.254683	0.172140
C123	C	0.677916	-0.692905	-0.428413
C124	C	1.177916	-0.192905	0.071587
C125	C	0.677965	-0.880578	-0.428460
C126	C	1.177965	-0.380578	0.071540
O127	O	0.702376	-0.904817	-0.471221
O128	O	1.202376	-0.404817	0.028779
N129	N	0.649258	-0.904078	-0.378217
N130	N	1.149258	-0.404078	0.121783
C131	C	0.620536	-0.880657	-0.327962
C132	C	1.120536	-0.380657	0.172038
O133	O	0.596117	-0.904951	-0.285234
O134	O	1.096117	-0.404951	0.214766
C135	C	0.620485	-0.692984	-0.327920
C136	C	1.120485	-0.192984	0.172080
C137	C	0.649196	-0.669487	-0.378160
C138	C	1.149196	-0.169487	0.121840
C139	C	0.706625	-0.669408	-0.478650
C140	C	1.206625	-0.169408	0.021350
C141	C	0.706614	-0.622492	-0.478634
C142	C	1.206614	-0.122492	0.021366
C143	C	0.677895	-0.599074	-0.428382
C144	C	1.177895	-0.099074	0.071618
C145	C	0.649186	-0.622572	-0.378145
C146	C	1.149186	-0.122572	0.121855
C147	C	0.591760	-0.669564	-0.277670
C148	C	1.091760	-0.169564	0.222330
C149	C	0.591749	-0.622643	-0.277665
C150	C	1.091749	-0.122643	0.222335
C151	C	0.620461	-0.599146	-0.327905
C152	C	1.120461	-0.099146	0.172095
C153	C	0.620455	-0.552238	-0.327877
C154	C	1.120455	-0.052238	0.172123
N155	N	0.649162	-0.528738	-0.378120
N156	N	1.149162	-0.028738	0.121880
C157	C	0.677881	-0.552156	-0.428373
C158	C	1.177881	-0.052156	0.071627
C159	C	0.620565	-0.979187	-0.327987
C160	C	1.120565	-0.479187	0.172013
C161	C	0.620578	-1.026105	-0.327997
C162	C	1.120578	-0.526105	0.172003
C163	C	0.678007	-1.026023	-0.428495
C164	C	1.178007	-0.526023	0.071505
C165	C	0.677995	-0.979105	-0.428481
C166	C	1.177995	-0.479105	0.071519
C167	C	0.649271	-0.955687	-0.378230
C168	C	1.149271	-0.455687	0.121770
C169	C	0.677857	-0.453631	-0.428336
C170	C	1.177857	0.046369	0.071664
C171	C	0.677845	-0.406711	-0.428314
C172	C	1.177845	0.093289	0.071686
C173	C	0.620415	-0.406797	-0.327819
C174	C	1.120415	0.093203	0.172181
C175	C	0.620428	-0.453712	-0.327837
C176	C	1.120428	0.046288	0.172163
C177	C	0.649151	-0.477128	-0.378103
C178	C	1.149151	0.022872	0.121897
O179	O	0.596053	-0.527971	-0.285145
O180	O	1.096053	-0.027971	0.214855
O181	O	0.702289	-0.527854	-0.471106
O182	O	1.202289	-0.027854	0.028894
C183	C	0.677927	-0.739821	-0.428428
C184	C	1.177927	-0.239821	0.071572
C185	C	0.649218	-0.763318	-0.378191
C186	C	1.149218	-0.263318	0.121809
C187	C	0.620498	-0.739900	-0.327939
C188	C	1.120498	-0.239900	0.172061
C189	C	0.649231	-0.810236	-0.378200
C190	C	1.149231	-0.310236	0.121800
C191	C	0.677951	-0.833654	-0.428453
C192	C	1.177951	-0.333654	0.071547
C193	C	0.706657	-0.810154	-0.478696
C194	C	1.206657	-0.310154	0.021304
C195	C	0.706646	-0.763239	-0.478680
C196	C	1.206646	-0.263239	0.021320
C197	C	0.591792	-0.763400	-0.277696
C198	C	1.091792	-0.263400	0.222304
C199	C	0.591805	-0.810315	-0.277714
C200	C	1.091805	-0.310315	0.222286
C201	C	0.620525	-0.833733	-0.327967
C202	C	1.120525	-0.333733	0.172033
C203	C	0.766360	-0.216685	-0.378152
C204	C	1.266360	0.283315	0.121848
C205	C	0.816295	-0.216705	-0.378162
C206	C	1.316295	0.283295	0.121838
C207	C	0.649209	-0.216603	-0.582874
C208	C	1.149209	0.283397	-0.082874
C209	C	0.649221	-0.216589	-0.670124
C210	C	1.149221	0.283411	-0.170124
C211	C	0.649263	-0.099458	-0.378213
C212	C	1.149263	0.400542	0.121787
C213	C	0.649298	-0.049523	-0.378249
C214	C	1.149298	0.450477	0.121751
C215	C	0.677975	-0.187865	-0.711141
C216	C	1.177975	0.312135	-0.211141
C217	C	0.677981	-0.187850	-0.793122
C218	C	1.177981	0.312150	-0.293122
C219	C	0.649234	-0.216561	-0.834084
C220	C	1.149234	0.283439	-0.334084
C221	C	0.620476	-0.245287	-0.793060
C222	C	1.120476	0.254713	-0.293060
C223	C	0.620469	-0.245299	-0.711081
C224	C	1.120469	0.254701	-0.211081
C225	C	0.620494	-0.245260	-0.963931
C226	C	1.120494	0.254740	-0.463931
C227	C	0.620502	-0.245248	-1.045915
C228	C	1.120502	0.254752	-0.545915
C229	C	0.678006	-0.187810	-1.045971
C230	C	1.178006	0.312190	-0.545971
C231	C	0.677999	-0.187823	-0.963992
C232	C	1.177999	0.312177	-0.463992
C233	C	0.649242	-0.216549	-0.922975
C234	C	1.149242	0.283451	-0.422975
C235	C	0.649181	-0.216636	-0.174182
C236	C	1.149181	0.283364	0.325818
C237	C	0.649256	-0.216524	-0.086933
C238	C	1.149256	0.283476	0.413067
H239	H	-0.179320	-0.164637	-0.469415
H240	H	0.320680	0.335363	0.030585
H241	H	0.597053	-0.472845	-0.286921
H242	H	1.097053	0.027155	0.213079
Cl243	Cl	0.132014	-0.123178	-0.541987
Cl244	Cl	0.632014	0.376822	-0.041987
H245	H	0.701410	-0.164446	-0.930643
H246	H	1.201410	0.335554	-0.430643
H247	H	0.701227	-0.387581	-0.469226
H248	H	1.201227	0.112419	0.030774
H249	H	0.393075	-0.164528	-0.469381
H250	H	0.893075	0.335472	0.030619
H251	H	0.393031	-0.268663	-0.286872
H252	H	0.893031	0.231337	0.213128
Cl253	Cl	0.584312	-0.377348	-0.264648
Cl254	Cl	1.084312	0.122652	0.235352
Cl255	Cl	-0.083866	-0.281465	-0.264635
Cl256	Cl	0.416134	0.218535	0.235365
Cl257	Cl	0.488594	-0.151807	-0.491649
Cl258	Cl	0.988594	0.348193	0.008351
Cl259	Cl	0.584357	-0.281338	-1.097409
Cl260	Cl	1.084357	0.218662	-0.597409
Cl261	Cl	0.131920	-0.310121	-0.214321
Cl262	Cl	0.631920	0.189879	0.285679
H263	H	-0.179373	-0.268763	-0.286909
H264	H	0.320627	0.231237	0.213091
H265	H	0.568357	-0.603579	-0.236745
H266	H	1.068357	-0.103579	0.263255
H267	H	0.729992	-0.603364	-0.519547
H268	H	1.229992	-0.103364	-0.019547
H269	H	0.597203	-1.045233	-0.287077
H270	H	1.097203	-0.545233	0.212923
H271	H	0.597049	-0.268685	-0.677686
H272	H	1.097049	0.231315	-0.177686
H273	H	0.701421	-0.164420	-1.079372
H274	H	1.201421	0.335580	-0.579372
Cl275	Cl	0.584335	-0.281380	-0.844555
Cl276	Cl	1.084335	0.218620	-0.344555
H277	H	0.262381	-0.135870	-0.519695
H278	H	0.762381	0.364130	-0.019695
Cl279	Cl	0.272677	-0.310089	-0.214319
Cl280	Cl	0.772677	0.189911	0.285681
H281	H	0.730043	-0.829230	-0.519610
H282	H	1.230043	-0.329230	-0.019610
Cl283	Cl	0.166796	-0.310105	-0.214320
Cl284	Cl	0.666796	0.189895	0.285680
H285	H	0.730026	-0.744111	-0.519591
H286	H	1.230026	-0.244111	-0.019591
Cl287	Cl	0.714119	-0.151770	-0.659655
Cl288	Cl	1.214119	0.348230	-0.159655
H289	H	0.701397	-0.164461	-0.826515
H290	H	1.201397	0.335539	-0.326515
H291	H	0.478138	-0.268638	-0.286856
H292	H	0.978138	0.231362	0.213144
Cl293	Cl	0.584341	-0.281372	-0.912367
Cl294	Cl	1.084341	0.218628	-0.412367
H295	H	-0.094211	-0.164625	-0.469426
H296	H	0.405789	0.335375	0.030574
Cl297	Cl	0.555681	-0.733967	-0.214518
Cl298	Cl	1.055681	-0.233967	0.285482
H299	H	0.036517	-0.135906	-0.519713
H300	H	0.536517	0.364094	-0.019713
H301	H	0.597174	-0.960124	-0.287065
H302	H	1.097174	-0.460124	0.212935
H303	H	0.701242	-0.472690	-0.469272
H304	H	1.201242	0.027310	0.030728
H305	H	0.177263	-0.135881	-0.519706
H306	H	0.677263	0.364119	-0.019706
Cl307	Cl	0.555709	-0.839849	-0.214545
Cl308	Cl	1.055709	-0.339849	0.285455
H309	H	0.036431	-0.297436	-0.236628
H310	H	0.536431	0.202564	0.263372
Cl311	Cl	0.555661	-0.699092	-0.214509
Cl312	Cl	1.055661	-0.199092	0.285491
Cl313	Cl	0.742733	-0.698839	-0.541835
Cl314	Cl	1.242733	-0.198839	-0.041835
H315	H	0.701392	-1.045098	-0.469412
H316	H	1.201392	-0.545098	0.030588
Cl317	Cl	0.714090	-0.949570	-0.491645
Cl318	Cl	1.214090	-0.449570	0.008355
