data_functionalizedCrystal
_audit_creation_method	'MofGen! by Chris Wilmer'
_symmetry_space_group_name_H-M	'P1'
_symmetry_Int_Tables_number	1
_symmetry_cell_setting	triclinic
loop_
_symmetry_equiv_pos_as_xyz
  x,y,z
_cell_length_a	12.827893
_cell_length_b	12.827892
_cell_length_c	11.169409
_cell_angle_alpha	89.966914
_cell_angle_beta	89.978812
_cell_angle_gamma	90.015553
loop_
_atom_site_label
_atom_site_type_symbol
_atom_site_fract_x
_atom_site_fract_y
_atom_site_fract_z
Zn1	Zn	1.597689	-0.415944	-0.678580
Zn2	Zn	2.097689	0.084056	-0.178580
Zn3	Zn	1.597578	-0.590731	-0.477894
Zn4	Zn	2.097578	-0.090731	0.022106
Zn5	Zn	1.422925	-0.416005	-0.477910
Zn6	Zn	1.922925	0.083995	0.022090
Zn7	Zn	1.422916	-0.590644	-0.678535
Zn8	Zn	1.922916	-0.090644	-0.178535
O9	O	1.510277	-0.503331	-0.578230
O10	O	2.010277	-0.003331	-0.078230
O11	O	1.743911	-0.439141	-0.651971
O12	O	2.243911	0.060859	-0.151971
O13	O	1.574367	-0.567616	-0.309947
O14	O	2.074367	-0.067616	0.190053
O15	O	1.446158	-0.269761	-0.504555
O16	O	1.946158	0.230239	-0.004555
O17	O	1.743828	-0.567556	-0.504529
O18	O	2.243828	-0.067556	-0.004529
O19	O	1.574557	-0.269716	-0.651986
O20	O	2.074557	0.230284	-0.151986
O21	O	1.446050	-0.439245	-0.309958
O22	O	1.946050	0.060755	0.190042
O23	O	1.276688	-0.439161	-0.504510
O24	O	1.776688	0.060839	-0.004510
O25	O	1.446143	-0.567407	-0.846490
O26	O	1.946143	-0.067407	-0.346490
O27	O	1.276681	-0.567467	-0.651909
O28	O	1.776681	-0.067467	-0.151909
O29	O	1.574548	-0.439056	-0.846524
O30	O	2.074548	0.060944	-0.346524
O31	O	1.574358	-0.736956	-0.504484
O32	O	2.074358	-0.236956	-0.004484
O33	O	1.446035	-0.736892	-0.651894
O34	O	1.946035	-0.236892	-0.151894
C35	C	1.238767	-0.503312	-0.578207
C36	C	1.738767	-0.003312	-0.078207
C37	C	1.122614	-0.503329	-0.578226
C38	C	1.622614	-0.003329	-0.078226
C39	C	1.070870	-0.439897	-0.651299
C40	C	1.570870	0.060103	-0.151299
C41	C	0.950819	-0.439913	-0.651320
C42	C	1.450819	0.060087	-0.151320
C43	C	1.510212	-0.774841	-0.578209
C44	C	2.010212	-0.274841	-0.078209
C45	C	1.510279	-0.890994	-0.578240
C46	C	2.010279	-0.390994	-0.078240
C47	C	1.573853	-0.942776	-0.505378
C48	C	2.073853	-0.442776	-0.005378
C49	C	1.573924	-1.062826	-0.505408
C50	C	2.073924	-0.562826	-0.005408
C51	C	1.782847	-0.503351	-0.578253
C52	C	2.282847	-0.003351	-0.078253
C53	C	1.899000	-0.503360	-0.578263
C54	C	2.399000	-0.003360	-0.078263
C55	C	1.510357	-0.503215	-0.891272
C56	C	2.010357	-0.003215	-0.391272
C57	C	1.510391	-0.503166	-1.024672
C58	C	2.010391	-0.003166	-0.524672
C59	C	1.510371	-0.230761	-0.578277
C60	C	2.010371	0.269239	-0.078277
C61	C	1.510411	-0.114608	-0.578298
C62	C	2.010411	0.385392	-0.078298
C63	C	1.510257	-0.503371	-0.266405
C64	C	2.010257	-0.003371	0.233595
C65	C	1.510425	-0.503126	-0.133006
C66	C	2.010425	-0.003126	0.366994
H67	H	1.115446	-0.385576	-0.713839
H68	H	1.615446	0.114424	-0.213839
H69	H	1.628233	-0.898234	-0.442979
H70	H	2.128233	-0.398234	0.057021
H71	H	1.628349	-1.107358	-0.443025
H72	H	2.128349	-0.607358	0.056975
C73	C	0.890713	-0.366547	-0.735836
C74	C	1.390713	0.133453	-0.235836
H75	H	0.817911	-0.376178	-0.724757
H76	H	1.317911	0.123822	-0.224757
H77	H	0.908585	-0.381898	-0.816461
H78	H	1.408585	0.118102	-0.316461
H79	H	0.908550	-0.296294	-0.718414
H80	H	1.408550	0.203706	-0.218414
C81	C	0.959095	-0.576735	-0.493746
C82	C	1.459095	-0.076735	0.006254
H83	H	0.911010	-0.616548	-0.447921
H84	H	1.411010	-0.116548	0.052079
H85	H	1.001660	-0.536670	-0.441568
H86	H	1.501660	-0.036670	0.058432
H87	H	1.001682	-0.622272	-0.539617
H88	H	1.501682	-0.122272	-0.039617
C89	C	1.436878	-1.054470	-0.662578
C90	C	1.936878	-0.554470	-0.162578
H91	H	1.397036	-1.102531	-0.708306
H92	H	1.897036	-0.602531	-0.208306
H93	H	1.476842	-1.011818	-0.714854
H94	H	1.976842	-0.511818	-0.214854
H95	H	1.391373	-1.011965	-0.616559
H96	H	1.891373	-0.511965	-0.116559
H97	H	1.078037	-0.557644	-0.515678
H98	H	1.578037	-0.057644	-0.015678
H99	H	1.455909	-0.935539	-0.640647
H100	H	1.955909	-0.435539	-0.140647
