data_functionalizedCrystal
_audit_creation_method	'MofGen! by Chris Wilmer'
_symmetry_space_group_name_H-M	'P1'
_symmetry_Int_Tables_number	1
_symmetry_cell_setting	triclinic
loop_
_symmetry_equiv_pos_as_xyz
  x,y,z
_cell_length_a	17.000383
_cell_length_b	16.098524
_cell_length_c	14.519731
_cell_angle_alpha	93.060845
_cell_angle_beta	79.644578
_cell_angle_gamma	93.248674
loop_
_atom_site_label
_atom_site_type_symbol
_atom_site_fract_x
_atom_site_fract_y
_atom_site_fract_z
O1	O	1.059335	0.069315	0.036664
O2	O	1.559335	0.569315	0.536664
O3	O	0.827652	0.069304	0.070128
O4	O	1.327652	0.569304	0.570128
O5	O	0.949627	0.069302	-0.081351
O6	O	1.449627	0.569302	0.418649
O7	O	0.937360	0.069317	0.188142
O8	O	1.437360	0.569317	0.688142
O9	O	0.943252	-0.069212	-0.088200
O10	O	1.443252	0.430788	0.411800
O11	O	0.821277	-0.069210	0.063279
O12	O	1.321277	0.430790	0.563279
O13	O	1.052959	-0.069199	0.029815
O14	O	1.552959	0.430801	0.529815
Zn15	Zn	0.936106	-0.091197	0.045459
Zn16	Zn	1.436106	0.408803	0.545459
Zn17	Zn	0.944505	0.091302	0.054483
Zn18	Zn	1.444505	0.591302	0.554483
O19	O	0.930984	-0.069197	0.181293
O20	O	1.430984	0.430803	0.681293
C21	C	0.794813	0.000046	0.068500
C22	C	1.294813	0.500046	0.568500
C23	C	0.706462	0.000042	0.073844
C24	C	1.206462	0.500042	0.573844
N25	N	0.930379	-0.215747	0.039300
N26	N	1.430379	0.284253	0.539300
C27	C	0.206298	0.000075	0.108355
C28	C	0.706298	0.500075	0.608355
C29	C	0.289314	0.000074	0.103326
C30	C	0.789314	0.500074	0.603326
C31	C	0.340178	0.000063	0.016040
C32	C	0.840178	0.500063	0.516040
C33	C	0.308024	0.000061	-0.066222
C34	C	0.808024	0.500061	0.433778
C35	C	0.225010	0.000068	-0.061192
C36	C	0.725010	0.500068	0.438808
C37	C	0.591294	0.000047	-0.003388
C38	C	1.091294	0.500047	0.496612
C39	C	0.674313	0.000038	-0.008411
C40	C	1.174313	0.500038	0.491589
C41	C	0.655598	0.000052	0.161137
C42	C	1.155598	0.500052	0.661137
C43	C	0.572583	0.000054	0.166159
C44	C	1.072583	0.500054	0.666159
C45	C	0.540436	0.000056	0.083897
C46	C	1.040436	0.500056	0.583897
C47	C	0.425033	0.000059	0.010898
C48	C	0.925033	0.500059	0.510898
C49	C	0.455582	0.000066	0.089041
C50	C	0.955582	0.500066	0.589041
C51	C	0.976724	-0.259323	0.089193
C52	C	1.476724	0.240677	0.589193
C53	C	0.972729	-0.346513	0.084877
C54	C	1.472729	0.153487	0.584877
C55	C	0.922384	-0.390125	0.030673
C56	C	1.422384	0.109875	0.530673
C57	C	0.876037	-0.346542	-0.019226
C58	C	1.376037	0.153458	0.480774
C59	C	0.880037	-0.259354	-0.014915
C60	C	1.380037	0.240646	0.485085
C61	C	0.907891	-0.653378	0.015047
C62	C	1.407891	-0.153378	0.515047
C63	C	0.903893	-0.740572	0.010742
C64	C	1.403893	-0.240572	0.510742
C65	C	1.000587	-0.740536	0.114845
C66	C	1.500587	-0.240536	0.614845
C67	C	1.004579	-0.653347	0.119155
C68	C	1.504579	-0.153347	0.619155
C69	C	0.958235	-0.609772	0.069252
C70	C	1.458235	-0.109772	0.569252
C71	C	0.918297	-0.479247	0.026262
C72	C	1.418297	0.020753	0.526262
C73	C	0.962327	-0.520652	0.073658
C74	C	1.462327	-0.020652	0.573658
C75	C	1.085798	0.000061	0.031442
C76	C	1.585798	0.500061	0.531442
C77	C	1.174149	0.000070	0.026099
C78	C	1.674149	0.500070	0.526099
C79	C	0.945864	0.000045	-0.119087
C80	C	1.445864	0.500045	0.380913
C81	C	0.944142	0.000044	-0.221324
C82	C	1.444142	0.500044	0.278676
N83	N	0.950238	0.215852	0.060635
N84	N	1.450238	0.715852	0.560635
C85	C	0.942742	0.000046	-0.304352
C86	C	1.442742	0.500046	0.195648
C87	C	0.940994	0.000052	-0.408515
C88	C	1.440994	0.500052	0.091485
C89	C	0.939606	0.000058	-0.491539
C90	C	1.439606	0.500058	0.008461
C91	C	0.937857	0.000062	-0.595709
C92	C	1.437857	0.500062	-0.095709
C93	C	0.934747	0.000062	0.219030
C94	C	1.434747	0.500062	0.719030
C95	C	0.936470	0.000068	0.321267
C96	C	1.436470	0.500068	0.821267
H97	H	0.164889	0.000077	0.179432
H98	H	0.664889	0.500077	0.679432
Br99	Br	1.030656	-0.461463	0.147213
Br100	Br	1.530656	0.038537	0.647213
Br101	Br	1.063478	-0.799678	0.182566
Br102	Br	1.563478	-0.299678	0.682566
H103	H	0.681781	0.000051	0.228110
H104	H	1.181781	0.500051	0.728110
Br105	Br	0.377053	0.000051	-0.184683
Br106	Br	0.877053	0.500051	0.315317
H107	H	0.565131	0.000047	-0.070371
H108	H	1.065131	0.500047	0.429629
Br109	Br	0.849968	-0.538441	-0.047293
Br110	Br	1.349968	-0.038441	0.452707
H111	H	0.414165	0.000079	0.160109
H112	H	0.914165	0.500079	0.660109
Br113	Br	0.503558	0.000073	0.284623
Br114	Br	1.003558	0.500073	0.784623
Br115	Br	0.332942	0.000087	0.214964
Br116	Br	0.832942	0.500087	0.714964
H117	H	0.466456	0.000047	-0.060171
H118	H	0.966456	0.500047	0.439829
Br119	Br	0.807713	-0.405729	-0.092795
Br120	Br	1.307713	0.094271	0.407205
Br121	Br	0.743344	0.000021	-0.126879
Br122	Br	1.243344	0.500021	0.373121
H123	H	1.045578	-0.617844	0.163291
H124	H	1.545578	-0.117844	0.663291
Br125	Br	0.181378	0.000065	-0.172829
Br126	Br	0.681378	0.500065	0.327171
H127	H	1.017716	-0.223821	0.133338
H128	H	1.517716	0.276179	0.633338
H129	H	1.010470	-0.381989	0.125504
H130	H	1.510470	0.118011	0.625504
H131	H	0.862891	-0.776078	-0.033397
H132	H	1.362891	-0.276078	0.466603
H133	H	0.870155	-0.617909	-0.025588
H134	H	1.370155	-0.117909	0.474412
Br135	Br	0.817149	-0.200214	-0.082645
Br136	Br	1.317149	0.299786	0.417355
