data_functionalizedCrystal
_audit_creation_method	'MofGen! by Chris Wilmer'
_symmetry_space_group_name_H-M	'P1'
_symmetry_Int_Tables_number	1
_symmetry_cell_setting	triclinic
loop_
_symmetry_equiv_pos_as_xyz
  x,y,z
_cell_length_a	16.120530
_cell_length_b	21.295417
_cell_length_c	16.120256
_cell_angle_alpha	92.868749
_cell_angle_beta	90.128265
_cell_angle_gamma	87.125778
loop_
_atom_site_label
_atom_site_type_symbol
_atom_site_fract_x
_atom_site_fract_y
_atom_site_fract_z
Zn1	Zn	1.247390	-0.318928	-0.534526
Zn2	Zn	1.580724	0.014406	-0.201192
Zn3	Zn	1.914057	0.347739	0.132141
Zn4	Zn	1.254326	-0.419134	-0.395454
Zn5	Zn	1.587659	-0.085801	-0.062121
Zn6	Zn	1.920992	0.247533	0.271212
Zn7	Zn	1.115382	-0.308287	-0.388444
Zn8	Zn	1.448716	0.025046	-0.055111
Zn9	Zn	1.782049	0.358380	0.278222
Zn10	Zn	1.108282	-0.418557	-0.527424
Zn11	Zn	1.441615	-0.085224	-0.194091
Zn12	Zn	1.774949	0.248109	0.139242
O13	O	1.181345	-0.366227	-0.461462
O14	O	1.514678	-0.032893	-0.128129
O15	O	1.848012	0.300440	0.205204
O16	O	1.364676	-0.336915	-0.521983
O17	O	1.698009	-0.003581	-0.188650
O18	O	2.031343	0.329752	0.144684
O19	O	1.241769	-0.400218	-0.278159
O20	O	1.575102	-0.066885	0.055174
O21	O	1.908435	0.266448	0.388507
O22	O	1.132963	-0.221613	-0.407861
O23	O	1.466296	0.111720	-0.074527
O24	O	1.799629	0.445053	0.258806
O25	O	1.369771	-0.410536	-0.419808
O26	O	1.703105	-0.077203	-0.086475
O27	O	2.036438	0.256131	0.246858
O28	O	1.229948	-0.229431	-0.515186
O29	O	1.563282	0.103902	-0.181852
O30	O	1.896615	0.437236	0.151481
O31	O	1.139688	-0.318779	-0.273009
O32	O	1.473021	0.014554	0.060324
O33	O	1.806354	0.347887	0.393658
O34	O	0.998075	-0.318220	-0.400975
O35	O	1.331408	0.015113	-0.067641
O36	O	1.664742	0.348446	0.265692
O37	O	1.120861	-0.409553	-0.644732
O38	O	1.454194	-0.076220	-0.311398
O39	O	1.787528	0.257114	0.021935
O40	O	0.992858	-0.399235	-0.503083
O41	O	1.326192	-0.065902	-0.169749
O42	O	1.659525	0.267431	0.163584
O43	O	1.223063	-0.336355	-0.649949
O44	O	1.556397	-0.003022	-0.316616
O45	O	1.889730	0.330311	0.016718
O46	O	1.234884	-0.507143	-0.412922
O47	O	1.568217	-0.173810	-0.079589
O48	O	1.901550	0.159524	0.253744
O49	O	1.127586	-0.506719	-0.509880
O50	O	1.460919	-0.173386	-0.176547
O51	O	1.794253	0.159947	0.156787
C52	C	0.965294	-0.357511	-0.450498
C53	C	1.298628	-0.024178	-0.117165
C54	C	1.631961	0.309156	0.216169
C55	C	0.872866	-0.353798	-0.445827
C56	C	1.206199	-0.020465	-0.112494
C57	C	1.539533	0.312868	0.220840
C58	C	0.703637	-0.347006	-0.437307
C59	C	1.036971	-0.013672	-0.103973
C60	C	1.370304	0.319661	0.229360
C61	C	0.659890	-0.385496	-0.485679
C62	C	0.993224	-0.052163	-0.152345
C63	C	1.326557	0.281171	0.180988
C64	C	0.565726	-0.381716	-0.480938
C65	C	0.899059	-0.048383	-0.147604
C66	C	1.232392	0.284950	0.185729
C67	C	0.797811	-0.350784	-0.442046
C68	C	1.131144	-0.017451	-0.108713
C69	C	1.464477	0.315882	0.224620
C70	C	1.181238	-0.529772	-0.461411
C71	C	1.514572	-0.196439	-0.128077
C72	C	1.847905	0.136895	0.205256
C73	C	1.181267	-0.599742	-0.461420
C74	C	1.514601	-0.266408	-0.128087
C75	C	1.847934	0.066925	0.205246
C76	C	1.237182	-0.632812	-0.410991
C77	C	1.570515	-0.299479	-0.077658
C78	C	1.903849	0.033855	0.255675
C79	C	1.237220	-0.698557	-0.411012
C80	C	1.570553	-0.365223	-0.077679
C81	C	1.903887	-0.031890	0.255655
C82	C	1.181329	-0.731228	-0.461452
C83	C	1.514662	-0.397894	-0.128119
C84	C	1.847996	-0.064561	0.205215
C85	C	1.125411	-0.698150	-0.511891
C86	C	1.458744	-0.364817	-0.178558
C87	C	1.792077	-0.031483	0.154775
C88	C	1.125380	-0.632407	-0.511875
C89	C	1.458713	-0.299073	-0.178542
C90	C	1.792046	0.034260	0.154791
N91	N	1.108264	-0.831794	-0.464100
N92	N	1.441597	-0.498460	-0.130766
N93	N	1.774931	-0.165127	0.202567
N94	N	1.108296	-0.894247	-0.464110
N95	N	1.441629	-0.560913	-0.130777
N96	N	1.774962	-0.227580	0.202557
C97	C	1.181420	-0.929308	-0.461504
C98	C	1.514753	-0.595975	-0.128171
C99	C	1.848087	-0.262641	0.205162
N100	N	1.254513	-0.899556	-0.458872
N101	N	1.587847	-0.566223	-0.125539
N102	N	1.921180	-0.232890	0.207795
N103	N	1.254481	-0.837097	-0.458857
N104	N	1.587814	-0.503764	-0.125524
N105	N	1.921147	-0.170431	0.207810
C106	C	1.181357	-0.802515	-0.461475
C107	C	1.514690	-0.469182	-0.128142
C108	C	1.848023	-0.135848	0.205191
C109	C	1.237380	-1.033666	-0.411095
C110	C	1.570713	-0.700333	-0.077762
C111	C	1.904047	-0.367000	0.255571
C112	C	1.237419	-1.099412	-0.411122
C113	C	1.570753	-0.766079	-0.077789
C114	C	1.904086	-0.432746	0.255545
C115	C	1.125603	-1.099004	-0.511996
C116	C	1.458936	-0.765671	-0.178663
C117	C	1.792269	-0.432337	0.154670
C118	C	1.125571	-1.033259	-0.511975
C119	C	1.458904	-0.699926	-0.178641
C120	C	1.792237	-0.366593	0.154692
C121	C	1.181459	-1.000594	-0.461520
C122	C	1.514792	-0.667261	-0.128186
C123	C	1.848125	-0.333928	0.205147
C124	C	1.398239	-0.374977	-0.472470
C125	C	1.731573	-0.041643	-0.139136
C126	C	2.064906	0.291690	0.194197
C127	C	1.490667	-0.378705	-0.477160
C128	C	1.824000	-0.045372	-0.143827
C129	C	2.157334	0.287961	0.189506
C130	C	1.170397	-0.374077	-0.678356
C131	C	1.503730	-0.040744	-0.345023
C132	C	1.837063	0.292590	-0.011690
C133	C	1.165731	-0.377422	-0.770784
C134	C	1.499064	-0.044089	-0.437450
C135	C	1.832398	0.289244	-0.104117
C136	C	1.181474	-0.202044	-0.461533
C137	C	1.514807	0.131289	-0.128200
C138	C	1.848141	0.464623	0.205133
C139	C	1.181529	-0.132079	-0.461564
C140	C	1.514862	0.201254	-0.128230
C141	C	1.848196	0.534588	0.205103
C142	C	1.205674	-0.348765	-0.983771
C143	C	1.539008	-0.015431	-0.650438
C144	C	1.872341	0.317902	-0.317105
C145	C	1.157185	-0.383503	-0.940003
C146	C	1.490518	-0.050169	-0.606670
C147	C	1.823852	0.283164	-0.273336
C148	C	1.161941	-0.380119	-0.845841
C149	C	1.495275	-0.046785	-0.512507
C150	C	1.828608	0.286548	-0.179174
C151	C	1.200919	-0.352148	-1.077942
C152	C	1.534252	-0.018815	-0.744609
C153	C	1.867586	0.314518	-0.411275
C154	C	1.192299	-0.358363	-0.245414
C155	C	1.525632	-0.025030	0.087919
C156	C	1.858966	0.308303	0.421252
C157	C	1.197126	-0.354847	-0.152996
C158	C	1.530459	-0.021514	0.180338
C159	C	1.863792	0.311820	0.513671
H160	H	0.693157	-0.421286	-0.530653
H161	H	1.026490	-0.087953	-0.197319
H162	H	1.359824	0.245380	0.136014
H163	H	0.670373	-0.311218	-0.392337
H164	H	1.003706	0.022115	-0.059003
H165	H	1.337039	0.355449	0.274330
C166	C	1.096285	-0.427121	-0.984917
C167	C	1.429618	-0.093788	-0.651583
C168	C	1.762951	0.239546	-0.318250
N169	N	1.050421	-0.459976	-1.018750
N170	N	1.383754	-0.126643	-0.685416
N171	N	1.717087	0.206690	-0.352083
H172	H	1.282691	-0.606218	-0.369910
H173	H	1.616024	-0.272885	-0.036577
H174	H	1.949358	0.060449	0.296757
C175	C	1.063877	-0.596029	-0.567365
C176	C	1.397210	-0.262696	-0.234031
C177	C	1.730543	0.070637	0.099302
N178	N	1.017555	-0.568629	-0.609164
N179	N	1.350888	-0.235296	-0.275830
N180	N	1.684221	0.098038	0.057503
C181	C	1.266583	-0.305159	-0.938858
C182	C	1.599916	0.028174	-0.605525
C183	C	1.933249	0.361507	-0.272192
N184	N	1.312460	-0.272318	-0.905020
N185	N	1.645794	0.061015	-0.571687
N186	N	1.979127	0.394348	-0.238354
C187	C	1.298728	-0.734941	-0.355529
C188	C	1.632062	-0.401608	-0.022196
C189	C	1.965395	-0.068274	0.311137
N190	N	1.345055	-0.762344	-0.313737
N191	N	1.678388	-0.429010	0.019596
N192	N	2.011721	-0.095677	0.352929
H193	H	1.282890	-1.007069	-0.370014
H194	H	1.616223	-0.673736	-0.036681
H195	H	1.949557	-0.340403	0.296652
C196	C	1.298932	-1.135790	-0.355642
C197	C	1.632266	-0.802456	-0.022309
C198	C	1.965599	-0.469123	0.311024
N199	N	1.345263	-1.163189	-0.313852
N200	N	1.678597	-0.829856	0.019481
N201	N	2.011930	-0.496522	0.352815
C202	C	1.064123	-1.134938	-0.567483
C203	C	1.397457	-0.801605	-0.234150
C204	C	1.730790	-0.468272	0.099183
N205	N	1.017817	-1.162008	-0.609279
N206	N	1.351150	-0.828674	-0.275945
N207	N	1.684483	-0.495341	0.057388
C208	C	1.063928	-0.734089	-0.567373
C209	C	1.397261	-0.400756	-0.234039
C210	C	1.730594	-0.067422	0.099294
N211	N	1.017618	-0.761159	-0.609164
N212	N	1.350951	-0.427825	-0.275830
N213	N	1.684284	-0.094492	0.057503
C214	C	1.064076	-0.996882	-0.567469
C215	C	1.397409	-0.663549	-0.234136
C216	C	1.730742	-0.330215	0.099198
N217	N	1.017764	-0.969483	-0.609280
N218	N	1.351097	-0.636150	-0.275947
N219	N	1.684430	-0.302817	0.057386
