data_functionalizedCrystal
_audit_creation_method	'MofGen! by Chris Wilmer'
_symmetry_space_group_name_H-M	'P1'
_symmetry_Int_Tables_number	1
_symmetry_cell_setting	triclinic
loop_
_symmetry_equiv_pos_as_xyz
  x,y,z
_cell_length_a	16.120530
_cell_length_b	16.625546
_cell_length_c	16.625527
_cell_angle_alpha	90.087861
_cell_angle_beta	87.040224
_cell_angle_gamma	92.882099
loop_
_atom_site_label
_atom_site_type_symbol
_atom_site_fract_x
_atom_site_fract_y
_atom_site_fract_z
Zn1	Zn	1.274930	0.383088	-0.518345
Zn2	Zn	1.608263	0.716421	-0.185012
Zn3	Zn	1.941596	1.049755	0.148321
Zn4	Zn	1.274734	0.518057	-0.383498
Zn5	Zn	1.608067	0.851390	-0.050165
Zn6	Zn	1.941401	1.184723	0.283169
Zn7	Zn	1.135410	0.376407	-0.376692
Zn8	Zn	1.468743	0.709740	-0.043359
Zn9	Zn	1.802076	1.043074	0.289975
Zn10	Zn	1.135475	0.511041	-0.511467
Zn11	Zn	1.468808	0.844374	-0.178134
Zn12	Zn	1.802141	1.177708	0.155200
O13	O	1.205137	0.447148	-0.447501
O14	O	1.538470	0.780481	-0.114167
O15	O	1.871804	1.113815	0.219166
O16	O	1.391574	0.406724	-0.506185
O17	O	1.724907	0.740057	-0.172851
O18	O	2.058240	1.073391	0.160482
O19	O	1.256143	0.499407	-0.269757
O20	O	1.589476	0.832740	0.063576
O21	O	1.922810	1.166073	0.396910
O22	O	1.153972	0.264463	-0.395513
O23	O	1.487305	0.597797	-0.062180
O24	O	1.820639	0.931130	0.271154
O25	O	1.391430	0.505885	-0.407113
O26	O	1.724763	0.839218	-0.073779
O27	O	2.058097	1.172552	0.259554
O28	O	1.256477	0.269372	-0.499585
O29	O	1.589810	0.602705	-0.166252
O30	O	1.923143	0.936039	0.167081
O31	O	1.153782	0.395337	-0.264757
O32	O	1.487116	0.728670	0.068577
O33	O	1.820449	1.062004	0.401910
O34	O	1.018748	0.388534	-0.388843
O35	O	1.352082	0.721868	-0.055510
O36	O	1.685415	1.055201	0.277823
O37	O	1.154083	0.493928	-0.625218
O38	O	1.487416	0.827261	-0.291884
O39	O	1.820750	1.160594	0.041449
O40	O	1.018796	0.487449	-0.487862
O41	O	1.352130	0.820783	-0.154529
O42	O	1.685463	1.154116	0.178805
O43	O	1.256540	0.399921	-0.630271
O44	O	1.589873	0.733254	-0.296938
O45	O	1.923207	1.066588	0.036396
O46	O	1.256206	0.629956	-0.400443
O47	O	1.589540	0.963289	-0.067110
O48	O	1.922873	1.296623	0.266224
O49	O	1.153893	0.624801	-0.494461
O50	O	1.487226	0.958135	-0.161128
O51	O	1.820560	1.291468	0.172205
C52	C	1.205058	0.656635	-0.447463
C53	C	1.538391	0.989969	-0.114130
C54	C	1.871725	1.323302	0.219204
C55	C	1.205101	0.746258	-0.447478
C56	C	1.538434	1.079592	-0.114144
C57	C	1.871767	1.412925	0.219189
C58	C	0.988521	0.436506	-0.436868
C59	C	1.321854	0.769839	-0.103535
C60	C	1.655188	1.103173	0.229799
C61	C	0.895852	0.431973	-0.432339
C62	C	1.229185	0.765306	-0.099005
C63	C	1.562518	1.098639	0.234328
C64	C	1.205341	0.446887	-0.657820
C65	C	1.538674	0.780220	-0.324487
C66	C	1.872007	1.113554	0.008847
C67	C	1.205427	0.446776	-0.747446
C68	C	1.538761	0.780109	-0.414112
C69	C	1.872094	1.113442	-0.080779
C70	C	0.726184	0.423677	-0.424076
C71	C	1.059517	0.757011	-0.090742
C72	C	1.392851	1.090344	0.242591
C73	C	0.684931	0.470678	-0.470984
C74	C	1.018264	0.804012	-0.137651
C75	C	1.351597	1.137345	0.195682
C76	C	0.590522	0.466063	-0.466387
C77	C	0.923855	0.799396	-0.133053
C78	C	1.257188	1.132729	0.200280
C79	C	0.820601	0.428292	-0.428672
C80	C	1.153935	0.761625	-0.095339
C81	C	1.487268	1.094958	0.237994
C82	C	1.422599	0.457832	-0.458175
C83	C	1.755932	0.791166	-0.124842
C84	C	2.089266	1.124499	0.208492
C85	C	1.515268	0.462385	-0.462724
C86	C	1.848602	0.795719	-0.129391
C87	C	2.181935	1.129052	0.203943
C88	C	1.205239	0.236844	-0.447557
C89	C	1.538572	0.570177	-0.114224
C90	C	1.871906	0.903511	0.219110
C91	C	1.205282	0.147225	-0.447581
C92	C	1.538616	0.480558	-0.114248
C93	C	1.871949	0.813892	0.219085
C94	C	1.205246	1.074441	-0.447569
C95	C	1.538579	1.407774	-0.114235
C96	C	1.871913	1.741108	0.219098
C97	C	1.205203	0.983130	-0.447545
C98	C	1.538536	1.316464	-0.114212
C99	C	1.871870	1.649797	0.219121
C100	C	1.205173	0.910353	-0.447523
C101	C	1.538506	1.243686	-0.114189
C102	C	1.871839	1.577019	0.219144
C103	C	1.205131	0.819036	-0.447500
C104	C	1.538464	1.152370	-0.114167
C105	C	1.871798	1.485703	0.219166
C106	C	1.204982	0.447352	-0.238002
C107	C	1.538316	0.780686	0.095332
C108	C	1.871649	1.114019	0.428665
C109	C	1.205057	0.447244	-0.148385
C110	C	1.538391	0.780578	0.184949
C111	C	1.871724	1.113911	0.518282
C112	C	1.205367	0.446864	0.179775
C113	C	1.538700	0.780198	0.513108
C114	C	1.872033	1.113531	0.846442
C115	C	1.205283	0.446973	0.088471
C116	C	1.538616	0.780306	0.421804
C117	C	1.871950	1.113639	0.755138
C118	C	1.205212	0.447055	0.015698
C119	C	1.538545	0.780388	0.349032
C120	C	1.871878	1.113722	0.682365
C121	C	1.205129	0.447162	-0.075612
C122	C	1.538462	0.780496	0.257722
C123	C	1.871795	1.113829	0.591055
H124	H	0.690601	0.379976	-0.380466
H125	H	1.023934	0.713309	-0.047133
H126	H	1.357267	1.046642	0.286200
O127	O	0.732057	0.528577	-0.528755
O128	O	1.065390	0.861910	-0.195421
O129	O	1.398724	1.195244	0.137912
H130	H	0.799889	0.523168	-0.523342
H131	H	1.133222	0.856501	-0.190008
H132	H	1.466556	1.189835	0.143325
