data_functionalizedCrystal
_audit_creation_method	'MofGen! by Chris Wilmer'
_symmetry_space_group_name_H-M	'P1'
_symmetry_Int_Tables_number	1
_symmetry_cell_setting	triclinic
loop_
_symmetry_equiv_pos_as_xyz
  x,y,z
_cell_length_a	19.288856
_cell_length_b	17.766277
_cell_length_c	19.288859
_cell_angle_alpha	89.997401
_cell_angle_beta	96.866756
_cell_angle_gamma	90.011390
loop_
_atom_site_label
_atom_site_type_symbol
_atom_site_fract_x
_atom_site_fract_y
_atom_site_fract_z
O1	O	-0.921355	-0.062624	0.086620
O2	O	-0.719093	-0.062618	0.098315
O3	O	-0.826071	-0.062621	-0.008664
O4	O	-0.814378	-0.062621	0.193598
O5	O	-0.826052	0.062567	-0.008667
O6	O	-0.719074	0.062571	0.098312
O7	O	-0.921336	0.062564	0.086617
Cu8	Cu	-0.820203	0.073998	0.092464
Cu9	Cu	-0.820226	-0.074052	0.092467
O10	O	-0.814358	0.062568	0.193595
C11	C	-0.693207	-0.000023	0.097938
C12	C	-0.616103	-0.000020	0.096811
C13	C	-0.825686	-0.000029	-0.034542
C14	C	-0.824558	-0.000033	-0.111646
C15	C	-0.052061	-0.000009	0.151959
C16	C	-0.124507	-0.000015	0.153024
C17	C	-0.169216	-0.000014	0.090254
C18	C	-0.141472	-0.000028	0.026415
C19	C	-0.069027	-0.000030	0.025352
C20	C	-0.290480	0.043845	0.043439
C21	C	-0.362924	0.043852	0.044504
C22	C	-0.392662	-0.000011	0.093530
C23	C	-0.349945	-0.043871	0.141501
C24	C	-0.277500	-0.043873	0.140439
C25	C	-0.247771	-0.000013	0.091400
C26	C	-0.498952	-0.000009	0.158520
C27	C	-0.571400	-0.000019	0.159582
C28	C	-0.588363	-0.000025	0.032971
C29	C	-0.515916	-0.000022	0.031910
C30	C	-0.471215	-0.000011	0.094687
N31	N	-0.820193	0.178129	0.092461
C32	C	0.052778	-0.000027	0.086996
C33	C	-0.024325	-0.000019	0.088128
N34	N	-0.820242	-0.178182	0.092465
C35	C	-0.862179	0.217508	0.134483
C36	C	-0.862190	0.296310	0.134481
C37	C	-0.820201	0.335729	0.092465
C38	C	-0.778212	0.296340	0.050434
C39	C	-0.778208	0.217540	0.050432
C40	C	-0.757589	0.460590	0.090710
C41	C	-0.757592	0.539389	0.090717
C42	C	-0.820216	0.578775	0.092467
C43	C	-0.882838	0.539353	0.094225
C44	C	-0.882833	0.460553	0.094223
C45	C	-0.820202	0.421175	0.092462
C46	C	-0.862218	0.703601	0.134490
C47	C	-0.862230	0.782404	0.134483
C48	C	-0.778246	0.782433	0.050439
C49	C	-0.778240	0.703631	0.050442
C50	C	-0.820225	0.664220	0.092471
C51	C	-0.814744	-0.000026	0.219473
C52	C	-0.815871	-0.000027	0.296577
C53	C	-0.760727	-0.000040	0.860619
C54	C	-0.759662	-0.000034	0.788173
C55	C	-0.822431	-0.000036	0.743464
C56	C	-0.886271	-0.000026	0.771207
C57	C	-0.887335	-0.000024	0.843652
C58	C	-0.869251	-0.043896	0.622192
C59	C	-0.868185	-0.043902	0.549748
C60	C	-0.819154	-0.000037	0.520018
C61	C	-0.771177	0.043824	0.562742
C62	C	-0.772241	0.043826	0.635188
C63	C	-0.821285	-0.000037	0.664908
C64	C	-0.754163	-0.000036	0.413729
C65	C	-0.753101	-0.000025	0.341280
C66	C	-0.879712	-0.000025	0.324316
C67	C	-0.880772	-0.000028	0.396763
C68	C	-0.817996	-0.000037	0.441465
H69	H	-0.147095	-0.000000	0.205004
O70	O	-0.486000	-0.000024	-0.036939
H71	H	-0.428114	-0.000031	-0.027134
H72	H	-0.397698	0.079569	0.005447
O73	O	-0.003851	-0.000003	0.219668
H74	H	0.051186	-0.000000	0.208208
O75	O	-0.231427	-0.091180	0.192171
H76	H	-0.194030	-0.054186	0.224428
H77	H	-0.374155	-0.079587	0.181424
H78	H	-0.593980	-0.000018	0.211562
H79	H	-0.744047	0.671568	0.016225
H80	H	-0.896405	0.671510	0.168712
H81	H	-0.733178	0.079541	0.669971
H82	H	-0.266275	0.079565	0.003513
O83	O	-0.039106	-0.000036	-0.043498
H84	H	-0.006494	0.050988	-0.047008
H85	H	-0.896381	0.328379	0.168703
H86	H	-0.939315	-0.000019	0.866233
O87	O	-0.947418	-0.000022	0.276107
H88	H	-0.949978	-0.051049	0.242698
O89	O	-0.922137	-0.091218	0.654250
H90	H	-0.914820	-0.083845	0.711803
O91	O	-0.450730	-0.000010	0.226223
H92	H	-0.482191	-0.000018	0.270790
O93	O	-0.953972	-0.000028	0.722987
H94	H	-0.984515	0.051003	0.732817
H95	H	-0.896369	0.185424	0.168704
O96	O	-0.732973	0.824928	0.005096
H97	H	-0.677407	0.809817	0.020333
O98	O	-0.732939	0.175050	0.005094
H99	H	-0.695504	0.139143	0.038479
O100	O	-0.636575	-0.000018	-0.034734
H101	H	-0.670001	-0.051039	-0.037276
H102	H	-0.177878	-0.000030	-0.024693
H103	H	-0.706589	0.428529	0.089289
H104	H	-0.932751	-0.000027	0.419345
H105	H	-0.933832	0.571420	0.095653
H106	H	-0.933823	0.428458	0.095652
H107	H	-0.896426	0.814465	0.168701
H108	H	-0.709610	-0.000046	0.897012
O109	O	-0.919940	-0.091191	0.503667
H110	H	-0.954227	-0.121676	0.536507
O111	O	-0.690051	0.581902	0.088825
H112	H	-0.700571	0.643313	0.089131
H113	H	-0.744026	0.328441	0.016223
O114	O	-0.690813	-0.000049	0.758244
H115	H	-0.647341	-0.000060	0.801499
H116	H	-0.731251	0.079543	0.538538
H117	H	-0.703047	-0.000038	0.450127
H118	H	-0.701120	-0.000027	0.318701
