data_functionalizedCrystal
_audit_creation_method	'MofGen! by Chris Wilmer'
_symmetry_space_group_name_H-M	'P1'
_symmetry_Int_Tables_number	1
_symmetry_cell_setting	triclinic
loop_
_symmetry_equiv_pos_as_xyz
  x,y,z
_cell_length_a	17.077404
_cell_length_b	11.169416
_cell_length_c	17.077396
_cell_angle_alpha	89.976843
_cell_angle_beta	89.981638
_cell_angle_gamma	90.008119
loop_
_atom_site_label
_atom_site_type_symbol
_atom_site_fract_x
_atom_site_fract_y
_atom_site_fract_z
Zn1	Zn	1.200124	-0.477872	-0.443848
Zn2	Zn	1.200060	-0.678584	-0.312594
Zn3	Zn	1.068856	-0.477906	-0.312598
Zn4	Zn	1.068853	-0.678505	-0.443820
O5	O	1.134473	-0.578217	-0.378215
O6	O	1.309963	-0.504516	-0.426447
O7	O	1.182630	-0.652011	-0.202748
O8	O	1.086297	-0.309952	-0.330022
O9	O	1.309916	-0.651978	-0.330015
O10	O	1.182739	-0.309927	-0.426451
O11	O	1.086235	-0.504574	-0.202751
O12	O	0.959009	-0.504497	-0.329996
O13	O	1.086292	-0.651843	-0.553671
O14	O	0.959007	-0.651876	-0.426404
O15	O	1.182736	-0.504439	-0.553691
O16	O	1.182628	-0.846523	-0.329988
O17	O	1.086230	-0.846465	-0.426399
C18	C	0.930525	-0.578183	-0.378198
C19	C	0.843276	-0.578197	-0.378209
C20	C	0.802311	-0.501550	-0.428497
C21	C	0.720330	-0.501558	-0.428501
C22	C	0.679316	-0.578220	-0.378219
C23	C	0.720287	-0.654870	-0.327925
C24	C	0.802266	-0.654855	-0.327918
C25	C	0.549417	-0.654897	-0.327945
C26	C	0.467432	-0.654914	-0.327952
C27	C	0.467481	-0.501600	-0.428527
C28	C	0.549460	-0.501585	-0.428520
C29	C	0.590425	-0.578237	-0.378227
C30	C	1.134443	-0.890042	-0.378207
C31	C	1.134502	-1.023441	-0.378230
C32	C	1.339218	-0.578252	-0.378233
C33	C	1.426467	-0.578267	-0.378241
C34	C	1.134521	-0.578128	-0.582960
C35	C	1.134541	-0.578091	-0.670209
C36	C	1.134525	-0.265174	-0.378240
C37	C	1.134547	-0.131774	-0.378251
C38	C	1.184761	-0.501331	-0.711211
C39	C	1.184771	-0.501291	-0.793192
C40	C	1.134563	-0.578018	-0.834169
C41	C	1.084337	-0.654781	-0.793161
C42	C	1.084325	-0.654814	-0.711182
C43	C	1.084369	-0.654709	-0.964031
C44	C	1.084383	-0.654677	-1.046016
C45	C	1.184815	-0.501186	-1.046041
C46	C	1.184802	-0.501219	-0.964062
C47	C	1.134577	-0.577984	-0.923060
C48	C	1.134471	-0.578218	-0.174267
C49	C	1.134603	-0.577918	-0.087018
H50	H	0.582768	-0.717313	-0.286988
H51	H	1.043455	-0.717249	-0.826531
H52	H	1.043498	-0.717152	-1.079377
H53	H	0.434124	-0.439184	-0.469477
H54	H	1.225690	-0.438748	-0.930701
H55	H	0.686980	-0.439147	-0.469452
H56	H	1.225709	-0.438679	-1.079429
H57	H	0.434041	-0.717339	-0.287009
H58	H	1.225667	-0.438789	-0.826572
H59	H	0.835619	-0.717268	-0.286967
H60	H	0.686887	-0.717283	-0.286981
H61	H	1.225649	-0.438855	-0.677854
H62	H	1.043458	-0.717200	-0.930650
H63	H	1.043422	-0.717307	-0.677799
H64	H	0.582852	-0.439167	-0.469469
H65	H	0.835698	-0.439126	-0.469445
