data_functionalizedCrystal
_audit_creation_method	'MofGen! by Chris Wilmer'
_symmetry_space_group_name_H-M	'P1'
_symmetry_Int_Tables_number	1
_symmetry_cell_setting	triclinic
loop_
_symmetry_equiv_pos_as_xyz
  x,y,z
_cell_length_a	11.792241
_cell_length_b	17.038272
_cell_length_c	10.868271
_cell_angle_alpha	89.994627
_cell_angle_beta	89.999893
_cell_angle_gamma	87.652486
loop_
_atom_site_label
_atom_site_type_symbol
_atom_site_fract_x
_atom_site_fract_y
_atom_site_fract_z
O1	O	1.516303	0.107207	-0.102203
O2	O	1.186930	0.118256	-0.102232
O3	O	1.349659	-0.001093	-0.102208
O4	O	1.353574	0.226555	-0.102227
O5	O	1.349644	-0.001097	0.102436
O6	O	1.186915	0.118251	0.102412
O7	O	1.516288	0.107202	0.102441
Zn8	Zn	1.351599	0.112726	0.134919
Zn9	Zn	1.351618	0.112732	-0.134710
O10	O	1.353559	0.226551	0.102417
C11	C	1.144571	0.117559	0.000086
C12	C	1.018375	0.115482	0.000076
C13	C	1.346090	-0.030239	0.000114
C14	C	1.335466	-0.117079	0.000112
C15	C	0.787328	0.111662	0.000111
C16	C	0.915899	0.113785	0.000092
C17	C	1.433006	-0.166762	0.000122
C18	C	1.423017	-0.248357	0.000110
C19	C	1.315487	-0.280267	0.000096
C20	C	1.217940	-0.230577	0.000083
C21	C	1.227930	-0.148984	0.000086
C22	C	1.280194	-0.526181	0.000076
C23	C	1.270211	-0.607780	0.000076
C24	C	1.475289	-0.625554	0.000101
C25	C	1.485270	-0.543958	0.000112
C26	C	1.387723	-0.494276	0.000092
C27	C	1.305274	-0.363669	0.000087
C28	C	1.397937	-0.410875	0.000092
C29	C	1.558647	0.107899	0.000120
C30	C	1.684843	0.109976	0.000122
C31	C	1.357127	0.255697	0.000093
C32	C	1.367751	0.342537	0.000086
N33	N	1.351594	0.112721	0.318933
N34	N	1.351632	0.112731	-0.318724
C35	C	1.351612	0.112730	0.569939
C36	C	1.351599	0.112728	0.430261
H37	H	1.520568	-0.140788	0.000141
H38	H	1.182643	-0.633757	0.000085
O39	O	1.133064	-0.100831	0.000131
C40	C	0.928602	-0.091808	0.000023
C41	C	1.035946	-0.146429	0.000011
H42	H	0.850055	-0.128652	-0.000100
H43	H	0.928060	-0.053181	0.085685
H44	H	0.928229	-0.053145	-0.085602
H45	H	1.036390	-0.185142	0.085578
H46	H	1.036447	-0.185003	-0.085707
H47	H	1.485487	-0.384890	0.000076
H48	H	1.217723	-0.389660	0.000079
O49	O	1.517883	-0.296506	0.000182
C50	C	1.722346	-0.305525	0.000152
C51	C	1.614999	-0.250906	0.000099
H52	H	1.800891	-0.268679	0.000059
H53	H	1.722862	-0.344161	0.085814
H54	H	1.722748	-0.344179	-0.085473
H55	H	1.614526	-0.212203	0.085666
H56	H	1.614524	-0.212323	-0.085620
H57	H	1.130387	-0.256565	0.000064
O58	O	1.589812	-0.513093	0.000075
C59	C	1.792166	-0.539336	0.000193
C60	C	1.673843	-0.574395	0.000193
H61	H	1.860137	-0.588881	0.000315
H62	H	1.802061	-0.501599	-0.085464
H63	H	1.801892	-0.501563	0.085823
H64	H	1.664036	-0.612204	-0.085379
H65	H	1.664002	-0.612086	0.085906
O66	O	1.570006	-0.673848	-0.000110
C67	C	1.677720	-0.776309	-0.106093
C68	C	1.570415	-0.721649	-0.106016
H69	H	1.678073	-0.814982	-0.191696
H70	H	1.756330	-0.739525	-0.106165
H71	H	1.678156	-0.814925	-0.020413
H72	H	1.569868	-0.683023	-0.191681
H73	H	1.491853	-0.758480	-0.105880
O74	O	1.185324	-0.478038	0.000128
C75	C	0.980862	-0.469027	0.000053
C76	C	1.088213	-0.523643	0.000017
H77	H	0.902320	-0.505876	-0.000062
H78	H	0.980326	-0.430405	0.085719
H79	H	0.980472	-0.430360	-0.085568
H80	H	1.088673	-0.562359	0.085581
H81	H	1.088706	-0.562212	-0.085705
