data_functionalizedCrystal
_audit_creation_method	'MofGen! by Chris Wilmer'
_symmetry_space_group_name_H-M	'P1'
_symmetry_Int_Tables_number	1
_symmetry_cell_setting	triclinic
loop_
_symmetry_equiv_pos_as_xyz
  x,y,z
_cell_length_a	19.188905
_cell_length_b	15.995300
_cell_length_c	14.472310
_cell_angle_alpha	90.003476
_cell_angle_beta	90.020135
_cell_angle_gamma	96.696818
loop_
_atom_site_label
_atom_site_type_symbol
_atom_site_fract_x
_atom_site_fract_y
_atom_site_fract_z
O1	O	0.926415	-0.104430	0.076984
O2	O	1.426415	0.395570	0.576984
O3	O	0.723135	-0.118525	0.076951
O4	O	1.223135	0.381475	0.576951
O5	O	0.830350	0.010434	0.076973
O6	O	1.330350	0.510434	0.576973
O7	O	0.819200	-0.233389	0.076962
O8	O	1.319200	0.266611	0.576962
O9	O	0.830323	0.010426	-0.076709
O10	O	1.330323	0.510426	0.423291
O11	O	0.723108	-0.118532	-0.076731
O12	O	1.223108	0.381468	0.423269
O13	O	0.926388	-0.104438	-0.076698
O14	O	1.426388	0.395562	0.423302
Cu15	Cu	0.824745	-0.111486	-0.090747
Cu16	Cu	1.324745	0.388514	0.409253
Cu17	Cu	0.824778	-0.111477	0.091000
Cu18	Cu	1.324778	0.388523	0.591000
O19	O	0.819173	-0.233397	-0.076720
O20	O	1.319173	0.266603	0.423280
C21	C	0.697109	-0.118076	0.000106
C22	C	1.197109	0.381924	0.500106
C23	C	0.619600	-0.116716	0.000094
C24	C	1.119600	0.383284	0.500094
C25	C	0.583222	-0.116059	0.083869
C26	C	1.083222	0.383941	0.583869
C27	C	0.510395	-0.114772	0.083880
C28	C	1.010395	0.385228	0.583880
C29	C	0.473952	-0.114125	0.000113
C30	C	0.973952	0.385875	0.500113
C31	C	0.510338	-0.114788	-0.083673
C32	C	1.010338	0.385212	0.416327
C33	C	0.583163	-0.116083	-0.083682
C34	C	1.083163	0.383917	0.416318
N35	N	0.364801	-0.064445	-0.062226
N36	N	0.864801	0.435555	0.437774
N37	N	0.295621	-0.063213	-0.062211
N38	N	0.795621	0.436787	0.437789
C39	C	0.254536	-0.110225	0.000135
C40	C	0.754536	0.389775	0.500135
N41	N	0.285245	-0.158505	0.062480
N42	N	0.785245	0.341495	0.562480
N43	N	0.354431	-0.159733	0.062469
N44	N	0.854431	0.340267	0.562469
C45	C	0.394986	-0.112722	0.000113
C46	C	0.894986	0.387278	0.500113
C47	C	0.139190	-0.108173	0.083928
C48	C	0.639190	0.391827	0.583928
C49	C	0.066362	-0.106892	0.083936
C50	C	0.566362	0.393108	0.583936
C51	C	0.066307	-0.106899	-0.083620
C52	C	0.566307	0.393101	0.416380
C53	C	0.139133	-0.108189	-0.083626
C54	C	0.639133	0.391811	0.416374
C55	C	0.175571	-0.108822	0.000151
C56	C	0.675571	0.391178	0.500151
C57	C	0.829882	0.041624	0.000135
C58	C	1.329882	0.541624	0.500135
C59	C	0.828519	0.134571	0.000144
C60	C	1.328519	0.634571	0.500144
C61	C	0.952414	-0.104887	0.000149
C62	C	1.452414	0.395113	0.500149
C63	C	1.029923	-0.106247	0.000167
C64	C	1.529923	0.393753	0.500167
C65	C	0.819641	-0.264587	0.000120
C66	C	1.319641	0.235413	0.500120
C67	C	0.821005	-0.357534	0.000117
C68	C	1.321005	0.142466	0.500117
C69	C	0.826001	0.304745	0.000135
C70	C	1.326001	0.804745	0.500135
C71	C	0.902340	0.352499	0.000149
C72	C	1.402340	0.852499	0.500149
C73	C	0.900947	0.449181	-0.000204
C74	C	1.400947	0.949181	0.499796
C75	C	0.823523	0.472292	0.000127
C76	C	1.323523	0.972292	0.500127
C77	C	0.785632	0.431011	-0.087466
C78	C	1.285632	0.931011	0.412534
C79	C	0.787564	0.334385	-0.087536
C80	C	1.287564	0.834385	0.412464
C81	C	0.786465	0.334113	0.087235
C82	C	1.286465	0.834113	0.587235
C83	C	0.786472	0.431058	0.088383
C84	C	1.286472	0.931058	0.588383
C85	C	0.822118	0.566982	0.000119
C86	C	1.322118	1.066982	0.500119
C87	C	0.827403	0.210055	0.000136
C88	C	1.327403	0.710055	0.500136
N89	N	0.824727	-0.111492	-0.218578
N90	N	1.324727	0.388508	0.281422
C91	C	0.824777	-0.111474	-0.592669
C92	C	1.324777	0.388526	-0.092669
C93	C	0.767216	-0.180247	-0.553515
C94	C	1.267216	0.319753	-0.053515
C95	C	0.767349	-0.180496	-0.446427
C96	C	1.267349	0.319504	0.053573
C97	C	0.824752	-0.111483	-0.407078
C98	C	1.324752	0.388517	0.092922
C99	C	0.897600	-0.130290	-0.445904
C100	C	1.397600	0.369710	0.054096
C101	C	0.897277	-0.130779	-0.553026
C102	C	1.397277	0.369221	-0.053026
C103	C	0.810140	-0.023687	-0.553197
C104	C	1.310140	0.476313	-0.053197
C105	C	0.808469	-0.024279	-0.446070
C106	C	1.308469	0.475721	0.053930
C107	C	0.824742	-0.111486	-0.302190
C108	C	1.324742	0.388514	0.197810
C109	C	0.824791	-0.111472	-0.697557
C110	C	1.324791	0.388528	-0.197557
N111	N	0.824801	-0.111465	0.218831
N112	N	1.324801	0.388535	0.718831
H113	H	0.612885	-0.116575	0.152086
H114	H	1.112885	0.383425	0.652086
N115	N	0.711688	0.451050	0.095696
N116	N	1.211688	0.951050	0.595696
H117	H	0.689251	0.423735	0.152985
H118	H	1.189251	0.923735	0.652985
H119	H	0.711294	0.514037	0.099560
H120	H	1.211294	1.014037	0.599560
N121	N	0.915096	-0.214116	-0.410362
N122	N	1.415096	0.285884	0.089638
H123	H	0.920789	-0.252908	-0.464211
H124	H	1.420789	0.247092	0.035789
H125	H	0.960264	-0.205513	-0.373929
H126	H	1.460264	0.294487	0.126071
H127	H	0.480770	-0.114238	0.152102
H128	H	0.980770	0.385762	0.652102
H129	H	0.480661	-0.114263	-0.151877
H130	H	0.980661	0.385737	0.348123
N131	N	0.942356	0.326671	-0.082918
N132	N	1.442356	0.826671	0.417082
H133	H	0.917425	0.341049	-0.141262
H134	H	1.417425	0.841049	0.358738
H135	H	0.991330	0.357640	-0.082304
H136	H	1.491330	0.857640	0.417696
N137	N	0.741293	0.000351	-0.589030
N138	N	1.241293	0.500351	-0.089030
H139	H	0.718894	-0.045427	-0.631220
H140	H	1.218894	0.454573	-0.131220
H141	H	0.708956	0.007644	-0.535322
H142	H	1.208956	0.507644	-0.035322
N143	N	0.820031	0.468688	-0.174135
N144	N	1.320031	0.968688	0.325865
H145	H	0.816921	0.531281	-0.175130
H146	H	1.316921	1.031281	0.324870
H147	H	0.870929	0.458251	-0.175166
H148	H	1.370929	0.958251	0.324834
H149	H	0.612781	-0.116619	-0.151904
H150	H	1.112781	0.383381	0.348096
N151	N	0.027126	-0.106180	0.174301
N152	N	0.527126	0.393820	0.674301
H153	H	0.002586	-0.053750	0.178033
H154	H	0.502586	0.446250	0.678033
H155	H	-0.008725	-0.157573	0.177990
H156	H	0.491275	0.342427	0.677990
H157	H	0.168858	-0.108698	0.152144
H158	H	0.668858	0.391302	0.652144
H159	H	0.910177	-0.194792	-0.578002
H160	H	1.410177	0.305208	-0.078002
H161	H	0.730178	0.302130	0.088061
H162	H	1.230178	0.802130	0.588061
H163	H	0.713199	-0.169331	-0.420179
H164	H	1.213199	0.330669	0.079821
H165	H	0.712891	-0.169269	-0.579311
H166	H	1.212891	0.330731	-0.079311
H167	H	0.776432	-0.245031	-0.580425
H168	H	1.276432	0.254969	-0.080425
H169	H	0.776694	-0.245647	-0.420793
H170	H	1.276694	0.254353	0.079207
N171	N	0.737462	-0.005388	-0.412525
N172	N	1.237462	0.494612	0.087475
H173	H	0.715929	-0.053107	-0.372230
H174	H	1.215929	0.446893	0.127770
H175	H	0.743035	0.048574	-0.375624
H176	H	1.243035	0.548574	0.124376
N177	N	0.027011	-0.106197	-0.173972
N178	N	0.527011	0.393803	0.326028
H179	H	-0.024644	-0.105274	-0.161256
H180	H	0.475356	0.394726	0.338744
H181	H	0.045408	-0.054525	-0.210545
H182	H	0.545408	0.445475	0.289455
N183	N	0.178375	-0.108897	-0.173983
N184	N	0.678375	0.391103	0.326017
H185	H	0.144240	-0.108293	-0.227050
H186	H	0.644240	0.391707	0.272950
H187	H	0.214267	-0.057540	-0.177636
H188	H	0.714267	0.442460	0.322364
N189	N	0.940401	0.487050	0.082931
N190	N	1.440401	0.987050	0.582931
H191	H	0.958854	0.440942	0.120140
H192	H	1.458854	0.940942	0.620140
H193	H	0.980936	0.528556	0.061691
H194	H	1.480936	1.028556	0.561691
H195	H	0.941446	-0.082648	-0.578923
H196	H	1.441446	0.417352	-0.078923
H197	H	0.941456	-0.081520	-0.420412
H198	H	1.441456	0.418480	0.079588
N199	N	0.860400	0.046663	-0.410606
N200	N	1.360400	0.546663	0.089394
H201	H	0.848625	0.101837	-0.436799
H202	H	1.348625	0.601837	0.063201
H203	H	0.858017	0.048504	-0.340933
H204	H	1.358017	0.548504	0.159067
H205	H	0.852116	0.027488	-0.578515
H206	H	1.352116	0.527488	-0.078515
H207	H	0.933026	0.334139	0.062962
H208	H	1.433026	0.834139	0.562962
H209	H	0.814847	0.316164	-0.153252
H210	H	1.314847	0.816164	0.346748
N211	N	0.940180	0.486222	-0.083848
N212	N	1.440180	0.986222	0.416152
H213	H	0.990367	0.473082	-0.081359
H214	H	1.490367	0.973082	0.418641
H215	H	0.916965	0.461130	-0.141761
H216	H	1.416965	0.961130	0.358239
N217	N	0.713319	0.291333	-0.092506
N218	N	1.213319	0.791333	0.407494
H219	H	0.685949	0.308037	-0.037234
H220	H	1.185949	0.808037	0.462766
H221	H	0.690320	0.308844	-0.151064
H222	H	1.190320	0.808844	0.348936
N223	N	0.710274	0.449400	-0.091479
N224	N	1.210274	0.949400	0.408521
H225	H	0.699948	0.484753	-0.036423
H226	H	1.199948	0.984753	0.463577
H227	H	0.702363	0.480988	-0.150266
H228	H	1.202363	0.980988	0.349734
N229	N	0.819767	0.307094	0.175209
N230	N	1.319767	0.807094	0.675209
H231	H	0.860824	0.275536	0.159490
H232	H	1.360824	0.775536	0.659490
H233	H	0.836683	0.358439	0.213212
H234	H	1.336683	0.858439	0.713212
H235	H	0.814142	0.458506	0.153185
H236	H	1.314142	0.958506	0.653185
