data_functionalizedCrystal
_audit_creation_method	'MofGen! by Chris Wilmer'
_symmetry_space_group_name_H-M	'P1'
_symmetry_Int_Tables_number	1
_symmetry_cell_setting	triclinic
loop_
_symmetry_equiv_pos_as_xyz
  x,y,z
_cell_length_a	19.851628
_cell_length_b	14.560432
_cell_length_c	19.851628
_cell_angle_alpha	60.004859
_cell_angle_beta	90.005228
_cell_angle_gamma	59.999308
loop_
_atom_site_label
_atom_site_type_symbol
_atom_site_fract_x
_atom_site_fract_y
_atom_site_fract_z
Zr1	Zr	0.648999	1.005150	-0.088310
O2	O	0.541439	1.196750	-0.195876
O3	O	0.681969	0.813551	-0.055336
O4	O	0.681977	1.005128	-0.195860
O5	O	0.541427	1.005190	0.055497
O6	O	0.792839	1.005110	-0.195847
O7	O	0.541431	1.005173	-0.055352
O8	O	0.792825	0.662414	0.055525
O9	O	0.541442	1.347886	-0.195875
O10	O	0.778768	0.892345	-0.041262
O11	O	0.696031	0.892372	0.041453
O12	O	0.696040	1.117929	-0.123996
O13	O	0.613303	1.117955	-0.041281
Zr14	Zr	0.825805	1.005150	0.088503
Zr15	Zr	0.825810	1.005122	-0.088288
Zr16	Zr	0.648993	1.005178	0.088481
Zr17	Zr	0.649003	1.246196	-0.088308
Zr18	Zr	0.825800	0.764104	0.088501
O19	O	0.792835	1.196750	0.055529
O20	O	0.792842	1.196709	-0.195845
O21	O	0.541431	1.196790	0.055498
O22	O	0.933365	0.813551	0.196069
O23	O	0.933373	0.813510	-0.055305
O24	O	0.681961	0.813591	0.196038
O25	O	0.933376	1.005110	-0.055304
O26	O	0.792827	1.005173	0.196053
O27	O	0.681965	1.005190	0.196039
O28	O	0.933373	1.005128	0.055545
O29	O	0.681983	1.347864	-0.195858
O30	O	0.792820	0.662436	0.196050
O31	O	0.933362	0.662414	0.196068
O32	O	0.933366	0.662391	0.055542
O33	O	0.541437	1.347909	-0.055349
O34	O	0.681979	1.347886	-0.055332
O35	O	0.778763	0.892372	0.124188
O36	O	0.861501	0.892345	0.041473
O37	O	0.778773	1.117929	-0.041260
O38	O	0.696035	1.117955	0.041455
C39	C	0.737396	0.703638	0.000094
C40	C	0.737394	0.601308	0.000094
C41	C	0.615241	0.767823	-0.122054
C42	C	0.554165	0.803004	-0.183124
C43	C	0.554167	0.706850	-0.183122
C44	C	0.615254	0.575506	-0.122044
C45	C	0.676331	0.540326	-0.060974
C46	C	0.676320	0.636490	-0.060981
C47	C	0.798486	0.373812	0.061169
C48	C	0.798481	0.469963	0.061172
C49	C	0.859573	0.242468	0.122247
C50	C	0.920647	0.207285	0.183323
C51	C	0.920641	0.303448	0.183318
C52	C	0.859557	0.434783	0.122242
C53	C	0.516237	1.005185	0.000070
C54	C	0.441176	1.005198	0.000060
C55	C	0.214724	1.128166	-0.045022
C56	C	0.192363	1.066675	-0.077709
C57	C	0.303769	1.005164	0.000084
C58	C	0.192390	1.066664	0.032756
C59	C	0.171037	1.005140	0.000106
C60	C	0.282397	0.943672	-0.032648
C61	C	0.282422	0.943678	0.077859
C62	C	0.260113	0.882097	0.045192
C63	C	0.380232	1.005181	0.000069
C64	C	0.094580	1.005114	0.000120
C65	C	0.958566	1.005115	0.000123
C66	C	1.033628	1.005103	0.000132
C67	C	0.737409	1.005115	-0.221042
C68	C	0.737411	1.005103	-0.296095
C69	C	0.737407	1.306662	0.000098
C70	C	0.737409	1.408992	0.000099
C71	C	0.782515	0.882134	-0.432351
C72	C	0.704723	0.943625	-0.499813
C73	C	0.737403	1.005136	-0.433526
C74	C	0.815179	0.943637	-0.499799
C75	C	0.737402	1.005160	-0.566275
C76	C	0.659565	1.066629	-0.500000
C77	C	0.770077	1.066622	-0.499975
C78	C	0.692238	1.128204	-0.567450
C79	C	0.737404	1.005119	-0.357051
C80	C	0.737392	1.005186	-0.642752
C81	C	0.737395	1.005185	0.221235
C82	C	0.737393	1.005198	0.296287
C83	C	0.958561	0.703603	0.000121
C84	C	1.033620	0.601260	0.000130
C85	C	0.737389	0.703674	0.221233
C86	C	0.737385	0.601355	0.296285
C87	C	0.958554	0.703638	0.221260
C88	C	1.033611	0.601308	0.296321
C89	C	0.516250	1.306662	-0.221067
C90	C	0.441193	1.408992	-0.296128
C91	C	0.516243	1.306697	0.000072
C92	C	0.441184	1.409040	0.000063
C93	C	0.737414	1.306626	-0.221040
C94	C	0.737418	1.408945	-0.296092
C95	C	1.025683	0.553199	-0.043061
C96	C	1.096203	0.457051	-0.043069
C97	C	1.174658	0.408959	0.000118
C98	C	1.182593	0.457030	0.043310
C99	C	1.112075	0.553183	0.043313
C100	C	0.780569	0.553306	0.374724
C101	C	0.780562	0.457180	0.445250
C102	C	0.737375	0.409100	0.437335
C103	C	0.694187	0.457159	0.358887
C104	C	0.694189	0.553289	0.288363
C105	C	1.112054	0.553239	0.288394
C106	C	1.182585	0.457102	0.358914
C107	C	1.174671	0.409029	0.437362
C108	C	1.096220	0.457108	0.445287
C109	C	1.025691	0.553250	0.374767
C110	C	0.362750	1.457073	-0.288201
C111	C	0.292219	1.553240	-0.358722
C112	C	0.300133	1.601317	-0.437169
C113	C	0.378584	1.553232	-0.445094
C114	C	0.449113	1.457074	-0.374574
C115	C	0.449120	1.457111	0.043246
C116	C	0.378601	1.553286	0.043235
C117	C	0.300146	1.601381	0.000046
C118	C	0.292210	1.553306	-0.043143
C119	C	0.362729	1.457139	-0.043136
C120	C	0.780613	1.456995	-0.288150
C121	C	0.780633	1.553121	-0.358662
C122	C	0.737453	1.601202	-0.437116
C123	C	0.694257	1.553142	-0.445056
C124	C	0.694242	1.457011	-0.374544
H125	H	0.504430	0.909953	-0.232854
C126	C	0.888269	0.270545	0.574673
C127	C	0.828042	0.404356	0.531475
H128	H	0.917577	0.237937	0.627904
H129	H	0.925537	0.254777	0.545371
H130	H	0.862535	0.228171	0.580051
H131	H	0.853777	0.446731	0.526091
H132	H	0.790769	0.420135	0.560783
H133	H	0.615256	0.497220	-0.122053
H134	H	0.242697	1.679615	-0.494584
H135	H	0.512983	1.417927	-0.381038
C136	C	0.442584	0.695310	-0.213240
C137	C	0.487028	0.745517	-0.250246
H138	H	0.401137	0.719177	-0.254680
H139	H	0.417502	0.729369	-0.183085
H140	H	0.478972	0.603328	-0.176868
H141	H	0.450640	0.837499	-0.286615
H142	H	0.512110	0.711463	-0.280415
H143	H	0.815775	1.417862	-0.224276
C144	C	1.228700	0.271304	0.585410
C145	C	1.252203	0.303353	0.514875
H146	H	1.276568	0.206071	0.633260
H147	H	1.196809	0.239774	0.585414
H148	H	1.196793	0.346331	0.585399
H149	H	1.284104	0.228327	0.514883
H150	H	1.284106	0.334879	0.514872
C151	C	0.655804	1.309738	-0.304831
C152	C	0.646721	1.404252	-0.383282
H153	H	0.626459	1.277179	-0.310232
H154	H	0.634500	1.347257	-0.275536
H155	H	0.712614	1.240670	-0.275527
H156	H	0.589911	1.473325	-0.412584
H157	H	0.668021	1.366734	-0.412589
C158	C	0.586509	0.427500	0.388115
C159	C	0.646737	0.404268	0.350203
H160	H	0.557227	0.394827	0.382762
H161	H	0.549218	0.518269	0.362380
H162	H	0.612238	0.385139	0.444921
H163	H	0.621007	0.446638	0.293396
H164	H	0.684033	0.313482	0.375937
C165	C	0.412999	0.767051	-0.011522
C166	C	0.334625	0.873538	-0.070045
H167	H	0.445242	0.723764	-0.034613
H168	H	0.407738	0.708785	0.035665
H169	H	0.439175	0.796394	0.004062
H170	H	0.308447	0.844194	-0.085625
H171	H	0.339883	0.931814	-0.117246
C172	C	0.785599	0.150063	0.129733
C173	C	0.859574	0.136773	0.122253
H174	H	0.785603	0.084805	0.129744
H175	H	0.740489	0.233308	0.084621
H176	H	0.780543	0.141068	0.179917
H177	H	0.864627	0.145778	0.072066
H178	H	0.904696	0.053508	0.167369
C179	C	0.974894	-0.014046	0.237556
C180	C	0.987787	0.062920	0.250454
H181	H	1.016341	-0.103174	0.279005
H182	H	0.977430	0.004406	0.184843
H183	H	0.922170	0.004419	0.240086
H184	H	1.040508	0.044461	0.247918
H185	H	0.985258	0.044459	0.303180
H186	H	1.089788	0.417953	0.509168
C187	C	0.938625	0.936588	-0.500179
C188	C	0.903972	0.873434	-0.500682
H189	H	0.993439	0.893246	-0.500726
H190	H	0.939300	0.935379	-0.451894
H191	H	0.906641	1.023967	-0.547586
H192	H	0.935952	0.786057	-0.453272
H193	H	0.903301	0.874630	-0.548972
C194	C	0.947425	0.543552	0.467239
C195	C	0.939466	0.606066	0.383489
H196	H	0.894194	0.576150	0.472627
H197	H	0.976722	0.559331	0.492942
H198	H	0.976747	0.452776	0.492944
H199	H	0.910150	0.696841	0.357786
H200	H	0.910157	0.590296	0.357776
C201	C	0.145756	1.700719	-0.081479
C202	C	0.205967	1.606171	-0.090607
H203	H	0.092513	1.733345	-0.110774
H204	H	0.151951	1.769726	-0.102809
H205	H	0.151964	1.663198	-0.024661
H206	H	0.199763	1.643695	-0.147425
H207	H	0.199770	1.537152	-0.069280
H208	H	0.321226	0.891744	0.143610
C209	C	1.228624	0.271228	-0.046911
C210	C	1.252169	0.303254	0.000117
H211	H	1.276475	0.205963	-0.046906
H212	H	1.196729	0.346243	-0.101922
H213	H	1.196711	0.239737	-0.023788
H214	H	1.284077	0.334755	-0.023009
H215	H	1.284078	0.228224	0.055139
H216	H	0.228347	1.592374	-0.352252
H217	H	0.356255	1.418003	-0.078299
H218	H	0.242731	1.679686	0.000047
H219	H	0.659027	0.592399	0.224496
C220	C	0.607761	0.860229	-0.048077
C221	C	0.615231	0.873518	-0.122053
H222	H	0.607749	0.925488	-0.048080
H223	H	0.652881	0.776984	-0.002975
H224	H	0.557578	0.869224	-0.043014
H225	H	0.665417	0.864514	-0.127112
H226	H	0.570108	0.956783	-0.167167
H227	H	0.385078	1.592412	0.078408
C228	C	0.391925	1.270450	-0.158786
C229	C	0.354031	1.404251	-0.201979
H230	H	0.386531	1.237855	-0.105560
H231	H	0.448735	1.228045	-0.153398
H232	H	0.366197	1.254712	-0.188102
H233	H	0.379764	1.419989	-0.172666
H234	H	0.297210	1.446669	-0.207362
H235	H	0.153589	1.118681	0.060378
C236	C	0.806310	1.136975	-0.428568
C237	C	0.807414	1.136729	-0.499005
H238	H	0.829363	1.180255	-0.427969
H239	H	0.837793	1.050053	-0.380671
H240	H	0.751020	1.180806	-0.429303
H241	H	0.862705	1.092890	-0.498267
H242	H	0.775932	1.223667	-0.546915
C243	C	0.865986	1.543458	-0.266168
C244	C	0.828106	1.605950	-0.349921
H245	H	0.895287	1.576080	-0.260772
H246	H	0.903257	1.452693	-0.240455
H247	H	0.825099	1.559241	-0.240480
H248	H	0.868994	1.590159	-0.375608
H249	H	0.790832	1.696736	-0.375644
C250	C	0.818585	1.660376	-0.514587
C251	C	0.737471	1.706877	-0.514618
H252	H	0.818595	1.725622	-0.562430
H253	H	0.841692	1.585378	-0.514595
H254	H	0.850476	1.638614	-0.466719
H255	H	0.705581	1.728631	-0.562484
H256	H	0.714353	1.781899	-0.514618
C257	C	1.041389	0.129184	0.304057
C258	C	0.987778	0.264770	0.250452
H259	H	1.082833	0.105305	0.345506
H260	H	1.066474	0.095148	0.273892
H261	H	1.011218	0.095149	0.329138
H262	H	1.017948	0.298804	0.225366
H263	H	0.962692	0.298820	0.280621
C264	C	0.896256	0.582820	-0.035596
C265	C	0.939450	0.606053	-0.090540
H266	H	0.843023	0.615443	-0.064913
H267	H	0.890880	0.625214	-0.009882
H268	H	0.925569	0.492042	0.005262
H269	H	0.910140	0.696832	-0.131394
H270	H	0.944823	0.563662	-0.116267
C271	C	1.329047	0.309594	0.081662
C272	C	1.268837	0.404147	0.090787
H273	H	1.382291	0.276936	0.110981
H274	H	1.322858	0.347112	0.024855
H275	H	1.322835	0.240597	0.102977
H276	H	1.275045	0.473148	0.069467
H277	H	1.275029	0.366629	0.147606
C278	C	1.204565	0.543456	0.128710
C279	C	1.120808	0.605989	0.090804
H280	H	1.209958	0.576049	0.158035
H281	H	1.230268	0.559225	0.087846
H282	H	1.230267	0.452683	0.165969
H283	H	1.095107	0.696762	0.053540
H284	H	1.095094	0.590230	0.131673
C285	C	0.899521	0.720712	-0.307734
C286	C	0.833932	0.741739	-0.354266
H287	H	0.931261	0.634038	-0.259531
H288	H	0.878408	0.779445	-0.292379
H289	H	0.933382	0.734371	-0.339734
H290	H	0.800067	0.728089	-0.322268
H291	H	0.855045	0.682988	-0.369620
C292	C	1.042303	0.700611	0.141933
C293	C	1.120767	0.606072	0.202169
H294	H	1.047689	0.733219	0.088704
H295	H	1.013002	0.769631	0.148117
H296	H	1.013009	0.663088	0.148120
H297	H	1.150058	0.643597	0.195986
H298	H	1.150080	0.537040	0.195982
H299	H	0.859543	0.513087	0.122236
C300	C	0.655922	1.700547	-0.591500
C301	C	0.646787	1.606015	-0.531297
H302	H	0.626607	1.733198	-0.644742
H303	H	0.712734	1.663012	-0.585303
H304	H	0.634605	1.769551	-0.585292
H305	H	0.668109	1.537005	-0.537502
H306	H	0.589963	1.643548	-0.537497
H307	H	0.196276	1.232171	-0.083221
H308	H	0.153556	1.118653	-0.143474
H309	H	0.677082	0.891647	-0.500492
C310	C	0.332713	0.676756	0.177760
C311	C	0.285232	0.741577	0.096690
H312	H	0.348226	0.590003	0.209547
H313	H	0.301298	0.720243	0.201072
H314	H	0.380824	0.676043	0.177641
H315	H	0.237118	0.742299	0.096809
H316	H	0.316647	0.698078	0.073372
H317	H	0.654035	1.232293	-0.625194
C318	C	0.571537	1.136065	-0.428423
C319	C	0.570727	1.136762	-0.499210
H320	H	0.516694	1.179354	-0.427933
H321	H	0.594803	1.179447	-0.428575
H322	H	0.603654	1.048918	-0.380752
H323	H	0.538615	1.223910	-0.546881
H324	H	0.547450	1.093383	-0.499065
C325	C	1.260855	0.466742	0.266440
C326	C	1.268812	0.404255	0.350189
H327	H	1.314087	0.434110	0.261054
H328	H	1.231552	0.557506	0.240728
H329	H	1.231540	0.450968	0.240743
H330	H	1.298122	0.420036	0.375885
H331	H	1.298127	0.313469	0.375912
C332	C	0.818935	0.700673	0.304980
C333	C	0.828041	0.606148	0.383438
H334	H	0.848246	0.733287	0.310367
H335	H	0.762126	0.769692	0.275675
H336	H	0.840272	0.663136	0.275693
H337	H	0.806698	0.643687	0.412723
H338	H	0.884861	0.537117	0.412756
C339	C	0.349251	1.582819	-0.574467
C340	C	0.387214	1.606096	-0.531354
H341	H	0.354564	1.615451	-0.627727
H342	H	0.292461	1.625179	-0.579773
H343	H	0.374994	1.492034	-0.545145
H344	H	0.361466	1.696882	-0.560673
H345	H	0.444015	1.563739	-0.526051
C346	C	1.003710	0.466719	-0.128428
C347	C	1.087467	0.404212	-0.090539
H348	H	0.998318	0.434092	-0.157728
H349	H	0.978001	0.557481	-0.165699
H350	H	0.978013	0.450956	-0.087550
H351	H	1.113163	0.419984	-0.131418
H352	H	1.113187	0.313429	-0.053266
H353	H	0.737380	0.330824	0.494766
C354	C	0.527411	1.466784	0.128616
C355	C	0.535354	1.404259	0.090724
H356	H	0.580647	1.434166	0.157923
H357	H	0.498105	1.451036	0.165881
H358	H	0.498104	1.557555	0.087738
H359	H	0.564655	1.313489	0.131603
H360	H	0.564672	1.419997	0.053457
