data_functionalizedCrystal
_audit_creation_method	'MofGen! by Chris Wilmer'
_symmetry_space_group_name_H-M	'P1'
_symmetry_Int_Tables_number	1
_symmetry_cell_setting	triclinic
loop_
_symmetry_equiv_pos_as_xyz
  x,y,z
_cell_length_a	25.639239
_cell_length_b	17.077404
_cell_length_c	17.077396
_cell_angle_alpha	90.023219
_cell_angle_beta	89.968371
_cell_angle_gamma	89.964302
loop_
_atom_site_label
_atom_site_type_symbol
_atom_site_fract_x
_atom_site_fract_y
_atom_site_fract_z
Zn1	Zn	-0.208201	-1.199965	-0.443903
Zn2	Zn	-0.295638	-1.199835	-0.312630
Zn3	Zn	-0.208213	-1.068697	-0.312643
Zn4	Zn	-0.295602	-1.068627	-0.443845
O5	O	-0.251914	-1.134281	-0.378255
O6	O	-0.219810	-1.309795	-0.426509
O7	O	-0.284062	-1.182413	-0.202785
O8	O	-0.135046	-1.086194	-0.330084
O9	O	-0.284050	-1.309699	-0.330063
O10	O	-0.135037	-1.182636	-0.426521
O11	O	-0.219831	-1.086067	-0.202794
O12	O	-0.219795	-0.958841	-0.330028
O13	O	-0.283987	-1.086075	-0.553700
O14	O	-0.283999	-0.958790	-0.426422
O15	O	-0.219774	-1.182568	-0.553743
O16	O	-0.368799	-1.182346	-0.330006
O17	O	-0.368772	-1.085949	-0.426410
C18	C	-0.251895	-0.930333	-0.378220
C19	C	-0.251900	-0.843083	-0.378224
C20	C	-0.218524	-0.467316	-0.428563
C21	C	-0.218522	-0.549296	-0.428557
C22	C	-0.251913	-0.590234	-0.378258
C23	C	-0.285312	-0.549188	-0.327968
C24	C	-0.285316	-0.467209	-0.327979
C25	C	-0.285300	-0.720058	-0.327948
C26	C	-0.285295	-0.802043	-0.327936
C27	C	-0.218506	-0.802145	-0.428526
C28	C	-0.218510	-0.720166	-0.428537
C29	C	-0.251908	-0.679125	-0.378245
C30	C	-0.387756	-1.134147	-0.378217
C31	C	-0.445870	-1.134161	-0.378227
C32	C	-0.697062	-1.084077	-0.428437
C33	C	-0.642458	-1.084048	-0.428427
O34	O	-0.614220	-1.041336	-0.471091
N35	N	-0.615144	-1.134260	-0.378268
C36	C	-0.642438	-1.184510	-0.328121
O37	O	-0.614191	-1.227217	-0.285457
C38	C	-0.697041	-1.184542	-0.328135
C39	C	-0.724352	-1.134322	-0.378291
C40	C	-0.724373	-1.033861	-0.478590
C41	C	-0.778973	-1.033890	-0.478597
C42	C	-0.806263	-1.084134	-0.428452
C43	C	-0.778952	-1.134350	-0.378299
C44	C	-0.724333	-1.234795	-0.277992
C45	C	-0.778940	-1.234824	-0.278010
C46	C	-0.806251	-1.184603	-0.328167
C47	C	-0.860842	-1.184622	-0.328162
N48	N	-0.888156	-1.134411	-0.378321
C49	C	-0.860866	-1.084166	-0.428466
C50	C	-0.527767	-1.184439	-0.328097
C51	C	-0.473165	-1.184403	-0.328079
C52	C	-0.473188	-1.083942	-0.428387
C53	C	-0.527792	-1.083975	-0.428400
C54	C	-0.555081	-1.134227	-0.378256
C55	C	-0.975531	-1.084229	-0.428478
C56	C	-1.030137	-1.084259	-0.428479
C57	C	-1.030108	-1.184723	-0.328175
C58	C	-0.975508	-1.184690	-0.328171
C59	C	-0.948220	-1.134440	-0.378329
O60	O	-0.889115	-1.227315	-0.285523
O61	O	-0.889119	-1.041474	-0.471130
C62	C	-0.115540	-1.134437	-0.378311
C63	C	-0.057426	-1.134504	-0.378334
C64	C	-0.251875	-1.134329	-0.583000
C65	C	-0.251859	-1.134349	-0.670250
C66	C	-0.251927	-0.339025	-0.378283
C67	C	-0.251919	-0.426275	-0.378275
C68	C	-0.218420	-1.184595	-0.711263
C69	C	-0.218403	-1.184604	-0.793244
C70	C	-0.251827	-1.134371	-0.834209
C71	C	-0.285267	-1.084120	-0.793190
C72	C	-0.285281	-1.084107	-0.711211
C73	C	-0.285235	-1.084151	-0.964060
C74	C	-0.285222	-1.084165	-1.046044
C75	C	-0.218357	-1.184649	-1.046093
C76	C	-0.218371	-1.184636	-0.964114
C77	C	-0.251812	-1.134385	-0.923100
C78	C	-0.251914	-1.134279	-0.174308
C79	C	-0.251783	-1.134411	-0.087058
H80	H	-0.191311	-0.835565	-0.469474
H81	H	-0.312486	-0.835372	-0.286981
C82	C	-0.322034	-1.028868	-0.838255
C83	C	-0.363074	-1.062854	-0.894601
C84	C	-0.399845	-1.007605	-0.939668
C85	C	-0.395575	-0.918370	-0.928389
C86	C	-0.354533	-0.884378	-0.872041
C87	C	-0.317763	-0.939627	-0.826974
H88	H	-0.366237	-1.128916	-0.902952
H89	H	-0.430226	-1.032769	-0.981380
H90	H	-0.422794	-0.877471	-0.961750
H91	H	-0.351371	-0.818317	-0.863689
H92	H	-0.287381	-0.914464	-0.785261
C93	C	-0.322065	-1.028840	-0.666089
C94	C	-0.317790	-0.939609	-0.677338
C95	C	-0.354573	-0.884339	-0.632216
C96	C	-0.395632	-0.918299	-0.575845
C97	C	-0.399909	-1.007534	-0.564593
C98	C	-0.363126	-1.062804	-0.609715
H99	H	-0.287394	-0.914466	-0.719070
H100	H	-0.351406	-0.818281	-0.640546
H101	H	-0.422861	-0.877384	-0.542443
H102	H	-0.430304	-1.032677	-0.522861
H103	H	-0.366292	-1.128862	-0.601386
C104	C	-0.181780	-0.675137	-0.483867
C105	C	-0.186126	-0.686452	-0.573090
C106	C	-0.149397	-0.641424	-0.628425
C107	C	-0.108321	-0.585081	-0.594536
C108	C	-0.103972	-0.573763	-0.505308
C109	C	-0.140702	-0.618791	-0.449974
H110	H	-0.216535	-0.728163	-0.598181
H111	H	-0.152616	-0.649803	-0.694477
H112	H	-0.081131	-0.551748	-0.635498
H113	H	-0.073564	-0.532052	-0.480218
H114	H	-0.137483	-0.610412	-0.383922
C115	C	-0.808957	-1.290102	-0.222846
C116	C	-0.846438	-1.351734	-0.256925
C117	C	-0.876453	-1.407009	-0.201760
C118	C	-0.868986	-1.400653	-0.112517
C119	C	-0.831502	-1.339018	-0.078433
C120	C	-0.801488	-1.283743	-0.133598
H121	H	-0.851967	-1.356441	-0.322993
H122	H	-0.904201	-1.452635	-0.226992
H123	H	-0.891204	-1.441571	-0.071680
H124	H	-0.825973	-1.334311	-0.012365
H125	H	-0.773740	-1.238117	-0.108366
H126	H	-0.191330	-0.433990	-0.469517
H127	H	-0.312437	-1.043259	-1.079396
C128	C	-0.322036	-0.674910	-0.272626
C129	C	-0.317686	-0.686136	-0.183400
C130	C	-0.354418	-0.640986	-0.128076
C131	C	-0.395500	-0.584611	-0.161978
C132	C	-0.399851	-0.573382	-0.251208
C133	C	-0.363119	-0.618532	-0.306532
H134	H	-0.287273	-0.727870	-0.158300
H135	H	-0.351196	-0.649298	-0.062021
H136	H	-0.422691	-0.551188	-0.121023
H137	H	-0.430264	-0.531648	-0.276308
H138	H	-0.366341	-0.610219	-0.372587
C139	C	-0.322050	-0.422060	-0.272659
C140	C	-0.317705	-0.433283	-0.183433
C141	C	-0.354442	-0.388135	-0.128115
C142	C	-0.395523	-0.331763	-0.162023
C143	C	-0.399870	-0.320537	-0.251255
C144	C	-0.363133	-0.365686	-0.306573
H145	H	-0.287292	-0.475015	-0.158327
H146	H	-0.351224	-0.396445	-0.062060
H147	H	-0.422718	-0.298342	-0.121074
H148	H	-0.430283	-0.278806	-0.276360
H149	H	-0.366351	-0.357375	-0.372628
H150	H	-0.191175	-1.225521	-0.826633
C151	C	-1.060133	-1.239988	-0.273016
C152	C	-1.030099	-1.295229	-0.217841
C153	C	-1.060126	-1.350498	-0.162685
C154	C	-1.120187	-1.350526	-0.162703
C155	C	-1.150225	-1.295283	-0.217880
C156	C	-1.120198	-1.240014	-0.273036
H157	H	-0.985635	-1.295211	-0.217826
H158	H	-1.037889	-1.391393	-0.121840
H159	H	-1.142415	-1.391440	-0.121873
H160	H	-1.194689	-1.295302	-0.217895
H161	H	-1.142435	-1.199119	-0.313882
H162	H	-0.312458	-1.043220	-0.930669
C163	C	-0.694299	-1.290040	-0.222820
C164	C	-0.656705	-1.351630	-0.256886
C165	C	-0.626670	-1.406877	-0.201712
C166	C	-0.634229	-1.400535	-0.112471
C167	C	-0.671824	-1.338942	-0.078400
C168	C	-0.701859	-1.283695	-0.133575
H169	H	-0.651108	-1.356327	-0.322952
H170	H	-0.598840	-1.452472	-0.226934
H171	H	-0.611995	-1.441432	-0.071627
H172	H	-0.677421	-1.334244	-0.012334
H173	H	-0.729689	-1.238100	-0.108353
C174	C	-1.060177	-1.029016	-0.483657
C175	C	-1.052726	-0.939779	-0.477166
C176	C	-1.082764	-0.884538	-0.532343
C177	C	-1.120254	-0.918534	-0.594012
C178	C	-1.127707	-1.007775	-0.600506
C179	C	-1.097669	-1.063016	-0.545329
H180	H	-1.024972	-0.914609	-0.431512
H181	H	-1.077247	-0.818476	-0.527535
H182	H	-1.142490	-0.877641	-0.634857
H183	H	-1.155460	-1.032944	-0.646160
H184	H	-1.103186	-1.129078	-0.550137
C185	C	-0.945521	-1.028950	-0.483646
C186	C	-0.953096	-0.939723	-0.477143
C187	C	-0.923086	-0.884441	-0.532306
C188	C	-0.885499	-0.918385	-0.593971
C189	C	-0.877922	-1.007616	-0.600476
C190	C	-0.907933	-1.062899	-0.545314
H191	H	-0.980922	-0.914592	-0.431493
H192	H	-0.928695	-0.818385	-0.527489
H193	H	-0.863283	-0.877461	-0.634805
H194	H	-0.850097	-1.032748	-0.646127
H195	H	-0.902323	-1.128954	-0.550130
C196	C	-0.694361	-0.978584	-0.533754
C197	C	-0.701943	-0.889359	-0.527253
C198	C	-0.671936	-0.834072	-0.582418
C199	C	-0.634348	-0.868012	-0.644082
C200	C	-0.626764	-0.957243	-0.650585
C201	C	-0.656771	-1.012529	-0.595421
H202	H	-0.729770	-0.864230	-0.481603
H203	H	-0.677550	-0.768018	-0.577603
H204	H	-0.612135	-0.827086	-0.684918
H205	H	-0.598937	-0.982371	-0.696235
H206	H	-0.651157	-1.078584	-0.600236
H207	H	-0.801205	-0.992994	-0.519439
C208	C	-0.181652	-1.239853	-0.666205
C209	C	-0.122212	-1.233514	-0.677500
C210	C	-0.085442	-1.288771	-0.632444
C211	C	-0.108112	-1.350367	-0.576092
C212	C	-0.167555	-1.356709	-0.564795
C213	C	-0.204325	-1.301451	-0.609851
H214	H	-0.105428	-1.187914	-0.719217
H215	H	-0.041438	-1.284077	-0.640807
H216	H	-0.080892	-1.391272	-0.542739
H217	H	-0.184339	-1.402308	-0.523078
H218	H	-0.248329	-1.306146	-0.601487
H219	H	-0.550025	-1.043085	-0.469246
H220	H	-0.953271	-1.225576	-0.287321
H221	H	-0.191127	-1.225563	-1.079490
H222	H	-0.191157	-1.225544	-0.930762
H223	H	-0.312501	-0.582526	-0.287017
H224	H	-0.191330	-0.582708	-0.469509
H225	H	-0.450959	-1.043032	-0.469219
H226	H	-0.450932	-1.225289	-0.287228
H227	H	-0.549982	-1.225359	-0.287257
