data_functionalizedCrystal
_audit_creation_method	'MofGen! by Chris Wilmer'
_symmetry_space_group_name_H-M	'P1'
_symmetry_Int_Tables_number	1
_symmetry_cell_setting	triclinic
loop_
_symmetry_equiv_pos_as_xyz
  x,y,z
_cell_length_a	19.188933
_cell_length_b	19.188924
_cell_length_c	13.101039
_cell_angle_alpha	93.348752
_cell_angle_beta	86.655175
_cell_angle_gamma	83.143767
loop_
_atom_site_label
_atom_site_type_symbol
_atom_site_fract_x
_atom_site_fract_y
_atom_site_fract_z
O1	O	0.929993	0.083310	-0.085185
O2	O	0.726682	0.095043	-0.085195
O3	O	0.834207	-0.012479	-0.085177
O4	O	0.822469	0.190832	-0.085202
O5	O	0.826492	-0.004752	0.085251
O6	O	0.718967	0.102770	0.085234
O7	O	0.922278	0.091038	0.085244
Zn8	Zn	0.819398	0.098131	0.112298
Zn9	Zn	0.829563	0.087950	-0.112249
O10	O	0.814754	0.198559	0.085226
C11	C	0.696814	0.098526	0.000018
C12	C	0.619310	0.097385	0.000015
C13	C	0.070259	0.085028	-0.092874
C14	C	0.143084	0.086096	-0.092878
C15	C	0.175295	0.090845	0.000022
C16	C	0.134679	0.094509	0.092934
C17	C	0.061857	0.093434	0.092935
N18	N	0.281184	0.135399	0.069167
N19	N	0.350362	0.136422	0.069160
C20	C	0.394704	0.094083	0.000024
N21	N	0.367254	0.050692	-0.069120
N22	N	0.298069	0.049672	-0.069115
C23	C	0.254258	0.092011	0.000031
C24	C	0.514277	0.091573	-0.092886
C25	C	0.587103	0.092637	-0.092886
C26	C	0.578695	0.101057	0.092928
C27	C	0.505872	0.099986	0.092925
C28	C	0.473666	0.095247	0.000016
C29	C	0.829970	-0.034626	0.000038
C30	C	0.828831	-0.112131	0.000040
C31	C	0.832505	-0.152742	-0.092860
C32	C	0.831425	-0.225565	-0.092868
C33	C	0.826686	-0.257776	0.000030
C34	C	0.823008	-0.217155	0.092943
C35	C	0.824080	-0.144332	0.092948
N36	N	0.861604	-0.374304	0.069174
N37	N	0.860586	-0.443483	0.069163
C38	C	0.823452	-0.477185	0.000020
N39	N	0.787383	-0.439098	-0.069127
N40	N	0.788404	-0.369913	-0.069118
C41	C	0.825522	-0.336739	0.000035
C42	C	0.825955	-0.596760	-0.092896
C43	C	0.824871	-0.669583	-0.092900
C44	C	0.816460	-0.661173	0.092914
C45	C	0.817537	-0.588350	0.092916
C46	C	0.822288	-0.556148	0.000008
C47	C	0.952147	0.087554	0.000028
C48	C	1.029651	0.088695	0.000025
C49	C	0.818991	0.220707	0.000009
C50	C	0.820130	0.298211	-0.000000
N51	N	0.812466	0.105079	0.265545
N52	N	0.836500	0.080996	-0.265496
C53	C	0.803035	0.114538	0.474586
C54	C	0.845929	0.071539	0.525469
C55	C	0.840681	0.076803	0.641787
C56	C	0.808282	0.109275	0.358258
H57	H	0.472808	0.102975	0.168574
H58	H	0.886593	0.030775	0.481673
N59	N	0.835174	-0.267068	-0.187760
N60	N	0.786311	-0.302057	-0.208497
H61	H	0.788958	-0.331368	-0.275514
N62	N	0.167579	0.099384	0.187826
N63	N	0.150042	0.151292	0.250019
H64	H	0.173279	0.154736	0.317039
N65	N	0.818160	-0.250064	0.187828
N66	N	0.817203	-0.315084	0.187812
H67	H	0.813776	-0.338326	0.254827
H68	H	0.028793	0.096423	0.168587
H69	H	0.762374	0.155300	0.518377
H70	H	0.044043	0.081166	-0.168528
N71	N	0.828615	-0.711058	-0.187811
N72	N	0.832854	-0.682293	-0.270750
H73	H	0.835498	-0.711585	-0.337784
N74	N	0.184564	0.082346	-0.187785
N75	N	0.155801	0.078111	-0.270730
H76	H	0.185095	0.075462	-0.337760
H77	H	0.836371	-0.126528	-0.168513
N78	N	0.481386	0.086727	-0.187795
N79	N	0.517657	0.083445	-0.270737
H80	H	0.494431	0.080021	-0.337769
H81	H	0.812595	-0.687397	0.168554
H82	H	0.604922	0.104921	0.168569
N83	N	0.628576	0.088881	-0.187795
N84	N	0.599809	0.084648	-0.270737
H85	H	0.629100	0.081995	-0.337769
N86	N	0.830805	-0.563848	-0.187783
N87	N	0.881548	-0.530739	-0.208504
H88	H	0.884973	-0.507494	-0.275517
N89	N	0.820323	-0.102855	0.187858
N90	N	0.816085	-0.131618	0.270799
H91	H	0.813432	-0.102324	0.337832
N92	N	0.813786	-0.546873	0.187822
N93	N	0.809551	-0.575638	0.270762
H94	H	0.806899	-0.546345	0.337796
