data_functionalizedCrystal
_audit_creation_method	'MofGen! by Chris Wilmer'
_symmetry_space_group_name_H-M	'P1'
_symmetry_Int_Tables_number	1
_symmetry_cell_setting	triclinic
loop_
_symmetry_equiv_pos_as_xyz
  x,y,z
_cell_length_a	12.759401
_cell_length_b	13.897448
_cell_length_c	13.897449
_cell_angle_alpha	90.010270
_cell_angle_beta	90.004194
_cell_angle_gamma	90.016778
loop_
_atom_site_label
_atom_site_type_symbol
_atom_site_fract_x
_atom_site_fract_y
_atom_site_fract_z
Zn1	Zn	1.606083	-0.384201	0.545335
Zn2	Zn	1.606012	-0.545466	0.384036
Zn3	Zn	1.430429	-0.384184	0.384058
Zn4	Zn	1.430364	-0.545453	0.545294
O5	O	1.518222	-0.464826	0.464681
O6	O	1.753094	-0.405606	0.523946
O7	O	1.582719	-0.524069	0.249058
O8	O	1.453787	-0.249204	0.405478
O9	O	1.753043	-0.524086	0.405441
O10	O	1.582838	-0.249217	0.523967
O11	O	1.453719	-0.405576	0.249074
O12	O	1.283400	-0.405564	0.405439
O13	O	1.453676	-0.524065	0.680281
O14	O	1.283352	-0.524048	0.523898
O15	O	1.582775	-0.405594	0.680311
O16	O	1.582656	-0.680446	0.405401
O17	O	1.453608	-0.680437	0.523876
C18	C	1.245255	-0.464804	0.464667
C19	C	1.128478	-0.464817	0.464683
C20	C	0.963906	-0.403258	0.526491
C21	C	1.073630	-0.403239	0.526485
C22	C	1.073596	-0.526425	0.402892
C23	C	0.963874	-0.526448	0.402904
C24	C	1.518145	-0.715440	0.464653
C25	C	1.518209	-0.822654	0.464673
C26	C	1.518319	-1.018949	0.464734
C27	C	1.518255	-0.909717	0.464703
C28	C	1.792255	-0.464849	0.464696
C29	C	1.909032	-0.464859	0.464702
C30	C	1.518226	-0.464830	0.716274
C31	C	1.518228	-0.464832	0.823488
C32	C	1.518328	-0.213233	0.464730
C33	C	1.518373	-0.106019	0.464751
C34	C	1.518201	-0.464836	1.019783
C35	C	1.518213	-0.464836	0.910550
C36	C	1.518208	-0.464842	1.214066
C37	C	1.518200	-0.464834	1.106853
H38	H	1.118262	-0.576566	0.352576
C39	C	0.903502	-0.594212	0.334930
C40	C	0.828076	-0.670021	0.376608
C41	C	0.767703	-0.737785	0.308642
C42	C	0.782757	-0.729738	0.198997
C43	C	0.858187	-0.653926	0.157314
C44	C	0.918559	-0.586162	0.225280
H45	H	0.816929	-0.675981	0.457779
H46	H	0.711865	-0.793906	0.339499
H47	H	0.738066	-0.779901	0.148684
H48	H	0.869333	-0.647966	0.076143
H49	H	0.974397	-0.530041	0.194422
H50	H	1.118304	-0.353079	0.576800
C51	C	0.903578	-0.335521	0.594474
C52	C	0.918684	-0.343567	0.704114
C53	C	0.858358	-0.275830	0.772101
C54	C	0.782926	-0.200046	0.730448
C55	C	0.767816	-0.191997	0.620802
C56	C	0.828142	-0.259734	0.552815
H57	H	0.974527	-0.399669	0.734953
H58	H	0.869544	-0.281789	0.853268
H59	H	0.738269	-0.149903	0.780776
H60	H	0.711974	-0.135895	0.589963
H61	H	0.816956	-0.253775	0.471648
