data_functionalizedCrystal
_audit_creation_method	'MofGen! by Chris Wilmer'
_symmetry_space_group_name_H-M	'P1'
_symmetry_Int_Tables_number	1
_symmetry_cell_setting	triclinic
loop_
_symmetry_equiv_pos_as_xyz
  x,y,z
_cell_length_a	15.995292
_cell_length_b	15.995350
_cell_length_c	9.730223
_cell_angle_alpha	90.000899
_cell_angle_beta	89.998623
_cell_angle_gamma	83.480495
loop_
_atom_site_label
_atom_site_type_symbol
_atom_site_fract_x
_atom_site_fract_y
_atom_site_fract_z
O1	O	1.111011	0.107691	-0.114320
O2	O	1.611011	0.607691	0.385680
O3	O	0.867229	0.121070	-0.114314
O4	O	1.367229	0.621070	0.385686
O5	O	0.995784	-0.007509	-0.114316
O6	O	1.495784	0.492491	0.385684
O7	O	0.982456	0.236269	-0.114318
O8	O	1.482456	0.736269	0.385682
O9	O	0.995783	-0.007505	0.114264
O10	O	1.495783	0.492495	0.614264
O11	O	0.867228	0.121073	0.114266
O12	O	1.367228	0.621073	0.614266
O13	O	1.111010	0.107694	0.114260
O14	O	1.611010	0.607694	0.614260
Zn15	Zn	0.989118	0.114384	0.150555
Zn16	Zn	1.489118	0.614384	0.650555
Zn17	Zn	0.989120	0.114380	-0.150609
Zn18	Zn	1.489120	0.614380	0.349391
O19	O	0.982455	0.236273	0.114262
O20	O	1.482455	0.736273	0.614262
C21	C	0.836033	0.120527	-0.000023
C22	C	1.336033	0.620527	0.499977
C23	C	0.743080	0.118894	-0.000021
C24	C	1.243080	0.618894	0.499979
C25	C	0.995232	-0.038702	-0.000029
C26	C	1.495232	0.461298	0.499971
C27	C	0.993580	-0.131652	-0.000036
C28	C	1.493580	0.368348	0.499964
C29	C	0.405341	0.112893	-0.000037
C30	C	0.905341	0.612893	0.499963
C31	C	0.428654	0.205697	-0.000548
C32	C	0.928654	0.705697	0.499452
C33	C	0.525329	0.207461	-0.000027
C34	C	1.025329	0.707461	0.499973
C35	C	0.572897	0.115871	-0.000030
C36	C	1.072897	0.615871	0.499970
C37	C	0.543795	0.069475	0.130496
C38	C	1.043795	0.569475	0.630496
C39	C	0.447004	0.068358	0.130600
C40	C	0.947004	0.568358	0.630600
C41	C	0.447150	0.066459	-0.129338
C42	C	0.947150	0.566459	0.370662
C43	C	0.543643	0.069898	-0.131057
C44	C	1.043643	0.569898	0.368943
C45	C	0.667593	0.117549	-0.000021
C46	C	1.167593	0.617549	0.499979
C47	C	0.310646	0.111212	-0.000036
C48	C	0.810646	0.611212	0.499964
C49	C	0.987648	-0.469398	-0.000032
C50	C	1.487648	0.030602	0.499968
C51	C	0.896094	-0.421945	-0.000542
C52	C	1.396094	0.078055	0.499458
C53	C	0.897746	-0.325255	-0.000027
C54	C	1.397746	0.174745	0.499973
C55	C	0.990591	-0.301838	-0.000035
C56	C	1.490591	0.198162	0.499965
C57	C	1.035748	-0.342923	0.130492
C58	C	1.535748	0.157077	0.630492
C59	C	1.033448	-0.439558	0.130601
C60	C	1.533448	0.060442	0.630601
C61	C	1.035341	-0.439921	-0.129337
C62	C	1.535341	0.060079	0.370663
C63	C	1.035319	-0.342975	-0.131062
C64	C	1.535319	0.157025	0.368938
C65	C	0.992259	-0.207141	-0.000032
C66	C	1.492259	0.292859	0.499968
C67	C	0.985983	-0.564095	-0.000025
C68	C	1.485983	-0.064095	0.499975
C69	C	1.142206	0.108237	-0.000034
C70	C	1.642206	0.608237	0.499966
C71	C	1.235159	0.109870	-0.000045
C72	C	1.735159	0.609870	0.499955
C73	C	0.983006	0.267466	-0.000029
C74	C	1.483006	0.767466	0.499971
C75	C	0.984658	0.360416	-0.000030
C76	C	1.484658	0.860416	0.499970
N77	N	0.989123	0.114386	0.356091
N78	N	1.489123	0.614386	0.856091
N79	N	0.989122	0.114371	-0.356145
N80	N	1.489122	0.614371	0.143855
C81	C	1.046062	0.057471	0.428016
C82	C	1.546062	0.557471	0.928016
C83	C	1.046060	0.057461	0.571899
C84	C	1.546060	0.557461	1.071899
C85	C	0.932178	0.171289	0.571919
C86	C	1.432178	0.671289	1.071919
C87	C	0.932176	0.171294	0.428039
C88	C	1.432176	0.671294	0.928039
C89	C	1.111813	-0.008244	0.428006
C90	C	1.611813	0.491756	0.928006
C91	C	1.111811	-0.008254	0.571889
C92	C	1.611811	0.491746	1.071889
H93	H	0.544356	0.243792	-0.093596
H94	H	1.044356	0.743792	0.406404
H95	H	0.432454	0.000313	0.136527
H96	H	0.932454	0.500313	0.636527
H97	H	1.091996	-0.068894	0.616506
H98	H	1.591996	0.431106	1.116506
H99	H	0.576613	0.003046	-0.138943
H100	H	1.076613	0.503046	0.361057
H101	H	0.400658	0.241467	-0.094155
H102	H	0.900658	0.741467	0.405845
H103	H	0.885805	0.217632	0.369479
H104	H	1.385805	0.717632	0.869479
H105	H	1.176036	0.005519	0.610938
H106	H	1.676036	0.505519	1.110938
H107	H	0.862249	-0.296827	-0.093593
H108	H	1.362249	0.203173	0.406407
H109	H	1.005408	-0.460455	-0.228268
H110	H	1.505408	0.039545	0.271732
H111	H	0.399634	0.241271	0.092532
H112	H	0.899634	0.741271	0.592532
H113	H	0.563853	0.101697	0.227636
H114	H	1.063853	0.601697	0.727636
H115	H	1.002303	-0.315721	-0.227622
H116	H	1.502303	0.184279	0.272378
H117	H	0.543732	0.244019	0.093698
H118	H	1.043732	0.744019	0.593698
H119	H	0.862010	-0.297381	0.093701
H120	H	1.362010	0.202619	0.593701
H121	H	0.562213	0.103679	-0.227620
H122	H	1.062213	0.603679	0.272380
H123	H	1.098077	-0.072478	0.388953
H124	H	1.598077	0.427522	0.888953
H125	H	1.100666	-0.471820	0.136518
H126	H	1.600666	0.028180	0.636518
H127	H	0.420186	0.100492	0.228173
H128	H	0.920186	0.600492	0.728173
H129	H	1.000518	-0.457852	0.228178
H130	H	1.500518	0.042148	0.728178
H131	H	0.418824	0.095465	-0.228270
H132	H	0.918824	0.595465	0.271730
H133	H	0.575663	0.002077	0.135348
H134	H	1.075663	0.502077	0.635348
H135	H	1.103025	-0.327628	-0.138949
H136	H	1.603025	0.172372	0.361051
H137	H	0.885812	0.217621	0.630515
H138	H	1.385812	0.717621	1.130515
H139	H	0.433157	-0.001851	-0.130223
H140	H	0.933157	0.498149	0.369777
H141	H	0.859501	-0.440470	-0.094145
H142	H	1.359501	0.059530	0.405855
H143	H	0.859662	-0.441530	0.092542
H144	H	1.359662	0.058470	0.592542
H145	H	1.102843	-0.471695	-0.130220
H146	H	1.602843	0.028305	0.369780
H147	H	1.103958	-0.328812	0.135340
H148	H	1.603958	0.171188	0.635340
H149	H	1.004383	-0.314534	0.227631
H150	H	1.504383	0.185466	0.727631
H151	H	1.172433	0.011608	0.383378
H152	H	1.672433	0.511608	0.883378
