data_functionalizedCrystal
_audit_creation_method	'MofGen! by Chris Wilmer'
_symmetry_space_group_name_H-M	'P1'
_symmetry_Int_Tables_number	1
_symmetry_cell_setting	triclinic
loop_
_symmetry_equiv_pos_as_xyz
  x,y,z
_cell_length_a	29.839134
_cell_length_b	21.395361
_cell_length_c	29.839125
_cell_angle_alpha	90.019046
_cell_angle_beta	89.978020
_cell_angle_gamma	89.974432
loop_
_atom_site_label
_atom_site_type_symbol
_atom_site_fract_x
_atom_site_fract_y
_atom_site_fract_z
Zn1	Zn	0.686753	0.249612	-0.254121
Zn2	Zn	1.020086	0.582946	0.079212
Zn3	Zn	1.353420	0.916279	0.412546
Zn4	Zn	0.686699	0.354368	-0.178989
Zn5	Zn	1.020033	0.687701	0.154344
Zn6	Zn	1.353366	1.021034	0.487678
Zn7	Zn	0.611636	0.249598	-0.178990
Zn8	Zn	0.944969	0.582932	0.154343
Zn9	Zn	1.278303	0.916265	0.487676
Zn10	Zn	0.611598	0.354347	-0.254077
Zn11	Zn	0.944931	0.687680	0.079256
Zn12	Zn	1.278264	1.021013	0.412589
O13	O	0.649171	0.301981	-0.216544
O14	O	0.982505	0.635315	0.116789
O15	O	1.315838	0.968648	0.450122
O16	O	0.749613	0.263523	-0.244172
O17	O	1.082946	0.596856	0.089161
O18	O	1.416280	0.930189	0.422495
O19	O	0.676735	0.340473	-0.116122
O20	O	1.010069	0.673806	0.217211
O21	O	1.343402	1.007139	0.550545
O22	O	0.621639	0.161922	-0.188975
O23	O	0.954972	0.495256	0.144358
O24	O	1.288305	0.828589	0.477691
O25	O	0.749573	0.340486	-0.188973
O26	O	1.082907	0.673819	0.144360
O27	O	1.416240	1.007153	0.477694
O28	O	0.676827	0.161933	-0.244173
O29	O	1.010160	0.495266	0.089160
O30	O	1.343494	0.828599	0.422493
O31	O	0.621587	0.263499	-0.116123
O32	O	0.954920	0.596833	0.217210
O33	O	1.288253	0.930166	0.550544
O34	O	0.548764	0.263479	-0.188933
O35	O	0.882097	0.596812	0.144400
O36	O	1.215430	0.930146	0.477733
O37	O	0.621574	0.340450	-0.316950
O38	O	0.954907	0.673784	0.016383
O39	O	1.288240	1.007117	0.349716
O40	O	0.548736	0.340437	-0.244099
O41	O	0.882069	0.673770	0.089234
O42	O	1.215402	1.007104	0.422567
O43	O	0.676790	0.263502	-0.316982
O44	O	1.010123	0.596836	0.016351
O45	O	1.343457	0.930169	0.349684
O46	O	0.676698	0.442043	-0.188931
O47	O	1.010032	0.775376	0.144402
O48	O	1.343365	1.108709	0.477736
O49	O	0.621522	0.442027	-0.244098
O50	O	0.954855	0.775361	0.089235
O51	O	1.288188	1.108694	0.422569
C52	C	0.649112	0.464769	-0.216519
C53	C	0.982445	0.798102	0.116814
C54	C	1.315779	1.131436	0.450147
C55	C	0.649128	0.534410	-0.216524
C56	C	0.982461	0.867743	0.116810
C57	C	1.315795	1.201077	0.450143
C58	C	0.532449	0.301955	-0.216512
C59	C	0.865782	0.635288	0.116821
C60	C	1.199116	0.968621	0.450155
C61	C	0.482514	0.301958	-0.216509
C62	C	0.815848	0.635292	0.116825
C63	C	1.149181	0.968625	0.450158
C64	C	0.649184	0.301976	-0.333723
C65	C	0.982517	0.635309	-0.000389
C66	C	1.315850	0.968642	0.332944
C67	C	0.649189	0.301973	-0.383657
C68	C	0.982522	0.635307	-0.050324
C69	C	1.315855	0.968640	0.283009
C70	C	0.172866	0.342112	-0.245234
C71	C	0.506199	0.675446	0.088099
C72	C	0.839533	1.008779	0.421432
C73	C	-0.014807	0.342130	-0.245254
C74	C	0.318526	0.675463	0.088079
C75	C	0.651860	1.008797	0.421412
O76	O	-0.039076	0.376241	-0.269658
O77	O	0.294257	0.709574	0.063675
O78	O	0.627590	1.042908	0.397008
N79	N	-0.038271	0.302004	-0.216578
N80	N	0.295063	0.635338	0.116755
N81	N	0.628396	0.968671	0.450088
C82	C	-0.014813	0.261868	-0.187897
C83	C	0.318520	0.595201	0.145436
C84	C	0.651854	0.928535	0.478769
O85	O	-0.039076	0.227734	-0.163510
O86	O	0.294257	0.561068	0.169823
O87	O	0.627590	0.894401	0.503156
C88	C	0.172859	0.261848	-0.187880
C89	C	0.506193	0.595181	0.145453
C90	C	0.839526	0.928514	0.478787
C91	C	0.196320	0.301981	-0.216555
C92	C	0.529654	0.635314	0.116779
C93	C	0.862987	0.968647	0.450112
C94	C	0.196327	0.382242	-0.273907
C95	C	0.529660	0.715575	0.059426
C96	C	0.862994	1.048908	0.392760
C97	C	0.243242	0.382239	-0.273900
C98	C	0.576576	0.715573	0.059433
C99	C	0.909909	1.048906	0.392767
C100	C	0.266697	0.342108	-0.245220
C101	C	0.600030	0.675441	0.088113
C102	C	0.933363	1.008774	0.421446
C103	C	0.243236	0.301978	-0.216548
C104	C	0.576569	0.635312	0.116786
C105	C	0.909902	0.968645	0.450119
C106	C	0.196316	0.221709	-0.159202
C107	C	0.529649	0.555042	0.174132
C108	C	0.862983	0.888376	0.507465
C109	C	0.243237	0.221706	-0.159201
C110	C	0.576570	0.555040	0.174133
C111	C	0.909904	0.888373	0.507466
C112	C	0.266698	0.261839	-0.187875
C113	C	0.600031	0.595173	0.145458
C114	C	0.933365	0.928506	0.478791
C115	C	0.313606	0.261844	-0.187861
C116	C	0.646939	0.595178	0.145472
C117	C	0.980272	0.928511	0.478806
N118	N	0.337069	0.301970	-0.216537
N119	N	0.670402	0.635304	0.116796
N120	N	1.003736	0.968637	0.450130
C121	C	0.313615	0.342102	-0.245217
C122	C	0.646948	0.675435	0.088117
C123	C	0.980281	1.008769	0.421450
C124	C	-0.113344	0.261882	-0.187908
C125	C	0.219990	0.595216	0.145425
C126	C	0.553323	0.928549	0.478759
C127	C	-0.160261	0.261888	-0.187912
C128	C	0.173072	0.595222	0.145422
C129	C	0.506405	0.928555	0.478755
C130	C	-0.160252	0.342150	-0.245269
C131	C	0.173081	0.675483	0.088064
C132	C	0.506414	1.008816	0.421398
C133	C	-0.113334	0.342147	-0.245263
C134	C	0.220000	0.675480	0.088070
C135	C	0.553333	1.008813	0.421404
C136	C	-0.089880	0.302008	-0.216584
C137	C	0.243453	0.635342	0.116749
C138	C	0.576787	0.968675	0.450083
C139	C	0.412141	0.342094	-0.245199
C140	C	0.745474	0.675428	0.088134
C141	C	1.078807	1.008761	0.421467
C142	C	0.459060	0.342090	-0.245188
C143	C	0.792393	0.675423	0.088145
C144	C	1.125727	1.008757	0.421478
C145	C	0.459047	0.261827	-0.187833
C146	C	0.792380	0.595160	0.145501
C147	C	1.125714	0.928493	0.478834
C148	C	0.412131	0.261833	-0.187842
C149	C	0.745465	0.595166	0.145492
C150	C	1.078798	0.928499	0.478825
C151	C	0.388679	0.301969	-0.216529
C152	C	0.722013	0.635302	0.116805
C153	C	1.055346	0.968635	0.450138
O154	O	0.337904	0.227746	-0.163473
O155	O	0.671237	0.561080	0.169860
O156	O	1.004570	0.894413	0.503194
O157	O	0.337886	0.376221	-0.269607
O158	O	0.671219	0.709554	0.063726
O159	O	1.004553	1.042887	0.397060
C160	C	0.125950	0.342115	-0.245241
C161	C	0.459284	0.675448	0.088092
C162	C	0.792617	1.008782	0.421425
C163	C	0.102489	0.301986	-0.216569
C164	C	0.435823	0.635319	0.116765
C165	C	0.769156	0.968652	0.450098
C166	C	0.125944	0.261854	-0.187889
C167	C	0.459277	0.595187	0.145444
C168	C	0.792610	0.928521	0.478778
C169	C	0.055572	0.301991	-0.216572
C170	C	0.388905	0.635325	0.116761
C171	C	0.722238	0.968658	0.450094
C172	C	0.032117	0.342123	-0.245252
C173	C	0.365451	0.675456	0.088081
C174	C	0.698784	1.008790	0.421415
C175	C	0.055581	0.382249	-0.273928
C176	C	0.388914	0.715582	0.059405
C177	C	0.722247	1.048916	0.392739
C178	C	0.102496	0.382247	-0.273921
C179	C	0.435829	0.715580	0.059412
C180	C	0.769163	1.048913	0.392746
C181	C	0.102480	0.221728	-0.159213
C182	C	0.435814	0.555061	0.174120
C183	C	0.769147	0.888395	0.507454
C184	C	0.055565	0.221734	-0.159222
C185	C	0.388898	0.555068	0.174111
C186	C	0.722231	0.888401	0.507445
C187	C	0.032110	0.261866	-0.187902
C188	C	0.365444	0.595199	0.145432
C189	C	0.698777	0.928533	0.478765
C190	C	0.766350	0.302008	-0.216577
C191	C	1.099683	0.635342	0.116756
C192	C	1.433016	0.968675	0.450089
C193	C	0.816284	0.302020	-0.216591
C194	C	1.149618	0.635353	0.116742
C195	C	1.482951	0.968687	0.450075
C196	C	0.649243	0.138558	-0.216579
C197	C	0.982577	0.471891	0.116754
C198	C	1.315910	0.805225	0.450087
C199	C	0.649274	0.068917	-0.216594
C200	C	0.982607	0.402250	0.116739
C201	C	1.315940	0.735583	0.450072
C202	C	0.677884	0.567110	-0.187828
C203	C	1.011217	0.900444	0.145506
C204	C	1.344551	1.233777	0.478839
C205	C	0.677905	0.632546	-0.187838
C206	C	1.011238	0.965879	0.145496
C207	C	1.344571	1.299213	0.478829
C208	C	0.649162	0.665278	-0.216539
C209	C	0.982495	0.998612	0.116794
C210	C	1.315828	1.331945	0.450128
C211	C	0.620404	0.632570	-0.245241
C212	C	0.953737	0.965903	0.088092
C213	C	1.287070	1.299237	0.421426
C214	C	0.620387	0.567136	-0.245233
C215	C	0.953720	0.900469	0.088100
C216	C	1.287053	1.233803	0.421434
C217	C	0.608710	0.768989	-0.220053
C218	C	0.942044	1.102322	0.113280
C219	C	1.275377	1.435655	0.446614
C220	C	0.608726	0.834422	-0.220057
C221	C	0.942060	1.167755	0.113276
C222	C	1.275393	1.501088	0.446609
C223	C	0.649214	0.867099	-0.216566
C224	C	0.982547	1.200432	0.116768
C225	C	1.315881	1.533766	0.450101
C226	C	0.689687	0.834336	-0.213060
C227	C	1.023020	1.167669	0.120274
C228	C	1.356353	1.501002	0.453607
C229	C	0.689670	0.768901	-0.213052
C230	C	1.023003	1.102235	0.120281
C231	C	1.356336	1.435568	0.453615
C232	C	0.649177	0.736231	-0.216551
C233	C	0.982510	1.069564	0.116782
C234	C	1.315844	1.402897	0.450116
C235	C	0.677995	0.970752	-0.187879
C236	C	1.011328	1.304085	0.145455
C237	C	1.344662	1.637419	0.478788
C238	C	0.678017	1.036189	-0.187892
C239	C	1.011350	1.369522	0.145441
C240	C	1.344683	1.702855	0.478775
C241	C	0.620512	1.036212	-0.245293
C242	C	0.953845	1.369545	0.088041
C243	C	1.287178	1.702878	0.421374
C244	C	0.620494	0.970776	-0.245282
C245	C	0.953827	1.304110	0.088051
C246	C	1.287161	1.637443	0.421385
C247	C	0.649235	0.938050	-0.216573
C248	C	0.982568	1.271384	0.116761
C249	C	1.315902	1.604717	0.450094
C250	C	0.677970	0.261802	-0.693320
C251	C	1.011304	0.595135	-0.359987
C252	C	1.344637	0.928468	-0.026654
C253	C	0.677992	0.261748	-0.880994
C254	C	1.011326	0.595081	-0.547660
C255	C	1.344659	0.928415	-0.214327
O256	O	0.702430	0.227652	-0.905275
O257	O	1.035763	0.560985	-0.571942
O258	O	1.369097	0.894319	-0.238608
N259	N	0.649248	0.301805	-0.904443
N260	N	0.982582	0.635139	-0.571109
N261	N	1.315915	0.968472	-0.237776
C262	C	0.620495	0.341876	-0.880970
C263	C	0.953828	0.675209	-0.547637
C264	C	1.287161	1.008543	-0.214304
O265	O	0.596043	0.375941	-0.905222
O266	O	0.929376	0.709275	-0.571888
O267	O	1.262710	1.042608	-0.238555
C268	C	0.620470	0.341926	-0.693298
C269	C	0.953804	0.675259	-0.359965
C270	C	1.287137	1.008592	-0.026632
C271	C	0.649220	0.301870	-0.669852
C272	C	0.982553	0.635204	-0.336518
C273	C	1.315886	0.968537	-0.003185
C274	C	0.706717	0.221749	-0.669874
C275	C	1.040050	0.555082	-0.336540
C276	C	1.373383	0.888416	-0.003207
C277	C	0.706713	0.221765	-0.622958
C278	C	1.040046	0.555098	-0.289625
C279	C	1.373379	0.888432	0.043708
C280	C	0.677962	0.261834	-0.599489
C281	C	1.011295	0.595167	-0.266156
C282	C	1.344629	0.928501	0.067177
C283	C	0.649215	0.301887	-0.622936
C284	C	0.982549	0.635220	-0.289603
C285	C	1.315882	0.968553	0.043731
C286	C	0.591715	0.381993	-0.669827
C287	C	0.925048	0.715326	-0.336494
C288	C	1.258381	1.048659	-0.003160
C289	C	0.591710	0.382001	-0.622906
C290	C	0.925044	0.715334	-0.289573
C291	C	1.258377	1.048667	0.043761
C292	C	0.620459	0.341945	-0.599459
C293	C	0.953793	0.675278	-0.266126
C294	C	1.287126	1.008612	0.067207
C295	C	0.620461	0.341972	-0.552552
C296	C	0.953794	0.675305	-0.219218
C297	C	1.287127	1.008638	0.114115
N298	N	0.649205	0.301914	-0.529103
N299	N	0.982538	0.635248	-0.195769
N300	N	1.315871	0.968581	0.137564
C301	C	0.677955	0.261845	-0.552572
C302	C	1.011289	0.595179	-0.219238
C303	C	1.344622	0.928512	0.114095
C304	C	0.620510	0.341848	-0.979501
C305	C	0.953843	0.675181	-0.646168
C306	C	1.287177	1.008515	-0.312834
C307	C	0.620516	0.341836	-1.026419
C308	C	0.953850	0.675170	-0.693086
C309	C	1.287183	1.008503	-0.359752
C310	C	0.678014	0.261707	-1.026439
C311	C	1.011347	0.595041	-0.693105
C312	C	1.344681	0.928374	-0.359772
C313	C	0.678009	0.261723	-0.979520
C314	C	1.011343	0.595056	-0.646187
C315	C	1.344676	0.928389	-0.312853
C316	C	0.649254	0.301791	-0.956052
C317	C	0.982587	0.635124	-0.622719
C318	C	1.315921	0.968457	-0.289385
C319	C	0.677945	0.261883	-0.454046
C320	C	1.011278	0.595216	-0.120712
C321	C	1.344611	0.928549	0.212621
C322	C	0.677939	0.261904	-0.407126
C323	C	1.011273	0.595238	-0.073793
C324	C	1.344606	0.928571	0.259541
C325	C	0.620441	0.342031	-0.407110
C326	C	0.953774	0.675364	-0.073777
C327	C	1.287107	1.008697	0.259556
C328	C	0.620447	0.342012	-0.454026
C329	C	0.953781	0.675345	-0.120693
C330	C	1.287114	1.008678	0.212641
C331	C	0.649201	0.301933	-0.477492
C332	C	0.982534	0.635266	-0.144159
C333	C	1.315868	0.968599	0.189174
O334	O	0.596032	0.376045	-0.528241
O335	O	0.929366	0.709378	-0.194908
O336	O	1.262699	1.042711	0.138425
O337	O	0.702396	0.227775	-0.528312
O338	O	1.035729	0.561109	-0.194979
O339	O	1.369063	0.894442	0.138354
C340	C	0.677974	0.261785	-0.740236
C341	C	1.011308	0.595119	-0.406903
C342	C	1.344641	0.928452	-0.073569
C343	C	0.649228	0.301838	-0.763683
C344	C	0.982561	0.635171	-0.430349
C345	C	1.315894	0.968505	-0.097016
C346	C	0.620477	0.341907	-0.740214
C347	C	0.953810	0.675240	-0.406880
C348	C	1.287144	1.008574	-0.073547
C349	C	0.649234	0.301826	-0.810600
C350	C	0.982568	0.635160	-0.477267
C351	C	1.315901	0.968493	-0.143934
C352	C	0.677985	0.261758	-0.834069
C353	C	1.011318	0.595091	-0.500736
C354	C	1.344652	0.928424	-0.167403
C355	C	0.706729	0.221700	-0.810620
C356	C	1.040062	0.555034	-0.477287
C357	C	1.373396	0.888367	-0.143954
C358	C	0.706725	0.221717	-0.763705
C359	C	1.040058	0.555050	-0.430371
C360	C	1.373392	0.888383	-0.097038
C361	C	0.591733	0.381964	-0.763663
C362	C	0.925066	0.715297	-0.430329
C363	C	1.258400	1.048631	-0.096996
C364	C	0.591740	0.381945	-0.810578
C365	C	0.925073	0.715279	-0.477245
C366	C	1.258407	1.048612	-0.143912
C367	C	0.620491	0.341876	-0.834047
C368	C	0.953824	0.675210	-0.500714
C369	C	1.287157	1.008543	-0.167380
C370	C	0.649185	0.301942	-0.099822
C371	C	0.982519	0.635275	0.233511
C372	C	1.315852	0.968608	0.566845
C373	C	0.649267	0.301768	-0.049888
C374	C	0.982600	0.635101	0.283446
C375	C	1.315934	0.968434	0.616779
H376	H	0.478160	0.374773	-0.268539
H377	H	0.811493	0.708107	0.064794
H378	H	1.144827	1.041440	0.398128
C379	C	-0.087551	0.217728	-0.156354
C380	C	0.245783	0.551062	0.176980
C381	C	0.579116	0.884395	0.510313
N382	N	-0.068125	0.184474	-0.132585
N383	N	0.265208	0.517807	0.200748
N384	N	0.598541	0.851140	0.534082
H385	H	0.701357	0.229245	-0.473147
H386	H	1.034691	0.562578	-0.139813
H387	H	1.368024	0.895911	0.193520
H388	H	0.730135	0.189099	-0.744619
H389	H	1.063469	0.522432	-0.411285
H390	H	1.396802	0.855766	-0.077952
H391	H	0.568330	0.414569	-0.829665
H392	H	0.901663	0.747902	-0.496331
H393	H	1.234996	1.081236	-0.162998
H394	H	0.568304	0.414610	-0.688909
H395	H	0.901637	0.747943	-0.355576
H396	H	1.234970	1.081277	-0.022242
H397	H	0.730122	0.189147	-0.603872
H398	H	1.063456	0.522480	-0.270539
H399	H	1.396789	0.855813	0.062794
H400	H	0.568321	0.414595	-0.744559
H401	H	0.901654	0.747928	-0.411226
H402	H	1.234988	1.081261	-0.077893
C403	C	-0.186063	0.217743	-0.156365
C404	C	0.147270	0.551076	0.176969
C405	C	0.480603	0.884409	0.510302
N406	N	-0.205496	0.184487	-0.132605
N407	N	0.127838	0.517820	0.200729
N408	N	0.461171	0.851154	0.534062
C409	C	0.170519	0.177552	-0.127662
C410	C	0.503853	0.510885	0.205672
C411	C	0.837186	0.844218	0.539005
N412	N	0.151090	0.144287	-0.103906
N413	N	0.484423	0.477620	0.229427
N414	N	0.817757	0.810953	0.562761
H415	H	0.597034	0.374656	-0.387994
H416	H	0.930367	0.707989	-0.054660
H417	H	1.263701	1.041322	0.278673
H418	H	0.262330	0.189016	-0.135849
H419	H	0.595664	0.522350	0.197484
H420	H	0.928997	0.855683	0.530818
H421	H	0.393051	0.374775	-0.268560
H422	H	0.726385	0.708108	0.064773
H423	H	1.059718	1.041442	0.398107
C424	C	0.484856	0.217677	-0.156292
C425	C	0.818189	0.551010	0.177041
C426	C	1.151522	0.884343	0.510375
N427	N	0.504296	0.184417	-0.132539
N428	N	0.837630	0.517750	0.200794
N429	N	1.170963	0.851083	0.534127
H430	H	0.596970	0.540511	-0.268602
H431	H	0.930303	0.873844	0.064732
H432	H	1.263636	1.207177	0.398065
H433	H	0.121594	0.414927	-0.297271
H434	H	0.454927	0.748260	0.036062
H435	H	0.788261	1.081593	0.369396
H436	H	0.730129	0.189117	-0.688977
H437	H	1.063462	0.522450	-0.355644
H438	H	1.396796	0.855783	-0.022310
H439	H	0.597094	0.374480	-0.960398
H440	H	0.930428	0.707813	-0.627064
H441	H	1.263761	1.041147	-0.293731
H442	H	0.701399	0.944106	-0.164503
H443	H	1.034733	1.277439	0.168830
H444	H	1.368066	1.610772	0.502163
H445	H	0.730140	0.189077	-0.829737
H446	H	1.063474	0.522410	-0.496403
H447	H	1.396807	0.855744	-0.163070
C448	C	0.386324	0.217690	-0.156295
C449	C	0.719657	0.551023	0.177038
C450	C	1.052990	0.884356	0.510372
N451	N	0.366888	0.184436	-0.132536
N452	N	0.700221	0.517769	0.200797
N453	N	1.033555	0.851102	0.534130
H454	H	-0.094235	0.374826	-0.268613
H455	H	0.239099	0.708159	0.064720
H456	H	0.572432	1.041492	0.398054
H457	H	0.701288	0.540467	-0.164452
H458	H	1.034621	0.873800	0.168881
H459	H	1.367954	1.207134	0.502215
H460	H	0.262340	0.414919	-0.297251
H461	H	0.595674	0.748252	0.036083
H462	H	0.929007	1.081585	0.369416
C463	C	0.709652	1.072159	-0.156322
C464	C	1.042985	1.405492	0.177011
C465	C	1.376319	1.738826	0.510345
N466	N	0.733479	1.099252	-0.132542
N467	N	1.066813	1.432585	0.200792
N468	N	1.400146	1.765919	0.534125
C469	C	0.560077	0.426081	-0.597094
C470	C	0.893411	0.759415	-0.263761
C471	C	1.226744	1.092748	0.069573
N472	N	0.536253	0.459285	-0.577653
N473	N	0.869586	0.792618	-0.244320
N474	N	1.202920	1.125951	0.089013
C475	C	0.170535	0.426401	-0.305455
C476	C	0.503868	0.759734	0.027879
C477	C	0.837201	1.093067	0.361212
N478	N	0.151111	0.459669	-0.329215
N479	N	0.484444	0.793003	0.004119
N480	N	0.817778	1.126336	0.337452
H481	H	0.575738	0.742389	-0.222898
H482	H	0.909071	1.075722	0.110435
H483	H	1.242404	1.409056	0.443769
H484	H	0.701419	0.229105	-0.960433
H485	H	1.034752	0.562438	-0.627100
H486	H	1.368085	0.895772	-0.293766
H487	H	-0.179357	0.374826	-0.268621
H488	H	0.153976	0.708160	0.064712
H489	H	0.487310	1.041493	0.398045
C490	C	0.734189	0.732864	-0.209196
C491	C	1.067522	1.066197	0.124138
C492	C	1.400855	1.399531	0.457471
N493	N	0.767721	0.705721	-0.206291
N494	N	1.101054	1.039054	0.127042
N495	N	1.434388	1.372387	0.460375
H496	H	0.701323	0.659176	-0.164470
H497	H	1.034656	0.992509	0.168863
H498	H	1.367990	1.325842	0.502197
H499	H	0.701352	0.229286	-0.388038
H500	H	1.034685	0.562619	-0.054705
H501	H	1.368019	0.895952	0.278629
C502	C	0.029772	0.426393	-0.305476
C503	C	0.363105	0.759726	0.027857
C504	C	0.696439	1.093060	0.361190
N505	N	0.010330	0.459637	-0.329239
N506	N	0.343664	0.792971	0.004094
N507	N	0.676997	1.126304	0.337427
C508	C	0.588784	0.668577	-0.276811
C509	C	0.922118	1.001911	0.056522
C510	C	1.255451	1.335244	0.389856
N511	N	0.564968	0.695698	-0.300591
N512	N	0.898302	1.029031	0.032742
N513	N	1.231635	1.362364	0.366076
H514	H	0.597111	0.374460	-1.045505
H515	H	0.930444	0.707794	-0.712172
H516	H	1.263778	1.041127	-0.378839
H517	H	0.036467	0.189054	-0.135868
H518	H	0.369800	0.522387	0.197466
H519	H	0.703133	0.855720	0.530799
C520	C	0.588825	0.386078	-0.479818
C521	C	0.922158	0.719412	-0.146485
C522	C	1.255491	1.052745	0.186849
N523	N	0.565003	0.419266	-0.499241
N524	N	0.898336	0.752599	-0.165908
N525	N	1.231670	1.085932	0.167425
C526	C	0.588894	1.072214	-0.276866
C527	C	0.922228	1.405547	0.056468
C528	C	1.255561	1.738880	0.389801
N529	N	0.565080	1.099334	-0.300648
N530	N	0.898414	1.432667	0.032685
N531	N	1.231747	1.766000	0.366019
C532	C	0.734227	0.870276	-0.209222
C533	C	1.067561	1.203609	0.124111
C534	C	1.400894	1.536942	0.457445
N535	N	0.767774	0.897349	-0.206332
N536	N	1.101107	1.230682	0.127001
N537	N	1.434440	1.564015	0.460335
H538	H	0.121572	0.189047	-0.135858
H539	H	0.454905	0.522380	0.197475
H540	H	0.788239	0.855714	0.530808
H541	H	0.701424	0.229082	-1.045555
H542	H	1.034757	0.562416	-0.712222
H543	H	1.368091	0.895749	-0.378888
C544	C	0.564206	0.870455	-0.223913
C545	C	0.897539	1.203789	0.109421
C546	C	1.230872	1.537122	0.442754
N547	N	0.530672	0.897594	-0.226817
N548	N	0.864005	1.230928	0.106516
N549	N	1.197338	1.564261	0.439850
C550	C	0.588869	0.934804	-0.276860
C551	C	0.922202	1.268138	0.056474
C552	C	1.255535	1.601471	0.389807
N553	N	0.565052	0.907711	-0.300650
N554	N	0.898386	1.241044	0.032683
N555	N	1.231719	1.574377	0.366016
