data_functionalizedCrystal
_audit_creation_method	'MofGen! by Chris Wilmer'
_symmetry_space_group_name_H-M	'P1'
_symmetry_Int_Tables_number	1
_symmetry_cell_setting	triclinic
loop_
_symmetry_equiv_pos_as_xyz
  x,y,z
_cell_length_a	19.188905
_cell_length_b	19.188924
_cell_length_c	17.666332
_cell_angle_alpha	89.991448
_cell_angle_beta	89.983521
_cell_angle_gamma	83.138260
loop_
_atom_site_label
_atom_site_type_symbol
_atom_site_fract_x
_atom_site_fract_y
_atom_site_fract_z
O1	O	0.926159	0.087086	-0.063076
O2	O	0.722845	0.098838	-0.063051
O3	O	0.830371	-0.008694	-0.063056
O4	O	0.818632	0.194619	-0.063072
O5	O	0.830352	-0.008700	0.062841
O6	O	0.722826	0.098833	0.062846
O7	O	0.926140	0.087080	0.062820
Cu8	Cu	0.824481	0.092956	0.074328
Cu9	Cu	0.824503	0.092963	-0.074559
O10	O	0.818613	0.194613	0.062825
C11	C	0.696824	0.098458	-0.000099
C12	C	0.619318	0.097324	-0.000089
C13	C	0.582937	0.096783	-0.068718
C14	C	0.510113	0.095710	-0.068727
C15	C	0.473676	0.095164	-0.000104
C16	C	0.510066	0.095710	0.068533
C17	C	0.582887	0.096790	0.068541
N18	N	0.364649	0.053733	0.050969
N19	N	0.295472	0.052706	0.050957
C20	C	0.254269	0.091911	-0.000122
N21	N	0.284858	0.132175	-0.051201
N22	N	0.354042	0.133199	-0.051191
C23	C	0.394713	0.093993	-0.000104
C24	C	0.138924	0.090207	-0.068765
C25	C	0.066098	0.089139	-0.068772
C26	C	0.066053	0.089132	0.068491
C27	C	0.138876	0.090207	0.068495
C28	C	0.175308	0.090742	-0.000135
C29	C	0.829982	-0.034708	-0.000106
C30	C	0.828844	-0.112213	-0.000104
C31	C	0.828322	-0.148609	-0.068731
C32	C	0.827243	-0.221431	-0.068736
C33	C	0.826698	-0.257857	-0.000112
C34	C	0.827215	-0.221452	0.068524
C35	C	0.828288	-0.148630	0.068528
N36	N	0.864739	-0.377526	0.050959
N37	N	0.863721	-0.446704	0.050951
C38	C	0.823464	-0.477266	-0.000119
N39	N	0.784272	-0.436037	-0.051191
N40	N	0.785293	-0.366853	-0.051185
C41	C	0.825534	-0.336821	-0.000108
C42	C	0.821771	-0.592624	-0.068756
C43	C	0.820686	-0.665448	-0.068759
C44	C	0.820666	-0.665468	0.068504
C45	C	0.821743	-0.592645	0.068504
C46	C	0.822299	-0.556228	-0.000127
C47	C	0.952160	0.087461	-0.000133
C48	C	1.029666	0.088594	-0.000148
C49	C	0.819002	0.220627	-0.000126
C50	C	0.820141	0.298132	-0.000133
N51	N	0.824471	0.092951	0.179048
N52	N	0.824519	0.092962	-0.179279
C53	C	0.872099	0.045358	0.218656
C54	C	0.872103	0.045355	0.297903
C55	C	0.824485	0.092956	0.337540
C56	C	0.776848	0.140552	0.297923
C57	C	0.776841	0.140549	0.218677
N58	N	0.815407	0.154764	0.461954
N59	N	0.815419	0.154765	0.537235
C60	C	0.824504	0.092966	0.576304
N61	N	0.833591	0.031165	0.537249
N62	N	0.833583	0.031165	0.461961
C63	C	0.824488	0.092964	0.423469
C64	C	0.872139	0.045366	0.701841
C65	C	0.872138	0.045362	0.781090
C66	C	0.776887	0.140565	0.781108
C67	C	0.776884	0.140563	0.701861
C68	C	0.824514	0.092964	0.662232
H69	H	0.036477	0.088702	-0.124659
H70	H	0.820217	-0.695125	0.124379
H71	H	0.738076	0.179308	0.330199
H72	H	0.738055	0.179305	0.186427
H73	H	0.822174	-0.563012	0.124388
Cl74	Cl	0.932012	-0.014476	0.652021
H75	H	0.826814	-0.251070	-0.124622
Cl76	Cl	0.931971	-0.014482	0.168837
Cl77	Cl	0.020252	0.088453	0.154761
Cl78	Cl	0.931984	-0.014480	0.347704
H79	H	0.910921	0.006602	0.813339
H80	H	0.168499	0.090644	0.124380
H81	H	0.738104	0.179320	0.669610
Cl82	Cl	0.628732	0.097458	-0.154995
Cl83	Cl	0.464367	0.095028	-0.155009
Cl84	Cl	0.829016	-0.102830	-0.155011
H85	H	0.738113	0.179320	0.813380
Cl86	Cl	0.828943	-0.102873	0.154808
H87	H	0.612508	0.097231	0.124428
Cl88	Cl	0.464259	0.095028	0.154802
Cl89	Cl	0.826525	-0.267243	0.154795
H90	H	0.168587	0.090650	-0.124648
H91	H	0.822219	-0.562971	-0.124640
Cl92	Cl	0.820026	-0.711202	-0.155040
