data_functionalizedCrystal
_audit_creation_method	'MofGen! by Chris Wilmer'
_symmetry_space_group_name_H-M	'P1'
_symmetry_Int_Tables_number	1
_symmetry_cell_setting	triclinic
loop_
_symmetry_equiv_pos_as_xyz
  x,y,z
_cell_length_a	19.288864
_cell_length_b	26.809956
_cell_length_c	19.288857
_cell_angle_alpha	89.997823
_cell_angle_beta	83.134677
_cell_angle_gamma	90.022644
loop_
_atom_site_label
_atom_site_type_symbol
_atom_site_fract_x
_atom_site_fract_y
_atom_site_fract_z
O1	O	0.921351	0.041642	0.086638
O2	O	1.421351	0.541642	0.586638
O3	O	0.719090	0.041608	0.098327
O4	O	1.219090	0.541608	0.598327
O5	O	0.826068	0.041620	-0.008648
O6	O	1.326068	0.541620	0.491352
O7	O	0.814374	0.041630	0.193613
O8	O	1.314374	0.541630	0.693613
O9	O	0.826048	-0.041339	-0.008632
O10	O	1.326048	0.458661	0.491368
O11	O	0.719070	-0.041351	0.098343
O12	O	1.219070	0.458649	0.598343
O13	O	0.921331	-0.041317	0.086654
O14	O	1.421331	0.458683	0.586654
Zn15	Zn	0.820198	-0.054506	0.092501
Zn16	Zn	1.320198	0.445494	0.592501
Zn17	Zn	0.820224	0.054797	0.092480
Zn18	Zn	1.320224	0.554797	0.592480
O19	O	0.814354	-0.041329	0.193630
O20	O	1.314354	0.458671	0.693630
C21	C	0.693204	0.000124	0.097959
C22	C	1.193204	0.500124	0.597959
C23	C	0.616100	0.000111	0.096830
C24	C	1.116100	0.500111	0.596830
N25	N	0.820184	-0.129102	0.092516
N26	N	1.320184	0.370898	0.592516
C27	C	0.571402	0.000122	0.159598
C28	C	1.071402	0.500122	0.659598
C29	C	0.498955	0.000127	0.158537
C30	C	0.998955	0.500127	0.658537
C31	C	0.471210	0.000132	0.094705
C32	C	0.971210	0.500132	0.594705
C33	C	0.515917	0.000118	0.031929
C34	C	1.015917	0.500118	0.531929
C35	C	0.588363	0.000108	0.032991
C36	C	1.088363	0.500108	0.532991
C37	C	0.362956	0.029210	0.044520
C38	C	0.862956	0.529210	0.544520
C39	C	0.290512	0.029224	0.043460
C40	C	0.790512	0.529224	0.543460
C41	C	0.247764	0.000162	0.091425
C42	C	0.747764	0.500162	0.591425
C43	C	0.277468	-0.028907	0.140462
C44	C	0.777468	0.471093	0.640462
C45	C	0.349914	-0.028918	0.141525
C46	C	0.849914	0.471082	0.641525
C47	C	0.392656	0.000143	0.093546
C48	C	0.892656	0.500143	0.593546
C49	C	0.124510	0.000178	0.153048
C50	C	0.624510	0.500178	0.653048
C51	C	0.052062	0.000180	0.151984
C52	C	0.552062	0.500180	0.651984
C53	C	0.069026	0.000176	0.025374
C54	C	0.569026	0.500176	0.525374
C55	C	0.141472	0.000169	0.026439
C56	C	0.641472	0.500169	0.526439
C57	C	0.169210	0.000172	0.090278
C58	C	0.669210	0.500172	0.590278
C59	C	0.867588	-0.473723	0.045123
C60	C	1.367588	0.026277	0.545123
C61	C	0.867604	-0.682600	0.045112
C62	C	1.367604	-0.182600	0.545112
O63	O	0.907880	-0.709600	0.004822
O64	O	1.407880	-0.209600	0.504822
N65	N	0.820228	-0.708729	0.092465
N66	N	1.320228	-0.208729	0.592465
C67	C	0.772841	-0.682635	0.139820
C68	C	1.272841	-0.182635	0.639820
O69	O	0.732540	-0.709652	0.180091
O70	O	1.232540	-0.209652	0.680091
C71	C	0.772822	-0.473758	0.139827
C72	C	1.272822	0.026242	0.639827
C73	C	0.820206	-0.447632	0.092476
C74	C	1.320206	0.052368	0.592476
C75	C	0.914967	-0.447597	-0.002224
C76	C	1.414967	0.052403	0.497776
C77	C	0.914965	-0.395380	-0.002219
C78	C	1.414965	0.104620	0.497781
C79	C	0.867584	-0.369290	0.045134
C80	C	1.367584	0.130710	0.545134
C81	C	0.820204	-0.395416	0.092482
C82	C	1.320204	0.104584	0.592482
C83	C	0.725432	-0.447665	0.187178
C84	C	1.225432	0.052335	0.687178
C85	C	0.725431	-0.395443	0.187174
C86	C	1.225431	0.104557	0.687174
C87	C	0.772815	-0.369317	0.139824
C88	C	1.272815	0.130683	0.639824
C89	C	0.772820	-0.317109	0.139840
C90	C	1.272820	0.182891	0.639840
N91	N	0.820196	-0.290981	0.092488
N92	N	1.320196	0.209019	0.592488
C93	C	0.867578	-0.317071	0.045135
C94	C	1.367578	0.182929	0.545135
C95	C	0.772855	-0.792298	0.139814
C96	C	1.272855	-0.292298	0.639814
C97	C	0.772861	-0.844517	0.139813
C98	C	1.272861	-0.344517	0.639813
C99	C	0.867623	-0.844479	0.045105
C100	C	1.367623	-0.344479	0.545105
C101	C	0.867621	-0.792259	0.045109
C102	C	1.367621	-0.292259	0.545109
C103	C	0.820232	-0.766170	0.092462
C104	C	1.320232	-0.266170	0.592462
C105	C	0.867571	-0.207413	0.045151
C106	C	1.367571	0.292587	0.545151
C107	C	0.867566	-0.155192	0.045163
C108	C	1.367566	0.344808	0.545163
C109	C	0.772802	-0.155235	0.139868
C110	C	1.272802	0.344765	0.639868
C111	C	0.772808	-0.207451	0.139859
C112	C	1.272808	0.292549	0.639859
C113	C	0.820195	-0.233539	0.092495
C114	C	1.320195	0.266461	0.592495
O115	O	0.732560	-0.290078	0.180105
O116	O	1.232560	0.209922	0.680105
O117	O	0.907863	-0.290045	0.004860
O118	O	1.407863	0.209955	0.504860
C119	C	0.867590	-0.525939	0.045117
C120	C	1.367590	-0.025939	0.545117
C121	C	0.820210	-0.552065	0.092465
C122	C	1.320210	-0.052065	0.592465
C123	C	0.772828	-0.525975	0.139818
C124	C	1.272828	-0.025975	0.639818
C125	C	0.820216	-0.604284	0.092464
C126	C	1.320216	-0.104284	0.592464
C127	C	0.867597	-0.630374	0.045111
C128	C	1.367597	-0.130374	0.545111
C129	C	0.914974	-0.604246	-0.002241
C130	C	1.414974	-0.104246	0.497759
C131	C	0.914972	-0.552029	-0.002235
C132	C	1.414972	-0.052029	0.497765
C133	C	0.725452	-0.552103	0.187170
C134	C	1.225452	-0.052103	0.687170
C135	C	0.725458	-0.604319	0.187161
C136	C	1.225458	-0.104319	0.687161
C137	C	0.772840	-0.630410	0.139808
C138	C	1.272840	-0.130410	0.639808
C139	C	0.947218	0.000168	0.087022
C140	C	1.447218	0.500168	0.587022
C141	C	1.024321	0.000184	0.088151
C142	C	1.524321	0.500184	0.588151
C143	C	0.825683	0.000140	-0.034517
C144	C	1.325683	0.500140	0.465483
C145	C	0.824556	0.000138	-0.111620
C146	C	1.324556	0.500138	0.388380
N147	N	0.820243	0.129393	0.092460
N148	N	1.320243	0.629393	0.592460
C149	C	0.824041	0.045359	-0.147840
C150	C	1.324041	0.545359	0.352160
C151	C	0.822972	0.045363	-0.220286
C152	C	1.322972	0.545363	0.279714
C153	C	0.822432	0.000143	-0.256512
C154	C	1.322432	0.500143	0.243488
C155	C	0.822943	-0.045084	-0.220283
C156	C	1.322943	0.454916	0.279717
C157	C	0.824005	-0.045087	-0.147837
C158	C	1.324005	0.454913	0.352163
C159	C	0.861426	-0.034492	-0.376736
C160	C	1.361426	0.465508	0.123264
C161	C	0.860368	-0.034488	-0.449181
C162	C	1.360368	0.465512	0.050819
C163	C	0.819155	0.000148	-0.479957
C164	C	1.319155	0.500148	0.020043
C165	C	0.779008	0.034788	-0.438281
C166	C	1.279008	0.534788	0.061719
C167	C	0.780069	0.034785	-0.365836
C168	C	1.280069	0.534785	0.134164
C169	C	0.821281	0.000140	-0.335067
C170	C	1.321281	0.500140	0.164933
C171	C	0.817480	0.045376	-0.594731
C172	C	1.317480	0.545376	-0.094731
C173	C	0.816407	0.045377	-0.667178
C174	C	1.316407	0.545377	-0.167178
C175	C	0.816385	-0.045071	-0.667174
C176	C	1.316385	0.454929	-0.167174
C177	C	0.817451	-0.045071	-0.594728
C178	C	1.317451	0.454929	-0.094728
C179	C	0.818002	0.000153	-0.558511
C180	C	1.318002	0.500153	-0.058511
C181	C	0.814739	0.000152	0.219498
C182	C	1.314739	0.500152	0.719498
C183	C	0.815866	0.000157	0.296602
C184	C	1.315866	0.500157	0.796602
H185	H	0.593981	0.000126	0.211581
H186	H	1.093981	0.500126	0.711581
Cl187	Cl	0.913261	-0.078027	-0.338057
Cl188	Cl	1.413261	0.421973	0.161943
H189	H	0.745448	0.062992	-0.463337
H190	H	1.245448	0.562992	0.036663
H191	H	0.747379	0.062990	-0.331906
H192	H	1.247379	0.562990	0.168094
H193	H	0.906157	-0.228648	0.006582
H194	H	1.406157	0.271352	0.506582
Cl195	Cl	0.974532	-0.362542	-0.061752
Cl196	Cl	1.474532	0.137458	0.438248
H197	H	0.953556	-0.625497	-0.040796
H198	H	1.453556	-0.125497	0.459204
H199	H	0.624757	0.000099	-0.018124
H200	H	1.124757	0.500099	0.481876
Cl201	Cl	0.974542	-0.519192	-0.061766
Cl202	Cl	1.474542	-0.019192	0.438234
H203	H	0.462555	0.000135	0.209652
H204	H	0.962555	0.500135	0.709652
Cl205	Cl	0.818166	0.102228	-0.549197
Cl206	Cl	1.318166	0.602228	-0.049197
H207	H	0.734265	-0.771060	0.178376
H208	H	1.234265	-0.271060	0.678376
H209	H	0.266332	0.052896	0.003534
H210	H	0.766332	0.552896	0.503534
H211	H	0.906154	-0.133922	0.006604
H212	H	1.406154	0.366078	0.506604
Cl213	Cl	0.974541	-0.480387	-0.061761
Cl214	Cl	1.474541	0.019613	0.438239
Cl215	Cl	0.927190	-0.759421	-0.014421
Cl216	Cl	1.427190	-0.259421	0.485579
H217	H	0.906205	-0.865730	0.006549
H218	H	1.406205	-0.365730	0.506549
H219	H	0.822549	0.082188	-0.249781
H220	H	1.322549	0.582188	0.250219
H221	H	0.817876	-0.081895	-0.565238
H222	H	1.317876	0.418105	-0.065238
Cl223	Cl	0.416689	0.065749	-0.015786
Cl224	Cl	0.916689	0.565749	0.484214
H225	H	0.815984	0.082203	-0.696666
H226	H	1.315984	0.582203	-0.196666
H227	H	0.374096	-0.052588	0.181450
H228	H	0.874096	0.447412	0.681450
Cl229	Cl	0.481038	0.000121	-0.048318
Cl230	Cl	0.981038	0.500121	0.451682
Cl231	Cl	0.713239	-0.122427	0.199396
Cl232	Cl	1.213239	0.377573	0.699396
Cl233	Cl	0.713299	-0.877355	0.199351
Cl234	Cl	1.213299	-0.377355	0.699351
H235	H	0.686874	-0.625588	0.225725
H236	H	1.186874	-0.125588	0.725725
H237	H	0.822502	-0.081903	-0.249782
H238	H	1.322502	0.418097	0.250218
H239	H	0.177867	0.000163	-0.024674
H240	H	0.677867	0.500163	0.475326
Cl241	Cl	0.159384	0.000177	0.233300
Cl242	Cl	0.659384	0.500177	0.733300
H243	H	0.824421	-0.081912	-0.118347
H244	H	1.324421	0.418088	0.381653
H245	H	0.242664	-0.052573	0.179520
H246	H	0.742664	0.447427	0.679520
H247	H	0.815940	-0.081890	-0.696668
H248	H	1.315940	0.418110	-0.196668
Cl249	Cl	0.665859	-0.480499	0.246705
Cl250	Cl	1.165859	0.019501	0.746705
Cl251	Cl	0.910841	-0.078033	-0.501567
Cl252	Cl	1.410841	0.421967	-0.001567
Cl253	Cl	0.665882	-0.519310	0.246705
Cl254	Cl	1.165882	-0.019310	0.746705
Cl255	Cl	-0.004132	0.000192	0.230901
Cl256	Cl	0.495868	0.500192	0.730901
H257	H	0.046436	0.000211	-0.026600
H258	H	0.546436	0.500211	0.473400
Cl259	Cl	0.665850	-0.362648	0.246706
Cl260	Cl	1.165850	0.137352	0.746706
Cl261	Cl	0.824728	0.102213	-0.102313
Cl262	Cl	1.324728	0.602213	0.397687
Cl263	Cl	0.713245	-0.240294	0.199395
Cl264	Cl	1.213245	0.259706	0.699395
