data_functionalizedCrystal
_audit_creation_method	'MofGen! by Chris Wilmer'
_symmetry_space_group_name_H-M	'P1'
_symmetry_Int_Tables_number	1
_symmetry_cell_setting	triclinic
loop_
_symmetry_equiv_pos_as_xyz
  x,y,z
_cell_length_a	27.354012
_cell_length_b	27.353283
_cell_length_c	27.349551
_cell_angle_alpha	60.005606
_cell_angle_beta	60.011434
_cell_angle_gamma	59.993282
loop_
_atom_site_label
_atom_site_type_symbol
_atom_site_fract_x
_atom_site_fract_y
_atom_site_fract_z
O1	O	0.067635	-0.714267	0.597330
O2	O	0.025429	-0.556105	0.481282
O3	O	0.125575	-0.656186	0.481214
O4	O	-0.032512	-0.614186	0.597397
O5	O	0.158797	-0.622968	0.514367
O6	O	0.058650	-0.522887	0.514434
O7	O	0.100856	-0.681048	0.630482
Zn8	Zn	0.085028	-0.596693	0.577722
Zn9	Zn	0.041257	-0.640460	0.534042
O10	O	0.000709	-0.580967	0.630549
N11	N	0.114901	-0.566828	0.607534
N12	N	0.011389	-0.670331	0.504229
C13	C	0.179404	-0.338196	0.672015
C14	C	0.179501	-0.502386	0.836160
C15	C	0.179415	-0.502363	0.671996
C16	C	0.343611	-0.502373	0.671960
C17	C	0.197478	-0.392371	0.690061
C18	C	0.197534	-0.484321	0.781984
C19	C	0.289434	-0.484312	0.690032
C20	C	0.197486	-0.484308	0.690051
C21	C	0.156398	-0.269238	0.649045
C22	C	0.156418	-0.525342	0.649015
C23	C	0.220484	-0.461329	0.713032
C24	C	0.443889	-0.485097	0.619172
C25	C	0.506571	-0.505993	0.598266
C26	C	0.506589	-0.607412	0.636940
C27	C	0.443909	-0.586515	0.657848
C28	C	0.171510	-0.237888	0.587422
C29	C	0.150593	-0.175201	0.566543
C30	C	0.099458	-0.175218	0.668913
C31	C	0.120375	-0.237905	0.689792
C32	C	0.094789	-0.510201	0.664176
C33	C	0.073888	-0.531091	0.643278
C34	C	0.176239	-0.582263	0.592072
C35	C	0.197142	-0.561373	0.612963
C36	C	0.094933	-0.510244	0.936476
C37	C	0.074073	-0.531151	0.999161
C38	C	0.176453	-0.582335	0.999126
C39	C	0.197312	-0.561429	0.936439
C40	C	0.156551	-0.525382	0.905116
C41	C	0.412561	-0.525357	0.648961
C42	C	-0.098513	-0.688235	0.485867
C43	C	-0.006461	-0.688368	0.394066
C44	C	-0.006645	-0.780264	0.486040
C45	C	-0.006630	-0.688361	0.486097
C46	C	-0.029562	-0.711308	0.463018
N47	N	0.537030	-0.566846	0.607436
O48	O	0.741877	-0.576849	0.459995
O49	O	0.742050	-0.693241	0.618010
O50	O	0.741986	-0.692977	0.517791
O51	O	0.741941	-0.577114	0.560214
O52	O	0.642405	-0.659839	0.551046
O53	O	0.642469	-0.660104	0.651265
O54	O	0.642296	-0.543712	0.493251
Zn55	Zn	0.626572	-0.596646	0.577538
Zn56	Zn	0.757774	-0.640307	0.533723
O57	O	0.642360	-0.543976	0.593469
N58	N	0.847316	-0.670107	0.503818
N59	N	0.114877	-0.144758	0.607577
O60	O	-0.032498	0.060193	0.597441
O61	O	0.125523	0.060193	0.481067
O62	O	0.025289	0.060179	0.481345
O63	O	0.067736	0.060207	0.597163
O64	O	0.058511	-0.039410	0.514543
O65	O	0.158745	-0.039397	0.514265
O66	O	0.000724	-0.039396	0.630638
Zn67	Zn	0.085009	-0.055208	0.577722
Zn68	Zn	0.041238	0.076005	0.533983
O69	O	0.100958	-0.039382	0.630360
N70	N	0.011362	0.165555	0.504130
N71	N	0.115121	-0.566884	1.029592
O72	O	0.104990	-0.714248	1.234528
O73	O	-0.011371	-0.556177	1.234539
O74	O	-0.011103	-0.656395	1.234497
O75	O	0.104722	-0.614030	1.234569
O76	O	0.022090	-0.623190	1.134913
O77	O	0.021822	-0.522972	1.134954
O78	O	0.138182	-0.681044	1.134943
Zn79	Zn	0.085272	-0.596736	1.119137
Zn80	Zn	0.041539	-0.640484	1.250344
O81	O	0.137914	-0.580826	1.134984
N82	N	0.011689	-0.670343	1.339890
C83	C	0.038085	-0.519567	0.481870
C84	C	0.162104	-0.643505	0.481786
C85	C	0.088200	-0.717587	0.629893
C86	C	-0.035819	-0.593649	0.629977
C87	C	0.692280	-0.692701	0.654545
C88	C	0.692203	-0.692374	0.530435
C89	C	0.692063	-0.544251	0.456717
C90	C	0.692144	-0.544580	0.580825
C91	C	0.162000	0.010521	0.481600
C92	C	0.037914	0.010381	0.481984
C93	C	-0.035795	0.010399	0.630065
C94	C	0.088333	0.010415	0.629722
C95	C	-0.010799	-0.519660	1.184747
C96	C	-0.010461	-0.643761	1.184677
C97	C	0.137610	-0.717561	1.184734
C98	C	0.137280	-0.593452	1.184783
H99	H	0.061737	-0.480889	0.910978
H100	H	-0.047330	-0.474261	1.184750
C101	C	0.692174	-0.517018	0.651509
C102	C	0.692123	-0.495441	0.593076
H103	H	0.692157	-0.486680	0.659072
H104	H	0.726922	-0.551053	0.655945
H105	H	0.657469	-0.527945	0.679139
H106	H	0.726830	-0.484519	0.565445
H107	H	0.657371	-0.461395	0.588635
H108	H	0.207290	0.010797	0.444973
H109	H	-0.081227	-0.584696	0.666460
H110	H	0.028825	0.010378	0.445599
H111	H	0.173667	-0.584388	1.184797
H112	H	0.207509	-0.652460	0.445301
C113	C	0.158786	-0.815885	0.657616
C114	C	0.100361	-0.778921	0.679097
H115	H	0.166291	-0.853750	0.687992
H116	H	0.186428	-0.797912	0.646712
H117	H	0.163257	-0.821068	0.623580
H118	H	0.095891	-0.773733	0.713131
H119	H	0.072711	-0.796898	0.690009
H120	H	-0.081177	0.010398	0.666600
H121	H	0.692323	-0.729239	0.699929
H122	H	0.097420	0.010424	0.666105
H123	H	0.692221	-0.728771	0.521355
C124	C	0.640769	-0.444785	0.403237
C125	C	0.691988	-0.494916	0.395458
H126	H	0.640722	-0.414329	0.365418
H127	H	0.640782	-0.430329	0.428394
H128	H	0.606066	-0.455697	0.421166
H129	H	0.726691	-0.484005	0.377533
H130	H	0.691980	-0.509374	0.370291
H131	H	-0.046832	-0.652809	1.184615
H132	H	0.029071	-0.474132	0.445424
C133	C	0.165614	-0.815915	1.184704
C134	C	0.186931	-0.778845	1.184730
H135	H	0.196062	-0.853750	1.184704
H136	H	0.154740	-0.797993	1.149971
H137	H	0.131588	-0.821151	1.219426
H138	H	0.220954	-0.773606	1.150005
H139	H	0.197813	-0.796771	1.219466
H140	H	0.023897	-0.518815	1.024687
H141	H	0.247489	-0.573760	0.910909
C142	C	0.279749	-0.630831	0.992793
C143	C	0.221259	-0.621957	1.033556
H144	H	0.307409	-0.655300	1.014051
H145	H	0.285756	-0.593261	0.968355
H146	H	0.285752	-0.649960	0.968335
H147	H	0.215255	-0.602824	1.058011
H148	H	0.215250	-0.659533	1.058005
H149	H	0.023705	-0.518748	0.655609
C150	C	-0.008483	-0.461706	0.712681
C151	C	0.050023	-0.470589	0.703797
H152	H	-0.036119	-0.437248	0.737140
H153	H	-0.014494	-0.499274	0.731818
H154	H	-0.014517	-0.442562	0.675111
H155	H	0.056058	-0.489738	0.741367
H156	H	0.056037	-0.433015	0.684661
H157	H	0.209407	-0.611608	0.562721
H158	H	0.418403	-0.619300	0.682106
C159	C	0.290788	-0.556737	0.533950
C160	C	0.264885	-0.578006	0.596296
H161	H	0.332610	-0.567007	0.523661
H162	H	0.273163	-0.514446	0.519556
H163	H	0.284168	-0.574342	0.516354
H164	H	0.271502	-0.560396	0.613892
H165	H	0.282517	-0.620304	0.610697
C166	C	0.500313	-0.705563	0.677269
C167	C	0.541048	-0.674637	0.646705
H168	H	0.521590	-0.747066	0.683299
H169	H	0.475851	-0.690860	0.654309
H170	H	0.475878	-0.699746	0.714932
H171	H	0.565480	-0.680451	0.609039
H172	H	0.565520	-0.689346	0.669665
H173	H	0.418366	-0.435297	0.611936
C174	C	0.500263	-0.403644	0.562127
C175	C	0.541013	-0.461739	0.565515
H176	H	0.521528	-0.376324	0.541902
H177	H	0.475834	-0.402043	0.601394
H178	H	0.475796	-0.393162	0.540777
H179	H	0.565477	-0.472223	0.586869
H180	H	0.565452	-0.463342	0.526241
H181	H	0.200842	-0.263395	0.554238
H182	H	0.070133	-0.149706	0.702094
C183	C	0.145935	-0.155885	0.472867
C184	C	0.167200	-0.140735	0.498803
H185	H	0.156190	-0.134611	0.431047
H186	H	0.103650	-0.145616	0.490484
H187	H	0.163553	-0.197705	0.479474
H188	H	0.149579	-0.098917	0.492200
H189	H	0.209493	-0.151001	0.481180
C190	C	0.067729	-0.231620	0.788882
C191	C	0.103765	-0.272363	0.757530
H192	H	0.057477	-0.252895	0.830702
H193	H	0.032280	-0.207172	0.778614
H194	H	0.088995	-0.207168	0.778598
H195	H	0.082497	-0.296813	0.767810
H196	H	0.139219	-0.296822	0.767802
