data_functionalizedCrystal
_audit_creation_method	'MofGen! by Chris Wilmer'
_symmetry_space_group_name_H-M	'P1'
_symmetry_Int_Tables_number	1
_symmetry_cell_setting	triclinic
loop_
_symmetry_equiv_pos_as_xyz
  x,y,z
_cell_length_a	21.295417
_cell_length_b	16.625548
_cell_length_c	16.625539
_cell_angle_alpha	89.977655
_cell_angle_beta	90.033373
_cell_angle_gamma	89.969635
loop_
_atom_site_label
_atom_site_type_symbol
_atom_site_fract_x
_atom_site_fract_y
_atom_site_fract_z
Zn1	Zn	-0.250610	-1.232635	0.455919
Zn2	Zn	0.249390	-0.732635	0.955919
Zn3	Zn	-0.355884	-1.232520	0.321074
Zn4	Zn	0.144116	-0.732520	0.821074
Zn5	Zn	-0.250632	-1.097797	0.321095
Zn6	Zn	0.249368	-0.597797	0.821095
Zn7	Zn	-0.355845	-1.097749	0.455860
Zn8	Zn	0.144155	-0.597749	0.955860
O9	O	-0.303243	-1.165175	0.388487
O10	O	0.196757	-0.665175	0.888487
O11	O	-0.264582	-1.345452	0.438048
O12	O	0.235418	-0.845452	0.938048
O13	O	-0.341947	-1.214620	0.208245
O14	O	0.158053	-0.714620	0.708245
O15	O	-0.162540	-1.115753	0.339014
O16	O	0.337460	-0.615753	0.839014
O17	O	-0.341926	-1.345367	0.338978
O18	O	0.158074	-0.845367	0.838978
O19	O	-0.162524	-1.214818	0.438068
O20	O	0.337476	-0.714818	0.938068
O21	O	-0.264619	-1.115640	0.208260
O22	O	0.235381	-0.615640	0.708260
O23	O	-0.264582	-0.984958	0.338956
O24	O	0.235418	-0.484958	0.838956
O25	O	-0.341861	-1.115670	0.568700
O26	O	0.158139	-0.615670	1.068700
O27	O	-0.341882	-0.984923	0.437967
O28	O	0.158118	-0.484923	0.937967
O29	O	-0.264545	-1.214771	0.568744
O30	O	0.235455	-0.714771	1.068744
O31	O	-0.443968	-1.214573	0.338921
O32	O	0.056032	-0.714573	0.838921
O33	O	-0.443940	-1.115558	0.437947
O34	O	0.056060	-0.615558	0.937947
C35	C	-0.303231	-0.955684	0.388458
C36	C	0.196769	-0.455684	0.888458
C37	C	-0.303240	-0.866063	0.388465
C38	C	0.196760	-0.366063	0.888465
C39	C	-0.303239	-0.537888	0.388489
C40	C	0.196761	-0.037888	0.888489
C41	C	-0.303238	-0.629196	0.388480
C42	C	0.196762	-0.129196	0.888480
C43	C	-0.303240	-0.701973	0.388476
C44	C	0.196760	-0.201973	0.888476
C45	C	-0.303238	-0.793287	0.388468
C46	C	0.196762	-0.293287	0.888468
C47	C	-0.466795	-1.165070	0.388443
C48	C	0.033205	-0.665070	0.888443
C49	C	-0.536763	-1.165098	0.388451
C50	C	-0.036763	-0.665098	0.888451
C51	C	-0.569623	-1.216701	0.336940
C52	C	-0.069623	-0.716701	0.836940
C53	C	-0.635366	-1.216739	0.336958
C54	C	-0.135366	-0.716739	0.836958
C55	C	-0.668245	-1.165159	0.388478
C56	C	-0.168245	-0.665159	0.888478
C57	C	-0.635377	-1.113552	0.439999
C58	C	-0.135377	-0.613552	0.939999
C59	C	-0.569636	-1.113522	0.439985
C60	C	-0.069636	-0.613522	0.939985
N61	N	-0.771511	-1.094624	0.394615
N62	N	-0.271511	-0.594624	0.894615
N63	N	-0.833962	-1.094656	0.394624
N64	N	-0.333962	-0.594656	0.894624
C65	C	-0.866320	-1.165250	0.388525
C66	C	-0.366320	-0.665250	0.888525
N67	N	-0.833867	-1.235813	0.382401
N68	N	-0.333867	-0.735813	0.882401
N69	N	-0.771410	-1.235780	0.382388
N70	N	-0.271410	-0.735780	0.882388
C71	C	-0.739531	-1.165187	0.388499
C72	C	-0.239531	-0.665187	0.888499
C73	C	-0.970466	-1.216898	0.337031
C74	C	-0.470466	-0.716898	0.837031
C75	C	-1.036210	-1.216937	0.337055
C76	C	-0.536210	-0.716937	0.837055
C77	C	-1.036219	-1.113743	0.440091
C78	C	-0.536219	-0.613743	0.940091
C79	C	-0.970477	-1.113711	0.440071
C80	C	-0.470477	-0.613711	0.940071
C81	C	-0.937604	-1.165288	0.388537
C82	C	-0.437604	-0.665288	0.888537
C83	C	-0.139053	-1.165303	0.388550
C84	C	0.360947	-0.665303	0.888550
C85	C	-0.069085	-1.165358	0.388576
C86	C	0.430915	-0.665358	0.888576
C87	C	-0.303196	-1.165228	0.598796
C88	C	0.196804	-0.665228	1.098796
C89	C	-0.303176	-1.165250	0.688417
C90	C	0.196824	-0.665250	1.188417
C91	C	-0.303252	-0.375484	0.388509
C92	C	0.196748	0.124516	0.888509
C93	C	-0.303245	-0.465105	0.388499
C94	C	0.196755	0.034895	0.888499
C95	C	-0.303244	-1.165169	0.178996
C96	C	0.196756	-0.665169	0.678996
C97	C	-0.303087	-1.165303	0.089376
C98	C	0.196913	-0.665303	0.589376
C99	C	-0.303106	-1.165287	1.016593
C100	C	0.196894	-0.665287	1.516593
C101	C	-0.303127	-1.165275	0.925285
C102	C	0.196873	-0.665275	1.425285
C103	C	-0.303141	-1.165269	0.852508
C104	C	0.196859	-0.665269	1.352508
C105	C	-0.303162	-1.165256	0.761194
C106	C	0.196838	-0.665256	1.261194
H107	H	-0.542860	-1.258700	0.294980
H108	H	-0.042860	-0.758700	0.794980
H109	H	-0.542880	-1.071500	0.481931
H110	H	-0.042880	-0.571500	0.981931
Cl111	Cl	-0.929137	-1.281735	0.272247
Cl112	Cl	-0.429137	-0.781735	0.772247
H113	H	-0.662126	-1.258764	0.295013
H114	H	-0.162126	-0.758764	0.795013
Cl115	Cl	-0.676710	-1.048713	0.504770
Cl116	Cl	-0.176710	-0.548713	1.004770
H117	H	-0.943720	-1.071688	0.482013
H118	H	-0.443720	-0.571688	0.982013
H119	H	-1.062963	-1.258964	0.295111
H120	H	-0.562963	-0.758964	0.795111
Cl121	Cl	-1.077548	-1.048905	0.504865
Cl122	Cl	-0.577548	-0.548905	1.004865
