data_functionalizedCrystal
_audit_creation_method	'MofGen! by Chris Wilmer'
_symmetry_space_group_name_H-M	'P1'
_symmetry_Int_Tables_number	1
_symmetry_cell_setting	triclinic
loop_
_symmetry_equiv_pos_as_xyz
  x,y,z
_cell_length_a	8.559649
_cell_length_b	11.792254
_cell_length_c	7.681481
_cell_angle_alpha	84.218036
_cell_angle_beta	94.913240
_cell_angle_gamma	76.988631
loop_
_atom_site_label
_atom_site_type_symbol
_atom_site_fract_x
_atom_site_fract_y
_atom_site_fract_z
O1	O	2.104792	-0.026423	-0.146400
O2	O	1.640099	0.032147	-0.146410
O3	O	1.883713	-0.163340	-0.146392
O4	O	1.861178	0.169064	-0.146418
O5	O	1.913698	-0.187450	0.146468
O6	O	1.670083	0.008038	0.146450
O7	O	2.134777	-0.050533	0.146460
Zn8	Zn	1.907191	-0.025076	0.192953
Zn9	Zn	1.867685	0.006690	-0.192903
O10	O	1.891162	0.144954	0.146442
C11	C	1.595600	0.024531	0.000018
C12	C	1.418334	0.037743	0.000015
C13	C	1.897286	-0.217555	0.000037
C14	C	1.893037	-0.343179	0.000035
C15	C	1.889585	-0.445200	0.000029
C16	C	1.885267	-0.573190	0.000013
C17	C	2.179276	-0.042916	0.000027
C18	C	2.356540	-0.056128	0.000020
C19	C	1.877589	0.199170	0.000009
C20	C	1.881837	0.324795	-0.000001
N21	N	1.934164	-0.046757	0.456289
N22	N	1.840724	0.028361	-0.456239
H23	H	1.745341	0.105034	0.468557
H24	H	2.029565	-0.123427	0.531502
H25	H	1.335617	0.128225	-0.000002
O26	O	1.455434	-0.163990	0.000106
C27	C	1.616341	-0.153612	0.000061
H28	H	1.629025	-0.069622	0.055499
H29	H	1.650080	-0.150500	-0.140439
C30	C	1.713821	-0.363093	0.046825
C31	C	1.729402	-0.259940	0.114930
H32	H	1.783564	-0.428683	0.117674
H33	H	1.605415	-0.370086	0.046849
H34	H	1.741934	-0.360483	-0.070257
H35	H	1.701270	-0.262545	0.232000
H36	H	1.837806	-0.252950	0.114929
