data_functionalizedCrystal
_audit_creation_method	'MofGen! by Chris Wilmer'
_symmetry_space_group_name_H-M	'P1'
_symmetry_Int_Tables_number	1
_symmetry_cell_setting	triclinic
loop_
_symmetry_equiv_pos_as_xyz
  x,y,z
_cell_length_a	12.759401
_cell_length_b	12.759400
_cell_length_c	12.759393
_cell_angle_alpha	89.970670
_cell_angle_beta	90.021504
_cell_angle_gamma	89.990400
loop_
_atom_site_label
_atom_site_type_symbol
_atom_site_fract_x
_atom_site_fract_y
_atom_site_fract_z
Zn1	Zn	-1.606264	-0.418316	-0.594079
Zn2	Zn	-1.606164	-0.594031	-0.418403
Zn3	Zn	-1.430567	-0.418356	-0.418409
Zn4	Zn	-1.430560	-0.593942	-0.594035
O5	O	-1.518389	-0.506161	-0.506232
O6	O	-1.753272	-0.441645	-0.570792
O7	O	-1.582832	-0.570782	-0.271383
O8	O	-1.453919	-0.271330	-0.441733
O9	O	-1.753198	-0.570743	-0.441723
O10	O	-1.583003	-0.271300	-0.570798
O11	O	-1.453821	-0.441714	-0.271387
O12	O	-1.283545	-0.441627	-0.441690
O13	O	-1.453906	-0.570591	-0.741062
O14	O	-1.283540	-0.570630	-0.570721
O15	O	-1.582996	-0.441559	-0.741095
O16	O	-1.582825	-0.741040	-0.441680
O17	O	-1.453809	-0.740975	-0.570715
C18	C	-1.245422	-0.506124	-0.506202
C19	C	-1.128645	-0.506134	-0.506214
C20	C	-1.073755	-0.438871	-0.439149
C21	C	-0.964031	-0.438891	-0.439159
C22	C	-0.964097	-0.573439	-0.573307
C23	C	-1.073819	-0.573424	-0.573292
C24	C	-1.128581	-0.371581	-0.372072
C25	C	-1.073691	-0.304312	-0.305002
C26	C	-0.963967	-0.304332	-0.305012
C27	C	-0.909133	-0.371621	-0.372091
C28	C	-1.518334	-0.779129	-0.506215
C29	C	-1.518406	-0.895905	-0.506243
C30	C	-0.792422	-0.506188	-0.506253
C31	C	-0.909199	-0.506169	-0.506239
C32	C	-1.585587	-0.950672	-0.573502
C33	C	-1.585636	-1.060396	-0.573527
C34	C	-1.451321	-1.060577	-0.439026
C35	C	-1.451267	-0.950855	-0.439007
C36	C	-1.652726	-0.895723	-0.640738
C37	C	-1.719913	-0.950490	-0.708001
C38	C	-1.719962	-1.060214	-0.708027
C39	C	-1.652824	-1.115171	-0.640789
C40	C	-1.518461	-0.506061	-0.780265
C41	C	-1.518492	-0.506018	-0.897042
C42	C	-1.518473	-0.232128	-0.506271
C43	C	-1.518509	-0.115351	-0.506288
C44	C	-1.585671	-0.573198	-0.951899
C45	C	-1.585703	-0.573153	-1.061623
C46	C	-1.451368	-0.438745	-1.061623
C47	C	-1.451342	-0.438786	-0.951901
C48	C	-1.652822	-0.640430	-0.897040
C49	C	-1.720005	-0.707616	-0.951897
C50	C	-1.720037	-0.707572	-1.061621
C51	C	-1.652885	-0.640340	-1.116488
C52	C	-1.518377	-0.506186	-0.233264
C53	C	-1.518550	-0.505933	-0.116488
H54	H	-0.919442	-0.628221	-0.627922
C55	C	-1.779601	-0.767372	-0.783699
C56	C	-1.793817	-0.781513	-0.891591
H57	H	-1.825168	-0.812999	-0.746473
H58	H	-1.795000	-0.696800	-0.765731
H59	H	-1.708997	-0.782744	-0.765721
H60	H	-1.864420	-0.766133	-0.909571
H61	H	-1.778426	-0.852101	-0.909567
C62	C	-1.107709	-0.624800	-0.751105
C63	C	-1.134167	-0.647351	-0.647014
H64	H	-1.144973	-0.670439	-0.796615
H65	H	-1.034527	-0.634448	-0.760713
H66	H	-1.125703	-0.554222	-0.766583
H67	H	-1.116166	-0.717928	-0.631534
H68	H	-1.207366	-0.637713	-0.637402
H69	H	-1.774748	-0.762270	-1.106283
C70	C	-1.552987	-0.667034	-1.273663
C71	C	-1.652927	-0.640286	-1.237099
H72	H	-1.553014	-0.666997	-1.348122
H73	H	-1.534801	-0.734835	-1.248837
H74	H	-1.503370	-0.617399	-1.248839
H75	H	-1.702543	-0.689926	-1.261917
H76	H	-1.671125	-0.572476	-1.261935
H77	H	-1.652696	-0.806380	-0.640722
H78	H	-1.774568	-0.905738	-0.762751
C79	C	-1.318580	-0.305893	-1.050607
C80	C	-1.377551	-0.364854	-1.121930
H81	H	-1.273012	-0.260273	-1.087839
H82	H	-1.278370	-0.351676	-1.007801
H83	H	-1.364369	-0.265728	-1.007823
H84	H	-1.331763	-0.405026	-1.164709
H85	H	-1.417764	-0.319065	-1.164754
C86	C	-1.107396	-0.252926	-0.127183
C87	C	-1.133963	-0.230361	-0.231264
H88	H	-1.144611	-0.207275	-0.081660
H89	H	-1.034203	-0.243304	-0.117597
H90	H	-1.125374	-0.323498	-0.111702
H91	H	-1.115978	-0.159790	-0.246748
H92	H	-1.207172	-0.239973	-0.240855
H93	H	-1.774660	-1.104802	-0.762804
C94	C	-1.726005	-1.272252	-0.714069
C95	C	-1.652867	-1.235782	-0.640827
H96	H	-1.726034	-1.346710	-0.714087
H97	H	-1.707787	-1.247386	-0.781832
H98	H	-1.793801	-1.247404	-0.695947
H99	H	-1.585069	-1.260624	-0.658954
H100	H	-1.671079	-1.260658	-0.573049
H101	H	-1.396643	-0.384078	-0.907235
C102	C	-1.436682	-0.827562	-0.297653
C103	C	-1.377422	-0.890648	-0.365074
H104	H	-1.391087	-0.790390	-0.252017
H105	H	-1.482487	-0.870362	-0.257514
H106	H	-1.476650	-0.779137	-0.337708
H107	H	-1.337461	-0.939078	-0.325020
H108	H	-1.331599	-0.847843	-0.405218
H109	H	-1.217924	-0.371555	-0.372059
H110	H	-0.919278	-0.249565	-0.250394
H111	H	-1.396661	-1.105331	-0.384284
H112	H	-0.819788	-0.371636	-0.372088
H113	H	-1.652801	-0.640477	-0.807697
