data_functionalizedCrystal
_audit_creation_method	'MofGen! by Chris Wilmer'
_symmetry_space_group_name_H-M	'P1'
_symmetry_Int_Tables_number	1
_symmetry_cell_setting	triclinic
loop_
_symmetry_equiv_pos_as_xyz
  x,y,z
_cell_length_a	25.639242
_cell_length_b	29.839131
_cell_length_c	29.839135
_cell_angle_alpha	90.000668
_cell_angle_beta	90.016827
_cell_angle_gamma	90.036947
loop_
_atom_site_label
_atom_site_type_symbol
_atom_site_fract_x
_atom_site_fract_y
_atom_site_fract_z
Zn1	Zn	0.799187	-0.179046	0.254113
Zn2	Zn	1.132521	0.154288	0.587447
Zn3	Zn	1.465854	0.487621	0.920780
Zn4	Zn	0.799115	-0.254135	0.178983
Zn5	Zn	1.132448	0.079198	0.512317
Zn6	Zn	1.465782	0.412531	0.845650
Zn7	Zn	0.711772	-0.179014	0.178984
Zn8	Zn	1.045105	0.154319	0.512318
Zn9	Zn	1.378439	0.487653	0.845651
Zn10	Zn	0.711705	-0.254143	0.254073
Zn11	Zn	1.045038	0.079190	0.587406
Zn12	Zn	1.378371	0.412523	0.920740
O13	O	0.755445	-0.216585	0.216539
O14	O	1.088778	0.116749	0.549872
O15	O	1.422111	0.450082	0.883205
O16	O	0.872343	-0.189016	0.244164
O17	O	1.205676	0.144317	0.577497
O18	O	1.539010	0.477651	0.910830
O19	O	0.787527	-0.244154	0.116116
O20	O	1.120860	0.089180	0.449450
O21	O	1.454193	0.422513	0.782783
O22	O	0.723426	-0.116151	0.188968
O23	O	1.056760	0.217182	0.522301
O24	O	1.390093	0.550515	0.855634
O25	O	0.872290	-0.244184	0.188966
O26	O	1.205623	0.089149	0.522299
O27	O	1.538956	0.422483	0.855633
O28	O	0.787650	-0.116174	0.244165
O29	O	1.120983	0.217159	0.577498
O30	O	1.454317	0.550492	0.910831
O31	O	0.723356	-0.188963	0.116117
O32	O	1.056689	0.144371	0.449450
O33	O	1.390023	0.477704	0.782784
O34	O	0.638598	-0.188970	0.188928
O35	O	0.971931	0.144363	0.522262
O36	O	1.305265	0.477696	0.855595
O37	O	0.723312	-0.244198	0.316945
O38	O	1.056645	0.089135	0.650279
O39	O	1.389978	0.422469	0.983612
O40	O	0.638548	-0.244168	0.244096
O41	O	0.971882	0.089166	0.577429
O42	O	1.305215	0.422499	0.910762
O43	O	0.787585	-0.189024	0.316975
O44	O	1.120918	0.144309	0.650309
O45	O	1.454252	0.477643	0.983642
O46	O	0.787461	-0.317003	0.188927
O47	O	1.120795	0.016330	0.522260
O48	O	1.454128	0.349663	0.855594
O49	O	0.723241	-0.317009	0.244095
O50	O	1.056575	0.016324	0.577428
O51	O	1.389908	0.349657	0.910762
C52	C	0.619602	-0.216567	0.216508
C53	C	0.952936	0.116767	0.549841
C54	C	1.286269	0.450100	0.883175
C55	C	0.561488	-0.216570	0.216506
C56	C	0.894822	0.116763	0.549839
C57	C	1.228155	0.450097	0.883172
C58	C	0.201108	-0.245374	0.245237
C59	C	0.534442	0.087960	0.578570
C60	C	0.867775	0.421293	0.911904
C61	C	0.146504	-0.245376	0.245244
C62	C	0.479837	0.087957	0.578577
C63	C	0.813171	0.421290	0.911911
O64	O	0.118253	-0.269844	0.269647
O65	O	0.451586	0.063489	0.602980
O66	O	0.784920	0.396822	0.936313
N67	N	0.119206	-0.216597	0.216568
N68	N	0.452539	0.116736	0.549901
N69	N	0.785872	0.450070	0.883234
C70	C	0.146515	-0.187810	0.187886
C71	C	0.479848	0.145524	0.521219
C72	C	0.813181	0.478857	0.854553
O73	O	0.118281	-0.163330	0.163495
O74	O	0.451615	0.170003	0.496829
O75	O	0.784948	0.503336	0.830162
C76	C	0.201118	-0.187805	0.187881
C77	C	0.534451	0.145528	0.521215
C78	C	0.867785	0.478862	0.854548
C79	C	0.228413	-0.216590	0.216556
C80	C	0.561747	0.116744	0.549890
C81	C	0.895080	0.450077	0.883223
C82	C	0.228404	-0.274156	0.273910
C83	C	0.561737	0.059178	0.607243
C84	C	0.895070	0.392511	0.940577
C85	C	0.283004	-0.274153	0.273902
C86	C	0.616338	0.059180	0.607235
C87	C	0.949671	0.392513	0.940569
C88	C	0.310309	-0.245369	0.245221
C89	C	0.643643	0.087964	0.578555
C90	C	0.976976	0.421298	0.911888
C91	C	0.283014	-0.216587	0.216548
C92	C	0.616347	0.116746	0.549882
C93	C	0.949681	0.450079	0.883215
C94	C	0.228426	-0.159016	0.159202
C95	C	0.561759	0.174318	0.492535
C96	C	0.895092	0.507651	0.825869
C97	C	0.283033	-0.159013	0.159200
C98	C	0.616366	0.174320	0.492534
C99	C	0.949699	0.507653	0.825867
C100	C	0.310328	-0.187798	0.187875
C101	C	0.643662	0.145536	0.521208
C102	C	0.976995	0.478869	0.854542
C103	C	0.364919	-0.187801	0.187860
C104	C	0.698253	0.145533	0.521193
C105	C	1.031586	0.478866	0.854527
N106	N	0.392218	-0.216580	0.216536
N107	N	0.725551	0.116753	0.549870
N108	N	1.058884	0.450086	0.883203
C109	C	0.364913	-0.245364	0.245217
C110	C	0.698246	0.087969	0.578550
C111	C	1.031579	0.421302	0.911884
C112	C	0.031844	-0.187821	0.187898
C113	C	0.365177	0.145512	0.521231
C114	C	0.698511	0.478846	0.854565
C115	C	-0.022758	-0.187828	0.187900
C116	C	0.310575	0.145506	0.521233
C117	C	0.643908	0.478839	0.854567
C118	C	-0.022765	-0.245394	0.245259
C119	C	0.310568	0.087939	0.578592
C120	C	0.643901	0.421273	0.911925
C121	C	0.031838	-0.245389	0.245254
C122	C	0.365171	0.087944	0.578588
C123	C	0.698505	0.421277	0.911921
C124	C	0.059142	-0.216601	0.216574
C125	C	0.392476	0.116733	0.549908
C126	C	0.725809	0.450066	0.883241
C127	C	0.479578	-0.245358	0.245198
C128	C	0.812911	0.087976	0.578531
C129	C	1.146244	0.421309	0.911865
C130	C	0.534183	-0.245354	0.245186
C131	C	0.867516	0.087979	0.578520
C132	C	1.200850	0.421312	0.911853
C133	C	0.534185	-0.187786	0.187829
C134	C	0.867519	0.145547	0.521163
C135	C	1.200852	0.478880	0.854496
C136	C	0.479585	-0.187791	0.187839
C137	C	0.812918	0.145542	0.521173
C138	C	1.146251	0.478875	0.854506
C139	C	0.452282	-0.216579	0.216527
C140	C	0.785616	0.116755	0.549860
C141	C	1.118949	0.450088	0.883194
O142	O	0.393205	-0.163344	0.163471
O143	O	0.726539	0.169989	0.496805
O144	O	1.059872	0.503323	0.830138
O145	O	0.393153	-0.269835	0.269607
O146	O	0.726486	0.063498	0.602941
O147	O	1.059819	0.396831	0.936274
C148	C	0.755350	-0.333307	0.216516
C149	C	1.088684	0.000026	0.549850
C150	C	1.422017	0.333360	0.883183
C151	C	0.755358	-0.383242	0.216522
C152	C	1.088691	-0.049908	0.549855
C153	C	1.422024	0.283425	0.883188
C154	C	0.788945	-0.692869	0.187855
C155	C	1.122278	-0.359536	0.521188
C156	C	1.455612	-0.026203	0.854521
C157	C	0.789009	-0.880542	0.187872
C158	C	1.122343	-0.547209	0.521205
C159	C	1.455676	-0.213876	0.854539
O160	O	0.817491	-0.904794	0.163481
O161	O	1.150825	-0.571460	0.496814
O162	O	1.484158	-0.238127	0.830148
N163	N	0.755553	-0.904027	0.216572
N164	N	1.088887	-0.570693	0.549906
N165	N	1.422220	-0.237360	0.883239
C166	C	0.722081	-0.880590	0.245273
C167	C	1.055414	-0.547257	0.578606
C168	C	1.388748	-0.213923	0.911939
O169	O	0.693630	-0.904871	0.269688
O170	O	1.026963	-0.571538	0.603021
O171	O	1.360296	-0.238204	0.936354
C172	C	0.722019	-0.692918	0.245257
C173	C	1.055353	-0.359584	0.578590
C174	C	1.388686	-0.026251	0.911924
C175	C	0.755474	-0.669436	0.216552
C176	C	1.088807	-0.336102	0.549885
C177	C	1.422141	-0.002769	0.883218
C178	C	0.822397	-0.669387	0.159152
C179	C	1.155731	-0.336054	0.492485
C180	C	1.489064	-0.002721	0.825818
C181	C	0.822379	-0.622472	0.159146
C182	C	1.155712	-0.289138	0.492479
C183	C	1.489045	0.044195	0.825813
C184	C	0.788908	-0.599038	0.187843
C185	C	1.122241	-0.265705	0.521176
C186	C	1.455575	0.067628	0.854510
C187	C	0.755456	-0.622520	0.216546
C188	C	1.088789	-0.289187	0.549879
C189	C	1.422122	0.044146	0.883212
C190	C	0.688550	-0.669482	0.273959
C191	C	1.021883	-0.336148	0.607293
C192	C	1.355217	-0.002815	0.940626
C193	C	0.688539	-0.622561	0.273954
C194	C	1.021872	-0.289227	0.607287
C195	C	1.355205	0.044106	0.940620
C196	C	0.721993	-0.599079	0.245248
C197	C	1.055327	-0.265745	0.578581
C198	C	1.388660	0.067588	0.911915
C199	C	0.721966	-0.552171	0.245237
C200	C	1.055300	-0.218838	0.578570
C201	C	1.388633	0.114495	0.911904
N202	N	0.755422	-0.528687	0.216537
N203	N	1.088756	-0.195354	0.549870
N204	N	1.422089	0.137980	0.883203
C205	C	0.788893	-0.552120	0.187840
C206	C	1.122227	-0.218787	0.521173
C207	C	1.455560	0.114546	0.854506
C208	C	0.722115	-0.979120	0.245278
C209	C	1.055448	-0.645787	0.578611
C210	C	1.388781	-0.312454	0.911945
C211	C	0.722129	-1.026038	0.245282
C212	C	1.055463	-0.692705	0.578615
C213	C	1.388796	-0.359372	0.911948
C214	C	0.789059	-1.025987	0.187881
C215	C	1.122392	-0.692654	0.521215
C216	C	1.455725	-0.359321	0.854548
C217	C	0.789041	-0.979069	0.187876
C218	C	1.122374	-0.645735	0.521209
C219	C	1.455708	-0.312402	0.854543
C220	C	0.755571	-0.955636	0.216578
C221	C	1.088904	-0.622303	0.549911
C222	C	1.422238	-0.288969	0.883244
C223	C	0.788852	-0.453595	0.187829
C224	C	1.122185	-0.120261	0.521163
C225	C	1.455518	0.213072	0.854496
C226	C	0.788829	-0.406675	0.187825
C227	C	1.122162	-0.073342	0.521158
C228	C	1.455495	0.259992	0.854491
C229	C	0.721901	-0.406730	0.245226
C230	C	1.055235	-0.073397	0.578560
C231	C	1.388568	0.259937	0.911893
C232	C	0.721922	-0.453645	0.245229
C233	C	1.055256	-0.120312	0.578563
C234	C	1.388589	0.213021	0.911896
C235	C	0.755402	-0.477077	0.216529
C236	C	1.088735	-0.143743	0.549863
C237	C	1.422068	0.189590	0.883196
O238	O	0.693503	-0.527891	0.269619
O239	O	1.026837	-0.194558	0.602952
O240	O	1.360170	0.138776	0.936286
O241	O	0.817349	-0.527831	0.163435
O242	O	1.150682	-0.194498	0.496768
O243	O	1.484015	0.138835	0.830102
C244	C	0.788963	-0.739785	0.187860
C245	C	1.122297	-0.406451	0.521194
C246	C	1.455630	-0.073118	0.854527
C247	C	0.755511	-0.763267	0.216563
C248	C	1.088844	-0.429933	0.549897
C249	C	1.422178	-0.096600	0.883230
C250	C	0.722040	-0.739833	0.245260
C251	C	1.055374	-0.406500	0.578594
C252	C	1.388707	-0.073166	0.911927
C253	C	0.755526	-0.810184	0.216567
C254	C	1.088859	-0.476851	0.549900
C255	C	1.422192	-0.143518	0.883233
C256	C	0.788996	-0.833618	0.187870
C257	C	1.122330	-0.500285	0.521203
C258	C	1.455663	-0.166951	0.854536
C259	C	0.822453	-0.810134	0.159169
C260	C	1.155786	-0.476800	0.492502
C261	C	1.489119	-0.143467	0.825836
C262	C	0.822434	-0.763218	0.159163
C263	C	1.155768	-0.429885	0.492497
C264	C	1.489101	-0.096551	0.825830
C265	C	0.688584	-0.763318	0.273961
C266	C	1.021917	-0.429984	0.607294
C267	C	1.355251	-0.096651	0.940627
C268	C	0.688605	-0.810233	0.273964
C269	C	1.021938	-0.476900	0.607297
C270	C	1.355271	-0.143566	0.940630
C271	C	0.722076	-0.833666	0.245267
C272	C	1.055409	-0.500333	0.578600
C273	C	1.388742	-0.167000	0.911933
C274	C	0.891818	-0.216603	0.216569
C275	C	1.225151	0.116731	0.549903
C276	C	1.558484	0.450064	0.883236
C277	C	0.949932	-0.216610	0.216582
C278	C	1.283265	0.116723	0.549916
C279	C	1.616598	0.450056	0.883249
C280	C	0.755449	-0.216615	0.333717
C281	C	1.088782	0.116718	0.667050
C282	C	1.422116	0.450051	1.000384
C283	C	0.755451	-0.216628	0.383651
C284	C	1.088784	0.116705	0.716985
C285	C	1.422117	0.450038	1.050318
C286	C	0.755554	-0.099406	0.216571
C287	C	1.088887	0.233927	0.549904
C288	C	1.422220	0.567260	0.883237
C289	C	0.755600	-0.049472	0.216584
C290	C	1.088934	0.283862	0.549918
C291	C	1.422267	0.617195	0.883251
C292	C	0.721978	-0.245323	0.740223
C293	C	1.055311	0.088011	1.073556
C294	C	1.388644	0.421344	1.406890
C295	C	0.721981	-0.245339	0.552550
C296	C	1.055314	0.087995	0.885883
C297	C	1.388648	0.421328	1.219217
O298	O	0.693508	-0.269757	0.528272
O299	O	1.026842	0.063576	0.861606
O300	O	1.360175	0.396909	1.194939
N301	N	0.755445	-0.216615	0.529096
N302	N	1.088778	0.116719	0.862430
N303	N	1.422112	0.450052	1.195763
C304	C	0.788908	-0.187883	0.552564
C305	C	1.122241	0.145451	0.885897
C306	C	1.455575	0.478784	1.219231
O307	O	0.817367	-0.163448	0.528309
O308	O	1.150701	0.169885	0.861642
O309	O	1.484034	0.503218	1.194976
C310	C	0.788901	-0.187865	0.740236
C311	C	1.122235	0.145469	1.073570
C312	C	1.455568	0.478802	1.406903
C313	C	0.755439	-0.216594	0.763687
C314	C	1.088772	0.116740	1.097021
C315	C	1.422106	0.450073	1.430354
C316	C	0.688517	-0.274049	0.763674
C317	C	1.021851	0.059284	1.097008
C318	C	1.355184	0.392618	1.430341
C319	C	0.688519	-0.274046	0.810590
C320	C	1.021852	0.059287	1.143923
C321	C	1.355186	0.392620	1.477256
C322	C	0.721980	-0.245318	0.834054
C323	C	1.055314	0.088016	1.167387
C324	C	1.388647	0.421349	1.500721
C325	C	0.755441	-0.216591	0.810603
C326	C	1.088774	0.116742	1.143936
C327	C	1.422107	0.450075	1.477269
C328	C	0.822361	-0.159131	0.763703
C329	C	1.155695	0.174203	1.097036
C330	C	1.489028	0.507536	1.430370
C331	C	0.822356	-0.159128	0.810624
C332	C	1.155689	0.174205	1.143957
C333	C	1.489023	0.507539	1.477291
C334	C	0.788894	-0.187857	0.834075
C335	C	1.122227	0.145476	1.167408
C336	C	1.455560	0.478810	1.500742
C337	C	0.788904	-0.187860	0.880983
C338	C	1.122237	0.145474	1.214316
C339	C	1.455570	0.478807	1.547649
N340	N	0.755440	-0.216584	0.904436
N341	N	1.088773	0.116750	1.237769
N342	N	1.422106	0.450083	1.571103
C343	C	0.721978	-0.245313	0.880972
C344	C	1.055311	0.088021	1.214305
C345	C	1.388645	0.421354	1.547638
C346	C	0.788910	-0.187895	0.454033
C347	C	1.122243	0.145439	0.787367
C348	C	1.455577	0.478772	1.120700
C349	C	0.788912	-0.187900	0.407116
C350	C	1.122246	0.145434	0.740449
C351	C	1.455579	0.478767	1.073782
C352	C	0.721984	-0.245355	0.407105
C353	C	1.055318	0.087978	0.740438
C354	C	1.388651	0.421312	1.073771
C355	C	0.721985	-0.245352	0.454023
C356	C	1.055318	0.087981	0.787357
C357	C	1.388652	0.421315	1.120690
C358	C	0.755446	-0.216619	0.477487
C359	C	1.088779	0.116715	0.810820
C360	C	1.422113	0.450048	1.144154
C361	C	0.721984	-0.245305	0.979498
C362	C	1.055317	0.088028	1.312831
C363	C	1.388651	0.421361	1.646164
C364	C	0.721990	-0.245302	1.026417
C365	C	1.055323	0.088032	1.359751
C366	C	1.388657	0.421365	1.693084
C367	C	0.788916	-0.187845	1.026424
C368	C	1.122249	0.145489	1.359757
C369	C	1.455582	0.478822	1.693091
C370	C	0.788912	-0.187850	0.979508
C371	C	1.122245	0.145483	1.312842
C372	C	1.455578	0.478817	1.646175
C373	C	0.755442	-0.216582	0.956046
C374	C	1.088775	0.116752	1.289380
C375	C	1.422108	0.450085	1.622713
O376	O	0.817357	-0.163450	0.905289
O377	O	1.150690	0.169883	1.238623
O378	O	1.484024	0.503217	1.571956
O379	O	0.693515	-0.269736	0.905235
O380	O	1.026848	0.063597	1.238568
O381	O	1.360181	0.396930	1.571901
C382	C	0.721976	-0.245325	0.693308
C383	C	1.055309	0.088008	1.026641
C384	C	1.388643	0.421341	1.359974
C385	C	0.755436	-0.216599	0.669856
C386	C	1.088769	0.116734	1.003190
C387	C	1.422103	0.450068	1.336523
C388	C	0.788898	-0.187870	0.693321
C389	C	1.122231	0.145463	1.026654
C390	C	1.455564	0.478797	1.359987
C391	C	0.755439	-0.216604	0.622939
C392	C	1.088772	0.116730	0.956272
C393	C	1.422105	0.450063	1.289605
C394	C	0.721977	-0.245333	0.599474
C395	C	1.055310	0.088001	0.932808
C396	C	1.388644	0.421334	1.266141
C397	C	0.688513	-0.274057	0.622928
C398	C	1.021846	0.059277	0.956261
C399	C	1.355180	0.392610	1.289594
C400	C	0.688514	-0.274054	0.669843
C401	C	1.021848	0.059279	1.003177
C402	C	1.355181	0.392613	1.336510
C403	C	0.822362	-0.159146	0.669867
C404	C	1.155695	0.174187	1.003201
C405	C	1.489028	0.507521	1.336534
C406	C	0.822358	-0.159151	0.622952
C407	C	1.155691	0.174182	0.956285
C408	C	1.489025	0.507515	1.289618
C409	C	0.788896	-0.187880	0.599487
C410	C	1.122230	0.145453	0.932821
C411	C	1.455563	0.478786	1.266154
C412	C	0.755441	-0.216569	1.099816
C413	C	1.088774	0.116764	1.433149
C414	C	1.422108	0.450097	1.766483
C415	C	0.755451	-0.216573	1.049882
C416	C	1.088785	0.116761	1.383215
C417	C	1.422118	0.450094	1.716548
H418	H	0.305261	-0.135567	0.135848
H419	H	0.638594	0.197767	0.469181
H420	H	0.971928	0.531100	0.802514
N421	N	0.652424	-0.305029	0.835881
N422	N	0.985757	0.028304	1.169215
N423	N	1.319090	0.361638	1.502548
H424	H	0.660514	-0.337129	0.827718
H425	H	0.993847	-0.003796	1.161051
H426	H	1.327181	0.329538	1.494384
H427	H	0.615090	-0.298007	0.827692
H428	H	0.948423	0.035327	1.161025
H429	H	1.281756	0.368660	1.494358
N430	N	0.858449	-0.128140	0.835933
N431	N	1.191782	0.205193	1.169267
N432	N	1.525115	0.538527	1.502600
H433	H	0.837219	-0.107318	0.855393
H434	H	1.170552	0.226016	1.188726
H435	H	1.503886	0.559349	1.522060
H436	H	0.879639	-0.109973	0.813928
H437	H	1.212972	0.223361	1.147262
H438	H	1.546306	0.556694	1.480595
H439	H	0.849612	-0.135757	0.603862
H440	H	1.182945	0.197576	0.937195
H441	H	1.516279	0.530909	1.270528
N442	N	0.450133	-0.276410	0.276134
N443	N	0.783467	0.056923	0.609467
N444	N	1.116800	0.390256	0.942800
H445	H	0.427501	-0.258198	0.296993
H446	H	0.760834	0.075136	0.630326
H447	H	1.094168	0.408469	0.963660
H448	H	0.475749	-0.294636	0.294263
H449	H	0.809082	0.038697	0.627596
H450	H	1.142416	0.372030	0.960930
H451	H	0.849676	-0.744102	0.135789
H452	H	1.183010	-0.410769	0.469122
H453	H	1.516343	-0.077436	0.802455
H454	H	0.206211	-0.135577	0.135851
H455	H	0.539545	0.197756	0.469184
H456	H	0.872878	0.531089	0.802517
N457	N	0.858549	-0.835413	0.128213
N458	N	1.191883	-0.502079	0.461546
N459	N	1.525216	-0.168746	0.794879
H460	H	0.853480	-0.868697	0.132575
H461	H	1.186813	-0.535364	0.465908
H462	H	1.520146	-0.202031	0.799241
H463	H	0.895883	-0.827184	0.135237
H464	H	1.229216	-0.493850	0.468570
H465	H	1.562549	-0.160517	0.801904
N466	N	0.825158	-1.051270	0.156930
N467	N	1.158492	-0.717936	0.490263
N468	N	1.491825	-0.384603	0.823596
H469	H	0.849372	-1.070715	0.175216
H470	H	1.182706	-0.737381	0.508550
H471	H	1.516039	-0.404048	0.841883
H472	H	0.846320	-1.029251	0.138751
H473	H	1.179653	-0.695918	0.472085
H474	H	1.512987	-0.362584	0.805418
H475	H	0.661357	-0.829348	0.297339
H476	H	0.994691	-0.496015	0.630672
H477	H	1.328024	-0.162681	0.964006
H478	H	0.305223	-0.297592	0.297253
H479	H	0.638557	0.035742	0.630586
H480	H	0.971890	0.369075	0.963920
H481	H	0.849610	-0.135751	0.688967
H482	H	1.182944	0.197583	1.022300
H483	H	1.516277	0.530916	1.355634
H484	H	0.661284	-0.603484	0.297328
H485	H	0.994617	-0.270151	0.630661
H486	H	1.327950	0.063183	0.963994
H487	H	0.206178	-0.297595	0.297268
H488	H	0.539511	0.035738	0.630601
H489	H	0.872844	0.369071	0.963934
N490	N	0.061295	-0.156776	0.156957
N491	N	0.394629	0.176557	0.490291
N492	N	0.727962	0.509890	0.823624
H493	H	0.083972	-0.135987	0.175248
H494	H	0.417306	0.197347	0.508581
H495	H	0.750639	0.530680	0.841915
H496	H	0.035683	-0.138577	0.138798
H497	H	0.369016	0.194756	0.472131
H498	H	0.702350	0.528090	0.805464
N499	N	0.825005	-0.156908	0.479342
N500	N	1.158338	0.176426	0.812675
N501	N	1.491671	0.509759	1.146009
H502	H	0.803777	-0.136082	0.498800
H503	H	1.137110	0.197251	0.832133
H504	H	1.470443	0.530584	1.165466
H505	H	0.846198	-0.138743	0.457336
H506	H	1.179531	0.194590	0.790670
H507	H	1.512864	0.527923	1.124003
H508	H	0.661266	-0.297448	0.688933
H509	H	0.994599	0.035885	1.022266
H510	H	1.327932	0.369219	1.355600
H511	H	0.661329	-0.744242	0.297330
H512	H	0.994662	-0.410908	0.630663
H513	H	1.327995	-0.077575	0.963997
N514	N	0.858498	-0.694660	0.128197
N515	N	1.191831	-0.361327	0.461530
N516	N	1.525165	-0.027993	0.794863
H517	H	0.895846	-0.686463	0.135206
H518	H	1.229179	-0.353129	0.468539
H519	H	1.562512	-0.019796	0.801872
H520	H	0.850354	-0.686489	0.096104
H521	H	1.183688	-0.353156	0.429437
H522	H	1.517021	-0.019823	0.762771
N523	N	0.685893	-0.276333	0.479320
N524	N	1.019226	0.057001	0.812654
N525	N	1.352559	0.390334	1.145987
H526	H	0.693984	-0.308434	0.471162
H527	H	1.027317	0.024900	0.804495
H528	H	1.360651	0.358233	1.137828
H529	H	0.648557	-0.269313	0.471133
H530	H	0.981891	0.064020	0.804466
H531	H	1.315224	0.397353	1.137799
N532	N	0.685894	-0.276343	0.381793
N533	N	1.019227	0.056991	0.715126
N534	N	1.352560	0.390324	1.048459
H535	H	0.690976	-0.271983	0.348513
H536	H	1.024309	0.061350	0.681846
H537	H	1.357642	0.394683	1.015179
H538	H	0.648559	-0.269342	0.389981
H539	H	0.981892	0.063991	0.723314
H540	H	1.315225	0.397324	1.056647
H541	H	0.054058	-0.268828	0.268605
H542	H	0.387392	0.064506	0.601938
H543	H	0.720725	0.397839	0.935271
N544	N	0.685899	-0.276290	1.051711
N545	N	1.019232	0.057043	1.385044
N546	N	1.352565	0.390376	1.718378
H547	H	0.664700	-0.294488	1.029724
H548	H	0.998034	0.038845	1.363057
H549	H	1.331367	0.372178	1.696391
H550	H	0.661718	-0.258001	1.071171
H551	H	0.995052	0.075332	1.404505
H552	H	1.328385	0.408666	1.737838
N553	N	0.450141	-0.156752	0.156907
N554	N	0.783474	0.176581	0.490240
N555	N	1.116807	0.509915	0.823574
H556	H	0.475726	-0.138519	0.138736
H557	H	0.809059	0.194815	0.472069
H558	H	1.142393	0.528148	0.805402
H559	H	0.427512	-0.135994	0.175236
H560	H	0.760845	0.197339	0.508569
H561	H	1.094178	0.530673	0.841902
H562	H	-0.045007	-0.268830	0.268614
H563	H	0.288326	0.064503	0.601947
H564	H	0.621660	0.397836	0.935280
H565	H	0.661266	-0.297443	0.744574
H566	H	0.994599	0.035890	1.077908
H567	H	1.327932	0.369223	1.411241
H568	H	0.556427	-0.164352	0.164477
H569	H	0.889760	0.168981	0.497810
H570	H	1.223094	0.502314	0.831144
N571	N	0.825011	-0.156918	0.381827
N572	N	1.158344	0.176415	0.715160
N573	N	1.491678	0.509749	1.048494
H574	H	0.803786	-0.136097	0.362352
H575	H	1.137119	0.197236	0.695685
H576	H	1.470452	0.530569	1.029018
H577	H	0.849220	-0.175212	0.362396
H578	H	1.182553	0.158122	0.695730
H579	H	1.515886	0.491455	1.029063
N580	N	0.824914	-0.381348	0.156864
N581	N	1.158248	-0.048015	0.490197
N582	N	1.491581	0.285319	0.823530
H583	H	0.846122	-0.403315	0.138688
H584	H	1.179455	-0.069982	0.472021
H585	H	1.512789	0.263351	0.805354
H586	H	0.849086	-0.361860	0.175172
H587	H	1.182419	-0.028527	0.508506
H588	H	1.515753	0.304807	0.841839
N589	N	0.858454	-0.128144	0.738417
N590	N	1.191787	0.205189	1.071750
N591	N	1.525120	0.538522	1.405084
H592	H	0.879645	-0.109945	0.760407
H593	H	1.212979	0.223388	1.093741
H594	H	1.546312	0.556722	1.427074
H595	H	0.837190	-0.107352	0.718945
H596	H	1.170523	0.225981	1.052278
H597	H	1.503856	0.559314	1.385611
N598	N	0.824961	-0.478863	0.156875
N599	N	1.158294	-0.145529	0.490209
N600	N	1.491627	0.187804	0.823542
H601	H	0.846146	-0.456862	0.138693
H602	H	1.179480	-0.123529	0.472027
H603	H	1.512813	0.209805	0.805360
H604	H	0.803705	-0.498349	0.136066
H605	H	1.137039	-0.165016	0.469400
H606	H	1.470372	0.168318	0.802733
N607	N	-0.052196	-0.156788	0.156966
N608	N	0.281138	0.176545	0.490299
N609	N	0.614471	0.509878	0.823632
H610	H	-0.026607	-0.138555	0.138797
H611	H	0.306726	0.194778	0.472130
H612	H	0.640059	0.528111	0.805463
H613	H	-0.074827	-0.136030	0.175291
H614	H	0.258506	0.197303	0.508624
H615	H	0.591839	0.530637	0.841958
N616	N	0.858470	-0.597148	0.128192
N617	N	1.191803	-0.263815	0.461525
N618	N	1.525137	0.069519	0.794858
H619	H	0.879676	-0.619118	0.110018
H620	H	1.213010	-0.285785	0.443351
H621	H	1.546343	0.047548	0.776685
H622	H	0.882642	-0.577664	0.146504
H623	H	1.215975	-0.244331	0.479837
H624	H	1.549309	0.089002	0.813171
H625	H	0.694725	-0.268698	0.960400
H626	H	1.028058	0.064636	1.293734
H627	H	1.361391	0.397969	1.627067
N628	N	0.825125	-0.953743	0.156917
N629	N	1.158459	-0.620410	0.490250
N630	N	1.491792	-0.287077	0.823584
H631	H	0.846329	-0.975712	0.138739
H632	H	1.179662	-0.642379	0.472073
H633	H	1.512996	-0.309045	0.805406
H634	H	0.849301	-0.934258	0.175225
H635	H	1.182634	-0.600925	0.508558
H636	H	1.515968	-0.267592	0.841892
H637	H	0.816163	-0.164460	0.960414
H638	H	1.149497	0.168874	1.293747
H639	H	1.482830	0.502207	1.627080
H640	H	0.661269	-0.297450	0.603815
H641	H	0.994603	0.035883	0.937148
H642	H	1.327936	0.369216	1.270482
N643	N	0.563623	-0.276404	0.276113
N644	N	0.896957	0.056930	0.609447
N645	N	1.230290	0.390263	0.942780
H646	H	0.538037	-0.294637	0.294284
H647	H	0.871370	0.038696	0.627617
H648	H	1.204703	0.372030	0.960950
H649	H	0.586303	-0.258155	0.296935
H650	H	0.919636	0.075178	0.630268
H651	H	1.252970	0.408512	0.963602
N652	N	0.686038	-1.051363	0.276235
N653	N	1.019371	-0.718029	0.609568
N654	N	1.352704	-0.384696	0.942901
H655	H	0.664834	-1.029394	0.294412
H656	H	0.998167	-0.696061	0.627745
H657	H	1.331500	-0.362727	0.961079
H658	H	0.707304	-1.070811	0.297048
H659	H	1.040637	-0.737478	0.630382
H660	H	1.373971	-0.404144	0.963715
N661	N	0.825005	-0.156858	1.051734
N662	N	1.158338	0.176476	1.385068
N663	N	1.491672	0.509809	1.718401
H664	H	0.849218	-0.175115	1.071209
H665	H	1.182551	0.158219	1.404543
H666	H	1.515884	0.491552	1.737876
H667	H	0.803733	-0.136044	1.071167
H668	H	1.137067	0.197289	1.404500
H669	H	1.470400	0.530623	1.737833
N670	N	0.686010	-0.953850	0.276235
N671	N	1.019343	-0.620516	0.609568
N672	N	1.352677	-0.287183	0.942901
H673	H	0.664819	-0.975850	0.294413
H674	H	0.998153	-0.642517	0.627746
H675	H	1.331486	-0.309184	0.961079
H676	H	0.661824	-0.934405	0.257923
H677	H	0.995157	-0.601072	0.591256
H678	H	1.328490	-0.267739	0.924590
H679	H	0.661305	-0.688593	0.297332
H680	H	0.994639	-0.355259	0.630666
H681	H	1.327972	-0.021926	0.963999
H682	H	0.694682	-0.472765	0.268605
H683	H	1.028016	-0.139432	0.601939
H684	H	1.361349	0.193901	0.935272
H685	H	0.694648	-0.387643	0.268590
H686	H	1.027982	-0.054310	0.601923
H687	H	1.361315	0.279024	0.935257
