data_functionalizedCrystal
_audit_creation_method	'MofGen! by Chris Wilmer'
_symmetry_space_group_name_H-M	'P1'
_symmetry_Int_Tables_number	1
_symmetry_cell_setting	triclinic
loop_
_symmetry_equiv_pos_as_xyz
  x,y,z
_cell_length_a	25.639240
_cell_length_b	25.639242
_cell_length_c	25.639243
_cell_angle_alpha	89.984842
_cell_angle_beta	90.001726
_cell_angle_gamma	89.972413
loop_
_atom_site_label
_atom_site_type_symbol
_atom_site_fract_x
_atom_site_fract_y
_atom_site_fract_z
Zn1	Zn	-0.208339	-0.799213	0.295760
Zn2	Zn	0.041661	-0.549213	0.545760
Zn3	Zn	0.291661	-0.299213	0.795760
Zn4	Zn	0.541661	-0.049213	1.045760
Zn5	Zn	-0.295739	-0.799157	0.208332
Zn6	Zn	-0.045739	-0.549157	0.458332
Zn7	Zn	0.204261	-0.299157	0.708332
Zn8	Zn	0.454261	-0.049157	0.958332
Zn9	Zn	-0.208313	-0.711800	0.208324
Zn10	Zn	0.041687	-0.461800	0.458324
Zn11	Zn	0.291687	-0.211800	0.708324
Zn12	Zn	0.541687	0.038200	0.958324
Zn13	Zn	-0.295738	-0.711744	0.295722
Zn14	Zn	-0.045738	-0.461744	0.545722
Zn15	Zn	0.204262	-0.211744	0.795722
Zn16	Zn	0.454262	0.038256	1.045722
O17	O	-0.252032	-0.755479	0.252035
O18	O	-0.002032	-0.505479	0.502035
O19	O	0.247968	-0.255479	0.752035
O20	O	0.497968	-0.005479	1.002035
O21	O	-0.219944	-0.872371	0.284182
O22	O	0.030056	-0.622371	0.534182
O23	O	0.280056	-0.372371	0.784182
O24	O	0.530056	-0.122371	1.034182
O25	O	-0.284131	-0.787569	0.135166
O26	O	-0.034131	-0.537569	0.385166
O27	O	0.215869	-0.287569	0.635166
O28	O	0.465869	-0.037569	0.885166
O29	O	-0.135151	-0.723442	0.219936
O30	O	0.114849	-0.473442	0.469936
O31	O	0.364849	-0.223442	0.719936
O32	O	0.614849	0.026558	0.969936
O33	O	-0.284157	-0.872330	0.219949
O34	O	-0.034157	-0.622330	0.469949
O35	O	0.215843	-0.372330	0.719949
O36	O	0.465843	-0.122330	0.969949
O37	O	-0.135170	-0.787664	0.284174
O38	O	0.114830	-0.537664	0.534174
O39	O	0.364830	-0.287664	0.784174
O40	O	0.614830	-0.037664	1.034174
O41	O	-0.219900	-0.723388	0.135160
O42	O	0.030100	-0.473388	0.385160
O43	O	0.280100	-0.223388	0.635160
O44	O	0.530100	0.026612	0.885160
O45	O	-0.219899	-0.638627	0.219899
O46	O	0.030101	-0.388627	0.469899
O47	O	0.280101	-0.138627	0.719899
O48	O	0.530101	0.111373	0.969899
O49	O	-0.284155	-0.723347	0.368892
O50	O	-0.034155	-0.473347	0.618892
O51	O	0.215845	-0.223347	0.868892
O52	O	0.465845	0.026653	1.118892
O53	O	-0.284130	-0.638587	0.284110
O54	O	-0.034130	-0.388587	0.534110
O55	O	0.215870	-0.138587	0.784110
O56	O	0.465870	0.111413	1.034110
O57	O	-0.219943	-0.787610	0.368920
O58	O	0.030057	-0.537610	0.618920
O59	O	0.280057	-0.287610	0.868920
O60	O	0.530057	-0.037610	1.118920
O61	O	-0.368904	-0.787515	0.219912
O62	O	-0.118904	-0.537515	0.469912
O63	O	0.131096	-0.287515	0.719912
O64	O	0.381096	-0.037515	0.969912
O65	O	-0.368903	-0.723293	0.284117
O66	O	-0.118903	-0.473293	0.534117
O67	O	0.131097	-0.223293	0.784117
O68	O	0.381097	0.026707	1.034117
C69	C	-0.252012	-0.619636	0.251999
C70	C	-0.002012	-0.369636	0.501999
C71	C	0.247988	-0.119636	0.751999
C72	C	0.497988	0.130364	1.001999
C73	C	-0.252015	-0.561522	0.251997
C74	C	-0.002015	-0.311522	0.501997
C75	C	0.247985	-0.061522	0.751997
C76	C	0.497985	0.188478	1.001997
C77	C	-0.387875	-0.755406	0.252023
C78	C	-0.137875	-0.505406	0.502023
C79	C	0.112125	-0.255406	0.752023
C80	C	0.362125	-0.005406	1.002023
C81	C	-0.445989	-0.755423	0.252035
C82	C	-0.195989	-0.505423	0.502035
C83	C	0.054011	-0.255423	0.752035
C84	C	0.304011	-0.005423	1.002035
C85	C	-0.252052	-0.755479	0.388408
C86	C	-0.002052	-0.505479	0.638408
C87	C	0.247948	-0.255479	0.888408
C88	C	0.497948	-0.005479	1.138408
C89	C	-0.252060	-0.755479	0.446522
C90	C	-0.002060	-0.505479	0.696522
C91	C	0.247940	-0.255479	0.946522
C92	C	0.497940	-0.005479	1.196522
C93	C	-0.697141	-0.788916	0.285518
C94	C	-0.447141	-0.538916	0.535518
C95	C	-0.197141	-0.288916	0.785518
C96	C	0.052859	-0.038916	1.035518
C97	C	-0.642537	-0.788900	0.285514
C98	C	-0.392537	-0.538900	0.535514
C99	C	-0.142537	-0.288900	0.785514
C100	C	0.107463	-0.038900	1.035514
O101	O	-0.614265	-0.817317	0.313965
O102	O	-0.364265	-0.567317	0.563965
O103	O	-0.114265	-0.317317	0.813965
O104	O	0.135735	-0.067317	1.063965
N105	N	-0.615263	-0.755481	0.252042
N106	N	-0.365263	-0.505481	0.502042
N107	N	-0.115263	-0.255481	0.752042
N108	N	0.134737	-0.005481	1.002042
C109	C	-0.642596	-0.722078	0.218567
C110	C	-0.392596	-0.472078	0.468567
C111	C	-0.142596	-0.222078	0.718567
C112	C	0.107404	0.027922	0.968567
O113	O	-0.614383	-0.693651	0.190096
O114	O	-0.364383	-0.443651	0.440096
O115	O	-0.114383	-0.193651	0.690096
O116	O	0.135617	0.056349	0.940096
C117	C	-0.697199	-0.722097	0.218569
C118	C	-0.447199	-0.472097	0.468569
C119	C	-0.197199	-0.222097	0.718569
C120	C	0.052801	0.027903	0.968569
C121	C	-0.724470	-0.755515	0.252047
C122	C	-0.474470	-0.505515	0.502047
C123	C	-0.224470	-0.255515	0.752047
C124	C	0.025530	-0.005515	1.002047
C125	C	-0.724412	-0.822332	0.318993
C126	C	-0.474412	-0.572332	0.568993
C127	C	-0.224412	-0.322332	0.818993
C128	C	0.025588	-0.072332	1.068993
C129	C	-0.779013	-0.822347	0.318998
C130	C	-0.529013	-0.572347	0.568998
C131	C	-0.279013	-0.322347	0.818998
C132	C	-0.029013	-0.072347	1.068998
C133	C	-0.806342	-0.788946	0.285527
C134	C	-0.556342	-0.538946	0.535527
C135	C	-0.306342	-0.288946	0.785527
C136	C	-0.056342	-0.038946	1.035527
C137	C	-0.779071	-0.755530	0.252052
C138	C	-0.529071	-0.505530	0.502052
C139	C	-0.279071	-0.255530	0.752052
C140	C	-0.029071	-0.005530	1.002052
C141	C	-0.724531	-0.688697	0.185092
C142	C	-0.474531	-0.438697	0.435092
C143	C	-0.224531	-0.188697	0.685092
C144	C	0.025469	0.061303	0.935092
C145	C	-0.779138	-0.688719	0.185097
C146	C	-0.529138	-0.438719	0.435097
C147	C	-0.279138	-0.188719	0.685097
C148	C	-0.029138	0.061281	0.935097
C149	C	-0.806410	-0.722138	0.218575
C150	C	-0.556410	-0.472138	0.468575
C151	C	-0.306410	-0.222138	0.718575
C152	C	-0.056410	0.027862	0.968575
C153	C	-0.861001	-0.722144	0.218586
C154	C	-0.611001	-0.472144	0.468586
C155	C	-0.361001	-0.222144	0.718586
C156	C	-0.111001	0.027856	0.968586
N157	N	-0.888275	-0.755564	0.252058
N158	N	-0.638275	-0.505564	0.502058
N159	N	-0.388275	-0.255564	0.752058
N160	N	-0.138275	-0.005564	1.002058
C161	C	-0.860945	-0.788965	0.285529
C162	C	-0.610945	-0.538965	0.535529
C163	C	-0.360945	-0.288965	0.785529
C164	C	-0.110945	-0.038965	1.035529
C165	C	-0.527925	-0.722042	0.218566
C166	C	-0.277925	-0.472042	0.468566
C167	C	-0.027925	-0.222042	0.718566
C168	C	0.222075	0.027958	0.968566
C169	C	-0.473323	-0.722020	0.218566
C170	C	-0.223323	-0.472020	0.468566
C171	C	0.026677	-0.222020	0.718566
C172	C	0.276677	0.027980	0.968566
C173	C	-0.473267	-0.788843	0.285513
C174	C	-0.223267	-0.538843	0.535513
C175	C	0.026733	-0.288843	0.785513
C176	C	0.276733	-0.038843	1.035513
C177	C	-0.527871	-0.788862	0.285514
C178	C	-0.277871	-0.538862	0.535514
C179	C	-0.027871	-0.288862	0.785514
C180	C	0.222129	-0.038862	1.035514
C181	C	-0.555199	-0.755462	0.252038
C182	C	-0.305199	-0.505462	0.502038
C183	C	-0.055199	-0.255462	0.752038
C184	C	0.194801	-0.005462	1.002038
C185	C	-0.975610	-0.788993	0.285536
C186	C	-0.725610	-0.538993	0.535536
C187	C	-0.475610	-0.288993	0.785536
C188	C	-0.225610	-0.038993	1.035536
C189	C	-1.030216	-0.789003	0.285539
C190	C	-0.780216	-0.539003	0.535539
C191	C	-0.530216	-0.289003	0.785539
C192	C	-0.280216	-0.039003	1.035539
C193	C	-1.030266	-0.722183	0.218591
C194	C	-0.780266	-0.472183	0.468591
C195	C	-0.530266	-0.222183	0.718591
C196	C	-0.280266	0.027817	0.968591
C197	C	-0.975666	-0.722170	0.218590
C198	C	-0.725666	-0.472170	0.468590
C199	C	-0.475666	-0.222170	0.718590
C200	C	-0.225666	0.027830	0.968590
C201	C	-0.948339	-0.755579	0.252064
C202	C	-0.698339	-0.505579	0.502064
C203	C	-0.448339	-0.255579	0.752064
C204	C	-0.198339	-0.005579	1.002064
O205	O	-0.889307	-0.693743	0.190148
O206	O	-0.639307	-0.443743	0.440148
O207	O	-0.389307	-0.193743	0.690148
O208	O	-0.139307	0.056257	0.940148
O209	O	-0.889165	-0.817392	0.313991
O210	O	-0.639165	-0.567392	0.563991
O211	O	-0.389165	-0.317392	0.813991
O212	O	-0.139165	-0.067392	1.063991
C213	C	-0.115659	-0.755565	0.252058
C214	C	0.134341	-0.505565	0.502058
C215	C	0.384341	-0.255565	0.752058
C216	C	0.634341	-0.005565	1.002058
C217	C	-0.057545	-0.755602	0.252068
C218	C	0.192455	-0.505602	0.502068
C219	C	0.442455	-0.255602	0.752068
C220	C	0.692455	-0.005602	1.002068
C221	C	-0.252053	-0.891852	0.252071
C222	C	-0.002053	-0.641852	0.502071
C223	C	0.247947	-0.391852	0.752071
C224	C	0.497947	-0.141852	1.002071
C225	C	-0.252062	-0.949966	0.252086
C226	C	-0.002062	-0.699966	0.502086
C227	C	0.247938	-0.449966	0.752086
C228	C	0.497938	-0.199966	1.002086
C229	C	-0.285533	-0.201147	0.285438
C230	C	-0.035533	0.048853	0.535438
C231	C	0.214467	0.298853	0.785438
C232	C	0.464467	0.548853	1.035438
C233	C	-0.285536	-0.146542	0.285446
C234	C	-0.035536	0.103458	0.535446
C235	C	0.214464	0.353458	0.785446
C236	C	0.464464	0.603458	1.035446
O237	O	-0.314009	-0.118295	0.313849
O238	O	-0.064009	0.131705	0.563849
O239	O	0.185991	0.381705	0.813849
O240	O	0.435991	0.631705	1.063849
N241	N	-0.252047	-0.119240	0.252069
N242	N	-0.002047	0.130760	0.502069
N243	N	0.247953	0.380760	0.752069
N244	N	0.497953	0.630760	1.002069
C245	C	-0.218548	-0.146544	0.218685
C246	C	0.031452	0.103456	0.468685
C247	C	0.281452	0.353456	0.718685
C248	C	0.531452	0.603456	0.968685
O249	O	-0.190062	-0.118307	0.190297
O250	O	0.059938	0.131693	0.440297
O251	O	0.309938	0.381693	0.690297
O252	O	0.559938	0.631693	0.940297
C253	C	-0.218542	-0.201147	0.218680
C254	C	0.031458	0.048853	0.468680
C255	C	0.281458	0.298853	0.718680
C256	C	0.531458	0.548853	0.968680
C257	C	-0.252038	-0.228447	0.252056
C258	C	-0.002038	0.021553	0.502056
C259	C	0.247962	0.271553	0.752056
C260	C	0.497962	0.521553	1.002056
C261	C	-0.319026	-0.228447	0.318811
C262	C	-0.069026	0.021553	0.568811
C263	C	0.180974	0.271553	0.818811
C264	C	0.430974	0.521553	1.068811
C265	C	-0.319023	-0.283047	0.318802
C266	C	-0.069023	-0.033047	0.568802
C267	C	0.180977	0.216953	0.818802
C268	C	0.430977	0.466953	1.068802
C269	C	-0.285528	-0.310348	0.285420
C270	C	-0.035528	-0.060348	0.535420
C271	C	0.214472	0.189652	0.785420
C272	C	0.464472	0.439652	1.035420
C273	C	-0.252035	-0.283048	0.252046
C274	C	-0.002035	-0.033048	0.502046
C275	C	0.247965	0.216952	0.752046
C276	C	0.497965	0.466952	1.002046
C277	C	-0.185041	-0.228451	0.185299
C278	C	0.064959	0.021549	0.435299
C279	C	0.314959	0.271549	0.685299
C280	C	0.564959	0.521549	0.935299
C281	C	-0.185038	-0.283058	0.185297
C282	C	0.064962	-0.033058	0.435297
C283	C	0.314962	0.216942	0.685297
C284	C	0.564962	0.466942	0.935297
C285	C	-0.218534	-0.310358	0.218673
C286	C	0.031466	-0.060358	0.468673
C287	C	0.281466	0.189642	0.718673
C288	C	0.531466	0.439642	0.968673
C289	C	-0.218537	-0.364949	0.218655
C290	C	0.031463	-0.114949	0.468655
C291	C	0.281463	0.135051	0.718655
C292	C	0.531463	0.385051	0.968655
N293	N	-0.252027	-0.392252	0.252032
N294	N	-0.002027	-0.142252	0.502032
N295	N	0.247973	0.107748	0.752032
N296	N	0.497973	0.357748	1.002032
C297	C	-0.285522	-0.364951	0.285414
C298	C	-0.035522	-0.114951	0.535414
C299	C	0.214478	0.135049	0.785414
C300	C	0.464478	0.385049	1.035414
C301	C	-0.218561	-0.031873	0.218699
C302	C	0.031439	0.218127	0.468699
C303	C	0.281439	0.468127	0.718699
C304	C	0.531439	0.718127	0.968699
C305	C	-0.218569	0.022729	0.218702
C306	C	0.031431	0.272729	0.468702
C307	C	0.281431	0.522729	0.718702
C308	C	0.531431	0.772729	0.968702
C309	C	-0.285557	0.022727	0.285463
C310	C	-0.035557	0.272727	0.535463
C311	C	0.214443	0.522727	0.785463
C312	C	0.464443	0.772727	1.035463
C313	C	-0.285551	-0.031876	0.285458
C314	C	-0.035551	0.218124	0.535458
C315	C	0.214449	0.468124	0.785458
C316	C	0.464449	0.718124	1.035458
C317	C	-0.252051	-0.059176	0.252076
C318	C	-0.002051	0.190824	0.502076
C319	C	0.247949	0.440824	0.752076
C320	C	0.497949	0.690824	1.002076
C321	C	-0.285515	-0.479616	0.285392
C322	C	-0.035515	-0.229616	0.535392
C323	C	0.214485	0.020384	0.785392
C324	C	0.464485	0.270384	1.035392
C325	C	-0.285511	-0.534222	0.285379
C326	C	-0.035511	-0.284222	0.535379
C327	C	0.214489	-0.034222	0.785379
C328	C	0.464489	0.215778	1.035379
C329	C	-0.218521	-0.534215	0.218620
C330	C	0.031479	-0.284215	0.468620
C331	C	0.281479	-0.034215	0.718620
C332	C	0.531479	0.215785	0.968620
C333	C	-0.218527	-0.479614	0.218631
C334	C	0.031473	-0.229614	0.468631
C335	C	0.281473	0.020386	0.718631
C336	C	0.531473	0.270386	0.968631
C337	C	-0.252025	-0.452316	0.252022
C338	C	-0.002025	-0.202316	0.502022
C339	C	0.247975	0.047684	0.752022
C340	C	0.497975	0.297684	1.002022
O341	O	-0.190078	-0.393231	0.190268
O342	O	0.059922	-0.143231	0.440268
O343	O	0.309922	0.106769	0.690268
O344	O	0.559922	0.356769	0.940268
O345	O	-0.313998	-0.393195	0.313803
O346	O	-0.063998	-0.143195	0.563803
O347	O	0.186002	0.106805	0.813803
O348	O	0.436002	0.356805	1.063803
C349	C	-0.218601	-0.788939	0.806905
C350	C	0.031399	-0.538939	1.056905
C351	C	0.281399	-0.288939	1.306905
C352	C	0.531399	-0.038939	1.556905
C353	C	-0.218598	-0.788939	0.861509
C354	C	0.031402	-0.538939	1.111509
C355	C	0.281402	-0.288939	1.361509
C356	C	0.531402	-0.038939	1.611509
O357	O	-0.190153	-0.817379	0.889763
O358	O	0.059847	-0.567379	1.139763
O359	O	0.309847	-0.317379	1.389763
O360	O	0.559847	-0.067379	1.639763
N361	N	-0.252030	-0.755482	0.888804
N362	N	-0.002030	-0.505482	1.138804
N363	N	0.247970	-0.255482	1.388804
N364	N	0.497970	-0.005482	1.638804
C365	C	-0.285464	-0.722020	0.861492
C366	C	-0.035464	-0.472020	1.111492
C367	C	0.214536	-0.222020	1.361492
C368	C	0.464536	0.027980	1.611492
O369	O	-0.313900	-0.693563	0.889723
O370	O	-0.063900	-0.443563	1.139723
O371	O	0.186100	-0.193563	1.389723
O372	O	0.436100	0.056437	1.639723
C373	C	-0.285464	-0.722018	0.806889
C374	C	-0.035464	-0.472018	1.056889
C375	C	0.214536	-0.222018	1.306889
C376	C	0.464536	0.027982	1.556889
C377	C	-0.252033	-0.755481	0.779597
C378	C	-0.002033	-0.505481	1.029597
C379	C	0.247967	-0.255481	1.279597
C380	C	0.497967	-0.005481	1.529597
C381	C	-0.185173	-0.822398	0.779613
C382	C	0.064827	-0.572398	1.029613
C383	C	0.314827	-0.322398	1.279613
C384	C	0.564827	-0.072398	1.529613
C385	C	-0.185176	-0.822399	0.725012
C386	C	0.064824	-0.572399	0.975012
C387	C	0.314824	-0.322399	1.225012
C388	C	0.564824	-0.072399	1.475012
C389	C	-0.218609	-0.788940	0.697704
C390	C	0.031391	-0.538940	0.947704
C391	C	0.281391	-0.288940	1.197704
C392	C	0.531391	-0.038940	1.447704
C393	C	-0.252037	-0.755481	0.724996
C394	C	-0.002037	-0.505481	0.974996
C395	C	0.247963	-0.255481	1.224996
C396	C	0.497963	-0.005481	1.474996
C397	C	-0.318894	-0.688554	0.779578
C398	C	-0.068894	-0.438554	1.029578
C399	C	0.181106	-0.188554	1.279578
C400	C	0.431106	0.061446	1.529578
C401	C	-0.318891	-0.688555	0.724971
C402	C	-0.068891	-0.438555	0.974971
C403	C	0.181109	-0.188555	1.224971
C404	C	0.431109	0.061445	1.474971
C405	C	-0.285460	-0.722017	0.697678
C406	C	-0.035460	-0.472017	0.947678
C407	C	0.214540	-0.222017	1.197678
C408	C	0.464540	0.027983	1.447678
C409	C	-0.285473	-0.722024	0.643087
C410	C	-0.035473	-0.472024	0.893087
C411	C	0.214527	-0.222024	1.143087
C412	C	0.464527	0.027976	1.393087
N413	N	-0.252041	-0.755480	0.615792
N414	N	-0.002041	-0.505480	0.865792
N415	N	0.247959	-0.255480	1.115792
N416	N	0.497959	-0.005480	1.365792
C417	C	-0.218609	-0.788938	0.643101
C418	C	0.031391	-0.538938	0.893101
C419	C	0.281391	-0.288938	1.143101
C420	C	0.531391	-0.038938	1.393101
C421	C	-0.285460	-0.722027	0.976163
C422	C	-0.035460	-0.472027	1.226163
C423	C	0.214540	-0.222027	1.476163
C424	C	0.464540	0.027973	1.726163
C425	C	-0.285463	-0.722031	1.030765
C426	C	-0.035463	-0.472031	1.280765
C427	C	0.214537	-0.222031	1.530765
C428	C	0.464537	0.027969	1.780765
C429	C	-0.218597	-0.788948	1.030779
C430	C	0.031403	-0.538948	1.280779
C431	C	0.281403	-0.288948	1.530779
C432	C	0.531403	-0.038948	1.780779
C433	C	-0.218597	-0.788946	0.976175
C434	C	0.031403	-0.538946	1.226175
C435	C	0.281403	-0.288946	1.476175
C436	C	0.531403	-0.038946	1.726175
C437	C	-0.252028	-0.755483	0.948868
C438	C	-0.002028	-0.505483	1.198868
C439	C	0.247972	-0.255483	1.448868
C440	C	0.497972	-0.005483	1.698868
C441	C	-0.218619	-0.788938	0.528436
C442	C	0.031381	-0.538938	0.778436
C443	C	0.281381	-0.288938	1.028436
C444	C	0.531381	-0.038938	1.278436
C445	C	-0.218628	-0.788937	0.473830
C446	C	0.031372	-0.538937	0.723830
C447	C	0.281372	-0.288937	0.973830
C448	C	0.531372	-0.038937	1.223830
C449	C	-0.285492	-0.722018	0.473822
C450	C	-0.035492	-0.472018	0.723822
C451	C	0.214508	-0.222018	0.973822
C452	C	0.464508	0.027982	1.223822
C453	C	-0.285486	-0.722020	0.528422
C454	C	-0.035486	-0.472020	0.778422
C455	C	0.214514	-0.222020	1.028422
C456	C	0.464514	0.027980	1.278422
C457	C	-0.252045	-0.755482	0.555728
C458	C	-0.002045	-0.505482	0.805728
C459	C	0.247955	-0.255482	1.055728
C460	C	0.497955	-0.005482	1.305728
O461	O	-0.313901	-0.693596	0.614799
O462	O	-0.063901	-0.443596	0.864799
O463	O	0.186099	-0.193596	1.114799
O464	O	0.436099	0.056404	1.364799
O465	O	-0.190172	-0.817386	0.614864
O466	O	0.059828	-0.567386	0.864864
O467	O	0.309828	-0.317386	1.114864
O468	O	0.559828	-0.067386	1.364864
C469	C	-0.252028	-0.755478	1.116192
C470	C	-0.002028	-0.505478	1.366192
C471	C	0.247972	-0.255478	1.616192
C472	C	0.497972	-0.005478	1.866192
C473	C	-0.252029	-0.755487	1.058078
C474	C	-0.002029	-0.505487	1.308078
C475	C	0.247971	-0.255487	1.558078
C476	C	0.497971	-0.005487	1.808078
H477	H	-1.052417	-0.816216	0.312805
H478	H	-0.802417	-0.566216	0.562805
H479	H	-0.552417	-0.316216	0.812805
H480	H	-0.302417	-0.066216	1.062805
H481	H	-0.451123	-0.694802	0.191311
H482	H	-0.201123	-0.444802	0.441311
H483	H	0.048877	-0.194802	0.691311
H484	H	0.298877	0.055198	0.941311
H485	H	-0.953461	-0.694953	0.191334
H486	H	-0.703461	-0.444953	0.441334
H487	H	-0.453461	-0.194953	0.691334
H488	H	-0.203461	0.055047	0.941334
N489	N	-0.321545	-0.685929	0.444360
N490	N	-0.071545	-0.435929	0.694360
N491	N	0.178455	-0.185929	0.944360
N492	N	0.428455	0.064071	1.194360
H493	H	-0.342724	-0.664729	0.469932
H494	H	-0.092724	-0.414729	0.719932
H495	H	0.157276	-0.164729	0.969932
H496	H	0.407276	0.085271	1.219932
H497	H	-0.345745	-0.707195	0.421709
H498	H	-0.095745	-0.457195	0.671709
H499	H	0.154255	-0.207195	0.921709
H500	H	0.404255	0.042805	1.171709
N501	N	-0.182542	-0.825039	0.946741
N502	N	0.067458	-0.575039	1.196741
N503	N	0.317458	-0.325039	1.446741
N504	N	0.567458	-0.075039	1.696741
H505	H	-0.158307	-0.803812	0.924080
H506	H	0.091693	-0.553812	1.174080
H507	H	0.341693	-0.303812	1.424080
H508	H	0.591693	-0.053812	1.674080
H509	H	-0.203836	-0.849245	0.924124
H510	H	0.046164	-0.599245	1.174124
H511	H	0.296164	-0.349245	1.424124
H512	H	0.546164	-0.099245	1.674124
H513	H	-0.953367	-0.816199	0.312793
H514	H	-0.703367	-0.566199	0.562793
H515	H	-0.453367	-0.316199	0.812793
H516	H	-0.203367	-0.066199	1.062793
H517	H	-0.346298	-0.305270	0.345981
H518	H	-0.096298	-0.055270	0.595981
H519	H	0.153702	0.194730	0.845981
H520	H	0.403702	0.444730	1.095981
H521	H	-0.550173	-0.694839	0.191307
H522	H	-0.300173	-0.444839	0.441307
H523	H	-0.050173	-0.194839	0.691307
H524	H	0.199827	0.055161	0.941307
N525	N	-0.182558	-0.825031	0.557885
N526	N	0.067442	-0.575031	0.807885
N527	N	0.317442	-0.325031	1.057885
N528	N	0.567442	-0.075031	1.307885
H529	H	-0.158321	-0.803802	0.580534
H530	H	0.091679	-0.553802	0.830534
H531	H	0.341679	-0.303802	1.080534
H532	H	0.591679	-0.053802	1.330534
H533	H	-0.161420	-0.846219	0.532273
H534	H	0.088580	-0.596219	0.782273
H535	H	0.338580	-0.346219	1.032273
H536	H	0.588580	-0.096219	1.282273
N537	N	-0.354954	-0.652460	0.695524
N538	N	-0.104954	-0.402460	0.945524
N539	N	0.145046	-0.152460	1.195524
N540	N	0.395046	0.097540	1.445524
H541	H	-0.379191	-0.673689	0.672875
H542	H	-0.129191	-0.423689	0.922875
H543	H	0.120809	-0.173689	1.172875
H544	H	0.370809	0.076311	1.422875
H545	H	-0.333668	-0.628250	0.672893
H546	H	-0.083668	-0.378250	0.922893
H547	H	0.166332	-0.128250	1.172893
H548	H	0.416332	0.121750	1.422893
N549	N	-0.182419	-0.450160	0.182620
N550	N	0.067581	-0.200160	0.432620
N551	N	0.317581	0.049840	0.682620
N552	N	0.567581	0.299840	0.932620
H553	H	-0.158224	-0.427519	0.203905
H554	H	0.091776	-0.177519	0.453905
H555	H	0.341776	0.072481	0.703905
H556	H	0.591776	0.322481	0.953905
H557	H	-0.203679	-0.427521	0.158374
H558	H	0.046321	-0.177521	0.408374
H559	H	0.296321	0.072479	0.658374
H560	H	0.546321	0.322479	0.908374
H561	H	-0.312791	-0.457397	0.312584
H562	H	-0.062791	-0.207397	0.562584
H563	H	0.187209	0.042603	0.812584
H564	H	0.437209	0.292603	1.062584
N565	N	-0.148908	-0.199022	0.149300
N566	N	0.101092	0.050978	0.399300
N567	N	0.351092	0.300978	0.649300
N568	N	0.601092	0.550978	0.899300
H569	H	-0.111569	-0.208551	0.157493
H570	H	0.138431	0.041449	0.407493
H571	H	0.388431	0.291449	0.657493
H572	H	0.638431	0.541449	0.907493
H573	H	-0.154027	-0.160295	0.154377
H574	H	0.095973	0.089705	0.404377
H575	H	0.345973	0.339705	0.654377
H576	H	0.595973	0.589705	0.904377
H577	H	-1.052528	-0.694987	0.191341
H578	H	-0.802528	-0.444987	0.441341
H579	H	-0.552528	-0.194987	0.691341
H580	H	-0.302528	0.055013	0.941341
H581	H	-0.312789	-0.556447	0.312558
H582	H	-0.062789	-0.306447	0.562558
H583	H	0.187211	-0.056447	0.812558
H584	H	0.437211	0.193553	1.062558
H585	H	-0.702165	-0.849533	0.346249
H586	H	-0.452165	-0.599533	0.596249
H587	H	-0.202165	-0.349533	0.846249
H588	H	0.047835	-0.099533	1.096249
N589	N	-0.808423	-0.858373	0.355125
N590	N	-0.558423	-0.608373	0.605125
N591	N	-0.308423	-0.358373	0.855125
N592	N	-0.058423	-0.108373	1.105125
H593	H	-0.782817	-0.879522	0.376330
H594	H	-0.532817	-0.629522	0.626330
H595	H	-0.282817	-0.379522	0.876330
H596	H	-0.032817	-0.129522	1.126330
H597	H	-0.831070	-0.882602	0.333890
H598	H	-0.581070	-0.632602	0.583890
H599	H	-0.331070	-0.382602	0.833890
H600	H	-0.081070	-0.132602	1.083890
H601	H	-0.550071	-0.816072	0.312778
H602	H	-0.300071	-0.566072	0.562778
H603	H	-0.050071	-0.316072	0.812778
H604	H	0.199929	-0.066072	1.062778
N605	N	-0.355159	-0.199006	0.354816
N606	N	-0.105159	0.050994	0.604816
N607	N	0.144841	0.300994	0.854816
N608	N	0.394841	0.550994	1.104816
H609	H	-0.376373	-0.224594	0.375952
H610	H	-0.126373	0.025406	0.625952
H611	H	0.123627	0.275406	0.875952
H612	H	0.373627	0.525406	1.125952
H613	H	-0.379322	-0.176338	0.333491
H614	H	-0.129322	0.073662	0.583491
H615	H	0.120678	0.323662	0.833491
H616	H	0.370678	0.573662	1.083491
H617	H	-0.451006	-0.816041	0.312766
H618	H	-0.201006	-0.566041	0.562766
H619	H	0.048994	-0.316041	0.812766
H620	H	0.298994	-0.066041	1.062766
H621	H	-0.702335	-0.661486	0.157831
H622	H	-0.452335	-0.411486	0.407831
H623	H	-0.202335	-0.161486	0.657831
H624	H	0.047665	0.088514	0.907831
N625	N	-0.808614	-0.652696	0.148987
N626	N	-0.558614	-0.402696	0.398987
N627	N	-0.308614	-0.152696	0.648987
N628	N	-0.058614	0.097304	0.898987
H629	H	-0.783049	-0.631526	0.127781
H630	H	-0.533049	-0.381526	0.377781
H631	H	-0.283049	-0.131526	0.627781
H632	H	-0.033049	0.118474	0.877781
H633	H	-0.831286	-0.628487	0.170242
H634	H	-0.581286	-0.378487	0.420242
H635	H	-0.331286	-0.128487	0.670242
H636	H	-0.081286	0.121513	0.920242
H637	H	-0.312826	-0.054100	0.312636
H638	H	-0.062826	0.195900	0.562636
H639	H	0.187174	0.445900	0.812636
H640	H	0.437174	0.695900	1.062636
H641	H	-0.157953	-0.849646	0.702796
H642	H	0.092047	-0.599646	0.952796
H643	H	0.342047	-0.349646	1.202796
H644	H	0.592047	-0.099646	1.452796
N645	N	-0.182536	-0.825037	1.060238
N646	N	0.067464	-0.575037	1.310238
N647	N	0.317464	-0.325037	1.560238
N648	N	0.567464	-0.075037	1.810238
H649	H	-0.187611	-0.819956	1.098969
H650	H	0.062389	-0.569956	1.348969
H651	H	0.312389	-0.319956	1.598969
H652	H	0.562389	-0.069956	1.848969
H653	H	-0.145194	-0.816922	1.050694
H654	H	0.104806	-0.566922	1.300694
H655	H	0.354806	-0.316922	1.550694
H656	H	0.604806	-0.066922	1.800694
H657	H	-0.312829	0.044965	0.312647
H658	H	-0.062829	0.294965	0.562647
H659	H	0.187171	0.544965	0.812647
H660	H	0.437171	0.794965	1.062647
H661	H	-0.191281	-0.054097	0.191512
H662	H	0.058719	0.195903	0.441512
H663	H	0.308719	0.445903	0.691512
H664	H	0.558719	0.695903	0.941512
N665	N	-0.182449	0.052171	0.182696
N666	N	0.067551	0.302171	0.432696
N667	N	0.317551	0.552171	0.682696
N668	N	0.567551	0.802171	0.932696
H669	H	-0.161232	0.026586	0.161549
H670	H	0.088768	0.276586	0.411549
H671	H	0.338768	0.526586	0.661549
H672	H	0.588768	0.776586	0.911549
H673	H	-0.158288	0.074807	0.204021
H674	H	0.091712	0.324807	0.454021
H675	H	0.341712	0.574807	0.704021
H676	H	0.591712	0.824807	0.954021
N677	N	-0.149115	-0.858494	0.809060
N678	N	0.100885	-0.608494	1.059060
N679	N	0.350885	-0.358494	1.309060
N680	N	0.600885	-0.108494	1.559060
H681	H	-0.154182	-0.853426	0.847794
H682	H	0.095818	-0.603426	1.097794
H683	H	0.345818	-0.353426	1.347794
H684	H	0.595818	-0.103426	1.597794
H685	H	-0.111773	-0.850383	0.799512
H686	H	0.138227	-0.600383	1.049512
H687	H	0.388227	-0.350383	1.299512
H688	H	0.638227	-0.100383	1.549512
N689	N	-0.148901	-0.312502	0.149296
N690	N	0.101099	-0.062502	0.399296
N691	N	0.351099	0.187498	0.649296
N692	N	0.601099	0.437498	0.899296
H693	H	-0.127685	-0.286919	0.128157
H694	H	0.122315	-0.036919	0.378157
H695	H	0.372315	0.213081	0.628157
H696	H	0.622315	0.463081	0.878157
H697	H	-0.170137	-0.335139	0.125056
H698	H	0.079863	-0.085139	0.375056
H699	H	0.329863	0.164861	0.625056
H700	H	0.579863	0.414861	0.875056
N701	N	-0.182396	-0.563665	0.182615
N702	N	0.067604	-0.313665	0.432615
N703	N	0.317604	-0.063665	0.682615
N704	N	0.567604	0.186335	0.932615
H705	H	-0.187478	-0.602398	0.187678
H706	H	0.062522	-0.352398	0.437678
H707	H	0.312522	-0.102398	0.687678
H708	H	0.562522	0.147602	0.937678
H709	H	-0.145070	-0.554141	0.190821
H710	H	0.104930	-0.304141	0.440821
H711	H	0.354930	-0.054141	0.690821
H712	H	0.604930	0.195859	0.940821
N713	N	-0.182571	-0.825032	0.444394
N714	N	0.067429	-0.575032	0.694394
N715	N	0.317429	-0.325032	0.944394
N716	N	0.567429	-0.075032	1.194394
H717	H	-0.161391	-0.846225	0.469983
H718	H	0.088609	-0.596225	0.719983
H719	H	0.338609	-0.346225	0.969983
H720	H	0.588609	-0.096225	1.219983
H721	H	-0.158372	-0.803766	0.421731
H722	H	0.091628	-0.553766	0.671731
H723	H	0.341628	-0.303766	0.921731
H724	H	0.591628	-0.053766	1.171731
N725	N	-0.321528	-0.685947	1.060199
N726	N	-0.071528	-0.435947	1.310199
N727	N	0.178472	-0.185947	1.560199
N728	N	0.428472	0.064053	1.810199
H729	H	-0.342706	-0.664754	1.034608
H730	H	-0.092706	-0.414754	1.284608
H731	H	0.157294	-0.164754	1.534608
H732	H	0.407294	0.085246	1.784608
H733	H	-0.300243	-0.661762	1.082847
H734	H	-0.050243	-0.411762	1.332847
H735	H	0.199757	-0.161762	1.582847
H736	H	0.449757	0.088238	1.832847
H737	H	-0.312687	-0.694776	0.953932
H738	H	-0.062687	-0.444776	1.203932
H739	H	0.187313	-0.194776	1.453932
H740	H	0.437313	0.055224	1.703932
N741	N	-0.354951	-0.652462	0.809005
N742	N	-0.104951	-0.402462	1.059005
N743	N	0.145049	-0.152462	1.309005
N744	N	0.395049	0.097538	1.559005
H745	H	-0.376124	-0.631267	0.783412
H746	H	-0.126124	-0.381267	1.033412
H747	H	0.123876	-0.131267	1.283412
H748	H	0.373876	0.118733	1.533412
H749	H	-0.333663	-0.628279	0.831652
H750	H	-0.083663	-0.378279	1.081652
H751	H	0.166337	-0.128279	1.331652
H752	H	0.416337	0.121721	1.581652
N753	N	-0.321548	-0.685937	0.557863
N754	N	-0.071548	-0.435937	0.807863
N755	N	0.178452	-0.185937	1.057863
N756	N	0.428452	0.064063	1.307863
H757	H	-0.342730	-0.664744	0.532275
H758	H	-0.092730	-0.414744	0.782275
H759	H	0.157270	-0.164744	1.032275
H760	H	0.407270	0.085256	1.282275
H761	H	-0.300260	-0.661752	0.580508
H762	H	-0.050260	-0.411752	0.830508
H763	H	0.199740	-0.161752	1.080508
H764	H	0.449740	0.088248	1.330508
