data_functionalizedCrystal
_audit_creation_method	'MofGen! by Chris Wilmer'
_symmetry_space_group_name_H-M	'P1'
_symmetry_Int_Tables_number	1
_symmetry_cell_setting	triclinic
loop_
_symmetry_equiv_pos_as_xyz
  x,y,z
_cell_length_a	12.759401
_cell_length_b	12.759400
_cell_length_c	14.908662
_cell_angle_alpha	93.272401
_cell_angle_beta	86.686259
_cell_angle_gamma	90.012209
loop_
_atom_site_label
_atom_site_type_symbol
_atom_site_fract_x
_atom_site_fract_y
_atom_site_fract_z
Zn1	Zn	1.640515	-0.452559	-0.510046
Zn2	Zn	1.630285	-0.618125	-0.359197
Zn3	Zn	1.454689	-0.442459	-0.359210
Zn4	Zn	1.464809	-0.628191	-0.510015
O5	O	1.547575	-0.535333	-0.434617
O6	O	1.786180	-0.474536	-0.490042
O7	O	1.598475	-0.586383	-0.232955
O8	O	1.479385	-0.296779	-0.379237
O9	O	1.778664	-0.596176	-0.379214
O10	O	1.615911	-0.304199	-0.490055
O11	O	1.469466	-0.457321	-0.232965
O12	O	1.309010	-0.467082	-0.379208
O13	O	1.496633	-0.613333	-0.636263
O14	O	1.316445	-0.603539	-0.490004
O15	O	1.625724	-0.484296	-0.636285
O16	O	1.608288	-0.766480	-0.379185
O17	O	1.486713	-0.773876	-0.489991
C18	C	1.274606	-0.535308	-0.434604
C19	C	1.157831	-0.535324	-0.434620
C20	C	1.106881	-0.472118	-0.492418
C21	C	0.997158	-0.472139	-0.492424
C22	C	0.989342	-0.598579	-0.376832
C23	C	1.099064	-0.598552	-0.376822
C24	C	1.165649	-0.408890	-0.550216
C25	C	1.114699	-0.345680	-0.608019
C26	C	1.004976	-0.345700	-0.608025
C27	C	0.946201	-0.408931	-0.550228
C28	C	1.547518	-0.808300	-0.434603
C29	C	1.547593	-0.925078	-0.434627
C30	C	1.618651	-0.983727	-0.492377
C31	C	1.618702	-1.093453	-0.492399
C32	C	1.476631	-1.085870	-0.376913
C33	C	1.476577	-0.976146	-0.376896
C34	C	1.689667	-0.932659	-0.550108
C35	C	1.760732	-0.991309	-0.607862
C36	C	1.760782	-1.101034	-0.607884
C37	C	1.689768	-1.152110	-0.550152
C38	C	1.821609	-0.535360	-0.434630
C39	C	1.938386	-0.535371	-0.434636
C40	C	1.563448	-0.551064	-0.669923
C41	C	1.570213	-0.557768	-0.770196
C42	C	1.547661	-0.261302	-0.434651
C43	C	1.547697	-0.144527	-0.434665
C44	C	1.646903	-0.634404	-0.911524
C45	C	1.640555	-0.628111	-0.817309
C46	C	1.506212	-0.493715	-0.817305
C47	C	1.512561	-0.500008	-0.911521
C48	C	1.582909	-0.570354	-0.958627
C49	C	1.589262	-0.576641	-1.052845
C50	C	1.454915	-0.442252	-1.052839
C51	C	1.448567	-0.435959	-0.958624
C52	C	1.531823	-0.519588	-0.200227
C53	C	1.525262	-0.512589	-0.099954
H54	H	0.941480	-0.650060	-0.329777
O55	O	1.689848	-1.270458	-0.550169
H56	H	1.673172	-1.303936	-0.618202
O57	O	1.400058	-1.140950	-0.314630
H58	H	1.412045	-1.227100	-0.324334
H59	H	0.856856	-0.408919	-0.550218
H60	H	1.140547	-0.650020	-0.329758
O61	O	1.372701	-0.360081	-0.907816
H62	H	1.379042	-0.366457	-0.834388
O63	O	1.399945	-0.912876	-0.314604
H64	H	1.350585	-0.966818	-0.274451
H65	H	1.646547	-0.633917	-1.091197
H66	H	1.448929	-0.436453	-0.778935
O67	O	1.689610	-0.814313	-0.550082
H68	H	1.750924	-0.788653	-0.599930
H69	H	1.704192	-0.691674	-0.949879
O70	O	1.709588	-0.697178	-0.766500
H71	H	1.759577	-0.747140	-0.815088
O72	O	1.385886	-0.373161	-1.103640
H73	H	1.402114	-0.389355	-1.177069
H74	H	1.254991	-0.408866	-0.550218
H75	H	1.162560	-0.294193	-0.655070
H76	H	0.963496	-0.294224	-0.655084
H77	H	1.818544	-0.949717	-0.654871
H78	H	1.818639	-1.148785	-0.654918
