data_functionalizedCrystal
_audit_creation_method	'MofGen! by Chris Wilmer'
_symmetry_space_group_name_H-M	'P1'
_symmetry_Int_Tables_number	1
_symmetry_cell_setting	triclinic
loop_
_symmetry_equiv_pos_as_xyz
  x,y,z
_cell_length_a	15.995343
_cell_length_b	14.853567
_cell_length_c	13.330367
_cell_angle_alpha	90.000844
_cell_angle_beta	89.990458
_cell_angle_gamma	96.437943
loop_
_atom_site_label
_atom_site_type_symbol
_atom_site_fract_x
_atom_site_fract_y
_atom_site_fract_z
O1	O	1.111128	-0.116172	-0.083461
O2	O	0.867369	-0.130530	-0.083452
O3	O	0.995760	0.007888	-0.083460
O4	O	0.982738	-0.254590	-0.083453
O5	O	0.995741	0.007891	0.083387
O6	O	0.867350	-0.130527	0.083395
O7	O	1.111110	-0.116169	0.083386
Cu8	Cu	0.989228	-0.123348	0.098625
Cu9	Cu	0.989250	-0.123351	-0.098691
O10	O	0.982719	-0.254587	0.083394
C11	C	0.836164	-0.129936	-0.000027
C12	C	0.743211	-0.128160	-0.000024
C13	C	0.995161	0.041477	-0.000039
C14	C	0.993392	0.141558	-0.000048
C15	C	1.142315	-0.116763	-0.000041
C16	C	1.235267	-0.118539	-0.000050
C17	C	1.405458	-0.121762	-0.000041
C18	C	1.428919	-0.221678	-0.000040
C19	C	1.525600	-0.223558	0.000342
C20	C	1.573021	-0.124937	-0.000033
C21	C	1.543866	-0.074696	0.095055
C22	C	1.447072	-0.073511	0.095131
C23	C	1.447170	-0.072051	-0.094612
C24	C	1.543669	-0.075740	-0.095858
C25	C	1.667722	-0.126726	-0.000026
C26	C	1.310758	-0.119970	-0.000042
C27	C	0.983318	-0.288176	-0.000029
C28	C	0.985086	-0.388257	-0.000027
N29	N	0.989219	-0.123344	0.237407
C30	C	0.909651	0.553977	-0.000025
C31	C	1.062182	0.575468	-0.000031
C32	C	1.063845	0.481437	-0.000037
C33	C	0.988409	0.423671	-0.000036
C34	C	0.911311	0.459936	-0.000028
C35	C	1.140942	0.445164	-0.000034
C36	C	1.142607	0.351127	-0.000039
C37	C	1.067171	0.293359	-0.000045
C38	C	0.990070	0.329630	-0.000039
C39	C	0.914634	0.271865	-0.000037
C40	C	0.837532	0.308134	-0.000038
C41	C	0.835875	0.402169	-0.000034
C42	C	1.068828	0.199324	-0.000049
C43	C	0.916294	0.177824	-0.000040
N44	N	0.989266	-0.123347	-0.237472
C45	C	0.932396	-0.184618	0.710033
C46	C	1.046127	-0.062077	0.709994
C47	C	1.046118	-0.062074	0.604976
C48	C	0.989247	-0.123345	0.552481
C49	C	0.932387	-0.184619	0.605005
C50	C	1.102983	-0.000808	0.552444
C51	C	1.102976	-0.000803	0.447419
C52	C	1.046101	-0.062071	0.394923
C53	C	0.989238	-0.123346	0.447453
C54	C	0.932368	-0.184617	0.394958
C55	C	0.875500	-0.245890	0.447487
C56	C	0.875512	-0.245887	0.552508
C57	C	1.046089	-0.062073	0.289901
C58	C	0.932358	-0.184618	0.289930
H59	H	1.544669	-0.262881	-0.067811
H60	H	1.123598	0.622506	-0.000024
O61	O	1.101325	-0.002435	0.760878
C62	C	1.087587	0.086817	0.735245
H63	H	1.055314	0.086724	0.658998
H64	H	1.045874	0.114709	0.794364
C65	C	1.212162	0.146873	0.824030
C66	C	1.172530	0.146759	0.730378
H67	H	1.264558	0.183850	0.821032
H68	H	1.221416	0.086743	0.841303
H69	H	1.177392	0.170114	0.873286
H70	H	1.207295	0.123508	0.681127
H71	H	1.163284	0.206888	0.713097
H72	H	1.433067	0.001492	-0.095533
H73	H	0.854864	0.130796	-0.000044
H74	H	1.131603	0.169798	-0.000042
H75	H	1.418872	-0.103508	-0.166705
H76	H	0.773102	0.431708	-0.000034
O77	O	1.394292	-0.267213	0.081082
C78	C	1.339504	-0.342582	0.048678
H79	H	1.317754	-0.330377	-0.031115
H80	H	1.373883	-0.405775	0.050359
C81	C	1.289312	-0.371024	0.216802
C82	C	1.262592	-0.356030	0.118802
H83	H	1.241871	-0.379323	0.260059
H84	H	1.326225	-0.320249	0.238634
H85	H	1.317961	-0.423683	0.218189
H86	H	1.233953	-0.303365	0.117415
H87	H	1.225672	-0.406797	0.096971
H88	H	1.149289	0.049073	0.595188
O89	O	1.415132	-0.114383	0.180320
C90	C	1.373470	-0.052457	0.236482
H91	H	1.399151	0.019676	0.215054
H92	H	1.303146	-0.063577	0.219922
C93	C	1.356720	-0.155825	0.375462
C94	C	1.388268	-0.067230	0.349150
H95	H	1.365845	-0.164939	0.444961
H96	H	1.384786	-0.197547	0.337624
H97	H	1.298120	-0.165081	0.361654
H98	H	1.446869	-0.057978	0.362946
H99	H	1.360212	-0.025506	0.386993
H100	H	1.092394	-0.012191	0.247137
O101	O	1.429679	0.013939	0.099840
C102	C	1.465009	0.061973	0.015965
H103	H	1.519123	0.026408	-0.014860
H104	H	1.414900	0.064446	-0.044475
C105	C	1.431725	0.202828	0.085488
C106	C	1.498194	0.159150	0.047633
H107	H	1.452192	0.262773	0.105020
H108	H	1.407919	0.170466	0.141995
H109	H	1.389973	0.204880	0.035115
H110	H	1.539939	0.157089	0.098010
H111	H	1.522008	0.191514	-0.008864
O112	O	1.217573	0.316049	-0.000090
C113	C	1.283796	0.387200	-0.000062
H114	H	1.260256	0.451083	-0.031641
H115	H	1.307062	0.400499	0.079982
C116	C	1.385417	0.282199	-0.026716
C117	C	1.356507	0.360659	-0.065510
H118	H	1.430271	0.265827	-0.067083
H119	H	1.340802	0.234262	-0.026731
H120	H	1.404799	0.293292	0.039987
H121	H	1.337116	0.349562	-0.132207
H122	H	1.401121	0.408594	-0.065508
O123	O	0.820310	-0.305528	0.603420
C124	C	0.834028	-0.394783	0.577767
H125	H	0.866293	-0.394692	0.501503
H126	H	0.875740	-0.422690	0.636860
C127	C	0.709452	-0.454819	0.666611
C128	C	0.749075	-0.454708	0.572938
H129	H	0.657050	-0.491785	0.663637
H130	H	0.700212	-0.394686	0.683898
H131	H	0.744221	-0.478072	0.715845
H132	H	0.714311	-0.431444	0.523709
H133	H	0.758308	-0.514838	0.555643
O134	O	1.158241	0.058805	0.396554
C135	C	1.208452	0.112867	0.465409
H136	H	1.174133	0.113901	0.540286
H137	H	1.270684	0.083558	0.476551
C138	C	1.267744	0.208847	0.332459
C139	C	1.225590	0.210123	0.424422
H140	H	1.278320	0.268838	0.307175
H141	H	1.233919	0.172423	0.286069
H142	H	1.319600	0.184418	0.341757
H143	H	1.173731	0.234540	0.415120
H144	H	1.259407	0.246553	0.470809
O145	O	1.565771	-0.119295	-0.179888
C146	C	1.539132	-0.074531	-0.265438
H147	H	1.485093	-0.034326	-0.244203
H148	H	1.593763	-0.026438	-0.295992
C149	C	1.575604	-0.194287	-0.372381
C150	C	1.509227	-0.144913	-0.346301
H151	H	1.557160	-0.237701	-0.422264
H152	H	1.593554	-0.224444	-0.314746
H153	H	1.621124	-0.154201	-0.397837
H154	H	1.463712	-0.184998	-0.320834
H155	H	1.491268	-0.114764	-0.403935
H156	H	0.886045	-0.234510	0.247196
H157	H	0.886093	-0.234503	0.752804
O158	O	0.820373	-0.305446	0.396378
C159	C	0.865276	-0.361107	0.335639
H160	H	0.930753	-0.325241	0.319898
H161	H	0.871035	-0.427743	0.376111
C162	C	0.737675	-0.424395	0.255218
C163	C	0.818093	-0.380340	0.235878
H164	H	0.708570	-0.436264	0.193682
H165	H	0.707423	-0.386898	0.296141
H166	H	0.742486	-0.479921	0.288947
H167	H	0.813282	-0.324811	0.202161
H168	H	0.848344	-0.417829	0.194946
H169	H	1.544078	-0.262704	0.068901
O170	O	1.395690	-0.267998	-0.081364
C171	C	1.417848	-0.357213	-0.079129
H172	H	1.476926	-0.359259	-0.031741
H173	H	1.364098	-0.404313	-0.045073
C174	C	1.362297	-0.385768	-0.244908
C175	C	1.434862	-0.388279	-0.186712
H176	H	1.372788	-0.404933	-0.311270
H177	H	1.347365	-0.325663	-0.246413
H178	H	1.317513	-0.425017	-0.216516
H179	H	1.479642	-0.349022	-0.215097
H180	H	1.449802	-0.448378	-0.185214
O181	O	1.581858	0.011857	0.098834
C182	C	1.635471	0.028331	0.015299
H183	H	1.653921	-0.038703	-0.014257
H184	H	1.601398	0.063272	-0.046092
C185	C	1.692477	0.172009	0.083204
C186	C	1.715144	0.089678	0.046908
H187	H	1.741621	0.209854	0.102699
H188	H	1.656355	0.160913	0.139482
H189	H	1.664082	0.201115	0.032038
H190	H	1.743528	0.060568	0.098077
H191	H	1.751272	0.100770	-0.009361
H192	H	1.563994	-0.109166	0.166088
H193	H	1.576531	-0.003774	-0.101886
O194	O	0.834830	0.589353	0.000019
C195	C	0.849534	0.684737	-0.000009
H196	H	0.914846	0.706822	0.031576
H197	H	0.845456	0.710911	-0.080055
C198	C	0.702659	0.696618	0.026629
C199	C	0.782874	0.723742	0.065431
H200	H	0.661539	0.720679	0.066991
H201	H	0.692752	0.632355	0.026644
H202	H	0.699273	0.718431	-0.040075
H203	H	0.786263	0.701920	0.132128
H204	H	0.792781	0.788002	0.065428
H205	H	1.202357	0.492203	-0.000026
H206	H	0.776113	0.261088	-0.000030
