data_functionalizedCrystal
_audit_creation_method	'MofGen! by Chris Wilmer'
_symmetry_space_group_name_H-M	'P1'
_symmetry_Int_Tables_number	1
_symmetry_cell_setting	triclinic
loop_
_symmetry_equiv_pos_as_xyz
  x,y,z
_cell_length_a	11.792241
_cell_length_b	17.038278
_cell_length_c	10.868271
_cell_angle_alpha	89.987716
_cell_angle_beta	89.999461
_cell_angle_gamma	92.348041
loop_
_atom_site_label
_atom_site_type_symbol
_atom_site_fract_x
_atom_site_fract_y
_atom_site_fract_z
O1	O	-1.516301	0.107207	-0.102205
O2	O	-1.016301	0.607207	0.397795
O3	O	-1.186928	0.118256	-0.102240
O4	O	-0.686928	0.618256	0.397760
O5	O	-1.349659	-0.001093	-0.102192
O6	O	-0.849659	0.498907	0.397808
O7	O	-1.353571	0.226555	-0.102254
O8	O	-0.853571	0.726555	0.397746
O9	O	-1.349644	-0.001097	0.102453
O10	O	-0.849644	0.498903	0.602453
O11	O	-1.186913	0.118251	0.102405
O12	O	-0.686913	0.618251	0.602405
O13	O	-1.516286	0.107202	0.102439
O14	O	-1.016286	0.607202	0.602439
Zn15	Zn	-1.351598	0.112726	0.134914
Zn16	Zn	-0.851598	0.612726	0.634914
Zn17	Zn	-1.351617	0.112732	-0.134714
Zn18	Zn	-0.851617	0.612732	0.365286
O19	O	-1.353556	0.226551	0.102391
O20	O	-0.853556	0.726551	0.602391
C21	C	-1.144569	0.117559	0.000078
C22	C	-0.644569	0.617559	0.500078
C23	C	-1.018373	0.115482	0.000066
C24	C	-0.518373	0.615482	0.500066
C25	C	-0.787326	0.111662	0.000100
C26	C	-0.287326	0.611662	0.500100
C27	C	-0.915898	0.113785	0.000082
C28	C	-0.415898	0.613785	0.500082
C29	C	-1.346091	-0.030239	0.000136
C30	C	-0.846091	0.469761	0.500136
C31	C	-1.335468	-0.117079	0.000151
C32	C	-0.835468	0.382921	0.500151
C33	C	-1.270207	-0.607779	0.000031
C34	C	-0.770207	-0.107779	0.500031
C35	C	-1.280197	-0.526184	0.000045
C36	C	-0.780197	-0.026184	0.500045
C37	C	-1.387727	-0.494276	0.000073
C38	C	-0.887727	0.005724	0.500073
C39	C	-1.485274	-0.543966	0.000075
C40	C	-0.985274	-0.043966	0.500075
C41	C	-1.475283	-0.625559	0.000053
C42	C	-0.975283	-0.125559	0.500053
C43	C	-1.423023	-0.248362	0.000132
C44	C	-0.923023	0.251638	0.500132
C45	C	-1.433007	-0.166763	0.000157
C46	C	-0.933007	0.333237	0.500157
C47	C	-1.227929	-0.148987	0.000124
C48	C	-0.727929	0.351013	0.500124
C49	C	-1.217948	-0.230582	0.000110
C50	C	-0.717948	0.269418	0.500110
C51	C	-1.315494	-0.280266	0.000106
C52	C	-0.815494	0.219734	0.500106
C53	C	-1.397941	-0.410873	0.000090
C54	C	-0.897941	0.089127	0.500090
C55	C	-1.305279	-0.363666	0.000080
C56	C	-0.805279	0.136334	0.500080
C57	C	-0.558646	0.107899	0.000115
C58	C	-0.058646	0.607899	0.500115
C59	C	-0.684841	0.109976	0.000110
C60	C	-0.184841	0.609976	0.500110
C61	C	-1.357124	0.255697	0.000061
C62	C	-0.857124	0.755697	0.500061
C63	C	-1.367747	0.342537	0.000038
C64	C	-0.867747	0.842537	0.500038
N65	N	-1.351592	0.112721	0.318928
N66	N	-0.851592	0.612721	0.818928
N67	N	-1.351630	0.112731	-0.318728
N68	N	-0.851630	0.612731	0.181272
C69	C	-1.351611	0.112730	0.569934
C70	C	-0.851611	0.612730	1.069934
C71	C	-1.351597	0.112728	0.430256
C72	C	-0.851597	0.612728	0.930256
H73	H	-1.200770	-0.485734	0.000036
H74	H	-0.700770	0.014266	0.500036
H75	H	-1.572828	-0.517980	0.000100
H76	H	-1.072828	-0.017980	0.500100
N77	N	-1.160376	-0.640384	0.000016
N78	N	-0.660376	-0.140384	0.500016
N79	N	-1.131912	-0.683950	0.086264
N80	N	-0.631912	-0.183950	0.586264
H81	H	-1.054341	-0.706977	0.086252
H82	H	-0.554341	-0.206977	0.586252
H83	H	-1.130385	-0.256556	0.000073
H84	H	-0.630385	0.243444	0.500073
H85	H	-1.148513	-0.108526	0.000126
H86	H	-0.648513	0.391474	0.500126
H87	H	-1.554710	-0.666012	0.000053
H88	H	-1.054710	-0.166012	0.500053
H89	H	-1.217729	-0.389650	0.000050
H90	H	-0.717729	0.110350	0.500050
H91	H	-1.485493	-0.384884	0.000154
H92	H	-0.985493	0.115116	0.500154
N93	N	-1.542856	-0.134172	0.000152
N94	N	-1.042856	0.365828	0.500152
N95	N	-1.571313	-0.090605	-0.086098
N96	N	-1.071313	0.409395	0.413902
H97	H	-1.648890	-0.067588	-0.086103
H98	H	-1.148890	0.432412	0.413897
H99	H	-1.502454	-0.288805	0.000136
H100	H	-1.002454	0.211195	0.500136
