data_functionalizedCrystal
_audit_creation_method	'MofGen! by Chris Wilmer'
_symmetry_space_group_name_H-M	'P1'
_symmetry_Int_Tables_number	1
_symmetry_cell_setting	triclinic
loop_
_symmetry_equiv_pos_as_xyz
  x,y,z
_cell_length_a	6.817900
_cell_length_b	11.102289
_cell_length_c	10.943624
_cell_angle_alpha	91.861746
_cell_angle_beta	108.838799
_cell_angle_gamma	108.605707
loop_
_atom_site_label
_atom_site_type_symbol
_atom_site_fract_x
_atom_site_fract_y
_atom_site_fract_z
V1	V	-4.114282	-0.175806	-0.402551
O2	O	-4.073263	0.008482	-0.394888
O3	O	-4.091041	-0.348626	-0.399798
O4	O	-4.092264	-0.173086	-0.578117
O5	O	-4.072031	-0.168273	-0.215334
V6	V	-4.591232	-0.153765	-0.380158
O7	O	-4.389960	-0.224155	-0.451671
O8	O	-4.765752	-0.105415	-0.331038
O9	O	-4.391267	0.019056	-0.382912
O10	O	-4.749649	-0.338053	-0.387821
O11	O	-4.750880	-0.161298	-0.567375
O12	O	-4.390044	-0.156484	-0.204592
C13	C	-3.941308	-0.390757	-0.393447
C14	C	-4.003768	-0.532039	-0.392366
C15	C	-4.217163	-0.604887	-0.398299
C16	C	-4.275844	-0.737639	-0.397294
C17	C	-3.907711	-0.724682	-0.384419
C18	C	-3.849038	-0.591934	-0.385432
C19	C	-4.429699	-0.612368	-0.405727
C20	C	-4.488380	-0.745120	-0.404723
C21	C	-3.942867	-0.166837	-0.620910
C22	C	-4.006314	-0.165757	-0.764437
C23	C	-3.851194	-0.158485	-0.841584
C24	C	-4.039808	-0.266416	-0.947574
C25	C	-3.930779	-0.055914	-0.914187
C26	C	-4.194138	-0.273789	-0.868550
C27	C	-4.085029	-0.063191	-0.835140
C28	C	-4.273779	-0.171153	-0.941100
C29	C	-4.204342	0.061180	-0.389259
C30	C	-4.121122	0.202461	-0.390348
C31	C	-4.202783	-0.162738	-0.161792
C32	C	-4.118573	-0.163811	-0.018265
H33	H	-4.542207	-0.593140	-0.499624
N34	N	-4.109364	0.050611	-0.770240
H35	H	-4.267804	0.046723	-0.807827
H36	H	-4.009083	0.132777	-0.786243
H37	H	-3.781744	-0.773465	-0.378775
H38	H	-4.539085	-0.770096	-0.316529
H39	H	-3.820065	0.036144	-0.934950
H40	H	-3.675284	-0.532628	-0.380616
N41	N	-4.428572	-0.541975	-0.284960
H42	H	-4.580896	-0.574947	-0.278935
H43	H	-4.385218	-0.446889	-0.289990
N44	N	-4.663832	-0.821778	-0.531414
H45	H	-4.705935	-0.761175	-0.593225
H46	H	-4.798376	-0.876978	-0.513559
N47	N	-3.613866	-0.151566	-0.784026
H48	H	-3.596552	-0.228431	-0.825322
H49	H	-3.572072	-0.151499	-0.686673
H50	H	-4.021353	-0.352332	-0.996523
H51	H	-4.304885	-0.365970	-0.848005
H52	H	-4.453056	-0.176535	-0.984345
