data_functionalizedCrystal
_audit_creation_method	'MofGen! by Chris Wilmer'
_symmetry_space_group_name_H-M	'P1'
_symmetry_Int_Tables_number	1
_symmetry_cell_setting	triclinic
loop_
_symmetry_equiv_pos_as_xyz
  x,y,z
_cell_length_a	18.215407
_cell_length_b	18.215405
_cell_length_c	12.759393
_cell_angle_alpha	89.962431
_cell_angle_beta	89.980188
_cell_angle_gamma	90.019398
loop_
_atom_site_label
_atom_site_type_symbol
_atom_site_fract_x
_atom_site_fract_y
_atom_site_fract_z
Zn1	Zn	1.125086	-0.293049	-0.593974
Zn2	Zn	1.375086	-0.043049	-0.343974
Zn3	Zn	1.625086	0.206951	-0.093974
Zn4	Zn	1.875086	0.456951	0.156026
Zn5	Zn	1.124991	-0.416135	-0.418276
Zn6	Zn	1.374991	-0.166135	-0.168276
Zn7	Zn	1.624991	0.083865	0.081724
Zn8	Zn	1.874991	0.333865	0.331724
Zn9	Zn	1.002015	-0.293075	-0.418310
Zn10	Zn	1.252015	-0.043075	-0.168310
Zn11	Zn	1.502015	0.206925	0.081690
Zn12	Zn	1.752015	0.456925	0.331690
Zn13	Zn	1.001985	-0.416066	-0.593913
Zn14	Zn	1.251985	-0.166066	-0.343913
Zn15	Zn	1.501985	0.083934	-0.093913
Zn16	Zn	1.751985	0.333934	0.156087
O17	O	1.063519	-0.354581	-0.506118
O18	O	1.313519	-0.104581	-0.256118
O19	O	1.563519	0.145419	-0.006118
O20	O	1.813519	0.395419	0.243882
O21	O	1.228058	-0.309394	-0.570679
O22	O	1.478058	-0.059394	-0.320679
O23	O	1.728058	0.190606	-0.070679
O24	O	1.978058	0.440606	0.179321
O25	O	1.108650	-0.399851	-0.271259
O26	O	1.358650	-0.149851	-0.021259
O27	O	1.608650	0.100149	0.228741
O28	O	1.858650	0.350149	0.478741
O29	O	1.018393	-0.190087	-0.441652
O30	O	1.268393	0.059913	-0.191652
O31	O	1.518393	0.309913	0.058348
O32	O	1.768393	0.559913	0.308348
O33	O	1.227988	-0.399825	-0.441594
O34	O	1.477988	-0.149825	-0.191594
O35	O	1.727988	0.100175	0.058406
O36	O	1.977988	0.350175	0.308406
O37	O	1.108813	-0.190068	-0.570712
O38	O	1.358813	0.059932	-0.320712
O39	O	1.608813	0.309932	-0.070712
O40	O	1.858813	0.559932	0.179288
O41	O	1.018300	-0.309439	-0.271284
O42	O	1.268300	-0.059439	-0.021284
O43	O	1.518300	0.190561	0.228716
O44	O	1.768300	0.440561	0.478716
O45	O	0.899027	-0.309372	-0.441593
O46	O	1.149027	-0.059372	-0.191593
O47	O	1.399027	0.190628	0.058407
O48	O	1.649027	0.440628	0.308407
O49	O	1.018342	-0.399708	-0.740943
O50	O	1.268342	-0.149708	-0.490943
O51	O	1.518342	0.100292	-0.240943
O52	O	1.768342	0.350292	0.009057
O53	O	0.899005	-0.399733	-0.570608
O54	O	1.149005	-0.149733	-0.320608
O55	O	1.399005	0.100267	-0.070608
O56	O	1.649005	0.350267	0.179392
O57	O	1.108784	-0.309327	-0.740987
O58	O	1.358784	-0.059327	-0.490987
O59	O	1.608784	0.190673	-0.240987
O60	O	1.858784	0.440673	0.009013
O61	O	1.108621	-0.519110	-0.441535
O62	O	1.358621	-0.269110	-0.191535
O63	O	1.608621	-0.019110	0.058465
O64	O	1.858621	0.230890	0.308465
O65	O	1.018249	-0.519060	-0.570575
O66	O	1.268249	-0.269060	-0.320575
O67	O	1.518249	-0.019060	-0.070575
O68	O	1.768249	0.230940	0.179425
C69	C	0.872313	-0.354549	-0.506098
C70	C	1.122313	-0.104549	-0.256098
C71	C	1.372313	0.145451	-0.006098
C72	C	1.622313	0.395451	0.243902
C73	C	0.790514	-0.354553	-0.506114
C74	C	1.040514	-0.104553	-0.256114
C75	C	1.290514	0.145447	-0.006114
C76	C	1.540514	0.395447	0.243886
C77	C	0.525487	-0.307584	-0.573440
C78	C	0.775487	-0.057584	-0.323440
C79	C	1.025487	0.192416	-0.073440
C80	C	1.275487	0.442416	0.176560
C81	C	0.602346	-0.307573	-0.573437
C82	C	0.852346	-0.057573	-0.323437
C83	C	1.102346	0.192427	-0.073437
C84	C	1.352346	0.442427	0.176563
C85	C	0.602292	-0.401602	-0.438820
C86	C	0.852292	-0.151602	-0.188820
C87	C	1.102292	0.098398	0.061180
C88	C	1.352292	0.348398	0.311180
C89	C	0.525435	-0.401617	-0.438829
C90	C	0.775435	-0.151617	-0.188829
C91	C	1.025435	0.098383	0.061171
C92	C	1.275435	0.348383	0.311171
C93	C	0.487034	-0.354604	-0.506138
C94	C	0.737034	-0.104604	-0.256138
C95	C	0.987034	0.145396	-0.006138
C96	C	1.237034	0.395396	0.243862
C97	C	0.640750	-0.354577	-0.506125
C98	C	0.890750	-0.104577	-0.256125
C99	C	1.140750	0.145423	-0.006125
C100	C	1.390750	0.395423	0.243875
C101	C	0.724084	-0.354564	-0.506121
C102	C	0.974084	-0.104564	-0.256121
C103	C	1.224084	0.145436	-0.006121
C104	C	1.474084	0.395436	0.243879
C105	C	0.403695	-0.354617	-0.506143
C106	C	0.653695	-0.104617	-0.256143
C107	C	0.903695	0.145383	-0.006143
C108	C	1.153695	0.395383	0.243857
C109	C	1.063441	-0.545788	-0.506068
C110	C	1.313441	-0.295788	-0.256068
C111	C	1.563441	-0.045788	-0.006068
C112	C	1.813441	0.204212	0.243932
C113	C	1.063476	-0.627586	-0.506081
C114	C	1.313476	-0.377586	-0.256081
C115	C	1.563476	-0.127586	-0.006081
C116	C	1.813476	0.122414	0.243919
C117	C	1.110643	-0.815782	-0.439014
C118	C	1.360643	-0.565782	-0.189014
C119	C	1.610643	-0.315782	0.060986
C120	C	1.860643	-0.065782	0.310986
C121	C	1.110675	-0.892641	-0.439039
C122	C	1.360675	-0.642641	-0.189039
C123	C	1.610675	-0.392641	0.060961
C124	C	1.860675	-0.142641	0.310961
C125	C	1.016490	-0.892628	-0.573298
C126	C	1.266490	-0.642628	-0.323298
C127	C	1.516490	-0.392628	-0.073298
C128	C	1.766490	-0.142628	0.176702
C129	C	1.016461	-0.815771	-0.573277
C130	C	1.266461	-0.565771	-0.323277
C131	C	1.516461	-0.315771	-0.073277
C132	C	1.766461	-0.065771	0.176723
C133	C	1.063536	-0.777350	-0.506129
C134	C	1.313536	-0.527350	-0.256129
C135	C	1.563536	-0.277350	-0.006129
C136	C	1.813536	-0.027350	0.243871
C137	C	1.063598	-0.931066	-0.506176
C138	C	1.313598	-0.681066	-0.256176
C139	C	1.563598	-0.431066	-0.006176
C140	C	1.813598	-0.181066	0.243824
C141	C	1.063633	-1.014400	-0.506204
C142	C	1.313633	-0.764400	-0.256204
C143	C	1.563633	-0.514400	-0.006204
C144	C	1.813633	-0.264400	0.243796
C145	C	1.063502	-0.694011	-0.506102
C146	C	1.313502	-0.444011	-0.256102
C147	C	1.563502	-0.194011	-0.006102
C148	C	1.813502	0.055989	0.243898
C149	C	1.255472	-0.354614	-0.506140
C150	C	1.505472	-0.104614	-0.256140
C151	C	1.755472	0.145386	-0.006140
C152	C	2.005472	0.395386	0.243860
C153	C	1.337271	-0.354628	-0.506149
C154	C	1.587271	-0.104628	-0.256149
C155	C	1.837271	0.145372	-0.006149
C156	C	2.087271	0.395372	0.243851
C157	C	1.063571	-0.354507	-0.780152
C158	C	1.313571	-0.104507	-0.530152
C159	C	1.563571	0.145493	-0.280152
C160	C	1.813571	0.395493	-0.030152
C161	C	1.063593	-0.354475	-0.896929
C162	C	1.313593	-0.104475	-0.646929
C163	C	1.563593	0.145525	-0.396929
C164	C	1.813593	0.395525	-0.146929
C165	C	1.063617	-0.162628	-0.506192
C166	C	1.313617	0.087372	-0.256192
C167	C	1.563617	0.337372	-0.006192
C168	C	1.813617	0.587372	0.243808
C169	C	1.063659	-0.080829	-0.506223
C170	C	1.313659	0.169171	-0.256223
C171	C	1.563659	0.419171	-0.006223
C172	C	1.813659	0.669171	0.243777
C173	C	1.110692	-0.307410	-0.951816
C174	C	1.360692	-0.057410	-0.701816
C175	C	1.610692	0.192590	-0.451816
C176	C	1.860692	0.442590	-0.201816
C177	C	1.110710	-0.307383	-1.061540
C178	C	1.360710	-0.057383	-0.811540
C179	C	1.610710	0.192617	-0.561540
C180	C	1.860710	0.442617	-0.311540
C181	C	1.016526	-0.401494	-1.061480
C182	C	1.266526	-0.151494	-0.811480
C183	C	1.516526	0.098506	-0.561480
C184	C	1.766526	0.348506	-0.311480
C185	C	1.016505	-0.401516	-0.951758
C186	C	1.266505	-0.151516	-0.701758
C187	C	1.516505	0.098484	-0.451758
C188	C	1.766505	0.348484	-0.201758
C189	C	1.165071	-0.253078	-0.951851
C190	C	1.415071	-0.003078	-0.701851
C191	C	1.665071	0.246922	-0.451851
C192	C	1.915071	0.496922	-0.201851
C193	C	1.165089	-0.253051	-1.061575
C194	C	1.415089	-0.003051	-0.811575
C195	C	1.665089	0.246949	-0.561575
C196	C	1.915089	0.496949	-0.311575
C197	C	1.063510	-0.354602	-0.233151
C198	C	1.313510	-0.104602	0.016849
C199	C	1.563510	0.145398	0.266849
C200	C	1.813510	0.395398	0.516849
C201	C	1.063631	-0.354426	-0.116375
C202	C	1.313631	-0.104426	0.133625
C203	C	1.563631	0.145574	0.383625
C204	C	1.813631	0.395574	0.633625
H205	H	0.494224	-0.269303	-0.628247
H206	H	0.744224	-0.019303	-0.378247
H207	H	0.994224	0.230697	-0.128247
H208	H	1.244224	0.480697	0.121753
Cl209	Cl	0.957280	-0.460675	-0.882760
Cl210	Cl	1.207280	-0.210675	-0.632760
Cl211	Cl	1.457280	0.039325	-0.382760
Cl212	Cl	1.707280	0.289325	-0.132760
H213	H	0.978162	-0.923920	-0.627967
H214	H	1.228162	-0.673920	-0.377967
H215	H	1.478162	-0.423920	-0.127967
H216	H	1.728162	-0.173920	0.122033
Cl217	Cl	0.957334	-0.460628	-1.130416
Cl218	Cl	1.207334	-0.210628	-0.880416
Cl219	Cl	1.457334	0.039372	-0.630416
Cl220	Cl	1.707334	0.289372	-0.380416
H221	H	0.633567	-0.439877	-0.384018
H222	H	0.883567	-0.189877	-0.134018
H223	H	1.133567	0.060123	0.115982
H224	H	1.383567	0.310123	0.365982
H225	H	0.633651	-0.269285	-0.628242
H226	H	0.883651	-0.019285	-0.378242
H227	H	1.133651	0.230715	-0.128242
H228	H	1.383651	0.480715	0.121758
Cl229	Cl	0.477090	-0.460732	-0.354213
Cl230	Cl	0.727090	-0.210732	-0.104213
Cl231	Cl	0.977090	0.039268	0.145787
Cl232	Cl	1.227090	0.289268	0.395787
H233	H	1.222084	-0.268322	-1.091353
H234	H	1.472084	-0.018322	-0.841353
H235	H	1.722084	0.231678	-0.591353
H236	H	1.972084	0.481678	-0.341353
Cl237	Cl	1.169825	-0.767484	-0.354602
Cl238	Cl	1.419825	-0.517484	-0.104602
Cl239	Cl	1.669825	-0.267484	0.145398
Cl240	Cl	1.919825	-0.017484	0.395398
Cl241	Cl	0.957241	-0.767452	-0.657664
Cl242	Cl	1.207241	-0.517452	-0.407664
Cl243	Cl	1.457241	-0.267452	-0.157664
Cl244	Cl	1.707241	-0.017452	0.092336
Cl245	Cl	1.169899	-0.940953	-0.354664
Cl246	Cl	1.419899	-0.690953	-0.104664
Cl247	Cl	1.669899	-0.440953	0.145336
Cl248	Cl	1.919899	-0.190953	0.395336
Cl249	Cl	1.141544	-0.165085	-0.905914
Cl250	Cl	1.391544	0.084915	-0.655914
Cl251	Cl	1.641544	0.334915	-0.405914
Cl252	Cl	1.891544	0.584915	-0.155914
H253	H	1.144705	-0.198896	-1.095630
H254	H	1.394705	0.051104	-0.845630
H255	H	1.644705	0.301104	-0.595630
H256	H	1.894705	0.551104	-0.345630
Cl257	Cl	1.248632	-0.284627	-0.899291
Cl258	Cl	1.498632	-0.034627	-0.649291
Cl259	Cl	1.748632	0.215373	-0.399291
Cl260	Cl	1.998632	0.465373	-0.149291
