data_functionalizedCrystal
_audit_creation_method	'MofGen! by Chris Wilmer'
_symmetry_space_group_name_H-M	'P1'
_symmetry_Int_Tables_number	1
_symmetry_cell_setting	triclinic
loop_
_symmetry_equiv_pos_as_xyz
  x,y,z
_cell_length_a	19.121424
_cell_length_b	21.295417
_cell_length_c	21.295396
_cell_angle_alpha	89.893877
_cell_angle_beta	92.366534
_cell_angle_gamma	92.474490
loop_
_atom_site_label
_atom_site_type_symbol
_atom_site_fract_x
_atom_site_fract_y
_atom_site_fract_z
Zn1	Zn	1.073999	-0.209109	-0.314991
Zn2	Zn	1.573999	0.290891	0.185009
Zn3	Zn	1.073796	-0.314523	-0.209724
Zn4	Zn	1.573796	0.185477	0.290276
Zn5	Zn	0.956450	-0.213757	-0.214214
Zn6	Zn	1.456450	0.286243	0.285786
Zn7	Zn	0.956509	-0.318834	-0.319425
Zn8	Zn	1.456509	0.181166	0.180575
O9	O	1.015188	-0.264056	-0.264588
O10	O	1.515188	0.235944	0.235412
O11	O	1.172251	-0.219343	-0.297292
O12	O	1.672251	0.280657	0.202708
O13	O	1.058121	-0.301298	-0.122234
O14	O	1.558121	0.198702	0.377766
O15	O	0.972103	-0.125049	-0.227607
O16	O	1.472103	0.374951	0.272393
O17	O	1.172103	-0.296791	-0.219953
O18	O	1.672103	0.203209	0.280047
O19	O	1.058465	-0.121634	-0.301647
O20	O	1.558465	0.378366	0.198353
O21	O	0.971907	-0.227265	-0.125533
O22	O	1.471907	0.272735	0.374467
O23	O	0.858178	-0.231445	-0.231906
O24	O	1.358178	0.268555	0.268094
O25	O	0.972204	-0.304138	-0.406922
O26	O	1.472204	0.195862	0.093078
O27	O	0.858221	-0.308645	-0.309203
O28	O	1.358221	0.191355	0.190797
O29	O	1.058523	-0.223523	-0.403665
O30	O	1.558523	0.276477	0.096335
O31	O	1.058178	-0.403187	-0.224252
O32	O	1.558178	0.096813	0.275748
O33	O	0.972007	-0.406354	-0.304849
O34	O	1.472007	0.093646	0.195151
C35	C	0.832717	-0.271018	-0.271523
C36	C	1.332717	0.228982	0.228477
C37	C	0.754655	-0.274011	-0.274505
C38	C	1.254655	0.225989	0.225495
C39	C	0.313153	-0.292940	-0.293434
C40	C	0.813153	0.207060	0.206566
C41	C	0.386500	-0.290132	-0.290621
C42	C	0.886500	0.209868	0.209379
C43	C	0.423129	-0.248470	-0.249036
C44	C	0.923129	0.251530	0.250964
C45	C	0.386406	-0.209617	-0.210258
C46	C	0.886406	0.290383	0.289742
C47	C	0.313059	-0.212429	-0.213069
C48	C	0.813059	0.287571	0.286931
C49	C	0.644585	-0.237970	-0.238537
C50	C	1.144585	0.262030	0.261463
C51	C	0.717937	-0.235160	-0.235731
C52	C	1.217937	0.264840	0.264269
C53	C	0.718026	-0.315677	-0.316093
C54	C	1.218026	0.184323	0.183907
C55	C	0.644679	-0.318482	-0.318903
C56	C	1.144679	0.181518	0.181097
C57	C	0.607962	-0.279631	-0.280122
C58	C	1.107962	0.220369	0.219878
C59	C	0.498102	-0.245597	-0.246161
C60	C	0.998102	0.254403	0.253839
C61	C	0.532990	-0.282507	-0.282995
C62	C	1.032990	0.217493	0.217005
C63	C	1.015096	-0.427611	-0.264557
C64	C	1.515096	0.072389	0.235443
C65	C	1.015121	-0.497578	-0.264562
C66	C	1.515121	0.002422	0.235438
C67	C	1.060030	-0.528773	-0.222635
C68	C	1.560030	-0.028773	0.277365
C69	C	1.060063	-0.594514	-0.222648
C70	C	1.560063	-0.094514	0.277352
C71	C	1.015174	-0.629059	-0.264582
C72	C	1.515174	-0.129059	0.235418
C73	C	0.970262	-0.597856	-0.306517
C74	C	1.470262	-0.097856	0.193483
C75	C	0.970236	-0.532116	-0.306507
C76	C	1.470236	-0.032116	0.193493
N77	N	0.953741	-0.734666	-0.271716
N78	N	1.453741	-0.234666	0.228284
N79	N	0.953769	-0.797116	-0.271721
N80	N	1.453769	-0.297116	0.228279
C81	C	1.015253	-0.827130	-0.264615
C82	C	1.515253	-0.327130	0.235385
N83	N	1.076711	-0.792334	-0.257491
N84	N	1.576711	-0.292334	0.242509
N85	N	1.076682	-0.729878	-0.257482
N86	N	1.576682	-0.229878	0.242518
C87	C	1.015199	-0.700343	-0.264598
C88	C	1.515199	-0.200343	0.235402
C89	C	1.060202	-0.929609	-0.222700
C90	C	1.560202	-0.429609	0.277300
C91	C	1.060236	-0.995352	-0.222717
C92	C	1.560236	-0.495352	0.277283
C93	C	0.970429	-0.998692	-0.306583
C94	C	1.470429	-0.498692	0.193417
C95	C	0.970401	-0.932951	-0.306568
C96	C	1.470401	-0.432951	0.193432
C97	C	1.015286	-0.898413	-0.264624
C98	C	1.515286	-0.398413	0.235376
C99	C	1.198373	-0.257067	-0.257627
C100	C	1.698373	0.242933	0.242373
C101	C	1.276435	-0.254089	-0.254660
C102	C	1.776435	0.245911	0.245340
C103	C	1.015392	-0.263793	-0.428771
C104	C	1.515392	0.236207	0.071229
C105	C	1.015479	-0.263680	-0.498737
C106	C	1.515479	0.236320	0.001263
C107	C	1.015300	-0.099861	-0.264633
C108	C	1.515300	0.400139	0.235367
C109	C	1.015348	-0.029891	-0.264652
C110	C	1.515348	0.470109	0.235348
C111	C	1.015026	-0.264271	-0.101043
C112	C	1.515026	0.235729	0.398957
C113	C	1.015075	-0.264201	-0.031073
C114	C	1.515075	0.235799	0.468927
C115	C	0.970250	-0.225470	0.466639
C116	C	1.470250	0.274530	0.966639
C117	C	0.970195	-0.225536	0.400895
C118	C	1.470195	0.274464	0.900895
C119	C	1.015382	-0.263806	0.369778
C120	C	1.515382	0.236194	0.869778
C121	C	1.060614	-0.302025	0.404410
C122	C	1.560614	0.197975	0.904410
C123	C	1.060663	-0.301962	0.470153
C124	C	1.560663	0.198038	0.970153
N125	N	1.076816	-0.265987	0.268807
N126	N	1.576816	0.234013	0.768807
N127	N	1.076768	-0.266044	0.206354
N128	N	1.576768	0.233956	0.706354
C129	C	1.015237	-0.263999	0.171698
C130	C	1.515237	0.236001	0.671698
N131	N	0.953755	-0.261884	0.201854
N132	N	1.453755	0.238116	0.701854
N133	N	0.953804	-0.261825	0.264313
N134	N	1.453804	0.238175	0.764313
C135	C	1.015334	-0.263879	0.298490
C136	C	1.515334	0.236121	0.798490
C137	C	0.969944	-0.225859	0.065786
C138	C	1.469944	0.274141	0.565786
C139	C	0.969888	-0.225929	0.000040
C140	C	1.469888	0.274071	0.500040
C141	C	1.060314	-0.302414	0.003557
C142	C	1.560314	0.197586	0.503557
C143	C	1.060364	-0.302347	0.069301
C144	C	1.560364	0.197653	0.569301
C145	C	1.015180	-0.264066	0.100411
C146	C	1.515180	0.235934	0.600411
H147	H	0.614699	-0.206338	-0.206957
H148	H	1.114699	0.293662	0.293043
H149	H	0.933052	-0.194816	-0.028151
H150	H	1.433052	0.305184	0.471849
H151	H	0.283335	-0.326863	-0.327300
H152	H	0.783335	0.173137	0.172700
H153	H	1.097107	-0.333573	-0.021778
H154	H	1.597107	0.166427	0.478222
H155	H	1.097497	-0.333077	0.498344
H156	H	1.597497	0.166923	0.998344
H157	H	0.416234	-0.175697	-0.176396
H158	H	0.916234	0.324303	0.323604
H159	H	1.096636	-0.619918	-0.188506
H160	H	1.596636	-0.119918	0.311494
H161	H	0.933715	-0.625986	-0.340661
H162	H	1.433715	-0.125986	0.159339
H163	H	0.283164	-0.180790	-0.181497
H164	H	0.783164	0.319210	0.318503
H165	H	0.933883	-1.026817	-0.340729
H166	H	1.433883	-0.526817	0.159271
H167	H	0.933153	-0.194688	0.091117
H168	H	1.433153	0.305312	0.591117
H169	H	0.503164	-0.316431	-0.316851
H170	H	1.003164	0.183569	0.183149
H171	H	0.527933	-0.211675	-0.212304
H172	H	1.027933	0.288325	0.287696
H173	H	0.933829	-0.907550	-0.340707
H174	H	1.433829	-0.407550	0.159293
H175	H	0.416393	-0.321771	-0.322193
H176	H	0.916393	0.178229	0.177807
H177	H	1.096810	-1.020749	-0.188576
H178	H	1.596810	-0.520749	0.311424
H179	H	1.097196	-0.333461	0.097493
H180	H	1.597196	0.166539	0.597493
H181	H	0.933665	-0.506716	-0.340650
H182	H	1.433665	-0.006716	0.159350
H183	H	0.614861	-0.352409	-0.352764
H184	H	1.114861	0.147591	0.147236
H185	H	1.097406	-0.333185	0.379070
H186	H	1.597406	0.166815	0.879070
H187	H	1.096752	-0.901488	-0.188548
H188	H	1.596752	-0.401488	0.311452
H189	H	1.096580	-0.500655	-0.188483
H190	H	1.596580	-0.000655	0.311517
H191	H	0.747929	-0.347307	-0.347666
H192	H	1.247929	0.152693	0.152334
H193	H	0.933455	-0.194300	0.491965
H194	H	1.433455	0.305700	0.991965
H195	H	0.747757	-0.201225	-0.201873
H196	H	1.247757	0.298775	0.298127
H197	H	0.933365	-0.194417	0.372698
H198	H	1.433365	0.305583	0.872698
