data_functionalizedCrystal
_audit_creation_method	'MofGen! by Chris Wilmer'
_symmetry_space_group_name_H-M	'P1'
_symmetry_Int_Tables_number	1
_symmetry_cell_setting	triclinic
loop_
_symmetry_equiv_pos_as_xyz
  x,y,z
_cell_length_a	10.489746
_cell_length_b	10.654554
_cell_length_c	9.730223
_cell_angle_alpha	89.999131
_cell_angle_beta	90.002699
_cell_angle_gamma	84.514023
loop_
_atom_site_label
_atom_site_type_symbol
_atom_site_fract_x
_atom_site_fract_y
_atom_site_fract_z
O1	O	1.693960	0.177217	-0.114196
O2	O	1.322757	0.193843	-0.114219
O3	O	1.516890	0.002795	-0.114199
O4	O	1.499827	0.368265	-0.114215
O5	O	1.516888	0.002800	0.114381
O6	O	1.322755	0.193848	0.114361
O7	O	1.693958	0.177222	0.114384
Zn8	Zn	1.508356	0.185536	0.150665
Zn9	Zn	1.508359	0.185529	-0.150499
O10	O	1.499825	0.368270	0.114365
C11	C	1.515635	-0.044001	0.000089
C12	C	1.511883	-0.183445	0.000086
C13	C	1.275225	0.192588	0.000068
C14	C	1.133598	0.188827	0.000060
C15	C	1.622664	-0.393900	0.000075
C16	C	1.626191	-0.262877	0.000090
C17	C	1.394041	-0.235043	0.000082
C18	C	1.390516	-0.366064	0.000077
C19	C	1.756694	-0.409969	0.000073
C20	C	1.760221	-0.278946	0.000088
C21	C	0.980798	0.065043	0.000084
C22	C	1.058162	0.126933	0.112780
C23	C	1.058119	0.126957	-0.112582
C24	C	0.958615	0.244079	0.112882
C25	C	0.958568	0.244086	-0.112581
C26	C	1.035882	0.306061	0.000141
C27	C	1.741490	0.178477	0.000094
C28	C	1.883117	0.182238	0.000093
C29	C	1.501080	0.415066	0.000073
C30	C	1.504832	0.554511	0.000067
N31	N	1.508363	0.185539	0.356201
N32	N	1.508362	0.185516	-0.356036
C33	C	1.594348	0.100973	0.428136
C34	C	1.594344	0.100957	0.572019
C35	C	1.422368	0.270087	0.572020
C36	C	1.422366	0.270095	0.428139
C37	C	1.693641	0.003330	0.428136
C38	C	1.693637	0.003315	0.572019
H39	H	1.294566	-0.408062	0.000083
H40	H	1.786253	0.033964	0.383514
H41	H	1.807201	-0.451699	0.095729
F42	F	1.272386	-0.150503	0.000094
F43	F	1.330837	0.360086	0.351581
H44	H	1.791661	0.024881	0.611075
F45	F	1.828731	-0.240518	-0.124935
F46	F	0.902020	0.308703	0.237559
H47	H	1.802910	-0.243302	0.098789
F48	F	1.809624	-0.469605	-0.128924
F49	F	0.948544	-0.068152	0.000235
F50	F	0.901677	0.308692	-0.237128
H51	H	1.101660	0.077461	0.208063
F52	F	1.067811	0.439359	0.000209
F53	F	1.114935	0.062262	-0.237117
H54	H	1.352351	0.338929	0.630607
F55	F	1.665172	-0.122855	0.377086
H56	H	1.662645	-0.087922	0.616636
