data_functionalizedCrystal
_audit_creation_method	'MofGen! by Chris Wilmer'
_symmetry_space_group_name_H-M	'P1'
_symmetry_Int_Tables_number	1
_symmetry_cell_setting	triclinic
loop_
_symmetry_equiv_pos_as_xyz
  x,y,z
_cell_length_a	10.489716
_cell_length_b	15.944551
_cell_length_c	9.565339
_cell_angle_alpha	89.999279
_cell_angle_beta	89.996780
_cell_angle_gamma	84.013937
loop_
_atom_site_label
_atom_site_type_symbol
_atom_site_fract_x
_atom_site_fract_y
_atom_site_fract_z
O1	O	1.692430	0.118403	-0.116252
O2	O	1.321075	0.129548	-0.116258
O3	O	1.516893	0.001761	-0.116242
O4	O	1.496612	0.246190	-0.116268
O5	O	1.516878	0.001769	0.116278
O6	O	1.321060	0.129556	0.116262
O7	O	1.692414	0.118410	0.116268
Zn8	Zn	1.506735	0.123984	0.153183
Zn9	Zn	1.506755	0.123974	-0.153172
O10	O	1.496596	0.246198	0.116253
C11	C	1.273547	0.128714	0.000002
C12	C	1.131951	0.126209	0.000000
C13	C	1.033191	0.204572	-0.000011
C14	C	0.956411	0.163167	0.114644
C15	C	0.956433	0.163141	-0.114603
C16	C	1.057036	0.084837	0.114750
C17	C	1.057064	0.084822	-0.114600
C18	C	0.980334	0.043360	0.000084
C19	C	1.516044	-0.029534	0.000018
C20	C	1.513519	-0.122795	0.000019
C21	C	1.386109	-0.338411	-0.000002
C22	C	1.445266	-0.399072	0.114645
C23	C	1.508953	-0.293548	0.000008
C24	C	1.445311	-0.399063	-0.114601
C25	C	1.504533	-0.458487	-0.000008
C26	C	1.568144	-0.352981	0.114750
C27	C	1.568171	-0.352966	-0.114599
C28	C	1.627418	-0.413609	0.000076
C29	C	1.511496	-0.198531	0.000019
C30	C	1.501999	-0.553504	-0.000009
C31	C	1.739942	0.119244	0.000005
C32	C	1.881539	0.121749	-0.000002
N33	N	1.506730	0.123991	0.362262
C34	C	1.497446	0.277493	-0.000011
C35	C	1.499970	0.370754	-0.000021
N36	N	1.506770	0.123961	-0.362252
C37	C	1.416143	0.183068	0.453458
C38	C	1.531406	0.200058	0.546637
C39	C	1.391517	0.107009	0.546639
C40	C	1.622051	0.141018	0.453389
C41	C	1.482086	0.047936	0.453383
C42	C	1.597432	0.064893	0.546520
H43	H	1.056915	0.272736	0.000089
H44	H	1.284142	-0.305710	0.000111
H45	H	0.912497	0.196234	-0.211521
C46	C	0.897026	0.207863	0.245575
N47	N	0.852296	0.241534	0.344186
C48	C	1.559594	0.286928	0.601989
N49	N	1.580815	0.352361	0.643681
C50	C	1.116159	0.040186	0.245840
N51	N	1.160692	0.006560	0.344579
C52	C	0.948592	-0.048791	0.000186
N53	N	0.924679	-0.118197	0.000272
C54	C	1.259866	0.087617	0.601969
N55	N	1.160703	0.073016	0.643637
H56	H	1.729474	-0.446160	0.000142
C57	C	1.638312	-0.325354	-0.245547
N58	N	1.691133	-0.304554	-0.344189
C59	C	1.753729	0.160514	0.398291
N60	N	1.852906	0.175202	0.356787
H61	H	1.620052	-0.332678	0.211782
C62	C	1.312753	0.250624	0.398239
N63	N	1.234888	0.301508	0.356644
H64	H	1.393302	-0.419486	0.211569
H65	H	1.393343	-0.419452	-0.211534
C66	C	1.116454	0.040161	-0.245547
N67	N	1.161183	0.006525	-0.344189
H68	H	1.674139	0.014918	0.587124
H69	H	1.461179	-0.016349	0.412390
