data_functionalizedCrystal
_audit_creation_method	'MofGen! by Chris Wilmer'
_symmetry_space_group_name_H-M	'P1'
_symmetry_Int_Tables_number	1
_symmetry_cell_setting	triclinic
loop_
_symmetry_equiv_pos_as_xyz
  x,y,z
_cell_length_a	22.610064
_cell_length_b	23.532407
_cell_length_c	27.732066
_cell_angle_alpha	82.749389
_cell_angle_beta	89.992187
_cell_angle_gamma	90.002839
loop_
_atom_site_label
_atom_site_type_symbol
_atom_site_fract_x
_atom_site_fract_y
_atom_site_fract_z
O1	O	-0.049106	-0.755143	-0.058671
O2	O	-0.049123	-0.589262	-0.067162
O3	O	-0.049116	-0.677349	0.007472
O4	O	-0.049113	-0.667056	-0.133305
O5	O	0.049253	-0.677333	0.007461
O6	O	0.049246	-0.589246	-0.067173
O7	O	0.049263	-0.755127	-0.058682
Zn8	Zn	0.064873	-0.672184	-0.062929
Zn9	Zn	-0.064733	-0.672205	-0.062915
O10	O	0.049256	-0.667040	-0.133316
C11	C	0.000060	-0.568039	-0.066951
C12	C	0.000053	-0.504823	-0.066301
N13	N	0.153325	-0.672174	-0.062939
N14	N	-0.153185	-0.672219	-0.062902
C15	C	0.000067	-0.677123	0.025473
C16	C	0.000062	-0.676468	0.079129
C17	C	0.561970	-0.711211	-0.029872
C18	C	0.623890	-0.711214	-0.029869
O19	O	0.655911	-0.744381	-0.001762
N20	N	0.654863	-0.672204	-0.062905
C21	C	0.623912	-0.633185	-0.095943
O22	O	0.655943	-0.600004	-0.124042
C23	C	0.561993	-0.633180	-0.095944
C24	C	0.531024	-0.672196	-0.062909
C25	C	0.531000	-0.750224	0.003160
C26	C	0.469085	-0.750222	0.003156
C27	C	0.438139	-0.711207	-0.029881
C28	C	0.469108	-0.672194	-0.062913
C29	C	0.531044	-0.594159	-0.128980
C30	C	0.469121	-0.594156	-0.128978
C31	C	0.438152	-0.633173	-0.095943
C32	C	0.376247	-0.633176	-0.095955
N33	N	0.345274	-0.672186	-0.062919
C34	C	0.376220	-0.711201	-0.029882
C35	C	0.753946	-0.633198	-0.095939
C36	C	0.815863	-0.633206	-0.095940
C37	C	0.815837	-0.711234	-0.029865
C38	C	0.753918	-0.711229	-0.029866
C39	C	0.722973	-0.672208	-0.062902
C40	C	0.246193	-0.711194	-0.029893
C41	C	0.184271	-0.711190	-0.029902
C42	C	0.184303	-0.633159	-0.095975
C43	C	0.246219	-0.633165	-0.095969
C44	C	0.277162	-0.672185	-0.062924
O45	O	0.344186	-0.600026	-0.124046
O46	O	0.344182	-0.744372	-0.001783
C47	C	0.000079	-0.776351	-0.058893
C48	C	0.000082	-0.839566	-0.059543
C49	C	0.000081	-0.105637	-0.106390
C50	C	0.000084	-0.046238	-0.105786
O51	O	0.000106	-0.009417	-0.142950
N52	N	0.000082	-0.023703	-0.061417
C53	C	0.000083	-0.060571	-0.017648
O54	O	0.000082	-0.035949	0.020147
C55	C	0.000084	-0.119969	-0.018253
C56	C	0.000079	-0.142500	-0.062625
C57	C	0.000077	-0.128169	-0.150759
C58	C	0.000072	-0.187564	-0.151363
C59	C	0.000071	-0.224427	-0.107598
C60	C	0.000075	-0.201895	-0.063229
C61	C	0.000088	-0.156835	0.025515
C62	C	0.000089	-0.216237	0.024907
C63	C	0.000085	-0.238768	-0.019465
C64	C	0.000069	-0.298153	-0.020067
N65	N	0.000071	-0.320688	-0.064437
C66	C	0.000072	-0.283825	-0.108202
C67	C	0.000083	0.064169	-0.016383
C68	C	0.000078	0.123566	-0.015778
C69	C	0.000080	0.137894	-0.103916
C70	C	0.000081	0.078496	-0.104520
C71	C	0.000084	0.041634	-0.060752
C72	C	0.000061	-0.408559	-0.109466
C73	C	0.000054	-0.467960	-0.110066
C74	C	0.000055	-0.482283	-0.021928
C75	C	0.000059	-0.422888	-0.021328
C76	C	0.000064	-0.386026	-0.065101
O77	O	0.000049	-0.335009	0.017076
O78	O	0.000080	-0.308455	-0.145991
C79	C	0.000056	-0.619951	0.456288
C80	C	0.000055	-0.622363	0.254624
O81	O	0.000026	-0.578510	0.223439
N82	N	0.000060	-0.674597	0.235416
C83	C	0.000061	-0.726232	0.266628
O84	O	0.000059	-0.770716	0.245663
C85	C	0.000059	-0.723820	0.468291
C86	C	0.000060	-0.671582	0.487496
C87	C	0.000057	-0.567717	0.475493
C88	C	0.000060	-0.567115	0.525906
C89	C	0.000064	-0.618746	0.557114
C90	C	0.000064	-0.670979	0.537909
C91	C	0.000056	-0.775454	0.499502
C92	C	0.000054	-0.774846	0.549920
C93	C	0.000055	-0.722608	0.569125
C94	C	0.000071	-0.722008	0.619529
N95	N	0.000066	-0.669773	0.638737
C96	C	0.000062	-0.618142	0.607529
C97	C	0.000064	-0.727496	0.160752
C98	C	0.000065	-0.728099	0.110336
C99	C	0.000057	-0.624229	0.098336
C100	C	0.000060	-0.623627	0.148752
C101	C	0.000059	-0.675261	0.179960
C102	C	0.000070	-0.616881	0.713401
C103	C	0.000077	-0.616283	0.763819
C104	C	0.000081	-0.720152	0.775815
C105	C	0.000078	-0.720751	0.725401
C106	C	0.000071	-0.669110	0.694195
O107	O	0.000092	-0.765838	0.650743
O108	O	0.000051	-0.573665	0.628504
C109	C	0.000053	-0.620553	0.405875
C110	C	0.000052	-0.672787	0.386670
C111	C	0.000056	-0.724418	0.417877
C112	C	0.000054	-0.673390	0.336254
C113	C	0.000051	-0.621759	0.305047
C114	C	0.000046	-0.569525	0.324254
C115	C	0.000049	-0.568922	0.374667
C116	C	0.000061	-0.776652	0.398670
C117	C	0.000058	-0.777250	0.348256
C118	C	0.000054	-0.725619	0.317048
C119	C	0.000074	-0.667264	0.848682
C120	C	0.000080	-0.667914	0.795026
H121	H	0.159058	-0.742963	-0.003001
N122	N	0.000099	-0.253882	0.069621
N123	N	0.000106	-0.233752	0.109232
H124	H	0.000113	-0.260337	0.140812
H125	H	0.000050	-0.486301	-0.146201
H126	H	0.000052	-0.512308	0.013704
H127	H	0.000080	-0.098160	-0.186400
N128	N	0.000104	-0.133843	0.070847
N129	N	0.041575	-0.145286	0.100273
H130	H	0.041588	-0.129050	0.132292
H131	H	0.000069	-0.205903	-0.187495
H132	H	0.000081	0.060156	-0.140652
N133	N	0.000090	0.026516	0.028329
N134	N	0.041555	0.028359	0.057898
H135	H	0.041562	0.001769	0.089475
N136	N	0.000054	-0.399879	0.024000
N137	N	0.000049	-0.432801	0.063073
H138	H	0.000050	-0.416555	0.095087
H139	H	0.000084	0.167919	-0.139552
H140	H	0.000055	-0.817991	0.483874
N141	N	0.000044	-0.514973	0.443620
N142	N	-0.041423	-0.480136	0.445241
H143	H	-0.041429	-0.442882	0.422733
H144	H	0.000072	0.141905	0.020355
H145	H	0.000080	-0.573743	0.779452
H146	H	0.000087	-0.762189	0.801233
N147	N	0.000058	-0.564127	0.681536
N148	N	0.000056	-0.517498	0.698699
H149	H	0.000049	-0.480240	0.676195
H150	H	0.000056	-0.524577	0.541538
N151	N	0.722348	-0.593335	-0.129692
N152	N	0.750015	-0.558510	-0.159184
H153	H	0.727702	-0.530355	-0.183022
N154	N	0.000065	-0.570263	0.168359
N155	N	0.000067	-0.524170	0.140484
H156	H	0.000071	-0.486479	0.154328
H157	H	0.000050	-0.816894	0.575327
N158	N	0.000061	-0.829400	0.430536
N159	N	0.000063	-0.876030	0.413375
H160	H	0.000065	-0.913288	0.435879
N161	N	0.000051	-0.370912	-0.154179
N162	N	-0.041415	-0.336173	-0.163672
H163	H	-0.041426	-0.309585	-0.195250
H164	H	0.000057	-0.582189	0.072918
N165	N	0.847456	-0.751071	0.003896
N166	N	0.881995	-0.733250	0.033821
H167	H	0.904326	-0.761380	0.057667
N168	N	0.000078	-0.781464	0.090730
N169	N	0.000081	-0.827556	0.118606
H170	H	0.000088	-0.865247	0.104761
H171	H	0.271379	-0.742966	-0.002985
H172	H	0.000063	-0.769545	0.186157
H173	H	0.000086	-0.763287	0.709764
N174	N	0.000053	-0.515557	0.394273
N175	N	0.000050	-0.469466	0.366395
H176	H	0.000052	-0.431774	0.380238
N177	N	0.277864	-0.593321	-0.129715
N178	N	0.312425	-0.611121	-0.159641
H179	H	0.334770	-0.582977	-0.183472
N180	N	0.847485	-0.593356	-0.129695
N181	N	0.819840	-0.558528	-0.159190
H182	H	0.842170	-0.530381	-0.183029
H183	H	0.159098	-0.601395	-0.122875
H184	H	0.000047	-0.527485	0.298836
H185	H	0.000062	-0.819792	0.332625
H186	H	0.443873	-0.781990	0.030057
H187	H	0.556191	-0.781995	0.030065
H188	H	0.556251	-0.562388	-0.155880
N189	N	0.722295	-0.751058	0.003906
N190	N	0.749941	-0.785870	0.033414
H191	H	0.727611	-0.813990	0.057277
N192	N	0.437522	-0.554290	-0.162726
N193	N	0.465186	-0.519460	-0.192216
H194	H	0.442870	-0.491305	-0.216052
