data_functionalizedCrystal
_audit_creation_method	'MofGen! by Chris Wilmer'
_symmetry_space_group_name_H-M	'P1'
_symmetry_Int_Tables_number	1
_symmetry_cell_setting	triclinic
loop_
_symmetry_equiv_pos_as_xyz
  x,y,z
_cell_length_a	12.645331
_cell_length_b	16.625546
_cell_length_c	16.625539
_cell_angle_alpha	89.969603
_cell_angle_beta	89.979221
_cell_angle_gamma	90.021447
loop_
_atom_site_label
_atom_site_type_symbol
_atom_site_fract_x
_atom_site_fract_y
_atom_site_fract_z
Zn1	Zn	1.620676	-0.321022	-0.455902
Zn2	Zn	2.120676	0.178978	0.044098
Zn3	Zn	1.620549	-0.455865	-0.321064
Zn4	Zn	2.120549	0.044135	0.178936
Zn5	Zn	1.443397	-0.321048	-0.321082
Zn6	Zn	1.943397	0.178952	0.178918
Zn7	Zn	1.443358	-0.455814	-0.455854
Zn8	Zn	1.943358	0.044186	0.044146
O9	O	1.531995	-0.388437	-0.388476
O10	O	2.031995	0.111563	0.111524
O11	O	1.769007	-0.338920	-0.438028
O12	O	2.269007	0.161080	0.061972
O13	O	1.597012	-0.438014	-0.208234
O14	O	2.097012	0.061986	0.291766
O15	O	1.466983	-0.208212	-0.338994
O16	O	1.966983	0.291788	0.161006
O17	O	1.768913	-0.437989	-0.338964
O18	O	2.268913	0.062011	0.161036
O19	O	1.597229	-0.208193	-0.438046
O20	O	2.097229	0.291807	0.061954
O21	O	1.466859	-0.338964	-0.208247
O22	O	1.966859	0.161036	0.291753
O23	O	1.295044	-0.338914	-0.338947
O24	O	1.795044	0.161086	0.161053
O25	O	1.466916	-0.437901	-0.568693
O26	O	1.966916	0.062099	-0.068693
O27	O	1.295016	-0.437926	-0.437963
O28	O	1.795016	0.062074	0.062037
O29	O	1.597192	-0.338870	-0.568728
O30	O	2.097192	0.161130	-0.068728
O31	O	1.596975	-0.568691	-0.338917
O32	O	2.096975	-0.068691	0.161083
O33	O	1.466793	-0.568653	-0.437946
O34	O	1.966793	-0.068653	0.062054
C35	C	1.531895	-0.597928	-0.388442
C36	C	2.031895	-0.097928	0.111558
C37	C	1.531949	-0.687549	-0.388454
C38	C	2.031949	-0.187549	0.111546
C39	C	1.256565	-0.388418	-0.388452
C40	C	1.756565	0.111582	0.111548
C41	C	1.138735	-0.388429	-0.388461
C42	C	1.638735	0.111571	0.111539
C43	C	1.532134	-1.015725	-0.388538
C44	C	2.032134	-0.515725	0.111462
C45	C	1.532079	-0.924416	-0.388517
C46	C	2.032079	-0.424416	0.111483
C47	C	1.532040	-0.851640	-0.388496
C48	C	2.032040	-0.351640	0.111504
C49	C	1.531987	-0.760326	-0.388476
C50	C	2.031987	-0.260326	0.111524
C51	C	0.971154	-0.325854	-0.326514
C52	C	1.471154	0.174146	0.173486
C53	C	1.093713	-0.326016	-0.326241
C54	C	1.593713	0.173984	0.173759
C55	C	1.094207	-0.473368	-0.365243
C56	C	1.594207	0.026632	0.134757
C57	C	0.971608	-0.473026	-0.364820
C58	C	1.471608	0.026974	0.135180
C59	C	0.971584	-0.366874	-0.473867
C60	C	1.471584	0.133126	0.026133
C61	C	1.094190	-0.364977	-0.473392
C62	C	1.594190	0.135023	0.026608
C63	C	1.808500	-0.388457	-0.388499
C64	C	2.308500	0.111543	0.111501
C65	C	1.926330	-0.388466	-0.388510
C66	C	2.426330	0.111534	0.111490
C67	C	1.532064	-0.388377	-0.598785
C68	C	2.032064	0.111623	-0.098785
C69	C	1.532093	-0.388352	-0.688406
C70	C	2.032093	0.111648	-0.188406
C71	C	1.532124	-0.178128	-0.388527
C72	C	2.032124	0.321872	0.111473
C73	C	1.532180	-0.088507	-0.388549
C74	C	2.032180	0.411493	0.111451
C75	C	1.532142	-0.388261	-1.016582
C76	C	2.032142	0.111739	-0.516582
C77	C	1.532126	-0.388289	-0.925273
C78	C	2.032126	0.111711	-0.425273
C79	C	1.532118	-0.388307	-0.852497
C80	C	2.032118	0.111693	-0.352497
C81	C	1.532101	-0.388334	-0.761182
C82	C	2.032101	0.111666	-0.261182
C83	C	1.531987	-0.388439	-0.178985
C84	C	2.031987	0.111561	0.321015
C85	C	1.532163	-0.388237	-0.089364
C86	C	2.032163	0.111763	0.410636
H87	H	1.123820	-0.263031	-0.340795
H88	H	1.623820	0.236969	0.159205
Cl89	Cl	1.139152	-0.268481	-0.500435
Cl90	Cl	1.639152	0.231519	-0.000435
Cl91	Cl	0.926832	-0.437280	-0.545185
Cl92	Cl	1.426832	0.062720	-0.045185
Cl93	Cl	1.138926	-0.348045	-0.228582
Cl94	Cl	1.638926	0.151955	0.271418
H95	H	0.940693	-0.306018	-0.494981
H96	H	1.440693	0.193982	0.005019
Cl97	Cl	0.923509	-0.347626	-0.229433
Cl98	Cl	1.423509	0.152374	0.270567
Cl99	Cl	1.139215	-0.547319	-0.432774
Cl100	Cl	1.639215	-0.047319	0.067226
Cl101	Cl	0.925823	-0.547492	-0.431487
Cl102	Cl	1.425823	-0.047492	0.068513
H103	H	0.942963	-0.491337	-0.302420
H104	H	1.442963	0.008663	0.197580
H105	H	1.124841	-0.407253	-0.522055
H106	H	1.624841	0.092747	-0.022055
Cl107	Cl	1.141530	-0.502126	-0.269934
Cl108	Cl	1.641530	-0.002126	0.230066
H109	H	0.941696	-0.262680	-0.340912
H110	H	1.441696	0.237320	0.159088
