data_functionalizedCrystal
_audit_creation_method	'MofGen! by Chris Wilmer'
_symmetry_space_group_name_H-M	'P1'
_symmetry_Int_Tables_number	1
_symmetry_cell_setting	triclinic
loop_
_symmetry_equiv_pos_as_xyz
  x,y,z
_cell_length_a	10.723023
_cell_length_b	17.038272
_cell_length_c	15.500215
_cell_angle_alpha	92.987413
_cell_angle_beta	93.158621
_cell_angle_gamma	87.789552
loop_
_atom_site_label
_atom_site_type_symbol
_atom_site_fract_x
_atom_site_fract_y
_atom_site_fract_z
O1	O	1.672860	0.112990	0.071943
O2	O	1.310679	0.123493	0.071946
O3	O	1.489617	0.004414	0.071938
O4	O	1.493923	0.232069	0.071951
O5	O	1.478556	-0.002132	-0.071952
O6	O	1.299619	0.116947	-0.071944
O7	O	1.661799	0.106444	-0.071946
Cu8	Cu	1.479699	0.111098	-0.085083
Cu9	Cu	1.492780	0.118839	0.085083
O10	O	1.482862	0.225523	-0.071938
C11	C	1.258579	0.119456	0.000001
C12	C	1.119813	0.117169	0.000002
C13	C	1.063677	0.119541	0.074541
C14	C	0.920255	0.117178	0.074544
C15	C	1.480171	-0.028009	-0.000007
C16	C	1.468489	-0.114866	-0.000007
C17	C	1.575744	-0.164388	-0.000008
C18	C	1.564761	-0.245999	0.000000
C19	C	1.446520	-0.278087	0.000004
C20	C	1.339257	-0.228559	0.000008
C21	C	1.350242	-0.146949	0.000006
C22	C	1.407712	-0.524059	0.000016
C23	C	1.396735	-0.605675	0.000015
C24	C	1.622240	-0.623109	0.000009
C25	C	1.633214	-0.541497	0.000002
C26	C	1.525951	-0.491976	0.000011
C27	C	1.435290	-0.361506	0.000010
C28	C	1.537183	-0.408558	0.000011
C29	C	1.713900	0.110481	0.000000
C30	C	1.852666	0.112768	0.000005
C31	C	1.492308	0.257946	0.000008
C32	C	1.503991	0.344804	0.000014
N33	N	1.470508	0.105652	-0.204769
C34	C	1.547791	0.151475	-0.250039
C35	C	1.540856	0.147351	-0.340613
C36	C	1.456631	0.097409	-0.385914
C37	C	1.379344	0.051580	-0.340637
C38	C	1.386286	0.055700	-0.250065
C39	C	1.431636	0.082571	-0.659383
C40	C	1.424697	0.078456	-0.749961
C41	C	1.586211	0.174226	-0.749931
C42	C	1.593140	0.178345	-0.659357
C43	C	1.515859	0.132514	-0.614088
C44	C	1.449537	0.093195	-0.478494
C45	C	1.522959	0.136724	-0.521509
N46	N	1.501980	0.124279	0.204769
H47	H	1.672027	-0.138269	-0.000016
F48	F	1.236086	-0.094244	0.000010
F49	F	1.612600	0.189872	-0.473295
H50	H	1.320371	-0.483748	0.000023
H51	H	0.871958	0.119203	0.138360
H52	H	1.121795	0.123326	0.138355
F53	F	1.270882	-0.639823	0.000015
H54	H	1.061694	0.113394	-0.063812
F55	F	1.213417	-0.262711	0.000022
F56	F	1.678917	-0.298700	-0.000003
H57	H	1.729498	-0.515378	-0.000001
F58	F	0.915782	0.110112	-0.083413
H59	H	1.709567	-0.663437	0.000004
F60	F	1.359893	0.040048	-0.526715
F61	F	1.663019	-0.374406	0.000012
F62	F	1.309453	-0.395664	0.000017
H63	H	1.616369	0.192148	-0.213162
F64	F	1.623111	0.196124	-0.388789
H65	H	1.661729	0.219012	-0.622479
H66	H	1.649130	0.211539	-0.786798
H67	H	1.323354	0.018386	-0.213207
H68	H	1.356104	0.037787	-0.786843
F69	F	1.349349	0.033816	-0.611216
F70	F	1.289708	-0.001575	-0.388852
