data_functionalizedCrystal
_audit_creation_method	'MofGen! by Chris Wilmer'
_symmetry_space_group_name_H-M	'P1'
_symmetry_Int_Tables_number	1
_symmetry_cell_setting	triclinic
loop_
_symmetry_equiv_pos_as_xyz
  x,y,z
_cell_length_a	21.395364
_cell_length_b	18.215405
_cell_length_c	21.395355
_cell_angle_alpha	90.018720
_cell_angle_beta	90.024727
_cell_angle_gamma	90.022153
loop_
_atom_site_label
_atom_site_type_symbol
_atom_site_fract_x
_atom_site_fract_y
_atom_site_fract_z
Zn1	Zn	0.957889	-0.293102	0.354263
Zn2	Zn	0.957804	-0.416151	0.249486
Zn3	Zn	0.853104	-0.293099	0.249500
Zn4	Zn	0.853086	-0.416128	0.354225
O5	O	0.905471	-0.354620	0.301869
O6	O	1.045556	-0.309436	0.340374
O7	O	0.943888	-0.399835	0.161810
O8	O	0.867047	-0.190115	0.263419
O9	O	1.045493	-0.399839	0.263395
O10	O	0.944032	-0.190118	0.340388
O11	O	0.866965	-0.309430	0.161820
O12	O	0.765424	-0.309408	0.263382
O13	O	0.867016	-0.399800	0.441908
O14	O	0.765410	-0.399797	0.340323
O15	O	0.944015	-0.309414	0.441936
O16	O	0.943870	-0.519132	0.263358
O17	O	0.866934	-0.519115	0.340310
C18	C	0.742683	-0.354600	0.301851
C19	C	0.673042	-0.354610	0.301858
C20	C	0.171255	-0.401772	0.341893
C21	C	0.236691	-0.401772	0.341887
C22	C	0.269404	-0.354636	0.301888
C23	C	0.236676	-0.307510	0.261882
C24	C	0.171242	-0.307516	0.261886
C25	C	0.373086	-0.288313	0.297037
C26	C	0.438519	-0.288306	0.297038
C27	C	0.471224	-0.354617	0.301875
C28	C	0.438489	-0.420937	0.306723
C29	C	0.373055	-0.420944	0.306726
C30	C	0.340356	-0.354624	0.301880
C31	C	0.574897	-0.401744	0.341868
C32	C	0.640333	-0.401745	0.341857
C33	C	0.640317	-0.307476	0.261856
C34	C	0.574882	-0.307482	0.261864
C35	C	0.542176	-0.354614	0.301873
C36	C	0.905408	-0.545826	0.301842
C37	C	0.905438	-0.627625	0.301851
C38	C	0.945616	-0.892667	0.261867
C39	C	0.945590	-0.815808	0.261852
C40	C	0.865403	-0.815832	0.341913
C41	C	0.865426	-0.892689	0.341923
C42	C	0.905536	-0.931105	0.301901
C43	C	0.905487	-0.777389	0.301876
C44	C	0.905459	-0.694055	0.301861
C45	C	0.905564	-1.014444	0.301916
C46	C	1.068894	-0.354640	0.301887
C47	C	1.138535	-0.354649	0.301895
C48	C	0.905523	-0.354605	0.465292
C49	C	0.905545	-0.354599	0.534933
C50	C	0.905551	-0.162667	0.301909
C51	C	0.905585	-0.080868	0.301927
C52	C	0.905455	-0.354582	0.139081
C53	C	0.905554	-0.354381	0.069440
C54	C	0.945636	-0.307532	0.567662
C55	C	0.945635	-0.307501	0.633097
C56	C	0.905550	-0.354549	0.665802
C57	C	0.865451	-0.401618	0.633065
C58	C	0.865448	-0.401643	0.567631
C59	C	0.900581	-0.420812	0.769467
C60	C	0.900587	-0.420789	0.834900
C61	C	0.905554	-0.354471	0.867622
C62	C	0.910526	-0.288175	0.834904
C63	C	0.910524	-0.288200	0.769470
C64	C	0.905548	-0.354526	0.736754
C65	C	0.945646	-0.307366	0.971304
C66	C	0.945641	-0.307333	1.036740
C67	C	0.865459	-0.401457	1.036707
C68	C	0.865461	-0.401483	0.971271
C69	C	0.905558	-0.354439	0.938574
H70	H	0.548241	-0.269107	0.229295
H71	H	0.978292	-0.269056	0.944680
H72	H	0.978285	-0.269224	0.541043
H73	H	0.832786	-0.923986	0.374526
H74	H	0.978276	-0.923942	0.229278
H75	H	0.896542	-0.474771	0.861534
Cl76	Cl	0.815044	-0.460818	0.526484
Cl77	Cl	0.814988	-0.767533	0.392229
Cl78	Cl	0.533777	-0.460998	0.392161
Cl79	Cl	0.479665	-0.204932	0.290953
H80	H	0.666973	-0.440123	0.374427
Cl81	Cl	0.996056	-0.248170	1.077886
H82	H	0.978226	-0.784514	0.229252
Cl83	Cl	0.815055	-0.460761	0.674178
H84	H	0.978281	-0.269170	0.659750
H85	H	0.666952	-0.269100	0.229287
Cl86	Cl	0.894356	-0.504194	0.728337
H87	H	0.346462	-0.234312	0.293089
H88	H	0.914571	-0.234219	0.742833
H89	H	0.144630	-0.440153	0.374470
Cl90	Cl	0.277833	-0.461015	0.392175
H91	H	0.465117	-0.474934	0.310666
Cl92	Cl	0.916772	-0.204798	0.876033
Cl93	Cl	0.815060	-0.460597	1.077815
H94	H	0.832818	-0.439814	0.944623
H95	H	0.346405	-0.474944	0.310672
H96	H	0.263315	-0.269133	0.229315
H97	H	0.144601	-0.269141	0.229314
