data_functionalizedCrystal
_audit_creation_method	'MofGen! by Chris Wilmer'
_symmetry_space_group_name_H-M	'P1'
_symmetry_Int_Tables_number	1
_symmetry_cell_setting	triclinic
loop_
_symmetry_equiv_pos_as_xyz
  x,y,z
_cell_length_a	29.839131
_cell_length_b	25.639242
_cell_length_c	25.639233
_cell_angle_alpha	89.976717
_cell_angle_beta	90.019585
_cell_angle_gamma	89.963922
loop_
_atom_site_label
_atom_site_type_symbol
_atom_site_fract_x
_atom_site_fract_y
_atom_site_fract_z
Zn1	Zn	-0.178972	-0.799215	0.295755
Zn2	Zn	-0.254086	-0.799134	0.208318
Zn3	Zn	-0.178964	-0.711791	0.208317
Zn4	Zn	-0.254069	-0.711732	0.295706
O5	O	-0.216523	-0.755468	0.252024
O6	O	-0.188947	-0.872370	0.284177
O7	O	-0.244126	-0.787539	0.135153
O8	O	-0.116098	-0.723447	0.219936
O9	O	-0.244133	-0.872310	0.219937
O10	O	-0.116104	-0.787677	0.284176
O11	O	-0.188934	-0.723369	0.135152
O12	O	-0.188916	-0.638618	0.219889
O13	O	-0.244103	-0.723346	0.368878
O14	O	-0.244095	-0.638575	0.284093
O15	O	-0.188930	-0.787619	0.368914
O16	O	-0.316951	-0.787482	0.219890
O17	O	-0.316938	-0.723268	0.284094
C18	C	-0.216503	-0.619626	0.251986
C19	C	-0.216506	-0.561512	0.251982
C20	C	-0.187742	-0.310332	0.218637
C21	C	-0.187738	-0.364936	0.218632
O22	O	-0.163256	-0.393185	0.190259
N23	N	-0.216511	-0.392238	0.252003
C24	C	-0.245287	-0.364932	0.285385
O25	O	-0.269760	-0.393168	0.313770
C26	C	-0.245288	-0.310329	0.285392
C27	C	-0.216516	-0.283030	0.252016
C28	C	-0.158972	-0.283033	0.185264
C29	C	-0.158977	-0.228433	0.185268
C30	C	-0.187751	-0.201131	0.218646
C31	C	-0.216521	-0.228430	0.252020
C32	C	-0.274061	-0.283024	0.318776
C33	C	-0.274060	-0.228417	0.318781
C34	C	-0.245288	-0.201118	0.285404
C35	C	-0.245300	-0.146527	0.285403
N36	N	-0.216527	-0.119226	0.252032
C37	C	-0.187752	-0.146528	0.218654
C38	C	-0.245281	-0.479603	0.285368
C39	C	-0.245282	-0.534205	0.285358
C40	C	-0.187733	-0.534206	0.218606
C41	C	-0.187734	-0.479602	0.218613
C42	C	-0.216508	-0.452301	0.251997
C43	C	-0.187765	-0.031863	0.218665
C44	C	-0.187773	0.022743	0.218671
C45	C	-0.245321	0.022739	0.285425
C46	C	-0.245314	-0.031862	0.285417
C47	C	-0.216532	-0.059161	0.252036
O48	O	-0.269768	-0.118244	0.313763
O49	O	-0.163279	-0.118285	0.190279
C50	C	-0.333245	-0.755374	0.251998
C51	C	-0.383180	-0.755381	0.252004
C52	C	-0.692817	-0.788965	0.218642
C53	C	-0.880490	-0.789030	0.218662
O54	O	-0.904750	-0.817509	0.190276
N55	N	-0.903965	-0.755577	0.252063
C56	C	-0.880518	-0.722108	0.285464
O57	O	-0.904791	-0.693659	0.313878
C58	C	-0.692846	-0.722046	0.285446
C59	C	-0.669374	-0.755498	0.252039
C60	C	-0.669345	-0.822415	0.185238
C61	C	-0.622430	-0.822396	0.185231
C62	C	-0.598987	-0.788928	0.218628
C63	C	-0.622459	-0.755479	0.252032
C64	C	-0.669400	-0.688580	0.318849
C65	C	-0.622479	-0.688568	0.318843
C66	C	-0.599007	-0.722020	0.285436
C67	C	-0.552100	-0.721993	0.285423
N68	N	-0.528625	-0.755446	0.252022
C69	C	-0.552069	-0.788914	0.218624
C70	C	-0.979049	-0.722141	0.285471
C71	C	-1.025967	-0.722156	0.285475
C72	C	-1.025936	-0.789079	0.218673
C73	C	-0.979017	-0.789062	0.218667
C74	C	-0.955574	-0.755595	0.252069
C75	C	-0.453543	-0.788872	0.218612
C76	C	-0.406623	-0.788849	0.218607
C77	C	-0.406658	-0.721928	0.285410
C78	C	-0.453574	-0.721949	0.285414
C79	C	-0.477015	-0.755425	0.252013
O80	O	-0.527811	-0.693533	0.313798
O81	O	-0.527788	-0.817366	0.190223
C82	C	-0.739733	-0.788984	0.218649
C83	C	-0.763205	-0.755535	0.252053
C84	C	-0.739762	-0.722067	0.285450
C85	C	-0.810123	-0.755549	0.252057
C86	C	-0.833566	-0.789017	0.218659
C87	C	-0.810092	-0.822470	0.185258
C88	C	-0.763176	-0.822451	0.185251
C89	C	-0.763236	-0.688614	0.318851
C90	C	-0.810151	-0.688635	0.318855
C91	C	-0.833595	-0.722102	0.285457
C92	C	-0.099344	-0.755577	0.252061
C93	C	-0.049410	-0.755624	0.252077
C94	C	-0.216515	-0.755485	0.388397
C95	C	-0.216512	-0.755492	0.446511
C96	C	-0.216542	0.108159	0.252055
C97	C	-0.216548	0.050045	0.252049
C98	C	-0.216498	-0.755482	0.116181
C99	C	-0.216375	-0.755576	0.058068
C100	C	-0.187698	-0.789002	0.806899
C101	C	-0.187685	-0.789008	0.861503
O102	O	-0.163239	-0.817457	0.889760
N103	N	-0.216406	-0.755550	0.888794
C104	C	-0.245139	-0.722079	0.861477
O105	O	-0.269567	-0.693621	0.889704
C106	C	-0.245148	-0.722071	0.806874
C107	C	-0.216429	-0.755535	0.779586
C108	C	-0.158980	-0.822463	0.779610
C109	C	-0.158993	-0.822457	0.725010
C110	C	-0.187724	-0.788990	0.697697
C111	C	-0.216442	-0.755529	0.724985
C112	C	-0.273878	-0.688598	0.779559
C113	C	-0.273885	-0.688592	0.724952
C114	C	-0.245165	-0.722056	0.697664
C115	C	-0.245186	-0.722056	0.643072
N116	N	-0.216465	-0.755514	0.615782
C117	C	-0.187734	-0.788981	0.643094
C118	C	-0.245115	-0.722100	0.976148
C119	C	-0.245108	-0.722110	1.030750
C120	C	-0.187654	-0.789039	1.030772
C121	C	-0.187664	-0.789030	0.976169
C122	C	-0.216394	-0.755558	0.948857
C123	C	-0.187764	-0.788967	0.528429
C124	C	-0.187781	-0.788959	0.473824
C125	C	-0.245233	-0.722029	0.473807
C126	C	-0.245218	-0.722038	0.528407
C127	C	-0.216480	-0.755509	0.555717
O128	O	-0.269618	-0.693620	0.614780
O129	O	-0.163305	-0.817430	0.614860
H130	H	-0.164304	-0.457379	0.191437
H131	H	-0.135581	-0.849716	0.801843
H132	H	-0.135605	-0.849706	0.702797
O133	O	-0.476308	-0.689437	0.317912
C134	C	-0.471381	-0.623040	0.384152
C135	C	-0.445584	-0.659836	0.347377
H136	H	-0.446552	-0.599090	0.407976
H137	H	-0.493300	-0.647012	0.411557
H138	H	-0.493395	-0.595748	0.360117
H139	H	-0.423545	-0.687135	0.371370
H140	H	-0.423694	-0.635831	0.319971
H141	H	-0.387514	-0.816089	0.191401
O142	O	-0.159912	-0.821506	0.555010
C143	C	-0.153863	-0.892139	0.616646
C144	C	-0.185453	-0.855310	0.586585
H145	H	-0.174501	-0.919486	0.642173
H146	H	-0.130367	-0.868193	0.642240
H147	H	-0.133333	-0.916027	0.587746
H148	H	-0.206012	-0.831415	0.615447
H149	H	-0.208920	-0.879286	0.560982
O150	O	-0.599756	-0.656084	0.351364
C151	C	-0.585369	-0.630667	0.440276
C152	C	-0.611138	-0.667479	0.403506
H153	H	-0.594555	-0.639874	0.482440
H154	H	-0.594641	-0.588509	0.431096
H155	H	-0.547806	-0.636391	0.434508
H156	H	-0.648707	-0.661802	0.409252
H157	H	-0.601829	-0.709624	0.412694
H158	H	-0.688428	-0.849671	0.158042
H159	H	-0.268626	-0.694783	0.451559
O160	O	-0.301991	-0.309614	0.351155
C161	C	-0.327472	-0.393723	0.380780
C162	C	-0.295826	-0.363676	0.344070
H163	H	-0.322491	-0.437437	0.375073
H164	H	-0.363697	-0.382996	0.371530
H165	H	-0.319632	-0.382973	0.422947
H166	H	-0.303625	-0.374410	0.301892
H167	H	-0.259610	-0.374405	0.353365
O168	O	-0.273249	-0.560639	0.317826
C169	C	-0.330349	-0.554860	0.384013
C170	C	-0.298693	-0.524862	0.347275
H171	H	-0.350936	-0.525948	0.407824
H172	H	-0.309780	-0.580436	0.411431
H173	H	-0.353789	-0.580412	0.359950
H174	H	-0.275247	-0.499282	0.371296
H175	H	-0.319290	-0.499319	0.319855
H176	H	-0.387563	-0.694677	0.312600
O177	O	-0.159721	-0.821551	0.949744
C178	C	-0.102754	-0.887958	0.955544
C179	C	-0.134371	-0.851146	0.985531
H180	H	-0.082257	-0.911904	0.984464
H181	H	-0.079231	-0.863998	0.929994
H182	H	-0.123393	-0.915253	0.929968
H183	H	-0.113768	-0.823845	1.011135
H184	H	-0.157895	-0.875139	1.011048
H185	H	-0.744069	-0.849691	0.158048
H186	H	-0.829258	-0.661390	0.346058
H187	H	-0.164343	0.044967	0.191490
O188	O	-0.159690	-0.821470	1.057331
C189	C	-0.099041	-0.828553	1.119013
C190	C	-0.130674	-0.791768	1.088959
H191	H	-0.075580	-0.804554	1.144600
H192	H	-0.078480	-0.852457	1.090155
H193	H	-0.119672	-0.855887	1.144562
H194	H	-0.110078	-0.764403	1.063409
H195	H	-0.151236	-0.767901	1.117845
H196	H	-0.829187	-0.849719	0.158064
O197	O	-0.599582	-0.854920	0.152856
C198	C	-0.546586	-0.925526	0.145897
C199	C	-0.572421	-0.888714	0.182620
H200	H	-0.524627	-0.952865	0.169946
H201	H	-0.524618	-0.901567	0.118534
H202	H	-0.571414	-0.949424	0.122020
H203	H	-0.547625	-0.864808	0.206531
H204	H	-0.594396	-0.912703	0.209948
O205	O	-0.301734	-0.656021	0.698402
C206	C	-0.307792	-0.585433	0.636716
C207	C	-0.276200	-0.622276	0.666757
H208	H	-0.287161	-0.558149	0.611116
H209	H	-0.328305	-0.561485	0.665583
H210	H	-0.331304	-0.609422	0.611182
H211	H	-0.252661	-0.598328	0.692292
H212	H	-0.255718	-0.646227	0.637862
O213	O	-0.302052	-0.201979	0.351230
C214	C	-0.359104	-0.207746	0.417471
C215	C	-0.327435	-0.237751	0.380741
H216	H	-0.379627	-0.236654	0.441349
H217	H	-0.382600	-0.182168	0.393450
H218	H	-0.338505	-0.182197	0.444832
H219	H	-0.347998	-0.263328	0.353373
H220	H	-0.303938	-0.263296	0.404794
O221	O	-0.273024	-0.689558	1.057174
C222	C	-0.330031	-0.623197	1.051374
C223	C	-0.298432	-0.660030	1.021388
H224	H	-0.350588	-0.599321	1.022454
H225	H	-0.309419	-0.595842	1.076917
H226	H	-0.353501	-0.647189	1.076957
H227	H	-0.274955	-0.636081	0.995776
H228	H	-0.319072	-0.687386	0.995878
O229	O	-0.301839	-0.656113	0.805996
C230	C	-0.378253	-0.630671	0.822685
C231	C	-0.346635	-0.667488	0.792707
H232	H	-0.414477	-0.639862	0.811959
H233	H	-0.370391	-0.588513	0.811919
H234	H	-0.373296	-0.636405	0.866403
H235	H	-0.351574	-0.661801	0.748981
H236	H	-0.354505	-0.709633	0.803516
H237	H	-0.135547	-0.206211	0.158089
O238	O	-0.740536	-0.656049	0.351309
C239	C	-0.745530	-0.589689	0.417582
C240	C	-0.771290	-0.626539	0.380842
H241	H	-0.770383	-0.565828	0.441477
H242	H	-0.723611	-0.562322	0.393568
H243	H	-0.723520	-0.613667	0.444926
H244	H	-0.793325	-0.602603	0.353491
H245	H	-0.793181	-0.653907	0.404889
H246	H	-0.268746	-0.054090	0.312591
H247	H	-0.164302	-0.556445	0.191429
O248	O	-0.273133	-0.689487	0.554837
C249	C	-0.330140	-0.623125	0.549046
C250	C	-0.298545	-0.659958	0.519055
H251	H	-0.350700	-0.599249	0.520129
H252	H	-0.309525	-0.595771	0.574586
H253	H	-0.353608	-0.647117	0.574632
H254	H	-0.275070	-0.636009	0.493440
H255	H	-0.319187	-0.687314	0.493548
O256	O	-0.159795	-0.058295	0.186186
C257	C	-0.102705	-0.052518	0.119990
C258	C	-0.134360	-0.022519	0.156741
H259	H	-0.082126	-0.023606	0.096182
H260	H	-0.123274	-0.078038	0.092569
H261	H	-0.079258	-0.078125	0.144042
H262	H	-0.157814	0.003116	0.132731
H263	H	-0.113763	0.002968	0.184164
H264	H	-0.959965	-0.694887	0.312672
H265	H	-0.688503	-0.661337	0.346051
H266	H	-0.164393	-0.816212	0.451608
H267	H	-0.135538	-0.305257	0.158083
H268	H	-0.268716	-0.457378	0.312552
H269	H	-0.472623	-0.816133	0.191416
O270	O	-0.273053	-0.689661	0.949561
C271	C	-0.333743	-0.682566	0.887935
C272	C	-0.302126	-0.719359	0.917999
H273	H	-0.357262	-0.706563	0.862417
H274	H	-0.313147	-0.655247	0.862330
H275	H	-0.354247	-0.658645	0.916832
H276	H	-0.281614	-0.743314	0.889139
H277	H	-0.322747	-0.746644	0.943611
H278	H	-0.959909	-0.816301	0.191464
H279	H	-1.045031	-0.816330	0.191480
H280	H	-1.045074	-0.694912	0.312673
O281	O	-0.273228	0.049346	0.317831
C282	C	-0.298746	0.133473	0.347399
C283	C	-0.267114	0.103404	0.310678
H284	H	-0.293820	0.177183	0.341620
H285	H	-0.290906	0.122751	0.389585
H286	H	-0.334955	0.122738	0.338151
H287	H	-0.230893	0.114122	0.319879
H288	H	-0.274992	0.114128	0.268502
