data_functionalizedCrystal
_audit_creation_method	'MofGen! by Chris Wilmer'
_symmetry_space_group_name_H-M	'P1'
_symmetry_Int_Tables_number	1
_symmetry_cell_setting	triclinic
loop_
_symmetry_equiv_pos_as_xyz
  x,y,z
_cell_length_a	19.805407
_cell_length_b	25.639239
_cell_length_c	19.805399
_cell_angle_alpha	89.965354
_cell_angle_beta	90.019573
_cell_angle_gamma	89.960118
loop_
_atom_site_label
_atom_site_type_symbol
_atom_site_fract_x
_atom_site_fract_y
_atom_site_fract_z
Zn1	Zn	1.034672	0.208163	0.382686
Zn2	Zn	1.034561	0.295597	0.269484
Zn3	Zn	0.921487	0.208177	0.269511
Zn4	Zn	0.921424	0.295569	0.382631
O5	O	0.978036	0.251877	0.326078
O6	O	1.129374	0.219767	0.367682
O7	O	1.019541	0.284018	0.174771
O8	O	0.936574	0.135010	0.284558
O9	O	1.129292	0.284004	0.284513
O10	O	1.019731	0.135000	0.367708
O11	O	0.936466	0.219791	0.174791
O12	O	0.826762	0.219764	0.284505
O13	O	0.936467	0.283957	0.477355
O14	O	0.826716	0.283971	0.367613
O15	O	1.019670	0.219740	0.477396
O16	O	1.019480	0.368758	0.284459
O17	O	0.936358	0.368738	0.367587
C18	C	0.802180	0.251867	0.326056
C19	C	0.726948	0.251875	0.326063
C20	C	0.691597	0.285357	0.369268
C21	C	0.620909	0.285358	0.369277
C22	C	0.585572	0.251879	0.326078
C23	C	0.620928	0.218393	0.282872
C24	C	0.691615	0.218390	0.282866
C25	C	0.335855	0.218404	0.282894
C26	C	0.265162	0.218411	0.282901
C27	C	0.265148	0.285373	0.369305
C28	C	0.335836	0.285370	0.369299
C29	C	0.371185	0.251882	0.326096
C30	C	0.447833	0.251881	0.326087
C31	C	0.508925	0.251883	0.326083
C32	C	0.977918	0.387719	0.326029
C33	C	0.977930	0.445833	0.326031
C34	C	1.021268	0.806152	0.369468
C35	C	1.021279	0.860757	0.369483
O36	O	1.058058	0.888956	0.406353
N37	N	0.978027	0.888116	0.326162
C38	C	0.934757	0.860868	0.282827
O39	O	0.897969	0.889153	0.245980
C40	C	0.934743	0.806264	0.282815
C41	C	0.978002	0.778908	0.326135
C42	C	1.064523	0.778796	0.412785
C43	C	1.064513	0.724195	0.412768
C44	C	1.021247	0.696951	0.369435
C45	C	0.977992	0.724308	0.326119
C46	C	0.891469	0.779017	0.239484
C47	C	0.891459	0.724410	0.239477
C48	C	0.934718	0.697054	0.282797
C49	C	0.934715	0.642463	0.282769
N50	N	0.977967	0.615104	0.326091
C51	C	1.021233	0.642348	0.369424
C52	C	0.934789	0.975538	0.282855
C53	C	0.934806	1.030141	0.282862
C54	C	1.021327	1.030026	0.369520
C55	C	1.021313	0.975422	0.369508
C56	C	0.978041	0.948179	0.326176
C57	C	1.021208	0.527683	0.369386
C58	C	1.021196	0.473077	0.369364
C59	C	0.934672	0.473197	0.282709
C60	C	0.934687	0.527798	0.282728
C61	C	0.977957	0.555039	0.326072
O62	O	0.897954	0.614229	0.245920
O63	O	1.058009	0.614056	0.406270
C64	C	1.154579	0.251887	0.326100
C65	C	1.229811	0.251891	0.326110
C66	C	0.978132	1.115504	0.326149
C67	C	0.978069	1.057390	0.326198
C68	C	0.978074	0.251844	0.502621
C69	C	0.978090	0.251830	0.577853
C70	C	0.978037	0.251872	0.150222
C71	C	0.978152	0.251738	0.074991
C72	C	1.021415	0.218390	0.613219
C73	C	1.021422	0.218375	0.683908
C74	C	0.978107	0.251802	0.719229
C75	C	0.934777	0.285243	0.683857
C76	C	0.934767	0.285255	0.613170
C77	C	0.934815	0.285195	0.968931
C78	C	0.934830	0.285181	1.039623
C79	C	1.021470	0.218314	1.039669
C80	C	1.021460	0.218326	0.968981
C81	C	0.978128	0.251765	0.933616
C82	C	0.978120	0.251780	0.856968
C83	C	0.978118	0.251790	0.795876
H84	H	0.720363	0.312622	0.404443
H85	H	1.099736	0.701925	0.448045
H86	H	0.899467	0.550072	0.247449
O87	O	1.063598	0.185925	0.934636
C88	C	1.107269	0.215694	0.893721
H89	H	1.111429	0.256868	0.915004
H90	H	1.086321	0.217507	0.840148
C91	C	1.172539	0.139570	0.866507
C92	C	1.177653	0.190141	0.892650
H93	H	1.215955	0.123807	0.865843
H94	H	1.143117	0.119514	0.894070
H95	H	1.155081	0.141089	0.821865
H96	H	1.195104	0.188621	0.937293
H97	H	1.207081	0.210196	0.865094
O98	O	0.892666	0.446646	0.240682
C99	C	0.901948	0.392586	0.249953
H100	H	0.924089	0.385088	0.302205
H101	H	0.938010	0.377090	0.209834
C102	C	0.806270	0.373808	0.179514
C103	C	0.833459	0.364597	0.243693
H104	H	0.764023	0.356542	0.175649
H105	H	0.800017	0.410228	0.173265
H106	H	0.836328	0.360894	0.146088
H107	H	0.803405	0.377516	0.277117
H108	H	0.839704	0.328178	0.249947
H109	H	1.056750	0.191085	1.068471
O110	O	0.892695	0.317719	0.934687
C111	C	0.854452	0.347206	0.981023
H112	H	0.882191	0.349020	1.031410
H113	H	0.803077	0.328042	0.988553
C114	C	0.810539	0.400623	0.891515
C115	C	0.844611	0.402855	0.953399
H116	H	0.804465	0.434949	0.874474
H117	H	0.836301	0.380756	0.860297
H118	H	0.767729	0.384651	0.897798
H119	H	0.887422	0.418820	0.947113
H120	H	0.818855	0.422726	0.984615
O121	O	0.892734	0.317787	0.718092
C122	C	0.907482	0.369902	0.700808
H123	H	0.933491	0.370995	0.649488
H124	H	0.942270	0.387507	0.740588
C125	C	0.809520	0.400225	0.760546
C126	C	0.841460	0.401569	0.697512
H127	H	0.768795	0.419760	0.758516
H128	H	0.799585	0.365115	0.772194
H129	H	0.838517	0.414896	0.793690
H130	H	0.812466	0.386893	0.664371
H131	H	0.851388	0.436678	0.685859
O132	O	0.370192	0.317946	0.411168
C133	C	0.411051	0.351666	0.372549
H134	H	0.389724	0.354847	0.319235
H135	H	0.464635	0.335493	0.370252
C136	C	0.438306	0.402143	0.470969
C137	C	0.412108	0.406053	0.405489
H138	H	0.438961	0.435691	0.491289
H139	H	0.410780	0.379424	0.496988
H140	H	0.482956	0.388663	0.469046
H141	H	0.367456	0.419527	0.407414
H142	H	0.439626	0.428776	0.379471
H143	H	0.236358	0.312639	0.404486
O144	O	1.063321	1.056438	0.411713
C145	C	1.048472	1.043077	0.479156
H146	H	1.022448	1.003446	0.480527
H147	H	1.013661	1.073816	0.501924
C148	C	1.146392	1.089167	0.518538
C149	C	1.114434	1.040490	0.520222
H150	H	1.187080	1.087574	0.543870
H151	H	1.156395	1.098171	0.473100
H152	H	1.117376	1.114778	0.537509
H153	H	1.143447	1.014881	0.501243
H154	H	1.104437	1.031481	0.565657
H155	H	1.056425	0.450806	0.404639
O156	O	0.892725	1.056630	0.240755
C157	C	0.854552	1.020868	0.202495
H158	H	0.852189	0.981930	0.230209
H159	H	0.879369	1.015076	0.151112
C160	C	0.785426	1.090050	0.158635
C161	C	0.782518	1.042227	0.192677
H162	H	0.740992	1.103226	0.152576
H163	H	0.811145	1.114144	0.184409
H164	H	0.806110	1.085217	0.115820
H165	H	0.761842	1.047063	0.235495
H166	H	0.756794	1.018134	0.166910
O167	O	0.230940	0.185835	0.240917
C168	C	0.277297	0.156285	0.202772
H169	H	0.327699	0.154499	0.230494
H170	H	0.284778	0.175374	0.151316
C171	C	0.187840	0.102825	0.159116
C172	C	0.249743	0.100628	0.193168
H173	H	0.170843	0.068493	0.153189
H174	H	0.156607	0.122734	0.184813
H175	H	0.194082	0.118735	0.116239
H176	H	0.243498	0.084724	0.236047
H177	H	0.280974	0.080714	0.167478
H178	H	1.099755	0.800972	0.448075
H179	H	0.899555	0.312402	1.068379
H180	H	0.364628	0.191140	0.247710
H181	H	0.899481	0.312480	0.584376
O182	O	1.063301	0.554059	0.411514
C183	C	1.101458	0.518196	0.449751
H184	H	1.103808	0.479292	0.422011
H185	H	1.076636	0.512368	0.501129
C186	C	1.170609	0.587229	0.493661
C187	C	1.173500	0.539448	0.459587
H188	H	1.215047	0.600339	0.499732
H189	H	1.144901	0.611391	0.467902
H190	H	1.149921	0.582366	0.536472
H191	H	1.194180	0.544313	0.416774
H192	H	1.199214	0.515287	0.485340
H193	H	0.592130	0.312624	0.404458
O194	O	0.849380	0.805502	0.197384
C195	C	0.811204	0.769736	0.159133
H196	H	0.808848	0.730799	0.186851
H197	H	0.836014	0.763942	0.107747
C198	C	0.742064	0.838912	0.115279
C199	C	0.739166	0.791091	0.149325
H200	H	0.697629	0.852085	0.109226
H201	H	0.767785	0.863009	0.141047
H202	H	0.762742	0.834078	0.072461
H203	H	0.718497	0.795927	0.192146
H204	H	0.713440	0.766995	0.123564
O205	O	0.586499	0.185917	0.240933
C206	C	0.516528	0.193089	0.250213
H207	H	0.506849	0.233463	0.272276
H208	H	0.496511	0.162116	0.286340
C209	C	0.492099	0.138637	0.154647
C210	C	0.480211	0.188226	0.181740
H211	H	0.469696	0.135635	0.112410
H212	H	0.539240	0.133803	0.148395
H213	H	0.475418	0.112831	0.184759
H214	H	0.496900	0.214030	0.151632
H215	H	0.433072	0.193064	0.187985
H216	H	0.856219	0.702231	0.204192
O217	O	1.063236	0.948793	0.411626
C218	C	1.024666	0.917221	0.455314
H219	H	0.973385	0.909088	0.431393
H220	H	1.017203	0.938244	0.505468
C221	C	1.124872	0.875312	0.496982
C222	C	1.061890	0.865319	0.467599
H223	H	1.147834	0.843297	0.504563
H224	H	1.150858	0.896584	0.467551
H225	H	1.118644	0.892833	0.538774
H226	H	1.068119	0.847805	0.425804
H227	H	1.035906	0.844043	0.497024
H228	H	0.720397	0.191122	0.247688
H229	H	0.899553	0.953359	0.247563
H230	H	1.056689	0.191171	0.584466
H231	H	1.056703	0.191147	0.712700
