data_functionalizedCrystal
_audit_creation_method	'MofGen! by Chris Wilmer'
_symmetry_space_group_name_H-M	'P1'
_symmetry_Int_Tables_number	1
_symmetry_cell_setting	triclinic
loop_
_symmetry_equiv_pos_as_xyz
  x,y,z
_cell_length_a	13.032831
_cell_length_b	18.050590
_cell_length_c	13.032268
_cell_angle_alpha	97.145544
_cell_angle_beta	90.886977
_cell_angle_gamma	82.822949
loop_
_atom_site_label
_atom_site_type_symbol
_atom_site_fract_x
_atom_site_fract_y
_atom_site_fract_z
Zn1	Zn	1.498476	-0.501537	-0.780788
Zn2	Zn	1.520218	-0.612185	-0.608797
Zn3	Zn	1.348335	-0.470514	-0.587032
Zn4	Zn	1.326466	-0.608170	-0.758923
O5	O	1.423373	-0.548102	-0.683885
O6	O	1.645281	-0.530879	-0.776232
O7	O	1.515668	-0.582089	-0.461995
O8	O	1.368304	-0.370713	-0.612775
O9	O	1.661254	-0.612171	-0.649872
O10	O	1.478613	-0.393506	-0.755127
O11	O	1.389386	-0.478004	-0.446003
O12	O	1.201513	-0.474110	-0.591574
O13	O	1.331032	-0.605328	-0.905739
O14	O	1.185446	-0.575246	-0.717862
O15	O	1.457407	-0.526986	-0.921803
O16	O	1.494463	-0.715569	-0.628671
O17	O	1.352114	-0.712619	-0.738967
C18	C	1.156163	-0.520876	-0.649984
C19	C	1.041845	-0.509249	-0.635505
C20	C	0.982969	-0.554170	-0.691441
C21	C	0.864816	-0.542154	-0.676478
C22	C	1.423300	-0.741042	-0.683834
C23	C	1.423358	-0.823596	-0.683859
C24	C	1.500898	-1.024646	-0.623993
C25	C	1.514095	-1.083924	-0.721038
C26	C	1.423411	-0.974735	-0.683907
C27	C	1.410312	-1.062553	-0.586918
C28	C	1.423465	-1.120729	-0.683946
C29	C	1.436651	-1.032935	-0.781007
C30	C	1.332832	-1.011550	-0.646818
C31	C	1.345986	-1.070807	-0.743923
C32	C	1.423382	-0.890632	-0.683884
C33	C	1.423492	-1.204831	-0.683980
C34	C	1.691628	-0.575434	-0.717919
C35	C	1.805942	-0.587081	-0.732422
C36	C	1.389355	-0.569169	-0.952130
C37	C	1.374858	-0.578147	-1.066440
C38	C	1.423473	-0.354412	-0.683962
C39	C	1.423515	-0.271873	-0.683995
C40	C	1.430923	-0.543388	-1.125352
C41	C	1.415942	-0.552666	-1.243497
C42	C	1.457319	-0.527068	-0.416691
C43	C	1.472015	-0.517901	-0.302407
H44	H	1.566438	-1.004337	-0.573388
O45	O	1.241495	-0.973936	-0.609413
C46	C	1.242421	-0.896043	-0.610792
H47	H	1.300872	-0.886523	-0.670495
H48	H	1.264955	-0.869271	-0.531094
C49	C	1.062244	-0.871672	-0.565978
C50	C	1.134028	-0.859979	-0.639314
H51	H	0.995382	-0.849425	-0.583567
H52	H	1.061620	-0.924150	-0.565045
H53	H	1.081035	-0.849362	-0.499570
H54	H	1.115243	-0.882297	-0.705717
H55	H	1.134647	-0.807504	-0.640259
O56	O	1.027115	-0.610593	-0.761933
C57	C	0.987940	-0.599901	-0.861181
H58	H	0.957674	-0.538011	-0.862800
H59	H	0.922262	-0.635564	-0.880135
C60	C	1.111926	-0.699664	-0.939817
C61	C	1.074761	-0.623648	-0.941807
H62	H	1.165478	-0.714315	-0.989552
H63	H	1.138316	-0.706869	-0.872951
H64	H	1.057185	-0.729374	-0.955609
H65	H	1.129498	-0.593938	-0.926003
H66	H	1.048381	-0.616438	-1.008673
O67	O	1.542530	-0.474146	-1.258410
C68	C	1.591768	-0.443646	-1.336129
H69	H	1.540000	-0.442756	-1.407391
H70	H	1.668430	-0.479687	-1.357414
C71	C	1.675509	-0.363938	-1.208483
C72	C	1.611922	-0.362839	-1.296006
H73	H	1.687946	-0.314094	-1.183733
H74	H	1.642339	-0.384488	-1.156121
H75	H	1.739386	-0.393976	-1.226233
H76	H	1.548042	-0.332809	-1.278252
H77	H	1.645081	-0.342282	-1.348364
H78	H	1.315761	-0.614770	-1.103470
H79	H	0.843001	-0.634435	-0.791399
O80	O	1.605586	-1.121363	-0.758327
C81	C	1.687049	-1.097857	-0.694936
H82	H	1.655706	-1.073992	-0.614833
H83	H	1.723046	-1.052623	-0.730603
C84	C	1.808244	-1.194832	-0.784101
C85	C	1.769749	-1.165526	-0.685714
H86	H	1.859261	-1.236572	-0.778415
H87	H	1.753362	-1.210667	-0.826812
H88	H	1.838235	-1.157130	-0.813813
H89	H	1.739749	-1.203224	-0.656009
H90	H	1.824629	-1.149699	-0.642998
H91	H	1.356841	-0.589291	-1.280522
O92	O	0.997612	-0.452850	-0.565031
C93	C	0.943863	-0.483561	-0.490704
H94	H	0.977109	-0.544811	-0.488299
H95	H	0.858453	-0.480430	-0.512255
C96	C	0.914782	-0.363372	-0.386601
C97	C	0.955621	-0.438598	-0.383642
H98	H	0.922030	-0.335635	-0.320561
H99	H	0.950990	-0.342680	-0.436679
H100	H	0.843610	-0.360773	-0.404566
H101	H	1.026794	-0.441197	-0.365691
H102	H	0.919425	-0.459289	-0.333559
H103	H	0.827754	-0.494793	-0.617512
H104	H	1.280473	-1.090994	-0.794674
H105	H	1.447666	-1.019683	-0.863104
H106	H	1.490010	-0.506757	-1.088320
O107	O	1.397189	-1.078386	-0.488986
C108	C	1.479044	-1.054983	-0.426083
H109	H	1.514306	-1.009335	-0.461539
H110	H	1.540668	-1.104999	-0.420295
C111	C	1.394268	-1.079583	-0.273745
C112	C	1.437572	-1.023513	-0.317289
H113	H	1.368689	-1.060174	-0.206634
H114	H	1.339122	-1.095353	-0.316124
H115	H	1.445629	-1.121259	-0.268932
H116	H	1.386208	-0.981843	-0.322114
H117	H	1.492709	-1.007735	-0.274908
