data_functionalizedCrystal
_audit_creation_method	'MofGen! by Chris Wilmer'
_symmetry_space_group_name_H-M	'P1'
_symmetry_Int_Tables_number	1
_symmetry_cell_setting	triclinic
loop_
_symmetry_equiv_pos_as_xyz
  x,y,z
_cell_length_a	12.759395
_cell_length_b	16.625546
_cell_length_c	12.759387
_cell_angle_alpha	89.964440
_cell_angle_beta	89.979491
_cell_angle_gamma	90.024005
loop_
_atom_site_label
_atom_site_type_symbol
_atom_site_fract_x
_atom_site_fract_y
_atom_site_fract_z
Zn1	Zn	1.606212	-0.320926	-0.593970
Zn2	Zn	2.106212	0.179074	-0.093970
Zn3	Zn	1.606079	-0.455781	-0.418276
Zn4	Zn	2.106079	0.044219	0.081724
Zn5	Zn	1.430510	-0.320970	-0.418307
Zn6	Zn	1.930510	0.179030	0.081693
Zn7	Zn	1.430479	-0.455724	-0.593915
Zn8	Zn	1.930479	0.044276	-0.093915
O9	O	1.518320	-0.388350	-0.506117
O10	O	2.018320	0.111650	-0.006117
O11	O	1.753215	-0.338820	-0.570674
O12	O	2.253215	0.161180	-0.070674
O13	O	1.582747	-0.437941	-0.271259
O14	O	2.082747	0.062059	0.228741
O15	O	1.453886	-0.208132	-0.441645
O16	O	1.953886	0.291868	0.058355
O17	O	1.753118	-0.437898	-0.441592
O18	O	2.253118	0.062102	0.058408
O19	O	1.582974	-0.208099	-0.570704
O20	O	2.082974	0.291901	-0.070704
O21	O	1.453757	-0.338895	-0.271282
O22	O	1.953757	0.161105	0.228718
O23	O	1.283485	-0.338840	-0.441592
O24	O	1.783485	0.161160	0.058408
O25	O	1.453833	-0.437800	-0.740944
O26	O	1.953833	0.062200	-0.240944
O27	O	1.283462	-0.437843	-0.570610
O28	O	1.783462	0.062157	-0.070610
O29	O	1.582943	-0.338765	-0.740984
O30	O	2.082943	0.161235	-0.240984
O31	O	1.582716	-0.568606	-0.441539
O32	O	2.082716	-0.068606	0.058461
O33	O	1.453704	-0.568564	-0.570580
O34	O	1.953704	-0.068564	-0.070580
C35	C	1.245352	-0.388341	-0.506099
C36	C	1.745352	0.111659	-0.006099
C37	C	1.128576	-0.388356	-0.506116
C38	C	1.628576	0.111644	-0.006116
C39	C	1.128590	-0.491615	-0.640246
C40	C	1.628590	0.008385	-0.140246
C41	C	1.073737	-0.543250	-0.707314
C42	C	1.573737	-0.043250	-0.207314
C43	C	0.964015	-0.543260	-0.707327
C44	C	1.464015	-0.043260	-0.207327
C45	C	0.909144	-0.491627	-0.640267
C46	C	1.409144	0.008373	-0.140267
C47	C	0.963998	-0.439991	-0.573199
C48	C	1.463998	0.060009	-0.073199
C49	C	1.073722	-0.439989	-0.573191
C50	C	1.573722	0.060011	-0.073191
C51	C	0.963984	-0.336730	-0.439076
C52	C	1.463984	0.163270	0.060924
C53	C	1.073705	-0.336723	-0.439056
C54	C	1.573705	0.163277	0.060944
C55	C	0.909113	-0.285096	-0.372016
C56	C	1.409113	0.214904	0.127984
C57	C	0.963967	-0.233463	-0.304942
C58	C	1.463967	0.266537	0.195058
C59	C	1.073695	-0.233456	-0.304931
C60	C	1.573695	0.266544	0.195069
C61	C	1.128559	-0.285087	-0.371989
C62	C	1.628559	0.214913	0.128011
C63	C	1.518220	-0.597841	-0.506073
C64	C	2.018220	-0.097841	-0.006073
C65	C	1.518274	-0.687462	-0.506090
C66	C	2.018274	-0.187462	-0.006090
C67	C	1.518457	-1.015638	-0.506199
C68	C	2.018457	-0.515638	-0.006199
C69	C	1.518403	-0.924329	-0.506171
C70	C	2.018403	-0.424329	-0.006171
C71	C	1.518365	-0.851553	-0.506144
C72	C	2.018365	-0.351553	-0.006144
C73	C	1.518312	-0.760239	-0.506117
C74	C	2.018312	-0.260239	-0.006117
C75	C	1.792353	-0.388361	-0.506136
C76	C	2.292353	0.111639	-0.006136
C77	C	1.909130	-0.388365	-0.506144
C78	C	2.409130	0.111635	-0.006144
C79	C	1.518399	-0.388271	-0.780151
C80	C	2.018399	0.111729	-0.280151
C81	C	1.518433	-0.388238	-0.896928
C82	C	2.018433	0.111762	-0.396928
C83	C	1.518448	-0.178041	-0.506184
C84	C	2.018448	0.321959	-0.006184
C85	C	1.518503	-0.088420	-0.506213
C86	C	2.018503	0.411580	-0.006213
C87	C	1.652885	-0.285119	-0.896990
C88	C	2.152885	0.214881	-0.396990
C89	C	1.720126	-0.233547	-0.951881
C90	C	2.220126	0.266453	-0.451881
C91	C	1.720151	-0.233518	-1.061603
C92	C	2.220151	0.266482	-0.561603
C93	C	1.652927	-0.285064	-1.116435
C94	C	2.152927	0.214936	-0.616435
C95	C	1.585686	-0.336635	-1.061544
C96	C	2.085686	0.163365	-0.561544
C97	C	1.585670	-0.336661	-0.951819
C98	C	2.085670	0.163339	-0.451819
C99	C	1.451230	-0.439749	-1.061482
C100	C	1.951230	0.060251	-0.561482
C101	C	1.451209	-0.439784	-0.951760
C102	C	1.951209	0.060216	-0.451760
C103	C	1.384006	-0.491295	-1.116314
C104	C	1.884006	0.008705	-0.616314
C105	C	1.316769	-0.542872	-1.061422
C106	C	1.816769	-0.042872	-0.561422
C107	C	1.316747	-0.542900	-0.951694
C108	C	1.816747	-0.042900	-0.451694
C109	C	1.383968	-0.491355	-0.896868
C110	C	1.883968	0.008645	-0.396868
C111	C	1.518301	-0.388371	-0.233150
C112	C	2.018301	0.111629	0.266850
C113	C	1.518471	-0.388177	-0.116374
C114	C	2.018471	0.111823	0.383626
H115	H	1.217900	-0.285088	-0.371983
H116	H	1.717900	0.214912	0.128017
H117	H	0.919353	-0.585302	-0.761944
H118	H	1.419353	-0.085302	-0.261944
H119	H	1.118424	-0.585288	-0.761914
H120	H	1.618424	-0.085288	-0.261914
C121	C	1.242781	-0.599626	-0.891316
C122	C	1.742781	-0.099626	-0.391316
H123	H	1.252387	-0.592261	-0.818116
H124	H	1.752387	-0.092261	-0.318116
H125	H	1.258114	-0.653799	-0.909284
H126	H	1.758114	-0.153799	-0.409284
H127	H	1.172201	-0.587803	-0.909292
H128	H	1.672201	-0.087803	-0.409292
C129	C	1.652864	-0.285152	-0.776299
C130	C	2.152864	0.214848	-0.276299
H131	H	1.702524	-0.247066	-0.751505
H132	H	2.202524	0.252934	-0.251505
H133	H	1.670984	-0.337194	-0.751461
H134	H	2.170984	0.162806	-0.251461
H135	H	1.585068	-0.271200	-0.751472
H136	H	2.085068	0.228800	-0.251472
H137	H	1.652945	-0.285028	-1.205777
H138	H	2.152945	0.214972	-0.705777
C139	C	1.384031	-0.491268	-1.237005
C140	C	1.884031	0.008732	-0.737005
H141	H	1.334362	-0.529348	-1.261796
H142	H	1.834362	-0.029348	-0.761796
H143	H	1.451823	-0.505214	-1.261830
H144	H	1.951823	-0.005214	-0.761830
H145	H	1.365902	-0.439225	-1.261846
H146	H	1.865902	0.060775	-0.761846
H147	H	1.118350	-0.191402	-0.250323
H148	H	1.618350	0.308598	0.249677
H149	H	0.819803	-0.491632	-0.640292
H150	H	1.319803	0.008368	-0.140292
H151	H	0.819772	-0.285105	-0.372036
H152	H	1.319772	0.214895	0.127964
C153	C	1.794064	-0.176846	-0.891570
C154	C	2.294064	0.323154	-0.391570
H155	H	1.834104	-0.146122	-0.939977
H156	H	2.334104	0.353878	-0.439977
H157	H	1.839810	-0.207700	-0.848758
H158	H	2.339810	0.292300	-0.348758
H159	H	1.753880	-0.141718	-0.848779
H160	H	2.253880	0.358282	-0.348779
C161	C	0.903610	-0.176675	-0.231187
C162	C	1.403610	0.323325	0.268813
H163	H	0.830408	-0.184076	-0.240800
H164	H	1.330408	0.315924	0.259200
H165	H	0.921625	-0.122513	-0.246688
H166	H	1.421625	0.377487	0.253312
H167	H	0.921546	-0.188413	-0.160560
H168	H	1.421546	0.311587	0.339440
C169	C	1.242835	-0.599565	-1.121737
C170	C	1.742835	-0.099565	-0.621737
H171	H	1.252481	-0.592162	-1.194945
H172	H	1.752481	-0.092162	-0.694945
H173	H	1.172248	-0.587768	-1.103747
H174	H	1.672248	-0.087768	-0.603747
H175	H	1.258179	-0.653750	-1.103745
H176	H	1.758179	-0.153750	-0.603745
C177	C	1.383941	-0.491385	-0.776178
C178	C	1.883941	0.008615	-0.276178
H179	H	1.334272	-0.529483	-0.751336
H180	H	1.834272	-0.029483	-0.251336
H181	H	1.365811	-0.439355	-0.751377
H182	H	1.865811	0.060645	-0.251377
H183	H	1.451728	-0.505348	-0.751362
H184	H	1.951728	-0.005348	-0.251362
C185	C	1.249281	-0.491603	-0.640239
C186	C	1.749281	0.008397	-0.140239
H187	H	1.274103	-0.529742	-0.689787
H188	H	1.774103	-0.029742	-0.189787
H189	H	1.274074	-0.505473	-0.572406
H190	H	1.774074	-0.005473	-0.072406
H191	H	1.274124	-0.439582	-0.658546
H192	H	1.774124	0.060418	-0.158546
C193	C	1.794115	-0.176793	-1.121986
C194	C	2.294115	0.323207	-0.621986
H195	H	1.834153	-0.146102	-1.073621
H196	H	2.334153	0.353898	-0.573621
H197	H	1.753962	-0.141649	-1.164800
H198	H	2.253962	0.358351	-0.664800
H199	H	1.839880	-0.207641	-1.164780
H200	H	2.339880	0.292359	-0.664780
