data_functionalizedCrystal
_audit_creation_method	'MofGen! by Chris Wilmer'
_symmetry_space_group_name_H-M	'P1'
_symmetry_Int_Tables_number	1
_symmetry_cell_setting	triclinic
loop_
_symmetry_equiv_pos_as_xyz
  x,y,z
_cell_length_a	6.817900
_cell_length_b	15.300992
_cell_length_c	16.015572
_cell_angle_alpha	77.748856
_cell_angle_beta	104.485554
_cell_angle_gamma	104.175078
loop_
_atom_site_label
_atom_site_type_symbol
_atom_site_fract_x
_atom_site_fract_y
_atom_site_fract_z
V1	V	-3.992607	-0.036345	-0.269469
O2	O	-3.977248	0.092637	-0.264072
O3	O	-3.947746	-0.159481	-0.267883
O4	O	-3.927765	0.004096	-0.386876
O5	O	-3.997367	-0.072072	-0.144255
V6	V	-4.477907	-0.025629	-0.254461
O7	O	-4.249967	-0.059850	-0.302390
O8	O	-4.670744	-0.002124	-0.221540
O9	O	-4.299562	0.097507	-0.256047
O10	O	-4.610663	-0.154612	-0.259858
O11	O	-4.590544	0.010098	-0.379675
O12	O	-4.319543	-0.066070	-0.137054
C13	C	-3.794139	-0.190746	-0.263699
C14	C	-3.838637	-0.291155	-0.263185
C15	C	-3.829978	-0.351401	-0.183847
C16	C	-3.871808	-0.445746	-0.183367
C17	C	-3.922282	-0.479842	-0.262226
C18	C	-3.930946	-0.419588	-0.341570
C19	C	-3.889131	-0.325245	-0.342049
C20	C	-4.018095	-0.616229	-0.340565
C21	C	-4.059909	-0.710578	-0.340086
C22	C	-4.000772	-0.736729	-0.181883
C23	C	-3.958957	-0.642387	-0.182363
C24	C	-3.967620	-0.582139	-0.261707
C25	C	-3.768651	0.017914	-0.415485
C26	C	-3.796942	0.050164	-0.511467
C27	C	-4.093802	-0.236085	-0.889697
C28	C	-4.120390	-0.205752	-0.979883
C29	C	-4.038892	-0.048820	-0.954849
C30	C	-4.012287	-0.079140	-0.864659
C31	C	-4.039748	-0.172773	-0.832091
C32	C	-3.958233	-0.015828	-0.807052
C33	C	-3.931641	-0.046146	-0.716870
C34	C	-3.959103	-0.139775	-0.684295
C35	C	-4.013156	-0.203091	-0.741908
C36	C	-3.930787	0.077805	-0.839623
C37	C	-3.876733	0.141116	-0.782016
C38	C	-3.850125	0.110799	-0.691832
C39	C	-3.877588	0.017170	-0.659256
C40	C	-3.796072	0.174115	-0.634218
C41	C	-3.769481	0.143797	-0.544036
C42	C	-3.850996	-0.013148	-0.569074
C43	C	-4.116511	0.128766	-0.260229
C44	C	-4.051250	0.229176	-0.260748
C45	C	-4.142000	-0.079893	-0.108440
C46	C	-4.092947	-0.112138	-0.012457
H47	H	-3.788864	-0.323648	-0.119631
C48	C	-4.027623	-0.549958	-0.427848
N49	N	-4.034787	-0.500042	-0.493588
C50	C	-3.991226	-0.803004	-0.094603
N51	N	-3.984023	-0.852925	-0.028866
H52	H	-3.725466	0.195352	-0.497130
C53	C	-3.862269	-0.512014	-0.096089
N54	N	-3.855082	-0.561927	-0.030347
C55	C	-3.929848	-0.173126	-0.585091
N56	N	-3.907808	-0.198245	-0.510370
H57	H	-3.773739	0.250351	-0.660750
H58	H	-4.101004	-0.738335	-0.404299
C59	C	-4.123995	-0.339087	-0.853867
N60	N	-4.146739	-0.416664	-0.826880
H61	H	-3.854386	0.217353	-0.808546
H62	H	-4.016546	0.027417	-0.981379
C63	C	-4.043349	-0.306093	-0.706078
N64	N	-4.066093	-0.383670	-0.679091
H65	H	-3.917847	-0.614629	-0.118149
H66	H	-3.896205	-0.276193	-0.406654
H67	H	-3.873330	-0.089393	-0.542555
H68	H	-4.164398	-0.257315	-1.026785
H69	H	-3.972059	-0.447356	-0.405778
H70	H	-3.952410	0.102487	-0.913055
