data_functionalizedCrystal
_audit_creation_method	'MofGen! by Chris Wilmer'
_symmetry_space_group_name_H-M	'P1'
_symmetry_Int_Tables_number	1
_symmetry_cell_setting	triclinic
loop_
_symmetry_equiv_pos_as_xyz
  x,y,z
_cell_length_a	19.077105
_cell_length_b	12.827892
_cell_length_c	19.076919
_cell_angle_alpha	92.275345
_cell_angle_beta	90.076224
_cell_angle_gamma	87.711895
loop_
_atom_site_label
_atom_site_type_symbol
_atom_site_fract_x
_atom_site_fract_y
_atom_site_fract_z
Zn1	Zn	1.058323	-0.505562	-0.440439
Zn2	Zn	1.062981	-0.673587	-0.322939
Zn3	Zn	0.945540	-0.491563	-0.318232
Zn4	Zn	0.940803	-0.672957	-0.435692
O5	O	1.001912	-0.585917	-0.379325
O6	O	1.157274	-0.533973	-0.428809
O7	O	1.051334	-0.643846	-0.223983
O8	O	0.960534	-0.347187	-0.334459
O9	O	1.160695	-0.657421	-0.342483
O10	O	1.043396	-0.357472	-0.424245
O11	O	0.965050	-0.510114	-0.220525
O12	O	0.846579	-0.509503	-0.329856
O13	O	0.952460	-0.656346	-0.534653
O14	O	0.843099	-0.642772	-0.416154
O15	O	1.038802	-0.533362	-0.538141
O16	O	1.046740	-0.819736	-0.337879
O17	O	0.956976	-0.819273	-0.420718
C18	C	0.819342	-0.574551	-0.371979
C19	C	0.741237	-0.569714	-0.368853
C20	C	1.001868	-0.857424	-0.379311
C21	C	1.001913	-0.973581	-0.379330
C22	C	0.702753	-0.636925	-0.412245
C23	C	0.629365	-0.632367	-0.409311
C24	C	0.594463	-0.560602	-0.362982
C25	C	0.632953	-0.493385	-0.319589
C26	C	0.706339	-0.497938	-0.322527
C27	C	0.375174	-0.539528	-0.349388
C28	C	0.301782	-0.534981	-0.346452
C29	C	0.298199	-0.673963	-0.436176
C30	C	0.371587	-0.678514	-0.439106
C31	C	0.410071	-0.611293	-0.395716
N32	N	0.519449	-0.555944	-0.359980
N33	N	0.485083	-0.615947	-0.398722
C34	C	1.042895	-1.030372	-0.423797
C35	C	1.042942	-1.150427	-0.423818
C36	C	1.185194	-0.597329	-0.386701
C37	C	1.263298	-0.602192	-0.389843
C38	C	0.994583	-0.596346	-0.562606
C39	C	0.991460	-0.600790	-0.640709
C40	C	1.001974	-0.313353	-0.379356
C41	C	1.002000	-0.197202	-0.379370
C42	C	1.034945	-0.538849	-0.679219
C43	C	1.032002	-0.543020	-0.752605
C44	C	0.985578	-0.609138	-0.787480
C45	C	0.942089	-0.671081	-0.748965
C46	C	0.945029	-0.666904	-0.675580
C47	C	0.971962	-0.628492	-1.006762
C48	C	0.969027	-0.632667	-1.080152
C49	C	1.058939	-0.504604	-1.083788
C50	C	1.061878	-0.500437	-1.010401
C51	C	1.018386	-0.562376	-0.971892
N52	N	0.982570	-0.613406	-0.862492
N53	N	1.021391	-0.558103	-0.896881
C54	C	1.009252	-0.575456	-0.196759
C55	C	1.012511	-0.570726	-0.118662
H56	H	0.731165	-0.695367	-0.449969
O57	O	0.595321	-0.415976	-0.269615
H58	H	0.611612	-0.431508	-0.215013
H59	H	1.094347	-0.454176	-1.115149
H60	H	0.737673	-0.443203	-0.287197
H61	H	0.909612	-0.717331	-0.644226
O62	O	1.111948	-0.429120	-0.972788
H63	H	1.149028	-0.476222	-0.940795
O64	O	0.256691	-0.746513	-0.482934
H65	H	0.293290	-0.797204	-0.515625
H66	H	0.904287	-0.724912	-0.777365
H67	H	0.931220	-0.686511	-1.108545
O68	O	0.587860	-0.705049	-0.455976
H69	H	0.624460	-0.755795	-0.488629
O70	O	0.955480	-1.026900	-0.328924
H71	H	0.925449	-0.967037	-0.296351
H72	H	1.077944	-0.990117	-0.461853
H73	H	0.936558	-0.678943	-0.975417
H74	H	1.078031	-1.199247	-0.461885
O75	O	0.955521	-1.132556	-0.328933
H76	H	0.918492	-1.082425	-0.358934
O77	O	1.085017	-0.467536	-0.641605
H78	H	1.114754	-0.425159	-0.680715
O79	O	0.409232	-0.755908	-0.489082
H80	H	0.370141	-0.801872	-0.518768
H81	H	0.406499	-0.484799	-0.314051
O82	O	1.078906	-0.476220	-0.794144
H83	H	1.111689	-0.429555	-0.757565
H84	H	0.273368	-0.476530	-0.308730
