data_functionalizedCrystal
_audit_creation_method	'MofGen! by Chris Wilmer'
_symmetry_space_group_name_H-M	'P1'
_symmetry_Int_Tables_number	1
_symmetry_cell_setting	triclinic
loop_
_symmetry_equiv_pos_as_xyz
  x,y,z
_cell_length_a	10.489741
_cell_length_b	10.489741
_cell_length_c	9.565339
_cell_angle_alpha	90.005587
_cell_angle_beta	89.994993
_cell_angle_gamma	84.539174
loop_
_atom_site_label
_atom_site_type_symbol
_atom_site_fract_x
_atom_site_fract_y
_atom_site_fract_z
O1	O	1.694041	0.179971	0.116173
O2	O	1.322845	0.196864	0.116194
O3	O	1.516889	0.002820	0.116175
O4	O	1.499997	0.374016	0.116192
O5	O	1.516898	0.002807	-0.116345
O6	O	1.322854	0.196851	-0.116326
O7	O	1.694050	0.179958	-0.116347
Zn8	Zn	1.508453	0.188403	-0.153254
Zn9	Zn	1.508442	0.188420	0.153101
O10	O	1.500005	0.374003	-0.116328
C11	C	1.275318	0.195582	-0.000063
C12	C	1.133688	0.191765	-0.000055
C13	C	1.065548	0.068300	-0.000074
C14	C	0.973417	0.126630	0.114571
C15	C	0.973460	0.126646	-0.114676
C16	C	1.043423	0.250145	0.114684
C17	C	1.043475	0.250145	-0.114665
C18	C	0.951371	0.308564	0.000007
C19	C	1.515618	-0.044718	-0.000084
C20	C	1.511801	-0.186348	-0.000082
C21	C	1.388336	-0.254488	-0.000064
C22	C	1.446664	-0.346617	-0.114712
C23	C	1.446684	-0.346579	0.114534
C24	C	1.570179	-0.276611	-0.114824
C25	C	1.570183	-0.276564	0.114525
C26	C	1.628600	-0.368665	-0.000150
C27	C	1.741577	0.181241	-0.000087
C28	C	1.883206	0.185058	-0.000086
C29	C	1.501277	0.421541	-0.000066
C30	C	1.505094	0.563170	-0.000059
N31	N	1.508434	0.188422	0.362180
N32	N	1.508470	0.188391	-0.362334
C33	C	1.418517	0.277985	0.453384
C34	C	1.393002	0.162398	0.546563
C35	C	1.533929	0.303967	0.546557
C36	C	1.482862	0.072776	0.453307
C37	C	1.623839	0.214421	0.453294
C38	C	1.598373	0.098751	0.546430
H39	H	0.942399	0.074395	0.211491
H40	H	1.461199	-0.024975	0.412519
H41	H	1.074247	0.302350	0.211717
C42	C	0.848097	0.139110	-0.325100
C43	C	0.931643	0.056097	-0.245524
H44	H	0.822281	0.095544	-0.405869
H45	H	0.890459	0.211166	-0.352652
H46	H	0.774881	0.166900	-0.270749
H47	H	1.004864	0.028315	-0.299872
H48	H	0.889282	-0.015982	-0.217974
H49	H	1.555494	0.401699	0.587492
C50	C	1.186015	-0.224276	0.118639
C51	C	1.251300	-0.187460	-0.000204
H52	H	1.101416	-0.182902	0.118540
H53	H	1.229672	-0.200444	0.200165
H54	H	1.182666	-0.314452	0.117794
H55	H	1.254658	-0.097284	0.000646
H56	H	1.207632	-0.211284	-0.081752
C57	C	1.576418	-0.271201	-0.365660
C58	C	1.640645	-0.235013	-0.245825
H59	H	1.619923	-0.245524	-0.446531
H60	H	1.491337	-0.231078	-0.365322
H61	H	1.574454	-0.361550	-0.366405
H62	H	1.642600	-0.144662	-0.245074
H63	H	1.725748	-0.275132	-0.246162
C64	C	0.919945	0.510046	0.120235
C65	C	0.884635	0.445718	0.000093
H66	H	0.878736	0.594714	0.120294
H67	H	1.010135	0.513205	0.121000
H68	H	0.894891	0.465853	0.200890
H69	H	0.909698	0.489906	-0.080562
H70	H	0.794426	0.442565	-0.000685
H71	H	1.342410	0.353651	0.412527
H72	H	1.394427	-0.377634	-0.211633
C73	C	1.808896	0.141111	0.317377
C74	C	1.755529	0.244179	0.397938
H75	H	1.890199	0.159491	0.283211
H76	H	1.753961	0.127878	0.240871
H77	H	1.818741	0.066066	0.373426
H78	H	1.745676	0.319222	0.341886
H79	H	1.810478	0.257427	0.474455
C80	C	1.170819	0.238224	-0.323664
C81	C	1.085414	0.320602	-0.245503
H82	H	1.196718	0.281719	-0.404441
H83	H	1.129856	0.165270	-0.351190
H84	H	1.243814	0.211833	-0.268373
H85	H	1.012414	0.346985	-0.300791
H86	H	1.126376	0.393579	-0.217980
H87	H	1.622375	-0.245514	0.211451
C88	C	1.439592	-0.351321	0.365366
C89	C	1.376142	-0.388397	0.245385
H90	H	1.396038	-0.377143	0.446141
H91	H	1.440826	-0.260901	0.365845
H92	H	1.524938	-0.390797	0.365490
H93	H	1.290798	-0.348914	0.245256
H94	H	1.374894	-0.478835	0.244907
C95	C	1.853588	-0.342869	-0.001467
C96	C	1.765764	-0.435378	-0.000257
H97	H	1.938266	-0.384053	-0.001552
H98	H	1.841316	-0.290374	0.079239
H99	H	1.840754	-0.291454	-0.082926
H100	H	1.778591	-0.486787	0.081207
H101	H	1.778042	-0.487895	-0.080972
H102	H	1.674433	0.022914	0.587028
H103	H	1.115238	-0.033196	0.000065
H104	H	1.295424	0.140390	0.587540
