data_functionalizedCrystal
_audit_creation_method	'MofGen! by Chris Wilmer'
_symmetry_space_group_name_H-M	'P1'
_symmetry_Int_Tables_number	1
_symmetry_cell_setting	triclinic
loop_
_symmetry_equiv_pos_as_xyz
  x,y,z
_cell_length_a	19.121215
_cell_length_b	29.839131
_cell_length_c	19.120904
_cell_angle_alpha	87.598232
_cell_angle_beta	90.126793
_cell_angle_gamma	92.468360
loop_
_atom_site_label
_atom_site_type_symbol
_atom_site_fract_x
_atom_site_fract_y
_atom_site_fract_z
Zn1	Zn	1.054826	-0.162214	0.442187
Zn2	Zn	1.388160	0.171119	0.775520
Zn3	Zn	1.721493	0.504453	1.108853
Zn4	Zn	1.059727	-0.234009	0.324928
Zn5	Zn	1.393061	0.099325	0.658262
Zn6	Zn	1.726394	0.432658	0.991595
Zn7	Zn	0.942593	-0.161946	0.319952
Zn8	Zn	1.275926	0.171387	0.653285
Zn9	Zn	1.609260	0.504720	0.986619
Zn10	Zn	0.937534	-0.240372	0.437108
Zn11	Zn	1.270868	0.092961	0.770441
Zn12	Zn	1.604201	0.426295	1.103775
O13	O	0.998670	-0.199635	0.381044
O14	O	1.332004	0.133698	0.714377
O15	O	1.665337	0.467031	1.047710
O16	O	1.153585	-0.169187	0.430840
O17	O	1.486918	0.164147	0.764174
O18	O	1.820252	0.497480	1.097507
O19	O	1.048357	-0.221674	0.226165
O20	O	1.381691	0.111659	0.559498
O21	O	1.715024	0.444992	0.892831
O22	O	0.957547	-0.099114	0.336210
O23	O	1.290880	0.234219	0.669543
O24	O	1.624214	0.567553	1.002876
O25	O	1.157185	-0.221934	0.344691
O26	O	1.490519	0.111400	0.678024
O27	O	1.823852	0.444733	1.011357
O28	O	1.040005	-0.099311	0.426015
O29	O	1.373338	0.234023	0.759348
O30	O	1.706671	0.567356	1.092682
O31	O	0.962299	-0.168730	0.222509
O32	O	1.295632	0.164603	0.555842
O33	O	1.628966	0.497936	0.889175
O34	O	0.843814	-0.174901	0.331285
O35	O	1.177147	0.158432	0.664618
O36	O	1.510480	0.491766	0.997952
O37	O	0.948925	-0.232779	0.535885
O38	O	1.282259	0.100554	0.869218
O39	O	1.615592	0.433887	1.202552
O40	O	0.840097	-0.232520	0.417359
O41	O	1.173430	0.100813	0.750692
O42	O	1.506764	0.434147	1.084026
O43	O	1.035099	-0.175357	0.539616
O44	O	1.368433	0.157976	0.872950
O45	O	1.701766	0.491310	1.206283
O46	O	1.043452	-0.297721	0.339766
O47	O	1.376785	0.035613	0.673099
O48	O	1.710119	0.368946	1.006433
O49	O	0.953677	-0.302396	0.422184
O50	O	1.287011	0.030938	0.755518
O51	O	1.620344	0.364271	1.088851
C52	C	0.816517	-0.204372	0.373231
C53	C	1.149850	0.128961	0.706565
C54	C	1.483184	0.462294	1.039898
C55	C	0.738590	-0.206410	0.369906
C56	C	1.071924	0.126923	0.703239
C57	C	1.405257	0.460257	1.036572
C58	C	0.297945	-0.219311	0.348867
C59	C	0.631279	0.114022	0.682200
C60	C	0.964612	0.447356	1.015533
C61	C	0.371166	-0.217394	0.351986
C62	C	0.704499	0.115940	0.685319
C63	C	1.037833	0.449273	1.018653
C64	C	0.405901	-0.189021	0.398472
C65	C	0.739234	0.144312	0.731806
C66	C	1.072567	0.477645	1.065139
C67	C	0.367411	-0.162561	0.441837
C68	C	0.700744	0.170772	0.775170
C69	C	1.034078	0.504105	1.108503
C70	C	0.294192	-0.164477	0.438713
C71	C	0.627525	0.168857	0.772047
C72	C	0.960858	0.502190	1.105380
C73	C	0.626881	-0.181865	0.410147
C74	C	0.960215	0.151468	0.743480
C75	C	1.293548	0.484801	1.076814
C76	C	0.700106	-0.179953	0.413269
C77	C	1.033439	0.153380	0.746602
C78	C	1.366772	0.486714	1.079935
C79	C	0.703856	-0.234785	0.323417
C80	C	1.037189	0.098548	0.656750
C81	C	1.370522	0.431882	0.990083
C82	C	0.630635	-0.236700	0.320300
C83	C	0.963968	0.096634	0.653634
C84	C	1.297302	0.429967	0.986967
C85	C	0.592152	-0.210238	0.363662
C86	C	0.925485	0.123096	0.696996
C87	C	1.258818	0.456429	1.030329
C88	C	0.480744	-0.187062	0.401663
C89	C	0.814077	0.146271	0.734997
C90	C	1.147410	0.479605	1.068330
C91	C	0.517310	-0.212195	0.360467
C92	C	0.850643	0.121138	0.693800
C93	C	1.183977	0.454472	1.027134
C94	C	0.998566	-0.316359	0.380980
C95	C	1.331899	0.016974	0.714313
C96	C	1.665232	0.350308	1.047647
C97	C	0.998584	-0.366293	0.380979
C98	C	1.331918	-0.032960	0.714312
C99	C	1.665251	0.300374	1.047646
C100	C	1.041593	-0.676005	0.427869
C101	C	1.374927	-0.342672	0.761202
C102	C	1.708260	-0.009339	1.094536
C103	C	1.041668	-0.863677	0.427914
C104	C	1.375001	-0.530344	0.761248
C105	C	1.708334	-0.197011	1.094581
O106	O	1.078133	-0.888002	0.467733
O107	O	1.411466	-0.554669	0.801067
O108	O	1.744799	-0.221336	1.134400
N109	N	0.998786	-0.887076	0.381127
N110	N	1.332119	-0.553743	0.714460
N111	N	1.665453	-0.220410	1.047793
C112	C	0.955879	-0.863555	0.334327
C113	C	1.289213	-0.530221	0.667661
C114	C	1.622546	-0.196888	1.000994
O115	O	0.919402	-0.887763	0.294538
O116	O	1.252736	-0.554430	0.627871
O117	O	1.586069	-0.221097	0.961204
C118	C	0.955802	-0.675883	0.334286
C119	C	1.289135	-0.342550	0.667619
C120	C	1.622468	-0.009217	1.000953
C121	C	0.998692	-0.652487	0.381072
C122	C	1.332025	-0.319153	0.714405
C123	C	1.665358	0.014180	1.047739
C124	C	1.084479	-0.652608	0.474651
C125	C	1.417812	-0.319275	0.807985
C126	C	1.751146	0.014058	1.141318
C127	C	1.084463	-0.605693	0.474637
C128	C	1.417796	-0.272360	0.807970
C129	C	1.751129	0.060974	1.141304
C130	C	1.041561	-0.582174	0.427840
C131	C	1.374894	-0.248841	0.761173
C132	C	1.708228	0.084492	1.094507
C133	C	0.998675	-0.605571	0.381058
C134	C	1.332009	-0.272238	0.714391
C135	C	1.665342	0.061095	1.047724
C136	C	0.912892	-0.652363	0.287491
C137	C	1.246225	-0.319029	0.620824
C138	C	1.579559	0.014304	0.954157
C139	C	0.912875	-0.605442	0.287486
C140	C	1.246208	-0.272109	0.620819
C141	C	1.579542	0.061225	0.954152
C142	C	0.955765	-0.582045	0.334272
C143	C	1.289098	-0.248712	0.667605
C144	C	1.622431	0.084621	1.000938
C145	C	0.955757	-0.535137	0.334246
C146	C	1.289091	-0.201804	0.667579
C147	C	1.622424	0.131529	1.000913
N148	N	0.998639	-0.511738	0.381034
N149	N	1.331972	-0.178405	0.714367
N150	N	1.665306	0.154928	1.047700
C151	C	1.041541	-0.535257	0.427831
C152	C	1.374874	-0.201924	0.761164
C153	C	1.708207	0.131410	1.094497
C154	C	0.955924	-0.962085	0.334352
C155	C	1.289257	-0.628751	0.667685
C156	C	1.622591	-0.295418	1.001018
C157	C	0.955944	-1.009002	0.334361
C158	C	1.289278	-0.675669	0.667694
C159	C	1.622611	-0.342336	1.001028
C160	C	1.041732	-1.009122	0.427949
C161	C	1.375065	-0.675789	0.761282
C162	C	1.708398	-0.342455	1.094616
C163	C	1.041715	-0.962203	0.427936
C164	C	1.375048	-0.628870	0.761269
C165	C	1.708381	-0.295537	1.094602
C166	C	0.998806	-0.938686	0.381139
C167	C	1.332139	-0.605352	0.714473
C168	C	1.665472	-0.272019	1.047806
C169	C	1.041504	-0.436731	0.427797
C170	C	1.374837	-0.103398	0.761130
C171	C	1.708171	0.229936	1.094463
C172	C	1.041486	-0.389811	0.427776
C173	C	1.374819	-0.056478	0.761109
C174	C	1.708153	0.276855	1.094443
C175	C	0.955696	-0.389696	0.334191
C176	C	1.289030	-0.056363	0.667524
C177	C	1.622363	0.276971	1.000858
C178	C	0.955716	-0.436612	0.334209
C179	C	1.289050	-0.103278	0.667542
C180	C	1.622383	0.230055	1.000875
C181	C	0.998622	-0.460128	0.381017
C182	C	1.331956	-0.126795	0.714351
C183	C	1.665289	0.206539	1.047684
O184	O	0.919306	-0.510784	0.294453
O185	O	1.252639	-0.177450	0.627787
O186	O	1.585972	0.155883	0.961120
O187	O	1.078001	-0.511041	0.467625
O188	O	1.411334	-0.177707	0.800958
O189	O	1.744668	0.155626	1.134292
C190	C	1.041610	-0.722921	0.427883
C191	C	1.374943	-0.389587	0.761217
C192	C	1.708276	-0.056254	1.094550
C193	C	0.998724	-0.746317	0.381101
C194	C	1.332057	-0.412984	0.714434
C195	C	1.665391	-0.079651	1.047767
C196	C	0.955822	-0.722799	0.334304
C197	C	1.289155	-0.389466	0.667637
C198	C	1.622489	-0.056132	1.000970
C199	C	0.998744	-0.793235	0.381110
C200	C	1.332077	-0.459902	0.714443
C201	C	1.665411	-0.126568	1.047777
C202	C	1.041646	-0.816754	0.427907
C203	C	1.374979	-0.483420	0.761240
C204	C	1.708313	-0.150087	1.094574
C205	C	1.084528	-0.793355	0.474695
C206	C	1.417861	-0.460021	0.808028
C207	C	1.751194	-0.126688	1.141361
C208	C	1.084511	-0.746439	0.474680
C209	C	1.417845	-0.413106	0.808014
C210	C	1.751178	-0.079773	1.141347
C211	C	0.912940	-0.746198	0.287516
C212	C	1.246274	-0.412865	0.620849
C213	C	1.579607	-0.079531	0.954183
C214	C	0.912961	-0.793113	0.287534
C215	C	1.246294	-0.459780	0.620867
C216	C	1.579627	-0.126447	0.954200
C217	C	0.955863	-0.816632	0.334331
C218	C	1.289196	-0.483299	0.667664
C219	C	1.622529	-0.149965	1.000997
C220	C	1.181535	-0.194880	0.388887
C221	C	1.514868	0.138453	0.722220
C222	C	1.848201	0.471786	1.055554
C223	C	1.259461	-0.192854	0.392229
C224	C	1.592794	0.140479	0.725563
C225	C	1.926127	0.473813	1.058896
C226	C	0.990901	-0.204808	0.563899
C227	C	1.324235	0.128525	0.897232
C228	C	1.657568	0.461859	1.230566
C229	C	0.987591	-0.207012	0.641821
C230	C	1.320924	0.126321	0.975154
C231	C	1.654257	0.459655	1.308488
C232	C	0.998793	-0.082456	0.381124
C233	C	1.332127	0.250878	0.714457
C234	C	1.665460	0.584211	1.047791
C235	C	0.998846	-0.032521	0.381158
C236	C	1.332179	0.300813	0.714491
C237	C	1.665513	0.634146	1.047825
C238	C	1.006449	-0.194449	0.198902
C239	C	1.339783	0.138884	0.532235
C240	C	1.673116	0.472217	0.865568
C241	C	1.009896	-0.192115	0.120986
C242	C	1.343229	0.141218	0.454319
C243	C	1.676562	0.474552	0.787652
C244	C	1.030899	-0.178152	0.680373
C245	C	1.364233	0.155181	1.013706
C246	C	1.697566	0.488514	1.347040
C247	C	1.027780	-0.180222	0.753589
C248	C	1.361113	0.153111	1.086922
C249	C	1.694447	0.486445	1.420255
C250	C	0.981355	-0.211154	0.788251
C251	C	1.314689	0.122179	1.121585
C252	C	1.648022	0.455513	1.454918
C253	C	0.938042	-0.240015	0.749694
C254	C	1.271375	0.093318	1.083028
C255	C	1.604709	0.426652	1.416361
C256	C	0.941158	-0.237943	0.676480
C257	C	1.274491	0.095390	1.009813
C258	C	1.607825	0.428724	1.343146
C259	C	0.969699	-0.218904	1.009214
C260	C	1.303032	0.114429	1.342548
C261	C	1.636365	0.447763	1.675881
C262	C	0.966587	-0.220975	1.082434
C263	C	1.299921	0.112358	1.415767
C264	C	1.633254	0.445692	1.749101
C265	C	1.056325	-0.161181	1.086323
C266	C	1.389658	0.172152	1.419657
C267	C	1.722991	0.505486	1.752990
C268	C	1.059440	-0.159113	1.013107
C269	C	1.392773	0.174220	1.346441
C270	C	1.726106	0.507553	1.679774
C271	C	1.016124	-0.187973	0.974557
C272	C	1.349457	0.145360	1.307890
C273	C	1.682791	0.478694	1.641223
C274	C	0.978167	-0.213271	0.863090
C275	C	1.311501	0.120062	1.196423
C276	C	1.644834	0.453396	1.529756
C277	C	1.019309	-0.185853	0.899720
C278	C	1.352642	0.147480	1.233053
C279	C	1.685975	0.480813	1.566386
H280	H	0.602359	-0.259803	0.282445
H281	H	0.935693	0.073531	0.615779
H282	H	1.269026	0.406864	0.949112
C283	C	0.584559	-0.152760	0.457852
C284	C	0.917892	0.180574	0.791185
C285	C	1.251226	0.513907	1.124519
N286	N	0.552679	-0.130837	0.493787
N287	N	0.886013	0.202497	0.827120
N288	N	1.219346	0.535830	1.160454
C289	C	0.886967	-0.274036	0.787826
C290	C	1.220301	0.059297	1.121159
C291	C	1.553634	0.392630	1.454492
N292	N	0.848496	-0.299662	0.816545
N293	N	1.181830	0.033671	1.149879
N294	N	1.515163	0.367005	1.483212
C295	C	0.922047	-0.250649	0.966818
C296	C	1.255381	0.082684	1.300151
C297	C	1.588714	0.416017	1.633484
N298	N	0.886153	-0.274561	0.934882
N299	N	1.219486	0.058773	1.268216
N300	N	1.552819	0.392106	1.601549
H301	H	0.940371	-0.238458	0.891320
H302	H	1.273705	0.094875	1.224654
H303	H	1.607038	0.428209	1.557987
H304	H	1.076665	-1.028279	0.466052
H305	H	1.409998	-0.694945	0.799385
H306	H	1.743332	-0.361612	1.132719
C307	C	1.075424	-0.148474	0.795992
C308	C	1.408758	0.184859	1.129326
C309	C	1.742091	0.518192	1.462659
N310	N	1.111312	-0.124560	0.827930
N311	N	1.444646	0.208773	1.161264
N312	N	1.777979	0.542106	1.494597
H313	H	1.119414	-0.671752	0.512763
H314	H	1.452748	-0.338419	0.846097
H315	H	1.786081	-0.005086	1.179430
H316	H	1.119385	-0.586646	0.512736
H317	H	1.452718	-0.253313	0.846069
H318	H	1.786052	0.080021	1.179403
C319	C	1.088893	-0.936471	0.479406
C320	C	1.422227	-0.603138	0.812739
C321	C	1.755560	-0.269805	1.146072
N322	N	1.124429	-0.917092	0.518177
N323	N	1.457762	-0.583759	0.851510
N324	N	1.791096	-0.250426	1.184843
H325	H	0.920768	-0.370540	0.296087
H326	H	1.254101	-0.037207	0.629421
H327	H	1.587435	0.296127	0.962754
H328	H	0.905885	-0.261439	0.645091
H329	H	1.239218	0.071894	0.978425
H330	H	1.572551	0.405227	1.311758
H331	H	1.119462	-0.812511	0.512796
H332	H	1.452796	-0.479178	0.846130
H333	H	1.786129	-0.145845	1.179463
H334	H	1.119436	-0.727393	0.512778
H335	H	1.452769	-0.394060	0.846111
H336	H	1.786103	-0.060726	1.179445
H337	H	0.269670	-0.242417	0.311016
H338	H	0.603003	0.090916	0.644349
H339	H	0.936336	0.424250	0.977683
H340	H	1.057105	-0.160667	0.871494
H341	H	1.390438	0.172667	1.204827
H342	H	1.723771	0.506000	1.538161
H343	H	0.921027	-1.028048	0.296256
H344	H	1.254360	-0.694714	0.629589
H345	H	1.587694	-0.361381	0.962923
C346	C	0.479100	-0.243404	0.309334
C347	C	0.812433	0.089929	0.642667
C348	C	1.145766	0.423263	0.976001
N349	N	0.450313	-0.266912	0.270823
N350	N	0.783647	0.066421	0.604156
N351	N	1.116980	0.399755	0.937490
H352	H	0.402497	-0.238937	0.316674
H353	H	0.735830	0.094396	0.650008
H354	H	1.069164	0.427730	0.983341
C355	C	0.908540	-0.462348	0.282738
C356	C	1.241873	-0.129015	0.616072
C357	C	1.575207	0.204318	0.949405
N358	N	0.873000	-0.481731	0.243975
N359	N	1.206334	-0.148397	0.577308
N360	N	1.539667	0.184936	0.910642
C361	C	1.110504	-0.125081	0.974984
C362	C	1.443837	0.208252	1.308317
C363	C	1.777170	0.541585	1.641650
N364	N	1.148965	-0.099448	0.946269
N365	N	1.482298	0.233886	1.279602
N366	N	1.815632	0.567219	1.612935
H367	H	0.920981	-0.942940	0.296243
H368	H	1.254315	-0.609606	0.629576
H369	H	1.587648	-0.276273	0.962909
C370	C	1.081970	-0.144124	0.642251
C371	C	1.415303	0.189209	0.975584
C372	C	1.748637	0.522543	1.308917
N373	N	1.120436	-0.118491	0.613539
N374	N	1.453769	0.214842	0.946872
N375	N	1.787102	0.548175	1.280206
C376	C	0.865704	-0.678089	0.236026
C377	C	1.199037	-0.344756	0.569359
C378	C	1.532371	-0.011422	0.902693
N379	N	0.830157	-0.697465	0.197262
N380	N	1.163490	-0.364132	0.530595
N381	N	1.496823	-0.030799	0.863929
H382	H	0.395698	-0.139458	0.479684
H383	H	0.729031	0.193875	0.813017
H384	H	1.062364	0.527209	1.146351
C385	C	0.746193	-0.263886	0.275714
C386	C	1.079527	0.069448	0.609047
C387	C	1.412860	0.402781	0.942381
N388	N	0.778082	-0.285803	0.239779
N389	N	1.111416	0.047530	0.573113
N390	N	1.444749	0.380863	0.906446
H391	H	0.509033	-0.163962	0.439514
H392	H	0.842366	0.169371	0.772848
H393	H	1.175699	0.502704	1.106181
H394	H	1.076415	-0.370763	0.465875
H395	H	1.409748	-0.037430	0.799208
H396	H	1.743081	0.295904	1.132541
C397	C	0.738312	-0.148739	0.464408
C398	C	1.071646	0.184594	0.797741
C399	C	1.404979	0.517928	1.131075
N400	N	0.767089	-0.125230	0.502925
N401	N	1.100423	0.208103	0.836258
N402	N	1.433756	0.541436	1.169591
H403	H	0.877931	-0.586296	0.249379
H404	H	1.211264	-0.252963	0.582713
H405	H	1.544598	0.080370	0.916046
H406	H	1.091589	-0.137685	1.117719
H407	H	1.424922	0.195649	1.451052
H408	H	1.758256	0.528982	1.784386
H409	H	0.262858	-0.142931	0.474022
H410	H	0.596192	0.190403	0.807355
H411	H	0.929525	0.523736	1.140688
H412	H	0.878036	-0.812159	0.249429
H413	H	1.211369	-0.478825	0.582762
H414	H	1.544703	-0.145492	0.916095
C415	C	1.088708	-0.462592	0.479284
C416	C	1.422041	-0.129259	0.812617
C417	C	1.755374	0.204074	1.145951
N418	N	1.124266	-0.482070	0.518060
N419	N	1.457599	-0.148737	0.851394
N420	N	1.790933	0.184596	1.184727
C421	C	0.915512	-0.255003	1.120561
C422	C	1.248845	0.078331	1.453895
C423	C	1.582179	0.411664	1.787228
N424	N	0.877044	-0.280631	1.149279
N425	N	1.210378	0.052702	1.482612
N426	N	1.543711	0.386035	1.815946
H427	H	0.878004	-0.727053	0.249409
H428	H	1.211337	-0.393719	0.582742
H429	H	1.544670	-0.060386	0.916076
