data_functionalizedCrystal
_audit_creation_method	'MofGen! by Chris Wilmer'
_symmetry_space_group_name_H-M	'P1'
_symmetry_Int_Tables_number	1
_symmetry_cell_setting	triclinic
loop_
_symmetry_equiv_pos_as_xyz
  x,y,z
_cell_length_a	27.732048
_cell_length_b	10.723024
_cell_length_c	9.198806
_cell_angle_alpha	90.002012
_cell_angle_beta	89.998433
_cell_angle_gamma	83.555262
loop_
_atom_site_label
_atom_site_type_symbol
_atom_site_fract_x
_atom_site_fract_y
_atom_site_fract_z
O1	O	-0.641849	-0.148462	-0.120702
O2	O	-0.501195	-0.171036	-0.120745
O3	O	-0.574767	0.021961	-0.120717
O4	O	-0.568278	-0.341460	-0.120730
O5	O	-0.574761	0.021962	0.121068
O6	O	-0.501190	-0.171036	0.121040
O7	O	-0.641843	-0.148462	0.121083
Cu8	Cu	-0.571516	-0.159749	0.143138
Cu9	Cu	-0.571523	-0.159749	-0.142801
O10	O	-0.568272	-0.341459	0.121055
C11	C	-0.574291	0.068442	0.000173
C12	C	-0.572879	0.206937	0.000168
C13	C	-0.483183	-0.170562	0.000142
C14	C	-0.429519	-0.169135	0.000125
C15	C	-0.659856	-0.148936	0.000193
C16	C	-0.713519	-0.150363	0.000200
C17	C	-0.091356	-0.274201	0.000184
C18	C	0.110336	-0.268907	0.000197
O19	O	0.140995	-0.364983	0.000257
N20	N	0.130171	-0.154468	0.000199
C21	C	0.099578	-0.041344	0.000207
O22	O	0.121077	0.056116	0.000223
C23	C	-0.102113	-0.046639	0.000204
C24	C	-0.121945	-0.161086	0.000188
C25	C	-0.111188	-0.388639	0.000170
C26	C	-0.161608	-0.389961	0.000159
C27	C	-0.192197	-0.276846	0.000162
C28	C	-0.172365	-0.162408	0.000176
C29	C	-0.132704	0.066484	0.000222
C30	C	-0.183130	0.065150	0.000225
C31	C	-0.202961	-0.049297	0.000209
C32	C	-0.253373	-0.050615	0.000168
N33	N	-0.273207	-0.165055	0.000167
C34	C	-0.242619	-0.278170	0.000164
C35	C	0.205470	-0.038571	0.000205
C36	C	0.255892	-0.037247	0.000203
C37	C	0.266647	-0.264811	0.000197
C38	C	0.216223	-0.266134	0.000188
C39	C	0.185635	-0.153011	0.000204
C40	C	-0.348506	-0.280938	0.000139
C41	C	-0.398931	-0.282251	0.000122
C42	C	-0.409681	-0.054687	0.000136
C43	C	-0.359260	-0.053374	0.000145
C44	C	-0.328673	-0.166510	0.000152
O45	O	-0.284061	0.045409	0.000125
O46	O	-0.264127	-0.375615	0.000179
C47	C	-0.040936	-0.272879	0.000195
C48	C	-0.021104	-0.158441	0.000210
C49	C	-0.051692	-0.045326	0.000213
C50	C	0.029318	-0.157117	0.000208
C51	C	0.059907	-0.270232	0.000205
C52	C	0.040072	-0.384672	0.000203
C53	C	-0.010348	-0.385994	0.000192
C54	C	-0.031858	0.069114	0.000215
C55	C	0.018563	0.070427	0.000224
C56	C	0.049151	-0.042689	0.000221
C57	C	-0.568747	-0.387939	0.000161
C58	C	-0.570160	-0.526435	0.000157
N59	N	-0.571514	-0.159748	0.344252
C60	C	-0.614045	0.283624	0.000178
C61	C	-0.612586	0.426767	0.000173
N62	N	-0.571528	-0.159740	-0.343915
C63	C	-0.602405	-0.078362	0.416461
C64	C	-0.602412	-0.078357	0.583873
H65	H	-0.415074	-0.375451	0.000108
H66	H	-0.647828	0.492658	0.000188
Br67	Br	-0.511415	0.363757	0.000159
Br68	Br	-0.527448	-0.275895	0.552605
H69	H	-0.536554	0.247256	0.000147
H70	H	0.180569	0.053553	0.000218
Br71	Br	-0.646498	0.037774	0.687363
H72	H	-0.323607	-0.373065	0.000149
H73	H	-0.628844	-0.008682	0.354345
Br74	Br	-0.188514	-0.545290	0.000143
H75	H	-0.086288	-0.480756	0.000172
H76	H	0.200080	-0.359327	0.000183
H77	H	0.291560	-0.356914	0.000194
H78	H	-0.545072	-0.229418	0.406370
Br79	Br	-0.073364	0.222644	0.000224
H80	H	-0.116567	0.159679	0.000236
Br81	Br	0.282800	0.118080	0.000181
Br82	Br	-0.674592	0.216437	0.000182
Br83	Br	-0.332345	0.101947	0.000172
Br84	Br	-0.451203	0.098819	0.000144
Br85	Br	-0.224639	0.218684	0.000253
H86	H	-0.026490	-0.479189	0.000181
H87	H	0.034704	0.163630	0.000226
Br88	Br	0.081595	-0.538184	0.000188
