data_functionalizedCrystal
_audit_creation_method	'MofGen! by Chris Wilmer'
_symmetry_space_group_name_H-M	'P1'
_symmetry_Int_Tables_number	1
_symmetry_cell_setting	triclinic
loop_
_symmetry_equiv_pos_as_xyz
  x,y,z
_cell_length_a	10.654550
_cell_length_b	9.065218
_cell_length_c	9.730223
_cell_angle_alpha	89.997438
_cell_angle_beta	89.999957
_cell_angle_gamma	84.750408
loop_
_atom_site_label
_atom_site_type_symbol
_atom_site_fract_x
_atom_site_fract_y
_atom_site_fract_z
O1	O	1.668660	0.207235	-0.114181
O2	O	1.303260	0.226979	-0.114206
O3	O	1.493512	0.002423	-0.114190
O4	O	1.478407	0.431790	-0.114197
O5	O	1.493500	0.002417	0.114390
O6	O	1.303247	0.226972	0.114374
O7	O	1.668647	0.207228	0.114399
Zn8	Zn	1.485945	0.217099	0.150678
Zn9	Zn	1.485962	0.217108	-0.150486
O10	O	1.478395	0.431784	0.114383
C11	C	1.256450	0.225526	0.000081
C12	C	1.116989	0.221188	0.000071
C13	C	1.492055	-0.052559	0.000097
C14	C	1.487714	-0.216378	0.000091
C15	C	1.038027	0.353403	0.000073
C16	C	0.906990	0.349319	0.000097
C17	C	0.933890	0.080794	0.000112
C18	C	1.064924	0.084879	0.000098
C19	C	1.715457	0.208681	0.000109
C20	C	1.854918	0.213019	0.000109
C21	C	1.479852	0.486766	0.000092
C22	C	1.484193	0.650585	0.000090
N23	N	1.485943	0.217093	0.356215
N24	N	1.485973	0.217102	-0.356022
C25	C	1.570217	0.117702	0.428148
C26	C	1.570229	0.117703	0.572031
C27	C	1.401691	0.316498	0.572035
C28	C	1.401674	0.316489	0.428155
H29	H	0.842704	0.456982	0.000102
H30	H	1.129219	-0.022793	0.000100
O31	O	1.652110	0.021002	0.358477
C32	C	1.726513	-0.066698	0.452828
H33	H	1.675014	-0.068919	0.555398
H34	H	1.820356	-0.017770	0.468112
C35	C	1.813842	-0.222866	0.270712
C36	C	1.750584	-0.225603	0.396687
H37	H	1.828696	-0.320884	0.236081
H38	H	1.763719	-0.163777	0.207145
H39	H	1.892037	-0.182085	0.283466
H40	H	1.672385	-0.266365	0.383929
H41	H	1.800695	-0.284702	0.460252
O42	O	1.651921	0.021010	0.641967
C43	C	1.583646	-0.070734	0.725234
H44	H	1.484568	-0.074315	0.681888
H45	H	1.577597	-0.024627	0.834276
C46	C	1.772765	-0.223996	0.780682
C47	C	1.651079	-0.228405	0.727437
H48	H	1.814362	-0.321253	0.782047
H49	H	1.818765	-0.162184	0.724588
H50	H	1.767707	-0.185567	0.871546
H51	H	1.656139	-0.266815	0.636570
H52	H	1.605082	-0.290227	0.783516
O53	O	0.883518	-0.051736	0.000180
C54	C	0.981316	-0.167557	0.000140
H55	H	1.070781	-0.125288	0.043412
H56	H	0.999383	-0.208397	-0.109523
C57	C	0.833005	-0.347922	0.036633
C58	C	0.942884	-0.296008	0.089791
H59	H	0.809298	-0.427160	0.091928
H60	H	0.767115	-0.269892	0.036655
H61	H	0.848075	-0.381944	-0.054752
H62	H	0.927808	-0.261970	0.181167
H63	H	1.008771	-0.374035	0.089787
O64	O	1.319667	0.412902	0.641863
C65	C	1.195068	0.387573	0.606703
H66	H	1.193116	0.269432	0.567161
H67	H	1.159090	0.468948	0.523187
C68	C	1.112598	0.554671	0.783097
C69	C	1.110199	0.409564	0.734541
H70	H	1.060245	0.568242	0.861951
H71	H	1.196542	0.571741	0.806782
H72	H	1.082619	0.622467	0.713488
H73	H	1.140193	0.341771	0.804143
H74	H	1.026258	0.392483	0.710871
O75	O	1.319684	0.412843	0.358206
C76	C	1.241324	0.332969	0.274973
H77	H	1.237886	0.216589	0.318351
H78	H	1.280536	0.325651	0.165927
C79	C	1.111622	0.555754	0.219482
C80	C	1.107391	0.412818	0.272767
H81	H	1.029007	0.605010	0.218115
H82	H	1.164417	0.609568	0.275553
H83	H	1.144304	0.549635	0.128615
H84	H	1.074724	0.418938	0.363637
H85	H	1.054587	0.359006	0.216710
H86	H	1.080414	0.464395	0.000062
