data_functionalizedCrystal
_audit_creation_method	'MofGen! by Chris Wilmer'
_symmetry_space_group_name_H-M	'P1'
_symmetry_Int_Tables_number	1
_symmetry_cell_setting	triclinic
loop_
_symmetry_equiv_pos_as_xyz
  x,y,z
_cell_length_a	17.038272
_cell_length_b	14.853567
_cell_length_c	13.930277
_cell_angle_alpha	90.000757
_cell_angle_beta	90.001549
_cell_angle_gamma	87.373243
loop_
_atom_site_label
_atom_site_type_symbol
_atom_site_fract_x
_atom_site_fract_y
_atom_site_fract_z
O1	O	-1.037627	-0.195788	-0.079697
O2	O	-0.537627	0.304212	0.420303
O3	O	-0.809992	-0.192679	-0.079726
O4	O	-0.309992	0.307321	0.420274
O5	O	-0.929890	-0.063462	-0.079714
O6	O	-0.429890	0.436538	0.420286
O7	O	-0.917729	-0.325006	-0.079709
O8	O	-0.417729	0.174994	0.420291
O9	O	-0.929873	-0.063457	0.079948
O10	O	-0.429873	0.436543	0.579948
O11	O	-0.809976	-0.192675	0.079936
O12	O	-0.309976	0.307325	0.579936
O13	O	-1.037610	-0.195784	0.079965
O14	O	-0.537610	0.304216	0.579965
Zn15	Zn	-0.923790	-0.194229	0.105300
Zn16	Zn	-0.423790	0.305771	0.605300
Zn17	Zn	-0.923812	-0.194235	-0.105061
Zn18	Zn	-0.423812	0.305765	0.394939
O19	O	-0.917713	-0.325002	0.079953
O20	O	-0.417713	0.174998	0.579953
C21	C	-0.780852	-0.189850	0.000101
C22	C	-0.280852	0.310150	0.500101
C23	C	-0.694048	-0.181414	0.000090
C24	C	-0.194048	0.318586	0.500090
C25	C	-0.929331	-0.029829	0.000114
C26	C	-0.429331	0.470171	0.500114
C27	C	-0.927680	0.070379	0.000106
C28	C	-0.427680	0.570379	0.500106
C29	C	-1.066751	-0.198614	0.000135
C30	C	-0.566751	0.301386	0.500135
C31	C	-1.153555	-0.207050	0.000140
C32	C	-0.653555	0.292950	0.500140
C33	C	-0.644036	-0.258867	0.000092
C34	C	-0.144036	0.241133	0.500092
C35	C	-0.562475	-0.250935	0.000105
C36	C	-0.062475	0.249065	0.500105
C37	C	-0.530928	-0.165549	0.000110
C38	C	-0.030928	0.334451	0.500110
C39	C	-0.580947	-0.088090	0.000110
C40	C	-0.080947	0.411910	0.500110
C41	C	-0.662506	-0.096023	0.000104
C42	C	-0.162506	0.403977	0.500104
C43	C	-0.285133	-0.137524	0.000135
C44	C	0.214867	0.362476	0.500135
C45	C	-0.203567	-0.129597	0.000138
C46	C	0.296433	0.370403	0.500138
C47	C	-0.185101	-0.292443	0.000135
C48	C	0.314899	0.207557	0.500135
C49	C	-0.266663	-0.300368	0.000123
C50	C	0.233337	0.199632	0.500123
C51	C	-0.316674	-0.222909	0.000129
C52	C	0.183326	0.277091	0.500129
C53	C	-0.447559	-0.157439	0.000120
C54	C	0.052441	0.342561	0.500120
C55	C	-0.400041	-0.231019	0.000125
C56	C	0.099959	0.268981	0.500125
C57	C	-0.918272	-0.358634	0.000122
C58	C	-0.418272	0.141366	0.500122
C59	C	-0.919923	-0.458842	0.000125
C60	C	-0.419923	0.041158	0.500125
N61	N	-0.923781	-0.194225	0.248866
N62	N	-0.423781	0.305775	0.748866
C63	C	-0.849478	0.488797	0.000114
C64	C	-0.349478	0.988797	0.500114
C65	C	-0.991919	0.499359	0.000132
C66	C	-0.491919	0.999359	0.500132
C67	C	-0.993472	0.405209	0.000127
C68	C	-0.493472	0.905209	0.500127
C69	C	-0.923026	0.352848	0.000117
C70	C	-0.423026	0.852848	0.500117
C71	C	-0.851028	0.394638	0.000112
C72	C	-0.351028	0.894638	0.500112
C73	C	-1.065468	0.363411	0.000141
C74	C	-0.565468	0.863411	0.500141
C75	C	-1.067024	0.269255	0.000137
C76	C	-0.567024	0.769255	0.500137
C77	C	-0.996578	0.216893	0.000120
C78	C	-0.496578	0.716893	0.500120
C79	C	-0.924577	0.258689	0.000114
C80	C	-0.424577	0.758689	0.500114
C81	C	-0.854131	0.206328	0.000104
C82	C	-0.354131	0.706328	0.500104
C83	C	-0.782129	0.248122	0.000091
C84	C	-0.282129	0.748122	0.500091
C85	C	-0.780582	0.342276	0.000095
C86	C	-0.280582	0.842276	0.500095
C87	C	-0.998125	0.122739	0.000116
C88	C	-0.498125	0.622739	0.500116
C89	C	-0.855682	0.112168	0.000101
C90	C	-0.355682	0.612168	0.500101
N91	N	-0.923828	-0.194232	-0.248627
N92	N	-0.423828	0.305768	0.251373
C93	C	-0.870719	-0.251428	0.701130
C94	C	-0.370719	0.248572	1.201130
C95	C	-0.976927	-0.137036	0.701110
C96	C	-0.476927	0.362964	1.201110
C97	C	-0.976917	-0.137032	0.600615
C98	C	-0.476917	0.362968	1.100615
C99	C	-0.923809	-0.194228	0.550372
C100	C	-0.423809	0.305772	1.050372
C101	C	-0.870710	-0.251428	0.600625
C102	C	-0.370710	0.248572	1.100625
C103	C	-1.030021	-0.079840	0.550354
C104	C	-0.530021	0.420160	1.050354
C105	C	-1.030014	-0.079835	0.449852
C106	C	-0.530014	0.420165	0.949852
C107	C	-0.976901	-0.137027	0.399608
C108	C	-0.476901	0.362973	0.899608
C109	C	-0.923800	-0.194228	0.449867
C110	C	-0.423800	0.305772	0.949867
C111	C	-0.870691	-0.251425	0.399624
C112	C	-0.370691	0.248575	0.899624
C113	C	-0.817585	-0.308622	0.449882
C114	C	-0.317585	0.191378	0.949882
C115	C	-0.817597	-0.308620	0.550381
C116	C	-0.317597	0.191380	1.050381
C117	C	-0.976889	-0.137029	0.299109
C118	C	-0.476889	0.362971	0.799109
C119	C	-0.870682	-0.251425	0.299119
C120	C	-0.370682	0.248575	0.799119
H121	H	-0.669714	-0.328397	0.000088
H122	H	-0.169714	0.171603	0.500088
H123	H	-0.827479	-0.297995	0.742052
H124	H	-0.327479	0.202005	1.242052
N125	N	-0.763350	-0.367060	0.398556
N126	N	-0.263350	0.132940	0.898556
N127	N	-0.788219	-0.424946	0.342477
N128	N	-0.288219	0.075054	0.842477
H129	H	-0.749918	-0.466219	0.306225
H130	H	-0.249918	0.033781	0.806225
N131	N	-1.084241	-0.021405	0.398505
N132	N	-0.584241	0.478595	0.898505
N133	N	-1.084222	-0.021403	0.308774
N134	N	-0.584222	0.478597	0.808774
H135	H	-1.122518	0.019866	0.272508
H136	H	-0.622518	0.519866	0.772508
H137	H	-1.122821	0.406050	0.000158
H138	H	-0.622821	0.906050	0.500158
H139	H	-1.020131	-0.090464	0.258194
H140	H	-0.520131	0.409536	0.758194
H141	H	-0.798315	0.069542	0.000089
H142	H	-0.298315	0.569542	0.500089
H143	H	-0.774361	-0.355189	0.591307
H144	H	-0.274361	0.144811	1.091307
H145	H	-0.724773	0.205477	0.000090
H146	H	-0.224773	0.705477	0.500090
H147	H	-0.521757	-0.314006	0.000106
H148	H	-0.021757	0.185994	0.500106
N149	N	-1.140561	0.226554	0.000133
N150	N	-0.640561	0.726554	0.500133
N151	N	-1.141938	0.142488	0.000123
N152	N	-0.641938	0.642488	0.500123
H153	H	-1.193874	0.112327	0.000118
H154	H	-0.693874	0.612327	0.500118
H155	H	-0.721962	0.376313	0.000086
H156	H	-0.221962	0.876313	0.500086
N157	N	-1.071662	0.080046	0.000152
N158	N	-0.571662	0.580046	0.500152
N159	N	-1.119161	0.094093	0.067470
N160	N	-0.619161	0.594093	0.567470
H161	H	-1.171101	0.063940	0.067498
H162	H	-0.671101	0.563940	0.567498
H163	H	-0.703226	-0.032952	0.000102
H164	H	-0.203226	0.467048	0.500102
H165	H	-0.425730	-0.300540	0.000127
H166	H	0.074270	0.199460	0.500127
H167	H	-1.049272	0.541997	0.000148
H168	H	-0.549272	1.041997	0.500148
H169	H	-1.073264	-0.033277	0.591264
H170	H	-0.573264	0.466723	1.091264
H171	H	-0.790855	0.522830	0.000100
H172	H	-0.290855	1.022830	0.500100
N173	N	-0.548738	-0.000863	0.000106
N174	N	-0.048738	0.499137	0.500106
N175	N	-0.593404	0.068285	0.000103
N176	N	-0.093404	0.568285	0.500103
H177	H	-0.570659	0.129893	0.000097
H178	H	-0.070659	0.629893	0.500097
H179	H	-0.827432	-0.297998	0.258218
H180	H	-0.327432	0.202002	0.758218
N181	N	-0.171331	-0.042378	0.000135
N182	N	0.328669	0.457622	0.500135
N183	N	-0.127881	-0.019787	-0.067167
N184	N	0.372119	0.480213	0.432833
H185	H	-0.105113	0.041808	-0.067173
H186	H	0.394887	0.541808	0.432827
N187	N	-0.134015	-0.371559	0.000159
N188	N	0.365985	0.128441	0.500159
N189	N	-0.136944	-0.426955	0.067467
N190	N	0.363056	0.073045	0.567467
H191	H	-0.100864	-0.482836	0.067489
H192	H	0.399136	0.017164	0.567489
N193	N	-1.031189	-0.078616	0.752404
N194	N	-0.531189	0.421384	1.252404
N195	N	-1.103457	-0.085447	0.741152
N196	N	-0.603457	0.414553	1.241152
H197	H	-1.141785	-0.044184	0.777377
H198	H	-0.641785	0.455816	1.277377
N199	N	-0.298871	-0.387595	0.000106
N200	N	0.201129	0.112405	0.500106
N201	N	-0.254208	-0.456745	0.000102
N202	N	0.245792	0.043255	0.500102
H203	H	-0.276954	-0.518351	0.000084
H204	H	0.223046	-0.018351	0.500084
H205	H	-0.325843	-0.074451	0.000140
H206	H	0.174157	0.425549	0.500140
H207	H	-0.421865	-0.087917	0.000151
H208	H	0.078135	0.412083	0.500151
