data_functionalizedCrystal
_audit_creation_method	'MofGen! by Chris Wilmer'
_symmetry_space_group_name_H-M	'P1'
_symmetry_Int_Tables_number	1
_symmetry_cell_setting	triclinic
loop_
_symmetry_equiv_pos_as_xyz
  x,y,z
_cell_length_a	11.792241
_cell_length_b	17.019294
_cell_length_c	10.868271
_cell_angle_alpha	86.115896
_cell_angle_beta	89.999893
_cell_angle_gamma	83.793186
loop_
_atom_site_label
_atom_site_type_symbol
_atom_site_fract_x
_atom_site_fract_y
_atom_site_fract_z
O1	O	1.505776	0.108120	-0.113657
O2	O	2.005776	0.608120	0.386343
O3	O	1.175318	0.119263	-0.114866
O4	O	1.675318	0.619263	0.385134
O5	O	1.349766	-0.001102	-0.102092
O6	O	1.849766	0.498898	0.397908
O7	O	1.331329	0.228485	-0.126431
O8	O	1.831329	0.728485	0.373569
O9	O	1.349752	-0.001107	0.102554
O10	O	1.849752	0.498893	0.602554
O11	O	1.175304	0.119258	0.089779
O12	O	1.675304	0.619258	0.589779
O13	O	1.505762	0.108115	0.090989
O14	O	2.005762	0.608115	0.590989
Zn15	Zn	1.340531	0.113686	0.122876
Zn16	Zn	1.840531	0.613686	0.622876
Zn17	Zn	1.340549	0.113692	-0.146753
Zn18	Zn	1.840549	0.613692	0.353247
O19	O	1.331314	0.228480	0.078214
O20	O	1.831314	0.728480	0.578214
C21	C	1.133028	0.118561	-0.012473
C22	C	1.633028	0.618561	0.487527
C23	C	1.007036	0.116466	-0.012261
C24	C	1.507036	0.616466	0.487739
C25	C	1.349059	-0.030497	0.003344
C26	C	1.849059	0.469503	0.503344
C27	C	1.346962	-0.118076	0.012620
C28	C	1.846962	0.381924	0.512620
C29	C	0.776364	0.112613	-0.011818
C30	C	1.276364	0.612613	0.488182
C31	C	0.904727	0.114754	-0.012064
C32	C	1.404727	0.614754	0.487936
C33	C	1.345987	-0.159214	-0.094573
C34	C	1.845987	0.340786	0.405427
C35	C	1.344009	-0.241504	-0.085854
C36	C	1.844009	0.258496	0.414146
C37	C	1.343015	-0.282654	0.030060
C38	C	1.843015	0.217346	0.530060
C39	C	1.343986	-0.241510	0.137262
C40	C	1.843986	0.258490	0.637262
C41	C	1.345956	-0.159222	0.128541
C42	C	1.845956	0.340778	0.628541
C43	C	1.337059	-0.531113	0.061972
C44	C	1.837059	-0.031113	0.561972
C45	C	1.335093	-0.613408	0.070685
C46	C	1.835093	-0.113408	0.570685
C47	C	1.335114	-0.613395	-0.152431
C48	C	1.835114	-0.113395	0.347569
C49	C	1.337091	-0.531105	-0.161142
C50	C	1.837091	-0.031105	0.338858
C51	C	1.338056	-0.489968	-0.053941
C52	C	1.838056	0.010032	0.446059
C53	C	1.340996	-0.366768	0.038976
C54	C	1.840996	0.133232	0.538976
C55	C	1.340066	-0.405855	-0.062857
C56	C	1.840066	0.094145	0.437143
C57	C	1.548053	0.108818	-0.011407
C58	C	2.048053	0.608818	0.488593
C59	C	1.674044	0.110913	-0.011627
C60	C	2.174044	0.610913	0.488373
C61	C	1.332021	0.257875	-0.027224
C62	C	1.832021	0.757875	0.472776
C63	C	1.334118	0.345454	-0.036508
C64	C	1.834118	0.845454	0.463492
N65	N	1.340526	0.113681	0.306890
N66	N	1.840526	0.613681	0.806890
N67	N	1.340563	0.113691	-0.330767
N68	N	1.840563	0.613691	0.169233
C69	C	1.340544	0.113691	0.557895
C70	C	1.840544	0.613691	1.057895
C71	C	1.340530	0.113688	0.418218
C72	C	1.840530	0.613688	0.918218
H73	H	1.346803	-0.125715	-0.188963
H74	H	1.846803	0.374285	0.311037
H75	H	1.343220	-0.274995	-0.173142
H76	H	1.843220	0.225005	0.326858
H77	H	1.334277	-0.646910	0.165081
H78	H	1.834277	-0.146910	0.665081
H79	H	1.337902	-0.497606	-0.255531
H80	H	1.837902	0.002394	0.244469
H81	H	1.346734	-0.125727	0.215829
H82	H	1.846734	0.374273	0.715829
H83	H	1.334326	-0.646898	-0.239708
H84	H	1.834326	-0.146898	0.260292
H85	H	1.340868	-0.372346	-0.157234
H86	H	1.840868	0.127654	0.342766
H87	H	1.340190	-0.400282	0.133354
H88	H	1.840190	0.099718	0.633354
H89	H	1.337868	-0.497631	0.149264
H90	H	1.837868	0.002369	0.649264
H91	H	1.343169	-0.275021	0.231642
H92	H	1.843169	0.224979	0.731642
