data_functionalizedCrystal
_audit_creation_method	'MofGen! by Chris Wilmer'
_symmetry_space_group_name_H-M	'P1'
_symmetry_Int_Tables_number	1
_symmetry_cell_setting	triclinic
loop_
_symmetry_equiv_pos_as_xyz
  x,y,z
_cell_length_a	12.811445
_cell_length_b	13.262415
_cell_length_c	11.295663
_cell_angle_alpha	109.983430
_cell_angle_beta	91.297871
_cell_angle_gamma	82.751722
loop_
_atom_site_label
_atom_site_type_symbol
_atom_site_fract_x
_atom_site_fract_y
_atom_site_fract_z
O1	O	1.371984	0.162704	0.299860
O2	O	1.068489	0.176049	0.271413
O3	O	1.231429	0.013109	0.236231
O4	O	1.209044	0.325645	0.335042
O5	O	1.245711	-0.001180	0.035100
O6	O	1.082771	0.161761	0.070282
O7	O	1.386265	0.148416	0.098729
Cu8	Cu	1.235822	0.153784	0.066141
Cu9	Cu	1.218933	0.170681	0.304002
O10	O	1.223325	0.311357	0.133911
C11	C	1.036847	0.167718	0.166276
C12	C	0.921286	0.164168	0.152649
C13	C	0.688559	0.173096	0.346343
C14	C	0.579979	0.169762	0.333545
C15	C	0.595543	0.154172	0.114256
C16	C	0.704123	0.157507	0.127055
C17	C	0.750627	0.166967	0.243102
C18	C	0.859211	0.170294	0.255897
C19	C	0.874771	0.154712	0.036612
C20	C	0.766191	0.151378	0.023813
C21	C	1.238628	-0.034064	0.122710
C22	C	1.238789	-0.153335	0.084103
C23	C	1.208108	-0.458375	0.413831
C24	C	1.207965	-0.346314	0.450111
C25	C	1.215670	-0.298064	0.358612
C26	C	1.223520	-0.361886	0.230828
C27	C	1.223671	-0.473959	0.194545
C28	C	1.231234	-0.313648	0.139326
C29	C	1.239084	-0.377470	0.011541
C30	C	1.239234	-0.489532	-0.024735
C31	C	1.231529	-0.537782	0.066763
C32	C	1.231082	-0.201575	0.175608
C33	C	1.246646	-0.217158	-0.043678
C34	C	1.246789	-0.329220	-0.079958
C35	C	1.417907	0.156747	0.203870
C36	C	1.533467	0.160298	0.217505
C37	C	1.216126	0.358529	0.247436
C38	C	1.215965	0.477802	0.286050
N39	N	1.247708	0.141899	-0.101157
C40	C	1.333382	0.056291	-0.306620
C41	C	1.324377	0.065281	-0.180020
C42	C	1.180043	0.209533	-0.148900
C43	C	1.189049	0.200543	-0.275499
C44	C	1.265720	0.123918	-0.354356
C45	C	1.274720	0.114924	-0.480960
C46	C	1.130392	0.259181	-0.449835
C47	C	1.121386	0.268171	-0.323235
N48	N	1.207054	0.182558	0.471298
H49	H	1.224691	-0.149621	0.279651
H50	H	0.726424	0.180795	0.440832
H51	H	1.395804	-0.006107	-0.370829
H52	H	1.252923	-0.177874	-0.118184
H53	H	1.379475	0.010213	-0.141158
Cl54	Cl	1.215486	-0.157184	0.404224
Cl55	Cl	1.256655	-0.409465	-0.240597
H56	H	1.337146	0.052529	-0.545166
H57	H	0.897072	0.177997	0.350388
Cl58	Cl	1.198098	-0.266089	0.610747
Cl59	Cl	0.952809	0.146989	-0.093191
Cl60	Cl	1.198444	-0.519041	0.528843
H61	H	1.117626	0.271927	-0.084675
Cl62	Cl	1.025007	0.364497	-0.224093
Cl63	Cl	1.231696	-0.678663	0.021158
H64	H	1.075294	0.314245	-0.488716
H65	H	0.529447	0.174755	0.417616
Cl66	Cl	0.537059	0.142298	-0.031612
H67	H	0.728312	0.143678	-0.070668
Cl68	Cl	1.249117	-0.569765	-0.185378
