data_functionalizedCrystal
_audit_creation_method	'MofGen! by Chris Wilmer'
_symmetry_space_group_name_H-M	'P1'
_symmetry_Int_Tables_number	1
_symmetry_cell_setting	triclinic
loop_
_symmetry_equiv_pos_as_xyz
  x,y,z
_cell_length_a	17.699083
_cell_length_b	10.654550
_cell_length_c	9.130313
_cell_angle_alpha	90.000110
_cell_angle_beta	90.001448
_cell_angle_gamma	96.116041
loop_
_atom_site_label
_atom_site_type_symbol
_atom_site_fract_x
_atom_site_fract_y
_atom_site_fract_z
O1	O	1.005081	-0.158800	-0.121738
O2	O	0.784834	-0.179462	-0.121753
O3	O	0.900021	0.013697	-0.121740
O4	O	0.889894	-0.351959	-0.121751
O5	O	0.900020	0.013692	0.121859
O6	O	0.784833	-0.179467	0.121846
O7	O	1.005080	-0.158805	0.121861
Cu8	Cu	0.894956	-0.169137	0.144096
Cu9	Cu	0.894958	-0.169130	-0.143988
O10	O	0.889892	-0.351964	0.121847
C11	C	0.756632	-0.178724	0.000044
C12	C	0.672599	-0.176503	0.000038
C13	C	1.033282	-0.159543	0.000060
C14	C	1.117314	-0.161764	0.000056
C15	C	0.899277	0.060479	0.000058
C16	C	0.897052	0.199884	0.000052
C17	C	1.165214	-0.048384	0.000055
C18	C	1.244171	-0.050479	0.000059
C19	C	1.275226	-0.165954	0.000055
C20	C	1.227320	-0.279343	0.000061
C21	C	1.148365	-0.277247	0.000067
C22	C	1.545736	-0.287797	0.000040
C23	C	1.624698	-0.289884	0.000030
C24	C	1.641543	-0.061028	0.000032
C25	C	1.562588	-0.058933	0.000038
C26	C	1.514688	-0.172321	0.000052
C27	C	1.429075	-0.170048	0.000049
C28	C	1.360838	-0.168228	0.000047
C29	C	0.890637	-0.398746	0.000047
C30	C	0.892861	-0.538151	0.000042
N31	N	0.894960	-0.169140	0.346718
C32	C	0.964873	0.280557	0.000061
C33	C	0.962778	0.411541	0.000051
C34	C	0.825036	0.381166	0.000029
C35	C	0.827132	0.250185	0.000029
C36	C	1.044397	0.298094	0.000081
C37	C	1.042302	0.429078	0.000070
N38	N	0.894959	-0.169117	-0.346611
C39	C	0.945979	-0.083638	0.423376
C40	C	0.945976	-0.083623	0.576713
C41	C	0.843936	-0.254623	0.576721
C42	C	0.843935	-0.254631	0.423387
C43	C	1.004893	0.015084	0.423373
C44	C	1.004891	0.015099	0.576710
H45	H	1.283169	0.041847	0.000064
O46	O	0.794477	-0.337738	0.348764
C47	C	0.835406	-0.415167	0.260109
H48	H	0.894368	-0.365036	0.237129
H49	H	0.803918	-0.435109	0.152288
H50	H	0.841030	-0.507965	0.319218
O51	O	1.532547	0.053350	0.000108
C52	C	1.591757	0.152977	0.000073
H53	H	1.645572	0.117937	0.046183
H54	H	1.574839	0.233609	0.070805
H55	H	1.602740	0.187945	-0.116792
H56	H	1.069720	0.262908	0.105264
O57	O	1.074334	-0.009198	0.626205
C58	C	1.130173	0.084660	0.574632
H59	H	1.108450	0.130154	0.472058
H60	H	1.184214	0.040073	0.547304
H61	H	1.143008	0.159648	0.662828
O62	O	1.499140	-0.397858	-0.000164
C63	C	1.452976	-0.403506	-0.126344
H64	H	1.448453	-0.303838	-0.168390
H65	H	1.393892	-0.450481	-0.097974
H66	H	1.479251	-0.460766	-0.214697
H67	H	1.252611	-0.373365	0.000067
H68	H	0.991971	0.111390	0.381755
H69	H	0.802391	-0.324226	0.639160
O70	O	1.070442	-0.020448	0.366824
C71	C	1.080136	-0.143532	0.414657
H72	H	1.046616	-0.164730	0.520002
H73	H	1.142974	-0.150920	0.435964
H74	H	1.058658	-0.214475	0.326688
H75	H	0.986503	0.105999	0.624258
H76	H	1.139936	0.045650	0.000049
O77	O	1.654899	-0.402035	-0.000231
C78	C	1.700072	-0.410080	-0.126385
H79	H	1.681051	-0.344515	-0.214560
H80	H	1.693515	-0.511312	-0.168732
H81	H	1.762176	-0.380922	-0.097875
H82	H	1.075503	0.269283	-0.101856
H83	H	1.072265	0.471361	0.102016
O84	O	1.688183	0.049005	0.000098
C85	C	1.764531	0.022404	0.000061
H86	H	1.768078	-0.076223	0.046183
H87	H	1.799918	0.094693	0.070781
H88	H	1.787333	0.027231	-0.116806
H89	H	1.109364	-0.369573	0.000073
H90	H	0.771905	0.184504	0.000001
O91	O	0.757072	0.429882	0.000206
C92	C	0.715690	0.388668	0.126380
H93	H	0.736793	0.297888	0.168453
H94	H	0.652759	0.370290	0.097994
H95	H	0.724053	0.464496	0.214720
O96	O	1.070903	0.483878	-0.125542
C97	C	1.027997	0.433440	-0.245991
H98	H	0.998407	0.336603	-0.215815
H99	H	1.067295	0.423864	-0.343356
H100	H	0.983594	0.499066	-0.276203
