data_functionalizedCrystal
_audit_creation_method	'MofGen! by Chris Wilmer'
_symmetry_space_group_name_H-M	'P1'
_symmetry_Int_Tables_number	1
_symmetry_cell_setting	triclinic
loop_
_symmetry_equiv_pos_as_xyz
  x,y,z
_cell_length_a	16.120530
_cell_length_b	21.295417
_cell_length_c	16.120297
_cell_angle_alpha	92.867002
_cell_angle_beta	90.128140
_cell_angle_gamma	87.125778
loop_
_atom_site_label
_atom_site_type_symbol
_atom_site_fract_x
_atom_site_fract_y
_atom_site_fract_z
Zn1	Zn	1.247391	-0.318915	-0.534523
Zn2	Zn	1.254326	-0.419125	-0.395453
Zn3	Zn	1.115383	-0.308278	-0.388443
Zn4	Zn	1.108282	-0.418545	-0.527422
O5	O	1.181345	-0.366216	-0.461460
O6	O	1.364676	-0.336903	-0.521981
O7	O	1.241769	-0.400212	-0.278158
O8	O	1.132963	-0.221604	-0.407859
O9	O	1.369771	-0.410526	-0.419806
O10	O	1.229949	-0.229419	-0.515184
O11	O	1.139688	-0.318773	-0.273008
O12	O	0.998075	-0.318211	-0.400973
O13	O	1.120862	-0.409538	-0.644729
O14	O	0.992859	-0.399224	-0.503081
O15	O	1.223064	-0.336340	-0.649946
O16	O	1.234884	-0.507133	-0.412921
O17	O	1.127586	-0.506707	-0.509878
C18	C	0.965295	-0.357501	-0.450496
C19	C	0.872866	-0.353788	-0.445825
C20	C	0.703638	-0.346996	-0.437305
C21	C	0.659891	-0.385485	-0.485677
C22	C	0.565726	-0.381705	-0.480936
C23	C	0.797811	-0.350774	-0.442045
C24	C	1.181239	-0.529761	-0.461409
C25	C	1.181268	-0.599731	-0.461418
C26	C	1.237182	-0.632802	-0.410990
C27	C	1.237220	-0.698547	-0.411010
C28	C	1.181329	-0.731217	-0.461450
C29	C	1.125411	-0.698138	-0.511889
C30	C	1.125380	-0.632395	-0.511873
N31	N	1.108264	-0.831783	-0.464098
N32	N	1.108296	-0.894236	-0.464108
C33	C	1.181420	-0.929297	-0.461503
N34	N	1.254514	-0.899546	-0.458870
N35	N	1.254481	-0.837087	-0.458855
C36	C	1.181357	-0.802504	-0.461473
C37	C	1.237380	-1.033657	-0.411094
C38	C	1.237419	-1.099403	-0.411120
C39	C	1.125603	-1.098992	-0.511994
C40	C	1.125571	-1.033248	-0.511973
C41	C	1.181459	-1.000584	-0.461518
C42	C	1.398240	-0.374966	-0.472468
C43	C	1.490667	-0.378694	-0.477159
C44	C	1.170397	-0.374061	-0.678353
C45	C	1.165731	-0.377404	-0.770780
C46	C	1.181474	-0.202033	-0.461531
C47	C	1.181529	-0.132068	-0.461562
C48	C	1.157183	-0.383493	-0.940004
C49	C	1.205672	-0.348757	-0.983777
C50	C	1.200915	-0.352144	-1.077938
C51	C	1.161938	-0.380106	-0.845834
C52	C	1.192299	-0.358358	-0.245413
C53	C	1.197126	-0.354844	-0.152995
H54	H	1.282755	-0.725479	-0.369945
O55	O	1.071201	-0.729850	-0.561009
C56	C	1.085104	-0.717462	-0.644815
H57	H	1.151309	-0.702173	-0.652433
H58	H	1.075855	-0.761884	-0.685536
H59	H	1.039392	-0.678312	-0.664246
H60	H	1.112102	-0.415774	-0.973246
O61	O	1.259485	-0.310193	-0.944255
C62	C	1.303656	-0.278575	-1.003500
H63	H	1.266529	-0.277200	-1.063708
H64	H	1.313822	-0.228452	-0.978786
H65	H	1.366332	-0.304505	-1.015912
O66	O	0.699703	-0.428167	-0.539256
C67	C	0.786221	-0.422481	-0.532131
H68	H	0.801212	-0.399929	-0.468590
H69	H	0.818997	-0.471140	-0.539283
H70	H	0.808415	-0.391778	-0.582758
O71	O	1.071425	-1.130794	-0.561042
C72	C	1.116032	-1.172607	-0.617214
H73	H	1.180556	-1.183904	-0.591137
H74	H	1.081614	-1.217894	-0.626628
H75	H	1.121998	-1.149834	-0.679297
H76	H	1.080037	-1.006319	-0.553033
O77	O	1.291594	-1.001824	-0.362115
C78	C	1.279588	-0.936705	-0.372925
H79	H	1.214014	-0.926158	-0.396843
H80	H	1.288413	-0.909715	-0.310925
H81	H	1.326626	-0.921586	-0.419746
H82	H	0.670373	-0.311209	-0.392335
O83	O	1.291769	-1.131432	-0.362055
C84	C	1.341100	-1.088501	-0.317537
H85	H	1.307164	-1.040185	-0.312890
H86	H	1.353334	-1.105505	-0.252484
H87	H	1.402690	-1.085099	-0.351236
O88	O	1.291509	-0.601009	-0.362104
C89	C	1.342784	-0.566818	-0.412207
H90	H	1.310222	-0.558063	-0.473708
H91	H	1.355643	-0.519816	-0.378902
H92	H	1.403949	-0.594925	-0.424524
H93	H	1.079847	-0.605468	-0.552939
