data_functionalizedCrystal
_audit_creation_method	'MofGen! by Chris Wilmer'
_symmetry_space_group_name_H-M	'P1'
_symmetry_Int_Tables_number	1
_symmetry_cell_setting	triclinic
loop_
_symmetry_equiv_pos_as_xyz
  x,y,z
_cell_length_a	15.297510
_cell_length_b	21.295420
_cell_length_c	15.296720
_cell_angle_alpha	99.661426
_cell_angle_beta	72.679116
_cell_angle_gamma	80.292968
loop_
_atom_site_label
_atom_site_type_symbol
_atom_site_fract_x
_atom_site_fract_y
_atom_site_fract_z
Zn1	Zn	0.461266	0.835350	-0.589863
Zn2	Zn	0.961266	1.335350	-0.089863
Zn3	Zn	0.589889	0.835275	-0.461262
Zn4	Zn	1.089889	1.335275	0.038738
Zn5	Zn	0.434390	0.752118	-0.434378
Zn6	Zn	0.934390	1.252118	0.065622
Zn7	Zn	0.616725	0.708030	-0.616706
Zn8	Zn	1.116725	1.208030	-0.116706
O9	O	0.525568	0.782693	-0.525552
O10	O	1.025568	1.282693	-0.025552
O11	O	0.478345	0.923426	-0.572821
O12	O	0.978345	1.423426	-0.072821
O13	O	0.546782	0.842663	-0.327571
O14	O	1.046782	1.342663	0.172429
O15	O	0.307818	0.781641	-0.432519
O16	O	0.807818	1.281641	0.067481
O17	O	0.572843	0.923370	-0.478338
O18	O	1.072843	1.423370	0.021662
O19	O	0.327564	0.842792	-0.546752
O20	O	0.827564	1.342792	-0.046752
O21	O	0.432538	0.781568	-0.307820
O22	O	0.932538	1.281568	0.192180
O23	O	0.458561	0.658184	-0.458547
O24	O	0.958561	1.158184	0.041453
O25	O	0.618582	0.706500	-0.743270
O26	O	1.118582	1.206500	-0.243270
O27	O	0.592522	0.625793	-0.592503
O28	O	1.092522	1.125793	-0.092503
O29	O	0.504367	0.800042	-0.723548
O30	O	1.004367	1.300042	-0.223548
O31	O	0.723585	0.799913	-0.504367
O32	O	1.223585	1.299913	-0.004367
O33	O	0.743302	0.706427	-0.618571
O34	O	1.243302	1.206427	-0.118571
C35	C	0.525538	0.619149	-0.525521
C36	C	1.025538	1.119149	-0.025521
C37	C	0.525551	0.549178	-0.525534
C38	C	1.025551	1.049178	-0.025534
C39	C	0.767190	0.748392	-0.567319
C40	C	1.267190	1.248392	-0.067319
C41	C	0.870563	0.733771	-0.585218
C42	C	1.370563	1.233771	-0.085218
C43	C	0.595420	0.032859	-0.595264
C44	C	1.095420	0.532859	-0.095264
C45	C	0.595419	0.098603	-0.595254
C46	C	1.095419	0.598603	-0.095254
C47	C	0.525594	0.148327	-0.525585
C48	C	1.025594	0.648327	-0.025585
C49	C	0.455778	0.132303	-0.455906
C50	C	0.955778	0.632303	0.044094
C51	C	0.455787	0.066560	-0.455913
C52	C	0.955787	0.566560	0.044087
N53	N	0.442955	0.264093	-0.504501
N54	N	0.942955	0.764093	-0.004501
N55	N	0.442950	0.326545	-0.504501
N56	N	0.942950	0.826545	-0.004501
C57	C	0.525564	0.346408	-0.525561
C58	C	1.025564	0.846408	-0.025561
N59	N	0.608188	0.301457	-0.546639
N60	N	1.108188	0.801457	-0.046639
N61	N	0.608193	0.238999	-0.546644
N62	N	1.108193	0.738999	-0.046644
C63	C	0.525577	0.219616	-0.525570
C64	C	1.025577	0.719616	-0.025570
C65	C	0.595377	0.433712	-0.595221
C66	C	1.095377	0.933712	-0.095221
C67	C	0.595376	0.499458	-0.595205
C68	C	1.095376	0.999458	-0.095205
C69	C	0.455728	0.533158	-0.455860
C70	C	0.955728	1.033158	0.044140
C71	C	0.455737	0.467413	-0.455873
C72	C	0.955737	0.967413	0.044127
C73	C	0.525561	0.417693	-0.525558
C74	C	1.025561	0.917693	-0.025558
C75	C	1.120794	0.887367	-0.397995
C76	C	1.620794	1.387367	0.102005
C77	C	1.023669	0.901104	-0.381173
C78	C	1.523669	1.401104	0.118827
C79	C	0.985388	0.859273	-0.432183
C80	C	1.485388	1.359273	0.067817
C81	C	1.044241	0.803700	-0.500017
C82	C	1.544241	1.303700	-0.000017
C83	C	1.141374	0.789959	-0.516836
C84	C	1.641374	1.289959	-0.016836
C85	C	1.005968	0.761865	-0.551024
C86	C	1.505968	1.261865	-0.051024
C87	C	1.064821	0.706292	-0.618859
C88	C	1.564821	1.206292	-0.118859
C89	C	1.161944	0.692554	-0.635675
C90	C	1.661944	1.192554	-0.135675
C91	C	1.200226	0.734385	-0.584664
C92	C	1.700226	1.234385	-0.084664
C93	C	0.908835	0.775606	-0.534206
C94	C	1.408835	1.275606	-0.034206
C95	C	0.929415	0.678198	-0.653047
C96	C	1.429415	1.178198	-0.153047
C97	C	1.026539	0.664461	-0.669869
C98	C	1.526539	1.164461	-0.169869
C99	C	1.283006	0.817135	-0.483652
C100	C	1.783006	1.317135	0.016348
C101	C	1.179646	0.831794	-0.465823
C102	C	1.679646	1.331794	0.034177
C103	C	0.567466	0.748362	-0.768092
C104	C	1.067466	1.248362	-0.268092
C105	C	0.585321	0.733732	-0.871448
C106	C	1.085321	1.233732	-0.371448
C107	C	0.525598	0.946876	-0.525584
C108	C	1.025598	1.446876	-0.025584
C109	C	0.525611	1.016841	-0.525598
C110	C	1.025611	1.516841	-0.025598
C111	C	0.397794	0.887304	-1.121721
C112	C	0.897794	1.387304	-0.621721
C113	C	0.381021	0.901053	-1.024614
C114	C	0.881021	1.401053	-0.524614
C115	C	0.432094	0.859224	-0.986317
C116	C	0.932094	1.359224	-0.486317
C117	C	0.499944	0.803643	-1.045139
C118	C	0.999944	1.303643	-0.545139
C119	C	0.516725	0.789895	-1.142257
C120	C	1.016725	1.289895	-0.642257
C121	C	0.551025	0.761815	-1.006853
C122	C	1.051025	1.261815	-0.506853
C123	C	0.618875	0.706234	-1.065674
C124	C	1.118875	1.206234	-0.565674
C125	C	0.635652	0.692488	-1.162783
C126	C	1.135652	1.192488	-0.662783
C127	C	0.584579	0.734318	-1.201079
C128	C	1.084579	1.234318	-0.701079
C129	C	0.534244	0.775563	-0.909735
C130	C	1.034244	1.275563	-0.409735
C131	C	0.653175	0.678154	-0.930270
C132	C	1.153175	1.178154	-0.430270
C133	C	0.669949	0.664405	-1.027378
C134	C	1.169949	1.164405	-0.527378
C135	C	0.483765	0.816937	-0.283944
C136	C	0.983765	1.316937	0.216056
C137	C	0.465648	0.831727	-0.180543
C138	C	0.965648	1.331727	0.319457
H139	H	0.652280	-0.007620	-0.652004
H140	H	1.152280	0.492380	-0.152004
H141	H	0.478999	0.820817	-0.861851
H142	H	0.978999	1.320817	-0.361851
C143	C	0.878550	0.874395	-0.413693
C144	C	1.378550	1.374395	0.086307
N145	N	0.798077	0.885792	-0.399771
N146	N	1.298077	1.385792	0.100229
H147	H	0.975755	0.946350	-0.325941
H148	H	1.475755	1.446350	0.174059
H149	H	0.860925	0.820853	-0.478974
H150	H	1.360925	1.320853	0.021026
C151	C	1.162909	0.933370	-0.341882
C152	C	1.662909	1.433370	0.158118
N153	N	1.194631	0.968021	-0.299612
N154	N	1.694631	1.468021	0.200388
C155	C	0.710294	0.631350	-1.227485
C156	C	1.210294	1.131350	-0.727485
N157	N	0.766513	0.585299	-1.276217
N158	N	1.266513	1.085299	-0.776217
H159	H	1.209859	0.647297	-0.690899
H160	H	1.709859	1.147297	-0.190899
C161	C	0.887310	0.632181	-0.709164
C162	C	1.387310	1.132181	-0.209164
N163	N	0.855591	0.597523	-0.751427
N164	N	1.355591	1.097523	-0.251427
C165	C	0.744581	0.603266	-1.092093
C166	C	1.244581	1.103266	-0.592093
N167	N	0.800793	0.557216	-1.140838
N168	N	1.300793	1.057216	-0.640838
C169	C	0.378965	0.187002	-0.379275
C170	C	0.878965	0.687002	0.120725
N171	N	0.321107	0.228201	-0.321553
N172	N	0.821107	0.728201	0.178447
C173	C	0.413632	0.874347	-0.879494
C174	C	0.913632	1.374347	-0.379494
N175	N	0.399719	0.885737	-0.799029
N176	N	0.899719	1.385737	-0.299029
C177	C	0.306379	0.962186	-0.959916
C178	C	0.806379	1.462186	-0.459916
N179	N	0.250151	1.008233	-0.911184
N180	N	0.750151	1.508233	-0.411184
H181	H	0.398937	0.053521	-0.399181
H182	H	0.898937	0.553521	0.100819
C183	C	0.378921	0.587851	-0.379221
C184	C	0.878921	1.087851	0.120779
N185	N	0.321069	0.629050	-0.321492
N186	N	0.821069	1.129050	0.178508
C187	C	0.378930	0.449793	-0.379243
C188	C	0.878930	0.949793	0.120757
N189	N	0.321075	0.436523	-0.321522
N190	N	0.821075	0.936523	0.178478
C191	C	0.672212	0.116228	-0.671901
C192	C	1.172212	0.616228	-0.171901
N193	N	0.730051	0.129501	-0.729634
N194	N	1.230051	0.629501	-0.229634
H195	H	0.356223	0.921358	-1.152913
H196	H	0.856223	1.421358	-0.652913
H197	H	1.279312	0.723205	-0.598359
H198	H	1.779312	1.223205	-0.098359
C199	C	0.672190	0.379019	-0.671869
C200	C	1.172190	0.879019	-0.171869
N201	N	0.730047	0.337825	-0.729601
N202	N	1.230047	0.837825	-0.229601
C203	C	1.091288	0.603329	-0.744478
C204	C	1.591288	1.103329	-0.244478
N205	N	1.140058	0.557283	-0.800672
N206	N	1.640058	1.057283	-0.300672
C207	C	0.603040	0.719203	-1.307906
C208	C	1.103040	1.219203	-0.807906
N209	N	0.616948	0.707823	-1.388370
N210	N	1.116948	1.207823	-0.888370
H211	H	0.652230	0.512496	-0.651934
H212	H	1.152230	1.012496	-0.151934
C213	C	0.709358	0.632138	-0.888149
C214	C	1.209358	1.132138	-0.388149
N215	N	0.751671	0.597481	-0.856416
N216	N	1.251671	1.097481	-0.356416
