data_functionalizedCrystal
_audit_creation_method	'MofGen! by Chris Wilmer'
_symmetry_space_group_name_H-M	'P1'
_symmetry_Int_Tables_number	1
_symmetry_cell_setting	triclinic
loop_
_symmetry_equiv_pos_as_xyz
  x,y,z
_cell_length_a	14.044220
_cell_length_b	14.044220
_cell_length_c	16.053802
_cell_angle_alpha	92.799619
_cell_angle_beta	87.189254
_cell_angle_gamma	93.188878
loop_
_atom_site_label
_atom_site_type_symbol
_atom_site_fract_x
_atom_site_fract_y
_atom_site_fract_z
O1	O	1.280851	0.226493	-0.069343
O2	O	1.004181	0.218186	-0.069364
O3	O	1.138363	0.084004	-0.069346
O4	O	1.146669	0.360675	-0.069362
O5	O	1.130974	0.091357	0.069512
O6	O	0.996792	0.225539	0.069493
O7	O	1.273463	0.233845	0.069514
Zn8	Zn	1.133954	0.230859	0.091551
Zn9	Zn	1.143689	0.221172	-0.091401
O10	O	1.139281	0.368027	0.069496
C11	C	1.131033	0.052059	0.000083
C12	C	1.120188	-0.054084	0.000083
C13	C	0.964865	0.218227	0.000062
C14	C	0.858723	0.207382	0.000054
C15	C	1.100363	-0.248422	0.000070
C16	C	1.177277	-0.299552	0.000073
C17	C	1.166246	-0.407689	0.000065
C18	C	1.111392	-0.140276	0.000077
C19	C	0.664384	0.187556	0.000072
C20	C	0.613254	0.264471	0.000071
C21	C	0.505117	0.253440	0.000081
C22	C	0.772530	0.198586	0.000062
C23	C	1.312779	0.233805	0.000086
C24	C	1.418921	0.244650	0.000089
C25	C	1.146611	0.399973	0.000065
C26	C	1.157456	0.506115	0.000059
N27	N	1.127318	0.237471	0.216410
N28	N	1.150333	0.214554	-0.216260
C29	C	1.184437	0.180400	0.260112
C30	C	1.179804	0.185035	0.347518
C31	C	1.118056	0.246745	0.391221
C32	C	1.060931	0.303818	0.347513
C33	C	1.065559	0.299178	0.260108
C34	C	1.097836	0.266987	0.652628
C35	C	1.093214	0.271625	0.740038
C36	C	1.212086	0.152839	0.740037
C37	C	1.216713	0.148209	0.652631
C38	C	1.159584	0.205278	0.608931
N39	N	1.113321	0.251486	0.480564
N40	N	1.164315	0.200532	0.519589
H41	H	1.251413	-0.262116	0.000023
O42	O	0.619765	0.099107	0.000220
C43	C	0.642703	0.053010	0.072121
H44	H	0.665181	0.108754	0.122389
H45	H	0.577593	0.008669	0.096260
H46	H	0.703882	0.004332	0.055856
O47	O	1.000808	0.363652	0.389928
C48	C	0.906123	0.338963	0.368570
H49	H	0.900473	0.261212	0.344554
H50	H	0.856094	0.348913	0.426057
H51	H	0.885235	0.386800	0.317833
H52	H	1.234723	0.130153	0.224535
H53	H	1.226314	0.138563	0.383100
O54	O	1.010180	0.354760	0.217691
C55	C	1.032537	0.451724	0.239045
H56	H	1.107741	0.459976	0.263062
H57	H	1.028646	0.495650	0.181557
H58	H	0.979303	0.477954	0.289782
O59	O	0.658066	0.352840	0.000003
C60	C	0.757624	0.344328	0.000006
H61	H	0.775977	0.270366	-0.026258
H62	H	0.795176	0.400927	-0.040338
H63	H	0.782226	0.354810	0.066615
O64	O	1.042452	0.322573	0.610227
C65	C	1.064818	0.419532	0.631591
H66	H	1.140026	0.427774	0.655600
H67	H	1.060923	0.463468	0.574109
H68	H	1.011593	0.445758	0.682336
O69	O	1.011994	-0.293228	0.000103
C70	C	1.020517	-0.392787	0.000079
H71	H	1.091684	-0.408357	0.026365
H72	H	0.959627	-0.426083	0.040394
H73	H	1.017130	-0.424426	-0.066539
O74	O	1.276713	0.088177	0.610310
C75	C	1.326154	0.038815	0.667626
H76	H	1.283623	0.037709	0.729937
H77	H	1.335614	-0.037529	0.642381
H78	H	1.399203	0.076346	0.676908
O79	O	1.267476	0.097435	0.782618
C80	C	1.250171	0.114776	0.869134
H81	H	1.176653	0.144633	0.881078
H82	H	1.252922	0.045142	0.902361
H83	H	1.306944	0.168574	0.893924
H84	H	1.042929	0.321880	0.775617
