data_functionalizedCrystal
_audit_creation_method	'MofGen! by Chris Wilmer'
_symmetry_space_group_name_H-M	'P1'
_symmetry_Int_Tables_number	1
_symmetry_cell_setting	triclinic
loop_
_symmetry_equiv_pos_as_xyz
  x,y,z
_cell_length_a	13.897449
_cell_length_b	29.839131
_cell_length_c	13.897441
_cell_angle_alpha	89.965828
_cell_angle_beta	89.981404
_cell_angle_gamma	90.042700
loop_
_atom_site_label
_atom_site_type_symbol
_atom_site_fract_x
_atom_site_fract_y
_atom_site_fract_z
Zn1	Zn	1.474523	-0.178828	-0.545351
Zn2	Zn	1.474356	-0.253962	-0.384039
Zn3	Zn	1.313218	-0.178848	-0.384069
Zn4	Zn	1.313127	-0.253933	-0.545292
O5	O	1.393806	-0.216393	-0.464688
O6	O	1.609483	-0.188798	-0.523965
O7	O	1.452949	-0.244018	-0.249061
O8	O	1.334724	-0.115978	-0.405500
O9	O	1.609360	-0.243998	-0.405450
O10	O	1.453234	-0.115964	-0.523993
O11	O	1.334562	-0.188832	-0.249083
O12	O	1.178225	-0.188805	-0.405443
O13	O	1.334569	-0.243950	-0.680281
O14	O	1.178158	-0.243970	-0.523893
O15	O	1.453145	-0.188771	-0.680325
O16	O	1.452861	-0.316825	-0.405393
O17	O	1.334407	-0.316804	-0.523864
C18	C	1.143192	-0.216387	-0.464666
C19	C	1.035978	-0.216395	-0.464679
C20	C	1.393632	-0.333115	-0.464640
C21	C	1.393646	-0.383050	-0.464652
C22	C	0.839683	-0.216397	-0.464704
C23	C	0.948915	-0.216394	-0.464688
C24	C	1.455598	-0.692691	-0.403090
C25	C	1.455717	-0.880364	-0.403127
O26	O	1.508252	-0.904628	-0.350748
N27	N	1.394006	-0.903835	-0.464760
C28	C	1.332266	-0.880384	-0.526393
O29	O	1.279788	-0.904653	-0.578824
C30	C	1.332153	-0.692712	-0.526360
C31	C	1.393860	-0.669244	-0.464716
C32	C	1.517301	-0.669223	-0.341451
C33	C	1.517267	-0.622308	-0.341439
C34	C	1.455529	-0.598860	-0.403065
C35	C	1.393826	-0.622328	-0.464703
C36	C	1.270418	-0.669262	-0.587997
C37	C	1.270397	-0.622341	-0.587985
C38	C	1.332105	-0.598873	-0.526341
C39	C	1.332055	-0.551966	-0.526317
N40	N	1.393765	-0.528495	-0.464684
C41	C	1.455503	-0.551943	-0.403057
C42	C	1.332329	-0.978915	-0.526405
C43	C	1.332356	-1.025833	-0.526412
C44	C	1.455808	-1.025810	-0.403147
C45	C	1.455775	-0.978891	-0.403136
C46	C	1.394039	-0.955444	-0.464772
C47	C	1.455426	-0.453417	-0.403035
C48	C	1.455383	-0.406497	-0.403026
C49	C	1.331935	-0.406524	-0.526294
C50	C	1.331974	-0.453440	-0.526301
C51	C	1.393727	-0.476885	-0.464668
O52	O	1.279555	-0.527674	-0.578676
O53	O	1.507988	-0.527665	-0.350650
C54	C	1.455632	-0.739607	-0.403102
C55	C	1.393929	-0.763075	-0.464741
C56	C	1.332191	-0.739627	-0.526367
C57	C	1.393955	-0.809993	-0.464748
C58	C	1.455693	-0.833440	-0.403122
C59	C	1.517403	-0.809970	-0.341489
C60	C	1.517369	-0.763054	-0.341476
C61	C	1.270481	-0.763098	-0.588000
C62	C	1.270519	-0.810013	-0.588007
C63	C	1.332256	-0.833461	-0.526381
C64	C	1.645399	-0.216399	-0.464710
C65	C	1.752613	-0.216402	-0.464720
C66	C	1.393865	-0.216355	-0.716281
C67	C	1.393891	-0.216339	-0.823495
C68	C	1.394007	-0.099214	-0.464757
C69	C	1.394093	-0.049280	-0.464786
C70	C	1.393910	-0.216326	-0.910565
C71	C	1.393938	-0.216306	-1.019797
C72	C	1.393803	-0.216398	-0.214073
C73	C	1.393965	-0.216287	-0.106860
H74	H	1.505713	-0.472500	-0.352851
H75	H	1.220165	-0.688362	-0.638190
C76	C	1.202481	-0.596550	-0.655783
C77	C	1.092835	-0.603060	-0.647815
C78	C	1.024917	-0.577270	-0.715609
C79	C	1.066645	-0.544970	-0.791371
C80	C	1.176297	-0.538458	-0.799343
C81	C	1.244215	-0.564249	-0.731548
H82	H	1.061940	-0.626972	-0.591729
H83	H	0.943745	-0.582090	-0.709708
H84	H	1.016369	-0.525879	-0.841557
H85	H	1.207192	-0.514547	-0.855429
H86	H	1.325386	-0.559428	-0.737450
H87	H	1.281729	-0.472548	-0.576499
H88	H	1.505633	-0.387391	-0.352824
H89	H	1.282054	-0.959828	-0.576598
C90	C	1.264030	-0.380725	-0.594082
C91	C	1.188311	-0.348517	-0.552211
C92	C	1.120412	-0.322716	-0.620004
C93	C	1.128233	-0.329123	-0.729669
C94	C	1.203955	-0.361332	-0.771546
C95	C	1.271854	-0.387134	-0.703752
H96	H	1.182519	-0.343773	-0.471025
H97	H	1.064357	-0.298872	-0.589004
H98	H	1.077970	-0.310023	-0.779854
H99	H	1.209747	-0.366077	-0.852731
H100	H	1.327909	-0.410977	-0.734753
C101	C	1.523661	-0.953078	-0.335333
C102	C	1.599355	-0.920777	-0.377191
C103	C	1.667246	-0.894968	-0.309387
C104	C	1.659443	-0.901460	-0.199726
C105	C	1.583746	-0.933762	-0.157863
C106	C	1.515855	-0.959572	-0.225667
H107	H	1.605133	-0.915971	-0.458374
H108	H	1.723281	-0.871055	-0.340378
H109	H	1.709700	-0.882354	-0.149534
H110	H	1.577968	-0.938569	-0.076680
H111	H	1.459819	-0.983484	-0.194676
C112	C	1.523725	-1.051607	-0.335362
C113	C	1.523752	-1.103215	-0.335383
C114	C	1.591671	-1.129015	-0.267608
C115	C	1.659564	-1.103207	-0.199811
C116	C	1.659540	-1.051596	-0.199787
C117	C	1.591621	-1.025796	-0.267563
H118	H	1.473491	-1.122322	-0.385572
H119	H	1.591689	-1.167220	-0.267625
H120	H	1.709842	-1.122305	-0.149640
H121	H	1.709801	-1.032489	-0.149598
H122	H	1.591603	-0.987591	-0.267545
C123	C	1.585255	-0.737244	-0.273671
C124	C	1.577454	-0.743741	-0.164011
C125	C	1.645346	-0.717935	-0.096203
C126	C	1.721039	-0.685631	-0.138054
C127	C	1.728843	-0.679133	-0.247719
C128	C	1.660951	-0.704939	-0.315528
H129	H	1.521419	-0.767655	-0.133025
H130	H	1.639569	-0.722745	-0.015021
H131	H	1.771297	-0.666528	-0.087858
H132	H	1.784878	-0.655219	-0.278705
H133	H	1.666729	-0.700128	-0.396709
H134	H	1.567669	-0.829069	-0.291308
C135	C	1.585158	-0.596499	-0.273636
C136	C	1.577363	-0.602996	-0.163976
C137	C	1.645262	-0.577192	-0.096171
C138	C	1.720956	-0.544890	-0.138027
C139	C	1.728754	-0.538392	-0.247693
C140	C	1.660855	-0.564196	-0.315497
H141	H	1.521327	-0.626909	-0.132987
H142	H	1.639489	-0.582002	-0.014989
H143	H	1.771219	-0.525788	-0.087834
H144	H	1.784790	-0.514479	-0.278682
H145	H	1.666628	-0.559385	-0.396679
C146	C	1.202634	-0.835824	-0.655822
C147	C	1.092978	-0.829428	-0.647861
C148	C	1.025103	-0.855237	-0.715682
C149	C	1.066883	-0.887442	-0.791463
C150	C	1.176544	-0.893840	-0.799426
C151	C	1.244420	-0.868031	-0.731606
H152	H	1.062045	-0.805587	-0.591761
H153	H	0.943924	-0.850500	-0.709786
H154	H	1.016637	-0.906547	-0.841667
H155	H	1.207477	-0.917681	-0.855526
H156	H	1.325598	-0.872767	-0.737502
C157	C	1.264469	-1.051644	-0.594215
C158	C	1.196567	-1.025846	-0.662002
C159	C	1.128682	-1.051656	-0.729812
C160	C	1.128700	-1.103264	-0.729834
C161	C	1.196605	-1.129065	-0.662043
C162	C	1.264489	-1.103255	-0.594234
H163	H	1.196552	-0.987641	-0.661989
H164	H	1.078415	-1.032556	-0.779995
H165	H	1.078448	-1.122370	-0.780030
H166	H	1.196620	-1.167270	-0.662057
H167	H	1.314757	-1.122355	-0.544051
H168	H	1.567580	-0.688309	-0.291268
C169	C	1.202562	-0.737311	-0.655793
C170	C	1.092918	-0.743827	-0.647816
C171	C	1.024989	-0.718043	-0.715612
C172	C	1.066705	-0.685744	-0.791383
C173	C	1.176355	-0.679228	-0.799363
C174	C	1.244283	-0.705011	-0.731568
H175	H	1.062032	-0.767737	-0.591723
H176	H	0.943819	-0.722867	-0.709704
H177	H	1.016421	-0.666658	-0.841569
H178	H	1.207241	-0.655317	-0.855457
H179	H	1.325453	-0.700187	-0.737475
