data_functionalizedCrystal
_audit_creation_method	'MofGen! by Chris Wilmer'
_symmetry_space_group_name_H-M	'P1'
_symmetry_Int_Tables_number	1
_symmetry_cell_setting	triclinic
loop_
_symmetry_equiv_pos_as_xyz
  x,y,z
_cell_length_a	15.297475
_cell_length_b	16.625546
_cell_length_c	16.625539
_cell_angle_alpha	89.969603
_cell_angle_beta	80.314414
_cell_angle_gamma	80.324704
loop_
_atom_site_label
_atom_site_type_symbol
_atom_site_fract_x
_atom_site_fract_y
_atom_site_fract_z
Zn1	Zn	1.379242	-0.534655	-0.668851
Zn2	Zn	1.879242	-0.034655	-0.168851
Zn3	Zn	1.379134	-0.669482	-0.533997
Zn4	Zn	1.879134	-0.169482	-0.033997
Zn5	Zn	1.228372	-0.511313	-0.510738
Zn6	Zn	1.728372	-0.011313	-0.010738
Zn7	Zn	1.228339	-0.646074	-0.645504
Zn8	Zn	1.728339	-0.146074	-0.145504
O9	O	1.303772	-0.590381	-0.589773
O10	O	1.803772	-0.090381	-0.089773
O11	O	1.505475	-0.572106	-0.670468
O12	O	2.005475	-0.072106	-0.170468
O13	O	1.359103	-0.648528	-0.418074
O14	O	1.859103	-0.148528	0.081926
O15	O	1.248444	-0.401586	-0.531749
O16	O	1.748444	0.098414	-0.031749
O17	O	1.505396	-0.671162	-0.571391
O18	O	2.005396	-0.171162	-0.071391
O19	O	1.359288	-0.418736	-0.647914
O20	O	1.859288	0.081264	-0.147914
O21	O	1.248339	-0.532322	-0.400986
O22	O	1.748339	-0.032322	0.099014
O23	O	1.102120	-0.509624	-0.509110
O24	O	1.602120	-0.009624	-0.009110
O25	O	1.248388	-0.631266	-0.761439
O26	O	1.748388	-0.131266	-0.261439
O27	O	1.102096	-0.608632	-0.608122
O28	O	1.602096	-0.108632	-0.108122
O29	O	1.359256	-0.549408	-0.778592
O30	O	1.859256	-0.049408	-0.278592
O31	O	1.359071	-0.779200	-0.548752
O32	O	1.859071	-0.279200	-0.048752
O33	O	1.248283	-0.762002	-0.630676
O34	O	1.748283	-0.262002	-0.130676
C35	C	1.069373	-0.554055	-0.553559
C36	C	1.569373	-0.054055	-0.053559
C37	C	0.969096	-0.538534	-0.538086
C38	C	1.469096	-0.038534	-0.038086
C39	C	1.303686	-0.799859	-0.589726
C40	C	1.803686	-0.299859	-0.089726
C41	C	1.303732	-0.889487	-0.589745
C42	C	1.803732	-0.389487	-0.089745
C43	C	0.686482	-0.701316	-0.700364
C44	C	1.186482	-0.201316	-0.200364
C45	C	0.780697	-0.715905	-0.714899
C46	C	1.280697	-0.215905	-0.214899
C47	C	0.827802	-0.671563	-0.670697
C48	C	1.327802	-0.171563	-0.170697
C49	C	0.780682	-0.612631	-0.611957
C50	C	1.280682	-0.112631	-0.111957
C51	C	0.686458	-0.598046	-0.597416
C52	C	1.186458	-0.098046	-0.097416
C53	C	0.827777	-0.568293	-0.567749
C54	C	1.327777	-0.068293	-0.067749
C55	C	0.780657	-0.509360	-0.509009
C56	C	1.280657	-0.009360	-0.009009
C57	C	0.686442	-0.494777	-0.494471
C58	C	1.186442	0.005223	0.005529
C59	C	0.639338	-0.539119	-0.538672
C60	C	1.139338	-0.039119	-0.038672
C61	C	0.922001	-0.582878	-0.582291
C62	C	1.422001	-0.082878	-0.082291
C63	C	0.921977	-0.479607	-0.479343
C64	C	1.421977	0.020393	0.020657
C65	C	0.827762	-0.465019	-0.464807
C66	C	1.327762	0.034981	0.035193
C67	C	1.303890	-1.217687	-0.589854
C68	C	1.803890	-0.717687	-0.089854
C69	C	1.303843	-1.126371	-0.589825
C70	C	1.803843	-0.626371	-0.089825
C71	C	1.303810	-1.053590	-0.589799
C72	C	1.803810	-0.553590	-0.089799
C73	C	1.303765	-0.962268	-0.589772
C74	C	1.803765	-0.462268	-0.089772
C75	C	1.539086	-0.626849	-0.626128
C76	C	2.039086	-0.126849	-0.126128
C77	C	1.639362	-0.642389	-0.641620
C78	C	2.139362	-0.142389	-0.141620
C79	C	1.303830	-0.590330	-0.800091
C80	C	1.803830	-0.090330	-0.300091
C81	C	1.303855	-0.590308	-0.889716
C82	C	1.803855	-0.090308	-0.389716
C83	C	1.303882	-0.380089	-0.589841
C84	C	1.803882	0.119911	-0.089841
C85	C	1.303929	-0.290475	-0.589870
C86	C	1.803929	0.209525	-0.089870
C87	C	1.303897	-0.590224	-1.217898
C88	C	1.803897	-0.090224	-0.717898
C89	C	1.303883	-0.590250	-1.126587
C90	C	1.803883	-0.090250	-0.626587
C91	C	1.303877	-0.590267	-1.053810
C92	C	1.803877	-0.090267	-0.553810
C93	C	1.303862	-0.590291	-0.962493
C94	C	1.803862	-0.090291	-0.462493
C95	C	1.303765	-0.590382	-0.380281
C96	C	1.803765	-0.090382	0.119719
C97	C	1.303915	-0.590203	-0.290683
C98	C	1.803915	-0.090203	0.209317
H99	H	0.960357	-0.630861	-0.630118
H100	H	1.460357	-0.130861	-0.130118
H101	H	0.960329	-0.443502	-0.443349
H102	H	1.460329	0.056498	0.056651
H103	H	0.904516	-0.683445	-0.682536
H104	H	1.404516	-0.183445	-0.182536
H105	H	0.562620	-0.527242	-0.526842
H106	H	1.062620	-0.027242	-0.026842
Cl107	Cl	0.627208	-0.420697	-0.420619
Cl108	Cl	1.127208	0.079303	0.079381
Cl109	Cl	0.768515	-0.390935	-0.390965
Cl110	Cl	1.268515	0.109065	0.109035
H111	H	0.819055	-0.763889	-0.762724
H112	H	1.319055	-0.263889	-0.262724
Cl113	Cl	0.627262	-0.757070	-0.755906
Cl114	Cl	1.127262	-0.257070	-0.255906
