data_functionalizedCrystal
_audit_creation_method	'MofGen! by Chris Wilmer'
_symmetry_space_group_name_H-M	'P1'
_symmetry_Int_Tables_number	1
_symmetry_cell_setting	triclinic
loop_
_symmetry_equiv_pos_as_xyz
  x,y,z
_cell_length_a	19.288864
_cell_length_b	16.992695
_cell_length_c	17.766277
_cell_angle_alpha	89.993690
_cell_angle_beta	89.976791
_cell_angle_gamma	86.902234
loop_
_atom_site_label
_atom_site_type_symbol
_atom_site_fract_x
_atom_site_fract_y
_atom_site_fract_z
O1	O	0.927053	0.097795	-0.062838
O2	O	0.725561	0.110988	-0.062787
O3	O	0.825499	-0.009748	-0.062806
O4	O	0.827114	0.218531	-0.062819
O5	O	0.825480	-0.009754	0.062382
O6	O	0.725542	0.110982	0.062402
O7	O	0.927034	0.097789	0.062351
Cu8	Cu	0.826286	0.104385	0.073807
Cu9	Cu	0.826308	0.104392	-0.074243
O10	O	0.827095	0.218525	0.062370
C11	C	0.699650	0.110560	-0.000186
C12	C	0.622472	0.109286	-0.000166
C13	C	0.581905	0.180128	-0.000182
C14	C	0.509388	0.178931	-0.000190
C15	C	0.477442	0.106888	-0.000198
C16	C	0.518018	0.036036	-0.000178
C17	C	0.590534	0.037235	-0.000162
C18	C	0.365886	0.050256	-0.044079
C19	C	0.293371	0.049059	-0.044099
C20	C	0.253780	0.103186	-0.000243
C21	C	0.286711	0.158522	0.043624
C22	C	0.359227	0.159722	0.043640
C23	C	0.398811	0.105579	-0.000214
C24	C	0.134581	0.172735	-0.000267
C25	C	0.062063	0.171535	-0.000270
C26	C	0.070695	0.028638	-0.000266
C27	C	0.143212	0.029840	-0.000254
C28	C	0.175150	0.101891	-0.000259
C29	C	0.823411	-0.038957	-0.000211
C30	C	0.817211	-0.125979	-0.000210
C31	C	0.877039	-0.176431	-0.000224
C32	C	0.871208	-0.258197	-0.000230
C33	C	0.805549	-0.289509	-0.000216
C34	C	0.745717	-0.239051	-0.000204
C35	C	0.751548	-0.157287	-0.000204
C36	C	0.781382	-0.533022	-0.000220
C37	C	0.775556	-0.614793	-0.000218
C38	C	0.901048	-0.633933	-0.000246
C39	C	0.906873	-0.552166	-0.000241
C40	C	0.847041	-0.501715	-0.000233
N41	N	0.799588	-0.373087	-0.000219
N42	N	0.853002	-0.418138	-0.000235
C43	C	0.952944	0.098217	-0.000252
C44	C	1.030122	0.099491	-0.000277
C45	C	0.829183	0.247733	-0.000226
C46	C	0.835384	0.334756	-0.000233
N47	N	0.826275	0.104379	0.177937
N48	N	0.826324	0.104391	-0.178373
C49	C	0.870544	0.050944	0.217316
C50	C	0.870548	0.050940	0.296117
C51	C	0.826290	0.104385	0.335538
C52	C	0.782012	0.157825	0.296150
C53	C	0.782005	0.157822	0.217350
C54	C	0.821154	0.175815	0.460373
C55	C	0.821167	0.175819	0.539172
C56	C	0.826309	0.104395	0.578584
C57	C	0.831454	0.032964	0.539188
C58	C	0.831446	0.032961	0.460387
C59	C	0.826293	0.104394	0.420983
C60	C	0.870585	0.050951	0.703408
C61	C	0.870584	0.050946	0.782212
C62	C	0.782051	0.157838	0.782243
C63	C	0.782049	0.157836	0.703441
C64	C	0.826319	0.104393	0.664029
H65	H	0.386036	0.204776	0.079360
H66	H	0.919927	-0.299272	-0.000240
H67	H	0.960340	-0.526677	-0.000253
C68	C	0.733907	0.215738	0.660640
C69	C	0.689065	0.174102	0.615443
C70	C	0.644700	0.227416	0.576011
H71	H	0.760619	0.248317	0.629821
H72	H	0.707508	0.247560	0.695376
H73	H	0.715462	0.142293	0.580711
H74	H	0.662338	0.141525	0.646243
H75	H	0.618300	0.259238	0.610747
H76	H	0.671417	0.259992	0.545196
H77	H	0.614265	0.199173	0.545345
C78	C	0.966030	-0.688670	-0.000109
C79	C	1.005287	-0.674579	0.064296
C80	C	1.065151	-0.724994	0.064448
H81	H	0.992851	-0.679241	-0.043722
H82	H	0.953186	-0.741863	-0.000068
H83	H	1.018132	-0.621398	0.064248
H84	H	0.978486	-0.684013	0.107919
H85	H	1.052306	-0.778187	0.064490
H86	H	1.091966	-0.715561	0.020833
H87	H	1.091790	-0.715445	0.108150
H88	H	0.623564	-0.020455	-0.000150
C89	C	0.187141	-0.047161	-0.000285
C90	C	0.143646	-0.110512	-0.000313
C91	C	0.184089	-0.181461	-0.000348
H92	H	0.215595	-0.049778	0.043365
H93	H	0.215620	-0.049703	-0.043953
H94	H	0.115180	-0.107971	0.043351
H95	H	0.115193	-0.107921	-0.043959
H96	H	0.212568	-0.184003	-0.044016
H97	H	0.212541	-0.184070	0.043302
H98	H	0.154584	-0.224453	-0.000374
H99	H	0.732662	-0.491954	-0.000213
C100	C	0.674411	-0.273002	-0.000346
C101	C	0.637993	-0.247348	-0.064755
C102	C	0.572306	-0.278615	-0.064914
H103	H	0.649491	-0.255695	0.043264
H104	H	0.679477	-0.328927	-0.000387
H105	H	0.632923	-0.191435	-0.064706
H106	H	0.662891	-0.264654	-0.108375
H107	H	0.577373	-0.334540	-0.064956
H108	H	0.547394	-0.261306	-0.021302
H109	H	0.547591	-0.261220	-0.108618
H110	H	0.492003	-0.022623	-0.000194
H111	H	0.702829	-0.116209	-0.000192
H112	H	0.906590	0.007425	0.185228
H113	H	0.607904	0.238798	-0.000187
C114	C	0.733881	0.215777	0.824992
C115	C	0.664934	0.203244	0.805875
C116	C	0.620536	0.256594	0.845251
H117	H	0.744231	0.268111	0.812097
H118	H	0.740176	0.208122	0.877570
H119	H	0.658642	0.210904	0.753308
H120	H	0.654562	0.150920	0.818772
H121	H	0.626831	0.248939	0.897830
H122	H	0.630892	0.308924	0.832354
H123	H	0.573751	0.248093	0.832291
C124	C	0.918687	-0.007118	0.338747
C125	C	0.957463	-0.053912	0.287365
C126	C	1.001819	-0.107399	0.326605
H127	H	0.891973	-0.039753	0.369508
H128	H	0.949197	0.020981	0.369452
H129	H	0.926956	-0.082010	0.256673
H130	H	0.984190	-0.021299	0.256603
H131	H	1.032329	-0.079299	0.357310
H132	H	0.975100	-0.140028	0.357365
H133	H	1.028138	-0.139150	0.291749
H134	H	0.835634	-0.025201	0.428314
H135	H	0.476351	0.236621	-0.000201
H136	H	0.816955	0.233980	0.428291
H137	H	0.398115	0.006177	-0.079797
H138	H	0.835641	-0.025196	0.571275
H139	H	0.906631	0.007428	0.814274
C140	C	0.918667	-0.007165	0.660748
C141	C	0.957421	-0.053984	0.712104
C142	C	1.001714	-0.107536	0.672835
H143	H	0.949199	0.020860	0.629986
H144	H	0.891888	-0.039770	0.630041
H145	H	0.984198	-0.021384	0.742798
H146	H	0.926907	-0.082026	0.742868
H147	H	0.974935	-0.140141	0.642129
H148	H	1.032241	-0.079505	0.642075
H149	H	1.028009	-0.139314	0.707675
C150	C	0.815436	0.253391	0.581898
C151	C	0.753108	0.294593	0.562771
C152	C	0.747799	0.366053	0.602119
H153	H	0.853398	0.284103	0.568987
H154	H	0.816140	0.243201	0.634481
H155	H	0.752409	0.304785	0.510200
H156	H	0.715134	0.263905	0.575684
H157	H	0.748503	0.355863	0.654702
H158	H	0.785764	0.396758	0.589205
H159	H	0.705507	0.394014	0.589152
C160	C	0.733920	0.215728	0.339043
C161	C	0.689113	0.174089	0.384330
C162	C	0.644803	0.227401	0.423861
H163	H	0.707485	0.247577	0.304389
H164	H	0.760695	0.248281	0.369806
H165	H	0.662341	0.141549	0.353570
H166	H	0.715528	0.142243	0.418998
H167	H	0.671578	0.259955	0.454624
H168	H	0.618373	0.259247	0.389202
H169	H	0.614401	0.199157	0.454598
H170	H	0.745954	0.201337	0.185287
H171	H	0.254478	0.202597	0.079337
H172	H	0.029034	0.229226	-0.000279
C173	C	0.257710	-0.010983	-0.091851
C174	C	0.274787	-0.000388	-0.167648
C175	C	0.241959	-0.055694	-0.211658
H176	H	0.208846	-0.004006	-0.085683
H177	H	0.272735	-0.062669	-0.076462
H178	H	0.259759	0.051285	-0.183032
H179	H	0.323646	-0.007373	-0.173840
H180	H	0.256984	-0.107379	-0.196270
H181	H	0.193096	-0.048712	-0.205484
H182	H	0.253546	-0.048517	-0.263091
C183	C	0.169173	0.251014	-0.000377
C184	C	0.148951	0.293843	-0.064776
C185	C	0.180795	0.365960	-0.064898
H186	H	0.218175	0.241692	-0.000409
H187	H	0.155477	0.280211	0.043255
H188	H	0.162651	0.264652	-0.108397
H189	H	0.099954	0.303186	-0.064758
H190	H	0.167099	0.395158	-0.021265
H191	H	0.229795	0.356631	-0.064927
H192	H	0.167074	0.395032	-0.108588
C193	C	0.948390	-0.142590	-0.000281
C194	C	0.999536	-0.204279	-0.000317
C195	C	1.065274	-0.173138	-0.000383
H196	H	0.953368	-0.111109	0.043362
H197	H	0.953314	-0.111110	-0.043956
H198	H	0.994614	-0.235746	0.043354
H199	H	0.994580	-0.235765	-0.043956
H200	H	1.070198	-0.141658	-0.044058
H201	H	1.070245	-0.141657	0.043260
H202	H	1.099985	-0.214989	-0.000415
C203	C	0.704202	-0.648638	-0.000251
C204	C	0.653050	-0.586956	-0.000267
C205	C	0.587315	-0.618105	-0.000307
H206	H	0.699209	-0.680130	0.043394
H207	H	0.699299	-0.680110	-0.043924
H208	H	0.657951	-0.555497	0.043402
H209	H	0.658020	-0.555459	-0.043908
H210	H	0.582412	-0.649577	-0.043981
H211	H	0.582330	-0.649596	0.043338
H212	H	0.552601	-0.576259	-0.000325
H213	H	0.044686	-0.030021	-0.000318
