data_functionalizedCrystal
_audit_creation_method	'MofGen! by Chris Wilmer'
_symmetry_space_group_name_H-M	'P1'
_symmetry_Int_Tables_number	1
_symmetry_cell_setting	triclinic
loop_
_symmetry_equiv_pos_as_xyz
  x,y,z
_cell_length_a	10.967926
_cell_length_b	14.519731
_cell_length_c	10.065875
_cell_angle_alpha	98.805316
_cell_angle_beta	93.120479
_cell_angle_gamma	84.211611
loop_
_atom_site_label
_atom_site_type_symbol
_atom_site_fract_x
_atom_site_fract_y
_atom_site_fract_z
O1	O	1.613252	0.160830	0.265929
O2	O	2.113252	0.660830	0.765929
O3	O	1.263214	0.163463	0.183600
O4	O	1.763214	0.663463	0.683600
O5	O	1.447499	0.028218	0.226956
O6	O	1.947499	0.528218	0.726956
O7	O	1.428968	0.296075	0.222573
O8	O	1.928968	0.796075	0.722573
O9	O	1.412359	0.054116	0.445678
O10	O	1.912359	0.554116	0.945678
O11	O	1.228074	0.189361	0.402321
O12	O	1.728074	0.689361	0.902321
O13	O	1.578112	0.186728	0.484651
O14	O	2.078112	0.686728	0.984651
Zn15	Zn	1.397514	0.192156	0.478213
Zn16	Zn	1.897514	0.692156	0.978213
Zn17	Zn	1.443813	0.158035	0.190038
Zn18	Zn	1.943813	0.658035	0.690038
O19	O	1.393828	0.321973	0.441294
O20	O	1.893828	0.821973	0.941294
C21	C	1.200846	0.174264	0.282424
C22	C	1.700846	0.674264	0.782424
C23	C	1.067361	0.167851	0.251028
C24	C	1.567361	0.667851	0.751028
C25	C	0.989646	0.178408	0.350335
C26	C	1.489646	0.678408	0.850335
C27	C	0.851682	0.171780	0.317889
C28	C	1.351682	0.671780	0.817889
C29	C	1.429060	0.006779	0.336113
C30	C	1.929060	0.506779	0.836113
C31	C	1.426458	-0.095688	0.335502
C32	C	1.926458	0.404312	0.835502
C33	C	1.424344	-0.178902	0.335001
C34	C	1.924344	0.321098	0.835001
C35	C	1.421703	-0.283300	0.334370
C36	C	1.921703	0.216700	0.834370
C37	C	1.419607	-0.366509	0.333868
C38	C	1.919607	0.133491	0.833868
C39	C	1.416966	-0.470913	0.333239
C40	C	1.916966	0.029087	0.833239
C41	C	1.640481	0.175927	0.385824
C42	C	2.140481	0.675927	0.885824
C43	C	1.773967	0.182339	0.417210
C44	C	2.273967	0.682339	0.917210
C45	C	1.412267	0.343412	0.332135
C46	C	1.912267	0.843412	0.832135
C47	C	1.414871	0.445877	0.332737
C48	C	1.914871	0.945877	0.832737
N49	N	1.365925	0.215443	0.674886
N50	N	1.865925	0.715443	1.174886
N51	N	1.475411	0.134741	-0.006634
N52	N	1.975411	0.634741	0.493366
C53	C	1.432814	0.166131	0.758402
C54	C	1.932814	0.666131	1.258402
C55	C	1.408512	0.184060	0.909852
C56	C	1.908512	0.684060	1.409852
H57	H	1.031758	0.153904	0.141988
H58	H	1.531758	0.653904	0.641988
H59	H	0.809563	0.196281	0.526260
H60	H	1.309563	0.696281	1.026260
H61	H	1.508069	0.110635	0.717783
H62	H	2.008069	0.610635	1.217783
H63	H	1.290662	0.270931	0.715505
H64	H	1.790662	0.770931	1.215505
H65	H	1.025250	0.192347	0.459377
H66	H	1.525250	0.692347	0.959377
Cl67	Cl	1.292304	0.269737	0.972548
Cl68	Cl	1.792304	0.769737	1.472548
H69	H	1.550670	0.079242	0.952752
H70	H	2.050670	0.579242	1.452752
H71	H	0.816085	0.157832	0.208841
H72	H	1.316085	0.657832	0.708841
