data_functionalizedCrystal
_audit_creation_method	'MofGen! by Chris Wilmer'
_symmetry_space_group_name_H-M	'P1'
_symmetry_Int_Tables_number	1
_symmetry_cell_setting	triclinic
loop_
_symmetry_equiv_pos_as_xyz
  x,y,z
_cell_length_a	6.817900
_cell_length_b	11.102288
_cell_length_c	14.858572
_cell_angle_alpha	93.467296
_cell_angle_beta	104.524003
_cell_angle_gamma	108.605689
loop_
_atom_site_label
_atom_site_type_symbol
_atom_site_fract_x
_atom_site_fract_y
_atom_site_fract_z
V1	V	-4.064547	-0.176639	-0.289960
V2	V	-3.564547	0.323361	0.210040
O3	O	-4.024474	0.007665	-0.284441
O4	O	-3.524474	0.507665	0.215559
O5	O	-4.041646	-0.349454	-0.287977
O6	O	-3.541646	0.150546	0.212023
O7	O	-4.020838	-0.174283	-0.416422
O8	O	-3.520838	0.325717	0.083578
O9	O	-4.045427	-0.168718	-0.155107
O10	O	-3.545427	0.331282	0.344893
V11	V	-4.544264	-0.154551	-0.273831
V12	V	-4.044264	0.345449	0.226169
O13	O	-4.334156	-0.225090	-0.325342
O14	O	-3.834156	0.274910	0.174658
O15	O	-4.724852	-0.106100	-0.238449
O16	O	-4.224852	0.393900	0.261551
O17	O	-4.343959	0.018263	-0.275814
O18	O	-3.843959	0.518263	0.224186
O19	O	-4.701734	-0.338855	-0.279350
O20	O	-4.201734	0.161145	0.220650
O21	O	-4.680781	-0.162472	-0.408684
O22	O	-4.180781	0.337528	0.091316
O23	O	-4.364767	-0.156907	-0.147369
O24	O	-3.864767	0.343093	0.352631
C25	C	-3.892698	-0.391571	-0.283403
C26	C	-3.392698	0.108429	0.216597
C27	C	-3.955291	-0.532852	-0.282625
C28	C	-3.455291	-0.032852	0.217375
C29	C	-4.167954	-0.605712	-0.286899
C30	C	-3.667954	-0.105712	0.213101
C31	C	-4.226759	-0.738461	-0.286175
C32	C	-3.726759	-0.238461	0.213825
C33	C	-3.860216	-0.725477	-0.276898
C34	C	-3.360216	-0.225477	0.223102
C35	C	-3.801417	-0.592732	-0.277629
C36	C	-3.301417	-0.092732	0.222371
C37	C	-3.866154	-0.168122	-0.447246
C38	C	-3.366154	0.331878	0.052754
C39	C	-3.911868	-0.167339	-0.550629
C40	C	-3.411868	0.332661	-0.050629
C41	C	-4.079186	-0.164478	-0.929197
C42	C	-3.579186	0.335522	-0.429197
C43	C	-4.032624	-0.165274	-0.823868
C44	C	-3.532624	0.334726	-0.323868
C45	C	-3.995529	-0.165910	-0.739916
C46	C	-3.495529	0.334090	-0.239916
C47	C	-3.948964	-0.166703	-0.634580
C48	C	-3.448964	0.333297	-0.134580
C49	C	-4.156249	0.060374	-0.280385
C50	C	-3.656249	0.560374	0.219615
C51	C	-4.072895	0.201653	-0.281170
C52	C	-3.572895	0.701653	0.218830
C53	C	-4.182793	-0.163073	-0.116540
C54	C	-3.682793	0.336927	0.383460
C55	C	-4.116316	-0.163849	-0.013156
C56	C	-3.616316	0.336151	0.486844
H57	H	-3.628238	-0.533407	-0.274152
H58	H	-3.128238	-0.033407	0.225848
H59	H	-3.734944	-0.774248	-0.272829
H60	H	-3.234944	-0.274248	0.227171
H61	H	-4.293251	-0.556961	-0.290965
H62	H	-3.793251	-0.056961	0.209035
Cl63	Cl	-4.494115	-0.830052	-0.291550
Cl64	Cl	-3.994115	-0.330052	0.208450
