data_functionalizedCrystal
_audit_creation_method	'MofGen! by Chris Wilmer'
_symmetry_space_group_name_H-M	'P1'
_symmetry_Int_Tables_number	1
_symmetry_cell_setting	triclinic
loop_
_symmetry_equiv_pos_as_xyz
  x,y,z
_cell_length_a	16.120484
_cell_length_b	10.686551
_cell_length_c	10.685901
_cell_angle_alpha	90.348291
_cell_angle_beta	88.337926
_cell_angle_gamma	91.292191
loop_
_atom_site_label
_atom_site_type_symbol
_atom_site_fract_x
_atom_site_fract_y
_atom_site_fract_z
Zn1	Zn	-0.400048	0.594690	1.943928
Zn2	Zn	0.099952	1.094690	2.443928
Zn3	Zn	-0.548154	0.397085	1.917224
Zn4	Zn	-0.048154	0.897085	2.417224
Zn5	Zn	-0.398493	0.400939	1.718164
Zn6	Zn	0.101507	0.900939	2.218164
Zn7	Zn	-0.527010	0.621179	1.725157
Zn8	Zn	-0.027010	1.121179	2.225157
O9	O	-0.468426	0.503473	1.826118
O10	O	0.031574	1.003473	2.326118
O11	O	-0.429194	0.555779	2.115249
O12	O	0.070806	1.055779	2.615249
O13	O	-0.536500	0.222727	1.876717
O14	O	-0.036500	0.722727	2.376717
O15	O	-0.282932	0.417168	1.756361
O16	O	0.217068	0.917168	2.256361
O17	O	-0.538007	0.410600	2.095631
O18	O	-0.038007	0.910600	2.595631
O19	O	-0.284074	0.559516	1.922228
O20	O	0.215926	1.059516	2.422228
O21	O	-0.426545	0.225558	1.730468
O22	O	0.073455	0.725558	2.230468
O23	O	-0.406042	0.442852	1.544227
O24	O	0.093958	0.942852	2.044227
O25	O	-0.501970	0.792534	1.768279
O26	O	-0.001970	1.292534	2.268279
O27	O	-0.500463	0.604661	1.549365
O28	O	-0.000463	1.104661	2.049365
O29	O	-0.408691	0.773074	1.929009
O30	O	0.091309	1.273074	2.429009
O31	O	-0.661117	0.436284	1.883497
O32	O	-0.161117	0.936284	2.383497
O33	O	-0.645582	0.600925	1.742386
O34	O	-0.145582	1.100925	2.242386
C35	C	-0.683367	0.521085	1.810839
C36	C	-0.183367	1.021085	2.310839
C37	C	-0.775324	0.528653	1.804420
C38	C	-0.275324	1.028653	2.304420
C39	C	-0.450790	0.527050	1.501456
C40	C	0.049210	1.027050	2.001456
C41	C	-0.443264	0.537168	1.362565
C42	C	0.056736	1.037168	1.862565
C43	C	-0.453145	0.829413	1.852403
C44	C	0.046855	1.329413	2.352403
C45	C	-0.446633	0.968310	1.863604
C46	C	0.053367	1.468310	2.363604
C47	C	-0.943691	0.542495	1.792710
C48	C	-0.443691	1.042495	2.292710
C49	C	-0.992332	0.464456	1.859751
C50	C	-0.492332	0.964456	2.359751
C51	C	-1.086017	0.472157	1.853236
C52	C	-0.586017	0.972157	2.353236
C53	C	-0.849997	0.534795	1.799224
C54	C	-0.349997	1.034795	2.299224
C55	C	-0.252646	0.485817	1.841493
C56	C	0.247354	0.985817	2.341493
C57	C	-0.160694	0.478294	1.848045
C58	C	0.339306	0.978294	2.348045
C59	C	-0.483592	0.178791	1.800012
C60	C	0.016408	0.678791	2.300012
C61	C	-0.489884	0.039859	1.789069
C62	C	0.010116	0.539859	2.289069
C63	C	-0.486132	0.479805	2.152048
C64	C	0.013868	0.979805	2.652048
C65	C	-0.493677	0.469719	2.290940
C66	C	0.006323	0.969719	2.790940
H67	H	-0.963616	0.391859	1.922039
H68	H	-0.463616	0.891859	2.422039
N69	N	-0.979721	0.633558	1.714582
N70	N	-0.479721	1.133558	2.214582
N71	N	-1.056879	0.639756	1.709339
N72	N	-0.556879	1.139756	2.209339
H73	H	-1.082336	0.704066	1.654161
H74	H	-0.582336	1.204066	2.154161
N75	N	-0.542589	0.983392	1.698276
N76	N	-0.042589	1.483392	2.198276
N77	N	-0.547983	0.866856	1.689001
N78	N	-0.047983	1.366856	2.189001
H79	H	-0.585207	0.826968	1.624877
H80	H	-0.085207	1.326968	2.124877
N81	N	-0.555043	0.387548	1.347279
N82	N	-0.055043	0.887548	1.847279
N83	N	-0.602438	0.324128	1.280007
N84	N	-0.102438	0.824128	1.780007
H85	H	-0.645779	0.266090	1.319801
H86	H	-0.145779	0.766090	1.819801
N87	N	-0.393937	1.024781	1.954417
N88	N	0.106063	1.524781	2.454417
N89	N	-0.388546	1.141317	1.963702
N90	N	0.111454	1.641317	2.463702
H91	H	-0.351331	1.181202	2.027839
H92	H	0.148669	1.681202	2.527839
N93	N	-0.381902	0.619330	1.306180
N94	N	0.118098	1.119330	1.806180
N95	N	-0.375673	0.627715	1.189648
N96	N	0.124327	1.127715	1.689648
H97	H	-0.332338	0.685742	1.149824
H98	H	0.167662	1.185742	1.649824
