data_functionalizedCrystal
_audit_creation_method	'MofGen! by Chris Wilmer'
_symmetry_space_group_name_H-M	'P1'
_symmetry_Int_Tables_number	1
_symmetry_cell_setting	triclinic
loop_
_symmetry_equiv_pos_as_xyz
  x,y,z
_cell_length_a	16.992694
_cell_length_b	23.532357
_cell_length_c	22.010155
_cell_angle_alpha	90.003761
_cell_angle_beta	90.009201
_cell_angle_gamma	86.748258
loop_
_atom_site_label
_atom_site_type_symbol
_atom_site_fract_x
_atom_site_fract_y
_atom_site_fract_z
O1	O	1.039434	0.120711	0.050462
O2	O	1.372767	0.454044	0.383795
O3	O	1.706100	0.787377	0.717128
O4	O	0.811159	0.119386	0.050479
O5	O	1.144492	0.452720	0.383813
O6	O	1.477826	0.786053	0.717146
O7	O	0.932200	0.037457	0.050458
O8	O	1.265534	0.370791	0.383791
O9	O	1.598867	0.704124	0.717124
O10	O	0.918392	0.202640	0.050484
O11	O	1.251726	0.535973	0.383817
O12	O	1.585059	0.869306	0.717150
O13	O	0.932165	0.037466	-0.050593
O14	O	1.265499	0.370799	0.282740
O15	O	1.598832	0.704133	0.616074
O16	O	0.811124	0.119395	-0.050571
O17	O	1.144457	0.452728	0.282762
O18	O	1.477791	0.786061	0.616096
O19	O	1.039399	0.120719	-0.050589
O20	O	1.372732	0.454053	0.282745
O21	O	1.706065	0.787386	0.616078
Cu22	Cu	0.925258	0.120058	-0.059807
Cu23	Cu	1.258591	0.453391	0.273527
Cu24	Cu	1.591925	0.786724	0.606860
Cu25	Cu	0.925299	0.120048	0.059697
Cu26	Cu	1.258633	0.453381	0.393031
Cu27	Cu	1.591966	0.786714	0.726364
O28	O	0.918357	0.202648	-0.050567
O29	O	1.251691	0.535981	0.282767
O30	O	1.585024	0.869315	0.616100
C31	C	0.781943	0.117687	-0.000044
C32	C	1.115276	0.451020	0.333290
C33	C	1.448609	0.784354	0.666623
C34	C	0.694939	0.112604	-0.000037
C35	C	1.028273	0.445937	0.333296
C36	C	1.361606	0.779270	0.666629
C37	C	0.931837	0.016228	-0.000070
C38	C	1.265171	0.349561	0.333264
C39	C	1.598504	0.682895	0.666597
C40	C	0.930799	-0.047042	-0.000075
C41	C	1.264132	0.286291	0.333258
C42	C	1.597466	0.619624	0.666591
C43	C	0.644305	0.161650	-0.000030
C44	C	0.977638	0.494984	0.333303
C45	C	1.310971	0.828317	0.666636
C46	C	0.562556	0.156871	-0.000039
C47	C	0.895890	0.490204	0.333294
C48	C	1.229223	0.823537	0.666627
C49	C	0.531444	0.103044	-0.000051
C50	C	0.864778	0.436377	0.333282
C51	C	1.198111	0.769710	0.666615
C52	C	0.582086	0.053993	-0.000060
C53	C	0.915419	0.387326	0.333273
C54	C	1.248752	0.720660	0.666606
C55	C	0.663832	0.058773	-0.000056
C56	C	0.997165	0.392107	0.333278
C57	C	1.330499	0.725440	0.666611
C58	C	0.288006	0.083232	-0.000071
C59	C	0.621339	0.416565	0.333263
C60	C	0.954673	0.749898	0.666596
C61	C	0.206253	0.078455	-0.000074
C62	C	0.539586	0.411788	0.333260
C63	C	0.872920	0.745122	0.666593
C64	C	0.186729	0.181333	-0.000054
C65	C	0.520063	0.514667	0.333280
C66	C	0.853396	0.848000	0.666613
C67	C	0.268478	0.186109	-0.000045
C68	C	0.601812	0.519442	0.333288
C69	C	0.935145	0.852775	0.666621
C70	C	0.319112	0.137058	-0.000058
C71	C	0.652446	0.470391	0.333276
C72	C	0.985779	0.803725	0.666609
N73	N	0.447885	0.098157	-0.000059
N74	N	0.781218	0.431490	0.333275
N75	N	1.114552	0.764823	0.666608
N76	N	0.402670	0.141946	-0.000055
N77	N	0.736004	0.475279	0.333279
N78	N	1.069337	0.808612	0.666612
C79	C	0.924299	-0.439382	0.055041
C80	C	1.257632	-0.106048	0.388374
C81	C	1.590966	0.227285	0.721707
C82	C	0.923312	-0.498830	0.055044
C83	C	1.256645	-0.165497	0.388378
C84	C	1.589979	0.167837	0.721711
O85	O	0.922791	-0.529577	0.101890
O86	O	1.256124	-0.196244	0.435223
O87	O	1.589458	0.137090	0.768556
N88	N	0.922803	-0.528561	-0.000038
N89	N	1.256137	-0.195228	0.333296
N90	N	1.589470	0.138106	0.666629
C91	C	0.923274	-0.498840	-0.055126
C92	C	1.256607	-0.165506	0.278207
C93	C	1.589941	0.167827	0.611540
O94	O	0.922750	-0.529587	-0.101977
O95	O	1.256083	-0.196254	0.231356
O96	O	1.589417	0.137080	0.564689
C97	C	0.924255	-0.439392	-0.055129
C98	C	1.257589	-0.106059	0.278204
C99	C	1.590922	0.227274	0.611537
C100	C	0.924772	-0.409665	-0.000044
C101	C	1.258105	-0.076332	0.333289
C102	C	1.591439	0.257002	0.666623
C103	C	0.924815	-0.409654	0.110122
C104	C	1.258148	-0.076321	0.443455
C105	C	1.591481	0.257012	0.776788
C106	C	0.925803	-0.350210	0.110118
C107	C	1.259137	-0.016877	0.443451
C108	C	1.592470	0.316457	0.776784
C109	C	0.926276	-0.320493	0.055033
C110	C	1.259609	0.012840	0.388366
C111	C	1.592943	0.346174	0.721700
C112	C	0.925760	-0.350221	-0.000048
C113	C	1.259094	-0.016887	0.333286
C114	C	1.592427	0.316446	0.666619
C115	C	0.924720	-0.409672	-0.110218
C116	C	1.258054	-0.076339	0.223116
C117	C	1.591387	0.256995	0.556449
C118	C	0.925701	-0.350220	-0.110216
C119	C	1.259035	-0.016887	0.223118
C120	C	1.592368	0.316446	0.556451
C121	C	0.926218	-0.320493	-0.055130
C122	C	1.259551	0.012840	0.278203
C123	C	1.592884	0.346174	0.611536
C124	C	0.927222	-0.261060	-0.055136
C125	C	1.260555	0.072274	0.278197
C126	C	1.593889	0.405607	0.611531
N127	N	0.927730	-0.231329	-0.000054
N128	N	1.261064	0.102005	0.333279
N129	N	1.594397	0.435338	0.666612
C130	C	0.927258	-0.261046	0.055030
C131	C	1.260591	0.072288	0.388364
C132	C	1.593924	0.405621	0.721697
C133	C	0.921211	-0.623684	-0.055116
C134	C	1.254545	-0.290350	0.278217
C135	C	1.587878	0.042983	0.611551
C136	C	0.920236	-0.683131	-0.055114
C137	C	1.253569	-0.349797	0.278219
C138	C	1.586902	-0.016464	0.611553
C139	C	0.920272	-0.683117	0.055057
C140	C	1.253606	-0.349783	0.388390
C141	C	1.586939	-0.016450	0.721724
C142	C	0.921254	-0.623669	0.055054
C143	C	1.254587	-0.290336	0.388387
C144	C	1.587920	0.042998	0.721721
C145	C	0.921720	-0.593953	-0.000034
C146	C	1.255053	-0.260620	0.333299
C147	C	1.588387	0.072714	0.666632
C148	C	0.929334	-0.136208	0.055018
C149	C	1.262668	0.197125	0.388351
C150	C	1.596001	0.530458	0.721685
C151	C	0.930326	-0.076759	0.055009
C152	C	1.263659	0.256574	0.388343
C153	C	1.596993	0.589908	0.721676
C154	C	0.930285	-0.076778	-0.055161
C155	C	1.263619	0.256555	0.278172
C156	C	1.596952	0.589889	0.611506
C157	C	0.929298	-0.136222	-0.055153
C158	C	1.262631	0.197111	0.278181
C159	C	1.595964	0.530444	0.611514
C160	C	0.928819	-0.165936	-0.000058
C161	C	1.262153	0.167397	0.333275
C162	C	1.595486	0.500731	0.666608
O163	O	0.927740	-0.230275	-0.101958
O164	O	1.261073	0.103059	0.231376
O165	O	1.594407	0.436392	0.564709
O166	O	0.927771	-0.230291	0.101873
O167	O	1.261105	0.103043	0.435207
O168	O	1.594438	0.436376	0.768540
C169	C	1.068615	0.122419	-0.000064
C170	C	1.401948	0.455752	0.333269
C171	C	1.735282	0.789085	0.666602
C172	C	1.155618	0.127502	-0.000066
C173	C	1.488952	0.460835	0.333267
C174	C	1.822285	0.794169	0.666600
C175	C	0.918720	0.223878	-0.000038
C176	C	1.252053	0.557211	0.333295
C177	C	1.585387	0.890544	0.666628
C178	C	0.919759	0.287148	-0.000029
C179	C	1.253092	0.620481	0.333305
C180	C	1.586425	0.953814	0.666638
N181	N	0.925235	0.120065	-0.143859
N182	N	1.258568	0.453398	0.189474
N183	N	1.591901	0.786732	0.522808
C184	C	0.878024	0.083330	-0.436466
C185	C	1.211358	0.416663	-0.103132
C186	C	1.544691	0.749996	0.230201
C187	C	0.878017	0.083332	-0.372858
C188	C	1.211351	0.416665	-0.039525
C189	C	1.544684	0.749999	0.293809
O190	O	0.837847	0.052098	-0.339962
O191	O	1.171181	0.385431	-0.006629
O192	O	1.504514	0.718765	0.326704
N193	N	0.925266	0.120049	-0.341043
N194	N	1.258599	0.453382	-0.007710
N195	N	1.591932	0.786715	0.325623
C196	C	0.972530	0.156761	-0.372839
C197	C	1.305863	0.490095	-0.039506
C198	C	1.639196	0.823428	0.293828
O199	O	1.012718	0.187992	-0.339937
O200	O	1.346051	0.521325	-0.006604
O201	O	1.679385	0.854658	0.326729
C202	C	0.972540	0.156756	-0.436446
C203	C	1.305874	0.490089	-0.103112
C204	C	1.639207	0.823422	0.230221
C205	C	0.925283	0.120041	-0.468257
C206	C	1.258616	0.453374	-0.134924
C207	C	1.591950	0.786707	0.198409
C208	C	0.830771	0.046617	-0.468278
C209	C	1.164105	0.379951	-0.134944
C210	C	1.497438	0.713284	0.198389
C211	C	0.830777	0.046616	-0.531881
C212	C	1.164111	0.379949	-0.198547
C213	C	1.497444	0.713283	0.134786
C214	C	0.878036	0.083327	-0.563672
C215	C	1.211370	0.416660	-0.230339
C216	C	1.544703	0.749994	0.102994
C217	C	0.925289	0.120039	-0.531860
C218	C	1.258622	0.453373	-0.198527
C219	C	1.591956	0.786706	0.134806
C220	C	1.019808	0.193465	-0.468240
C221	C	1.353142	0.526799	-0.134907
C222	C	1.686475	0.860132	0.198426
C223	C	1.019815	0.193456	-0.531851
C224	C	1.353149	0.526790	-0.198518
C225	C	1.686482	0.860123	0.134816
C226	C	0.972558	0.156741	-0.563663
C227	C	1.305891	0.490075	-0.230329
C228	C	1.639225	0.823408	0.103004
C229	C	0.972554	0.156749	-0.627255
C230	C	1.305887	0.490083	-0.293922
C231	C	1.639221	0.823416	0.039412
N232	N	0.925306	0.120033	-0.659070
N233	N	1.258639	0.453366	-0.325737
N234	N	1.591972	0.786699	0.007597
C235	C	0.878047	0.083321	-0.627279
C236	C	1.211380	0.416655	-0.293945
C237	C	1.544714	0.749988	0.039388
C238	C	0.972505	0.156769	-0.239261
C239	C	1.305838	0.490103	0.094072
C240	C	1.639172	0.823436	0.427405
C241	C	0.972491	0.156778	-0.175656
C242	C	1.305824	0.490112	0.157677
C243	C	1.639157	0.823445	0.491011
C244	C	0.877979	0.083348	-0.175679
C245	C	1.211312	0.416681	0.157654
C246	C	1.544646	0.750015	0.490987
C247	C	0.877990	0.083342	-0.239286
C248	C	1.211323	0.416676	0.094047
C249	C	1.544656	0.750009	0.427381
C250	C	0.925257	0.120053	-0.271076
C251	C	1.258590	0.453386	0.062257
C252	C	1.591923	0.786719	0.395590
C253	C	0.878063	0.083322	-0.760850
C254	C	1.211396	0.416655	-0.427517
C255	C	1.544729	0.749988	-0.094183
C256	C	0.878070	0.083325	-0.824459
C257	C	1.211404	0.416659	-0.491125
C258	C	1.544737	0.749992	-0.157792
C259	C	0.972585	0.156753	-0.824430
C260	C	1.305918	0.490087	-0.491096
C261	C	1.639251	0.823420	-0.157763
C262	C	0.972574	0.156752	-0.760827
C263	C	1.305907	0.490085	-0.427493
C264	C	1.639241	0.823419	-0.094160
C265	C	0.925311	0.120032	-0.729038
C266	C	1.258644	0.453365	-0.395705
C267	C	1.591977	0.786698	-0.062372
O268	O	1.012706	0.187965	-0.660191
O269	O	1.346039	0.521299	-0.326858
O270	O	1.679372	0.854632	0.006475
O271	O	0.837873	0.052091	-0.660188
O272	O	1.171206	0.385425	-0.326855
O273	O	1.504540	0.718758	0.006478
N274	N	0.925329	0.120036	0.143750
N275	N	1.258662	0.453370	0.477083
N276	N	1.591996	0.786703	0.810416
H277	H	0.669629	0.205482	-0.000020
H278	H	1.002962	0.538816	0.333313
H279	H	1.336296	0.872149	0.666647
H280	H	0.919885	-0.707323	0.099910
H281	H	1.253218	-0.373989	0.433243
H282	H	1.586551	-0.040656	0.766577
H283	H	0.921594	-0.599493	-0.099979
H284	H	1.254927	-0.266159	0.233355
H285	H	1.588260	0.067174	0.566688
H286	H	0.839498	0.053456	-0.149783
H287	H	1.172832	0.386789	0.183550
H288	H	1.506165	0.720122	0.516883
C289	C	0.506861	0.210827	-0.000042
C290	C	0.840195	0.544160	0.333291
C291	C	1.173528	0.877493	0.666624
N292	N	0.464912	0.251469	-0.000049
N293	N	0.798245	0.584802	0.333284
N294	N	1.131578	0.918136	0.666618
H295	H	1.010993	0.186669	-0.265141
H296	H	1.344326	0.520002	0.068192
H297	H	1.677660	0.853335	0.401526
C298	C	0.926363	-0.317517	0.170717
C299	C	1.259696	0.015816	0.504050
C300	C	1.593029	0.349149	0.837383
N301	N	0.926780	-0.292897	0.216363
N302	N	1.260113	0.040437	0.549696
N303	N	1.593447	0.373770	0.883030
C304	C	0.302695	0.245323	-0.000042
C305	C	0.636028	0.578656	0.333292
C306	C	0.969361	0.911989	0.666625
N307	N	0.328466	0.289924	-0.000040
N308	N	0.661800	0.623257	0.333293
N309	N	0.995133	0.956590	0.666626
H310	H	0.705059	0.018834	-0.000061
H311	H	1.038392	0.352167	0.333272
H312	H	1.371725	0.685501	0.666605
C313	C	0.924328	-0.442335	0.170725
C314	C	1.257662	-0.109002	0.504058
C315	C	1.590995	0.224332	0.837391
N316	N	0.923980	-0.466947	0.216375
N317	N	1.257313	-0.133614	0.549708
N318	N	1.590646	0.199720	0.883041
C319	C	0.131026	0.235285	-0.000048
C320	C	0.464360	0.568618	0.333286
C321	C	0.797693	0.901952	0.666619
N322	N	0.089070	0.275924	-0.000047
N323	N	0.422403	0.609257	0.333287
N324	N	0.755737	0.942591	0.666620
H325	H	1.058292	0.223362	-0.442350
H326	H	1.391625	0.556695	-0.109017
H327	H	1.724959	0.890028	0.224317
C328	C	0.928737	-0.168924	-0.115749
C329	C	1.262070	0.164410	0.217584
C330	C	1.595404	0.497743	0.550918
N331	N	0.928307	-0.193550	-0.161391
N332	N	1.261640	0.139783	0.171942
N333	N	1.594974	0.473117	0.505275
H334	H	0.924301	-0.433866	-0.155074
H335	H	1.257634	-0.100532	0.178259
H336	H	1.590968	0.232801	0.511593
H337	H	1.011044	0.186656	-0.734924
H338	H	1.344377	0.519989	-0.401591
H339	H	1.677710	0.853323	-0.068257
C340	C	0.926217	-0.317536	-0.170819
C341	C	1.259551	0.015797	0.162514
C342	C	1.592884	0.349130	0.495848
N343	N	0.926609	-0.292920	-0.216466
N344	N	1.259943	0.040413	0.116868
N345	N	1.593276	0.373746	0.450201
H346	H	0.930749	-0.052558	0.099869
H347	H	1.264082	0.280776	0.433202
H348	H	1.597415	0.614109	0.766535
C349	C	0.778793	0.006224	-0.566865
C350	C	1.112127	0.339557	-0.233532
C351	C	1.445460	0.672890	0.099801
N352	N	0.739638	-0.024203	-0.593212
N353	N	1.072971	0.309131	-0.259878
N354	N	1.406304	0.642464	0.073455
C355	C	0.921815	-0.590974	0.115652
C356	C	1.255148	-0.257641	0.448985
C357	C	1.588481	0.075692	0.782318
N358	N	0.922234	-0.566351	0.161296
N359	N	1.255568	-0.233018	0.494630
N360	N	1.588901	0.100315	0.827963
C361	C	1.024569	0.197132	-0.859413
C362	C	1.357903	0.530465	-0.526079
C363	C	1.691236	0.863798	-0.192746
N364	N	1.063730	0.227542	-0.885764
N365	N	1.397063	0.560875	-0.552430
N366	N	1.730397	0.894208	-0.219097
C367	C	0.172033	0.019238	-0.000086
C368	C	0.505366	0.352572	0.333247
C369	C	0.838699	0.685905	0.666580
N370	N	0.146257	-0.025361	-0.000094
N371	N	0.479591	0.307972	0.333239
N372	N	0.812924	0.641305	0.666572
C373	C	0.919675	-0.715824	-0.115712
C374	C	1.253009	-0.382491	0.217621
C375	C	1.586342	-0.049158	0.550955
N376	N	0.919247	-0.740447	-0.161357
N377	N	1.252581	-0.407114	0.171977
N378	N	1.585914	-0.073780	0.505310
C379	C	0.343693	0.029274	-0.000080
C380	C	0.677026	0.362607	0.333253
C381	C	1.010360	0.695940	0.666586
N382	N	0.385640	-0.011370	-0.000087
N383	N	0.718973	0.321963	0.333247
N384	N	1.052306	0.655297	0.666580
H385	H	0.928941	-0.160394	0.099881
H386	H	1.262274	0.172939	0.433215
H387	H	1.595608	0.506273	0.766548
C388	C	1.071810	0.233845	-0.566817
C389	C	1.405143	0.567178	-0.233483
C390	C	1.738476	0.900511	0.099850
N391	N	1.110969	0.264267	-0.593151
N392	N	1.444302	0.597601	-0.259818
N393	N	1.777635	0.930934	0.073515
H394	H	0.556748	0.010166	-0.000079
H395	H	0.890081	0.343499	0.333254
H396	H	1.223414	0.676832	0.666588
H397	H	0.839508	0.053446	-0.265183
H398	H	1.172842	0.386779	0.068151
H399	H	1.506175	0.720113	0.401484
C400	C	0.930798	-0.044078	-0.115751
C401	C	1.264131	0.289256	0.217582
C402	C	1.597464	0.622589	0.550915
N403	N	0.931175	-0.019446	-0.161388
N404	N	1.264509	0.313888	0.171945
N405	N	1.597842	0.647221	0.505279
C406	C	0.826082	0.042934	-0.859448
C407	C	1.159415	0.376267	-0.526115
C408	C	1.492748	0.709601	-0.192781
N409	N	0.786926	0.012511	-0.885800
N410	N	1.120259	0.345845	-0.552466
N411	N	1.453593	0.679178	-0.219133
C412	C	0.826066	0.042931	-0.725892
C413	C	1.159399	0.376264	-0.392559
C414	C	1.492732	0.709597	-0.059225
N415	N	0.786897	0.012511	-0.699562
N416	N	1.120230	0.345845	-0.366229
N417	N	1.453564	0.679178	-0.032895
C418	C	0.778774	0.006231	-0.433317
C419	C	1.112108	0.339564	-0.099984
C420	C	1.445441	0.672898	0.233350
N421	N	0.739601	-0.024187	-0.406989
N422	N	1.072935	0.309146	-0.073655
N423	N	1.406268	0.642480	0.259678
H424	H	1.010963	0.186682	-0.149760
H425	H	1.344296	0.520015	0.183573
H426	H	1.677629	0.853349	0.516906
