data_functionalizedCrystal
_audit_creation_method	'MofGen! by Chris Wilmer'
_symmetry_space_group_name_H-M	'P1'
_symmetry_Int_Tables_number	1
_symmetry_cell_setting	triclinic
loop_
_symmetry_equiv_pos_as_xyz
  x,y,z
_cell_length_a	18.101390
_cell_length_b	14.908571
_cell_length_c	14.908520
_cell_angle_alpha	90.205961
_cell_angle_beta	86.735556
_cell_angle_gamma	93.312229
loop_
_atom_site_label
_atom_site_type_symbol
_atom_site_fract_x
_atom_site_fract_y
_atom_site_fract_z
Zn1	Zn	-0.503463	-1.353961	0.437368
Zn2	Zn	-0.386327	-1.345179	0.587742
Zn3	Zn	-0.372116	-1.203597	0.428720
Zn4	Zn	-0.502607	-1.194889	0.578992
O5	O	-0.441128	-1.274407	0.508206
O6	O	-0.494230	-1.478621	0.464597
O7	O	-0.280810	-1.326367	0.566690
O8	O	-0.383951	-1.230863	0.304046
O9	O	-0.408171	-1.472169	0.575076
O10	O	-0.480450	-1.341335	0.310400
O11	O	-0.270369	-1.222347	0.449857
O12	O	-0.383121	-1.076617	0.441373
O13	O	-0.606353	-1.216022	0.560163
O14	O	-0.478992	-1.070220	0.551777
O15	O	-0.606982	-1.332891	0.456113
O16	O	-0.407341	-1.317923	0.712403
O17	O	-0.492771	-1.207506	0.705974
C18	C	-0.429422	-1.040793	0.494688
C19	C	-0.424432	-0.940851	0.488927
C20	C	-0.451523	-1.260841	0.741814
C21	C	-0.455998	-1.255119	0.841757
C22	C	-0.634289	-1.274465	0.508127
C23	C	-0.716603	-1.274490	0.508093
C24	C	-1.015694	-1.274541	0.508040
C25	C	-0.984787	-1.348287	0.442832
C26	C	-0.899146	-1.348085	0.442562
C27	C	-0.867312	-1.274516	0.508066
C28	C	-0.892498	-1.181275	0.476848
C29	C	-0.978141	-1.181722	0.476353
C30	C	-0.989561	-1.293193	0.604596
C31	C	-0.903993	-1.295299	0.604230
C32	C	-0.783452	-1.274496	0.508082
C33	C	-1.099553	-1.274555	0.508021
C34	C	-0.248718	-1.274404	0.508222
C35	C	-0.166403	-1.274568	0.508013
C36	C	-0.452881	-1.508932	0.521777
C37	C	-0.457889	-1.608873	0.527560
C38	C	-0.514767	-0.746426	0.593243
C39	C	-0.510082	-0.652521	0.587833
C40	C	-0.410380	-0.659136	0.472692
C41	C	-0.415065	-0.753041	0.478102
C42	C	-0.467260	-0.796682	0.538381
C43	C	-0.471941	-0.890588	0.543795
C44	C	-0.372244	-0.897201	0.428650
C45	C	-0.367558	-0.803297	0.423239
C46	C	-0.430711	-1.288050	0.273687
C47	C	-0.426272	-1.293864	0.173748
C48	C	-0.375532	-1.359464	1.036201
C49	C	-0.379735	-1.354092	1.130107
C50	C	-0.468610	-1.239007	1.123477
C51	C	-0.464407	-1.244379	1.029571
C52	C	-0.417866	-1.304609	0.985937
C53	C	-0.413659	-1.309977	0.892029
C54	C	-0.502538	-1.194897	0.885401
C55	C	-0.506741	-1.189524	0.979307
H56	H	-0.882371	-1.417396	0.462743
H57	H	-0.345264	-1.398762	1.171029
H58	H	-0.514440	-0.926119	0.592879
H59	H	-1.015645	-1.359705	0.631959
C60	C	-0.923580	-1.322496	0.288406
C61	C	-0.866175	-1.331995	0.346150
H62	H	-0.903223	-1.312556	0.228884
H63	H	-0.955200	-1.375643	0.290013
H64	H	-0.951241	-1.272834	0.307155
H65	H	-0.838517	-1.381661	0.327405
H66	H	-0.834543	-1.278842	0.344539
C67	C	-0.329621	-1.418790	0.895191
C68	C	-0.324371	-1.425660	0.988230
H69	H	-0.298032	-1.459653	0.865578
H70	H	-0.379349	-1.432801	0.880512
H71	H	-0.315031	-1.359256	0.876384
H72	H	-0.338967	-1.485192	1.007038
H73	H	-0.274633	-1.411655	1.002916
H74	H	-0.537007	-1.150227	0.844464
H75	H	-0.866948	-1.164407	0.406855
H76	H	-1.009624	-1.417840	0.462827
C77	C	-0.805263	-1.387956	0.638868
C78	C	-0.882436	-1.387888	0.635874
H79	H	-0.791949	-1.445114	0.658404
H80	H	-0.782927	-1.375758	0.580665
H81	H	-0.788579	-1.343049	0.679579
H82	H	-0.899119	-1.432791	0.595159
H83	H	-0.904780	-1.400097	0.694086
H84	H	-1.002407	-1.336553	0.371816
C85	C	-0.552644	-1.130183	1.120315
C86	C	-0.557894	-1.123318	1.027275
H87	H	-0.584220	-1.089303	1.149924
H88	H	-0.567244	-1.189703	1.139127
H89	H	-0.502906	-1.116184	1.134991
H90	H	-0.607631	-1.137323	1.012598
H91	H	-0.543298	-1.063784	1.008456
H92	H	-0.994004	-1.165271	0.405609
H93	H	-0.998314	-1.125200	0.521484
H94	H	-0.882645	-1.245055	0.655868
H95	H	-0.506507	-1.189977	1.159021
C96	C	-0.335150	-1.044086	0.385816
C97	C	-0.320019	-0.952446	0.368339
H98	H	-0.302910	-1.078189	0.348581
H99	H	-0.327688	-1.055962	0.447093
H100	H	-0.385113	-1.060257	0.373610
H101	H	-0.270058	-0.936273	0.380551
H102	H	-0.327475	-0.940564	0.307048
H103	H	-0.871631	-1.125073	0.522641
H104	H	-1.009572	-1.239417	0.653251
H105	H	-0.548769	-0.611606	0.632506
C106	C	-0.612846	-0.730459	0.706515
C107	C	-0.572137	-0.794403	0.659499
H108	H	-0.648267	-0.760080	0.747414
H109	H	-0.580235	-0.691828	0.738751
H110	H	-0.637655	-0.696113	0.665263
H111	H	-0.547323	-0.828745	0.700751
H112	H	-0.604753	-0.833049	0.627262
C113	C	-0.358977	-0.518122	0.413225
C114	C	-0.353040	-0.611156	0.406402
H115	H	-0.323581	-0.488503	0.372294
H116	H	-0.407411	-0.503548	0.399283
H117	H	-0.349952	-0.499219	0.472727
H118	H	-0.362070	-0.630061	0.346902
H119	H	-0.304594	-0.625737	0.420338
H120	H	-0.325065	-0.767751	0.374160
H121	H	-0.375761	-1.359016	0.856502
