data_functionalizedCrystal
_audit_creation_method	'MofGen! by Chris Wilmer'
_symmetry_space_group_name_H-M	'P1'
_symmetry_Int_Tables_number	1
_symmetry_cell_setting	triclinic
loop_
_symmetry_equiv_pos_as_xyz
  x,y,z
_cell_length_a	27.732066
_cell_length_b	14.421503
_cell_length_c	15.944493
_cell_angle_alpha	90.010165
_cell_angle_beta	83.062572
_cell_angle_gamma	90.001079
loop_
_atom_site_label
_atom_site_type_symbol
_atom_site_fract_x
_atom_site_fract_y
_atom_site_fract_z
O1	O	-0.641345	0.076914	-0.100009
O2	O	-0.500617	0.076955	-0.115190
O3	O	-0.574839	0.076941	0.014729
O4	O	-0.567124	0.076928	-0.229928
O5	O	-0.574827	-0.077283	0.014709
O6	O	-0.500605	-0.077269	-0.115209
O7	O	-0.641333	-0.077310	-0.100028
Cu8	Cu	-0.570968	-0.091371	-0.107620
Cu9	Cu	-0.570982	0.091016	-0.107598
O10	O	-0.567111	-0.077296	-0.229947
C11	C	-0.482603	-0.000152	-0.114879
C12	C	-0.428944	-0.000135	-0.113912
C13	C	-0.051521	-0.000171	-0.030555
C14	C	-0.253196	-0.000154	-0.034113
O15	O	-0.284176	-0.000186	0.030566
N16	N	-0.272648	-0.000154	-0.111153
C17	C	-0.241678	-0.000166	-0.187309
O18	O	-0.262850	-0.000175	-0.252918
C19	C	-0.040003	-0.000189	-0.183750
C20	C	-0.020555	-0.000179	-0.106705
C21	C	-0.032072	-0.000162	0.046484
C22	C	0.018344	-0.000161	0.047372
C23	C	0.049311	-0.000169	-0.028778
C24	C	0.029861	-0.000178	-0.105817
C25	C	-0.009034	-0.000207	-0.259906
C26	C	0.041387	-0.000215	-0.259009
C27	C	0.060836	-0.000205	-0.181964
C28	C	0.111243	-0.000186	-0.181078
N29	N	0.130695	-0.000185	-0.104038
C30	C	0.099729	-0.000177	-0.027888
C31	C	-0.347560	-0.000151	-0.189172
C32	C	-0.397978	-0.000144	-0.190062
C33	C	-0.409493	-0.000133	-0.036866
C34	C	-0.359074	-0.000134	-0.035977
C35	C	-0.328108	-0.000150	-0.112132
C36	C	0.205606	-0.000174	-0.026028
C37	C	0.256027	-0.000170	-0.025146
C38	C	0.267538	-0.000185	-0.178342
C39	C	0.217121	-0.000185	-0.179224
C40	C	0.186156	-0.000182	-0.103060
O41	O	0.142252	-0.000164	-0.245722
O42	O	0.120911	-0.000188	0.037711
C43	C	-0.101937	-0.000172	-0.031444
C44	C	-0.121386	-0.000181	-0.108483
C45	C	-0.090420	-0.000189	-0.184633
C46	C	-0.171805	-0.000173	-0.109373
C47	C	-0.202771	-0.000165	-0.033222
C48	C	-0.183319	-0.000164	0.043818
C49	C	-0.132903	-0.000163	0.044706
C50	C	-0.109872	-0.000190	-0.261673
C51	C	-0.160288	-0.000189	-0.262555
C52	C	-0.191254	-0.000181	-0.186405
C53	C	0.340652	-0.000193	-0.100337
C54	C	0.286993	-0.000178	-0.101296
N55	N	-0.570961	-0.219652	-0.107636
C56	C	-0.574517	-0.000167	0.046010
C57	C	-0.573572	-0.000155	0.139246
C58	C	-0.536635	-0.469300	-0.167684
C59	C	-0.580310	-0.531116	-0.183425
C60	C	-0.570973	-0.408814	-0.107616
C61	C	-0.527309	-0.531091	-0.091894
C62	C	-0.570980	-0.591535	-0.107598
C63	C	-0.614670	-0.469270	-0.123395
C64	C	-0.561641	-0.469239	-0.031831
C65	C	-0.605347	-0.531028	-0.047540
C66	C	-0.570968	-0.303553	-0.107628
C67	C	-0.570990	-0.696794	-0.107585
N68	N	-0.570993	0.219297	-0.107575
C69	C	-0.567433	-0.000186	-0.261228
C70	C	-0.568378	-0.000192	-0.354464
C71	C	-0.617261	-0.000185	0.375572
C72	C	-0.593707	0.075861	0.425845
C73	C	-0.571820	-0.000166	0.309945
C74	C	-0.593684	-0.076191	0.425802
C75	C	-0.570132	-0.000180	0.474832
C76	C	-0.548279	0.075944	0.358989
C77	C	-0.548263	-0.076177	0.358942
C78	C	-0.524676	-0.000112	0.409181
C79	C	-0.572794	-0.000157	0.214957
C80	C	-0.569154	-0.000183	0.569817
H81	H	-0.057280	-0.000158	0.108498
H82	H	-0.434715	-0.000123	0.025139
H83	H	-0.024860	-0.000211	-0.322644
H84	H	-0.084663	-0.000198	-0.323685
H85	H	-0.656402	-0.000120	0.360451
H86	H	-0.413809	-0.000139	-0.252800
N87	N	-0.663597	-0.433454	-0.141098
H88	H	-0.659492	-0.394478	-0.194103
H89	H	-0.685736	-0.487536	-0.149043
H90	H	-0.507626	-0.442196	-0.218521
H91	H	-0.553726	-0.442039	0.032230
N92	N	-0.590780	-0.567120	-0.268304
H93	H	-0.564822	-0.544672	-0.313649
H94	H	-0.591029	-0.637144	-0.267418
N95	N	-0.478393	-0.567055	-0.074287
H96	H	-0.471073	-0.543580	-0.017495
H97	H	-0.478883	-0.637080	-0.073912
N98	N	-0.522860	-0.161318	0.320216
H99	H	-0.488078	-0.161922	0.333056
H100	H	-0.540095	-0.218692	0.344655
N101	N	-0.643854	-0.566713	0.019763
H102	H	-0.676805	-0.544103	0.007782
H103	H	-0.643415	-0.636740	0.019696
N104	N	-0.619100	-0.161355	0.464440
H105	H	-0.647263	-0.141967	0.506974
H106	H	-0.631534	-0.199668	0.418564
N107	N	-0.619129	0.161009	0.464532
H108	H	-0.654081	0.160945	0.452620
H109	H	-0.617978	0.160629	0.527600
H110	H	-0.485505	-0.000059	0.424139
N111	N	0.277004	-0.000156	0.057956
H112	H	0.249733	-0.000155	0.106059
H113	H	0.297671	-0.057328	0.061658
N114	N	0.172213	-0.000175	0.056118
H115	H	0.192191	-0.000169	0.105050
H116	H	0.151043	0.056998	0.059096
N117	N	-0.522879	0.161196	0.320505
H118	H	-0.523696	0.160689	0.257349
H119	H	-0.539921	0.218512	0.345518
H120	H	-0.343242	-0.000127	0.026760
N121	N	0.039318	-0.000159	0.130471
H122	H	0.012044	-0.000157	0.178570
H123	H	0.059982	-0.057336	0.134172
H124	H	0.066598	-0.000233	-0.321026
N125	N	-0.314180	-0.000173	-0.271334
H126	H	-0.292998	0.056990	-0.274403
H127	H	-0.293041	-0.057389	-0.274354
N128	N	0.196140	-0.000182	-0.262319
H129	H	0.223410	-0.000184	-0.310425
H130	H	0.175475	-0.057359	-0.266030
H131	H	-0.117073	-0.000155	0.107444
N132	N	0.300942	-0.000190	-0.260472
H133	H	0.335831	-0.000192	-0.248211
H134	H	0.294644	-0.057368	-0.294078
H135	H	-0.208541	-0.000152	0.105822
N136	N	-0.181262	-0.000186	-0.345659
H137	H	-0.153990	-0.000192	-0.393761
H138	H	-0.201929	-0.057360	-0.349374
