data_functionalizedCrystal
_audit_creation_method	'MofGen! by Chris Wilmer'
_symmetry_space_group_name_H-M	'P1'
_symmetry_Int_Tables_number	1
_symmetry_cell_setting	triclinic
loop_
_symmetry_equiv_pos_as_xyz
  x,y,z
_cell_length_a	14.853567
_cell_length_b	14.853567
_cell_length_c	13.930277
_cell_angle_alpha	90.004245
_cell_angle_beta	89.999243
_cell_angle_gamma	96.365070
loop_
_atom_site_label
_atom_site_type_symbol
_atom_site_fract_x
_atom_site_fract_y
_atom_site_fract_z
O1	O	0.117704	-1.196368	-0.079756
O2	O	0.131725	-0.933909	-0.079772
O3	O	-0.006516	-1.072149	-0.079767
O4	O	0.255944	-1.058128	-0.079762
O5	O	-0.006519	-1.072130	0.079895
O6	O	0.131722	-0.933890	0.079890
O7	O	0.117701	-1.196349	0.079905
Zn8	Zn	0.124711	-1.065116	0.105247
Zn9	Zn	0.124715	-1.065142	-0.105114
O10	O	0.255941	-1.058109	0.079900
C11	C	0.131088	-0.900311	0.000057
C12	C	0.129184	-0.800227	0.000051
C13	C	-0.040106	-1.071504	0.000061
C14	C	-0.140189	-1.069601	0.000053
C15	C	0.118337	-1.229947	0.000075
C16	C	0.120241	-1.330031	0.000075
C17	C	-0.552723	-0.979435	0.000066
C18	C	-0.574004	-1.143668	0.000076
C19	C	-0.479971	-1.145458	0.000070
C20	C	-0.422309	-1.064235	0.000064
C21	C	-0.458680	-0.981223	0.000063
C22	C	-0.443591	-1.228469	0.000080
C23	C	-0.349552	-1.230262	0.000076
C24	C	-0.291889	-1.149039	0.000063
C25	C	-0.328266	-1.066023	0.000061
C26	C	-0.270604	-0.984800	0.000055
C27	C	-0.306979	-0.901783	0.000047
C28	C	-0.401017	-0.899999	0.000050
C29	C	-0.197851	-1.150823	0.000059
C30	C	-0.176561	-0.986588	0.000052
C31	C	0.289531	-1.058754	0.000070
C32	C	0.389615	-1.060657	0.000072
N33	N	0.124708	-1.065106	0.248814
C34	C	0.039019	-0.387693	0.000070
C35	C	0.203251	-0.366412	0.000073
C36	C	0.205042	-0.460446	0.000070
C37	C	0.123819	-0.518108	0.000066
C38	C	0.040806	-0.481736	0.000065
C39	C	0.288053	-0.496825	0.000061
C40	C	0.289846	-0.590864	0.000057
C41	C	0.208623	-0.648528	0.000060
C42	C	0.125607	-0.612150	0.000060
C43	C	0.044384	-0.669812	0.000056
C44	C	-0.038633	-0.633437	0.000063
C45	C	-0.040417	-0.539399	0.000067
C46	C	0.210407	-0.742565	0.000055
C47	C	0.046172	-0.763855	0.000050
N48	N	0.124711	-1.065160	-0.248680
C49	C	0.185904	-1.003926	0.701081
C50	C	0.063519	-1.126382	0.701055
C51	C	0.063516	-1.126371	0.600559
C52	C	0.124709	-1.065138	0.550319
C53	C	0.185904	-1.003916	0.600576
C54	C	0.002328	-1.187598	0.550295
C55	C	0.002323	-1.187591	0.449793
C56	C	0.063512	-1.126353	0.399552
C57	C	0.124710	-1.065127	0.449814
C58	C	0.185902	-1.003894	0.399575
C59	C	0.247096	-0.942664	0.449835
C60	C	0.247094	-0.942677	0.550334
C61	C	0.063515	-1.126339	0.299053
C62	C	0.185903	-1.003883	0.299070
H63	H	-0.129618	-0.920445	0.000043
H64	H	-0.490546	-1.294596	0.000094
O65	O	0.245473	-0.944489	0.250314
C66	C	0.402140	-0.891809	0.219626
C67	C	0.334778	-0.959136	0.274882
H68	H	0.474357	-0.903615	0.239484
H69	H	0.391714	-0.902317	0.139151
H70	H	0.390208	-0.819601	0.239386
H71	H	0.346668	-1.031371	0.255202
H72	H	0.345220	-0.948549	0.355344
H73	H	-0.260019	-0.835652	0.000048
O74	O	-0.057198	-1.246946	0.599147
C75	C	-0.180243	-1.265974	0.712671
C76	C	-0.112891	-1.198666	0.657379
H77	H	-0.225275	-1.226967	0.759780
H78	H	-0.224049	-1.309728	0.659542
H79	H	-0.141214	-1.311068	0.759678
H80	H	-0.151847	-1.153514	0.610371
H81	H	-0.069085	-1.154976	0.710560
H82	H	-0.028572	-0.358072	0.000080
O83	O	-0.436502	-0.819441	0.000094
C84	C	-0.571944	-0.743908	0.000053
C85	C	-0.531874	-0.835200	0.000021
H86	H	-0.649057	-0.756617	-0.000027
H87	H	-0.548268	-0.703746	0.066885
H88	H	-0.548161	-0.703770	-0.066752
H89	H	-0.555638	-0.875411	0.066780
H90	H	-0.555545	-0.875293	-0.066855
H91	H	-0.047505	-1.237447	0.408877
H92	H	0.357443	-0.620472	0.000051
H93	H	0.013696	-1.176196	0.258136
H94	H	0.269379	-0.319459	0.000068
O95	O	-0.117554	-0.689417	-0.000115
C96	C	-0.257397	-0.736357	-0.082808
C97	C	-0.168048	-0.672919	-0.082736
H98	H	-0.298255	-0.723028	-0.149590
H99	H	-0.241904	-0.809831	-0.082882
H100	H	-0.298208	-0.723133	-0.015957
H101	H	-0.127193	-0.686062	-0.149576
H102	H	-0.183604	-0.599466	-0.082613
H103	H	0.277998	-0.772178	0.000051
H104	H	-0.168238	-1.218414	0.000072
H105	H	-0.319944	-1.297860	0.000082
H106	H	0.354180	-0.449870	0.000054
O107	O	-0.120975	-0.503915	0.000025
C108	C	-0.196508	-0.368473	0.000082
C109	C	-0.105217	-0.408543	0.000110
H110	H	-0.183799	-0.291360	0.000170
H111	H	-0.236664	-0.392146	-0.066754
H112	H	-0.236653	-0.392258	0.066883
H113	H	-0.064999	-0.384776	-0.066646
H114	H	-0.065130	-0.384873	0.066989
H115	H	-0.582344	-0.911844	0.000055
H116	H	0.296916	-0.892827	0.591263
H117	H	0.296924	-0.892811	0.408919
H118	H	-0.620958	-1.209795	0.000088
O119	O	0.245253	-0.944325	0.749856
C120	C	0.297819	-0.787636	0.780583
C121	C	0.230543	-0.855035	0.725301
H122	H	0.285963	-0.715431	0.760735
H123	H	0.287307	-0.798078	0.861054
H124	H	0.370045	-0.799512	0.760835
H125	H	0.158291	-0.843201	0.744968
H126	H	0.241134	-0.844578	0.644843
H127	H	-0.019971	-0.810798	0.000050
H128	H	0.013702	-1.176240	0.741963
