data_functionalizedCrystal
_audit_creation_method	'MofGen! by Chris Wilmer'
_symmetry_space_group_name_H-M	'P1'
_symmetry_Int_Tables_number	1
_symmetry_cell_setting	triclinic
loop_
_symmetry_equiv_pos_as_xyz
  x,y,z
_cell_length_a	27.440280
_cell_length_b	17.052863
_cell_length_c	17.052862
_cell_angle_alpha	79.480343
_cell_angle_beta	90.004253
_cell_angle_gamma	50.256474
loop_
_atom_site_label
_atom_site_type_symbol
_atom_site_fract_x
_atom_site_fract_y
_atom_site_fract_z
Zr1	Zr	0.383787	0.886973	0.027424
O2	O	0.301613	1.025895	-0.065038
O3	O	0.421850	0.723264	0.039575
O4	O	0.421850	0.851214	-0.088375
O5	O	0.286972	0.934797	0.182261
O6	O	0.502052	0.851202	-0.088362
O7	O	0.301613	0.897945	0.062912
O8	O	0.502053	0.622324	0.140517
O9	O	0.286971	1.163675	-0.046617
O10	O	0.482386	0.799772	0.064332
O11	O	0.411605	0.827282	0.153392
O12	O	0.411605	0.977926	0.002747
O13	O	0.340823	1.005437	0.091807
Zr14	Zr	0.488349	0.945728	0.217794
Zr15	Zr	0.511701	0.886955	0.027445
Zr16	Zr	0.360435	0.945747	0.217774
Zr17	Zr	0.360435	1.106717	0.056803
Zr18	Zr	0.511702	0.725985	0.188415
O19	O	0.450287	1.109437	0.205643
O20	O	0.483491	1.025869	-0.065009
O21	O	0.268410	1.109463	0.205614
O22	O	0.570524	0.806806	0.310257
O23	O	0.603727	0.723238	0.039604
O24	O	0.388646	0.806832	0.310227
O25	O	0.585165	0.897905	0.062957
O26	O	0.450287	0.981488	0.333593
O27	O	0.370084	0.981499	0.333580
O28	O	0.570523	0.934756	0.182307
O29	O	0.388646	1.163661	-0.046601
O30	O	0.483491	0.669041	0.291819
O31	O	0.585166	0.669026	0.291836
O32	O	0.603727	0.622309	0.140533
O33	O	0.268410	1.210392	0.104685
O34	O	0.370084	1.210378	0.104701
O35	O	0.460532	0.854775	0.242471
O36	O	0.531314	0.827265	0.153411
O37	O	0.460532	1.005419	0.091826
O38	O	0.389751	1.032930	0.180886
C39	C	0.465279	0.641485	0.085860
C40	C	0.475192	0.548198	0.073388
C41	C	0.516795	0.490018	0.021034
C42	C	0.526111	0.402370	0.009313
C43	C	0.493820	0.372899	0.049941
C44	C	0.452212	0.431084	0.102292
C45	C	0.442900	0.518736	0.114019
C46	C	0.419925	0.401617	0.142926
C47	C	0.378317	0.459802	0.195277
C48	C	0.369006	0.547445	0.207001
C49	C	0.401297	0.576916	0.166373
C50	C	0.429237	0.313966	0.131200
C51	C	0.355341	0.342684	0.224184
C52	C	0.346026	0.430332	0.235905
C53	C	0.276068	0.916374	0.122584
C54	C	0.221765	0.916381	0.122575
C55	C	-0.077987	0.823344	0.154777
C56	C	-0.129006	0.823340	0.154784
O57	O	-0.123975	0.744260	0.182151
N58	N	-0.191469	0.916333	0.122637
C59	C	-0.202915	1.009339	0.090488
O60	O	-0.260730	1.088437	0.063145
C61	C	-0.151897	1.009344	0.090486
C62	C	-0.089433	0.916342	0.122629
C63	C	-0.015526	0.730350	0.186918
C64	C	0.035490	0.730354	0.186909
C65	C	0.024043	0.823352	0.154761
C66	C	-0.038418	0.916346	0.122620
C67	C	-0.163344	1.102350	0.058343
C68	C	-0.112320	1.102347	0.058345
C69	C	-0.049856	1.009345	0.090487
C70	C	0.001151	1.009348	0.090463
N71	N	0.063615	0.916355	0.122610
C72	C	0.075061	0.823357	0.154759
C73	C	-0.310053	1.009323	0.090494
C74	C	-0.361069	1.009317	0.090490
C75	C	-0.287156	0.823318	0.154789
C76	C	-0.236139	0.823323	0.154787
C77	C	-0.247589	0.916329	0.122642
C78	C	0.182194	0.823372	0.154738
C79	C	0.233211	0.823383	0.154724
C80	C	0.159293	1.009383	0.090430
C81	C	0.108281	1.009371	0.090440
C82	C	0.119736	0.916358	0.122600
O83	O	-0.003832	1.088389	0.063113
O84	O	0.132876	0.744275	0.182107
C85	C	0.596069	0.916328	0.122635
C86	C	0.650372	0.916320	0.122643
C87	C	0.465278	0.842834	-0.115489
C88	C	0.475192	0.817883	-0.196297
C89	C	0.406858	1.191216	0.159358
C90	C	0.396945	1.284503	0.171830
C91	C	0.355338	1.119540	-0.552671
C92	C	0.346019	1.142985	-0.476749
C93	C	0.378312	1.061712	-0.406633
C94	C	0.419924	0.956988	-0.412445
C95	C	0.429239	0.933540	-0.488375
C96	C	0.452213	0.875713	-0.342336
C97	C	0.493825	0.770989	-0.348149
C98	C	0.503139	0.747546	-0.424072
C99	C	0.470846	0.828819	-0.494188
C100	C	0.442898	0.899161	-0.266407
C101	C	0.516799	0.713162	-0.202110
C102	C	0.526117	0.689716	-0.278033
C103	C	0.406859	0.989867	0.360707
C104	C	0.396945	1.014818	0.441515
C105	C	0.625279	0.641462	0.085886
C106	C	0.689496	0.548167	0.073422
C107	C	0.436069	0.715002	0.323958
C108	C	0.436069	0.646666	0.392294
C109	C	0.596070	0.714979	0.323984
C110	C	0.650373	0.646635	0.392328
C111	C	0.276067	1.117723	-0.078766
C112	C	0.221764	1.186067	-0.147110
C113	C	0.246857	1.191239	0.159332
C114	C	0.182641	1.284534	0.171796
C115	C	0.436068	1.117700	-0.078740
C116	C	0.436068	1.186036	-0.147076
C117	C	0.694114	0.490002	0.021063
C118	C	0.754448	0.402348	0.009336
C119	C	0.810164	0.372857	0.049973
C120	C	0.805543	0.431032	0.102335
C121	C	0.745210	0.518689	0.114057
C122	C	0.461607	0.628928	0.470892
C123	C	0.461603	0.564733	0.535110
C124	C	0.436064	0.518272	0.520728
C125	C	0.410522	0.536015	0.442122
C126	C	0.410522	0.600215	0.377907
C127	C	0.712826	0.600180	0.377936
C128	C	0.763854	0.535973	0.442147
C129	C	0.752428	0.518217	0.520750
C130	C	0.689967	0.564681	0.535142
C131	C	0.638940	0.628892	0.470932
C132	C	0.159309	1.232532	-0.132716
C133	C	0.108279	1.296766	-0.196924
C134	C	0.119705	1.314526	-0.275526
C135	C	0.182166	1.268058	-0.289919
C136	C	0.233195	1.203831	-0.225711
C137	C	0.178023	1.342706	0.224149
C138	C	0.117689	1.430378	0.235858
C139	C	0.061973	1.459871	0.195218
C140	C	0.066594	1.401693	0.142859
C141	C	0.126927	1.314028	0.131146
C142	C	0.461613	1.232478	-0.132669
C143	C	0.461625	1.296678	-0.196872
C144	C	0.436088	1.314440	-0.275481
C145	C	0.410543	1.267989	-0.289888
C146	C	0.410535	1.203785	-0.225686
H147	H	0.463114	0.266598	0.088575
N148	N	0.489156	0.545600	0.619884
H149	H	0.505340	0.584768	0.619243
H150	H	0.525802	0.467959	0.641657
H151	H	-0.319385	1.085064	0.064315
H152	H	0.648755	0.514007	-0.012041
N153	N	0.489167	1.213312	-0.047889
H154	H	0.454776	1.238938	-0.012273
H155	H	0.505360	1.252471	-0.048584
H156	H	0.057425	1.334591	-0.185189
N157	N	-0.428437	1.109628	0.055821
H158	H	-0.459026	1.095525	0.060701
H159	H	-0.430174	1.136433	-0.002934
N160	N	-0.003099	1.554425	0.207855
H161	H	0.002436	1.586794	0.247191
H162	H	-0.027630	1.532024	0.230208
H163	H	0.191530	0.747632	0.180926
H164	H	0.482425	1.334494	-0.185126
H165	H	0.501407	0.301532	0.040395
H166	H	0.559988	0.354998	-0.033309
H167	H	0.130679	1.266665	0.088518
H168	H	0.389728	0.614645	0.313910
N169	N	0.300558	1.153694	-0.241249
H170	H	0.331157	1.110305	-0.188653
H171	H	0.302294	1.210262	-0.265877
H172	H	0.329046	1.185701	-0.609764
H173	H	-0.214198	1.178083	0.032170
H174	H	0.793983	0.465930	0.573027
H175	H	0.436097	1.366721	-0.327751
H176	H	0.478432	0.809735	-0.556013
N177	N	0.725161	0.619312	0.293160
H178	H	0.772471	0.580134	0.293798
H179	H	0.700113	0.696951	0.271387
N180	N	0.064667	1.383785	-0.344780
H181	H	0.061390	1.445242	-0.371604
H182	H	0.023401	1.410442	-0.323671
N183	N	0.382996	1.287160	-0.374675
H184	H	0.366810	1.247999	-0.374069
H185	H	0.417421	1.261550	-0.410233
N186	N	0.398025	1.012103	-0.260135
H187	H	0.353444	1.048684	-0.287408
H188	H	0.413596	1.048587	-0.287389
N189	N	0.382980	1.153697	-0.241230
H190	H	0.366805	1.174699	-0.300772
H191	H	0.346328	1.178065	-0.209727
N192	N	0.759423	0.339614	-0.047141
H193	H	0.714971	0.371597	-0.071097
H194	H	0.783347	0.264800	-0.016218
H195	H	0.370722	1.080808	-0.344815
N196	N	0.102859	0.630044	0.221575
H197	H	0.102359	0.571138	0.241939
H198	H	0.120158	0.639791	0.267692
N199	N	0.040910	1.109684	0.055770
H200	H	0.012617	1.127635	0.099059
H201	H	0.023624	1.099964	0.009616
N202	N	0.551618	0.521805	-0.022784
H203	H	0.539403	0.586159	-0.007411
H204	H	0.539325	0.538043	-0.082953
N205	N	0.677648	0.545524	0.619923
H206	H	0.719454	0.497792	0.658408
H207	H	0.658087	0.511386	0.622103
H208	H	0.436067	0.465999	0.573023
H209	H	-0.185281	0.747595	0.180968
N210	N	0.006499	1.433494	0.099044
H211	H	-0.032419	1.497850	0.114421
H212	H	0.005896	1.374088	0.114523
H213	H	0.859287	0.301479	0.040422
N214	N	0.391246	0.671457	0.179012
H215	H	0.418013	0.681297	0.145327
H216	H	0.404536	0.660327	0.237922
H217	H	0.191462	1.282527	-0.353925
H218	H	0.335133	0.594810	0.249637
H219	H	0.223382	1.318704	0.257250
H220	H	0.149984	1.085099	0.064252
N221	N	0.112714	1.493115	0.292332
H222	H	0.157166	1.461116	0.316303
H223	H	0.088790	1.492303	0.337031
N224	N	0.865643	0.399200	0.146166
H225	H	0.866314	0.382903	0.206347
H226	H	0.866288	0.458559	0.130667
H227	H	0.741458	0.566039	0.156697
H228	H	0.312149	0.477718	0.278530
H229	H	0.312139	1.228252	-0.472023
H230	H	0.329047	0.318691	0.257266
N231	N	-0.124671	1.202664	0.023674
H232	H	-0.171984	1.261571	0.003315
H233	H	-0.099634	1.192915	-0.022448
N234	N	0.300583	0.723064	0.189390
H235	H	0.302378	0.696213	0.248161
H236	H	0.331133	0.737242	0.184452
N237	N	-0.274814	0.723009	0.189464
H238	H	-0.316615	0.737126	0.184588
H239	H	-0.255244	0.696205	0.248219
N240	N	0.548025	0.634597	-0.430345
H241	H	0.567074	0.586667	-0.374408
H242	H	0.583543	0.620838	-0.460443
H243	H	0.482404	0.666753	0.482618
H244	H	0.389728	0.498177	0.430423
N245	N	0.831220	0.485853	0.426621
H246	H	0.833007	0.542369	0.402010
H247	H	0.843935	0.439118	0.388247
N248	N	0.570997	0.576770	-0.284312
H249	H	0.546461	0.562900	-0.314385
H250	H	0.590033	0.528907	-0.228352
N251	N	0.551631	0.625493	-0.126493
H252	H	0.539419	0.656237	-0.077513
H253	H	0.599444	0.580781	-0.125723
N254	N	0.571583	0.678970	0.486462
H255	H	0.540986	0.722341	0.433864
H256	H	0.558878	0.725635	0.524893
H257	H	-0.006195	0.654616	0.213101
H258	H	0.149995	1.218076	-0.068720
