data_functionalizedCrystal
_audit_creation_method	'MofGen! by Chris Wilmer'
_symmetry_space_group_name_H-M	'P1'
_symmetry_Int_Tables_number	1
_symmetry_cell_setting	triclinic
loop_
_symmetry_equiv_pos_as_xyz
  x,y,z
_cell_length_a	15.298068
_cell_length_b	15.299816
_cell_length_c	15.296720
_cell_angle_alpha	110.757046
_cell_angle_beta	88.354818
_cell_angle_gamma	91.634773
loop_
_atom_site_label
_atom_site_type_symbol
_atom_site_fract_x
_atom_site_fract_y
_atom_site_fract_z
Zn1	Zn	1.291021	-0.271050	-0.780846
Zn2	Zn	1.333278	-0.393419	-0.658523
Zn3	Zn	1.168672	-0.262196	-0.607266
Zn4	Zn	1.168601	-0.444498	-0.789625
O5	O	1.240393	-0.342791	-0.709065
O6	O	1.416748	-0.269611	-0.782397
O7	O	1.329157	-0.350930	-0.524213
O8	O	1.167247	-0.135865	-0.605167
O9	O	1.447794	-0.359515	-0.692526
O10	O	1.257137	-0.142369	-0.732696
O11	O	1.208221	-0.254521	-0.486555
O12	O	1.048541	-0.304051	-0.613679
O13	O	1.167126	-0.446572	-0.915971
O14	O	1.048489	-0.437987	-0.747658
O15	O	1.257068	-0.319140	-0.909522
O16	O	1.329088	-0.527700	-0.701039
O17	O	1.208101	-0.565228	-0.797359
C18	C	1.017369	-0.375602	-0.676060
C19	C	0.921958	-0.389664	-0.661966
C20	C	0.588357	-0.242510	-0.809844
C21	C	0.678000	-0.229301	-0.823091
C22	C	0.738994	-0.269390	-0.782811
C23	C	0.710336	-0.322692	-0.729281
C24	C	0.620684	-0.335908	-0.716038
C25	C	0.771321	-0.362789	-0.689005
C26	C	0.742663	-0.416090	-0.635475
C27	C	0.653020	-0.429304	-0.622234
C28	C	0.592027	-0.389214	-0.662515
C29	C	0.860973	-0.349572	-0.702248
C30	C	0.893300	-0.442970	-0.608442
C31	C	0.803657	-0.456179	-0.595195
C32	C	1.273193	-0.579525	-0.755737
C33	C	1.287299	-0.680796	-0.775745
C34	C	1.140095	-0.952955	-0.566455
C35	C	1.126837	-0.857807	-0.547658
C36	C	1.166951	-0.813550	-0.604678
C37	C	1.220326	-0.864449	-0.680499
C38	C	1.233580	-0.959608	-0.699302
C39	C	1.260436	-0.820203	-0.737525
C40	C	1.313811	-0.871102	-0.813346
C41	C	1.327062	-0.966251	-0.832145
C42	C	1.286948	-1.010509	-0.775126
C43	C	1.247182	-0.725044	-0.718721
C44	C	1.340667	-0.731697	-0.851568
C45	C	1.353925	-0.826845	-0.870366
C46	C	1.464288	-0.309852	-0.742200
C47	C	1.559699	-0.295816	-0.756320
C48	C	1.207376	-0.389541	-0.946733
C49	C	1.193305	-0.409463	-1.048013
C50	C	1.207486	-0.105132	-0.662235
C51	C	1.193463	-0.003856	-0.642278
C52	C	1.340964	-0.200239	-1.320075
C53	C	1.354189	-0.181522	-1.224918
C54	C	1.313969	-0.238505	-1.180687
C55	C	1.260522	-0.314210	-1.231622
C56	C	1.247301	-0.332933	-1.326789
C57	C	1.220306	-0.371199	-1.187402
C58	C	1.166859	-0.446904	-1.238337
C59	C	1.153640	-0.465623	-1.333494
C60	C	1.193860	-0.408640	-1.377725
C61	C	1.233527	-0.352476	-1.092234
C62	C	1.139865	-0.485170	-1.098949
C63	C	1.126639	-0.503887	-1.194105
C64	C	1.273322	-0.296149	-0.472316
C65	C	1.287523	-0.275946	-0.371011
H66	H	0.701326	-0.185906	-0.866679
H67	H	1.297743	-1.087985	-0.790424
C68	C	1.095618	-0.547855	-1.050298
N69	N	1.062294	-0.595065	-1.013649
C70	C	1.152370	-0.708883	-0.583994
N71	N	1.141388	-0.630042	-0.568408
C72	C	1.096044	-1.001623	-0.503688
N73	N	1.062888	-1.038274	-0.456387
C74	C	1.385777	-1.022238	-0.915550
N75	N	1.430005	-1.064405	-0.978368
C76	C	1.068106	-0.801831	-0.464274
N77	N	1.023860	-0.759671	-0.401470
C78	C	1.412631	-0.882848	-0.953771
N79	N	1.456848	-0.925031	-1.016592
C80	C	1.328511	-0.217907	-1.076010
N81	N	1.339461	-0.202385	-0.997161
C82	C	1.384798	-0.683017	-0.914293
N83	N	1.418034	-0.646346	-0.961534
H84	H	1.373711	-0.153856	-1.356098
C85	C	1.094851	-0.548904	-1.389521
N86	N	1.050569	-0.611630	-1.431719
H87	H	0.811984	-0.258629	-0.793597
C88	C	0.521261	-0.198405	-0.854132
N89	N	0.470721	-0.165175	-0.887486
H90	H	0.519031	-0.399974	-0.651739
H91	H	1.277044	-0.290836	-1.050772
H92	H	1.083122	-0.565526	-1.235590
C93	C	0.621500	-0.487937	-0.563349
N94	N	0.597761	-0.532096	-0.518993
C95	C	0.892485	-0.290935	-0.761123
N96	N	0.916219	-0.246762	-0.805468
C97	C	1.412970	-0.098243	-1.168895
N98	N	1.457244	-0.035509	-1.126696
C99	C	0.772121	-0.514815	-0.536318
N100	N	0.748367	-0.558980	-0.491973
H101	H	0.942962	-0.475620	-0.575648
C102	C	1.179329	-0.429236	-1.482408
N103	N	1.168391	-0.444751	-1.561258
H104	H	1.203724	-0.683610	-0.656987
