data_functionalizedCrystal
_audit_creation_method	'MofGen! by Chris Wilmer'
_symmetry_space_group_name_H-M	'P1'
_symmetry_Int_Tables_number	1
_symmetry_cell_setting	triclinic
loop_
_symmetry_equiv_pos_as_xyz
  x,y,z
_cell_length_a	14.519709
_cell_length_b	18.366186
_cell_length_c	19.288865
_cell_angle_alpha	90.006786
_cell_angle_beta	96.591803
_cell_angle_gamma	89.999755
loop_
_atom_site_label
_atom_site_type_symbol
_atom_site_fract_x
_atom_site_fract_y
_atom_site_fract_z
O1	O	-1.223293	0.060455	0.091046
O2	O	-0.954748	0.060480	0.101769
O3	O	-1.096780	0.060452	-0.004695
O4	O	-1.081261	0.060482	0.197510
O5	O	-1.096762	-0.060647	-0.004691
O6	O	-0.954730	-0.060619	0.101772
O7	O	-1.223275	-0.060645	0.091050
Zn8	Zn	-1.088999	-0.079859	0.096412
Zn9	Zn	-1.089023	0.079694	0.096407
O10	O	-1.081242	-0.060617	0.197514
C11	C	-0.920382	-0.000067	0.101271
C12	C	-0.818010	-0.000058	0.099773
C13	C	-0.443150	-0.000089	0.094261
C14	C	-0.547448	-0.000080	0.095792
C15	C	-0.630577	-0.000073	0.097017
C16	C	-0.734882	-0.000065	0.098548
N17	N	-1.088990	-0.188750	0.096415
C18	C	-1.096272	-0.000100	-0.030571
C19	C	-1.094773	-0.000106	-0.107680
C20	C	-0.257640	-0.000095	0.091548
C21	C	-0.360012	-0.000093	0.093045
C22	C	-1.144795	-0.773299	0.138613
C23	C	-1.144785	-0.697071	0.138620
C24	C	-1.089032	-0.658962	0.096399
C25	C	-1.033266	-0.697086	0.054182
C26	C	-1.033271	-0.773313	0.054182
C27	C	-1.086739	-0.538204	0.033767
C28	C	-1.086742	-0.461979	0.033766
C29	C	-1.089014	-0.423854	0.096401
C30	C	-1.091303	-0.461963	0.159039
C31	C	-1.091307	-0.538190	0.159038
C32	C	-1.089021	-0.576307	0.096395
C33	C	-1.144761	-0.303084	0.138627
C34	C	-1.144744	-0.226854	0.138635
C35	C	-1.033231	-0.226871	0.054190
C36	C	-1.033242	-0.303099	0.054189
C37	C	-1.089012	-0.341201	0.096406
N38	N	-1.089040	0.188586	0.096399
C39	C	-1.178111	-0.000117	-0.152077
C40	C	-1.176702	-0.000106	-0.224529
C41	C	-1.091951	-0.000097	-0.252581
C42	C	-1.008602	-0.000082	-0.208175
C43	C	-1.010013	-0.000086	-0.135725
C44	C	-1.025321	-0.042509	-0.361107
C45	C	-1.023914	-0.042510	-0.433557
C46	C	-1.087597	-0.000080	-0.476043
C47	C	-1.152703	0.042339	-0.446071
C48	C	-1.154114	0.042335	-0.373621
C49	C	-1.090412	-0.000092	-0.331141
C50	C	-1.169414	-0.000078	-0.599000
C51	C	-1.168002	-0.000062	-0.671454
C52	C	-0.999899	-0.000045	-0.655098
C53	C	-1.001314	-0.000054	-0.582647
C54	C	-1.086073	-0.000074	-0.554602
C55	C	-1.081751	-0.000063	0.223390
C56	C	-1.083250	-0.000052	0.300499
H57	H	-1.190205	-0.804316	0.172991
C58	C	-0.971899	-0.184964	0.007749
H59	H	-0.938690	-0.218585	-0.017391
H60	H	-1.009816	-0.155227	-0.024154
H61	H	-0.929333	-0.155230	0.036150
C62	C	-1.084241	-0.580138	-0.035135
H63	H	-1.084562	-0.630993	-0.026165
H64	H	-1.137057	-0.567648	-0.066605
H65	H	-1.029544	-0.567650	-0.055135
H66	H	-1.247128	-0.000131	-0.129248
C67	C	-1.206129	-0.655135	0.185049
H68	H	-1.239350	-0.688744	0.210186
H69	H	-1.168217	-0.625391	0.216955
H70	H	-1.248685	-0.625407	0.156639
H71	H	-0.987867	-0.804346	0.019805
C72	C	-1.259679	-0.000076	-0.720290
H73	H	-1.310356	-0.000096	-0.693208
H74	H	-1.262637	0.042156	-0.748887
H75	H	-1.262607	-0.042310	-0.748899
H76	H	-1.244568	-0.000112	-0.260683
H77	H	-1.204560	0.076890	-0.480662
H78	H	-0.987870	-0.666053	0.019807
C79	C	-1.083975	-0.420063	-0.035103
H80	H	-1.084233	-0.369205	-0.026126
H81	H	-1.029211	-0.432631	-0.054971
H82	H	-1.136714	-0.432486	-0.066689
C83	C	-1.093813	-0.580111	0.227932
H84	H	-1.093496	-0.630967	0.218958
H85	H	-1.040995	-0.567618	0.259403
H86	H	-1.148508	-0.567618	0.247934
H87	H	-1.207124	0.076876	-0.349221
C88	C	-1.206077	-0.184927	0.185074
H89	H	-1.239296	-0.218539	0.210209
H90	H	-1.168156	-0.155190	0.216981
H91	H	-1.248634	-0.155192	0.156673
C92	C	-1.262643	-0.000092	-0.568148
H93	H	-1.312076	-0.000086	-0.604969
H94	H	-1.266683	-0.042325	-0.540234
H95	H	-1.266692	0.042140	-0.540217
C96	C	-0.906675	-0.000034	-0.685947
H97	H	-0.917769	-0.000036	-0.735455
H98	H	-0.872379	0.042198	-0.670706
H99	H	-0.872367	-0.042267	-0.670722
H100	H	-0.939597	-0.000073	-0.231020
H101	H	-0.970896	-0.077046	-0.457953
C102	C	-0.909641	-0.000054	-0.533809
H103	H	-0.858963	-0.000054	-0.560890
H104	H	-0.906700	0.042173	-0.505197
H105	H	-0.906695	-0.042293	-0.505216
H106	H	-0.973460	-0.077064	-0.326520
C107	C	-0.918337	-0.000080	-0.086887
H108	H	-0.867659	-0.000077	-0.113967
H109	H	-0.915400	0.042145	-0.058273
H110	H	-0.915390	-0.042320	-0.058295
H111	H	-1.093153	-0.430924	0.210043
C112	C	-1.206095	-0.345002	0.185066
H113	H	-1.198123	-0.395859	0.179012
H114	H	-1.188763	-0.332508	0.232563
H115	H	-1.269247	-0.332505	0.172260
C116	C	-0.971925	-0.345028	0.007742
H117	H	-0.938724	-0.311416	-0.017408
H118	H	-0.929366	-0.374765	0.036131
H119	H	-1.009861	-0.374763	-0.024165
