data_functionalizedCrystal
_audit_creation_method	'MofGen! by Chris Wilmer'
_symmetry_space_group_name_H-M	'P1'
_symmetry_Int_Tables_number	1
_symmetry_cell_setting	triclinic
loop_
_symmetry_equiv_pos_as_xyz
  x,y,z
_cell_length_a	15.625950
_cell_length_b	11.792241
_cell_length_c	14.750779
_cell_angle_alpha	102.730648
_cell_angle_beta	59.909492
_cell_angle_gamma	84.220291
loop_
_atom_site_label
_atom_site_type_symbol
_atom_site_fract_x
_atom_site_fract_y
_atom_site_fract_z
O1	O	1.286398	0.034964	-0.367812
O2	O	0.999738	0.083326	-0.268059
O3	O	1.150026	-0.106812	-0.320364
O4	O	1.136110	0.225103	-0.315507
O5	O	1.192511	-0.160557	-0.494800
O6	O	1.042223	0.029582	-0.442495
O7	O	1.328883	-0.018781	-0.542249
Zn8	Zn	1.192298	-0.003132	-0.520067
Zn9	Zn	1.136323	0.067678	-0.290240
O10	O	1.178594	0.171358	-0.489944
C11	C	0.984282	0.059586	-0.342506
C12	C	0.874931	0.068904	-0.304454
C13	C	0.630957	-0.046829	-0.654602
C14	C	0.528191	-0.038035	-0.618797
C15	C	0.481927	0.020551	-0.428651
C16	C	0.584691	0.011768	-0.464440
C17	C	0.659199	-0.021924	-0.577417
C18	C	0.612932	0.036673	-0.387255
C19	C	0.715687	0.027884	-0.423042
C20	C	0.790201	-0.005809	-0.536014
C21	C	0.761954	-0.030712	-0.613204
C22	C	0.538423	0.070356	-0.274279
C23	C	0.566665	0.095261	-0.197094
C24	C	0.669420	0.086481	-0.232880
C25	C	0.743934	0.052788	-0.345852
C26	C	0.697668	0.111384	-0.155691
C27	C	0.800423	0.102596	-0.191477
C28	C	0.846689	0.043999	-0.381639
C29	C	1.170394	-0.175877	-0.407277
C30	C	1.167778	-0.301595	-0.406366
C31	C	1.162964	-0.531759	-0.404675
C32	C	1.165639	-0.403679	-0.405614
C33	C	1.344338	0.004961	-0.467799
C34	C	1.453688	-0.004355	-0.505844
C35	C	1.158225	0.240423	-0.403028
C36	C	1.160840	0.366144	-0.403932
N37	N	1.230507	-0.051460	-0.676921
C38	C	0.991409	0.250919	-0.945526
C39	C	1.018191	0.217061	-1.055346
C40	C	1.151299	0.048747	-1.101634
C41	C	1.124525	0.082588	-0.991815
C42	C	1.044580	0.183676	-0.913769
C43	C	1.177696	0.015344	-0.960058
C44	C	1.150928	0.049186	-0.850249
C45	C	1.070988	0.150272	-0.772198
C46	C	1.017812	0.217518	-0.803960
C47	C	1.257645	-0.085738	-1.038107
C48	C	1.310816	-0.152982	-1.006350
C49	C	1.284044	-0.119145	-0.896538
C50	C	1.204104	-0.018059	-0.818487
C51	C	1.337220	-0.186390	-0.864776
C52	C	1.310452	-0.152548	-0.754967
C53	C	1.177336	0.015783	-0.708678
N54	N	1.098122	0.115996	-0.133389
H55	H	0.454754	0.077516	-0.245145
O56	O	0.966521	0.282194	-1.086298
C57	C	0.920906	0.208250	-1.128550
H58	H	0.963667	0.110300	-1.158470
H59	H	0.924405	0.233428	-1.200442
H60	H	0.837763	0.221227	-1.060907
O61	O	0.494150	0.128024	-0.087392
C62	C	0.397402	0.130409	-0.072355
H63	H	0.399368	0.142744	-0.147831
H64	H	0.337625	0.208158	0.004037
H65	H	0.376978	0.042255	-0.061112
O66	O	0.625226	0.144304	-0.045955
C67	C	0.553769	0.250475	-0.015875
H68	H	0.590441	0.300652	-0.078027
H69	H	0.528573	0.309836	0.069868
H70	H	0.484513	0.226791	-0.015140
O71	O	1.388590	-0.251071	-1.082161
C72	C	1.479634	-0.234626	-1.089244
H73	H	1.473256	-0.134557	-1.059407
H74	H	1.546594	-0.275135	-1.178620
H75	H	1.492675	-0.280888	-1.035437
H76	H	0.691625	-0.074246	-0.746598
H77	H	1.402318	-0.268690	-0.928337
H78	H	0.823415	0.122881	-0.128625
H79	H	1.353750	-0.207305	-0.729112
H80	H	0.421250	0.047977	-0.336665
H81	H	0.907357	0.016582	-0.473635
H82	H	0.952706	0.299826	-0.740408
O83	O	0.913750	0.349178	-0.869852
C84	C	0.872532	0.401256	-0.921416
H85	H	0.931991	0.374182	-1.013735
H86	H	0.850252	0.503201	-0.884627
H87	H	0.802025	0.368500	-0.907581
H88	H	1.216393	-0.033557	-1.165192
H89	H	1.279440	-0.113285	-1.127520
O90	O	0.500928	-0.062219	-0.693927
C91	C	0.588732	-0.093872	-0.801313
H92	H	0.651317	-0.055226	-0.797599
H93	H	0.569273	-0.056131	-0.855402
H94	H	0.616605	-0.195852	-0.837774
H95	H	0.822622	-0.058129	-0.705200
O96	O	0.890006	-0.014472	-0.570662
C97	C	0.922266	-0.100724	-0.534189
H98	H	0.853083	-0.111667	-0.459272
H99	H	0.977264	-0.069870	-0.510572
H100	H	0.962538	-0.190378	-0.603228
O101	O	1.099778	0.114044	-0.632782
C102	C	1.137409	0.198080	-0.587752
H103	H	1.210229	0.149887	-0.598028
H104	H	1.077579	0.244125	-0.496271
H105	H	1.154848	0.268182	-0.632543
O106	O	1.044878	0.183347	-0.665492
C107	C	0.962899	0.286968	-0.603414
H108	H	0.961511	0.336839	-0.660849
H109	H	0.972949	0.348029	-0.539673
H110	H	0.887950	0.259829	-0.559522
