data_functionalizedCrystal
_audit_creation_method	'MofGen! by Chris Wilmer'
_symmetry_space_group_name_H-M	'P1'
_symmetry_Int_Tables_number	1
_symmetry_cell_setting	triclinic
loop_
_symmetry_equiv_pos_as_xyz
  x,y,z
_cell_length_a	20.875641
_cell_length_b	20.875620
_cell_length_c	20.875641
_cell_angle_alpha	92.968954
_cell_angle_beta	60.089808
_cell_angle_gamma	64.261640
loop_
_atom_site_label
_atom_site_type_symbol
_atom_site_fract_x
_atom_site_fract_y
_atom_site_fract_z
Zr1	Zr	0.696727	0.646199	-0.073503
O2	O	0.822622	0.552357	-0.181453
O3	O	0.565565	0.671456	-0.037311
O4	O	0.689623	0.680886	-0.170312
O5	O	0.706004	0.539482	0.052935
O6	O	0.690011	0.786266	-0.165050
O7	O	0.698564	0.542927	-0.048452
O8	O	0.468094	0.769397	0.072865
O9	O	0.927921	0.556351	-0.184980
O10	O	0.621754	0.765113	-0.021694
O11	O	0.627018	0.683898	0.050044
O12	O	0.773080	0.695001	-0.106548
O13	O	0.778343	0.613787	-0.034811
Zr14	Zr	0.709213	0.808774	0.096590
Zr15	Zr	0.697346	0.814268	-0.065111
Zr16	Zr	0.708594	0.640705	0.088197
Zr17	Zr	0.864668	0.652569	-0.079128
Zr18	Zr	0.541272	0.802404	0.102214
O19	O	0.840375	0.783517	0.060397
O20	O	0.823502	0.791329	-0.169521
O21	O	0.839495	0.544545	0.048464
O22	O	0.583318	0.902616	0.204540
O23	O	0.566445	0.910428	-0.025378
O24	O	0.582438	0.663644	0.192607
O25	O	0.699936	0.915491	-0.029849
O26	O	0.716317	0.774087	0.193398
O27	O	0.715929	0.668707	0.188136
O28	O	0.707376	0.912046	0.071538
O29	O	0.928413	0.689943	-0.178309
O30	O	0.477527	0.765030	0.201396
O31	O	0.478019	0.898622	0.208066
O32	O	0.468586	0.902989	0.079536
O33	O	0.937354	0.551984	-0.056449
O34	O	0.937846	0.685576	-0.049779
O35	O	0.632860	0.759971	0.129635
O36	O	0.627597	0.841186	0.057897
O37	O	0.778922	0.771074	-0.026957
O38	O	0.784186	0.689860	0.044780
C39	C	0.492901	0.719519	0.018578
C40	C	0.421606	0.716814	0.020966
C41	C	0.702196	0.517258	0.001046
C42	C	0.701933	0.445909	-0.002517
C43	C	0.385364	0.757935	-0.015358
C44	C	0.318370	0.755396	-0.013107
C45	C	0.287624	0.711731	0.025464
C46	C	0.323869	0.670609	0.061793
C47	C	0.390857	0.673153	0.059546
C48	C	0.087568	0.699581	0.036203
C49	C	0.020576	0.697038	0.038444
C50	C	0.015081	0.781826	-0.036455
C51	C	0.082074	0.784363	-0.038702
C52	C	0.118311	0.743244	-0.002369
N53	N	0.219147	0.709133	0.027763
N54	N	0.186782	0.745847	-0.004665
C55	C	0.700032	0.044481	-0.028579
C56	C	0.700281	0.111520	-0.025231
C57	C	0.704498	0.143145	0.032304
C58	C	0.708476	0.107723	0.086488
C59	C	0.708233	0.040682	0.083136
C60	C	0.705668	0.343445	0.048316
C61	C	0.705908	0.410492	0.051665
C62	C	0.697715	0.414284	-0.060055
C63	C	0.697467	0.347244	-0.063400
C64	C	0.701449	0.311825	-0.009217
N65	N	0.704750	0.211672	0.035729
N66	N	0.701204	0.243297	-0.012647
C67	C	0.913039	0.735454	0.004508
C68	C	0.984334	0.738159	0.002120
C69	C	0.688126	0.734359	-0.190720
C70	C	0.683088	0.736691	-0.259366
C71	C	0.703744	0.937715	0.022041
C72	C	0.704007	1.009064	0.025603
C73	C	0.759710	0.701191	-0.335909
C74	C	0.754971	0.703392	-0.400407
C75	C	0.673610	0.741090	-0.388359
C76	C	0.596982	0.776595	-0.311808
C77	C	0.601722	0.774398	-0.247312
C78	C	0.650964	0.751590	-0.576501
C79	C	0.646230	0.753782	-0.641004
C80	C	0.804220	0.680580	-0.729599
C81	C	0.808952	0.678383	-0.665098
C82	C	0.732325	0.713891	-0.588553
N83	N	0.668764	0.743339	-0.454284
N84	N	0.737171	0.711646	-0.522629
C85	C	0.717814	0.720614	0.213806
C86	C	0.722852	0.718282	0.282452
C87	C	0.493676	0.929747	0.029076
C88	C	0.422643	0.998392	0.035026
C89	C	0.507745	0.712646	0.220842
C90	C	0.441488	0.707610	0.291875
C91	C	0.508520	0.922875	0.231339
C92	C	0.442525	0.989188	0.305936
C93	C	0.897421	0.532098	-0.208253
C94	C	0.963415	0.465785	-0.282849
C95	C	0.912265	0.525226	-0.005990
C96	C	0.983297	0.456581	-0.011940
C97	C	0.898195	0.742327	-0.197755
C98	C	0.964452	0.747363	-0.268789
C99	C	0.386235	0.990920	-0.003732
C100	C	0.319500	1.055414	0.001844
C101	C	0.289171	1.127379	0.046182
C102	C	0.325585	1.134850	0.084941
C103	C	0.392323	1.070357	0.079361
C104	C	0.413423	0.744953	0.366786
C105	C	0.351177	0.740218	0.433536
C106	C	0.316992	0.698143	0.425373
C107	C	0.345063	0.660795	0.350455
C108	C	0.407313	0.665526	0.283706
C109	C	0.408786	1.062729	0.303521
C110	C	0.346785	1.125044	0.373607
C111	C	0.318521	1.113816	0.446106
C112	C	0.352267	1.040267	0.448518
C113	C	0.414270	0.977953	0.378433
C114	C	0.997163	0.392244	-0.280435
C115	C	1.059184	0.329930	-0.350521
C116	C	1.087451	0.341158	-0.423021
C117	C	1.053702	0.414707	-0.425433
C118	C	0.991686	0.477020	-0.355348
C119	C	1.019712	0.464054	0.026811
C120	C	1.086463	0.399561	0.021217
C121	C	1.116795	0.327596	-0.023124
C122	C	1.080378	0.320124	-0.061879
C123	C	1.013631	0.384617	-0.056290
C124	C	0.998618	0.789445	-0.260601
C125	C	1.060865	0.794192	-0.327338
C126	C	1.088951	0.756853	-0.402262
C127	C	1.054779	0.714770	-0.410448
C128	C	0.992528	0.710028	-0.343712
H129	H	0.410396	0.793488	-0.046771
H130	H	0.421958	1.076452	0.110928
H131	H	0.875205	0.647688	-0.674917
H132	H	0.974150	0.383087	-0.221410
C133	C	0.695906	0.150477	-0.084830
H134	H	0.693349	0.122046	-0.119569
H135	H	0.746364	0.153297	-0.114182
H136	H	0.645291	0.200123	-0.057505
C137	C	1.098453	0.840474	-0.318320
H138	H	1.072820	0.862018	-0.264140
H139	H	1.085889	0.879714	-0.339520
H140	H	1.159845	0.808233	-0.345728
C141	C	-0.024783	0.827060	-0.076411
H142	H	0.003127	0.853425	-0.099708
H143	H	-0.085382	0.862348	-0.038262
H144	H	-0.016671	0.793307	-0.115928
H145	H	0.266305	0.694297	0.479731
H146	H	0.975760	0.819852	-0.199601
H147	H	0.234828	1.179887	0.050720
C148	C	0.419591	0.911765	-0.052508
H149	H	0.464548	0.874417	-0.050282
H150	H	0.441893	0.908642	-0.105639
H151	H	0.372905	0.903398	-0.031686
H152	H	0.694033	0.321496	-0.110249
C153	C	0.888501	0.641533	-0.813795
H154	H	0.874030	0.648244	-0.850483
H155	H	0.921601	0.588995	-0.823285
H156	H	0.921866	0.663284	-0.819566
H157	H	0.964209	0.536899	-0.357322
H158	H	0.288861	0.788880	-0.042685
H159	H	0.300881	1.193453	0.121041
C160	C	0.115890	0.832394	-0.081130
H161	H	0.084706	0.856525	-0.102437
H162	H	0.176261	0.800628	-0.122392
H163	H	0.107551	0.869672	-0.044728
C164	C	0.439871	1.075091	0.223780
H165	H	0.481626	1.027451	0.182379
H166	H	0.465695	1.104126	0.218639
H167	H	0.391463	1.101318	0.221125
H168	H	0.711471	0.011845	0.127256
H169	H	1.139640	0.760720	-0.456597
H170	H	0.983984	0.378521	-0.087844
H171	H	0.696593	0.018739	-0.075426
C172	C	1.085687	0.673694	-0.492867
H173	H	1.127662	0.682542	-0.531435
H174	H	1.037268	0.692323	-0.495920
H175	H	1.111221	0.620864	-0.502101
H176	H	-0.004453	0.661477	0.069853
C177	C	0.507485	0.818049	-0.298551
H178	H	0.462531	0.838879	-0.243725
H179	H	0.502226	0.783278	-0.323726
H180	H	0.502478	0.857574	-0.320012
H181	H	0.441250	0.779215	0.373447
C182	C	0.127427	0.654344	0.076158
H183	H	0.099527	0.627969	0.099442
H184	H	0.119322	0.688088	0.115672
H185	H	0.188030	0.619051	0.038002
C186	C	0.320302	0.781312	0.515937
H187	H	0.349568	0.807057	0.511233
H188	H	0.333123	0.745392	0.540610
H189	H	0.259163	0.816852	0.546799
C190	C	0.556729	0.795232	-0.627750
H191	H	0.511771	0.816064	-0.572925
H192	H	0.551479	0.760453	-0.652926
H193	H	0.551720	0.834754	-0.649214
C194	C	0.290051	0.622577	0.104218
H195	H	0.244971	0.626944	0.100347
H196	H	0.267806	0.640092	0.158068
H197	H	0.336520	0.571054	0.080399
C198	C	0.307445	0.614525	0.341487
H199	H	0.266344	0.617070	0.391973
H200	H	0.353355	0.563248	0.310381
H201	H	0.279404	0.634731	0.316586
C202	C	0.566678	0.790639	-0.492311
H203	H	0.517546	0.813396	-0.494377
H204	H	0.565373	0.828446	-0.463450
H205	H	0.565107	0.754157	-0.467168
H206	H	0.995021	0.522645	0.062923
H207	H	0.420367	0.639666	0.089123
H208	H	1.086653	0.270049	-0.348542
H209	H	0.430154	0.635118	0.222713
H210	H	0.329245	1.031135	0.507556
H211	H	0.825963	0.670488	-0.345729
H212	H	1.171145	0.275088	-0.027668
H213	H	0.708908	0.314613	0.092434
H214	H	1.137948	0.290413	-0.480082
H215	H	0.289859	1.049316	-0.029719
C216	C	0.713123	0.142501	0.149772
H217	H	0.715466	0.111800	0.181555
H218	H	0.662857	0.191987	0.181739
H219	H	0.763930	0.145158	0.125058
C220	C	0.309668	1.205938	0.370939
H221	H	0.335372	1.203694	0.317723
H222	H	0.322478	1.233422	0.395470
H223	H	0.248248	1.230599	0.397969
H224	H	0.694474	0.443128	-0.104169
C225	C	0.250311	1.182365	0.523192
H226	H	0.234263	1.227769	0.511364
H227	H	0.274400	1.182221	0.551644
H228	H	0.200177	1.179401	0.554120
C229	C	0.839255	0.664338	-0.484602
H230	H	0.888389	0.641564	-0.482540
H231	H	0.840833	0.700811	-0.509750
H232	H	0.840549	0.626531	-0.513457
H233	H	0.709341	0.436238	0.098520
C234	C	0.517439	0.813445	-0.163115
H235	H	0.468303	0.836205	-0.165175
H236	H	0.516140	0.851249	-0.134256
H237	H	0.515868	0.776963	-0.137971
H238	H	0.441733	0.918074	0.380410
H239	H	1.076725	0.423841	-0.484470
H240	H	0.964717	0.675757	-0.350390
C241	C	1.126503	0.407792	0.063860
H242	H	1.098864	0.459889	0.091078
H243	H	1.187154	0.386916	0.026439
H244	H	1.118173	0.381659	0.100385
H245	H	1.105084	0.261522	-0.097981
