data_functionalizedCrystal
_audit_creation_method	'MofGen! by Chris Wilmer'
_symmetry_space_group_name_H-M	'P1'
_symmetry_Int_Tables_number	1
_symmetry_cell_setting	triclinic
loop_
_symmetry_equiv_pos_as_xyz
  x,y,z
_cell_length_a	19.188930
_cell_length_b	19.188925
_cell_length_c	17.666332
_cell_angle_alpha	89.989697
_cell_angle_beta	89.988397
_cell_angle_gamma	83.143665
loop_
_atom_site_label
_atom_site_type_symbol
_atom_site_fract_x
_atom_site_fract_y
_atom_site_fract_z
O1	O	0.087151	0.926152	-0.062973
O2	O	0.587151	1.426152	0.437027
O3	O	0.098889	0.722840	-0.062972
O4	O	0.598889	1.222840	0.437028
O5	O	-0.008636	0.830363	-0.062958
O6	O	0.491364	1.330363	0.437042
O7	O	0.194676	0.818629	-0.062987
O8	O	0.694676	1.318629	0.437013
O9	O	-0.008642	0.830344	0.062939
O10	O	0.491358	1.330344	0.562939
O11	O	0.098883	0.722821	0.062925
O12	O	0.598883	1.222821	0.562925
O13	O	0.087145	0.926133	0.062924
O14	O	0.587145	1.426133	0.562924
Cu15	Cu	0.093014	0.824476	0.074419
Cu16	Cu	0.593014	1.324476	0.574419
Cu17	Cu	0.093020	0.824498	-0.074468
Cu18	Cu	0.593020	1.324498	0.425532
O19	O	0.194670	0.818610	0.062909
O20	O	0.694670	1.318610	0.562909
C21	C	0.098507	0.696820	-0.000023
C22	C	0.598507	1.196820	0.499977
C23	C	0.097367	0.619315	-0.000022
C24	C	0.597367	1.119315	0.499978
C25	C	0.152831	0.057545	-0.000032
C26	C	0.652831	0.557545	0.499968
C27	C	0.153908	0.130368	-0.000037
C28	C	0.653908	0.630368	0.499963
C29	C	0.090816	0.175302	-0.000026
C30	C	0.590816	0.675302	0.499974
C31	C	0.026642	0.147408	-0.000031
C32	C	0.526642	0.647408	0.499969
C33	C	0.025568	0.074586	-0.000034
C34	C	0.525568	0.574586	0.499966
N35	N	0.045138	0.295973	0.042837
N36	N	0.545138	0.795973	0.542837
N37	N	0.046163	0.365150	0.042842
N38	N	0.546163	0.865150	0.542842
C39	C	0.094050	0.394712	-0.000018
C40	C	0.594050	0.894712	0.499982
N41	N	0.140883	0.352481	-0.042872
N42	N	0.640883	0.852481	0.457128
N43	N	0.139860	0.283297	-0.042874
N44	N	0.639860	0.783297	0.457126
C45	C	0.091974	0.254267	-0.000023
C46	C	0.591974	0.754267	0.499977
C47	C	0.159386	0.501561	-0.000023
C48	C	0.659386	1.001561	0.499977
C49	C	0.160460	0.574385	-0.000032
C50	C	0.660460	1.074385	0.499968
C51	C	0.033193	0.591425	-0.000018
C52	C	0.533193	1.091425	0.499982
C53	C	0.032121	0.518601	-0.000017
C54	C	0.532121	1.018601	0.499983
C55	C	0.095220	0.473673	-0.000016
C56	C	0.595220	0.973673	0.499984
C57	C	-0.034650	0.829974	-0.000007
C58	C	0.465350	1.329974	0.499993
C59	C	-0.112154	0.828833	-0.000001
C60	C	0.387846	1.328833	0.499999
C61	C	-0.157079	0.891924	0.000003
C62	C	0.342921	1.391924	0.500003
C63	C	-0.229903	0.890852	-0.000010
C64	C	0.270097	1.390852	0.499990
C65	C	-0.257799	0.826686	-0.000010
C66	C	0.242201	1.326686	0.499990
C67	C	-0.212864	0.763587	-0.000017
C68	C	0.287136	1.263587	0.499983
C69	C	-0.140041	0.764660	-0.000013
C70	C	0.359959	1.264660	0.499987
N71	N	-0.365805	0.777632	0.042835
N72	N	0.134195	1.277632	0.542835
N73	N	-0.434983	0.776617	0.042833
N74	N	0.065017	1.276617	0.542833
C75	C	-0.477207	0.823448	-0.000025
C76	C	0.022793	1.323448	0.499975
N77	N	-0.447641	0.871344	-0.042871
N78	N	0.052359	1.371344	0.457129
N79	N	-0.378456	0.872361	-0.042865
N80	N	0.121544	1.372361	0.457135
C81	C	-0.336761	0.825515	-0.000015
C82	C	0.163239	1.325515	0.499985
C83	C	-0.601097	0.885381	-0.000036
C84	C	-0.101097	1.385381	0.499964
C85	C	-0.673922	0.884307	-0.000053
C86	C	-0.173922	1.384307	0.499947
C87	C	-0.656880	0.757040	-0.000053
C88	C	-0.156880	1.257040	0.499947
C89	C	-0.584057	0.758116	-0.000044
C90	C	-0.084057	1.258116	0.499956
C91	C	-0.556170	0.822289	-0.000032
C92	C	-0.056170	1.322289	0.499968
C93	C	0.220684	0.819000	-0.000043
C94	C	0.720684	1.319000	0.499957
C95	C	0.298188	0.820140	-0.000054
C96	C	0.798188	1.320140	0.499946
N97	N	0.093008	0.824465	0.179139
N98	N	0.593008	1.324465	0.679139
C99	C	0.087527	0.952154	-0.000027
C100	C	0.587527	1.452154	0.499973
C101	C	0.088666	1.029658	-0.000033
C102	C	0.588666	1.529658	0.499967
N103	N	0.093020	0.824514	-0.179187
N104	N	0.593020	1.324514	0.320813
C105	C	0.045420	0.872092	0.218755
C106	C	0.545420	1.372092	0.718755
C107	C	0.045416	0.872096	0.298003
C108	C	0.545416	1.372096	0.798003
C109	C	0.093014	0.824480	0.337631
C110	C	0.593014	1.324480	0.837631
C111	C	0.140606	0.776844	0.298005
C112	C	0.640606	1.276844	0.798005
C113	C	0.140604	0.776837	0.218759
C114	C	0.640604	1.276837	0.718759
N115	N	0.154821	0.815404	0.462041
N116	N	0.654821	1.315404	0.962041
N117	N	0.154821	0.815415	0.537321
N118	N	0.654821	1.315415	1.037321
C119	C	0.093023	0.824498	0.576395
C120	C	0.593023	1.324498	1.076395
N121	N	0.031223	0.833584	0.537345
N122	N	0.531223	1.333584	1.037345
N123	N	0.031223	0.833576	0.462057
N124	N	0.531223	1.333576	0.962057
C125	C	0.093022	0.824482	0.423560
C126	C	0.593022	1.324482	0.923560
C127	C	0.045427	0.872132	0.701940
C128	C	0.545427	1.372132	1.201940
C129	C	0.045423	0.872131	0.781190
C130	C	0.545423	1.372131	1.281190
C131	C	0.140619	0.776883	0.781191
C132	C	0.640619	1.276883	1.281191
C133	C	0.140617	0.776880	0.701943
C134	C	0.640617	1.276880	1.201943
C135	C	0.093022	0.824509	0.662323
C136	C	0.593022	1.324509	1.162323
H137	H	-0.018178	0.628010	-0.000016
H138	H	0.481822	1.128010	0.499984
O139	O	-0.242948	0.694379	-0.000008
O140	O	0.257052	1.194379	0.499992
H141	H	-0.275716	0.690854	-0.051317
H142	H	0.224284	1.190854	0.448683
O143	O	0.223120	0.160453	-0.000030
O144	O	0.723120	0.660453	0.499970
H145	H	0.213265	0.218639	-0.000031
H146	H	0.713265	0.718639	0.499969
H147	H	-0.103462	0.713282	-0.000015
H148	H	0.396538	1.213282	0.499985
H149	H	0.006663	0.910871	0.186498
H150	H	0.506663	1.410871	0.686498
O151	O	-0.571009	0.954591	-0.000038
O152	O	-0.071009	1.454591	0.499962
H153	H	-0.614487	0.998284	-0.000052
H154	H	-0.114487	1.498284	0.499948
H155	H	-0.679592	0.704794	-0.000057
H156	H	-0.179592	1.204794	0.499943
O157	O	-0.535599	0.690065	-0.000028
O158	O	-0.035599	1.190065	0.499972
H159	H	-0.545481	0.659347	-0.051337
H160	H	-0.045481	1.159347	0.448663
O161	O	-0.722383	0.952358	-0.000043
O162	O	-0.222383	1.452358	0.499957
H163	H	-0.690753	0.997158	-0.000024
H164	H	-0.190753	1.497158	0.499976
H165	H	-0.266488	0.942230	-0.000010
H166	H	0.233512	1.442230	0.499990
H167	H	0.006662	0.910880	0.330264
H168	H	0.506662	1.410880	0.830264
H169	H	0.179360	0.738074	0.330275
H170	H	0.679360	1.238074	0.830275
O171	O	0.191977	0.725547	0.823926
O172	O	0.691977	1.225547	1.323926
H173	H	0.225076	0.692433	0.783061
H174	H	0.725076	1.192433	1.283061
O175	O	0.191953	0.725520	0.659206
O176	O	0.691953	1.225520	1.159206
H177	H	0.225055	0.692413	0.700073
H178	H	0.725055	1.192413	1.200073
O179	O	0.220888	0.009091	-0.000037
O180	O	0.720888	0.509091	0.499963
H181	H	0.209363	-0.046233	-0.000033
H182	H	0.709363	0.453767	0.499967
H183	H	0.179357	0.738053	0.186503
H184	H	0.679357	1.238053	0.686503
O185	O	-0.041406	0.195873	-0.000013
O186	O	0.458594	0.695873	0.499987
H187	H	-0.072119	0.186001	-0.051327
H188	H	0.427881	0.686001	0.448673
H189	H	0.006670	0.910911	0.669680
H190	H	0.506670	1.410911	1.169680
O191	O	-0.005900	0.923509	0.823925
O192	O	0.494100	1.423509	1.323925
H193	H	-0.038987	0.956631	0.783057
H194	H	0.461013	1.456631	1.283057
H195	H	-0.026685	0.051883	-0.000035
H196	H	0.473315	0.551883	0.499965
H197	H	0.210765	0.464978	-0.000023
H198	H	0.710765	0.964978	0.499977
H199	H	0.212713	0.597088	-0.000038
H200	H	0.712713	1.097088	0.499962
H201	H	-0.020129	0.495896	-0.000013
H202	H	0.479871	0.995896	0.499987
H203	H	-0.134379	0.944179	0.000010
H204	H	0.365621	1.444179	0.500010
