data_functionalizedCrystal
_audit_creation_method	'MofGen! by Chris Wilmer'
_symmetry_space_group_name_H-M	'P1'
_symmetry_Int_Tables_number	1
_symmetry_cell_setting	triclinic
loop_
_symmetry_equiv_pos_as_xyz
  x,y,z
_cell_length_a	16.109318
_cell_length_b	23.532357
_cell_length_c	15.186229
_cell_angle_alpha	89.990735
_cell_angle_beta	90.000224
_cell_angle_gamma	83.148428
loop_
_atom_site_label
_atom_site_type_symbol
_atom_site_fract_x
_atom_site_fract_y
_atom_site_fract_z
O1	O	1.102526	0.073251	-0.073166
O2	O	1.352526	0.323251	0.176834
O3	O	1.602526	0.573251	0.426834
O4	O	1.852526	0.823251	0.676834
O5	O	0.860393	0.082350	-0.073185
O6	O	1.110393	0.332350	0.176815
O7	O	1.360393	0.582350	0.426815
O8	O	1.610393	0.832350	0.676815
O9	O	0.988783	-0.005106	-0.073157
O10	O	1.238783	0.244894	0.176843
O11	O	1.488783	0.494894	0.426843
O12	O	1.738783	0.744894	0.676843
O13	O	0.974136	0.160707	-0.073195
O14	O	1.224136	0.410707	0.176805
O15	O	1.474136	0.660707	0.426805
O16	O	1.724136	0.910707	0.676805
O17	O	0.988774	-0.005107	0.073300
O18	O	1.238774	0.244893	0.323300
O19	O	1.488774	0.494893	0.573300
O20	O	1.738774	0.744893	0.823300
O21	O	0.860384	0.082349	0.073272
O22	O	1.110384	0.332349	0.323272
O23	O	1.360384	0.582349	0.573272
O24	O	1.610384	0.832349	0.823272
O25	O	1.102518	0.073249	0.073291
O26	O	1.352518	0.323249	0.323291
O27	O	1.602518	0.573249	0.573291
O28	O	1.852518	0.823249	0.823291
Zn29	Zn	0.981450	0.077799	0.096535
Zn30	Zn	1.231450	0.327799	0.346535
Zn31	Zn	1.481450	0.577799	0.596535
Zn32	Zn	1.731450	0.827799	0.846535
Zn33	Zn	0.981461	0.077801	-0.096429
Zn34	Zn	1.231461	0.327801	0.153571
Zn35	Zn	1.481461	0.577801	0.403571
Zn36	Zn	1.731461	0.827801	0.653571
O37	O	0.974128	0.160706	0.073263
O38	O	1.224128	0.410706	0.323263
O39	O	1.474128	0.660706	0.573263
O40	O	1.724128	0.910706	0.823263
C41	C	0.829417	0.081979	0.000041
C42	C	1.079417	0.331979	0.250041
C43	C	1.329417	0.581979	0.500041
C44	C	1.579417	0.831979	0.750041
C45	C	0.737131	0.080869	0.000034
C46	C	0.987131	0.330869	0.250034
C47	C	1.237131	0.580869	0.500034
C48	C	1.487131	0.830869	0.750034
C49	C	0.438091	0.077284	-0.079783
C50	C	0.688091	0.327284	0.170217
C51	C	0.938091	0.577284	0.420217
C52	C	1.188091	0.827284	0.670217
C53	C	0.524804	0.078323	-0.079789
C54	C	0.774804	0.328323	0.170211
C55	C	1.024804	0.578323	0.420211
C56	C	1.274804	0.828323	0.670211
C57	C	0.524814	0.078314	0.079887
C58	C	0.774814	0.328314	0.329887
C59	C	1.024814	0.578314	0.579887
C60	C	1.274814	0.828314	0.829887
C61	C	0.438103	0.077271	0.079892
C62	C	0.688103	0.327271	0.329892
C63	C	0.938103	0.577271	0.579892
C64	C	1.188103	0.827271	0.829892
C65	C	0.394744	0.076758	0.000054
C66	C	0.644744	0.326758	0.250054
C67	C	0.894744	0.576758	0.500054
C68	C	1.144744	0.826758	0.750054
C69	C	0.568167	0.078841	0.000044
C70	C	0.818167	0.328841	0.250044
C71	C	1.068167	0.578841	0.500044
C72	C	1.318167	0.828841	0.750044
C73	C	0.662185	0.079968	0.000038
C74	C	0.912185	0.329968	0.250038
C75	C	1.162185	0.579968	0.500038
C76	C	1.412185	0.829968	0.750038
C77	C	0.300720	0.075630	0.000059
C78	C	0.550720	0.325630	0.250059
C79	C	0.800720	0.575630	0.500059
C80	C	1.050720	0.825630	0.750059
C81	C	0.988412	-0.026324	0.000074
C82	C	1.238412	0.223676	0.250074
C83	C	1.488412	0.473676	0.500074
C84	C	1.738412	0.723676	0.750074
C85	C	0.987311	-0.089547	0.000082
C86	C	1.237311	0.160453	0.250082
C87	C	1.487311	0.410453	0.500082
C88	C	1.737311	0.660453	0.750082
C89	C	0.980401	-0.481584	-0.079800
C90	C	1.230401	-0.231584	0.170200
C91	C	1.480401	0.018416	0.420200
C92	C	1.730401	0.268416	0.670200
C93	C	0.979353	-0.540987	-0.079805
C94	C	1.229353	-0.290987	0.170195
C95	C	1.479353	-0.040987	0.420195
C96	C	1.729353	0.209013	0.670195
O97	O	0.978788	-0.571705	-0.147700
O98	O	1.228788	-0.321705	0.102300
O99	O	1.478788	-0.071705	0.352300
O100	O	1.728788	0.178295	0.602300
N101	N	0.978830	-0.570701	0.000028
N102	N	1.228830	-0.320701	0.250028
N103	N	1.478830	-0.070701	0.500028
N104	N	1.728830	0.179299	0.750028
C105	C	0.979344	-0.541007	0.079871
C106	C	1.229344	-0.291007	0.329871
C107	C	1.479344	-0.041007	0.579871
C108	C	1.729344	0.208993	0.829871
O109	O	0.978802	-0.571736	0.147775
O110	O	1.228802	-0.321736	0.397775
O111	O	1.478802	-0.071736	0.647775
O112	O	1.728802	0.178264	0.897775
C113	C	0.980385	-0.481604	0.079875
C114	C	1.230385	-0.231604	0.329875
C115	C	1.480385	0.018396	0.579875
C116	C	1.730385	0.268396	0.829875
C117	C	0.980918	-0.451895	0.000037
C118	C	1.230918	-0.201895	0.250037
C119	C	1.480918	0.048105	0.500037
C120	C	1.730918	0.298105	0.750037
C121	C	0.980932	-0.451873	-0.159631
C122	C	1.230932	-0.201873	0.090369
C123	C	1.480932	0.048127	0.340369
C124	C	1.730932	0.298127	0.590369
C125	C	0.981980	-0.392474	-0.159626
C126	C	1.231980	-0.142474	0.090374
C127	C	1.481980	0.107526	0.340374
C128	C	1.731980	0.357526	0.590374
C129	C	0.982498	-0.362785	-0.079789
C130	C	1.232498	-0.112785	0.170211
C131	C	1.482498	0.137215	0.420211
C132	C	1.732498	0.387215	0.670211
C133	C	0.981966	-0.392495	0.000043
C134	C	1.231966	-0.142495	0.250043
C135	C	1.481966	0.107505	0.500043
C136	C	1.731966	0.357505	0.750043
C137	C	0.980894	-0.451912	0.159717
C138	C	1.230894	-0.201912	0.409717
C139	C	1.480894	0.048088	0.659717
C140	C	1.730894	0.298088	0.909717
C141	C	0.981935	-0.392505	0.159715
C142	C	1.231935	-0.142505	0.409715
C143	C	1.481935	0.107495	0.659715
C144	C	1.731935	0.357495	0.909715
C145	C	0.982467	-0.362795	0.079877
C146	C	1.232467	-0.112795	0.329877
C147	C	1.482467	0.137205	0.579877
C148	C	1.732467	0.387205	0.829877
C149	C	0.983532	-0.303407	0.079885
C150	C	1.233532	-0.053407	0.329885
C151	C	1.483532	0.196593	0.579885
C152	C	1.733532	0.446593	0.829885
N153	N	0.984056	-0.273693	0.000052
N154	N	1.234056	-0.023693	0.250052
N155	N	1.484056	0.226307	0.500052
N156	N	1.734056	0.476307	0.750052
C157	C	0.983539	-0.303382	-0.079785
C158	C	1.233539	-0.053382	0.170215
C159	C	1.483539	0.196618	0.420215
C160	C	1.733539	0.446618	0.670215
C161	C	0.977157	-0.665757	0.079856
C162	C	1.227157	-0.415757	0.329856
C163	C	1.477157	-0.165757	0.579856
C164	C	1.727157	0.084243	0.829856
C165	C	0.976122	-0.725159	0.079853
C166	C	1.226122	-0.475159	0.329853
C167	C	1.476122	-0.225159	0.579853
C168	C	1.726122	0.024841	0.829853
C169	C	0.976129	-0.725135	-0.079823
C170	C	1.226129	-0.475135	0.170177
C171	C	1.476129	-0.225135	0.420177
C172	C	1.726129	0.024865	0.670177
C173	C	0.977170	-0.665732	-0.079819
C174	C	1.227170	-0.415732	0.170181
C175	C	1.477170	-0.165732	0.420181
C176	C	1.727170	0.084268	0.670181
C177	C	0.977680	-0.636043	0.000023
C178	C	1.227680	-0.386043	0.250023
C179	C	1.477680	-0.136043	0.500023
C180	C	1.727680	0.113957	0.750023
C181	C	0.985741	-0.178640	-0.079767
C182	C	1.235741	0.071360	0.170233
C183	C	1.485741	0.321360	0.420233
C184	C	1.735741	0.571360	0.670233
C185	C	0.986793	-0.119236	-0.079755
C186	C	1.236793	0.130764	0.170245
C187	C	1.486793	0.380764	0.420245
C188	C	1.736793	0.630764	0.670245
C189	C	0.986781	-0.119266	0.079921
C190	C	1.236781	0.130734	0.329921
C191	C	1.486781	0.380734	0.579921
C192	C	1.736781	0.630734	0.829921
C193	C	0.985734	-0.178665	0.079909
C194	C	1.235734	0.071335	0.329909
C195	C	1.485734	0.321335	0.579909
C196	C	1.735734	0.571335	0.829909
C197	C	0.985211	-0.208350	0.000058
C198	C	1.235211	0.041650	0.250058
C199	C	1.485211	0.291650	0.500058
C200	C	1.735211	0.541650	0.750058
O201	O	0.984095	-0.272651	0.147746
O202	O	1.234095	-0.022651	0.397746
O203	O	1.484095	0.227349	0.647746
O204	O	1.734095	0.477349	0.897746
O205	O	0.984070	-0.272646	-0.147677
O206	O	1.234070	-0.022646	0.102323
O207	O	1.484070	0.227354	0.352323
O208	O	1.734070	0.477354	0.602323
C209	C	1.133494	0.073620	0.000063
C210	C	1.383494	0.323620	0.250063
C211	C	1.633494	0.573620	0.500063
C212	C	1.883494	0.823620	0.750063
C213	C	1.225779	0.074731	0.000063
C214	C	1.475779	0.324731	0.250063
C215	C	1.725779	0.574731	0.500063
C216	C	1.975779	0.824731	0.750063
C217	C	0.974498	0.181924	0.000029
C218	C	1.224498	0.431924	0.250029
C219	C	1.474498	0.681924	0.500029
C220	C	1.724498	0.931924	0.750029
C221	C	0.975600	0.245147	0.000015
C222	C	1.225600	0.495147	0.250015
C223	C	1.475600	0.745147	0.500015
C224	C	1.725600	0.995147	0.750015
N225	N	0.981448	0.077798	0.228227
N226	N	1.231448	0.327798	0.478227
N227	N	1.481448	0.577798	0.728227
N228	N	1.731448	0.827798	0.978227
N229	N	0.981469	0.077798	-0.228122
N230	N	1.231469	0.327798	0.021878
N231	N	1.481469	0.577798	0.271878
N232	N	1.731469	0.827798	0.521878
C233	C	1.038318	0.039085	0.453963
C234	C	1.288318	0.289085	0.703963
C235	C	1.538318	0.539085	0.953963
C236	C	1.788318	0.789085	1.203963
C237	C	1.038321	0.039084	0.546152
C238	C	1.288321	0.289084	0.796152
C239	C	1.538321	0.539084	1.046152
C240	C	1.788321	0.789084	1.296152
C241	C	0.924593	0.116512	0.546136
C242	C	1.174593	0.366512	0.796136
C243	C	1.424593	0.616512	1.046136
C244	C	1.674593	0.866512	1.296136
C245	C	0.924587	0.116510	0.453948
C246	C	1.174587	0.366510	0.703948
C247	C	1.424587	0.616510	0.953948
C248	C	1.674587	0.866510	1.203948
C249	C	0.981454	0.077797	0.407864
C250	C	1.231454	0.327797	0.657864
C251	C	1.481454	0.577797	0.907864
C252	C	1.731454	0.827797	1.157864
C253	C	0.981463	0.077798	0.592242
C254	C	1.231463	0.327798	0.842242
C255	C	1.481463	0.577798	1.092242
C256	C	1.731463	0.827798	1.342242
C257	C	0.981465	0.077797	0.692198
C258	C	1.231465	0.327797	0.942198
C259	C	1.481465	0.577797	1.192198
C260	C	1.731465	0.827797	1.442198
C261	C	0.981451	0.077798	0.307901
C262	C	1.231451	0.327798	0.557901
C263	C	1.481451	0.577798	0.807901
C264	C	1.731451	0.827798	1.057901
H265	H	0.560094	0.078750	-0.144800
H266	H	0.810094	0.328750	0.105200
H267	H	1.060094	0.578750	0.355200
H268	H	1.310094	0.828750	0.605200
H269	H	0.878294	0.148032	0.583668
H270	H	1.128294	0.398032	0.833668
H271	H	1.378294	0.648032	1.083668
H272	H	1.628294	0.898032	1.333668
H273	H	0.878277	0.148035	0.416412
H274	H	1.128277	0.398035	0.666412
H275	H	1.378277	0.648035	0.916412
H276	H	1.628277	0.898035	1.166412
C277	C	0.975544	-0.757834	0.167681
C278	C	1.225544	-0.507834	0.417681
C279	C	1.475544	-0.257834	0.667681
C280	C	1.725544	-0.007834	0.917681
N281	N	0.975103	-0.782442	0.233836
N282	N	1.225103	-0.532442	0.483836
N283	N	1.475103	-0.282442	0.733836
N284	N	1.725103	-0.032442	0.983836
H285	H	0.402809	0.076842	0.144909
H286	H	0.652809	0.326842	0.394909
H287	H	0.902809	0.576842	0.644909
H288	H	1.152809	0.826842	0.894909
C289	C	1.100869	-0.003508	0.596857
C290	C	1.350869	0.246492	0.846857
C291	C	1.600869	0.496492	1.096857
C292	C	1.850869	0.746492	1.346857
N293	N	1.147981	-0.035591	0.635047
N294	N	1.397981	0.214409	0.885047
N295	N	1.647981	0.464409	1.135047
N296	N	1.897981	0.714409	1.385047
H297	H	0.980462	-0.476091	0.224730
H298	H	1.230462	-0.226091	0.474730
H299	H	1.480462	0.023909	0.724730
H300	H	1.730462	0.273909	0.974730
H301	H	0.402791	0.076866	-0.144792
H302	H	0.652791	0.326866	0.105208
H303	H	0.902791	0.576866	0.355208
H304	H	1.152791	0.826866	0.605208
C305	C	1.100868	-0.003505	0.403273
C306	C	1.350868	0.246495	0.653273
C307	C	1.600868	0.496495	0.903273
C308	C	1.850868	0.746495	1.153273
N309	N	1.147979	-0.035586	0.365096
N310	N	1.397979	0.214414	0.615096
N311	N	1.647979	0.464414	0.865096
N312	N	1.897979	0.714414	1.115096
C313	C	0.572511	0.078908	0.167704
C314	C	0.822511	0.328908	0.417704
C315	C	1.072511	0.578908	0.667704
C316	C	1.322511	0.828908	0.917704
N317	N	0.608434	0.079366	0.233849
N318	N	0.858434	0.329366	0.483849
N319	N	1.108434	0.579366	0.733849
N320	N	1.358434	0.829366	0.983849
C321	C	0.987376	-0.086558	-0.167586
C322	C	1.237376	0.163442	0.082414
C323	C	1.487376	0.413442	0.332414
C324	C	1.737376	0.663442	0.582414
N325	N	0.987813	-0.061947	-0.233739
N326	N	1.237813	0.188053	0.016261
N327	N	1.487813	0.438053	0.266261
N328	N	1.737813	0.688053	0.516261
C329	C	0.985181	-0.211287	-0.167607
C330	C	1.235181	0.038713	0.082393
C331	C	1.485181	0.288713	0.332393
C332	C	1.735181	0.538713	0.582393
N333	N	0.984768	-0.235877	-0.233769
N334	N	1.234768	0.014123	0.016231
N335	N	1.484768	0.264123	0.266231
N336	N	1.734768	0.514123	0.516231
H337	H	0.980508	-0.476040	-0.224647
H338	H	1.230508	-0.226040	0.025353
H339	H	1.480508	0.023960	0.275353
H340	H	1.730508	0.273960	0.525353
C341	C	0.982556	-0.359800	-0.247455
C342	C	1.232556	-0.109800	0.002545
C343	C	1.482556	0.140200	0.252545
C344	C	1.732556	0.390200	0.502545
N345	N	0.982986	-0.335193	-0.313612
N346	N	1.232986	-0.085193	-0.063612
N347	N	1.482986	0.164807	0.186388
N348	N	1.732986	0.414807	0.436388
H349	H	0.982338	-0.368334	0.224734
H350	H	1.232338	-0.118334	0.474734
H351	H	1.482338	0.131666	0.724734
H352	H	1.732338	0.381666	0.974734
H353	H	0.975705	-0.749318	-0.144831
H354	H	1.225705	-0.499318	0.105169
H355	H	1.475705	-0.249318	0.355169
H356	H	1.725705	0.000682	0.605169
C357	C	0.977748	-0.633056	-0.167646
C358	C	1.227748	-0.383056	0.082354
C359	C	1.477748	-0.133056	0.332354
C360	C	1.727748	0.116944	0.582354
N361	N	0.978180	-0.608447	-0.233801
N362	N	1.228180	-0.358447	0.016199
N363	N	1.478180	-0.108447	0.266199
N364	N	1.728180	0.141553	0.516199
C365	C	0.977731	-0.633106	0.167695
C366	C	1.227731	-0.383106	0.417695
C367	C	1.477731	-0.133106	0.667695
C368	C	1.727731	0.116894	0.917695
N369	N	0.978164	-0.608516	0.233855
N370	N	1.228164	-0.358516	0.483855
N371	N	1.478164	-0.108516	0.733855
N372	N	1.728164	0.141484	0.983855
H373	H	0.985308	-0.202857	0.144920
H374	H	1.235308	0.047143	0.394920
H375	H	1.485308	0.297143	0.644920
H376	H	1.735308	0.547143	0.894920
C377	C	0.987342	-0.086596	0.167737
C378	C	1.237342	0.163404	0.417737
C379	C	1.487342	0.413404	0.667737
C380	C	1.737342	0.663404	0.917737
N381	N	0.987756	-0.061986	0.233881
N382	N	1.237756	0.188014	0.483881
N383	N	1.487756	0.438014	0.733881
N384	N	1.737756	0.688014	0.983881
