data_functionalizedCrystal
_audit_creation_method	'MofGen! by Chris Wilmer'
_symmetry_space_group_name_H-M	'P1'
_symmetry_Int_Tables_number	1
_symmetry_cell_setting	triclinic
loop_
_symmetry_equiv_pos_as_xyz
  x,y,z
_cell_length_a	15.944551
_cell_length_b	15.944545
_cell_length_c	10.868271
_cell_angle_alpha	89.992762
_cell_angle_beta	90.000173
_cell_angle_gamma	83.497456
loop_
_atom_site_label
_atom_site_type_symbol
_atom_site_fract_x
_atom_site_fract_y
_atom_site_fract_z
O1	O	1.114521	0.108333	-0.102200
O2	O	0.869971	0.121689	-0.102231
O3	O	0.998927	-0.007264	-0.102200
O4	O	0.985566	0.237286	-0.102231
O5	O	0.998917	-0.007269	0.102445
O6	O	0.869961	0.121684	0.102414
O7	O	1.114511	0.108328	0.102445
Zn8	Zn	0.992234	0.115005	0.134921
Zn9	Zn	0.992248	0.115012	-0.134707
O10	O	0.985555	0.237281	0.102414
C11	C	0.838672	0.121132	0.000087
C12	C	0.745426	0.119470	0.000076
C13	C	0.998368	-0.038561	0.000123
C14	C	0.996708	-0.131807	0.000127
C15	C	0.530571	0.035565	0.000110
C16	C	0.469556	0.074530	-0.100795
C17	C	0.574700	0.116463	0.000091
C18	C	0.469567	0.074544	0.100968
C19	C	0.409788	0.113552	0.000111
C20	C	0.514913	0.155450	-0.100898
C21	C	0.514931	0.155453	0.100956
C22	C	0.453933	0.194476	0.000026
C23	C	0.669703	0.118137	0.000078
C24	C	0.314787	0.111884	0.000114
C25	C	0.911814	-0.402440	0.000091
C26	C	0.952749	-0.351852	-0.100805
C27	C	0.990787	-0.467451	0.000091
C28	C	0.952759	-0.351884	0.100959
C29	C	0.993692	-0.302537	0.000111
C30	C	1.031700	-0.418091	-0.100888
C31	C	1.031700	-0.418127	0.100966
C32	C	1.072692	-0.367571	0.000046
C33	C	0.989112	-0.562453	0.000079
C34	C	0.995374	-0.207538	0.000114
C35	C	1.145810	0.108885	0.000124
C36	C	1.239056	0.110547	0.000127
C37	C	0.986114	0.268578	0.000088
C38	C	0.987774	0.361824	0.000076
N39	N	0.992231	0.115000	0.318935
N40	N	0.992258	0.115010	-0.318721
C41	C	0.992244	0.115010	0.569941
C42	C	0.992234	0.115007	0.430264
H43	H	0.563906	-0.031573	-0.000006
H44	H	1.140757	-0.352081	-0.000003
H45	H	0.449451	0.040316	-0.186095
H46	H	0.449478	0.040311	0.186273
H47	H	0.534904	0.189642	-0.186299
H48	H	0.420773	0.261684	-0.000039
H49	H	0.843802	-0.418092	-0.000016
H50	H	1.065018	-0.447078	0.186278
H51	H	0.919401	-0.322915	-0.186114
H52	H	1.065033	-0.446895	-0.186282
H53	H	0.919389	-0.322972	0.186256
H54	H	0.535057	0.189639	0.186260
