data_functionalizedCrystal
_audit_creation_method	'MofGen! by Chris Wilmer'
_symmetry_space_group_name_H-M	'P1'
_symmetry_Int_Tables_number	1
_symmetry_cell_setting	triclinic
loop_
_symmetry_equiv_pos_as_xyz
  x,y,z
_cell_length_a	19.288867
_cell_length_b	15.186229
_cell_length_c	16.109301
_cell_angle_alpha	90.000293
_cell_angle_beta	83.299326
_cell_angle_gamma	90.004108
loop_
_atom_site_label
_atom_site_type_symbol
_atom_site_fract_x
_atom_site_fract_y
_atom_site_fract_z
O1	O	0.921597	0.073198	0.103717
O2	O	1.171597	0.323198	0.353717
O3	O	1.421597	0.573198	0.603717
O4	O	1.671597	0.823198	0.853717
O5	O	0.719370	0.073206	0.117706
O6	O	0.969370	0.323206	0.367706
O7	O	1.219370	0.573206	0.617706
O8	O	1.469370	0.823206	0.867706
O9	O	0.826038	0.073196	-0.010338
O10	O	1.076038	0.323196	0.239662
O11	O	1.326038	0.573196	0.489662
O12	O	1.576038	0.823196	0.739662
O13	O	0.814928	0.073208	0.231762
O14	O	1.064928	0.323208	0.481762
O15	O	1.314928	0.573208	0.731762
O16	O	1.564928	0.823208	0.981762
O17	O	0.826026	-0.073261	-0.010331
O18	O	1.076026	0.176739	0.239669
O19	O	1.326026	0.426739	0.489669
O20	O	1.576026	0.676739	0.739669
O21	O	0.719357	-0.073251	0.117714
O22	O	0.969357	0.176749	0.367714
O23	O	1.219357	0.426749	0.617714
O24	O	1.469357	0.676749	0.867714
O25	O	0.921584	-0.073259	0.103724
O26	O	1.171584	0.176741	0.353724
O27	O	1.421584	0.426741	0.603724
O28	O	1.671584	0.676741	0.853724
Zn29	Zn	0.820469	-0.096508	0.110720
Zn30	Zn	1.070469	0.153492	0.360720
Zn31	Zn	1.320469	0.403492	0.610720
Zn32	Zn	1.570469	0.653492	0.860720
Zn33	Zn	0.820485	0.096455	0.110711
Zn34	Zn	1.070485	0.346455	0.360711
Zn35	Zn	1.320485	0.596455	0.610711
Zn36	Zn	1.570485	0.846455	0.860711
O37	O	0.814915	-0.073249	0.231769
O38	O	1.064915	0.176751	0.481769
O39	O	1.314915	0.426751	0.731769
O40	O	1.564915	0.676751	0.981769
C41	C	0.693486	-0.000021	0.117260
C42	C	0.943486	0.249979	0.367260
C43	C	1.193486	0.499979	0.617260
C44	C	1.443486	0.749979	0.867260
C45	C	0.616379	-0.000018	0.115908
C46	C	0.866379	0.249982	0.365908
C47	C	1.116379	0.499982	0.615908
C48	C	1.366379	0.749982	0.865908
C49	C	0.060797	0.079805	0.106165
C50	C	0.310797	0.329805	0.356165
C51	C	0.560797	0.579805	0.606165
C52	C	0.810797	0.829805	0.856165
C53	C	0.133248	0.079808	0.107430
C54	C	0.383248	0.329808	0.357430
C55	C	0.633248	0.579808	0.607430
C56	C	0.883248	0.829808	0.857430
C57	C	0.169471	-0.000025	0.108071
C58	C	0.419471	0.249975	0.358071
C59	C	0.669471	0.499975	0.608071
C60	C	0.919471	0.749975	0.858071
C61	C	0.133240	-0.079868	0.107424
C62	C	0.383240	0.170132	0.357424
C63	C	0.633240	0.420132	0.607424
C64	C	0.883240	0.670132	0.857424
C65	C	0.060792	-0.079869	0.106151
C66	C	0.310792	0.170131	0.356151
C67	C	0.560792	0.420131	0.606151
C68	C	0.810792	0.670131	0.856151
C69	C	0.278914	-0.061186	0.158787
C70	C	0.528914	0.188814	0.408787
C71	C	0.778914	0.438814	0.658787
C72	C	1.028914	0.688814	0.908787
C73	C	0.351361	-0.061181	0.160065
C74	C	0.601361	0.188819	0.410065
C75	C	0.851361	0.438819	0.660065
C76	C	1.101361	0.688819	0.910065
C77	C	0.392926	-0.000025	0.111996
C78	C	0.642926	0.249975	0.361996
C79	C	0.892926	0.499975	0.611996
C80	C	1.142926	0.749975	0.861996
C81	C	0.362035	0.061141	0.062658
C82	C	0.612035	0.311141	0.312658
C83	C	0.862035	0.561141	0.562658
C84	C	1.112035	0.811141	0.812658
C85	C	0.289587	0.061140	0.061384
C86	C	0.539587	0.311140	0.311384
C87	C	0.789587	0.561140	0.561384
C88	C	1.039587	0.811140	0.811384
C89	C	0.248029	-0.000033	0.109451
C90	C	0.498029	0.249967	0.359451
C91	C	0.748029	0.499967	0.609451
C92	C	0.998029	0.749967	0.859451
C93	C	0.507708	0.079816	0.114008
C94	C	0.757708	0.329816	0.364008
C95	C	1.007708	0.579816	0.614008
C96	C	1.257708	0.829816	0.864008
C97	C	0.580161	0.079816	0.115268
C98	C	0.830161	0.329816	0.365268
C99	C	1.080161	0.579816	0.615268
C100	C	1.330161	0.829816	0.865268
C101	C	0.580151	-0.079863	0.115271
C102	C	0.830151	0.170137	0.365271
C103	C	1.080151	0.420137	0.615271
C104	C	1.330151	0.670137	0.865271
C105	C	0.507701	-0.079860	0.114002
C106	C	0.757701	0.170140	0.364002
C107	C	1.007701	0.420140	0.614002
C108	C	1.257701	0.670140	0.864002
C109	C	0.471483	-0.000018	0.113375
C110	C	0.721483	0.249982	0.363375
C111	C	0.971483	0.499982	0.613375
C112	C	1.221483	0.749982	0.863375
N113	N	0.820463	-0.228201	0.110726
N114	N	1.070463	0.021799	0.360726
N115	N	1.320463	0.271799	0.610726
N116	N	1.570463	0.521799	0.860726
C117	C	0.862588	-0.453923	0.161011
C118	C	1.112588	-0.203923	0.411011
C119	C	1.362588	0.046077	0.661011
C120	C	1.612588	0.296077	0.911011
C121	C	0.862596	-0.546113	0.161005
C122	C	1.112596	-0.296113	0.411005
C123	C	1.362596	-0.046113	0.661005
C124	C	1.612596	0.203887	0.911005
C125	C	0.778369	-0.546124	0.060408
C126	C	1.028369	-0.296124	0.310408
C127	C	1.278369	-0.046124	0.560408
C128	C	1.528369	0.203876	0.810408
C129	C	0.778366	-0.453936	0.060410
C130	C	1.028366	-0.203936	0.310410
C131	C	1.278366	0.046064	0.560410
C132	C	1.528366	0.296064	0.810410
C133	C	0.820474	-0.407838	0.110716
C134	C	1.070474	-0.157838	0.360716
C135	C	1.320474	0.092162	0.610716
C136	C	1.570474	0.342162	0.860716
C137	C	0.820485	-0.592215	0.110708
C138	C	1.070485	-0.342215	0.360708
C139	C	1.320485	-0.092215	0.610708
C140	C	1.570485	0.157785	0.860708
C141	C	0.820493	-0.692172	0.110701
C142	C	1.070493	-0.442172	0.360701
C143	C	1.320493	-0.192172	0.610701
C144	C	1.570493	0.057828	0.860701
C145	C	0.820467	-0.307875	0.110722
C146	C	1.070467	-0.057875	0.360722
C147	C	1.320467	0.192125	0.610722
C148	C	1.570467	0.442125	0.860722
C149	C	0.947468	-0.000030	0.104171
C150	C	1.197468	0.249970	0.354171
C151	C	1.447468	0.499970	0.604171
C152	C	1.697468	0.749970	0.854171
C153	C	1.024575	-0.000027	0.105523
C154	C	1.274575	0.249973	0.355523
C155	C	1.524575	0.499973	0.605523
C156	C	1.774575	0.749973	0.855523
C157	C	0.825582	-0.000032	-0.041308
C158	C	1.075582	0.249968	0.208692
C159	C	1.325582	0.499968	0.458692
C160	C	1.575582	0.749968	0.708692
C161	C	0.824233	-0.000031	-0.133599
C162	C	1.074233	0.249969	0.116401
C163	C	1.324233	0.499969	0.366401
C164	C	1.574233	0.749969	0.616401
N165	N	0.820497	0.228148	0.110698
N166	N	1.070497	0.478148	0.360698
N167	N	1.320497	0.728148	0.610698
N168	N	1.570497	0.978148	0.860698
C169	C	0.883117	-0.000018	-0.442798
C170	C	1.133117	0.249982	-0.192798
C171	C	1.383117	0.499982	0.057202
C172	C	1.633117	0.749982	0.307202
C173	C	0.884391	-0.000023	-0.356082
C174	C	1.134391	0.249977	-0.106082
C175	C	1.384391	0.499977	0.143918
C176	C	1.634391	0.749977	0.393918
C177	C	0.757832	-0.000030	-0.335777
C178	C	1.007832	0.249970	-0.085777
C179	C	1.257832	0.499970	0.164223
C180	C	1.507832	0.749970	0.414223
C181	C	0.756559	-0.000031	-0.422491
C182	C	1.006559	0.249969	-0.172491
C183	C	1.256559	0.499969	0.077509
C184	C	1.506559	0.749969	0.327509
C185	C	0.819203	-0.000021	-0.476000
C186	C	1.069203	0.249979	-0.226000
C187	C	1.319203	0.499979	0.024000
C188	C	1.569203	0.749979	0.274000
C189	C	0.821751	-0.000025	-0.302570
C190	C	1.071751	0.249975	-0.052570
C191	C	1.321751	0.499975	0.197430
C192	C	1.571751	0.749975	0.447430
C193	C	0.823132	-0.000030	-0.208548
C194	C	1.073132	0.249970	0.041452
C195	C	1.323132	0.499970	0.291452
C196	C	1.573132	0.749970	0.541452
C197	C	0.817822	-0.000017	-0.570027
C198	C	1.067822	0.249983	-0.320027
C199	C	1.317822	0.499983	-0.070027
C200	C	1.567822	0.749983	0.179973
C201	C	0.815372	-0.000019	0.262739
C202	C	1.065372	0.249981	0.512739
C203	C	1.315372	0.499981	0.762739
C204	C	1.565372	0.749981	1.012739
C205	C	0.816721	-0.000014	0.355029
C206	C	1.066721	0.249986	0.605029
C207	C	1.316721	0.499986	0.855029
C208	C	1.566721	0.749986	1.105029
H209	H	0.478207	-0.144869	0.113483
H210	H	0.728207	0.105131	0.363483
H211	H	0.978207	0.355131	0.613483
H212	H	1.228207	0.605131	0.863483
H213	H	0.609643	-0.144865	0.115789
H214	H	0.859643	0.105135	0.365789
H215	H	1.109643	0.355135	0.615789
H216	H	1.359643	0.605135	0.865789
H217	H	0.704509	-0.000037	-0.449524
H218	H	0.954509	0.249963	-0.199524
H219	H	1.204509	0.499963	0.050476
H220	H	1.454509	0.749963	0.300476
H221	H	0.896890	-0.583631	0.201958
H222	H	1.146890	-0.333631	0.451958
H223	H	1.396890	-0.083631	0.701958
H224	H	1.646890	0.166369	0.951958
H225	H	0.896876	-0.416393	0.201973
H226	H	1.146876	-0.166393	0.451973
H227	H	1.396876	0.083607	0.701973
H228	H	1.646876	0.333607	0.951973
Cl229	Cl	0.725431	-0.604081	-0.002824
Cl230	Cl	0.975431	-0.354081	0.247176
Cl231	Cl	1.225431	-0.104081	0.497176
Cl232	Cl	1.475431	0.145919	0.747176
H233	H	0.162746	0.144820	0.107957
H234	H	0.412746	0.394820	0.357957
H235	H	0.662746	0.644820	0.607957
H236	H	0.912746	0.894820	0.857957
H237	H	0.934126	-0.000010	-0.486363
H238	H	1.184126	0.249990	-0.236363
H239	H	1.434126	0.499990	0.013637
H240	H	1.684126	0.749990	0.263637
Cl241	Cl	0.414281	0.138032	0.002226
Cl242	Cl	0.664281	0.388032	0.252226
Cl243	Cl	0.914281	0.638032	0.502226
Cl244	Cl	1.164281	0.888032	0.752226
Cl245	Cl	0.964744	-0.000017	-0.314346
Cl246	Cl	1.214744	0.249983	-0.064346
Cl247	Cl	1.464744	0.499983	0.185654
Cl248	Cl	1.714744	0.749983	0.435654
H249	H	0.264439	0.110942	0.021210
H250	H	0.514439	0.360942	0.271210
H251	H	0.764439	0.610942	0.521210
H252	H	1.014439	0.860942	0.771210
Cl253	Cl	0.462175	0.180186	0.113213
Cl254	Cl	0.712175	0.430186	0.363213
Cl255	Cl	0.962175	0.680186	0.613213
Cl256	Cl	1.212175	0.930186	0.863213
Cl257	Cl	0.625700	0.180187	0.116066
Cl258	Cl	0.875700	0.430187	0.366066
Cl259	Cl	1.125700	0.680187	0.616066
Cl260	Cl	1.375700	0.930187	0.866066
Cl261	Cl	0.725417	-0.395995	-0.002821
Cl262	Cl	0.975417	-0.145995	0.247179
Cl263	Cl	1.225417	0.104005	0.497179
Cl264	Cl	1.475417	0.354005	0.747179
Cl265	Cl	0.226669	-0.138084	0.219213
Cl266	Cl	0.476669	0.111916	0.469213
Cl267	Cl	0.726669	0.361916	0.719213
Cl268	Cl	0.976669	0.611916	0.969213
Cl269	Cl	0.679084	-0.000035	-0.268504
Cl270	Cl	0.929084	0.249965	-0.018504
Cl271	Cl	1.179084	0.499965	0.231496
Cl272	Cl	1.429084	0.749965	0.481496
Cl273	Cl	0.178777	-0.180230	0.108226
Cl274	Cl	0.428777	0.069770	0.358226
Cl275	Cl	0.678777	0.319770	0.608226
Cl276	Cl	0.928777	0.569770	0.858226
Cl277	Cl	0.390187	-0.138068	0.222097
Cl278	Cl	0.640187	0.111932	0.472097
Cl279	Cl	0.890187	0.361932	0.722097
Cl280	Cl	1.140187	0.611932	0.972097
Cl281	Cl	0.015271	0.180178	0.105369
Cl282	Cl	0.265271	0.430178	0.355369
Cl283	Cl	0.515271	0.680178	0.605369
Cl284	Cl	0.765271	0.930178	0.855369
H285	H	0.031300	-0.144880	0.105631
H286	H	0.281300	0.105120	0.355631
H287	H	0.531300	0.355120	0.605631
H288	H	0.781300	0.605120	0.855631
