data_functionalizedCrystal
_audit_creation_method	'MofGen! by Chris Wilmer'
_symmetry_space_group_name_H-M	'P1'
_symmetry_Int_Tables_number	1
_symmetry_cell_setting	triclinic
loop_
_symmetry_equiv_pos_as_xyz
  x,y,z
_cell_length_a	10.723023
_cell_length_b	10.540539
_cell_length_c	9.798715
_cell_angle_alpha	89.998989
_cell_angle_beta	89.996770
_cell_angle_gamma	84.496520
loop_
_atom_site_label
_atom_site_type_symbol
_atom_site_fract_x
_atom_site_fract_y
_atom_site_fract_z
O1	O	1.657276	0.178041	-0.113470
O2	O	1.294132	0.195085	-0.113475
O3	O	1.483989	0.001852	-0.113471
O4	O	1.467419	0.371274	-0.113474
O5	O	1.483975	0.001852	0.113511
O6	O	1.294118	0.195084	0.113507
O7	O	1.657262	0.178041	0.113512
Zn8	Zn	1.475688	0.186562	0.149548
Zn9	Zn	1.475707	0.186563	-0.149511
O10	O	1.467405	0.371273	0.113508
C11	C	1.247625	0.193844	0.000015
C12	C	1.109069	0.190134	0.000013
C13	C	1.047289	0.188480	0.117596
C14	C	0.904084	0.184645	0.117596
C15	C	1.482739	-0.045450	0.000018
C16	C	1.479022	-0.186397	0.000010
C17	C	1.336564	-0.369750	-0.000501
C18	C	1.340333	-0.223134	0.000010
C19	C	1.545757	-0.248089	0.129629
C20	C	1.541024	-0.394631	0.129738
C21	C	1.543861	-0.395150	-0.128383
C22	C	1.545138	-0.248169	-0.130096
C23	C	1.703769	0.179281	0.000019
C24	C	1.842326	0.182991	0.000012
C25	C	1.468655	0.418576	0.000016
C26	C	1.472373	0.559522	0.000015
N27	N	1.475684	0.186561	0.353648
N28	N	1.475720	0.186554	-0.353611
C29	C	1.555400	0.105071	0.421426
C30	C	1.555420	0.105066	0.578589
H31	H	0.850953	0.183229	0.218263
H32	H	1.100416	0.189895	0.218262
H33	H	1.640767	-0.442651	0.135620
H34	H	1.491691	-0.422805	0.226630
F35	F	1.644633	0.013878	0.654771
H36	H	1.055943	0.188708	-0.100653
H37	H	1.407473	0.256330	0.588111
H38	H	0.895446	0.184421	-0.100660
H39	H	1.287821	-0.180503	-0.092906
H40	H	1.281784	-0.398321	-0.093453
F41	F	1.265051	-0.409624	0.119979
H42	H	1.407447	0.256321	0.411970
H43	H	1.287441	-0.181350	0.093079
F44	F	1.481815	-0.194137	-0.255449
H45	H	1.647606	-0.225788	0.134450
H46	H	1.646253	-0.224000	-0.137922
F47	F	1.485150	-0.192382	0.255708
H48	H	1.498980	-0.426680	-0.226625
H49	H	1.644035	-0.442428	-0.129253
H50	H	1.623629	0.035301	0.363105
