data_functionalizedCrystal
_audit_creation_method	'MofGen! by Chris Wilmer'
_symmetry_space_group_name_H-M	'P1'
_symmetry_Int_Tables_number	1
_symmetry_cell_setting	triclinic
loop_
_symmetry_equiv_pos_as_xyz
  x,y,z
_cell_length_a	19.805407
_cell_length_b	18.050589
_cell_length_c	19.805399
_cell_angle_alpha	89.976299
_cell_angle_beta	89.983114
_cell_angle_gamma	90.028221
loop_
_atom_site_label
_atom_site_type_symbol
_atom_site_fract_x
_atom_site_fract_y
_atom_site_fract_z
Zn1	Zn	1.034709	-0.295666	-0.382745
Zn2	Zn	1.034626	-0.419862	-0.269567
Zn3	Zn	0.921529	-0.295690	-0.269569
Zn4	Zn	0.921484	-0.419819	-0.382713
O5	O	0.978087	-0.357759	-0.326148
O6	O	1.129415	-0.312149	-0.367743
O7	O	1.019607	-0.403418	-0.174850
O8	O	0.936597	-0.191762	-0.284596
O9	O	1.129353	-0.403395	-0.284592
O10	O	1.019750	-0.191745	-0.367746
O11	O	0.936516	-0.312189	-0.174852
O12	O	0.826807	-0.312148	-0.284566
O13	O	0.936519	-0.403322	-0.477434
O14	O	0.826773	-0.403345	-0.367693
O15	O	1.019706	-0.312108	-0.477457
O16	O	1.019563	-0.523781	-0.284562
O17	O	0.936438	-0.523749	-0.367690
C18	C	0.802231	-0.357745	-0.326127
C19	C	0.726999	-0.357757	-0.326133
C20	C	0.691655	-0.405315	-0.369347
C21	C	0.620967	-0.405316	-0.369357
C22	C	0.585623	-0.357763	-0.326148
C23	C	0.620972	-0.310200	-0.282933
C24	C	0.691659	-0.310195	-0.282927
C25	C	0.335899	-0.310216	-0.282955
C26	C	0.265207	-0.310226	-0.282962
C27	C	0.265206	-0.405337	-0.369385
C28	C	0.335893	-0.405332	-0.369379
C29	C	0.371236	-0.357767	-0.326166
C30	C	0.447884	-0.357765	-0.326157
C31	C	0.508976	-0.357768	-0.326153
C32	C	0.978005	-0.550711	-0.326137
C33	C	0.978032	-0.633257	-0.326155
C34	C	0.932873	-0.832718	-0.371344
C35	C	0.916378	-0.882158	-0.309581
C36	C	0.978099	-0.784387	-0.326164
C37	C	0.994627	-0.882029	-0.387934
C38	C	0.978162	-0.930373	-0.326178
C39	C	0.961571	-0.832741	-0.264368
C40	C	1.039849	-0.832607	-0.342762
C41	C	1.023377	-0.882025	-0.280957
C42	C	0.978061	-0.700289	-0.326157
C43	C	0.978200	-1.014469	-0.326178
C44	C	1.154630	-0.357774	-0.326171
C45	C	1.229862	-0.357780	-0.326180
C46	C	0.978117	-0.357708	-0.502691
C47	C	0.978129	-0.357686	-0.577923
C48	C	0.978187	-0.164054	-0.326175
C49	C	0.978230	-0.081508	-0.326186
C50	C	0.934876	-0.310179	-0.613268
C51	C	0.934885	-0.310164	-0.683956
C52	C	0.978152	-0.357654	-0.719299
C53	C	1.021407	-0.405166	-0.683949
C54	C	1.021394	-0.405184	-0.613262
C55	C	1.021461	-0.405096	-0.969023
C56	C	1.021472	-0.405074	-1.039715
C57	C	0.934952	-0.310077	-1.039717
C58	C	0.934939	-0.310095	-0.969030
C59	C	0.978191	-0.357609	-0.933686
C60	C	0.978180	-0.357626	-0.857038
C61	C	0.978167	-0.357634	-0.795946
C62	C	0.978096	-0.357757	-0.150292
C63	C	0.978215	-0.357570	-0.075061
H64	H	0.236432	-0.271497	-0.247777
H65	H	0.894571	-0.811067	-0.409498
H66	H	0.864187	-0.903940	-0.295555
H67	H	0.947556	-0.811180	-0.212121
H68	H	1.061650	-0.903539	-0.242711
O69	O	0.729780	-0.258898	-0.236316
H70	H	0.784871	-0.266878	-0.243576
O71	O	1.013119	-0.910705	-0.457121
H72	H	0.975470	-0.890957	-0.494516
H73	H	1.092028	-0.810827	-0.356819
H74	H	0.899647	-0.271503	-0.584497
O75	O	0.888279	-0.258866	-0.930912
H76	H	0.835151	-0.271594	-0.944464
H77	H	0.899661	-0.271482	-0.712731
O78	O	0.582849	-0.456613	-0.415968
H79	H	0.527758	-0.448622	-0.408721
O80	O	0.888303	-0.258820	-1.077836
H81	H	0.895576	-0.266784	-1.132927
O82	O	1.068114	-0.456341	-0.930911
H83	H	1.060834	-0.448387	-0.875820
H84	H	1.056707	-0.443748	-1.068489
O85	O	1.068077	-0.456388	-0.722064
H86	H	1.060826	-0.448389	-0.777155
H87	H	1.056621	-0.443863	-0.584486
H88	H	0.720427	-0.444041	-0.404530
O89	O	0.374015	-0.258939	-0.236328
H90	H	0.337561	-0.225888	-0.206273
O91	O	0.582845	-0.258928	-0.236317
H92	H	0.550652	-0.221194	-0.266662
O93	O	0.374016	-0.456614	-0.415988
H94	H	0.360422	-0.514888	-0.404301
O95	O	0.227088	-0.456634	-0.416004
H96	H	0.171997	-0.448645	-0.408759
