data_functionalizedCrystal
_audit_creation_method	'MofGen! by Chris Wilmer'
_symmetry_space_group_name_H-M	'P1'
_symmetry_Int_Tables_number	1
_symmetry_cell_setting	triclinic
loop_
_symmetry_equiv_pos_as_xyz
  x,y,z
_cell_length_a	16.959455
_cell_length_b	17.639999
_cell_length_c	16.959447
_cell_angle_alpha	101.227701
_cell_angle_beta	89.979626
_cell_angle_gamma	101.198227
loop_
_atom_site_label
_atom_site_type_symbol
_atom_site_fract_x
_atom_site_fract_y
_atom_site_fract_z
Zn1	Zn	1.272027	0.314717	-0.383489
Zn2	Zn	1.772027	0.814717	0.116511
Zn3	Zn	1.298681	0.446904	-0.224619
Zn4	Zn	1.798681	0.946904	0.275381
Zn5	Zn	1.139860	0.314742	-0.251307
Zn6	Zn	1.639860	0.814742	0.248693
Zn7	Zn	1.166540	0.446845	-0.356755
Zn8	Zn	1.666540	0.946845	0.143245
O9	O	1.219277	0.380802	-0.304042
O10	O	1.719277	0.880802	0.195958
O11	O	1.386176	0.332266	-0.362433
O12	O	1.886176	0.832266	0.137567
O13	O	1.277602	0.429407	-0.117541
O14	O	1.777602	0.929407	0.382459
O15	O	1.135073	0.204132	-0.291198
O16	O	1.635073	0.704132	0.208802
O17	O	1.405759	0.429383	-0.245712
O18	O	1.905759	0.929383	0.254288
O19	O	1.232175	0.204113	-0.388312
O20	O	1.732175	0.704113	0.111688
O21	O	1.160918	0.332308	-0.137149
O22	O	1.660918	0.832308	0.362851
O23	O	1.032786	0.332251	-0.265276
O24	O	1.532786	0.832251	0.234724
O25	O	1.180543	0.429283	-0.470919
O26	O	1.680543	0.929283	0.029081
O27	O	1.052387	0.429307	-0.342748
O28	O	1.552387	0.929307	0.157252
O29	O	1.258044	0.332209	-0.490560
O30	O	1.758044	0.832209	0.009440
O31	O	1.303472	0.557503	-0.219790
O32	O	1.803472	1.057503	0.280210
O33	O	1.206388	0.557459	-0.316870
O34	O	1.706388	1.057459	0.183130
C35	C	1.013905	0.380776	-0.304008
C36	C	1.513905	0.880776	0.195992
C37	C	0.926050	0.380784	-0.304008
C38	C	1.426050	0.880784	0.195992
C39	C	0.564754	0.431321	-0.243250
C40	C	1.064754	0.931321	0.256750
C41	C	0.544416	0.330348	-0.364918
C42	C	1.044416	0.830348	0.135082
C43	C	0.626959	0.330335	-0.364901
C44	C	1.126959	0.830335	0.135099
C45	C	0.678404	0.380817	-0.304059
C46	C	1.178404	0.880817	0.195941
C47	C	0.647306	0.431311	-0.243233
C48	C	1.147306	0.931311	0.256767
C49	C	0.658065	0.279848	-0.425730
C50	C	1.158065	0.779848	0.074270
C51	C	0.740613	0.279833	-0.425717
C52	C	1.240613	0.779833	0.074283
C53	C	0.792059	0.330311	-0.364870
C54	C	1.292059	0.830311	0.135130
C55	C	0.760956	0.380807	-0.304042
C56	C	1.260956	0.880807	0.195958
C57	C	0.812401	0.431288	-0.243199
C58	C	1.312401	0.931288	0.256801
C59	C	0.781298	0.481780	-0.182366
C60	C	1.281298	0.981780	0.317634
C61	C	0.698752	0.481789	-0.182387
C62	C	1.198752	0.981789	0.317613
C63	C	0.874605	0.330303	-0.364850
C64	C	1.374605	0.830303	0.135150
C65	C	0.894952	0.431278	-0.243182
C66	C	1.394952	0.931278	0.256818
C67	C	1.260739	0.586160	-0.262550
C68	C	1.760739	1.086160	0.237450
C69	C	1.278549	0.674013	-0.244826
C70	C	1.778549	1.174013	0.255174
C71	C	1.084177	0.962976	-0.438961
C72	C	1.584177	1.462976	0.061039
C73	C	1.100914	1.045528	-0.422281
C74	C	1.600914	1.545528	0.077719
C75	C	1.202070	1.045507	-0.321294
C76	C	1.702070	1.545507	0.178706
C77	C	1.185344	0.962954	-0.337968
C78	C	1.685344	1.462954	0.162032
C79	C	1.126397	0.921695	-0.396802
C80	C	1.626397	1.421695	0.103198
C81	C	1.227564	0.921673	-0.295809
C82	C	1.727564	1.421673	0.204191
C83	C	1.210836	0.839127	-0.312479
C84	C	1.710836	1.339127	0.187521
C85	C	1.151890	0.797862	-0.371308
C86	C	1.651890	1.297862	0.128692
C87	C	1.109669	0.839149	-0.413472
C88	C	1.609669	1.339149	0.086528
C89	C	1.286507	0.962934	-0.236971
C90	C	1.786507	1.462934	0.263029
C91	C	1.328727	0.921652	-0.194812
C92	C	1.828727	1.421652	0.305188
C93	C	1.312004	0.839105	-0.211486
C94	C	1.812004	1.339105	0.288514
C95	C	1.253057	0.797840	-0.270315
C96	C	1.753057	1.297840	0.229685
C97	C	1.354224	0.797818	-0.169322
C98	C	1.854224	1.297818	0.330678
C99	C	1.337497	0.715272	-0.185992
C100	C	1.837497	1.215272	0.314008
C101	C	1.236330	0.715294	-0.286985
C102	C	1.736330	1.215294	0.213015
C103	C	1.425450	0.380828	-0.304077
C104	C	1.925450	0.880828	0.195923
C105	C	1.513309	0.380839	-0.304092
C106	C	2.013309	0.880839	0.195908
C107	C	1.219297	0.380736	-0.510224
C108	C	1.719297	0.880736	-0.010224
C109	C	1.219305	0.380708	-0.598086
C110	C	1.719305	0.880708	-0.098086
C111	C	1.177650	1.174641	-0.345711
C112	C	1.677650	1.674641	0.154289
C113	C	1.159847	1.086788	-0.363458
C114	C	1.659847	1.586788	0.136542
C115	C	1.179031	0.431167	-0.959355
C116	C	1.679031	0.931167	-0.459355
C117	C	1.259734	0.330083	-0.979802
C118	C	1.759734	0.830083	-0.479802
C119	C	1.259716	0.330100	-0.897253
C120	C	1.759716	0.830100	-0.397253
C121	C	1.219356	0.380652	-0.845751
C122	C	1.719356	0.880652	-0.345751
C123	C	1.179014	0.431187	-0.876798
C124	C	1.679014	0.931187	-0.376798
C125	C	1.300064	0.279571	-0.866199
C126	C	1.800064	0.779571	-0.366199
C127	C	1.300049	0.279586	-0.783645
C128	C	1.800049	0.779586	-0.283645
C129	C	1.259684	0.330135	-0.732141
C130	C	1.759684	0.830135	-0.232141
C131	C	1.219340	0.380672	-0.763193
C132	C	1.719340	0.880672	-0.263193
C133	C	1.178980	0.431224	-0.711691
C134	C	1.678980	0.931224	-0.211691
C135	C	1.138630	0.481757	-0.742741
C136	C	1.638630	0.981757	-0.242741
C137	C	1.138649	0.481736	-0.825294
C138	C	1.638649	0.981736	-0.325294
C139	C	1.259665	0.330156	-0.649589
C140	C	1.759665	0.830156	-0.149589
C141	C	1.178963	0.431244	-0.629133
C142	C	1.678963	0.931244	-0.129133
C143	C	1.219291	0.380810	-0.098674
C144	C	1.719291	0.880810	0.401326
C145	C	1.219391	0.380615	-0.010858
C146	C	1.719391	0.880615	0.489142
H147	H	0.765929	0.238719	-0.475250
H148	H	1.265929	0.738719	0.024750
H149	H	1.300127	1.030148	-0.223403
H150	H	1.800127	1.530148	0.276597
H151	H	1.332904	0.238439	-0.758371
H152	H	1.832904	0.738439	-0.258371
H153	H	1.250063	1.079112	-0.273389
H154	H	1.750063	1.579112	0.226611
H155	H	1.292520	0.289015	-0.624310
H156	H	1.792520	0.789015	-0.124310
F157	F	0.907705	0.276573	-0.429591
F158	F	1.407705	0.776573	0.070409
H159	H	1.061674	0.805554	-0.461386
H160	H	1.561674	1.305554	0.038614
F161	F	1.173597	0.671379	-0.349610
F162	F	1.673597	1.171379	0.150390
F163	F	1.391462	0.965572	-0.132200
F164	F	1.891462	1.465572	0.367800
H165	H	1.332929	0.238419	-0.908137
H166	H	1.832929	0.738419	-0.408137
F167	F	1.021445	0.919061	-0.501586
F168	F	1.521445	1.419061	-0.001586
F169	F	1.136000	0.485045	-0.574327
F170	F	1.636000	0.985045	-0.074327
H171	H	0.936834	0.472384	-0.193634
H172	H	1.436834	0.972384	0.306366
F173	F	1.095682	0.535560	-0.687919
F174	F	1.595682	1.035560	-0.187919
H175	H	0.616174	0.238754	-0.475269
H176	H	1.116174	0.738754	0.024731
H177	H	1.105802	0.522880	-0.850583
H178	H	1.605802	1.022880	-0.350583
H179	H	1.146177	0.472308	-0.984641
H180	H	1.646177	0.972308	-0.484641
H181	H	1.292598	0.288930	-1.021739
H182	H	1.792598	0.788930	-0.521739
F183	F	1.134229	0.710009	-0.389193
F184	F	1.634229	1.210009	0.110807
H185	H	1.066539	1.079136	-0.456627
H186	H	1.566539	1.579136	0.043373
H187	H	1.402214	0.831424	-0.121414
H188	H	1.902214	1.331424	0.378586
F189	F	1.382425	0.671335	-0.141115
F190	F	1.882425	1.171335	0.358885
H191	H	0.673420	0.522896	-0.132860
H192	H	1.173420	1.022896	0.367140
F193	F	0.531653	0.485052	-0.178508
F194	F	1.031653	0.985052	0.321492
F195	F	0.836060	0.535509	-0.117620
F196	F	1.336060	1.035509	0.382380
H197	H	0.502526	0.289253	-0.414456
H198	H	1.002526	0.789253	0.085544
