data_functionalizedCrystal
_audit_creation_method	'MofGen! by Chris Wilmer'
_symmetry_space_group_name_H-M	'P1'
_symmetry_Int_Tables_number	1
_symmetry_cell_setting	triclinic
loop_
_symmetry_equiv_pos_as_xyz
  x,y,z
_cell_length_a	19.188930
_cell_length_b	15.944551
_cell_length_c	14.421503
_cell_angle_alpha	89.996660
_cell_angle_beta	90.021481
_cell_angle_gamma	83.321759
loop_
_atom_site_label
_atom_site_type_symbol
_atom_site_fract_x
_atom_site_fract_y
_atom_site_fract_z
O1	O	-0.926420	-0.104854	-0.077412
O2	O	-0.676420	0.145146	0.172588
O3	O	-0.426420	0.395146	0.422588
O4	O	-0.176420	0.645146	0.672588
O5	O	-0.723145	-0.118971	-0.077348
O6	O	-0.473145	0.131029	0.172652
O7	O	-0.223145	0.381029	0.422652
O8	O	0.026855	0.631029	0.672652
O9	O	-0.830334	0.010383	-0.077374
O10	O	-0.580334	0.260383	0.172626
O11	O	-0.330334	0.510383	0.422626
O12	O	-0.080334	0.760383	0.672626
O13	O	-0.819232	-0.234208	-0.077387
O14	O	-0.569232	0.015792	0.172613
O15	O	-0.319232	0.265792	0.422613
O16	O	-0.069232	0.515792	0.672613
O17	O	-0.830316	0.010364	0.076850
O18	O	-0.580316	0.260364	0.326850
O19	O	-0.330316	0.510364	0.576850
O20	O	-0.080316	0.760364	0.826850
O21	O	-0.723128	-0.118990	0.076875
O22	O	-0.473128	0.131010	0.326875
O23	O	-0.223128	0.381010	0.576875
O24	O	0.026872	0.631010	0.826875
O25	O	-0.926402	-0.104874	0.076812
O26	O	-0.676402	0.145126	0.326812
O27	O	-0.426402	0.395126	0.576812
O28	O	-0.176402	0.645126	0.826812
Cu29	Cu	-0.824763	-0.111934	0.090925
Cu30	Cu	-0.574763	0.138066	0.340925
Cu31	Cu	-0.324763	0.388066	0.590925
Cu32	Cu	-0.074763	0.638066	0.840925
Cu33	Cu	-0.824784	-0.111911	-0.091462
Cu34	Cu	-0.574784	0.138089	0.158538
Cu35	Cu	-0.324784	0.388089	0.408538
Cu36	Cu	-0.074784	0.638089	0.658538
O37	O	-0.819214	-0.234228	0.076837
O38	O	-0.569214	0.015772	0.326837
O39	O	-0.319214	0.265772	0.576837
O40	O	-0.069214	0.515772	0.826837
C41	C	-0.829864	0.041666	-0.000261
C42	C	-0.579864	0.291666	0.249739
C43	C	-0.329864	0.541666	0.499739
C44	C	-0.079864	0.791666	0.749739
C45	C	-0.828482	0.134906	-0.000261
C46	C	-0.578482	0.384906	0.249739
C47	C	-0.328482	0.634906	0.499739
C48	C	-0.078482	0.884906	0.749739
C49	C	-0.697124	-0.118524	-0.000229
C50	C	-0.447124	0.131476	0.249771
C51	C	-0.197124	0.381476	0.499771
C52	C	0.052876	0.631476	0.749771
C53	C	-0.619616	-0.117151	-0.000204
C54	C	-0.369616	0.132849	0.249796
C55	C	-0.119616	0.382849	0.499796
C56	C	0.130384	0.632849	0.749796
C57	C	-0.952423	-0.105321	-0.000310
C58	C	-0.702423	0.144679	0.249690
C59	C	-0.452423	0.394679	0.499690
C60	C	-0.202423	0.644679	0.749690
C61	C	-1.029932	-0.106693	-0.000341
C62	C	-0.779932	0.143307	0.249659
C63	C	-0.529932	0.393307	0.499659
C64	C	-0.279932	0.643307	0.749659
C65	C	-0.574889	-0.193052	-0.000223
C66	C	-0.324889	0.056948	0.249777
C67	C	-0.074889	0.306948	0.499777
C68	C	0.175111	0.556948	0.749777
C69	C	-0.502061	-0.191763	-0.000233
C70	C	-0.252061	0.058237	0.249767
C71	C	-0.002061	0.308237	0.499767
C72	C	0.247939	0.558237	0.749767
C73	C	-0.473965	-0.114568	-0.000243
C74	C	-0.223965	0.135432	0.249757
C75	C	0.026035	0.385432	0.499757
C76	C	0.276035	0.635432	0.749757
C77	C	-0.518703	-0.038658	-0.000219
C78	C	-0.268703	0.211342	0.249781
C79	C	-0.018703	0.461342	0.499781
C80	C	0.231297	0.711342	0.749781
C81	C	-0.591528	-0.039949	-0.000200
C82	C	-0.341528	0.210051	0.249800
C83	C	-0.091528	0.460051	0.499800
C84	C	0.158472	0.710051	0.749800
N85	N	-0.365839	-0.055556	-0.052766
N86	N	-0.115839	0.194444	0.197234
N87	N	0.134161	0.444444	0.447234
N88	N	0.384161	0.694444	0.697234
N89	N	-0.296657	-0.054335	-0.052787
N90	N	-0.046657	0.195665	0.197213
N91	N	0.203343	0.445665	0.447213
N92	N	0.453343	0.695665	0.697213
C93	C	-0.254547	-0.110673	-0.000300
C94	C	-0.004547	0.139327	0.249700
C95	C	0.245453	0.389327	0.499700
C96	C	0.495453	0.639327	0.749700
N97	N	-0.284230	-0.168291	0.052197
N98	N	-0.034230	0.081709	0.302197
N99	N	0.215770	0.331709	0.552197
N100	N	0.465770	0.581709	0.802197
N101	N	-0.353418	-0.169515	0.052213
N102	N	-0.103418	0.080485	0.302213
N103	N	0.146582	0.330485	0.552213
N104	N	0.396582	0.580485	0.802213
C105	C	-0.394999	-0.113160	-0.000263
C106	C	-0.144999	0.136840	0.249737
C107	C	0.105001	0.386840	0.499737
C108	C	0.355001	0.636840	0.749737
C109	C	-0.130851	-0.185181	-0.000328
C110	C	0.119149	0.064819	0.249672
C111	C	0.369149	0.314819	0.499672
C112	C	0.619149	0.564819	0.749672
C113	C	-0.058023	-0.183888	-0.000332
C114	C	0.191977	0.066112	0.249668
C115	C	0.441977	0.316112	0.499668
C116	C	0.691977	0.566112	0.749668
C117	C	-0.074666	-0.030781	-0.000328
C118	C	0.175334	0.219219	0.249672
C119	C	0.425334	0.469219	0.499672
C120	C	0.675334	0.719219	0.749672
C121	C	-0.147492	-0.032076	-0.000314
C122	C	0.102508	0.217924	0.249686
C123	C	0.352508	0.467924	0.499686
C124	C	0.602508	0.717924	0.749686
C125	C	-0.175580	-0.109278	-0.000319
C126	C	0.074420	0.140722	0.249681
C127	C	0.324420	0.390722	0.499681
C128	C	0.574420	0.640722	0.749681
C129	C	-0.819684	-0.265510	-0.000277
C130	C	-0.569684	-0.015510	0.249723
C131	C	-0.319684	0.234490	0.499723
C132	C	-0.069684	0.484490	0.749723
C133	C	-0.821066	-0.358751	-0.000284
C134	C	-0.571066	-0.108751	0.249716
C135	C	-0.321066	0.141249	0.499716
C136	C	-0.071066	0.391249	0.749716
N137	N	-0.824754	-0.111949	0.219206
N138	N	-0.574754	0.138051	0.469206
N139	N	-0.324754	0.388051	0.719206
N140	N	-0.074754	0.638051	0.969206
C141	C	-0.758739	0.349502	-0.000252
C142	C	-0.508739	0.599502	0.249748
C143	C	-0.258739	0.849502	0.499748
C144	C	-0.008739	1.099502	0.749748
C145	C	-0.791117	0.410631	0.075780
C146	C	-0.541117	0.660631	0.325780
C147	C	-0.291117	0.910631	0.575780
C148	C	-0.041117	1.160631	0.825780
C149	C	-0.825983	0.305623	-0.000267
C150	C	-0.575983	0.555623	0.249733
C151	C	-0.325983	0.805623	0.499733
C152	C	-0.075983	1.055623	0.749733
C153	C	-0.791150	0.410634	-0.076272
C154	C	-0.541150	0.660634	0.173728
C155	C	-0.291150	0.910634	0.423728
C156	C	-0.041150	1.160634	0.673728
C157	C	-0.823563	0.470527	-0.000277
C158	C	-0.573563	0.720527	0.249723
C159	C	-0.323563	0.970527	0.499723
C160	C	-0.073563	1.220527	0.749723
C161	C	-0.858379	0.365524	0.075827
C162	C	-0.608379	0.615524	0.325827
C163	C	-0.358379	0.865524	0.575827
C164	C	-0.108379	1.115524	0.825827
C165	C	-0.858403	0.365520	-0.076293
C166	C	-0.608403	0.615520	0.173707
C167	C	-0.358403	0.865520	0.423707
C168	C	-0.108403	1.115520	0.673707
C169	C	-0.890829	0.426631	-0.000243
C170	C	-0.640829	0.676631	0.249757
C171	C	-0.390829	0.926631	0.499757
C172	C	-0.140829	1.176631	0.749757
C173	C	-0.827374	0.210626	-0.000260
C174	C	-0.577374	0.460626	0.249740
C175	C	-0.327374	0.710626	0.499740
C176	C	-0.077374	0.960626	0.749740
C177	C	-0.822176	0.565522	-0.000277
C178	C	-0.572176	0.815522	0.249723
C179	C	-0.322176	1.065522	0.499723
C180	C	-0.072176	1.315522	0.749723
N181	N	-0.824800	-0.111889	-0.219743
N182	N	-0.574800	0.138111	0.030257
N183	N	-0.324800	0.388111	0.280257
N184	N	-0.074800	0.638111	0.530257
C185	C	-0.775181	-0.171736	0.468872
C186	C	-0.525181	0.078264	0.718872
C187	C	-0.275181	0.328264	0.968872
C188	C	-0.025181	0.578264	1.218872
C189	C	-0.838271	-0.187807	0.530653
C190	C	-0.588271	0.062193	0.780653
C191	C	-0.338271	0.312193	1.030653
C192	C	-0.088271	0.562193	1.280653
C193	C	-0.824771	-0.111929	0.408368
C194	C	-0.574771	0.138071	0.658368
C195	C	-0.324771	0.388071	0.908368
C196	C	-0.074771	0.638071	1.158368
C197	C	-0.761697	-0.095877	0.530680
C198	C	-0.511697	0.154123	0.780680
C199	C	-0.261697	0.404123	1.030680
C200	C	-0.011697	0.654123	1.280680
C201	C	-0.824781	-0.111912	0.591089
C202	C	-0.574781	0.138088	0.841089
C203	C	-0.324781	0.388088	1.091089
C204	C	-0.074781	0.638088	1.341089
C205	C	-0.887892	-0.128038	0.468789
C206	C	-0.637892	0.121962	0.718789
C207	C	-0.387892	0.371962	0.968789
C208	C	-0.137892	0.621962	1.218789
C209	C	-0.811277	-0.036076	0.468810
C210	C	-0.561277	0.213924	0.718810
C211	C	-0.311277	0.463924	0.968810
C212	C	-0.061277	0.713924	1.218810
C213	C	-0.874413	-0.052114	0.530564
C214	C	-0.624413	0.197886	0.780564
C215	C	-0.374413	0.447886	1.030564
C216	C	-0.124413	0.697886	1.280564
C217	C	-0.824764	-0.111941	0.303107
C218	C	-0.574764	0.138059	0.553107
C219	C	-0.324764	0.388059	0.803107
C220	C	-0.074764	0.638059	1.053107
C221	C	-0.824796	-0.111899	0.696348
C222	C	-0.574796	0.138101	0.946348
C223	C	-0.324796	0.388101	1.196348
C224	C	-0.074796	0.638101	1.446348
H225	H	-0.597753	-0.255916	-0.000228
H226	H	-0.347753	-0.005916	0.249772
H227	H	-0.097753	0.244084	0.499772
H228	H	0.152247	0.494084	0.749772
H229	H	-0.799834	0.028044	0.441624
H230	H	-0.549834	0.278044	0.691624
H231	H	-0.299834	0.528044	0.941624
H232	H	-0.049834	0.778044	1.191624
H233	H	-0.941248	-0.141684	0.441717
H234	H	-0.691248	0.108316	0.691717
H235	H	-0.441248	0.358316	0.941717
H236	H	-0.191248	0.608316	1.191717
H237	H	-0.708353	-0.082309	0.557868
H238	H	-0.458353	0.167691	0.807868
H239	H	-0.208353	0.417691	1.057868
H240	H	0.041647	0.667691	1.307868
H241	H	-0.916399	-0.001527	0.557482
H242	H	-0.666399	0.248473	0.807482
H243	H	-0.416399	0.498473	1.057482
H244	H	-0.166399	0.748473	1.307482
H245	H	-0.627946	0.021860	-0.000185
H246	H	-0.377946	0.271860	0.249815
H247	H	-0.127946	0.521860	0.499815
H248	H	0.122054	0.771860	0.749815
H249	H	-0.733287	-0.222352	0.441784
H250	H	-0.483287	0.027648	0.691784
H251	H	-0.233287	0.277648	0.941784
H252	H	0.016713	0.527648	1.191784
H253	H	-0.849694	-0.251947	0.557818
H254	H	-0.599694	-0.001947	0.807818
H255	H	-0.349694	0.248053	1.057818
H256	H	-0.099694	0.498053	1.307818
H257	H	-0.021605	-0.245698	-0.000342
H258	H	0.228395	0.004302	0.249658
H259	H	0.478395	0.254302	0.499658
H260	H	0.728395	0.504302	0.749658
H261	H	-0.051791	0.032072	-0.000393
H262	H	0.198209	0.282072	0.249607
H263	H	0.448209	0.532072	0.499607
H264	H	0.698209	0.782072	0.749607
H265	H	-0.702924	0.315986	-0.000158
H266	H	-0.452924	0.565986	0.249842
H267	H	-0.202924	0.815986	0.499842
H268	H	0.047076	1.065986	0.749842
H269	H	-0.762708	0.430612	-0.140555
H270	H	-0.512708	0.680612	0.109445
H271	H	-0.262708	0.930612	0.359445
H272	H	-0.012708	1.180612	0.609445
H273	H	-0.495822	0.024194	-0.000240
H274	H	-0.245822	0.274194	0.249760
H275	H	0.004178	0.524194	0.499760
H276	H	0.254178	0.774194	0.749760
H277	H	-0.886788	0.345632	0.140176
H278	H	-0.636788	0.595632	0.390176
H279	H	-0.386788	0.845632	0.640176
H280	H	-0.136788	1.095632	0.890176
H281	H	-0.153721	-0.248043	-0.000318
H282	H	0.096279	0.001957	0.249682
H283	H	0.346279	0.251957	0.499682
H284	H	0.596279	0.501957	0.749682
H285	H	-0.465637	-0.253572	-0.000246
H286	H	-0.215637	-0.003572	0.249754
H287	H	0.034363	0.246428	0.499754
H288	H	0.284363	0.496428	0.749754
H289	H	-0.762668	0.430625	0.140076
H290	H	-0.512668	0.680625	0.390076
H291	H	-0.262668	0.930625	0.640076
H292	H	-0.012668	1.180625	0.890076
H293	H	-0.183911	0.029731	-0.000304
H294	H	0.066089	0.279731	0.249696
H295	H	0.316089	0.529731	0.499696
H296	H	0.566089	0.779731	0.749696
H297	H	-0.946693	0.459999	-0.000218
H298	H	-0.696693	0.709999	0.249782
H299	H	-0.446693	0.959999	0.499782
H300	H	-0.196693	1.209999	0.749782
H301	H	-0.886827	0.345504	-0.140592
H302	H	-0.636827	0.595504	0.109408
H303	H	-0.386827	0.845504	0.359408
H304	H	-0.136827	1.095504	0.609408
