data_functionalizedCrystal
_audit_creation_method	'MofGen! by Chris Wilmer'
_symmetry_space_group_name_H-M	'P1'
_symmetry_Int_Tables_number	1
_symmetry_cell_setting	triclinic
loop_
_symmetry_equiv_pos_as_xyz
  x,y,z
_cell_length_a	29.839135
_cell_length_b	29.839131
_cell_length_c	29.839125
_cell_angle_alpha	89.974637
_cell_angle_beta	89.984512
_cell_angle_gamma	90.037758
loop_
_atom_site_label
_atom_site_type_symbol
_atom_site_fract_x
_atom_site_fract_y
_atom_site_fract_z
Zn1	Zn	0.686739	-0.178886	-0.254023
Zn2	Zn	0.686679	-0.253998	-0.178883
Zn3	Zn	0.611622	-0.178886	-0.178901
Zn4	Zn	0.611578	-0.253993	-0.253980
O5	O	0.649154	-0.216441	-0.216447
O6	O	0.749598	-0.188852	-0.244066
O7	O	0.676716	-0.244036	-0.116019
O8	O	0.621630	-0.116019	-0.188892
O9	O	0.749554	-0.244036	-0.188861
O10	O	0.676818	-0.116019	-0.244084
O11	O	0.621572	-0.188852	-0.116032
O12	O	0.548749	-0.188847	-0.188850
O13	O	0.621554	-0.244028	-0.316853
O14	O	0.548716	-0.244028	-0.244010
O15	O	0.676775	-0.188847	-0.316885
O16	O	0.676673	-0.316864	-0.188819
O17	O	0.621497	-0.316861	-0.243993
C18	C	0.532432	-0.216437	-0.216428
C19	C	0.482497	-0.216447	-0.216430
C20	C	0.649086	-0.333163	-0.216409
C21	C	0.649098	-0.383098	-0.216408
C22	C	0.172874	-0.187750	-0.245235
C23	C	-0.014799	-0.187753	-0.245247
O24	O	-0.039047	-0.163344	-0.269717
N25	N	-0.038288	-0.216441	-0.216464
C26	C	-0.014855	-0.245129	-0.187672
O27	O	-0.039140	-0.269527	-0.163187
C28	C	0.172817	-0.245123	-0.187658
C29	C	0.196303	-0.216436	-0.216447
C30	C	0.196360	-0.159065	-0.274021
C31	C	0.243275	-0.159066	-0.274019
C32	C	0.266705	-0.187752	-0.245231
C33	C	0.243219	-0.216437	-0.216445
C34	C	0.196249	-0.273808	-0.158864
C35	C	0.243170	-0.273803	-0.158862
C36	C	0.266656	-0.245116	-0.187651
C37	C	0.313563	-0.245125	-0.187655
N38	N	0.337052	-0.216437	-0.216439
C39	C	0.313623	-0.187750	-0.245227
C40	C	-0.113386	-0.245130	-0.187683
C41	C	-0.160304	-0.245133	-0.187687
C42	C	-0.160244	-0.187756	-0.245262
C43	C	-0.113326	-0.187756	-0.245259
C44	C	-0.089897	-0.216442	-0.216467
C45	C	0.412148	-0.187755	-0.245221
C46	C	0.459068	-0.187760	-0.245218
C47	C	0.459005	-0.245135	-0.187642
C48	C	0.412089	-0.245132	-0.187647
C49	C	0.388662	-0.216438	-0.216438
O50	O	0.337840	-0.269518	-0.163195
O51	O	0.337915	-0.163349	-0.269702
C52	C	0.125958	-0.187749	-0.245236
C53	C	0.102472	-0.216434	-0.216450
C54	C	0.125902	-0.245120	-0.187662
C55	C	0.055554	-0.216436	-0.216454
C56	C	0.032125	-0.187749	-0.245242
C57	C	0.055614	-0.159061	-0.274026
C58	C	0.102529	-0.159062	-0.274025
C59	C	0.102413	-0.273808	-0.158878
C60	C	0.055498	-0.273805	-0.158883
C61	C	0.032068	-0.245119	-0.187671
C62	C	0.677885	-0.692706	-0.245226
C63	C	0.677933	-0.880379	-0.245253
O64	O	0.702342	-0.904614	-0.269728
N65	N	0.649231	-0.903883	-0.216497
C66	C	0.620512	-0.880465	-0.187734
O67	O	0.596096	-0.904763	-0.163279
C68	C	0.620461	-0.692793	-0.187709
C69	C	0.649169	-0.669292	-0.216464
C70	C	0.706590	-0.669205	-0.273979
C71	C	0.706579	-0.622290	-0.273971
C72	C	0.677863	-0.598875	-0.245209
C73	C	0.649158	-0.622377	-0.216456
C74	C	0.591740	-0.669376	-0.158949
C75	C	0.591729	-0.622455	-0.158946
C76	C	0.620437	-0.598954	-0.187701
C77	C	0.620431	-0.552047	-0.187685
N78	N	0.649134	-0.528543	-0.216441
C79	C	0.677850	-0.551957	-0.245203
C80	C	0.620541	-0.978996	-0.187748
C81	C	0.620554	-1.025914	-0.187753
C82	C	0.677975	-1.025824	-0.245274
C83	C	0.677964	-0.978906	-0.245266
C84	C	0.649244	-0.955492	-0.216504
C85	C	0.677826	-0.453432	-0.245183
C86	C	0.677814	-0.406512	-0.245170
C87	C	0.620391	-0.406605	-0.187651
C88	C	0.620404	-0.453521	-0.187662
C89	C	0.649123	-0.476933	-0.216431
O90	O	0.596032	-0.527783	-0.163227
O91	O	0.702255	-0.527652	-0.269662
C92	C	0.677895	-0.739622	-0.245235
C93	C	0.649190	-0.763123	-0.216482
C94	C	0.620474	-0.739709	-0.187720
C95	C	0.649203	-0.810041	-0.216487
C96	C	0.677919	-0.833455	-0.245249
C97	C	0.706622	-0.809951	-0.274006
C98	C	0.706611	-0.763036	-0.273997
C99	C	0.591772	-0.763212	-0.158964
C100	C	0.591785	-0.810128	-0.158974
C101	C	0.620501	-0.833542	-0.187736
C102	C	0.766333	-0.216445	-0.216467
C103	C	0.816267	-0.216446	-0.216475
C104	C	0.649167	-0.216437	-0.333625
C105	C	0.649172	-0.216435	-0.383560
C106	C	0.649235	-0.099262	-0.216495
C107	C	0.649270	-0.049328	-0.216515
C108	C	0.677955	-0.187627	-0.693223
C109	C	0.677978	-0.187589	-0.880896
O110	O	0.702417	-0.163138	-0.905177
N111	N	0.649231	-0.216315	-0.904345
C112	C	0.620475	-0.245050	-0.880873
O113	O	0.596022	-0.269479	-0.905124
C114	C	0.620451	-0.245086	-0.693201
C115	C	0.649202	-0.216361	-0.669754
C116	C	0.706704	-0.158905	-0.669776
C117	C	0.706700	-0.158916	-0.622861
C118	C	0.677947	-0.187650	-0.599392
C119	C	0.649198	-0.216373	-0.622839
C120	C	0.591693	-0.273819	-0.669730
C121	C	0.591689	-0.273824	-0.622809
C122	C	0.620440	-0.245100	-0.599362
C123	C	0.620441	-0.245119	-0.552455
N124	N	0.649188	-0.216393	-0.529005
C125	C	0.677941	-0.187659	-0.552474
C126	C	0.620491	-0.245030	-0.979404
C127	C	0.620497	-0.245022	-1.026322
C128	C	0.677999	-0.187560	-1.026341
C129	C	0.677994	-0.187571	-0.979423
C130	C	0.649237	-0.216304	-0.955955
C131	C	0.677930	-0.187685	-0.453948
C132	C	0.677925	-0.187701	-0.407029
C133	C	0.620421	-0.245161	-0.407013
C134	C	0.620428	-0.245147	-0.453929
C135	C	0.649184	-0.216406	-0.477395
O136	O	0.596011	-0.269553	-0.528144
O137	O	0.702383	-0.163226	-0.528215
C138	C	0.677960	-0.187616	-0.740138
C139	C	0.649211	-0.216338	-0.763585
C140	C	0.620458	-0.245072	-0.740116
C141	C	0.649217	-0.216330	-0.810503
C142	C	0.677970	-0.187596	-0.833972
C143	C	0.706717	-0.158870	-0.810523
C144	C	0.706712	-0.158881	-0.763607
C145	C	0.591711	-0.273798	-0.763566
C146	C	0.591718	-0.273785	-0.810481
C147	C	0.620471	-0.245050	-0.833950
C148	C	0.649168	-0.216412	-0.099725
C149	C	0.649250	-0.216288	-0.049790
H150	H	0.478188	-0.164399	-0.268663
Cl151	Cl	0.742667	-0.592752	-0.310126
Cl152	Cl	0.742723	-0.839395	-0.310162
Cl153	Cl	0.584335	-0.281157	-0.949908
H154	H	0.568280	-0.297209	-0.688812
H155	H	0.729974	-0.688264	-0.297404
Cl156	Cl	0.584358	-0.281141	-1.055792
Cl157	Cl	-0.189707	-0.151692	-0.281451
H158	H	0.568265	-0.297218	-0.603704
H159	H	0.597182	-1.045044	-0.164333
H160	H	0.568297	-0.297198	-0.744462
H161	H	0.568340	-0.603394	-0.135526
H162	H	0.262394	-0.135705	-0.297462
H163	H	0.393080	-0.164389	-0.268665
Cl164	Cl	0.131860	-0.309871	-0.122679
Cl165	Cl	0.713907	-0.376971	-0.281321
H166	H	0.597020	-0.268541	-0.473020
H167	H	0.701340	-0.959774	-0.268681
Cl168	Cl	0.713931	-0.482857	-0.281349
Cl169	Cl	0.555646	-0.698909	-0.122799
H170	H	0.729988	-0.743905	-0.297412
Cl171	Cl	0.166914	-0.122997	-0.310217
H172	H	0.568408	-0.829258	-0.135554
H173	H	-0.179422	-0.268497	-0.164249
H174	H	-0.094314	-0.268491	-0.164235
H175	H	0.478089	-0.268492	-0.164205
Cl176	Cl	0.584275	-0.281281	-0.377501
H177	H	0.597032	-0.472657	-0.164244
Cl178	Cl	0.714139	-0.151457	-0.949952
H179	H	0.392966	-0.268496	-0.164210
Cl180	Cl	0.714075	-1.055268	-0.281432
H181	H	0.121647	-0.135702	-0.297467
Cl182	Cl	0.555666	-0.733784	-0.122804
Cl183	Cl	0.742858	-0.122768	-0.734138
H184	H	0.036529	-0.135705	-0.297468
Cl185	Cl	0.272620	-0.309869	-0.122665
H186	H	0.036379	-0.297170	-0.135440
Cl187	Cl	0.742864	-0.122748	-0.840035
H188	H	0.597153	-0.959936	-0.164326
H189	H	0.701339	-0.164310	-0.387940
Cl190	Cl	0.742844	-0.122800	-0.593392
Cl191	Cl	0.714079	-0.151551	-0.483442
H192	H	0.597012	-0.387534	-0.164232
Cl193	Cl	0.166735	-0.309865	-0.122661
Cl194	Cl	-0.083805	-0.151690	-0.281451
Cl195	Cl	0.742862	-0.122782	-0.699271
H196	H	0.568306	-0.297180	-0.829567
Cl197	Cl	0.714145	-0.151436	-1.055853
