data_functionalizedCrystal
_audit_creation_method	'MofGen! by Chris Wilmer'
_symmetry_space_group_name_H-M	'P1'
_symmetry_Int_Tables_number	1
_symmetry_cell_setting	triclinic
loop_
_symmetry_equiv_pos_as_xyz
  x,y,z
_cell_length_a	12.759401
_cell_length_b	19.076808
_cell_length_c	12.759393
_cell_angle_alpha	92.334138
_cell_angle_beta	90.019676
_cell_angle_gamma	92.323972
loop_
_atom_site_label
_atom_site_type_symbol
_atom_site_fract_x
_atom_site_fract_y
_atom_site_fract_z
Zn1	Zn	1.589385	-0.280176	0.577141
Zn2	Zn	1.582183	-0.397897	0.394384
Zn3	Zn	1.413681	-0.280211	0.401478
Zn4	Zn	1.406585	-0.397845	0.570028
O5	O	1.497959	-0.339032	0.485758
O6	O	1.735450	-0.295799	0.552906
O7	O	1.559786	-0.382322	0.248302
O8	O	1.442973	-0.181710	0.430726
O9	O	1.730159	-0.382288	0.418635
O10	O	1.572061	-0.181684	0.559785
O11	O	1.435989	-0.295859	0.253514
O12	O	1.265720	-0.295809	0.423829
O13	O	1.430879	-0.382200	0.717995
O14	O	1.260506	-0.382234	0.547662
O15	O	1.565180	-0.295749	0.723221
O16	O	1.552906	-0.496387	0.411738
O17	O	1.423895	-0.496349	0.540783
C18	C	1.224992	-0.339020	0.485744
C19	C	1.108215	-0.339032	0.485762
C20	C	1.056104	-0.294078	0.555775
C21	C	0.946379	-0.294086	0.555782
C22	C	0.940886	-0.384006	0.415758
C23	C	1.050609	-0.383995	0.415747
C24	C	1.486877	-0.521907	0.474742
C25	C	1.482233	-0.600142	0.470064
C26	C	1.547210	-0.636823	0.535115
C27	C	1.542842	-0.710332	0.530722
C28	C	1.473501	-0.747160	0.461272
C29	C	1.408517	-0.710474	0.396218
C30	C	1.412880	-0.636966	0.400617
C31	C	1.453244	-0.967014	0.440908
C32	C	1.448887	-1.040528	0.436511
C33	C	1.583212	-1.040381	0.571017
C34	C	1.587574	-0.966871	0.575406
C35	C	1.522586	-0.930192	0.510356
N36	N	1.469037	-0.822299	0.456777
N37	N	1.527045	-0.855054	0.514857
C38	C	1.771991	-0.339045	0.485773
C39	C	1.888767	-0.339050	0.485779
C40	C	1.498041	-0.338965	0.759795
C41	C	1.498077	-0.338936	0.876574
C42	C	1.509112	-0.155443	0.496840
C43	C	1.513865	-0.077209	0.501562
C44	C	1.497940	-0.339049	0.212789
C45	C	1.498120	-0.338879	0.096024
C46	C	1.568013	-0.293914	0.934159
C47	C	1.568033	-0.293883	1.043885
C48	C	1.428176	-0.383904	1.038431
C49	C	1.428152	-0.383930	0.928707
H50	H	0.893970	-0.420613	0.358755
H51	H	1.371194	-0.420592	0.881820
C52	C	1.034166	-0.472888	0.277342
C53	C	1.107897	-0.433414	0.338785
H54	H	1.069536	-0.503396	0.229836
H55	H	0.993209	-0.442194	0.239084
H56	H	0.989760	-0.499852	0.321441
H57	H	1.152299	-0.406445	0.294687
H58	H	1.148872	-0.464111	0.377046
C59	C	1.369758	-0.503078	1.065005
C60	C	1.351325	-0.433365	1.095737
H61	H	1.322309	-0.533614	1.100379
H62	H	1.439718	-0.513373	1.082379
H63	H	1.359731	-0.509527	0.991415
H64	H	1.361359	-0.426915	1.169327
H65	H	1.281348	-0.423066	1.078371
C66	C	1.050508	-0.205194	0.694177
C67	C	1.119425	-0.244651	0.632727
H68	H	1.089601	-0.174676	0.741679
H69	H	1.005878	-0.235898	0.732441
H70	H	1.009320	-0.178240	0.650083
H71	H	1.160609	-0.271610	0.676820
H72	H	1.164074	-0.213944	0.594460
C73	C	0.780624	-0.254173	0.617970
C74	C	0.889097	-0.244674	0.632746
H75	H	0.745264	-0.223663	0.665483
H76	H	0.759795	-0.301474	0.630380
H77	H	0.763249	-0.243812	0.548029
H78	H	0.906473	-0.255040	0.702685
H79	H	0.909935	-0.197362	0.620344
C80	C	1.679530	-0.644069	0.667639
C81	C	1.623427	-0.596345	0.611464
H82	H	1.726575	-0.619079	0.714781
H83	H	1.718043	-0.672735	0.620185
H84	H	1.632016	-0.672750	0.706061
H85	H	1.670940	-0.567667	0.573035
H86	H	1.584911	-0.567667	0.658924
C87	C	1.429453	-1.123262	0.290212
C88	C	1.372662	-1.081007	0.360162
H89	H	1.382399	-1.148247	0.243074
H90	H	1.467519	-1.155627	0.328323
H91	H	1.476946	-1.094567	0.251789
H92	H	1.325175	-1.109703	0.398591
H93	H	1.334579	-1.048639	0.322047
C94	C	1.552491	-0.792909	0.667130
C95	C	1.614278	-0.750645	0.602227
H96	H	1.596599	-0.817790	0.711280
H97	H	1.510581	-0.825365	0.625148
H98	H	1.508401	-0.764232	0.708990
H99	H	1.658363	-0.779322	0.560360
H100	H	1.656205	-0.718185	0.644213
H101	H	1.644036	-0.936888	0.631958
H102	H	1.636120	-1.070254	0.623978
H103	H	1.400330	-0.937156	0.387940
C104	C	1.342194	-0.823221	0.329740
C105	C	1.332299	-0.750953	0.319873
H106	H	1.295145	-0.848208	0.282599
H107	H	1.326063	-0.835241	0.399588
H108	H	1.412085	-0.835224	0.313708
H109	H	1.262409	-0.738949	0.335913
H110	H	1.348423	-0.738928	0.250009
H111	H	1.359968	-0.607101	0.347648
H112	H	1.624947	-0.257275	0.891716
C113	C	1.706281	-0.204914	1.038247
C114	C	1.644914	-0.244397	1.107182
H115	H	1.753749	-0.174365	1.077326
H116	H	1.662136	-0.177998	0.997071
H117	H	1.744589	-0.235604	0.993604
H118	H	1.606600	-0.213706	1.151821
H119	H	1.689064	-0.271314	1.148376
