data_functionalizedCrystal
_audit_creation_method	'MofGen! by Chris Wilmer'
_symmetry_space_group_name_H-M	'P1'
_symmetry_Int_Tables_number	1
_symmetry_cell_setting	triclinic
loop_
_symmetry_equiv_pos_as_xyz
  x,y,z
_cell_length_a	18.050591
_cell_length_b	18.050589
_cell_length_c	12.645323
_cell_angle_alpha	90.025443
_cell_angle_beta	90.027333
_cell_angle_gamma	90.024669
loop_
_atom_site_label
_atom_site_type_symbol
_atom_site_fract_x
_atom_site_fract_y
_atom_site_fract_z
Zn1	Zn	1.135348	-0.295724	0.599574
Zn2	Zn	1.135242	-0.419923	0.422312
Zn3	Zn	1.011151	-0.295744	0.422304
Zn4	Zn	1.011115	-0.419869	0.599513
O5	O	1.073214	-0.357815	0.510926
O6	O	1.239259	-0.312214	0.576088
O7	O	1.118752	-0.403481	0.273964
O8	O	1.027685	-0.191816	0.445841
O9	O	1.239181	-0.403462	0.445855
O10	O	1.118932	-0.191802	0.576080
O11	O	1.027582	-0.312247	0.273957
O12	O	0.907222	-0.312195	0.445782
O13	O	1.027624	-0.403370	0.747868
O14	O	0.907195	-0.403389	0.575977
O15	O	1.118898	-0.312161	0.747913
O16	O	1.118717	-0.523840	0.445796
O17	O	1.027522	-0.523801	0.575985
C18	C	0.880262	-0.357789	0.510873
C19	C	0.797716	-0.357795	0.510875
C20	C	1.073124	-0.550767	0.510908
C21	C	1.073154	-0.633313	0.510936
C22	C	0.548883	-0.308153	0.440242
C23	C	0.598324	-0.290063	0.536988
C24	C	0.500596	-0.357833	0.510962
C25	C	0.598237	-0.375869	0.414179
C26	C	0.646581	-0.357813	0.510914
C27	C	0.548950	-0.339709	0.607758
C28	C	0.548858	-0.425547	0.484885
C29	C	0.598276	-0.407483	0.581697
C30	C	0.416498	-0.357843	0.510988
C31	C	0.730677	-0.357803	0.510899
C32	C	1.023611	-0.832769	0.581708
C33	C	1.005504	-0.882210	0.484971
C34	C	1.073227	-0.784443	0.510950
C35	C	1.091370	-0.882083	0.607698
C36	C	1.073296	-0.930428	0.510972
C37	C	1.055085	-0.832797	0.414162
C38	C	1.140983	-0.832666	0.536954
C39	C	1.122902	-0.882085	0.440150
C40	C	1.073185	-0.700345	0.510939
C41	C	1.073338	-1.014525	0.510972
C42	C	1.266920	-0.357842	0.510979
C43	C	1.349465	-0.357853	0.511002
C44	C	1.073269	-0.357757	0.787431
C45	C	1.073292	-0.357733	0.905261
C46	C	1.073324	-0.164109	0.510966
C47	C	1.073371	-0.081563	0.510984
C48	C	1.073202	-0.357818	0.235496
C49	C	1.073323	-0.357634	0.117666
C50	C	1.015695	-0.414842	1.072797
C51	C	1.015846	-0.415125	0.950237
C52	C	1.151539	-0.378977	0.949790
C53	C	1.151223	-0.379336	1.072388
C54	C	1.053382	-0.279060	1.072458
C55	C	1.051636	-0.279531	0.949851
H56	H	0.527198	-0.266116	0.380532
N57	N	1.212796	-0.805325	0.564589
N58	N	1.224370	-0.737092	0.568226
H59	H	1.275088	-0.717779	0.587756
H60	H	1.028730	-0.472728	1.103617
H61	H	1.029009	-0.473375	0.920924
H62	H	0.948237	-0.903989	0.462997
N63	N	1.172436	-0.451392	1.108273
N64	N	1.187369	-0.501067	1.042773
H65	H	1.202352	-0.551959	1.068110
N66	N	0.943063	-0.398440	0.912443
N67	N	0.932658	-0.342862	0.855417
H68	H	0.881252	-0.331079	0.828729
H69	H	1.164890	-0.903603	0.380253
H70	H	1.195616	-0.339477	1.102072
H71	H	1.106688	-0.903733	0.689507
H72	H	1.039700	-0.811237	0.332330
H73	H	0.527389	-0.324379	0.689609
N74	N	0.942690	-0.398315	1.109760
N75	N	0.932277	-0.344183	1.169607
H76	H	0.880716	-0.332510	1.195721
N77	N	1.206842	-0.328355	0.913246
N78	N	1.189161	-0.275931	0.853832
H79	H	1.228217	-0.240177	0.828021
H80	H	1.095356	-0.236438	1.101477
N81	N	0.521559	-0.497369	0.457212
N82	N	0.481967	-0.532558	0.520853
H83	H	0.462684	-0.583283	0.501300
N84	N	1.173105	-0.450277	0.911284
N85	N	1.130983	-0.485568	0.851061
H86	H	1.146210	-0.535925	0.823865
N87	N	0.983056	-0.254758	1.111223
N88	N	0.972962	-0.247260	1.208426
H89	H	0.923292	-0.230103	1.235805
H90	H	1.090544	-0.234654	0.919235
N91	N	0.970898	-0.805582	0.656653
N92	N	0.962796	-0.737373	0.669195
H93	H	0.925567	-0.718169	0.722119
N94	N	0.625576	-0.218213	0.564634
N95	N	0.609749	-0.163458	0.508530
H96	H	0.628993	-0.112712	0.528048
N97	N	0.625305	-0.460175	0.656788
N98	N	0.609370	-0.453461	0.752497
H99	H	0.628459	-0.490673	0.805534
N100	N	0.979406	-0.259441	0.913303
N101	N	0.966983	-0.254074	0.816356
H102	H	0.915971	-0.239890	0.790530
H103	H	0.619889	-0.391132	0.332352
