data_functionalizedCrystal
_audit_creation_method	'MofGen! by Chris Wilmer'
_symmetry_space_group_name_H-M	'P1'
_symmetry_Int_Tables_number	1
_symmetry_cell_setting	triclinic
loop_
_symmetry_equiv_pos_as_xyz
  x,y,z
_cell_length_a	6.817900
_cell_length_b	17.982959
_cell_length_c	17.982968
_cell_angle_alpha	95.926238
_cell_angle_beta	102.451960
_cell_angle_gamma	102.451857
loop_
_atom_site_label
_atom_site_type_symbol
_atom_site_fract_x
_atom_site_fract_y
_atom_site_fract_z
V1	V	-4.009936	-0.106127	-0.237869
O2	O	-4.003034	0.004365	-0.233013
O3	O	-3.956505	-0.209726	-0.236557
O4	O	-3.956507	-0.104817	-0.341468
O5	O	-4.003032	-0.101270	-0.127376
V6	V	-4.494867	-0.092873	-0.224615
O7	O	-4.268105	-0.135201	-0.266943
O8	O	-4.686896	-0.063799	-0.195541
O9	O	-4.325092	0.010726	-0.225927
O10	O	-4.619167	-0.203366	-0.229470
O11	O	-4.619168	-0.097730	-0.335108
O12	O	-4.325090	-0.094183	-0.121016
C13	C	-3.800445	-0.234971	-0.232886
C14	C	-3.838012	-0.319667	-0.232503
C15	C	-4.037393	-0.363349	-0.236136
C16	C	-4.072682	-0.442930	-0.235781
C17	C	-3.908585	-0.478826	-0.231789
C18	C	-3.709188	-0.435138	-0.228158
C19	C	-3.673905	-0.355560	-0.228518
C20	C	-3.851479	-0.756070	-0.226707
C21	C	-3.886778	-0.835654	-0.226345
C22	C	-4.250256	-0.843439	-0.233970
C23	C	-4.214973	-0.763861	-0.234330
C24	C	-4.015583	-0.720181	-0.230704
C25	C	-3.977322	-0.633891	-0.231090
C26	C	-3.946841	-0.565114	-0.231397
C27	C	-3.800446	-0.101148	-0.366709
C28	C	-3.838012	-0.100762	-0.451404
C29	C	-4.037396	-0.104399	-0.495087
C30	C	-4.072681	-0.104036	-0.574666
C31	C	-3.908583	-0.100042	-0.610563
C32	C	-3.709182	-0.096403	-0.566874
C33	C	-3.673896	-0.096760	-0.487295
C34	C	-3.851479	-0.094960	-0.887806
C35	C	-3.886782	-0.094605	-0.967391
C36	C	-4.250264	-0.102236	-0.975178
C37	C	-4.214978	-0.102593	-0.895599
C38	C	-4.015580	-0.098950	-0.851916
C39	C	-3.977321	-0.099342	-0.765627
C40	C	-3.946842	-0.099655	-0.696851
C41	C	-4.144494	0.035967	-0.229596
C42	C	-4.086164	0.120662	-0.229983
C43	C	-4.144493	-0.097854	-0.095770
C44	C	-4.086166	-0.098236	-0.011075
H45	H	-3.689127	-0.720514	-0.223750
H46	H	-3.753141	-0.091351	-0.996615
Cl47	Cl	-4.323349	-0.108619	-0.629580
H48	H	-4.412626	-0.105199	-1.010753
Cl49	Cl	-3.600821	-0.090401	-0.832905
Cl50	Cl	-4.421273	-0.718737	-0.239340
Cl51	Cl	-3.502886	-0.091382	-0.612001
H52	H	-3.511530	-0.093780	-0.451726
H53	H	-3.575582	-0.464372	-0.224912
Cl54	Cl	-4.243703	-0.318229	-0.241153
H55	H	-4.235035	-0.478493	-0.238741
H56	H	-4.412613	-0.879014	-0.236924
H57	H	-4.171031	-0.107657	-0.465867
H58	H	-4.348609	-0.105850	-0.866377
Cl59	Cl	-3.680466	-0.880780	-0.221326
Cl60	Cl	-3.423247	-0.300646	-0.223956
