data_functionalizedCrystal
_audit_creation_method	'MofGen! by Chris Wilmer'
_symmetry_space_group_name_H-M	'P1'
_symmetry_Int_Tables_number	1
_symmetry_cell_setting	triclinic
loop_
_symmetry_equiv_pos_as_xyz
  x,y,z
_cell_length_a	14.519709
_cell_length_b	10.868271
_cell_length_c	11.792241
_cell_angle_alpha	89.994719
_cell_angle_beta	83.936780
_cell_angle_gamma	90.001824
loop_
_atom_site_label
_atom_site_type_symbol
_atom_site_fract_x
_atom_site_fract_y
_atom_site_fract_z
O1	O	-1.224412	0.102147	-0.148781
O2	O	-0.724412	0.602147	0.351219
O3	O	-0.955999	0.102188	-0.166302
O4	O	-0.455999	0.602188	0.333698
O5	O	-1.096719	0.102158	0.007665
O6	O	-0.596719	0.602158	0.507665
O7	O	-1.083692	0.102178	-0.322748
O8	O	-0.583692	0.602178	0.177252
O9	O	-1.096707	-0.102486	0.007672
O10	O	-0.596707	0.397514	0.507672
O11	O	-0.955987	-0.102456	-0.166295
O12	O	-0.455987	0.397544	0.333705
O13	O	-1.224400	-0.102497	-0.148774
O14	O	-0.724400	0.397503	0.351226
Zn15	Zn	-1.090192	-0.134968	-0.157533
Zn16	Zn	-0.590192	0.365032	0.342467
Zn17	Zn	-1.090207	0.134660	-0.157542
Zn18	Zn	-0.590207	0.634660	0.342458
O19	O	-1.083680	-0.102467	-0.322741
O20	O	-0.583680	0.397533	0.177259
C21	C	-0.921630	-0.000129	-0.165482
C22	C	-0.421630	0.499871	0.334518
C23	C	-0.819240	-0.000113	-0.163035
C24	C	-0.319240	0.499887	0.336965
N25	N	-1.090188	-0.318983	-0.157527
N26	N	-0.590188	0.181017	0.342473
C27	C	-1.095895	-0.000163	0.049955
C28	C	-0.595895	0.499837	0.549955
C29	C	-1.093446	-0.000162	0.175955
C30	C	-0.593446	0.499838	0.675955
C31	C	-0.444311	-0.000165	-0.154027
C32	C	0.055689	0.499835	0.345973
C33	C	-0.548628	-0.000150	-0.156528
C34	C	-0.048628	0.499850	0.343472
C35	C	-0.631772	-0.000138	-0.158531
C36	C	-0.131772	0.499862	0.341469
C37	C	-0.736096	-0.000126	-0.161033
C38	C	-0.236096	0.499874	0.338967
C39	C	-0.258769	-0.000174	-0.149594
C40	C	0.241231	0.499826	0.350406
C41	C	-0.361159	-0.000172	-0.152041
C42	C	0.138841	0.499828	0.347959
C43	C	-1.090202	-0.569989	-0.157540
C44	C	-0.590202	-0.069989	0.342460
C45	C	-1.090191	-0.430311	-0.157536
C46	C	-0.590191	0.069689	0.342464
N47	N	-1.090218	0.318674	-0.157540
N48	N	-0.590218	0.818674	0.342460
C49	C	-1.084504	-0.000143	-0.365031
C50	C	-0.584504	0.499857	0.134969
C51	C	-1.086954	-0.000136	-0.491031
C52	C	-0.586954	0.499864	0.008969
C53	C	-1.088942	-0.000141	0.406642
C54	C	-0.588942	0.499859	0.906642
C55	C	-1.091444	-0.000152	0.278271
C56	C	-0.591444	0.499848	0.778271
