data_functionalizedCrystal
_audit_creation_method	'MofGen! by Chris Wilmer'
_symmetry_space_group_name_H-M	'P1'
_symmetry_Int_Tables_number	1
_symmetry_cell_setting	triclinic
loop_
_symmetry_equiv_pos_as_xyz
  x,y,z
_cell_length_a	6.817900
_cell_length_b	16.305550
_cell_length_c	17.253917
_cell_angle_alpha	99.056746
_cell_angle_beta	102.659311
_cell_angle_gamma	103.455250
loop_
_atom_site_label
_atom_site_type_symbol
_atom_site_fract_x
_atom_site_fract_y
_atom_site_fract_z
V1	V	-4.027267	-0.271089	-0.111994
O2	O	-4.013798	-0.257687	0.004683
O3	O	-3.979716	-0.277160	-0.221393
O4	O	-3.978660	-0.385704	-0.110578
O5	O	-4.014862	-0.148392	-0.106899
V6	V	-4.510812	-0.255450	-0.098002
O7	O	-4.288478	-0.305392	-0.142687
O8	O	-4.699799	-0.221147	-0.067309
O9	O	-4.335157	-0.249379	0.011397
O10	O	-4.641678	-0.268852	-0.214678
O11	O	-4.640615	-0.378147	-0.103096
O12	O	-4.336212	-0.140835	-0.099418
C13	C	-3.824930	-0.274929	-0.248052
C14	C	-3.867337	-0.280657	-0.337489
C15	C	-3.847044	-0.205252	-0.367818
C16	C	-3.886909	-0.210637	-0.451854
C17	C	-3.947054	-0.291428	-0.505561
C18	C	-3.967353	-0.366839	-0.475227
C19	C	-3.927502	-0.361453	-0.391192
C20	C	-4.070565	-0.315910	-0.758143
C21	C	-4.110409	-0.321290	-0.842182
C22	C	-4.029966	-0.165088	-0.818804
C23	C	-3.990106	-0.159709	-0.734768
C24	C	-4.010420	-0.235120	-0.704442
N25	N	-3.987797	-0.296935	-0.591459
N26	N	-3.969690	-0.229614	-0.618545
C27	C	-3.823583	-0.413386	-0.106696
C28	C	-3.865130	-0.507136	-0.106262
C29	C	-4.016202	-0.847761	-0.104580
C30	C	-3.780108	-0.806473	-0.099588
C31	C	-3.736922	-0.709035	-0.100372
C32	C	-3.941252	-0.678773	-0.105414
C33	C	-4.109010	-0.735116	-0.184871
C34	C	-4.150869	-0.832633	-0.184422
C35	C	-4.070284	-0.796606	-0.030750
C36	C	-4.022348	-0.698718	-0.030121
C37	C	-3.898907	-0.583269	-0.105888
C38	C	-4.058557	-0.943266	-0.104112
C39	C	-4.153285	-0.251608	0.038053
C40	C	-4.090116	-0.245885	0.127489
C41	C	-4.154632	-0.113149	-0.103302
C42	C	-4.092323	-0.019397	-0.103732
H43	H	-3.673446	-0.814707	-0.042188
H44	H	-3.798055	-0.139463	-0.324095
H45	H	-3.870387	-0.149235	-0.476543
H46	H	-4.013435	-0.103693	-0.843505
H47	H	-3.941146	-0.093921	-0.691045
N48	N	-4.171812	-0.403827	-0.897032
N49	N	-4.189921	-0.471150	-0.869946
H50	H	-4.233270	-0.529439	-0.908682
N51	N	-4.091335	-0.392947	-0.727186
N52	N	-4.145036	-0.465074	-0.775149
H53	H	-4.159709	-0.519485	-0.753285
N54	N	-3.577582	-0.659948	-0.028700
N55	N	-3.497566	-0.697583	0.022250
H56	H	-3.385024	-0.662920	0.072871
H57	H	-4.169627	-0.677299	-0.029132
N58	N	-4.028815	-0.449359	-0.530096
N59	N	-4.064391	-0.454159	-0.605125
H60	H	-4.107796	-0.512440	-0.643876
H61	H	-3.978333	-0.805642	0.029455
H62	H	-3.900765	-0.660111	0.028650
H63	H	-3.944050	-0.422856	-0.366502
H64	H	-3.735502	-0.841801	-0.152632
H65	H	-4.242376	-0.823634	-0.033700
H66	H	-3.670985	-0.696601	-0.154028
H67	H	-4.115234	-0.867036	-0.240314
H68	H	-4.324769	-0.861126	-0.191390
N69	N	-4.301243	-0.712002	-0.193122
N70	N	-4.465541	-0.767187	-0.195741
H71	H	-4.601308	-0.750863	-0.201567
N72	N	-4.040099	-0.719063	-0.255001
N73	N	-3.867577	-0.666186	-0.246664
H74	H	-3.818895	-0.654848	-0.296191
