data_functionalizedCrystal
_audit_creation_method	'MofGen! by Chris Wilmer'
_symmetry_space_group_name_H-M	'P1'
_symmetry_Int_Tables_number	1
_symmetry_cell_setting	triclinic
loop_
_symmetry_equiv_pos_as_xyz
  x,y,z
_cell_length_a	29.839131
_cell_length_b	21.395364
_cell_length_c	21.395355
_cell_angle_alpha	89.974702
_cell_angle_beta	90.020172
_cell_angle_gamma	89.941879
loop_
_atom_site_label
_atom_site_type_symbol
_atom_site_fract_x
_atom_site_fract_y
_atom_site_fract_z
Zn1	Zn	-0.178705	-0.957813	0.354267
Zn2	Zn	0.321295	-0.457813	0.854267
Zn3	Zn	-0.253820	-0.957696	0.249486
Zn4	Zn	0.246180	-0.457696	0.749486
Zn5	Zn	-0.178727	-0.853028	0.249502
Zn6	Zn	0.321273	-0.353028	0.749502
Zn7	Zn	-0.253831	-0.852977	0.354225
Zn8	Zn	0.246169	-0.352977	0.854225
O9	O	-0.216271	-0.905378	0.301870
O10	O	0.283729	-0.405378	0.801870
O11	O	-0.188656	-1.045475	0.340378
O12	O	0.311344	-0.545475	0.840378
O13	O	-0.243864	-0.943783	0.161810
O14	O	0.256136	-0.443783	0.661810
O15	O	-0.115857	-0.866998	0.263423
O16	O	0.384143	-0.366998	0.763423
O17	O	-0.243843	-1.045389	0.263396
O18	O	0.256157	-0.545389	0.763396
O19	O	-0.115841	-0.943983	0.340394
O20	O	0.384159	-0.443983	0.840394
O21	O	-0.188693	-0.866884	0.161822
O22	O	0.311307	-0.366884	0.661822
O23	O	-0.188703	-0.765343	0.263383
O24	O	0.311297	-0.265343	0.763383
O25	O	-0.243860	-0.866912	0.441908
O26	O	0.256140	-0.366912	0.941908
O27	O	-0.243882	-0.765306	0.340322
O28	O	0.256118	-0.265306	0.840322
O29	O	-0.188666	-0.943934	0.441939
O30	O	0.311334	-0.443934	0.941939
O31	O	-0.316689	-0.943734	0.263356
O32	O	0.183311	-0.443734	0.763356
O33	O	-0.316697	-0.866798	0.340307
O34	O	0.183303	-0.366798	0.840307
C35	C	-0.216296	-0.742591	0.301850
C36	C	0.283704	-0.242591	0.801850
C37	C	-0.216318	-0.672949	0.301857
C38	C	0.283682	-0.172949	0.801857
C39	C	-0.187630	-0.640303	0.342003
C40	C	0.312370	-0.140303	0.842003
C41	C	-0.187619	-0.574868	0.342004
C42	C	0.312381	-0.074868	0.842004
C43	C	-0.216305	-0.542081	0.301866
C44	C	0.283695	-0.042081	0.801866
C45	C	-0.244995	-0.574735	0.261713
C46	C	0.255005	-0.074735	0.761713
C47	C	-0.245002	-0.640169	0.261708
C48	C	0.254998	-0.140169	0.761708
C49	C	-0.256765	-0.438346	0.296826
C50	C	0.243235	0.061654	0.796826
C51	C	-0.256759	-0.372913	0.296835
C52	C	0.243241	0.127087	0.796835
C53	C	-0.216285	-0.340260	0.301878
C54	C	0.283715	0.159740	0.801878
C55	C	-0.175815	-0.373048	0.306924
C56	C	0.324185	0.126952	0.806924
C57	C	-0.175821	-0.438483	0.306919
C58	C	0.324179	0.061517	0.806919
C59	C	-0.216301	-0.471129	0.301867
C60	C	0.283699	0.028871	0.801867
C61	C	-0.187583	-0.236662	0.342028
C62	C	0.312417	0.263338	0.842028
C63	C	-0.187572	-0.171225	0.342025
C64	C	0.312428	0.328775	0.842025
C65	C	-0.244951	-0.171093	0.261736
C66	C	0.255049	0.328907	0.761736
C67	C	-0.244958	-0.236529	0.261736
C68	C	0.255042	0.263471	0.761736
C69	C	-0.216275	-0.269309	0.301885
C70	C	0.283725	0.230691	0.801885
C71	C	-0.332994	-0.905265	0.301839
C72	C	0.167006	-0.405265	0.801839
C73	C	-0.382928	-0.905274	0.301847
C74	C	0.117072	-0.405274	0.801847
C75	C	-0.692555	-0.945512	0.261860
C76	C	-0.192555	-0.445512	0.761860
C77	C	-0.880228	-0.945589	0.261884
C78	C	-0.380228	-0.445589	0.761884
O79	O	-0.904478	-0.979711	0.227863
O80	O	-0.404478	-0.479711	0.727863
N81	N	-0.903713	-0.905508	0.301917
N82	N	-0.403713	-0.405508	0.801917
C83	C	-0.880277	-0.865408	0.341950
C84	C	-0.380277	-0.365408	0.841950
O85	O	-0.904559	-0.831323	0.376005
O86	O	-0.404559	-0.331323	0.876005
C87	C	-0.692605	-0.865334	0.341928
C88	C	-0.192605	-0.365334	0.841928
C89	C	-0.669122	-0.905413	0.301888
C90	C	-0.169122	-0.405413	0.801888
C91	C	-0.669072	-0.985588	0.221824
C92	C	-0.169072	-0.485588	0.721824
C93	C	-0.622156	-0.985566	0.221816
C94	C	-0.122156	-0.485566	0.721816
C95	C	-0.598724	-0.945467	0.261844
C96	C	-0.098724	-0.445467	0.761844
C97	C	-0.622207	-0.905391	0.301880
C98	C	-0.122207	-0.405391	0.801880
C99	C	-0.669170	-0.825238	0.381963
C100	C	-0.169170	-0.325238	0.881963
C101	C	-0.622249	-0.825224	0.381956
C102	C	-0.122249	-0.325224	0.881956
C103	C	-0.598766	-0.865303	0.341916
C104	C	-0.098766	-0.365303	0.841916
C105	C	-0.551859	-0.865271	0.341900
C106	C	-0.051859	-0.365271	0.841900
N107	N	-0.528373	-0.905351	0.301867
N108	N	-0.028373	-0.405351	0.801867
C109	C	-0.551806	-0.945450	0.261839
C110	C	-0.051806	-0.445450	0.761839
C111	C	-0.978808	-0.865449	0.341957
C112	C	-0.478808	-0.365449	0.841957
C113	C	-1.025725	-0.865466	0.341962
C114	C	-0.525725	-0.365466	0.841962
C115	C	-1.025673	-0.945648	0.261897
C116	C	-0.525673	-0.445648	0.761897
C117	C	-0.978754	-0.945627	0.261890
C118	C	-0.478754	-0.445627	0.761890
C119	C	-0.955322	-0.905530	0.301925
C120	C	-0.455322	-0.405530	0.801925
C121	C	-0.453280	-0.945400	0.261825
C122	C	0.046720	-0.445400	0.761825
C123	C	-0.406361	-0.945372	0.261818
C124	C	0.093639	-0.445372	0.761818
C125	C	-0.406417	-0.865193	0.341885
C126	C	0.093583	-0.365193	0.841885
C127	C	-0.453333	-0.865218	0.341890
C128	C	0.046667	-0.365218	0.841890
C129	C	-0.476763	-0.905326	0.301857
C130	C	0.023237	-0.405326	0.801857
O131	O	-0.527579	-0.831172	0.375909
O132	O	-0.027579	-0.331172	0.875909
O133	O	-0.527516	-0.979540	0.227799
O134	O	-0.027516	-0.479540	0.727799
C135	C	-0.739470	-0.945534	0.261868
C136	C	-0.239470	-0.445534	0.761868
C137	C	-0.762953	-0.905458	0.301904
C138	C	-0.262953	-0.405458	0.801904
C139	C	-0.739520	-0.865359	0.341932
C140	C	-0.239520	-0.365359	0.841932
C141	C	-0.809871	-0.905475	0.301909
C142	C	-0.309871	-0.405475	0.801909
C143	C	-0.833303	-0.945574	0.261881
C144	C	-0.333303	-0.445574	0.761881
C145	C	-0.809818	-0.985654	0.221848
C146	C	-0.309818	-0.485654	0.721848
C147	C	-0.762903	-0.985632	0.221840
C148	C	-0.262903	-0.485632	0.721840
C149	C	-0.763006	-0.825278	0.381965
C150	C	-0.263006	-0.325278	0.881965
C151	C	-0.809921	-0.825303	0.381970
C152	C	-0.309921	-0.325303	0.881970
C153	C	-0.833354	-0.865402	0.341942
C154	C	-0.333354	-0.365402	0.841942
C155	C	-0.099093	-0.905509	0.301915
C156	C	0.400907	-0.405509	0.801915
C157	C	-0.049158	-0.905565	0.301934
C158	C	0.450842	-0.405565	0.801934
C159	C	-0.216262	-0.905430	0.465293
C160	C	0.283738	-0.405430	0.965293
C161	C	-0.216258	-0.905452	0.534935
C162	C	0.283742	-0.405452	1.034935
C163	C	-0.216251	-0.068802	0.301887
C164	C	0.283749	0.431198	0.801887
C165	C	-0.216257	-0.138443	0.301886
C166	C	0.283743	0.361557	0.801886
C167	C	-0.216248	-0.905363	0.139082
C168	C	0.283752	-0.405363	0.639082
C169	C	-0.216125	-0.905462	0.069442
C170	C	0.283875	-0.405462	0.569442
C171	C	-0.187517	-0.945556	0.567665
C172	C	0.312483	-0.445556	1.067665
C173	C	-0.187498	-0.945555	0.633100
C174	C	0.312502	-0.445555	1.133100
C175	C	-0.216227	-0.905457	0.665803
C176	C	0.283773	-0.405457	1.165803
C177	C	-0.244970	-0.865346	0.633065
C178	C	0.255030	-0.365346	1.133065
C179	C	-0.244986	-0.865343	0.567631
C180	C	0.255014	-0.365343	1.067631
C181	C	-0.256679	-0.900471	0.769467
C182	C	0.243321	-0.400471	1.269467
C183	C	-0.256665	-0.900478	0.834900
C184	C	0.243335	-0.400478	1.334900
C185	C	-0.216180	-0.905461	0.867624
C186	C	0.283820	-0.405461	1.367624
C187	C	-0.175708	-0.910451	0.834907
C188	C	0.324292	-0.410451	1.334907
C189	C	-0.175723	-0.910449	0.769473
C190	C	0.324277	-0.410449	1.269473
C191	C	-0.216214	-0.905455	0.736755
C192	C	0.283786	-0.405455	1.236755
C193	C	-0.187415	-0.945566	0.971307
C194	C	0.312585	-0.445566	1.471307
C195	C	-0.187395	-0.945561	1.036743
C196	C	0.312605	-0.445561	1.536743
C197	C	-0.244872	-0.865355	1.036707
C198	C	0.255128	-0.365355	1.536707
C199	C	-0.244888	-0.865357	0.971271
C200	C	0.255112	-0.365357	1.471271
C201	C	-0.216160	-0.905466	0.938575
C202	C	0.283840	-0.405466	1.438575
H203	H	-0.387242	-0.978010	0.229211
H204	H	0.112758	-0.478010	0.729211
O205	O	-0.694343	-1.028845	0.178653
O206	O	-0.194343	-0.528845	0.678653
H207	H	-0.715758	-1.000830	0.146751
H208	H	-0.215758	-0.500830	0.646751
H209	H	-0.268307	-0.144399	0.229055
H210	H	0.231693	0.355601	0.729055
O211	O	-0.953427	-0.988861	0.218712
O212	O	-0.453427	-0.488861	0.718712
H213	H	-0.977608	-1.016747	0.190884
H214	H	-0.477608	-0.516747	0.690884
O215	O	-0.132156	-0.337839	0.312363
O216	O	0.367844	0.162161	0.812363
H217	H	-0.110057	-0.350422	0.272582
H218	H	0.389943	0.149578	0.772582
H219	H	-0.164256	-0.548282	0.374695
H220	H	0.335744	-0.048282	0.874695
O221	O	-0.835104	-1.028905	0.178682
O222	O	-0.335104	-0.528905	0.678682
H223	H	-0.826136	-1.018184	0.129491
H224	H	-0.326136	-0.518184	0.629491
H225	H	-0.289713	-0.346222	0.292729
H226	H	0.210287	0.153778	0.792729
H227	H	-1.044760	-0.978298	0.229305
H228	H	-0.544760	-0.478298	0.729305
H229	H	-0.164273	-0.666989	0.374695
H230	H	0.335727	-0.166989	0.874695
O231	O	-0.156640	-0.272023	0.385318
O232	O	0.343360	0.227977	0.885318
H233	H	-0.164389	-0.259472	0.434475
H234	H	0.335611	0.240528	0.934475
H235	H	-0.268361	-0.832696	0.659696
H236	H	0.231639	-0.332696	1.159696
H237	H	-0.959733	-0.832795	0.374559
H238	H	-0.459733	-0.332795	0.874559
O239	O	-0.275946	-0.675387	0.218407
O240	O	0.224054	-0.175387	0.718407
H241	H	-0.295892	-0.641598	0.190496
H242	H	0.204108	-0.141598	0.690496
O243	O	-0.478553	-0.988656	0.218652
O244	O	0.021447	-0.488656	0.718652
H245	H	-0.469578	-0.977925	0.169466
H246	H	0.030422	-0.477925	0.669466
O247	O	-0.156430	-0.988824	0.936039
O248	O	0.343570	-0.488824	1.436039
H249	H	-0.161275	-0.982093	0.885039
H250	H	0.338725	-0.482093	1.385039
O251	O	-0.835249	-0.782071	0.425155
O252	O	-0.335249	-0.282071	0.925155
H253	H	-0.826216	-0.792796	0.474336
H254	H	-0.326216	-0.292796	0.974336
O255	O	-0.156627	-0.136009	0.385325
O256	O	0.343373	0.363991	0.885325
H257	H	-0.136686	-0.169799	0.413243
H258	H	0.363314	0.330201	0.913243
O259	O	-0.596831	-1.028803	0.178639
O260	O	-0.096831	-0.528803	0.678639
H261	H	-0.621013	-1.056692	0.150816
H262	H	-0.121013	-0.556692	0.650816
O263	O	-1.051052	-0.822234	0.385143
O264	O	-0.551052	-0.322234	0.885143
H265	H	-1.026871	-0.794356	0.412979
H266	H	-0.526871	-0.294356	0.912979
O267	O	-0.275902	-0.271747	0.218438
O268	O	0.224098	0.228253	0.718438
H269	H	-0.295850	-0.237957	0.190529
H270	H	0.204150	0.262043	0.690529
H271	H	-0.163988	-0.978217	1.063391
H272	H	0.336012	-0.478217	1.563391
O273	O	-0.132075	-0.915829	0.734186
O274	O	0.367925	-0.415829	1.234186
H275	H	-0.127505	-0.873864	0.704353
H276	H	0.372495	-0.373864	1.204353
H277	H	-0.289727	-0.464927	0.292719
H278	H	0.210273	0.035073	0.792719
H279	H	-0.268351	-0.548036	0.229032
H280	H	0.231649	-0.048036	0.729032
O281	O	-0.156499	-0.988807	0.668423
O282	O	0.343501	-0.488807	1.168423
H283	H	-0.164203	-1.037974	0.655896
H284	H	0.335797	-0.537974	1.155896
H285	H	-0.688281	-0.792598	0.414565
H286	H	-0.188281	-0.292598	0.914565
H287	H	-0.142869	-0.465176	0.311026
H288	H	0.357131	0.034824	0.811026
H289	H	-0.268389	-0.832683	0.540982
H290	H	0.231611	-0.332683	1.040982
H291	H	-0.603173	-0.792572	0.414559
H292	H	-0.103173	-0.292572	0.914559
O293	O	-0.381136	-0.821945	0.385054
O294	O	0.118864	-0.321945	0.885054
H295	H	-0.405344	-0.794073	0.412895
H296	H	0.094656	-0.294073	0.912895
H297	H	-0.472453	-0.832584	0.374495
H298	H	0.027547	-0.332584	0.874495
H299	H	-0.743786	-1.018269	0.189236
H300	H	-0.243786	-0.518269	0.689236
H301	H	-0.142741	-0.914510	0.861549
H302	H	0.357259	-0.414510	1.361549
O303	O	-0.275860	-0.822103	1.071968
O304	O	0.224140	-0.322103	1.571968
H305	H	-0.271023	-0.828844	1.122968
H306	H	0.228977	-0.328844	1.622968
O307	O	-0.275875	-0.822085	0.935963
O308	O	0.224125	-0.322085	1.435963
H309	H	-0.295847	-0.794196	0.969694
H310	H	0.204153	-0.294196	1.469694
H311	H	-0.743930	-0.792626	0.414562
H312	H	-0.243930	-0.292626	0.914562
O313	O	-0.156532	-0.988812	0.532398
O314	O	0.343468	-0.488812	1.032398
H315	H	-0.136541	-1.016696	0.566155
H316	H	0.363459	-0.516696	1.066155
H317	H	-0.289620	-0.896418	0.861533
H318	H	0.210380	-0.396418	1.361533
H319	H	-0.289639	-0.896245	0.742829
H320	H	0.210361	-0.396245	1.242829
