data_functionalizedCrystal
_audit_creation_method	'MofGen! by Chris Wilmer'
_symmetry_space_group_name_H-M	'P1'
_symmetry_Int_Tables_number	1
_symmetry_cell_setting	triclinic
loop_
_symmetry_equiv_pos_as_xyz
  x,y,z
_cell_length_a	17.699083
_cell_length_b	17.699083
_cell_length_c	16.776229
_cell_angle_alpha	89.992455
_cell_angle_beta	89.998886
_cell_angle_gamma	83.283015
loop_
_atom_site_label
_atom_site_type_symbol
_atom_site_fract_x
_atom_site_fract_y
_atom_site_fract_z
O1	O	1.004078	0.095713	-0.066178
O2	O	0.783700	0.108165	-0.066204
O3	O	0.900116	-0.008250	-0.066183
O4	O	0.887663	0.212128	-0.066199
O5	O	0.900100	-0.008257	0.066393
O6	O	0.783685	0.108158	0.066372
O7	O	1.004063	0.095706	0.066398
Zn8	Zn	0.893871	0.101931	0.087435
Zn9	Zn	0.893892	0.101940	-0.087241
O10	O	0.887648	0.212121	0.066378
C11	C	0.755495	0.107716	0.000081
C12	C	0.671477	0.106377	0.000071
C13	C	0.899662	-0.036451	0.000105
C14	C	0.898323	-0.120469	0.000105
C15	C	0.622856	0.174710	0.000066
C16	C	0.543913	0.173448	0.000077
C17	C	0.513592	0.103852	0.000086
C18	C	0.562219	0.035513	0.000093
C19	C	0.641161	0.036776	0.000088
C20	C	0.243856	0.030418	0.000113
C21	C	0.164908	0.029160	0.000115
C22	C	0.146608	0.167090	0.000101
C23	C	0.225550	0.168353	0.000097
C24	C	0.274170	0.100015	0.000108
C25	C	0.359769	0.101384	0.000098
C26	C	0.427995	0.102481	0.000090
C27	C	0.966656	-0.169090	0.000114
C28	C	0.965394	-0.248033	0.000107
C29	C	0.895798	-0.278354	0.000096
C30	C	0.827459	-0.229727	0.000085
C31	C	0.828722	-0.150785	0.000086
C32	C	0.822364	-0.548090	0.000078
C33	C	0.821106	-0.627038	0.000078
C34	C	0.959036	-0.645338	0.000099
C35	C	0.960299	-0.566396	0.000100
C36	C	0.891961	-0.517776	0.000084
C37	C	0.893330	-0.432177	0.000090
C38	C	0.894427	-0.363951	0.000096
C39	C	1.032268	0.096156	0.000112
C40	C	1.116286	0.097494	0.000116
C41	C	0.888102	0.240322	0.000087
C42	C	0.889440	0.324340	0.000082
N43	N	0.893863	0.101924	0.206646
N44	N	0.893906	0.101941	-0.206452
C45	C	0.945428	0.050396	0.248372
C46	C	0.945432	0.050396	0.331824
C47	C	0.893875	0.101927	0.373549
C48	C	0.842305	0.153457	0.331817
C49	C	0.842297	0.153454	0.248366
C50	C	0.842332	0.153472	0.668364
C51	C	0.842345	0.153473	0.751820
C52	C	0.945466	0.050414	0.751822
C53	C	0.945459	0.050411	0.668372
C54	C	0.893887	0.101938	0.626647
C55	C	0.893882	0.101937	0.536158
C56	C	0.893882	0.101932	0.464036
H57	H	0.504328	0.229092	0.000072
C58	C	0.258902	0.244910	0.000088
C59	C	0.205420	0.320078	0.000088
C60	C	0.238771	0.396636	0.000083
C61	C	0.325603	0.398027	0.000078
C62	C	0.379091	0.322857	0.000077
C63	C	0.345740	0.246298	0.000082
H64	H	0.141137	0.319051	0.000092
H65	H	0.199175	0.452283	0.000083
H66	H	0.350292	0.454700	0.000074
H67	H	0.443374	0.323884	0.000073
H68	H	0.385335	0.190652	0.000082
C69	C	1.040564	-0.301513	0.000120
C70	C	1.097621	-0.298218	0.068975
C71	C	1.172796	-0.351697	0.068986
C72	C	1.190914	-0.408471	0.000142
C73	C	1.133856	-0.411769	-0.068719
C74	C	1.058681	-0.358290	-0.068730
H75	H	1.084211	-0.256188	0.119943
H76	H	1.215034	-0.349255	0.119962
H77	H	1.246563	-0.448059	0.000150
H78	H	1.147266	-0.453798	-0.119687
H79	H	1.016443	-0.360731	-0.119706
C80	C	0.785612	0.210154	0.622469
C81	C	0.728923	0.266863	0.668360
C82	C	0.672202	0.323548	0.622460
C83	C	0.672169	0.323525	0.530667
C84	C	0.728860	0.266815	0.484770
C85	C	0.785581	0.210130	0.530671
H86	H	0.728945	0.266881	0.736315
H87	H	0.630236	0.365529	0.656436
H88	H	0.630181	0.365488	0.496688
H89	H	0.728838	0.266796	0.416816
H90	H	0.827548	0.168149	0.496695
H91	H	0.987419	0.008438	0.365798
H92	H	1.016971	-0.541714	0.000113
C93	C	0.297332	-0.044752	0.000111
C94	C	0.263977	-0.121305	0.000111
C95	C	0.317457	-0.196479	0.000105
C96	C	0.404291	-0.195101	0.000100
C97	C	0.437650	-0.118545	0.000101
C98	C	0.384171	-0.043371	0.000106
H99	H	0.199693	-0.122327	0.000114
H100	H	0.292762	-0.253150	0.000105
H101	H	0.443880	-0.250749	0.000096
H102	H	0.501934	-0.117523	0.000097
H103	H	0.408866	0.013300	0.000107
C104	C	1.002171	-0.006275	0.622475
C105	C	1.058890	-0.062961	0.668370
C106	C	1.115600	-0.119650	0.622474
C107	C	1.115592	-0.119653	0.530681
C108	C	1.058871	-0.062966	0.484780
C109	C	1.002161	-0.006277	0.530677
H110	H	1.058898	-0.062960	0.736325
H111	H	1.157589	-0.161613	0.656454
H112	H	1.157572	-0.161618	0.496706
H113	H	1.058863	-0.062966	0.416825
H114	H	0.960172	0.035687	0.496697
H115	H	0.800322	0.195412	0.365793
C116	C	0.747194	-0.494614	0.000077
C117	C	0.670641	-0.527969	0.000079
C118	C	0.595467	-0.474489	0.000084
C119	C	0.596845	-0.387655	0.000088
C120	C	0.673401	-0.354296	0.000087
C121	C	0.748575	-0.407775	0.000081
H122	H	0.669618	-0.592253	0.000076
H123	H	0.538796	-0.499184	0.000085
H124	H	0.541197	-0.348066	0.000092
H125	H	0.674423	-0.290012	0.000090
H126	H	0.805246	-0.383080	0.000080
C127	C	1.002142	-0.006290	0.202480
C128	C	1.058859	-0.062973	0.248383
C129	C	1.115573	-0.119663	0.202493
C130	C	1.115572	-0.119671	0.110701
C131	C	1.058854	-0.062986	0.064793
C132	C	1.002139	-0.006296	0.110682
H133	H	1.058861	-0.062969	0.316338
H134	H	1.157560	-0.161624	0.236478
H135	H	1.157556	-0.161637	0.076731
H136	H	1.058851	-0.062990	-0.003162
H137	H	0.960152	0.035665	0.076697
C138	C	0.785624	0.210157	0.797719
C139	C	0.815088	0.268010	0.855073
C140	C	0.758372	0.324690	0.900972
C141	C	0.672191	0.323517	0.889519
C142	C	0.642722	0.265662	0.832163
C143	C	0.699438	0.208982	0.786263
H144	H	0.878889	0.268880	0.863554
H145	H	0.780187	0.367518	0.943431
H146	H	0.630206	0.365475	0.923496
H147	H	0.578922	0.264792	0.823682
H148	H	0.677623	0.166154	0.743804
C149	C	1.002192	-0.006274	0.797721
C150	C	0.972740	-0.064127	0.855101
C151	C	1.029466	-0.120812	0.900997
C152	C	1.115645	-0.119645	0.889512
C153	C	1.145101	-0.061790	0.832129
C154	C	1.088375	-0.005105	0.786234
H155	H	0.908942	-0.064992	0.863605
H156	H	1.007660	-0.163639	0.943475
H157	H	1.157637	-0.161606	0.923487
H158	H	1.208900	-0.060924	0.823625
H159	H	1.110181	0.037722	0.743755
H160	H	0.107012	0.222734	0.000097
H161	H	0.800308	0.195412	0.214393
H162	H	0.647537	0.231384	0.000058
H163	H	0.140225	-0.027517	0.000124
H164	H	0.537526	-0.021154	0.000112
H165	H	0.680748	-0.018868	0.000091
H166	H	1.023330	-0.144409	0.000128
H167	H	1.014680	-0.684934	0.000107
H168	H	0.770792	-0.254420	0.000071
H169	H	0.764429	-0.651721	0.000071
H170	H	0.773078	-0.111198	0.000078
