data_functionalizedCrystal
_audit_creation_method	'MofGen! by Chris Wilmer'
_symmetry_space_group_name_H-M	'P1'
_symmetry_Int_Tables_number	1
_symmetry_cell_setting	triclinic
loop_
_symmetry_equiv_pos_as_xyz
  x,y,z
_cell_length_a	14.519709
_cell_length_b	15.021413
_cell_length_c	15.944499
_cell_angle_alpha	89.992737
_cell_angle_beta	83.578877
_cell_angle_gamma	90.001715
loop_
_atom_site_label
_atom_site_type_symbol
_atom_site_fract_x
_atom_site_fract_y
_atom_site_fract_z
O1	O	1.223658	0.073910	0.110099
O2	O	0.955155	0.073936	0.123066
O3	O	1.096764	0.073923	-0.005685
O4	O	1.082049	0.073922	0.238850
O5	O	1.096741	-0.074141	-0.005666
O6	O	0.955133	-0.074128	0.123084
O7	O	1.223635	-0.074155	0.110117
Zn8	Zn	1.089380	-0.097650	0.116604
Zn9	Zn	1.089410	0.097431	0.116580
O10	O	1.082027	-0.074142	0.238868
C11	C	0.920786	-0.000093	0.122471
C12	C	0.818408	-0.000082	0.120660
N13	N	1.089367	-0.230787	0.116620
C14	C	0.443525	-0.000123	0.113993
C15	C	0.547829	-0.000111	0.115845
C16	C	0.630963	-0.000102	0.117326
C17	C	0.735274	-0.000092	0.119178
C18	C	1.023877	-0.470465	0.176126
C19	C	1.107208	-0.529808	0.192554
C20	C	1.089390	-0.412394	0.116599
C21	C	1.006083	-0.529793	0.100189
C22	C	1.089406	-0.587818	0.116580
C23	C	1.172763	-0.470431	0.133065
C24	C	1.071583	-0.470411	0.040667
C25	C	1.154974	-0.529727	0.057063
C26	C	1.089380	-0.311337	0.116612
C27	C	1.089425	-0.688874	0.116567
C28	C	1.258005	-0.000124	0.110713
C29	C	1.360383	-0.000129	0.112523
C30	C	1.096150	-0.000106	-0.036971
C31	C	1.094344	-0.000099	-0.130222
N32	N	1.089431	0.230569	0.116557
C33	C	1.176615	-0.000112	-0.421639
C34	C	1.133837	-0.073115	-0.360666
C35	C	1.087782	-0.000109	-0.465868
C36	C	1.133835	0.072865	-0.360691
C37	C	1.091011	-0.000103	-0.300955
C38	C	1.044980	-0.073172	-0.406124
C39	C	1.044991	0.072874	-0.406155
C40	C	1.002149	-0.000147	-0.345200
C41	C	1.085925	-0.000113	-0.560871
C42	C	1.092861	-0.000105	-0.205953
C43	C	1.082641	-0.000110	0.270154
C44	C	1.084447	-0.000112	0.363405
H45	H	1.122283	-0.555897	0.256760
C46	C	0.842473	-0.535066	0.143881
C47	C	0.910968	-0.564988	0.081452
H48	H	0.783752	-0.556787	0.132313
H49	H	0.855575	-0.556283	0.197399
H50	H	0.841630	-0.471833	0.144259
H51	H	0.911816	-0.628222	0.081078
H52	H	0.897862	-0.543775	0.027920
C53	C	1.118920	-0.466373	-0.108473
C54	C	1.051199	-0.435153	-0.045980
H55	H	1.106323	-0.444608	-0.161964
H56	H	1.178153	-0.446082	-0.096896
H57	H	1.118201	-0.529606	-0.108949
H58	H	1.051923	-0.371920	-0.045499
H59	H	0.991951	-0.455440	-0.057560
C60	C	0.888432	0.076287	-0.250552
C61	C	0.902541	-0.000182	-0.300551
H62	H	0.826936	0.076265	-0.222995
H63	H	0.931113	0.076787	-0.209549
H64	H	0.897663	0.127670	-0.285210
H65	H	0.893316	-0.051566	-0.265892
H66	H	0.859846	-0.000691	-0.341559
C67	C	0.903214	-0.156863	-0.393549
C68	C	0.994289	-0.156580	-0.433152
H69	H	0.871921	-0.208354	-0.410241
H70	H	0.904061	-0.157354	-0.334072
H71	H	0.871889	-0.105078	-0.409490
H72	H	1.025616	-0.208362	-0.417207
H73	H	0.993446	-0.156098	-0.492642
H74	H	1.250336	-0.000190	-0.454861
H75	H	1.210443	-0.555584	0.006712
C76	C	1.214857	-0.207449	-0.404725
C77	C	1.184547	-0.156436	-0.333453
H78	H	1.246172	-0.258882	-0.387926
H79	H	1.163018	-0.224993	-0.432230
H80	H	1.255949	-0.173071	-0.442349
H81	H	1.143449	-0.190812	-0.295831
H82	H	1.236393	-0.138893	-0.305935
H83	H	1.007458	0.134600	-0.426329
C84	C	1.260992	0.130284	-0.292965
C85	C	1.184585	0.156177	-0.333522
H86	H	1.292329	0.181715	-0.276201
H87	H	1.240412	0.095692	-0.244607
H88	H	1.302060	0.095894	-0.330590
H89	H	1.143514	0.190561	-0.295895
H90	H	1.205164	0.190784	-0.381887
C91	C	0.968055	-0.465309	0.323589
C92	C	0.949166	-0.435323	0.244134
H93	H	0.921938	-0.443607	0.365574
H94	H	0.967911	-0.528535	0.324383
H95	H	1.027125	-0.444107	0.334700
H96	H	0.890099	-0.456531	0.233020
H97	H	0.949301	-0.372084	0.243338
H98	H	1.243236	-0.444465	0.147013
