data_functionalizedCrystal
_audit_creation_method	'MofGen! by Chris Wilmer'
_symmetry_space_group_name_H-M	'P1'
_symmetry_Int_Tables_number	1
_symmetry_cell_setting	triclinic
loop_
_symmetry_equiv_pos_as_xyz
  x,y,z
_cell_length_a	14.519709
_cell_length_b	10.654559
_cell_length_c	9.130313
_cell_angle_alpha	89.999532
_cell_angle_beta	89.995060
_cell_angle_gamma	95.915586
loop_
_atom_site_label
_atom_site_type_symbol
_atom_site_fract_x
_atom_site_fract_y
_atom_site_fract_z
O1	O	-0.129569	1.666581	-0.121785
O2	O	-0.141901	1.300986	-0.121784
O3	O	-0.001547	1.493477	-0.121798
O4	O	-0.269923	1.474090	-0.121771
O5	O	-0.001551	1.493475	0.121801
O6	O	-0.141905	1.300984	0.121815
O7	O	-0.129572	1.666579	0.121814
Cu8	Cu	-0.135739	1.483781	0.144057
Cu9	Cu	-0.135734	1.483784	-0.144027
O10	O	-0.269926	1.474088	0.121828
C11	C	-0.140995	1.254196	0.000015
C12	C	-0.138281	1.114779	0.000014
C13	C	-0.053091	1.064058	0.000010
C14	C	-0.050547	0.933061	-0.000002
C15	C	-0.218388	0.903515	0.000003
C16	C	-0.220932	1.034510	0.000003
C17	C	0.043811	1.081116	0.000013
C18	C	0.046356	0.950118	0.000002
C19	C	-0.304289	1.474993	0.000031
C20	C	-0.406684	1.477700	0.000041
C21	C	-0.781632	1.487667	-0.000017
C22	C	-0.677310	1.484900	-0.000000
C23	C	-0.594162	1.482684	0.000014
C24	C	-0.489833	1.479916	0.000027
C25	C	0.032816	1.492572	-0.000005
C26	C	0.135211	1.489865	-0.000025
C27	C	-0.130478	1.713369	0.000011
C28	C	-0.133192	1.852786	0.000002
N29	N	-0.135741	1.483788	0.346679
N30	N	-0.135724	1.483787	-0.346650
C31	C	-0.073614	1.569045	0.423325
C32	C	-0.073603	1.569042	0.576662
C33	C	-0.197855	1.398521	0.576694
C34	C	-0.197861	1.398519	0.423360
C35	C	-0.001881	1.667498	0.423308
C36	C	-0.001870	1.667494	0.576645
H37	H	0.084246	0.921112	0.101945
C38	C	-0.266186	1.304740	0.661046
H39	H	-0.257289	1.316954	0.763345
H40	H	-0.255598	1.220909	0.635913
H41	H	-0.327835	1.318520	0.635934
H42	H	-0.024344	1.758465	0.375752
H43	H	-0.248442	1.329086	0.360956
H44	H	-0.017673	1.763854	0.618263
H45	H	0.077221	0.914786	-0.105182
C46	C	0.093864	1.639415	0.367054
H47	H	0.093855	1.639419	0.263001
H48	H	0.107031	1.559122	0.401732
H49	H	0.139772	1.702392	0.401708
C50	C	0.088616	1.627147	0.640887
H51	H	0.085533	1.628510	0.744805
H52	H	0.139390	1.683818	0.608751
H53	H	0.096737	1.544198	0.608757
C54	C	-0.314640	1.090299	-0.000000
H55	H	-0.363496	1.023730	0.000008
H56	H	-0.319116	1.140791	-0.084946
H57	H	-0.319127	1.140781	0.084961
H58	H	-0.285680	0.838144	-0.000007
H59	H	0.073084	1.127038	0.105193
C60	C	0.093135	1.137997	-0.137702
H61	H	0.115139	1.072495	-0.194349
H62	H	0.143835	1.196471	-0.109394
H63	H	0.050846	1.180101	-0.194340
