data_functionalizedCrystal
_audit_creation_method	'MofGen! by Chris Wilmer'
_symmetry_space_group_name_H-M	'P1'
_symmetry_Int_Tables_number	1
_symmetry_cell_setting	triclinic
loop_
_symmetry_equiv_pos_as_xyz
  x,y,z
_cell_length_a	10.654554
_cell_length_b	27.732064
_cell_length_c	9.130313
_cell_angle_alpha	90.002876
_cell_angle_beta	89.999615
_cell_angle_gamma	83.568084
loop_
_atom_site_label
_atom_site_type_symbol
_atom_site_fract_x
_atom_site_fract_y
_atom_site_fract_z
O1	O	1.664987	0.067894	-0.121790
O2	O	1.299239	0.074359	-0.121790
O3	O	1.493461	0.000801	-0.121796
O4	O	1.470764	0.141452	-0.121784
O5	O	1.493459	0.000803	0.121803
O6	O	1.299236	0.074361	0.121809
O7	O	1.664985	0.067896	0.121809
Cu8	Cu	1.482110	0.071128	0.144051
Cu9	Cu	1.482113	0.071126	-0.144032
O10	O	1.470762	0.141454	0.121815
C11	C	1.252459	0.073885	0.000009
C12	C	1.113076	0.072463	0.000008
C13	C	0.900809	0.114439	0.000008
C14	C	1.031775	0.115775	0.000008
C15	C	1.063406	0.027812	-0.000007
C16	C	0.932443	0.026477	-0.000017
C17	C	0.882548	0.165223	0.000023
C18	C	1.013514	0.166560	0.000023
C19	C	1.492980	-0.017208	-0.000001
C20	C	1.491536	-0.070871	-0.000014
C21	C	1.366928	-0.448721	-0.000020
C22	C	1.372244	-0.247028	-0.000022
O23	O	1.275552	-0.216378	-0.000081
N24	N	1.487414	-0.227182	-0.000022
C25	C	1.601264	-0.257763	-0.000031
O26	O	1.699346	-0.236256	-0.000047
C27	C	1.595947	-0.459456	-0.000040
C28	C	1.480769	-0.479298	-0.000025
C29	C	1.251760	-0.468564	-0.000007
C30	C	1.250432	-0.518984	0.000001
C31	C	1.364273	-0.549562	-0.000003
C32	C	1.479442	-0.529719	-0.000017
C33	C	1.709796	-0.490036	-0.000060
C34	C	1.708456	-0.540462	-0.000066
C35	C	1.593278	-0.560305	-0.000051
C36	C	1.591955	-0.610717	-0.000013
N37	N	1.476784	-0.630562	-0.000013
C38	C	1.362943	-0.599985	-0.000008
C39	C	1.604048	-0.151872	-0.000024
C40	C	1.605377	-0.101449	-0.000019
C41	C	1.376356	-0.090716	-0.000013
C42	C	1.375028	-0.141140	-0.000007
C43	C	1.488877	-0.171717	-0.000024
C44	C	1.360164	-0.705871	0.000011
C45	C	1.358846	-0.756297	0.000025
C46	C	1.587866	-0.767025	0.000011
C47	C	1.589185	-0.716604	0.000004
C48	C	1.475323	-0.686028	-0.000001
O49	O	1.688595	-0.641395	0.000029
O50	O	1.264876	-0.621502	-0.000026
C51	C	1.368256	-0.398301	-0.000029
C52	C	1.483425	-0.378458	-0.000042
C53	C	1.597266	-0.409035	-0.000047
C54	C	1.484754	-0.328035	-0.000037
C55	C	1.370913	-0.297457	-0.000032
C56	C	1.255743	-0.317303	-0.000032
C57	C	1.254415	-0.367723	-0.000024
C58	C	1.712436	-0.389190	-0.000047
C59	C	1.713754	-0.338769	-0.000054
C60	C	1.599913	-0.308191	-0.000049
C61	C	1.711764	0.068370	0.000007
C62	C	1.851147	0.069791	-0.000002
C63	C	1.471243	0.159462	0.000017
C64	C	1.472687	0.213126	0.000021
N65	N	1.482117	0.071130	0.346674
N66	N	1.482116	0.071121	-0.346655
C67	C	1.568141	0.038569	0.423324
C68	C	1.568137	0.038564	0.576660
C69	C	1.396084	0.103683	0.576685
C70	C	1.396082	0.103686	0.423351
C71	C	1.667478	0.000975	0.423311
C72	C	1.667475	0.000969	0.576648
H73	H	0.836254	0.180568	0.105201
H74	H	0.892014	-0.009880	-0.000044
N75	N	1.631059	-0.043070	0.636315
N76	N	1.705514	-0.068953	0.717204
H77	H	1.679790	-0.100054	0.759351
H78	H	1.763640	0.009251	0.618265
H79	H	1.129612	-0.007453	-0.000021
H80	H	0.840003	0.184360	-0.101917
H81	H	1.267447	-0.680982	0.000006
H82	H	1.281240	-0.157292	0.000011
N83	N	1.057359	0.186848	-0.131926
N84	N	0.980678	0.200925	-0.230740
H85	H	1.011645	0.215251	-0.323931
H86	H	1.647592	-0.036175	0.381688
N87	N	1.049336	0.191352	0.128131
N88	N	0.967175	0.207724	0.218387
H89	H	0.992489	0.225186	0.308943
H90	H	1.265050	-0.772449	0.000044
N91	N	1.132768	-0.539241	0.000007
N92	N	1.031143	-0.511926	0.000003
H93	H	0.948035	-0.526229	0.000001
H94	H	1.159051	-0.443672	-0.000008
N95	N	1.260069	-0.059477	-0.000049
N96	N	1.183264	-0.061513	-0.102748
H97	H	1.101140	-0.039448	-0.102787
H98	H	1.160625	-0.383874	-0.000011
H99	H	1.699167	-0.085298	-0.000008
H100	H	1.326024	0.130195	0.360944
N101	N	1.706836	-0.696334	-0.000031
N102	N	1.733127	-0.669405	-0.102734
H103	H	1.816221	-0.655093	-0.102774
H104	H	1.696763	-0.176764	-0.000035
H105	H	1.803586	-0.473890	-0.000073
H106	H	1.801168	-0.565356	-0.000087
N107	N	1.704135	-0.798271	0.000016
N108	N	1.702918	-0.843289	0.000016
H109	H	1.785034	-0.865359	0.000011
N110	N	1.139467	-0.286056	-0.000014
N111	N	1.140687	-0.241038	-0.000018
H112	H	1.058573	-0.218967	-0.000010
H113	H	1.807553	-0.322618	-0.000054
N114	N	1.828740	-0.420413	-0.000061
N115	N	1.931554	-0.402682	-0.000066
H116	H	2.013703	-0.424731	-0.000071
H117	H	1.326035	0.130189	0.639131
N118	N	1.781232	0.015760	0.363660
N119	N	1.866423	0.026828	0.447214
H120	H	1.946755	0.037277	0.405086
