data_functionalizedCrystal
_audit_creation_method	'MofGen! by Chris Wilmer'
_symmetry_space_group_name_H-M	'P1'
_symmetry_Int_Tables_number	1
_symmetry_cell_setting	triclinic
loop_
_symmetry_equiv_pos_as_xyz
  x,y,z
_cell_length_a	17.077402
_cell_length_b	17.077404
_cell_length_c	17.077404
_cell_angle_alpha	90.005946
_cell_angle_beta	90.012872
_cell_angle_gamma	90.025453
loop_
_atom_site_label
_atom_site_type_symbol
_atom_site_fract_x
_atom_site_fract_y
_atom_site_fract_z
Zn1	Zn	-0.312629	1.199937	0.443839
Zn2	Zn	0.187371	1.699937	0.943839
Zn3	Zn	-0.443867	1.199870	0.312572
Zn4	Zn	0.056133	1.699870	0.812572
Zn5	Zn	-0.312619	1.068700	0.312587
Zn6	Zn	0.187381	1.568700	0.812587
Zn7	Zn	-0.443857	1.068631	0.443796
Zn8	Zn	0.056143	1.568631	0.943796
O9	O	-0.378243	1.134284	0.378199
O10	O	0.121757	1.634284	0.878199
O11	O	-0.330046	1.309775	0.426438
O12	O	0.169954	1.809775	0.926438
O13	O	-0.426456	1.182470	0.202727
O14	O	0.073544	1.682470	0.702727
O15	O	-0.202774	1.086165	0.330023
O16	O	0.297226	1.586165	0.830023
O17	O	-0.426466	1.309725	0.329997
O18	O	0.073534	1.809725	0.829997
O19	O	-0.202781	1.182585	0.426453
O20	O	0.297219	1.682585	0.926453
O21	O	-0.330029	1.086100	0.202738
O22	O	0.169971	1.586100	0.702738
O23	O	-0.330020	0.958844	0.329981
O24	O	0.169980	1.458844	0.829981
O25	O	-0.426449	1.086049	0.553648
O26	O	0.073551	1.586049	1.053648
O27	O	-0.426440	0.958793	0.426379
O28	O	0.073560	1.458793	0.926379
O29	O	-0.330036	1.182518	0.553681
O30	O	0.169964	1.682518	1.053681
O31	O	-0.553712	1.182404	0.329955
O32	O	-0.053712	1.682404	0.829955
O33	O	-0.553705	1.085984	0.426364
O34	O	-0.053705	1.585984	0.926364
C35	C	-0.378229	0.930336	0.378177
C36	C	0.121771	1.430336	0.878177
C37	C	-0.378241	0.843087	0.378186
C38	C	0.121759	1.343087	0.878186
C39	C	-0.582191	1.134200	0.378170
C40	C	-0.082191	1.634200	0.878170
C41	C	-0.669441	1.134236	0.378184
C42	C	-0.169441	1.634236	0.878184
C43	C	-0.428523	0.802091	0.428300
C44	C	0.071477	1.302091	0.928300
C45	C	-0.428525	0.720110	0.428313
C46	C	0.071475	1.220110	0.928313
C47	C	-0.378248	0.679127	0.378207
C48	C	0.121752	1.179127	0.878207
C49	C	-0.327961	0.720129	0.328091
C50	C	0.172039	1.220129	0.828091
C51	C	-0.327956	0.802108	0.328083
C52	C	0.172044	1.302108	0.828083
C53	C	-0.327977	0.549259	0.328110
C54	C	0.172023	1.049259	0.828110
C55	C	-0.327983	0.467274	0.328116
C56	C	0.172017	0.967274	0.828116
C57	C	-0.428545	0.467261	0.428340
C58	C	0.071455	0.967261	0.928340
C59	C	-0.428540	0.549240	0.428332
C60	C	0.071460	1.049240	0.928332
C61	C	-0.378254	0.590236	0.378214
C62	C	0.121746	1.090236	0.878214
C63	C	-1.045195	1.184576	0.428502
C64	C	-0.545195	1.684576	0.928502
C65	C	-0.963214	1.184541	0.428483
C66	C	-0.463214	1.684541	0.928483
C67	C	-0.922289	1.134360	0.378231
C68	C	-0.422289	1.634360	0.878231
C69	C	-0.963349	1.084217	0.327988
C70	C	-0.463349	1.584217	0.827988
C71	C	-1.045328	1.084257	0.328003
C72	C	-0.545328	1.584257	0.828003
C73	C	-0.792479	1.084136	0.327961
C74	C	-0.292479	1.584136	0.827961
C75	C	-0.710494	1.084095	0.327947
C76	C	-0.210494	1.584095	0.827947
C77	C	-0.710366	1.184420	0.428441
C78	C	-0.210366	1.684420	0.928441
C79	C	-0.792344	1.184460	0.428456
C80	C	-0.292344	1.684460	0.928456
C81	C	-0.833398	1.134316	0.378214
C82	C	-0.333398	1.634316	0.878214
C83	C	-0.173499	1.134390	0.378245
C84	C	0.326501	1.634390	0.878245
C85	C	-0.086249	1.134435	0.378264
C86	C	0.413751	1.634435	0.878264
C87	C	-0.378243	1.134283	0.582943
C88	C	0.121757	1.634283	1.082943
C89	C	-0.378243	1.134283	0.670193
C90	C	0.121757	1.634283	1.170193
C91	C	-0.378258	1.339029	0.378221
C92	C	0.121742	1.839029	0.878221
C93	C	-0.378264	1.426278	0.378230
C94	C	0.121736	1.926278	0.878230
C95	C	-0.328040	1.084110	0.711188
C96	C	0.171960	1.584110	1.211188
C97	C	-0.328046	1.084107	0.793169
C98	C	0.171954	1.584107	1.293169
C99	C	-0.378252	1.134281	0.834152
C100	C	0.121748	1.634281	1.334152
C101	C	-0.428461	1.184456	0.793151
C102	C	0.071539	1.684456	1.293151
C103	C	-0.428458	1.184454	0.711172
C104	C	0.071542	1.684454	1.211172
C105	C	-0.428463	1.184456	0.964021
C106	C	0.071537	1.684456	1.464021
C107	C	-0.428465	1.184458	1.046006
C108	C	0.071535	1.684458	1.546006
C109	C	-0.328051	1.084108	1.046018
C110	C	0.171949	1.584108	1.546018
C111	C	-0.328048	1.084107	0.964039
C112	C	0.171952	1.584107	1.464039
C113	C	-0.378256	1.134283	0.923043
C114	C	0.121744	1.634283	1.423043
C115	C	-0.378261	1.134281	1.174251
C116	C	0.121739	1.634281	1.674251
C117	C	-0.378262	1.134286	1.087001
C118	C	0.121738	1.634286	1.587001
H119	H	-0.469467	0.835454	0.469100
H120	H	0.030533	1.335454	0.969100
H121	H	-0.929789	1.225370	0.469389
H122	H	-0.429789	1.725370	0.969389
Br123	Br	-1.100728	1.252677	0.496710
Br124	Br	-0.600728	1.752677	0.996710
Br125	Br	-0.907809	1.016119	0.259782
Br126	Br	-0.407809	1.516119	0.759782
H127	H	-0.469333	1.225316	0.677795
H128	H	0.030667	1.725316	1.177795
Br129	Br	-0.259756	0.411654	0.260109
Br130	Br	0.240244	0.911654	0.760109
H131	H	-0.469341	1.225321	0.930645
H132	H	0.030659	1.725321	1.430645
Br133	Br	-0.496765	0.664476	0.496330
Br134	Br	0.003235	1.164476	0.996330
H135	H	-0.469488	0.433879	0.469150
H136	H	0.030512	0.933879	0.969150
Br137	Br	-0.496781	0.604861	0.496326
Br138	Br	0.003219	1.104861	0.996326
Br139	Br	-0.847886	1.252550	0.496669
Br140	Br	-0.347886	1.752550	0.996669
Br141	Br	-0.654651	1.252477	0.496623
Br142	Br	-0.154651	1.752477	0.996623
Br143	Br	-0.848195	1.016088	0.259770
Br144	Br	-0.348195	1.516088	0.759770
H145	H	-1.078753	1.043427	0.287094
H146	H	-0.578753	1.543427	0.787094
Br147	Br	-0.259902	1.016021	0.908418
Br148	Br	0.240098	1.516021	1.408418
H149	H	-0.677177	1.043234	0.287025
H150	H	-0.177177	1.543234	0.787025
H151	H	-0.287021	0.582635	0.287306
H152	H	0.212979	1.082635	0.787306
H153	H	-0.287151	1.043257	0.677825
H154	H	0.212849	1.543257	1.177825
Br155	Br	-0.259953	1.015970	0.848802
Br156	Br	0.240047	1.515970	1.348802
H157	H	-0.287022	0.686754	0.287297
H158	H	0.212978	1.186754	0.787297
H159	H	-0.287169	1.043254	1.079400
H160	H	0.212831	1.543254	1.579400
H161	H	-0.469344	1.225304	0.826526
H162	H	0.030656	1.725304	1.326526
Br163	Br	-0.259710	0.857746	0.260072
Br164	Br	0.240290	1.357746	0.760072
Br165	Br	-0.496596	1.252559	1.101626
Br166	Br	0.003404	1.752559	1.601626
