data_functionalizedCrystal
_audit_creation_method	'MofGen! by Chris Wilmer'
_symmetry_space_group_name_H-M	'P1'
_symmetry_Int_Tables_number	1
_symmetry_cell_setting	triclinic
loop_
_symmetry_equiv_pos_as_xyz
  x,y,z
_cell_length_a	16.959454
_cell_length_b	11.169417
_cell_length_c	11.169409
_cell_angle_alpha	89.978351
_cell_angle_beta	90.032943
_cell_angle_gamma	89.981703
loop_
_atom_site_label
_atom_site_type_symbol
_atom_site_fract_x
_atom_site_fract_y
_atom_site_fract_z
Zn1	Zn	-0.314655	-1.834881	0.678596
Zn2	Zn	0.185345	-1.334881	1.178596
Zn3	Zn	-0.446862	-1.834736	0.477911
Zn4	Zn	0.053138	-1.334736	0.977911
Zn5	Zn	-0.314697	-1.634167	0.477924
Zn6	Zn	0.185303	-1.134167	0.977924
Zn7	Zn	-0.446791	-1.634140	0.678549
Zn8	Zn	0.053209	-1.134140	1.178549
O9	O	-0.380751	-1.734481	0.578245
O10	O	0.119249	-1.234481	1.078245
O11	O	-0.332204	-2.002812	0.651989
O12	O	0.167796	-1.502812	1.151989
O13	O	-0.429377	-1.808081	0.309963
O14	O	0.070623	-1.308081	0.809963
O15	O	-0.204081	-1.660864	0.504569
O16	O	0.295919	-1.160864	1.004569
O17	O	-0.429336	-2.002705	0.504546
O18	O	0.070664	-1.502705	1.004546
O19	O	-0.204050	-1.808328	0.652002
O20	O	0.295950	-1.308328	1.152002
O21	O	-0.332276	-1.660724	0.309972
O22	O	0.167724	-1.160724	0.809972
O23	O	-0.332208	-1.466214	0.504523
O24	O	0.167792	-0.966214	1.004523
O25	O	-0.429216	-1.660819	0.846505
O26	O	0.070784	-1.160819	1.346505
O27	O	-0.429257	-1.466194	0.651922
O28	O	0.070743	-0.966194	1.151922
O29	O	-0.332136	-1.808302	0.846540
O30	O	0.167864	-1.308302	1.346540
O31	O	-0.557463	-1.808055	0.504501
O32	O	-0.057463	-1.308055	1.004501
O33	O	-0.557412	-1.660678	0.651909
O34	O	-0.057412	-1.160678	1.151909
C35	C	-0.380730	-1.422657	0.578220
C36	C	0.119270	-0.922657	1.078220
C37	C	-0.380740	-1.289257	0.578237
C38	C	0.119260	-0.789257	1.078237
C39	C	-0.586118	-1.734381	0.578225
C40	C	-0.086118	-1.234381	1.078225
C41	C	-0.673974	-1.734447	0.578256
C42	C	-0.173974	-1.234447	1.078256
C43	C	-1.045453	-1.657853	0.654992
C44	C	-0.545453	-1.157853	1.154992
C45	C	-1.045447	-1.811443	0.501620
C46	C	-0.545447	-1.311443	1.001620
C47	C	-0.962901	-1.811401	0.501609
C48	C	-0.462901	-1.311401	1.001609
C49	C	-0.921627	-1.734583	0.578289
C50	C	-0.421627	-1.234583	1.078289
C51	C	-0.962899	-1.657807	0.654981
C52	C	-0.462899	-1.157807	1.154981
C53	C	-0.921622	-1.888168	0.424910
C54	C	-0.421622	-1.388168	0.924910
C55	C	-0.839072	-1.888128	0.424895
C56	C	-0.339072	-1.388128	0.924895
C57	C	-0.797796	-1.811315	0.501583
C58	C	-0.297796	-1.311315	1.001583
C59	C	-0.839074	-1.734536	0.578278
C60	C	-0.339074	-1.234536	1.078278
C61	C	-0.797800	-1.657718	0.654959
C62	C	-0.297800	-1.157718	1.154959
C63	C	-0.839076	-1.580944	0.731661
C64	C	-0.339076	-1.080944	1.231661
C65	C	-0.921624	-1.580993	0.731669
C66	C	-0.421624	-1.080993	1.231669
C67	C	-0.715248	-1.811266	0.501576
C68	C	-0.215248	-1.311266	1.001576
C69	C	-0.715246	-1.657671	0.654948
C70	C	-0.215246	-1.157671	1.154948
C71	C	-0.174583	-1.734615	0.578292
C72	C	0.325417	-1.234615	1.078292
C73	C	-0.086726	-1.734672	0.578312
C74	C	0.413274	-1.234672	1.078312
C75	C	-0.380664	-1.734573	0.891288
C76	C	0.119336	-1.234573	1.391288
C77	C	-0.380626	-1.734613	1.024688
C78	C	0.119374	-1.234613	1.524688
C79	C	-0.380766	-1.047524	0.578263
C80	C	0.119234	-0.547524	1.078263
C81	C	-0.380752	-1.180924	0.578251
C82	C	0.119248	-0.680924	1.078251
C83	C	-0.380782	-1.734459	0.266420
C84	C	0.119218	-1.234459	0.766420
C85	C	-0.380596	-1.734652	0.133021
C86	C	0.119404	-1.234652	0.633021
H87	H	-0.681646	-1.595120	0.717395
H88	H	-0.181646	-1.095120	1.217395
H89	H	-0.955234	-1.950700	0.362472
H90	H	-0.455234	-1.450700	0.862472
H91	H	-0.805461	-1.518393	0.794090
H92	H	-0.305461	-1.018393	1.294090
H93	H	-0.955238	-1.518487	0.794114
H94	H	-0.455238	-1.018487	1.294114
Cl95	Cl	-0.787190	-1.984652	0.328482
Cl96	Cl	-0.287190	-1.484652	0.828482
H97	H	-0.681645	-1.873768	0.439120
H98	H	-0.181645	-1.373768	0.939120
H99	H	-1.079063	-1.595350	0.717445
H100	H	-0.579063	-1.095350	1.217445
Cl101	Cl	-1.097334	-1.908010	0.405228
Cl102	Cl	-0.597334	-1.408010	0.905228
