data_functionalizedCrystal
_audit_creation_method	'MofGen! by Chris Wilmer'
_symmetry_space_group_name_H-M	'P1'
_symmetry_Int_Tables_number	1
_symmetry_cell_setting	triclinic
loop_
_symmetry_equiv_pos_as_xyz
  x,y,z
_cell_length_a	21.395364
_cell_length_b	15.299816
_cell_length_c	21.395364
_cell_angle_alpha	80.317202
_cell_angle_beta	90.017013
_cell_angle_gamma	80.365592
loop_
_atom_site_label
_atom_site_type_symbol
_atom_site_fract_x
_atom_site_fract_y
_atom_site_fract_z
Zn1	Zn	1.000983	-0.358948	0.397464
Zn2	Zn	1.019032	-0.509715	0.310832
Zn3	Zn	0.896212	-0.358949	0.292700
Zn4	Zn	0.914306	-0.509769	0.415579
O5	O	0.957633	-0.434345	0.354144
O6	O	1.091052	-0.378925	0.385979
O7	O	1.002720	-0.489693	0.220746
O8	O	0.894984	-0.232735	0.291428
O9	O	1.104313	-0.489692	0.322331
O10	O	0.971959	-0.232734	0.368397
O11	O	0.912485	-0.378926	0.207425
O12	O	0.810937	-0.378979	0.308994
O13	O	0.925823	-0.489785	0.500856
O14	O	0.824231	-0.489786	0.399272
O15	O	0.989504	-0.378978	0.487547
O16	O	1.020266	-0.635937	0.339896
O17	O	0.943324	-0.635977	0.416853
C18	C	0.794851	-0.434389	0.354131
C19	C	0.725214	-0.434430	0.354144
C20	C	0.685630	-0.376848	0.387358
C21	C	0.620192	-0.376824	0.387358
C22	C	0.594342	-0.434398	0.354151
C23	C	0.633935	-0.491984	0.320929
C24	C	0.699371	-0.492000	0.320925
C25	C	0.500387	-0.515621	0.358889
C26	C	0.434952	-0.515607	0.358898
C27	C	0.392516	-0.434348	0.354159
C28	C	0.415521	-0.353102	0.349425
C29	C	0.480957	-0.353118	0.349421
C30	C	0.523389	-0.434387	0.354151
C31	C	0.281975	-0.376735	0.387375
C32	C	0.216536	-0.376710	0.387370
C33	C	0.230280	-0.491878	0.320945
C34	C	0.295718	-0.491896	0.320946
C35	C	0.321562	-0.434325	0.354164
C36	C	0.985734	-0.668683	0.382322
C37	C	0.997813	-0.768933	0.394397
C38	C	0.871714	-1.051823	0.268050
C39	C	0.860362	-0.957632	0.256706
C40	C	0.894724	-0.910453	0.291128
C41	C	0.940439	-0.957473	0.336896
C42	C	0.951789	-1.051672	0.348245
C43	C	0.974799	-0.910303	0.371322
C44	C	1.020514	-0.957323	0.417090
C45	C	1.031862	-1.051513	0.428436
C46	C	0.997500	-1.098693	0.394015
C47	C	0.963449	-0.816103	0.359973
C48	C	1.043524	-0.815953	0.440168
C49	C	1.054876	-0.910143	0.451512
C50	C	1.121051	-0.434302	0.354157
C51	C	1.190690	-0.434284	0.354162
C52	C	0.957669	-0.434387	0.517572
C53	C	0.957684	-0.434405	0.587215
C54	C	0.929440	-0.199093	0.325869
C55	C	0.917425	-0.098843	0.313821
C56	C	0.990838	-0.376717	0.613001
C57	C	0.990826	-0.376703	0.678434
C58	C	0.957670	-0.434392	0.718082
C59	C	0.924509	-0.492084	0.692289
C60	C	0.924516	-0.492090	0.626856
C61	C	0.962452	-0.515643	0.831527
C62	C	0.962450	-0.515638	0.896959
C63	C	0.957645	-0.434371	0.919900
C64	C	0.952855	-0.353106	0.877401
C65	C	0.952862	-0.353113	0.811967
C66	C	0.957658	-0.434390	0.789034
C67	C	0.990788	-0.376662	1.016636
C68	C	0.990772	-0.376646	1.082070
C69	C	0.924458	-0.492035	1.095925
C70	C	0.924470	-0.492043	1.030491
C71	C	0.957638	-0.434358	0.990850
C72	C	0.957604	-0.434331	1.191354
C73	C	0.957614	-0.434334	1.121714
H74	H	0.587956	-0.329929	0.414404
H75	H	0.966196	-0.581804	0.812853
C76	C	1.009949	-1.202303	0.406535
H77	H	1.042084	-1.223552	0.438733
H78	H	0.972066	-1.223616	0.419909
H79	H	1.023376	-1.223662	0.368694
H80	H	1.071504	-0.777540	0.468198
H81	H	0.843738	-1.090245	0.240032
H82	H	0.966354	-0.581809	0.931558
C83	C	1.027315	-0.313259	0.569399
H84	H	1.047055	-0.278895	0.594130
H85	H	1.058750	-0.347754	0.548033
H86	H	0.998637	-0.273963	0.539136
H87	H	0.416227	-0.581762	0.362756
C88	C	1.105156	-0.961872	0.501858
H89	H	1.106989	-1.024726	0.503687
H90	H	1.145393	-0.946373	0.490862
H91	H	1.094097	-0.946438	0.542090
H92	H	1.017822	-0.329721	0.699432
C93	C	0.172990	-0.313368	0.423907
H94	H	0.130315	-0.321595	0.419147
H95	H	0.185320	-0.326682	0.467589
H96	H	0.176461	-0.252743	0.407517
C97	C	1.082145	-1.103237	0.478781
H98	H	1.083980	-1.166092	0.480612
H99	H	1.122380	-1.087736	0.467781
H100	H	1.071088	-1.087803	0.519014
C101	C	0.888037	-0.555542	0.735896
H102	H	0.868288	-0.589897	0.711165
H103	H	0.916710	-0.594833	0.766160
H104	H	0.856599	-0.521038	0.757259
C105	C	0.742918	-0.555346	0.284392
H106	H	0.785591	-0.547107	0.289145
H107	H	0.739447	-0.615966	0.300781
H108	H	0.730589	-0.542031	0.240707
H109	H	0.948943	-0.286930	0.896077
C110	C	0.547062	-0.605011	0.364107
H111	H	0.523991	-0.653395	0.366938
H112	H	0.572428	-0.603763	0.327640
H113	H	0.573558	-0.613028	0.400975
H114	H	0.209234	-0.538756	0.293908
H115	H	1.017768	-0.329664	1.103062
H116	H	0.948960	-0.286944	0.777367
H117	H	0.897454	-0.538997	1.128205
H118	H	0.303017	-0.329853	0.414419
H119	H	0.897515	-0.539065	0.605863
C120	C	1.027258	-0.313197	0.973027
H121	H	1.046993	-0.278825	0.997756
H122	H	1.058696	-0.347687	0.951662
H123	H	0.998576	-0.273909	0.942765
C124	C	0.888006	-0.555507	1.002126
H125	H	0.868260	-0.589868	1.035109
H126	H	0.856576	-0.521015	0.972438
H127	H	0.916689	-0.594806	0.981341
C128	C	0.714058	-0.313523	0.423894
H129	H	0.758700	-0.321783	0.419140
H130	H	0.696080	-0.252896	0.407509
H131	H	0.704941	-0.326838	0.467579
C132	C	0.506262	-0.263755	0.344205
H133	H	0.471620	-0.215354	0.341378
H134	H	0.531956	-0.265020	0.380670
H135	H	0.530814	-0.255752	0.307335
H136	H	0.327949	-0.538789	0.293902
C137	C	0.368849	-0.263713	0.344215
H138	H	0.326583	-0.275336	0.344888
H139	H	0.376150	-0.234974	0.378935
H140	H	0.375014	-0.225691	0.305598
C141	C	0.913169	-0.764387	0.309631
H142	H	0.911325	-0.701532	0.307804
H143	H	0.924221	-0.779825	0.269402
H144	H	0.872932	-0.779891	0.320638
C145	C	0.810085	-0.905917	0.206361
H146	H	0.791250	-0.947503	0.187481
H147	H	0.778347	-0.869205	0.225878
H148	H	0.829645	-0.869145	0.174652
H149	H	0.612884	-0.538861	0.293891
H150	H	0.885479	-0.833759	0.281888
