data_functionalizedCrystal
_audit_creation_method	'MofGen! by Chris Wilmer'
_symmetry_space_group_name_H-M	'P1'
_symmetry_Int_Tables_number	1
_symmetry_cell_setting	triclinic
loop_
_symmetry_equiv_pos_as_xyz
  x,y,z
_cell_length_a	6.817900
_cell_length_b	15.185311
_cell_length_c	16.306216
_cell_angle_alpha	95.126952
_cell_angle_beta	103.467292
_cell_angle_gamma	104.261569
loop_
_atom_site_label
_atom_site_type_symbol
_atom_site_fract_x
_atom_site_fract_y
_atom_site_fract_z
V1	V	-4.030332	-0.126467	-0.263275
O2	O	-4.013773	0.005346	-0.258008
O3	O	-3.985676	-0.250060	-0.261719
O4	O	-3.981732	-0.124843	-0.377986
O5	O	-4.017745	-0.120738	-0.140936
V6	V	-4.513501	-0.110663	-0.248612
O7	O	-4.292367	-0.161135	-0.295438
O8	O	-4.701663	-0.075995	-0.216449
O9	O	-4.334951	0.012929	-0.250168
O10	O	-4.647456	-0.242476	-0.253879
O11	O	-4.643485	-0.116392	-0.370951
O12	O	-4.338895	-0.112287	-0.133901
C13	C	-3.831594	-0.280179	-0.257629
C14	C	-3.876367	-0.381219	-0.257122
C15	C	-3.826562	-0.120451	-0.405938
C16	C	-3.868134	-0.119941	-0.499717
C17	C	-4.025241	-0.795264	-0.177720
C18	C	-4.106344	-0.821626	-0.332286
C19	C	-4.064249	-0.726692	-0.332758
C20	C	-4.002650	-0.666040	-0.255710
C21	C	-3.983147	-0.700321	-0.178190
C22	C	-4.083769	-0.692404	-0.410277
C23	C	-4.041676	-0.597464	-0.410753
C24	C	-3.980061	-0.536810	-0.333703
C25	C	-3.960556	-0.571096	-0.256180
C26	C	-3.898958	-0.510444	-0.179132
C27	C	-3.879437	-0.544728	-0.101607
C28	C	-3.921532	-0.639666	-0.101141
C29	C	-3.937966	-0.441872	-0.334170
C30	C	-3.856863	-0.415501	-0.179602
C31	C	-4.019034	-0.118110	-0.840465
C32	C	-4.223640	-0.124139	-0.810029
C33	C	-4.180375	-0.124321	-0.712438
C34	C	-3.944172	-0.119019	-0.671416
C35	C	-3.805687	-0.028868	-0.691445
C36	C	-3.850297	-0.028308	-0.789043
C37	C	-3.935029	-0.201910	-0.814513
C38	C	-3.896519	-0.203689	-0.717200
C39	C	-3.901850	-0.119529	-0.575876
C40	C	-4.061347	-0.117593	-0.936005
C41	C	-4.152375	0.043044	-0.254256
C42	C	-4.086839	0.144083	-0.254769
C43	C	-4.157407	-0.116682	-0.105944
C44	C	-4.095073	-0.117187	-0.012165
H45	H	-3.829290	-0.495333	-0.038875
H46	H	-4.133948	-0.741794	-0.473006
H47	H	-4.287699	-0.189120	-0.699698
H48	H	-3.837481	0.034023	-0.659284
O49	O	-4.309676	-0.044410	-0.833112
H50	H	-4.190596	0.021200	-0.801531
O51	O	-4.087821	-0.291645	-0.862164
H52	H	-4.025007	-0.349648	-0.842748
O53	O	-3.734073	-0.197172	-0.840130
H54	H	-3.755291	-0.259918	-0.885481
H55	H	-3.999160	-0.270336	-0.705409
H56	H	-4.156517	-0.871015	-0.395016
H57	H	-3.727676	-0.205081	-0.689792
O58	O	-4.062697	-0.560485	-0.494361
H59	H	-4.112585	-0.618611	-0.547857
O60	O	-3.922269	0.055656	-0.808969
H61	H	-3.812410	0.099215	-0.839381
O62	O	-3.790404	-0.350081	-0.096498
H63	H	-3.783911	-0.389874	-0.042517
H64	H	-3.905650	-0.667590	-0.038025
H65	H	-4.009342	-0.823183	-0.114602
H66	H	-3.953896	-0.413962	-0.397290
O67	O	-3.647439	-0.017569	-0.814503
H68	H	-3.517935	-0.012789	-0.757115
O69	O	-4.394500	-0.209691	-0.855966
H70	H	-4.335433	-0.248827	-0.900988
O71	O	-4.238417	-0.044360	-0.672050
H72	H	-4.407367	-0.051183	-0.699730
O73	O	-3.575264	-0.019375	-0.655023
H74	H	-3.556961	-0.078951	-0.622175
