data_functionalizedCrystal
_audit_creation_method	'MofGen! by Chris Wilmer'
_symmetry_space_group_name_H-M	'P1'
_symmetry_Int_Tables_number	1
_symmetry_cell_setting	triclinic
loop_
_symmetry_equiv_pos_as_xyz
  x,y,z
_cell_length_a	8.597213
_cell_length_b	7.681481
_cell_length_c	8.597249
_cell_angle_alpha	88.183116
_cell_angle_beta	86.359595
_cell_angle_gamma	91.832977
loop_
_atom_site_label
_atom_site_type_symbol
_atom_site_fract_x
_atom_site_fract_y
_atom_site_fract_z
O1	O	2.044667	0.414777	0.275761
O2	O	1.594976	0.344891	0.286750
O3	O	1.825323	0.414776	0.056420
O4	O	1.814320	0.344892	0.506092
O5	O	1.853673	0.130529	0.028004
O6	O	1.623326	0.060644	0.258334
O7	O	2.073017	0.130530	0.247345
Zn8	Zn	1.852673	0.050457	0.248328
Zn9	Zn	1.815320	0.424964	0.285768
O10	O	1.842670	0.060645	0.477676
C11	C	1.551481	0.194438	0.269780
C12	C	1.379639	0.169621	0.261528
N13	N	1.878176	-0.205132	0.222776
C14	C	2.116512	0.280987	0.264317
C15	C	2.288352	0.305815	0.272569
C16	C	1.836736	0.280986	-0.015456
C17	C	1.828488	0.305813	-0.187290
N18	N	1.789829	0.680557	0.311308
C19	C	1.831257	0.194439	0.549552
C20	C	1.839503	0.169623	0.721387
H21	H	1.341660	0.441393	0.288346
Cl22	Cl	1.863803	-0.039711	-0.196369
H23	H	1.968377	-0.252947	0.132418
H24	H	1.326322	0.034031	0.245768
Cl25	Cl	1.650587	-0.245636	0.450826
H26	H	1.812763	0.441405	-0.240571
