data_functionalizedCrystal
_audit_creation_method	'MofGen! by Chris Wilmer'
_symmetry_space_group_name_H-M	'P1'
_symmetry_Int_Tables_number	1
_symmetry_cell_setting	triclinic
loop_
_symmetry_equiv_pos_as_xyz
  x,y,z
_cell_length_a	14.908571
_cell_length_b	14.909229
_cell_length_c	21.395356
_cell_angle_alpha	86.720557
_cell_angle_beta	86.691234
_cell_angle_gamma	96.363944
loop_
_atom_site_label
_atom_site_type_symbol
_atom_site_fract_x
_atom_site_fract_y
_atom_site_fract_z
Zn1	Zn	1.404488	0.440337	-0.428138
Zn2	Zn	1.413093	0.591679	-0.329786
Zn3	Zn	1.253131	0.431608	-0.316969
Zn4	Zn	1.261786	0.582893	-0.428121
O5	O	1.333125	0.511629	-0.375754
O6	O	1.532296	0.467742	-0.420462
O7	O	1.391853	0.570470	-0.240408
O8	O	1.265986	0.306115	-0.326359
O9	O	1.538618	0.578933	-0.348204
O10	O	1.377187	0.312528	-0.408034
O11	O	1.274330	0.452866	-0.230992
O12	O	1.127613	0.444346	-0.326343
O13	O	1.280737	0.563958	-0.515801
O14	O	1.133972	0.555494	-0.408005
O15	O	1.385579	0.459223	-0.515813
O16	O	1.400245	0.717164	-0.348188
O17	O	1.289080	0.710709	-0.420434
C18	C	1.097950	0.498020	-0.365782
C19	C	0.997342	0.492220	-0.361532
C20	C	1.346560	0.746777	-0.385714
C21	C	1.352391	0.847379	-0.390000
C22	C	1.333164	0.511584	-0.539177
C23	C	1.333180	0.511565	-0.608818
C24	C	0.814969	0.597239	-0.438480
C25	C	0.720440	0.591793	-0.434489
C26	C	0.713751	0.475876	-0.349562
C27	C	0.808281	0.481323	-0.353553
C28	C	0.858887	0.542007	-0.398013
C29	C	0.953418	0.547458	-0.402001
C30	C	0.946728	0.431537	-0.317077
C31	C	0.852198	0.426091	-0.313086
C32	C	1.569218	0.525292	-0.385765
C33	C	1.669827	0.531114	-0.390031
C34	C	1.247659	1.029903	-0.312936
C35	C	1.253134	1.124427	-0.316961
C36	C	1.368821	1.130954	-0.402071
C37	C	1.363346	1.036430	-0.398046
C38	C	1.302762	0.985907	-0.353478
C39	C	1.297282	0.891381	-0.349456
C40	C	1.412973	0.897910	-0.434563
C41	C	1.418448	0.992434	-0.438588
C42	C	1.319608	1.275561	-0.365772
C43	C	1.313712	1.174956	-0.361527
C44	C	1.394465	0.572617	-1.115514
C45	C	1.394451	0.572645	-1.050079
C46	C	1.333258	0.511426	-1.012454
C47	C	1.272060	0.450191	-1.040269
C48	C	1.272071	0.450171	-1.105702
C49	C	1.321444	0.429503	-0.905034
C50	C	1.321440	0.429522	-0.839602
C51	C	1.333221	0.511488	-0.810634
C52	C	1.345026	0.593439	-0.847108
C53	C	1.345036	0.593419	-0.912542
C54	C	1.333240	0.511441	-0.941501
C55	C	1.394395	0.572754	-0.711875
C56	C	1.394374	0.572783	-0.646439
C57	C	1.271988	0.450321	-0.636629
C58	C	1.272005	0.450300	-0.702064
C59	C	1.333213	0.511515	-0.739684
C60	C	1.333135	0.511612	-0.212966
C61	C	1.333279	0.511386	-0.143322
H62	H	0.994621	0.596873	-0.438202
H63	H	1.198323	0.988766	-0.276651
C64	C	1.473590	0.849507	-0.479162
N65	N	1.519243	0.813049	-0.512754
C66	C	1.357983	0.683609	-0.815249
N67	N	1.367743	0.751523	-0.791250
H68	H	0.856174	0.646656	-0.474678
H69	H	1.467776	1.033582	-0.474872
C70	C	0.995044	0.370781	-0.272558
N71	N	1.031438	0.325023	-0.239025
H72	H	1.222162	0.400478	-0.605995
H73	H	1.208265	1.160244	-0.283947
H74	H	0.672531	0.426463	-0.313368
H75	H	0.684686	0.636767	-0.467443
H76	H	0.810982	0.376680	-0.276889
H77	H	1.444303	0.622466	-1.146140
H78	H	1.247949	0.850246	-0.313168
H79	H	1.418152	1.172106	-0.438351
H80	H	1.444289	0.622496	-1.027434
H81	H	1.311909	0.362750	-0.928616
H82	H	1.444232	0.622601	-0.742506
H83	H	1.354645	0.660146	-0.942236
H84	H	1.444195	0.622652	-0.623800
C85	C	1.204705	0.382929	-0.732653
N86	N	1.154013	0.332181	-0.755692
H87	H	1.311833	0.362793	-0.809910
H88	H	1.222236	0.400347	-1.009630
C89	C	1.204764	0.382802	-1.136291
N90	N	1.154071	0.332056	-1.159331
