data_functionalizedCrystal
_audit_creation_method	'MofGen! by Chris Wilmer'
_symmetry_space_group_name_H-M	'P1'
_symmetry_Int_Tables_number	1
_symmetry_cell_setting	triclinic
loop_
_symmetry_equiv_pos_as_xyz
  x,y,z
_cell_length_a	18.426585
_cell_length_b	23.196402
_cell_length_c	23.196401
_cell_angle_alpha	60.008822
_cell_angle_beta	90.013019
_cell_angle_gamma	60.001912
loop_
_atom_site_label
_atom_site_type_symbol
_atom_site_fract_x
_atom_site_fract_y
_atom_site_fract_z
Zr1	Zr	0.699110	0.631022	-0.075641
O2	O	0.583210	0.751285	-0.167686
O3	O	0.734636	0.510758	-0.047429
O4	O	0.734604	0.631025	-0.167694
O5	O	0.583270	0.631017	0.047451
O6	O	0.854030	0.631029	-0.167696
O7	O	0.583242	0.631018	-0.047420
O8	O	0.854088	0.415893	0.047436
O9	O	0.583213	0.846153	-0.167682
O10	O	0.838918	0.560228	-0.035394
O11	O	0.749813	0.560224	0.035410
O12	O	0.749775	0.701823	-0.106187
O13	O	0.660670	0.701819	-0.035384
Zr14	Zr	0.889626	0.631027	0.075664
Zr15	Zr	0.889580	0.631029	-0.075645
Zr16	Zr	0.699155	0.631020	0.075667
Zr17	Zr	0.699115	0.782325	-0.075635
Zr18	Zr	0.889621	0.479724	0.075657
O19	O	0.854099	0.751291	0.047451
O20	O	0.854034	0.751294	-0.167691
O21	O	0.583275	0.751282	0.047456
O22	O	1.005526	0.510764	0.167708
O23	O	1.005461	0.510767	-0.047434
O24	O	0.734701	0.510755	0.167713
O25	O	1.005465	0.631032	-0.047429
O26	O	0.854131	0.631024	0.167716
O27	O	0.734705	0.631020	0.167718
O28	O	1.005494	0.631031	0.047442
O29	O	0.734612	0.846158	-0.167685
O30	O	0.854124	0.415891	0.167707
O31	O	1.005522	0.415896	0.167704
O32	O	1.005486	0.415898	0.047433
O33	O	0.583249	0.846151	-0.047411
O34	O	0.734648	0.846156	-0.047414
O35	O	0.838960	0.560226	0.106209
O36	O	0.928065	0.560230	0.035406
O37	O	0.838923	0.701825	-0.035388
O38	O	0.749818	0.701821	0.035416
C39	C	0.794361	0.441768	0.000003
C40	C	0.794359	0.377536	0.000000
C41	C	0.556118	0.631016	0.000016
C42	C	0.475258	0.631014	0.000017
C43	C	0.840865	0.347368	-0.036961
C44	C	0.840873	0.287007	-0.036955
C45	C	0.794359	0.256828	0.000002
C46	C	0.747851	0.287000	0.036971
C47	C	0.747851	0.347355	0.036970
C48	C	0.716430	0.194796	-0.005271
C49	C	0.716428	0.134447	-0.005275
C50	C	0.794360	0.070673	0.000009
C51	C	0.872294	0.067264	0.005283
C52	C	0.872294	0.127618	0.005282
C53	C	0.794354	0.191384	0.000008
C54	C	0.840879	-0.024946	-0.036948
C55	C	0.840890	-0.085312	-0.036937
C56	C	0.747859	-0.085311	0.036985
C57	C	0.747857	-0.024953	0.036979
C58	C	0.794365	0.005229	0.000009
C59	C	0.179144	0.631038	0.000005
C60	C	0.261530	0.631035	0.000007
C61	C	0.327198	0.631026	0.000011
C62	C	0.409590	0.631022	0.000013
C63	C	1.032617	0.631033	0.000006
C64	C	1.113477	0.631035	0.000005
C65	C	0.794311	0.631027	-0.189253
C66	C	0.794291	0.631028	-0.253488
C67	C	0.794374	0.820281	0.000019
C68	C	0.794377	0.884513	0.000022
C69	C	0.747764	0.704937	-0.320614
C70	C	0.747787	0.704938	-0.380970
C71	C	0.794325	0.631026	-0.374194
C72	C	0.840862	0.557108	-0.307056
C73	C	0.840845	0.557109	-0.246702
C74	C	0.787714	0.574398	-0.441514
C75	C	0.787724	0.574400	-0.501867
C76	C	0.794381	0.631020	-0.560342
C77	C	0.801009	0.687652	-0.558462
C78	C	0.800993	0.687653	-0.498109
C79	C	0.794348	0.631017	-0.439633
C80	C	0.747876	0.704935	-0.692915
C81	C	0.747905	0.704933	-0.753270
C82	C	0.840974	0.557101	-0.679354
C83	C	0.840951	0.557105	-0.619001
C84	C	0.794397	0.631024	-0.625786
C85	C	0.794425	0.631022	0.189275
C86	C	0.794444	0.631021	0.253510
C87	C	1.032611	0.441776	-0.000002
C88	C	1.113468	0.377547	-0.000006
C89	C	0.794418	0.441765	0.189267
C90	C	0.794435	0.377532	0.253499
C91	C	1.032668	0.441773	0.189262
C92	C	1.113545	0.377543	0.253493
C93	C	0.556068	0.820276	-0.189240
C94	C	0.475191	0.884506	-0.253471
C95	C	0.556125	0.820273	0.000024
C96	C	0.475267	0.884502	0.000028
C97	C	0.794317	0.820284	-0.189245
C98	C	0.794300	0.884517	-0.253477
C99	C	1.104906	0.347383	-0.036971
C100	C	1.180873	0.287042	-0.036990
C101	C	1.265401	0.256861	-0.000038
C102	C	1.273962	0.287030	0.036928
C103	C	1.197996	0.347375	0.036942
C104	C	0.840977	0.347369	0.320626
C105	C	0.840990	0.287024	0.380985
C106	C	0.794465	0.256839	0.374214
C107	C	0.747918	0.287009	0.307080
C108	C	0.747900	0.347357	0.246724
C109	C	1.198045	0.347382	0.246697
C110	C	1.274045	0.287040	0.307043
C111	C	1.265542	0.256855	0.374183
C112	C	1.181033	0.287022	0.380977
C113	C	1.105035	0.347368	0.320632
C114	C	0.390690	0.914674	-0.246675
C115	C	0.314691	0.975035	-0.307021
C116	C	0.323194	1.005223	-0.374161
C117	C	0.407703	0.975052	-0.380955
C118	C	0.483701	0.914696	-0.320610
C119	C	0.483830	0.914672	0.036987
C120	C	0.407863	0.975030	0.036989
C121	C	0.323334	1.005213	0.000035
C122	C	0.314773	0.975041	-0.036928
C123	C	0.390740	0.914688	-0.036933
C124	C	0.840834	0.914682	-0.246684
C125	C	0.840835	0.975028	-0.307031
C126	C	0.794297	1.005211	-0.374170
C127	C	0.747762	0.975039	-0.380961
C128	C	0.747766	0.914691	-0.320615
H129	H	0.878745	0.262439	-0.067054
H130	H	0.261485	1.054357	0.000045
H131	H	0.383755	0.890125	-0.067028
H132	H	1.174123	0.262437	0.435650
C133	C	0.696566	1.008253	-0.454816
H134	H	0.703224	1.048521	-0.489778
H135	H	0.719523	0.964940	-0.460128
H136	H	0.635352	1.031809	-0.460111
H137	H	0.709897	0.765126	-0.435634
H138	H	0.245940	0.999625	-0.067015
C139	C	0.696673	0.380560	0.077612
H140	H	0.703333	0.420829	0.072315
H141	H	0.635465	0.404098	0.059356
H142	H	0.719658	0.337242	0.126239
H143	H	0.709970	0.765125	-0.698441
C144	C	0.417044	1.008258	-0.454810
H145	H	0.359676	1.048516	-0.489771
H146	H	0.448611	1.031806	-0.460118
H147	H	0.448596	0.964931	-0.460111
C148	C	0.780430	0.512113	-0.503936
H149	H	0.781381	0.520228	-0.548257
H150	H	0.829079	0.458456	-0.467213
H151	H	0.726316	0.519240	-0.497623
C152	C	0.696564	0.881524	-0.328096
H153	H	0.668842	0.908154	-0.376726
H154	H	0.736708	0.824546	-0.306095
H155	H	0.652534	0.891430	-0.306094
H156	H	0.878731	0.890116	-0.192022
H157	H	0.710020	0.765121	-0.807929
H158	H	1.327432	0.207718	0.423313
H159	H	0.794487	0.207700	0.423367
H160	H	0.652968	0.137231	-0.009573
C161	C	1.207421	0.380551	0.077605
H162	H	1.150077	0.420818	0.072321
H163	H	1.239010	0.337219	0.126223
H164	H	1.238984	0.404098	0.059345
H165	H	0.878728	0.999587	-0.301488
C166	C	1.011934	0.380576	-0.077625
H167	H	1.017728	0.353970	-0.099647
H168	H	0.980366	0.370683	-0.045730
H169	H	0.980358	0.437558	-0.112597
C170	C	0.417295	1.008201	0.077658
H171	H	0.478519	0.981567	0.099674
H172	H	0.389598	1.065178	0.045769
H173	H	0.389601	0.998305	0.112634
C174	C	1.171445	0.253857	-0.077646
H175	H	1.228789	0.213601	-0.072373
H176	H	1.139885	0.230310	-0.059387
H177	H	1.139853	0.297191	-0.126267
H178	H	0.878867	0.496920	-0.673836
C179	C	0.892119	0.475804	-0.545160
H180	H	0.919834	0.431783	-0.549766
H181	H	0.936138	0.472730	-0.520062
H182	H	0.851947	0.472734	-0.520097
C183	C	0.892048	-0.118496	-0.077597
H184	H	0.919737	-0.091869	-0.099619
H185	H	0.936086	-0.175473	-0.045702
H186	H	0.851872	-0.108603	-0.112568
C187	C	0.780386	0.512115	-0.377197
H188	H	0.776426	0.478398	-0.386964
H189	H	0.831479	0.479368	-0.337267
H190	H	0.728717	0.540163	-0.367690
C191	C	0.794291	1.071599	-0.440545
H192	H	0.828665	1.085243	-0.426877
H193	H	0.819190	1.051828	-0.467856
H194	H	0.735008	1.118693	-0.467843
H195	H	0.245887	0.999590	-0.301475
H196	H	0.261304	1.054369	-0.423291
H197	H	0.709983	-0.000387	0.067074
H198	H	1.327251	0.207723	-0.000055
H199	H	0.709860	0.765128	-0.326146
C200	C	0.630697	0.264954	-0.011097
H201	H	0.641858	0.300409	-0.010340
H202	H	0.585560	0.294471	-0.054081
H203	H	0.611791	0.243261	0.027544
H204	H	0.552650	0.890101	0.067084
H205	H	0.710003	0.371908	0.192068
H206	H	0.878864	0.371939	0.326152
C207	C	0.808289	0.749937	-0.496036
H208	H	0.807318	0.741829	-0.451718
H209	H	0.862398	0.742813	-0.502346
H210	H	0.759636	0.803597	-0.532760
C211	C	0.892031	0.380559	-0.077616
H212	H	0.885368	0.420828	-0.072328
H213	H	0.953241	0.337233	-0.059368
H214	H	0.869036	0.404107	-0.126241
H215	H	0.709987	-0.109883	0.067077
H216	H	0.878754	0.496928	-0.301543
H217	H	0.935752	0.124838	0.009578
H218	H	0.552503	0.890134	-0.326151
H219	H	0.806425	0.733760	-0.606075
H220	H	1.342795	0.262448	0.067012
H221	H	0.935757	0.015333	0.009595
H222	H	1.036234	0.371917	0.326175
C223	C	0.892204	0.253841	0.454823
H224	H	0.919920	0.280454	0.450205
H225	H	0.852065	0.263735	0.479911
H226	H	0.936238	0.196860	0.479901
C227	C	0.696756	0.253791	0.299642
H228	H	0.703448	0.213523	0.345206
H229	H	0.635539	0.297102	0.274569
H230	H	0.719739	0.230234	0.274573
H231	H	0.709979	0.262424	0.067063
C232	C	0.892051	0.008243	-0.077599
H233	H	0.919763	-0.018382	-0.099601
H234	H	0.851891	0.065220	-0.112573
H235	H	0.936086	-0.001652	-0.045693
C236	C	1.207416	0.380577	0.172851
H237	H	1.268631	0.353971	0.177457
H238	H	1.179710	0.370683	0.147768
H239	H	1.179703	0.437559	0.147776
C240	C	0.381320	0.881487	-0.172829
H241	H	0.320105	0.908114	-0.177435
H242	H	0.409021	0.824510	-0.147745
H243	H	0.409037	0.891385	-0.147755
H244	H	1.342849	0.262484	0.301498
H245	H	0.878734	0.496921	-0.192043
