data_functionalizedCrystal
_audit_creation_method	'MofGen! by Chris Wilmer'
_symmetry_space_group_name_H-M	'P1'
_symmetry_Int_Tables_number	1
_symmetry_cell_setting	triclinic
loop_
_symmetry_equiv_pos_as_xyz
  x,y,z
_cell_length_a	13.596369
_cell_length_b	9.065218
_cell_length_c	14.519709
_cell_angle_alpha	95.651985
_cell_angle_beta	89.999792
_cell_angle_gamma	89.994623
loop_
_atom_site_label
_atom_site_type_symbol
_atom_site_fract_x
_atom_site_fract_y
_atom_site_fract_z
O1	O	0.081778	-1.957869	0.135228
O2	O	0.081779	-1.528376	0.146320
O3	O	0.081787	-1.754510	0.006619
O4	O	0.081770	-1.731735	0.274929
O5	O	-0.081795	-1.754487	0.006611
O6	O	-0.081804	-1.528354	0.146312
O7	O	-0.081804	-1.957846	0.135221
Zn8	Zn	-0.107777	-1.743096	0.140765
Zn9	Zn	0.107751	-1.743126	0.140775
O10	O	-0.081813	-1.731713	0.274922
C11	C	-0.000013	-1.473398	0.145250
C12	C	-0.000012	-1.309615	0.142063
N13	N	-0.254869	-1.743087	0.140758
C14	C	0.000000	-1.753437	-0.027752
C15	C	0.000014	-1.750257	-0.130157
C16	C	-0.656159	-1.743124	0.140776
C17	C	-0.544508	-1.743109	0.140774
C18	C	-0.455518	-1.743106	0.140768
C19	C	-0.343859	-1.743090	0.140764
N20	N	0.254843	-1.743147	0.140775
C21	C	-0.000011	-2.012824	0.136290
C22	C	-0.000005	-2.176607	0.139478
C23	C	-0.000024	-1.732785	0.309293
C24	C	-0.000031	-1.735966	0.411697
C25	C	0.000008	-1.747675	0.786679
C26	C	-0.000003	-1.744423	0.682347
C27	C	-0.000012	-1.741821	0.599192
C28	C	-0.000021	-1.738568	0.494853
