data_functionalizedCrystal
_audit_creation_method	'MofGen! by Chris Wilmer'
_symmetry_space_group_name_H-M	'P1'
_symmetry_Int_Tables_number	1
_symmetry_cell_setting	triclinic
loop_
_symmetry_equiv_pos_as_xyz
  x,y,z
_cell_length_a	19.121063
_cell_length_b	19.077241
_cell_length_c	19.121242
_cell_angle_alpha	85.148886
_cell_angle_beta	85.049781
_cell_angle_gamma	85.144908
loop_
_atom_site_label
_atom_site_type_symbol
_atom_site_fract_x
_atom_site_fract_y
_atom_site_fract_z
Zn1	Zn	-0.255515	-1.084325	0.451571
Zn2	Zn	-0.368540	-1.074582	0.338545
Zn3	Zn	-0.255233	-0.961419	0.329185
Zn4	Zn	-0.377857	-0.961366	0.451802
O5	O	-0.314286	-1.020423	0.392776
O6	O	-0.266727	-1.181851	0.440398
O7	O	-0.349492	-1.055516	0.238687
O8	O	-0.156651	-0.981823	0.341406
O9	O	-0.349765	-1.174693	0.357359
O10	O	-0.156858	-1.072121	0.431322
O11	O	-0.266246	-0.972375	0.231810
O12	O	-0.275281	-0.862594	0.341630
O13	O	-0.365646	-0.981732	0.550388
O14	O	-0.365372	-0.862555	0.431716
O15	O	-0.275761	-1.072069	0.550218
O16	O	-0.468396	-1.055464	0.357583
O17	O	-0.475241	-0.972284	0.440792
C18	C	-0.321308	-0.836952	0.385683
C19	C	-0.324329	-0.758462	0.382666
C20	C	-0.282589	-0.725315	0.424554
C21	C	-0.285424	-0.651565	0.421714
C22	C	-0.330004	-0.610964	0.376987
C23	C	-0.371745	-0.644116	0.335094
C24	C	-0.368906	-0.717865	0.337932
C25	C	-0.343120	-0.390000	0.363853
C26	C	-0.345958	-0.316247	0.361020
C27	C	-0.259636	-0.323701	0.447639
C28	C	-0.256804	-0.397451	0.450476
C29	C	-0.298542	-0.430596	0.408580
N30	N	-0.332905	-0.535580	0.374084
N31	N	-0.295637	-0.505979	0.411480
C32	C	-0.497389	-1.012831	0.400245
C33	C	-0.575720	-1.009648	0.403466
C34	C	-0.608933	-1.051497	0.361696
C35	C	-0.682533	-1.048508	0.364729
C36	C	-0.722919	-1.003666	0.409531
C37	C	-0.689701	-0.961816	0.451306
C38	C	-0.616102	-0.964809	0.448275
C39	C	-0.945320	-0.992464	0.420850
C40	C	-1.018923	-0.989473	0.423876
C41	C	-1.011750	-1.076166	0.337300
C42	C	-0.938150	-1.079152	0.334271
C43	C	-0.904939	-1.037305	0.376048
C44	C	-0.798150	-1.000608	0.412631
C45	C	-0.829708	-1.040366	0.372951
C46	C	-0.130468	-1.028065	0.385294
C47	C	-0.052136	-1.031322	0.382106
C48	C	-0.321774	-1.027981	0.576588
C49	C	-0.324965	-1.031202	0.654918
C50	C	-0.307234	-0.204611	0.399891
C51	C	-0.304218	-0.283100	0.402909
C52	C	-0.306775	-1.012937	0.209678
C53	C	-0.303380	-1.009861	0.131345
C54	C	-0.345220	-1.051628	1.098119
C55	C	-0.342218	-1.048592	1.024520
C56	C	-0.297372	-1.003791	0.984147
C57	C	-0.255531	-0.962019	1.017378
C58	C	-0.258537	-0.965052	1.090976
C59	C	-0.286130	-0.992464	0.761748
C60	C	-0.283125	-0.989435	0.688144
C61	C	-0.369814	-1.076007	0.695291
C62	C	-0.372813	-1.079039	0.768891
C63	C	-0.330975	-1.037265	0.802115
C64	C	-0.294301	-1.000688	0.908916
C65	C	-0.334050	-1.040365	0.877345
H66	H	-0.251436	-0.624580	0.455825
H67	H	-0.722590	-0.925308	0.487787
Cl68	Cl	-0.848927	-0.944237	0.468950
H69	H	-0.589062	-0.930732	0.482290
Cl70	Cl	-1.053505	-1.128776	0.284788
Cl71	Cl	-1.069694	-0.933087	0.480192
H72	H	-0.576055	-1.088008	0.325211
H73	H	-0.246289	-0.758367	0.460977
Cl74	Cl	-0.233565	-0.939913	0.803506
H75	H	-0.905268	-1.115666	0.297790
H76	H	-0.409333	-1.115520	0.801758
H77	H	-0.709571	-1.082585	0.330715
H78	H	-0.246601	-0.952954	0.655274
H79	H	-0.220505	-0.430504	0.486899
H80	H	-0.403878	-1.110017	0.668232
H81	H	-0.219019	-0.925538	0.984501
H82	H	-0.381736	-1.088113	1.130986
Cl83	Cl	-0.402023	-0.265206	0.304806
Cl84	Cl	-0.903578	-0.939854	0.473370
Cl85	Cl	-0.778936	-1.096740	0.316635
Cl86	Cl	-0.394818	-1.101103	0.982753
Cl87	Cl	-0.395577	-0.431660	0.311168
H88	H	-0.224466	-0.931042	1.118028
H89	H	-0.225654	-0.296706	0.481747
H90	H	-0.370565	-1.076840	0.910220
H91	H	-0.408039	-0.611053	0.298674
Cl92	Cl	-0.421382	-0.759535	0.285271
H93	H	-0.257786	-0.964212	0.876036
