data_functionalizedCrystal
_audit_creation_method	'MofGen! by Chris Wilmer'
_symmetry_space_group_name_H-M	'P1'
_symmetry_Int_Tables_number	1
_symmetry_cell_setting	triclinic
loop_
_symmetry_equiv_pos_as_xyz
  x,y,z
_cell_length_a	23.204063
_cell_length_b	23.204116
_cell_length_c	23.204045
_cell_angle_alpha	89.998347
_cell_angle_beta	59.997679
_cell_angle_gamma	60.000371
loop_
_atom_site_label
_atom_site_type_symbol
_atom_site_fract_x
_atom_site_fract_y
_atom_site_fract_z
O1	O	0.412488	-0.395344	-0.903685
O2	O	0.294476	-0.311539	-0.701868
O3	O	0.412486	-0.311538	-0.819876
O4	O	0.294479	-0.395345	-0.785678
O5	O	0.508336	-0.407388	-0.819876
O6	O	0.390326	-0.407390	-0.701868
O7	O	0.508339	-0.491194	-0.903685
Zn8	Zn	0.464551	-0.464510	-0.802777
Zn9	Zn	0.338264	-0.338223	-0.802777
O10	O	0.390329	-0.491196	-0.785678
C11	C	0.517008	-0.206298	-0.827659
C12	C	0.476553	-0.130279	-0.822765
C13	C	0.482651	-0.241298	-0.828146
C14	C	0.621365	-0.310657	-0.827658
C15	C	0.692490	-0.346220	-0.822764
C16	C	0.586850	-0.345499	-0.828146
C17	C	0.517005	-0.310655	-0.827659
C18	C	0.476547	-0.346217	-0.822764
C19	C	0.586853	-0.241300	-0.828146
C20	C	0.590049	-0.554176	-1.248590
C21	C	0.549594	-0.518613	-1.284152
C22	C	0.659895	-0.623533	-1.283434
C23	C	0.590045	-0.554178	-1.144229
C24	C	0.549587	-0.518617	-1.068208
C25	C	0.659891	-0.623535	-1.179231
C26	C	0.694407	-0.658535	-1.248590
C27	C	0.765533	-0.734553	-1.284154
C28	C	0.555691	-0.519334	-1.179231
C29	C	0.822994	-0.795968	-1.312885
C30	C	0.516909	-0.489882	-1.312883
C31	C	0.516899	-0.489888	-1.006791
C32	C	0.895083	-0.873016	-1.348930
C33	C	0.475905	-0.453838	-1.348927
C34	C	0.475892	-0.453846	-0.929740
C35	C	0.212784	-0.658548	-0.766967
C36	C	0.253241	-0.734567	-0.771861
C37	C	0.142939	-0.623548	-0.766479
C38	C	0.212782	-0.554188	-0.766967
C39	C	0.253237	-0.518625	-0.771861
C40	C	0.142937	-0.519347	-0.766479
C41	C	0.108424	-0.554191	-0.766966
C42	C	0.037299	-0.518630	-0.771860
C43	C	0.247138	-0.623546	-0.766479
C44	C	-0.020161	-0.489901	-0.775816
C45	C	0.285928	-0.795983	-0.775817
C46	C	0.285922	-0.489894	-0.775816
C47	C	-0.092249	-0.453858	-0.780777
C48	C	0.326934	-0.873031	-0.780778
C49	C	0.326926	-0.453848	-0.780777
O50	O	0.886599	-0.395357	-0.785677
O51	O	0.718985	-0.311543	-0.819875
O52	O	0.718981	-0.311547	-0.701868
O53	O	0.886604	-0.395353	-0.903685
O54	O	0.718976	-0.407396	-0.701868
O55	O	0.718981	-0.407392	-0.819875
O56	O	0.886594	-0.491206	-0.785677
Zn57	Zn	0.802787	-0.464517	-0.802776
Zn58	Zn	0.802793	-0.338232	-0.802776
O59	O	0.886599	-0.491201	-0.903685
O60	O	0.294486	0.100914	-0.785678
O61	O	0.412492	-0.100897	-0.819876
O62	O	0.294483	0.017106	-0.701869
O63	O	0.412496	-0.017089	-0.903686
O64	O	0.390333	0.017106	-0.701868
O65	O	0.508343	-0.100896	-0.819876
O66	O	0.390337	0.100915	-0.785678
Zn67	Zn	0.464558	0.000009	-0.802777
Zn68	Zn	0.338271	0.000008	-0.802777
O69	O	0.508346	-0.017088	-0.903685
O70	O	1.083835	-1.100886	-1.395382
O71	O	0.916236	-0.899072	-1.311581
O72	O	0.916217	-1.017067	-1.311573
O73	O	1.083854	-0.982891	-1.395390
O74	O	0.916221	-1.017065	-1.407426
O75	O	0.916240	-0.899070	-1.407434
O76	O	1.083839	-1.100884	-1.491235
Zn77	Zn	1.000040	-0.999977	-1.464553
Zn78	Zn	1.000035	-0.999979	-1.338263
O79	O	1.083858	-0.982889	-1.491243
O80	O	0.390334	-0.407385	-1.491227
O81	O	0.508350	-0.491187	-1.407428
O82	O	0.390333	-0.491184	-1.407407
O83	O	0.508351	-0.407388	-1.491248
O84	O	0.294489	-0.395329	-1.311560
O85	O	0.412506	-0.395333	-1.311581
O86	O	0.294490	-0.311530	-1.395379
Zn87	Zn	0.338281	-0.338213	-1.338262
Zn88	Zn	0.464559	-0.464505	-1.464545
O89	O	0.412507	-0.311534	-1.395400
C90	C	0.181458	-0.206292	-0.492110
C91	C	0.110335	-0.130273	-0.456549
C92	C	0.215974	-0.241292	-0.457268
C93	C	0.285813	-0.310653	-0.596468
C94	C	0.326267	-0.346217	-0.672486
C95	C	0.320170	-0.345495	-0.561467
C96	C	0.285817	-0.310650	-0.492110
C97	C	0.326275	-0.346211	-0.456549
C98	C	0.215970	-0.241295	-0.561466
C99	C	0.516992	-0.310667	-0.492104
C100	C	0.476533	-0.346230	-0.456543
C101	C	0.482636	-0.241311	-0.457259
C102	C	0.621356	-0.310665	-0.596464
C103	C	0.692484	-0.346226	-0.672485
C104	C	0.586842	-0.241309	-0.561460
C105	C	0.516995	-0.206310	-0.492102
C106	C	0.476538	-0.130292	-0.456537
C107	C	0.586839	-0.345509	-0.561463
C108	C	0.285805	0.024887	-0.492103
C109	C	0.326258	0.019993	-0.456538
C110	C	0.215959	0.025373	-0.457260
C111	C	0.285811	0.024888	-0.596465
C112	C	0.326271	0.019995	-0.672485
C113	C	0.215965	0.025374	-0.561463
C114	C	0.181447	0.024886	-0.492105
C115	C	0.110321	0.019991	-0.456543
C116	C	0.320164	0.025375	-0.561461
C117	C	1.212814	-0.658557	-1.248582
C118	C	1.253258	-0.734571	-1.284148
C119	C	1.247188	-0.623565	-1.283421
C120	C	1.108458	-0.554200	-1.144221
C121	C	1.037324	-0.518635	-1.068203
C122	C	1.142990	-0.519366	-1.179218
C123	C	1.212843	-0.554213	-1.248574
C124	C	1.253319	-0.518661	-1.284131
C125	C	1.142961	-0.623552	-1.179226
C126	C	1.286020	-0.489939	-1.312857
C127	C	1.285934	-0.795983	-1.312880
C128	C	0.979856	-0.489902	-1.006788
C129	C	1.327044	-0.453906	-1.348896
C130	C	1.326927	-0.873027	-1.348927
C131	C	0.907759	-0.453855	-0.929740
O132	O	0.390299	0.100908	-0.407413
O133	O	0.508320	-0.100905	-0.491222
O134	O	0.390290	0.017093	-0.491202
O135	O	0.508329	-0.017090	-0.407433
O136	O	0.294456	0.017083	-0.395337
O137	O	0.412486	-0.100915	-0.395357
O138	O	0.294465	0.100898	-0.311549
Zn139	Zn	0.338260	-0.000010	-0.338232
Zn140	Zn	0.464525	0.000003	-0.464538
O141	O	0.412495	-0.017100	-0.311568
C142	C	0.694412	-0.035794	-1.248592
C143	C	0.765538	-0.030900	-1.284156
C144	C	0.659898	-0.036282	-1.283434
C145	C	0.590051	-0.035796	-1.144229
C146	C	0.549593	-0.030903	-1.068209
C147	C	0.555695	-0.036284	-1.179230
C148	C	0.590052	-0.035795	-1.248589
C149	C	0.549596	-0.030901	-1.284151
C150	C	0.659897	-0.036283	-1.179233
C151	C	0.516910	-0.026946	-1.312881
C152	C	0.823000	-0.026944	-1.312888
C153	C	0.516906	-0.026948	-1.006791
C154	C	0.475906	-0.021985	-1.348924
C155	C	0.895089	-0.021982	-1.348934
C156	C	0.475899	-0.021988	-0.929741
H157	H	0.426451	-0.213194	-0.828934
H158	H	0.187084	-0.213189	-0.400280
C159	C	0.103519	-0.665050	-0.825411
C160	C	0.103952	-0.661497	-0.765402
H161	H	0.079449	-0.688478	-0.824737
H162	H	0.157870	-0.690431	-0.866564
H163	H	0.072930	-0.618647	-0.825622
H164	H	0.134547	-0.707900	-0.765194
H165	H	0.049591	-0.636117	-0.724239
C166	C	0.346019	-0.729875	-0.765102
C167	C	0.323006	-0.661475	-0.765417
H168	H	0.392852	-0.753286	-0.764442
H169	H	0.358207	-0.755256	-0.806256
H170	H	0.302609	-0.727469	-0.724386
H171	H	0.366415	-0.663881	-0.806136
H172	H	0.310823	-0.636088	-0.724258
C173	C	1.035185	-0.616053	-1.072915
C174	C	1.103921	-0.661461	-1.141303
H175	H	1.011081	-0.639455	-1.049507
H176	H	0.996913	-0.575051	-1.075343
H177	H	1.050949	-0.602869	-1.047512
H178	H	1.088156	-0.674642	-1.166708
H179	H	1.142200	-0.702477	-1.138878
C180	C	0.460009	-0.033584	-0.659835
C181	C	0.396037	0.026433	-0.599397
H182	H	0.506848	-0.032932	-0.683250
H183	H	0.444391	-0.033789	-0.690618
H184	H	0.472179	-0.074734	-0.646622
H185	H	0.383862	0.067583	-0.612610
H186	H	0.411657	0.026645	-0.568608
C187	C	0.035245	-0.419112	-0.765135
C188	C	0.103958	-0.442427	-0.765450
H189	H	0.011191	-0.371632	-0.764513
H190	H	-0.003073	-0.421779	-0.724408
H191	H	0.051021	-0.448109	-0.806279
H192	H	0.088180	-0.413434	-0.724303
H193	H	0.142282	-0.439755	-0.806181
H194	H	0.615731	-0.213194	-0.828922
C195	C	0.460020	-0.426380	-0.659831
C196	C	0.396040	-0.422424	-0.599397
H197	H	0.506854	-0.473872	-0.683246
H198	H	0.472192	-0.397410	-0.646618
H199	H	0.444405	-0.410552	-0.690621
H200	H	0.411652	-0.438248	-0.568604
H201	H	0.383867	-0.451404	-0.612608
H202	H	0.688771	-0.651635	-1.151126
C203	C	0.497786	-0.399708	-1.121834
C204	C	0.479819	-0.442406	-1.141293
H205	H	0.450945	-0.352219	-1.098410
H206	H	0.541184	-0.402398	-1.162837
H207	H	0.513402	-0.415545	-1.091047
H208	H	0.464209	-0.426573	-1.172085
H209	H	0.436408	-0.439713	-1.100284
H210	H	0.688779	-0.651630	-1.340422
C211	C	0.424739	-0.183928	-0.337630
C212	C	0.406766	-0.203380	-0.380327
H213	H	0.377902	-0.160516	-0.290137
H214	H	0.440350	-0.153142	-0.353459
H215	H	0.468145	-0.224939	-0.340330
H216	H	0.363363	-0.162369	-0.377631
H217	H	0.391143	-0.234168	-0.364493
C218	C	0.767601	-0.037645	-1.383691
C219	C	0.698888	-0.037335	-1.360364
H220	H	0.791664	-0.038290	-1.431181
H221	H	0.805912	-0.078357	-1.381007
H222	H	0.751823	0.003510	-1.354712
H223	H	0.714667	-0.078494	-1.389341
H224	H	0.660570	0.003381	-1.363054
H225	H	0.187073	0.026157	-0.400271
H226	H	0.187078	-0.213193	-0.589563
C227	C	0.626243	-0.199816	-0.659820
C228	C	0.625835	-0.203369	-0.599389
H229	H	0.650317	-0.176396	-0.683233
H230	H	0.571885	-0.174427	-0.646603
H231	H	0.656818	-0.246218	-0.690612
H232	H	0.595255	-0.156967	-0.568594
H233	H	0.680202	-0.228757	-0.612604
H234	H	1.303391	-0.651669	-1.340410
C235	C	0.569285	-0.426339	-0.769163
C236	C	0.625807	-0.422423	-0.829189
H237	H	0.593327	-0.473824	-0.769801
H238	H	0.522676	-0.410489	-0.768961
H239	H	0.553530	-0.397366	-0.728016
H240	H	0.641557	-0.451392	-0.870335
H241	H	0.672431	-0.438282	-0.829397
H242	H	0.615729	-0.402498	-0.589560
H243	H	0.187086	0.026155	-0.589570
H244	H	1.114147	-0.462401	-1.151093
H245	H	0.499496	-0.037076	-1.151127
C246	C	0.767600	-0.037650	-1.186683
C247	C	0.698886	-0.037339	-1.141294
H248	H	0.791668	-0.038305	-1.163260
H249	H	0.751827	0.003501	-1.199882
H250	H	0.805913	-0.078366	-1.227685
H251	H	0.660570	0.003380	-1.100294
H252	H	0.714657	-0.078495	-1.128085
