data_functionalizedCrystal
_audit_creation_method	'MofGen! by Chris Wilmer'
_symmetry_space_group_name_H-M	'P1'
_symmetry_Int_Tables_number	1
_symmetry_cell_setting	triclinic
loop_
_symmetry_equiv_pos_as_xyz
  x,y,z
_cell_length_a	10.685980
_cell_length_b	14.909207
_cell_length_c	10.685910
_cell_angle_alpha	88.666166
_cell_angle_beta	98.392729
_cell_angle_gamma	88.646493
loop_
_atom_site_label
_atom_site_type_symbol
_atom_site_fract_x
_atom_site_fract_y
_atom_site_fract_z
Zn1	Zn	2.012975	0.200591	0.884216
Zn2	Zn	2.010707	0.362388	0.686102
Zn3	Zn	1.786634	0.225378	0.657853
Zn4	Zn	1.814767	0.362372	0.882005
O5	O	1.906271	0.287682	0.777544
O6	O	2.189401	0.211687	0.870683
O7	O	1.968260	0.354593	0.505634
O8	O	1.805834	0.097045	0.676984
O9	O	2.187735	0.330558	0.725129
O10	O	1.972126	0.078834	0.843292
O11	O	1.803634	0.253932	0.484880
O12	O	1.613639	0.253917	0.674840
O13	O	1.853783	0.330531	1.059019
O14	O	1.634308	0.354566	0.839524
O15	O	1.999406	0.211671	1.060643
O16	O	1.995540	0.487431	0.722985
O17	O	1.851584	0.487419	0.866915
C18	C	1.578151	0.306930	0.753878
C19	C	1.437783	0.315184	0.743785
C20	C	1.926405	0.519844	0.797806
C21	C	1.935137	0.619155	0.806524
C22	C	2.033943	0.749576	0.905442
C23	C	2.025747	0.656264	0.897258
C24	C	1.852718	0.675364	0.723967
C25	C	1.860913	0.768676	0.732151
C26	C	1.951527	0.805779	0.822893
C27	C	1.959716	0.899093	0.831083
C28	C	1.786693	0.918191	0.657787
C29	C	1.778498	0.824879	0.649602
C30	C	2.235672	0.268359	0.801304
C31	C	2.376044	0.260125	0.811429
C32	C	1.886044	1.054613	0.757220
C33	C	1.877297	0.955302	0.748525
C34	C	1.929986	0.268334	1.106934
C35	C	1.940092	0.260090	1.247300
C36	C	1.882643	0.306976	1.449437
C37	C	1.872544	0.315225	1.309072
H38	H	1.383249	0.368640	0.678141
O39	O	1.794498	0.379108	1.243938
C40	C	1.777367	0.509432	1.104213
C41	C	1.865890	0.437124	1.177902
H42	H	1.835056	0.556368	1.050825
H43	H	1.703407	0.475918	1.034041
H44	H	1.728103	0.549579	1.173305
H45	H	1.915241	0.396954	1.108906
H46	H	1.939773	0.470694	1.248091
H47	H	2.033489	0.929300	0.904979
O48	O	2.122050	0.785476	0.993639
C49	C	2.292711	0.756687	1.164753
C50	C	2.193017	0.715915	1.064900
H51	H	2.350097	0.700467	1.222412
H52	H	2.358558	0.799846	1.115516
H53	H	2.243212	0.799945	1.230315
H54	H	2.242409	0.672616	0.999308
H55	H	2.127176	0.672808	1.114220
H56	H	2.005663	0.206578	1.301806
O57	O	1.690353	0.788788	0.561632
C58	C	1.509436	0.694501	0.522989
C59	C	1.609173	0.735330	0.622745
H60	H	1.443793	0.651256	0.572359
H61	H	1.451839	0.750664	0.465407
H62	H	1.558908	0.651307	0.457334
H63	H	1.559805	0.778515	0.688484
H64	H	1.666764	0.679124	0.680234
H65	H	2.092859	0.610506	0.964476
O66	O	1.441284	0.196427	0.889718
C67	C	1.645363	0.129785	0.971404
C68	C	1.571628	0.201976	0.882714
H69	H	1.750756	0.134234	0.965752
H70	H	1.628322	0.141107	1.072775
H71	H	1.611575	0.060519	0.941275
H72	H	1.605371	0.271272	0.912728
H73	H	1.588670	0.190576	0.781364
O74	O	1.764746	0.639166	0.635930
C75	C	1.675517	0.503872	0.546464
C76	C	1.775182	0.544746	0.646245
H77	H	1.683939	0.427528	0.554752
H78	H	1.576833	0.526877	0.562811
H79	H	1.692056	0.526960	0.447889
H80	H	1.758762	0.521677	0.744861
H81	H	1.873832	0.521744	0.629787
H82	H	1.719578	0.963961	0.590576
