data_functionalizedCrystal
_audit_creation_method	'MofGen! by Chris Wilmer'
_symmetry_space_group_name_H-M	'P1'
_symmetry_Int_Tables_number	1
_symmetry_cell_setting	triclinic
loop_
_symmetry_equiv_pos_as_xyz
  x,y,z
_cell_length_a	23.532355
_cell_length_b	19.188930
_cell_length_c	18.266242
_cell_angle_alpha	89.989745
_cell_angle_beta	90.005095
_cell_angle_gamma	97.013874
loop_
_atom_site_label
_atom_site_type_symbol
_atom_site_fract_x
_atom_site_fract_y
_atom_site_fract_z
O1	O	-0.755462	0.084584	-0.060823
O2	O	-0.255462	0.584584	0.439177
O3	O	-0.589621	0.096885	-0.060840
O4	O	-0.089621	0.596885	0.439160
O5	O	-0.677327	-0.010938	-0.060817
O6	O	-0.177327	0.489062	0.439183
O7	O	-0.667755	0.192406	-0.060846
O8	O	-0.167755	0.692406	0.439154
O9	O	-0.677312	-0.010941	0.060945
O10	O	-0.177312	0.489059	0.560945
O11	O	-0.589606	0.096882	0.060922
O12	O	-0.089606	0.596882	0.560922
O13	O	-0.755447	0.084581	0.060939
O14	O	-0.255447	0.584581	0.560939
Zn15	Zn	-0.672524	0.090731	0.080263
Zn16	Zn	-0.172524	0.590731	0.580263
Zn17	Zn	-0.672544	0.090735	-0.080164
Zn18	Zn	-0.172544	0.590735	0.419836
O19	O	-0.667741	0.192403	0.060916
O20	O	-0.167741	0.692403	0.560916
C21	C	-0.568396	0.096576	0.000039
C22	C	-0.068396	0.596576	0.500039
C23	C	-0.505175	0.095652	0.000033
C24	C	-0.005175	0.595652	0.500033
C25	C	-0.231930	0.091610	-0.066332
C26	C	0.268070	0.591610	0.433668
C27	C	-0.291332	0.092485	-0.066334
C28	C	0.208668	0.592485	0.433666
O29	O	-0.322066	0.092915	-0.122781
O30	O	0.177934	0.592915	0.377219
N31	N	-0.321031	0.092925	0.000038
N32	N	0.178969	0.592925	0.500038
C33	C	-0.291325	0.092484	0.066417
C34	C	0.208675	0.592484	0.566417
O35	O	-0.322041	0.092938	0.122872
O36	O	0.177959	0.592938	0.622872
C37	C	-0.231925	0.091604	0.066419
C38	C	0.268075	0.591604	0.566419
C39	C	-0.202229	0.091170	0.000042
C40	C	0.297771	0.591170	0.500042
C41	C	-0.202234	0.091176	-0.132703
C42	C	0.297766	0.591176	0.367297
C43	C	-0.142836	0.090302	-0.132700
C44	C	0.357164	0.590302	0.367300
C45	C	-0.113135	0.089862	-0.066326
C46	C	0.386865	0.589862	0.433674
C47	C	-0.142831	0.090297	0.000045
C48	C	0.357169	0.590297	0.500045
C49	C	-0.202221	0.091157	0.132798
C50	C	0.297779	0.591157	0.632798
C51	C	-0.142817	0.090276	0.132794
C52	C	0.357183	0.590276	0.632794
C53	C	-0.113121	0.089843	0.066417
C54	C	0.386879	0.589843	0.566417
C55	C	-0.053732	0.088983	0.066422
C56	C	0.446268	0.588983	0.566422
N57	N	-0.024033	0.088543	0.000050
N58	N	0.475967	0.588543	0.500050
C59	C	-0.053735	0.088982	-0.066324
C60	C	0.446265	0.588982	0.433676
C61	C	-0.416070	0.094331	0.066409
C62	C	0.083930	0.594331	0.566409
C63	C	-0.475468	0.095216	0.066408
C64	C	0.024532	0.595216	0.566408
C65	C	-0.475471	0.095216	-0.066344
C66	C	0.024529	0.595216	0.433656
C67	C	-0.416071	0.094336	-0.066343
C68	C	0.083929	0.594336	0.433657
C69	C	-0.386371	0.093890	0.000036
C70	C	0.113629	0.593890	0.500036
C71	C	0.071005	0.087148	-0.066314
C72	C	0.571005	0.587148	0.433686
C73	C	0.130409	0.086277	-0.066305
C74	C	0.630409	0.586277	0.433695
C75	C	0.130406	0.086274	0.066446
C76	C	0.630406	0.586274	0.566446
C77	C	0.071008	0.087148	0.066438
C78	C	0.571008	0.587148	0.566438
C79	C	0.041309	0.087583	0.000052
C80	C	0.541309	0.587583	0.500052
O81	O	-0.022960	0.088550	0.122839
O82	O	0.477040	0.588550	0.622839
O83	O	-0.023013	0.088519	-0.122770
O84	O	0.476987	0.588519	0.377230
C85	C	-0.677010	-0.036949	0.000066
C86	C	-0.177010	0.463051	0.500066
C87	C	-0.676079	-0.114450	0.000073
C88	C	-0.176079	0.385550	0.500073
C89	C	-0.727543	-0.159550	0.000081
C90	C	-0.227543	0.340450	0.500081
C91	C	-0.726668	-0.232371	0.000069
C92	C	-0.226668	0.267629	0.500069
C93	C	-0.674328	-0.260089	0.000064
C94	C	-0.174328	0.239911	0.500064
C95	C	-0.622858	-0.214979	0.000051
C96	C	-0.122858	0.285021	0.500051
C97	C	-0.623733	-0.142160	0.000055
C98	C	-0.123733	0.357840	0.500055
N99	N	-0.634315	-0.367958	0.041497
N100	N	-0.134315	0.132042	0.541497
N101	N	-0.633487	-0.437134	0.041495
N102	N	-0.133487	0.062866	0.541495
C103	C	-0.671687	-0.479488	0.000048
C104	C	-0.171687	0.020512	0.500048
N105	N	-0.710755	-0.450055	-0.041386
N106	N	-0.210755	0.049945	0.458614
N107	N	-0.711585	-0.380874	-0.041380
N108	N	-0.211585	0.119126	0.458620
C109	C	-0.673373	-0.339048	0.000058
C110	C	-0.173373	0.160952	0.500058
C111	C	-0.722206	-0.603550	0.000043
C112	C	-0.222206	-0.103550	0.500043
C113	C	-0.721329	-0.676371	0.000027
C114	C	-0.221329	-0.176371	0.500027
C115	C	-0.617517	-0.658977	0.000016
C116	C	-0.117517	-0.158977	0.500016
C117	C	-0.618395	-0.586157	0.000025
C118	C	-0.118395	-0.086157	0.500025
C119	C	-0.670741	-0.558448	0.000042
C120	C	-0.170741	-0.058448	0.500042
C121	C	0.223329	0.084895	0.000061
C122	C	0.723329	0.584895	0.500061
C123	C	0.160110	0.085838	0.000069
C124	C	0.660110	0.585838	0.500069
C125	C	-0.668058	0.218415	0.000031
C126	C	-0.168058	0.718415	0.500031
C127	C	-0.668988	0.295916	0.000020
C128	C	-0.168988	0.795916	0.500020
N129	N	-0.672515	0.090728	0.189750
N130	N	-0.172515	0.590728	0.689750
N131	N	-0.672557	0.090732	-0.189651
N132	N	-0.172557	0.590732	0.310349
C133	C	-0.706945	0.132856	0.228050
C134	C	-0.206945	0.632856	0.728050
C135	C	-0.706954	0.132854	0.304695
C136	C	-0.206954	0.632854	0.804695
C137	C	-0.672523	0.090732	0.343037
C138	C	-0.172523	0.590732	0.843037
C139	C	-0.638091	0.048596	0.304727
C140	C	-0.138091	0.548596	0.804727
C141	C	-0.638087	0.048594	0.228084
C142	C	-0.138087	0.548594	0.728084
N143	N	-0.622645	0.089183	0.463385
N144	N	-0.122645	0.589183	0.963385
N145	N	-0.622650	0.089188	0.536193
N146	N	-0.122650	0.589188	1.036193
C147	C	-0.672534	0.090735	0.573959
C148	C	-0.172534	0.590735	1.073959
N149	N	-0.722414	0.092288	0.536167
N150	N	-0.222414	0.592288	1.036167
N151	N	-0.722407	0.092286	0.463352
N152	N	-0.222407	0.592286	0.963352
C153	C	-0.672524	0.090729	0.426144
C154	C	-0.172524	0.590729	0.926144
C155	C	-0.706978	0.132862	0.695366
C156	C	-0.206978	0.632862	1.195366
C157	C	-0.706988	0.132855	0.772012
C158	C	-0.206988	0.632855	1.272012
C159	C	-0.638119	0.048601	0.772044
C160	C	-0.138119	0.548601	1.272044
C161	C	-0.638114	0.048604	0.695399
C162	C	-0.138114	0.548604	1.195399
C163	C	-0.672542	0.090739	0.657065
C164	C	-0.172542	0.590739	1.157065
H165	H	-0.499641	0.095580	0.120458
H166	H	0.000359	0.595580	0.620458
C167	C	-0.561781	-0.536545	0.000019
C168	C	-0.061781	-0.036545	0.500019
N169	N	-0.519136	-0.499177	0.000012
N170	N	-0.019136	0.000823	0.500012
C171	C	0.163070	0.085795	-0.139327
C172	C	0.663070	0.585795	0.360673
N173	N	0.187669	0.085429	-0.194327
N174	N	0.687669	0.585429	0.305673
H175	H	0.046831	0.087503	-0.120371
H176	H	0.546831	0.587503	0.379629
H177	H	-0.764829	-0.580988	0.000054
H178	H	-0.264829	-0.080988	0.500054
C179	C	-0.567117	-0.092548	0.000048
C180	C	-0.067117	0.407452	0.500048
N181	N	-0.524473	-0.055178	0.000043
N182	N	-0.024473	0.444822	0.500043
H183	H	-0.734981	0.167162	0.196843
H184	H	-0.234981	0.667162	0.696843
H185	H	-0.734992	0.167161	0.335885
H186	H	-0.234992	0.667161	0.835885
C187	C	-0.383411	0.093851	-0.139361
C188	C	0.116589	0.593851	0.360639
N189	N	-0.358816	0.093484	-0.194362
N190	N	0.141184	0.593484	0.305638
C191	C	-0.600232	0.002267	0.653267
C192	C	-0.100232	0.502267	1.153267
N193	N	-0.571697	-0.032636	0.621534
N194	N	-0.071697	0.467364	1.121534
C195	C	0.163089	0.085788	0.139454
C196	C	0.663089	0.585788	0.639454
N197	N	0.187707	0.085416	0.194445
N198	N	0.687707	0.585416	0.694445
H199	H	-0.610057	0.014299	0.335950
H200	H	-0.110057	0.514299	0.835950
C201	C	-0.559942	-0.689462	0.000007
C202	C	-0.059942	-0.189462	0.500007
N203	N	-0.516575	-0.712427	-0.000002
N204	N	-0.016575	-0.212427	0.499998
H205	H	-0.763239	-0.713092	0.000030
H206	H	-0.263239	-0.213092	0.500030
C207	C	-0.234897	0.091658	-0.205727
C208	C	0.265103	0.591658	0.294273
N209	N	-0.259494	0.092026	-0.260733
N210	N	0.240506	0.592026	0.239267
H211	H	-0.610048	0.014287	0.196900
H212	H	-0.110048	0.514287	0.696900
H213	H	-0.735012	0.167170	0.664153
H214	H	-0.235012	0.667170	1.164153
H215	H	-0.735029	0.167159	0.803195
H216	H	-0.235029	0.667159	1.303195
H217	H	-0.118663	0.089946	-0.186751
H218	H	0.381337	0.589946	0.313249
H219	H	-0.610086	0.014304	0.803261
H220	H	-0.110086	0.514304	1.303261
H221	H	-0.391891	0.093977	0.120465
H222	H	0.108109	0.593977	0.620465
C223	C	-0.234875	0.091627	0.205819
C224	C	0.265125	0.591627	0.705819
N225	N	-0.259468	0.091977	0.260823
N226	N	0.240532	0.591977	0.760823
C227	C	-0.508155	0.095692	-0.139358
C228	C	-0.008155	0.595692	0.360642
N229	N	-0.532774	0.096050	-0.194348
N230	N	-0.032774	0.596050	0.305652
H231	H	-0.580242	-0.237551	0.000044
H232	H	-0.080242	0.262449	0.500044
C233	C	-0.785125	-0.129075	0.000094
C234	C	-0.285125	0.370925	0.500094
N235	N	-0.828496	-0.106119	0.000102
N236	N	-0.328496	0.393881	0.500102
C237	C	-0.110150	0.089790	0.205817
C238	C	0.389850	0.589790	0.705817
N239	N	-0.085547	0.089427	0.260819
N240	N	0.414453	0.589427	0.760819
H241	H	-0.768577	-0.269099	0.000074
H242	H	-0.268577	0.230901	0.500074
C243	C	0.038342	0.087630	0.139455
C244	C	0.538342	0.587630	0.639455
N245	N	0.013741	0.087986	0.194454
N246	N	0.513741	0.587986	0.694454
