data_functionalizedCrystal
_audit_creation_method	'MofGen! by Chris Wilmer'
_symmetry_space_group_name_H-M	'P1'
_symmetry_Int_Tables_number	1
_symmetry_cell_setting	triclinic
loop_
_symmetry_equiv_pos_as_xyz
  x,y,z
_cell_length_a	10.654550
_cell_length_b	19.288865
_cell_length_c	9.730223
_cell_angle_alpha	89.990377
_cell_angle_beta	89.999957
_cell_angle_gamma	83.810589
loop_
_atom_site_label
_atom_site_type_symbol
_atom_site_fract_x
_atom_site_fract_y
_atom_site_fract_z
O1	O	1.665751	0.097555	-0.114205
O2	O	1.300073	0.106849	-0.114232
O3	O	1.493478	0.001141	-0.114191
O4	O	1.472346	0.203263	-0.114247
O5	O	1.493466	0.001138	0.114389
O6	O	1.300061	0.106846	0.114348
O7	O	1.665738	0.097552	0.114375
Zn8	Zn	1.482898	0.102198	0.150653
Zn9	Zn	1.482914	0.102202	-0.150511
O10	O	1.472333	0.203260	0.114333
C11	C	1.253284	0.106165	0.000055
C12	C	1.113884	0.104123	0.000046
C13	C	1.033066	0.166363	0.000033
C14	C	0.902087	0.164440	0.000057
C15	C	0.932756	0.038033	0.000102
C16	C	1.063733	0.039956	0.000088
C17	C	1.492792	-0.024742	0.000103
C18	C	1.490751	-0.101859	0.000115
C19	C	1.604232	-0.145812	0.000131
C20	C	1.602315	-0.218272	0.000109
C21	C	1.486909	-0.246775	0.000099
C22	C	1.373413	-0.202812	0.000076
C23	C	1.375334	-0.130354	0.000085
C24	C	1.396183	-0.355657	0.080159
C25	C	1.394267	-0.428114	0.080160
C26	C	1.480980	-0.470259	0.000068
C27	C	1.569631	-0.439940	-0.080006
C28	C	1.571552	-0.367482	-0.079998
C29	C	1.484814	-0.325343	0.000090
C30	C	1.592390	-0.592782	0.000057
C31	C	1.590467	-0.665243	0.000027
C32	C	1.361562	-0.649781	0.000009
C33	C	1.363488	-0.577322	0.000025
C34	C	1.478905	-0.548827	0.000056
C35	C	1.712528	0.098236	0.000085
C36	C	1.851928	0.100277	0.000085
C37	C	1.473020	0.229142	0.000036
C38	C	1.475061	0.306259	0.000015
N39	N	1.482896	0.102195	0.356190
N40	N	1.482926	0.102200	-0.356047
C41	C	1.568564	0.055408	0.428134
C42	C	1.568577	0.055408	0.572017
C43	C	1.397248	0.148990	0.571999
C44	C	1.397231	0.148986	0.428118
H45	H	1.698214	-0.122616	0.000151
H46	H	1.638316	0.017307	0.369573
O47	O	1.150908	-0.027179	0.000103
H48	H	1.211309	-0.029324	0.093273
O49	O	1.716869	-0.562042	0.000059
H50	H	1.771388	-0.579672	0.093216
H51	H	1.271079	-0.541534	0.000021
H52	H	1.643731	-0.342798	-0.145200
H53	H	1.638334	0.017308	0.630590
H54	H	1.694728	-0.254065	0.000115
H55	H	1.322077	-0.452794	0.145353
H56	H	1.073895	0.218611	0.000009
O57	O	0.878655	-0.031171	0.000141
H58	H	0.956861	-0.074127	0.000164
O59	O	1.304877	0.199463	0.649588
H60	H	1.245299	0.231995	0.575384
O61	O	1.304810	0.199447	0.350516
H62	H	1.319178	0.191574	0.238384
O63	O	0.814914	0.231569	0.000039
H64	H	0.871797	0.276508	-0.000002
H65	H	1.640240	-0.474253	-0.145225
O66	O	1.712870	-0.712656	0.000055
H67	H	1.793443	-0.680664	0.000095
O68	O	1.237083	-0.680511	0.000005
H69	H	1.254810	-0.738281	0.000011
H70	H	1.325567	-0.321348	0.145387
O71	O	1.248936	-0.233548	0.000082
H72	H	1.266664	-0.291317	0.000098
O73	O	1.252932	-0.082940	0.000092
H74	H	1.172357	-0.114929	0.000092
