data_functionalizedCrystal
_audit_creation_method	'MofGen! by Chris Wilmer'
_symmetry_space_group_name_H-M	'P1'
_symmetry_Int_Tables_number	1
_symmetry_cell_setting	triclinic
loop_
_symmetry_equiv_pos_as_xyz
  x,y,z
_cell_length_a	10.489711
_cell_length_b	23.532407
_cell_length_c	9.565339
_cell_angle_alpha	89.991753
_cell_angle_beta	89.994873
_cell_angle_gamma	83.687877
loop_
_atom_site_label
_atom_site_type_symbol
_atom_site_fract_x
_atom_site_fract_y
_atom_site_fract_z
O1	O	1.691407	0.080259	-0.116340
O2	O	1.319955	0.087819	-0.116334
O3	O	1.516882	0.001181	-0.116298
O4	O	1.494480	0.166897	-0.116376
O5	O	1.516866	0.001186	0.116222
O6	O	1.319939	0.087824	0.116186
O7	O	1.691391	0.080265	0.116180
Zn8	Zn	1.505663	0.084045	0.153101
Zn9	Zn	1.505683	0.084038	-0.153255
O10	O	1.494464	0.166902	0.116144
C11	C	1.272434	0.087254	-0.000073
C12	C	1.130859	0.085557	-0.000069
C13	C	0.946740	0.137658	-0.000109
C14	C	1.039759	0.111630	-0.114739
C15	C	1.039717	0.111621	0.114507
C16	C	0.971641	0.056476	-0.114822
C17	C	0.971590	0.056475	0.114528
C18	C	1.064582	0.030407	-0.000131
C19	C	1.516304	-0.020036	-0.000031
C20	C	1.514588	-0.083264	-0.000010
C21	C	1.390978	-0.350245	-0.000095
C22	C	1.392571	-0.290834	-0.000084
O23	O	1.294513	-0.254735	-0.000127
N24	N	1.509644	-0.267438	-0.000070
C25	C	1.625132	-0.303456	-0.000080
O26	O	1.724858	-0.278100	-0.000069
C27	C	1.623537	-0.362865	-0.000101
C28	C	1.506456	-0.386258	-0.000101
C29	C	1.273907	-0.373639	-0.000097
C30	C	1.272314	-0.433045	-0.000105
C31	C	1.387793	-0.469058	-0.000111
C32	C	1.504864	-0.445665	-0.000109
C33	C	1.739023	-0.398882	-0.000122
C34	C	1.737418	-0.458295	-0.000144
C35	C	1.620338	-0.481688	-0.000144
C36	C	1.618749	-0.541084	-0.000124
N37	N	1.501676	-0.564481	-0.000138
C38	C	1.386198	-0.528468	-0.000132
C39	C	1.628472	-0.178691	-0.000039
C40	C	1.630068	-0.119283	-0.000009
C41	C	1.397507	-0.106665	-0.000015
C42	C	1.395912	-0.166075	-0.000036
C43	C	1.511399	-0.202088	-0.000054
C44	C	1.382862	-0.653227	-0.000148
C45	C	1.381279	-0.712639	-0.000150
C46	C	1.613840	-0.725251	-0.000151
C47	C	1.615423	-0.665844	-0.000141
C48	C	1.499924	-0.629832	-0.000144
O49	O	1.716757	-0.577219	-0.000087
O50	O	1.286488	-0.553832	-0.000162
C51	C	1.738912	0.080829	-0.000084
C52	C	1.880487	0.082527	-0.000097
C53	C	1.495043	0.188120	-0.000126
C54	C	1.496758	0.251348	-0.000156
N55	N	1.505658	0.084050	0.362180
N56	N	1.505698	0.084029	-0.362334
C57	C	1.414559	0.124103	0.453366
C58	C	1.529675	0.135621	0.546537
C59	C	1.390592	0.072537	0.546565
C60	C	1.620832	0.095593	0.453299
C61	C	1.481674	0.032487	0.453318
C62	C	1.596873	0.043983	0.546447
H63	H	1.069890	0.134960	0.211419
C64	C	0.931087	0.024992	-0.245897
H65	H	0.840761	0.024106	-0.245133
H66	H	0.972500	-0.012993	-0.246215
H67	H	0.954960	0.044451	-0.327215
C68	C	1.758852	-0.093554	0.000015
H69	H	1.743275	-0.053013	0.000035
H70	H	1.806378	-0.105878	-0.081066
H71	H	1.806350	-0.105893	0.081113
C72	C	1.146873	-0.334030	-0.000090
H73	H	1.164567	-0.295295	-0.000087
H74	H	1.098834	-0.341188	0.080991
H75	H	1.098847	-0.341169	-0.081189
C76	C	1.133451	-0.030859	-0.000182
H77	H	1.110169	-0.050350	-0.081686
H78	H	1.109078	-0.050588	0.080493
H79	H	1.223607	-0.029435	0.000584
C80	C	1.080595	0.143139	-0.245681
H81	H	1.039831	0.181243	-0.245563
H82	H	1.056141	0.123918	-0.327087
H83	H	1.171010	0.143706	-0.245156
H84	H	0.941335	0.033169	0.211466
H85	H	1.549988	0.179217	0.587483
H86	H	0.895544	0.182972	-0.000245
C87	C	1.867814	-0.373162	-0.000141
H88	H	1.936348	-0.403127	-0.000169
H89	H	1.873292	-0.350255	0.080942
H90	H	1.873269	-0.350245	-0.081238
H91	H	1.285934	-0.731682	-0.000144
C92	C	1.755515	-0.218300	-0.000032
H93	H	1.825460	-0.195853	-0.000008
H94	H	1.759750	-0.241732	-0.081121
H95	H	1.759721	-0.241744	0.081059
C96	C	1.310587	0.169901	0.398135
H97	H	1.327860	0.206508	0.430054
H98	H	1.228991	0.162091	0.431435
H99	H	1.310791	0.169364	0.298827
C100	C	1.740859	-0.764870	-0.000165
H101	H	1.810820	-0.742432	-0.000155
H102	H	1.745062	-0.788299	-0.081257
H103	H	1.745066	-0.788316	0.080923
H104	H	1.288811	-0.623913	-0.000151
C105	C	1.143525	-0.458770	-0.000125
H106	H	1.074988	-0.428807	-0.000134
H107	H	1.138045	-0.481692	0.080949
H108	H	1.138075	-0.481672	-0.081231
H109	H	1.710759	-0.646796	-0.000121
H110	H	1.718178	0.105374	0.412504
C111	C	1.267125	-0.191802	-0.000056
H112	H	1.198585	-0.161841	-0.000059
H113	H	1.261651	-0.214727	0.081014
H114	H	1.261676	-0.214702	-0.081166
H115	H	1.303478	-0.077333	-0.000009
H116	H	1.674014	0.010100	0.587060
C117	C	1.454183	-0.026387	0.397944
H118	H	1.372335	-0.034503	0.429820
H119	H	1.518073	-0.054926	0.431198
H120	H	1.455148	-0.026049	0.298637
H121	H	1.831464	-0.487614	-0.000166
H122	H	1.293267	0.062809	0.587536
