data_functionalizedCrystal
_audit_creation_method	'MofGen! by Chris Wilmer'
_symmetry_space_group_name_H-M	'P1'
_symmetry_Int_Tables_number	1
_symmetry_cell_setting	triclinic
loop_
_symmetry_equiv_pos_as_xyz
  x,y,z
_cell_length_a	19.188933
_cell_length_b	19.188930
_cell_length_c	15.186229
_cell_angle_alpha	89.991143
_cell_angle_beta	89.998062
_cell_angle_gamma	83.145175
loop_
_atom_site_label
_atom_site_type_symbol
_atom_site_fract_x
_atom_site_fract_y
_atom_site_fract_z
O1	O	0.926143	0.087173	-0.073209
O2	O	0.722832	0.098906	-0.073219
O3	O	0.830354	-0.008616	-0.073196
O4	O	0.818620	0.194695	-0.073231
O5	O	0.830347	-0.008618	0.073261
O6	O	0.722825	0.098904	0.073239
O7	O	0.926136	0.087172	0.073248
Zn8	Zn	0.824479	0.093038	0.096497
Zn9	Zn	0.824488	0.093040	-0.096467
O10	O	0.818613	0.194694	0.073226
C11	C	0.696817	0.098525	0.000009
C12	C	0.619313	0.097384	0.000006
C13	C	0.066061	0.089239	-0.079817
C14	C	0.138886	0.090308	-0.079820
C15	C	0.175299	0.090844	0.000013
C16	C	0.138884	0.090294	0.079856
C17	C	0.066062	0.089219	0.079857
N18	N	0.284316	0.132262	0.059430
N19	N	0.353493	0.133285	0.059423
C20	C	0.394707	0.094082	0.000014
N21	N	0.364129	0.053826	-0.059402
N22	N	0.294945	0.052807	-0.059397
C23	C	0.254262	0.092009	0.000021
C24	C	0.510078	0.095785	-0.079828
C25	C	0.582905	0.096849	-0.079828
C26	C	0.582900	0.096842	0.079851
C27	C	0.510077	0.095772	0.079849
C28	C	0.473669	0.095246	0.000007
C29	C	0.829971	-0.034628	0.000035
C30	C	0.828830	-0.112132	0.000042
C31	C	0.891921	-0.157056	0.000049
C32	C	0.890849	-0.229880	0.000035
C33	C	0.826683	-0.257777	0.000032
C34	C	0.763584	-0.212843	0.000020
C35	C	0.764658	-0.140021	0.000025
N36	N	0.777634	-0.365783	0.049872
N37	N	0.776618	-0.434961	0.049868
C38	C	0.823445	-0.477185	0.000014
N39	N	0.871337	-0.447619	-0.049827
N40	N	0.872354	-0.378434	-0.049820
C41	C	0.825512	-0.336739	0.000025
C42	C	0.885378	-0.601073	0.000004
C43	C	0.884304	-0.673898	-0.000015
C44	C	0.757037	-0.656860	-0.000022
C45	C	0.758113	-0.584037	-0.000012
C46	C	0.822286	-0.556148	0.000006
C47	C	0.952150	0.087553	0.000019
C48	C	1.029655	0.088694	0.000016
C49	C	0.818997	0.220705	-0.000007
C50	C	0.820137	0.298210	-0.000020
N51	N	0.824478	0.093036	0.228189
N52	N	0.824495	0.093036	-0.228160
C53	C	0.872105	0.045441	0.453922
C54	C	0.872107	0.045440	0.546112
C55	C	0.776863	0.140633	0.546101
C56	C	0.776858	0.140631	0.453913
C57	C	0.824483	0.093036	0.407826
C58	C	0.824490	0.093036	0.592204
C59	C	0.824492	0.093035	0.692160
C60	C	0.824480	0.093036	0.307863
H61	H	0.168536	0.090730	0.144857
H62	H	0.944175	-0.134354	0.000061
O63	O	0.730693	0.186899	0.409034
C64	C	0.767950	0.229889	0.355710
H65	H	0.822666	0.201942	0.341901
H66	H	0.772537	0.281481	0.391224
C67	C	0.661334	0.279232	0.285101
C68	C	0.728536	0.244904	0.268135
H69	H	0.637021	0.288497	0.231082
H70	H	0.636233	0.250271	0.321029
H71	H	0.665166	0.322221	0.314699
H72	H	0.724703	0.201912	0.238548
H73	H	0.753636	0.273859	0.232200
H74	H	0.738089	0.179385	0.583634
H75	H	0.910883	0.006685	0.416400
O76	O	0.474659	0.095390	-0.157357
C77	C	0.424433	0.155217	-0.162132
H78	H	0.440725	0.197794	-0.116836
H79	H	0.371072	0.140737	-0.140676
C80	C	0.399633	0.130321	-0.313152
C81	C	0.419647	0.182617	-0.257524
H82	H	0.396677	0.147222	-0.371994
H83	H	0.433469	0.090013	-0.309935
H84	H	0.355167	0.118259	-0.295261
H85	H	0.464115	0.194671	-0.275408
H86	H	0.385818	0.222928	-0.260746
O87	O	0.030810	0.088689	-0.157451
C88	C	0.078564	0.089415	-0.227915
H89	H	0.133433	0.068086	-0.204505
H90	H	0.078808	0.145531	-0.252473
C91	C	-0.011112	0.069413	-0.332088
C92	C	0.056278	0.043211	-0.303337
H93	H	-0.024860	0.040916	-0.378614
H94	H	-0.043286	0.068927	-0.284616
H95	H	-0.010900	0.116176	-0.352547
H96	H	0.056063	-0.003547	-0.282868
H97	H	0.088451	0.043689	-0.350807
H98	H	0.942227	-0.266463	0.000038
O99	O	0.701297	-0.240022	-0.000100
C100	C	0.696867	-0.281612	-0.075964
H101	H	0.751955	-0.299912	-0.101247
H102	H	0.665883	-0.249337	-0.129080
C103	C	0.591807	-0.323442	-0.021875
C104	C	0.659467	-0.345924	-0.052924
H105	H	0.568735	-0.363112	-0.007665
H106	H	0.594790	-0.295421	0.029235
H107	H	0.565996	-0.296546	-0.066144
H108	H	0.685280	-0.372813	-0.008652
H109	H	0.656488	-0.373952	-0.104026
O110	O	0.030796	0.088726	0.157489
C111	C	0.078550	0.089407	0.227955
H112	H	0.127504	0.112270	0.204549
H113	H	0.093788	0.033518	0.252509
C114	C	-0.016126	0.106680	0.332126
C115	C	0.043998	0.134767	0.303380
H116	H	-0.037439	0.134658	0.378653
H117	H	-0.048299	0.106219	0.284652
H118	H	-0.003419	0.060107	0.352581
H119	H	0.031289	0.181336	0.282915
H120	H	0.076168	0.135237	0.350852
H121	H	0.910884	0.006683	0.583641
H122	H	0.168533	0.090756	-0.144832
O123	O	0.703387	-0.096350	-0.000133
C124	C	0.700214	-0.053690	-0.075968
H125	H	0.736002	-0.080459	-0.128984
H126	H	0.718122	-0.000791	-0.058809
C127	C	0.580255	-0.009508	-0.045253
C128	C	0.624207	-0.042389	-0.110371
H129	H	0.533370	-0.002534	-0.066473
H130	H	0.582393	-0.038247	0.005841
H131	H	0.595187	0.034570	-0.030960
H132	H	0.609279	-0.086470	-0.124654
H133	H	0.622064	-0.013657	-0.161467
O134	O	0.618224	0.097501	-0.157406
C135	C	0.592326	0.157691	-0.205984
H136	H	0.566654	0.199646	-0.159271
H137	H	0.551884	0.143407	-0.255762
C138	C	0.684879	0.134528	-0.312283
C139	C	0.653353	0.186061	-0.254908
H140	H	0.722522	0.152027	-0.342465
H141	H	0.702325	0.093975	-0.279557
H142	H	0.651170	0.122630	-0.353757
H143	H	0.687059	0.197952	-0.213429
H144	H	0.635914	0.226616	-0.287628
O145	O	0.618352	0.097269	0.157347
C146	C	0.668554	0.037424	0.162140
H147	H	0.682163	0.017434	0.092825
H148	H	0.646152	-0.005325	0.201540
C149	C	0.718553	0.081354	0.292919
C150	C	0.735273	0.056805	0.207784
H151	H	0.759708	0.093307	0.321078
H152	H	0.684730	0.121671	0.289692
H153	H	0.699884	0.045725	0.325742
H154	H	0.753933	0.092436	0.174960
H155	H	0.769101	0.016494	0.211007
H156	H	0.937631	-0.578365	0.000014
O157	O	0.474810	0.095283	0.157478
C158	C	0.522564	0.095968	0.227943
H159	H	0.571517	0.118833	0.204534
H160	H	0.537805	0.040080	0.252499
C161	C	0.427889	0.113240	0.332115
C162	C	0.488011	0.141329	0.303366
H163	H	0.406576	0.141218	0.378642
H164	H	0.395716	0.112776	0.284642
H165	H	0.440599	0.066668	0.352572
H166	H	0.475300	0.187897	0.282899
H167	H	0.520182	0.141802	0.350837
H168	H	0.706738	-0.547459	-0.000012
O169	O	0.945658	-0.717440	0.000030
C170	C	1.002524	-0.677205	0.000026
H171	H	0.984632	-0.622803	0.027757
H172	H	1.022213	-0.672065	-0.070232
C173	C	1.084191	-0.780501	0.023409
C174	C	1.062216	-0.713686	0.057476
H175	H	1.121014	-0.803005	0.058843
H176	H	1.045880	-0.807610	0.023408
H177	H	1.100594	-0.776209	-0.035139
H178	H	1.045806	-0.717979	0.116018
H179	H	1.100526	-0.686579	0.057487
H180	H	0.704792	-0.679573	-0.000030
