data_functionalizedCrystal
_audit_creation_method	'MofGen! by Chris Wilmer'
_symmetry_space_group_name_H-M	'P1'
_symmetry_Int_Tables_number	1
_symmetry_cell_setting	triclinic
loop_
_symmetry_equiv_pos_as_xyz
  x,y,z
_cell_length_a	12.759395
_cell_length_b	18.050589
_cell_length_c	12.759387
_cell_angle_alpha	89.970013
_cell_angle_beta	89.979491
_cell_angle_gamma	90.029758
loop_
_atom_site_label
_atom_site_type_symbol
_atom_site_fract_x
_atom_site_fract_y
_atom_site_fract_z
Zn1	Zn	1.606170	-0.295590	-0.594011
Zn2	Zn	1.606019	-0.419799	-0.418334
Zn3	Zn	1.430468	-0.295630	-0.418348
Zn4	Zn	1.430419	-0.419746	-0.593973
O5	O	1.518269	-0.357691	-0.506166
O6	O	1.753171	-0.312072	-0.570717
O7	O	1.582689	-0.403367	-0.271315
O8	O	1.453859	-0.191700	-0.441672
O9	O	1.753060	-0.403327	-0.441648
O10	O	1.582946	-0.191671	-0.570731
O11	O	1.453713	-0.312141	-0.271325
O12	O	1.283441	-0.312089	-0.441635
O13	O	1.453775	-0.403237	-0.740999
O14	O	1.283405	-0.403277	-0.570666
O15	O	1.582899	-0.312020	-0.741027
O16	O	1.582642	-0.523716	-0.441611
O17	O	1.453629	-0.523677	-0.570652
C18	C	1.245302	-0.357682	-0.506148
C19	C	1.128525	-0.357696	-0.506166
C20	C	1.128526	-0.452803	-0.640308
C21	C	1.073666	-0.500362	-0.707383
C22	C	0.963944	-0.500371	-0.707395
C23	C	0.909080	-0.452814	-0.640329
C24	C	0.963940	-0.405255	-0.573255
C25	C	1.073665	-0.405253	-0.573247
C26	C	0.963939	-0.310146	-0.439119
C27	C	1.073661	-0.310139	-0.439099
C28	C	0.909076	-0.262589	-0.372052
C29	C	0.963936	-0.215032	-0.304971
C30	C	1.073664	-0.215026	-0.304960
C31	C	1.128521	-0.262580	-0.372025
C32	C	1.518142	-0.550643	-0.506149
C33	C	1.518184	-0.633189	-0.506177
C34	C	1.448096	-0.832646	-0.576325
C35	C	1.422480	-0.882094	-0.480456
C36	C	1.518287	-0.784319	-0.506190
C37	C	1.543955	-0.881953	-0.602070
C38	C	1.518385	-0.930304	-0.506212
C39	C	1.492621	-0.832681	-0.410271
C40	C	1.614141	-0.832535	-0.531950
C41	C	1.588561	-0.881961	-0.436015
C42	C	1.518228	-0.700221	-0.506179
C43	C	1.518444	-1.014401	-0.506212
C44	C	1.792302	-0.357701	-0.506185
C45	C	1.909079	-0.357705	-0.506193
C46	C	1.518348	-0.357618	-0.780200
C47	C	1.518382	-0.357587	-0.896977
C48	C	1.518425	-0.163986	-0.506207
C49	C	1.518492	-0.081440	-0.506224
C50	C	1.652848	-0.262609	-0.897026
C51	C	1.720095	-0.215109	-0.951911
C52	C	1.720121	-0.215082	-1.061633
C53	C	1.652889	-0.262559	-1.116472
C54	C	1.585642	-0.310059	-1.061586
C55	C	1.585626	-0.310082	-0.951862
C56	C	1.451173	-0.405032	-1.061538
C57	C	1.451151	-0.405064	-0.951816
C58	C	1.383942	-0.452509	-1.116376
C59	C	1.316698	-0.500013	-1.061491
C60	C	1.316676	-0.500039	-0.951763
C61	C	1.383904	-0.452564	-0.896931
C62	C	1.518251	-0.357710	-0.233199
C63	C	1.518420	-0.357532	-0.116423
H64	H	1.118348	-0.539081	-0.761988
H65	H	1.647961	-0.903478	-0.376645
H66	H	1.652843	-0.262634	-0.807684
O67	O	0.802493	-0.262597	-0.372254
C68	C	0.765882	-0.243605	-0.472989
H69	H	0.829129	-0.256341	-0.533471
H70	H	0.692468	-0.277130	-0.491578
H71	H	0.746444	-0.181989	-0.475376
H72	H	0.919277	-0.539094	-0.762019
O73	O	1.710717	-0.806418	-0.557903
C74	C	1.709527	-0.728319	-0.556605
H75	H	1.643112	-0.708253	-0.504024
H76	H	1.787472	-0.706913	-0.525141
H77	H	1.697035	-0.706637	-0.639599
H78	H	1.470856	-0.811126	-0.329173
O79	O	1.569693	-0.907686	-0.698869
C80	C	1.495413	-0.882575	-0.772539
H81	H	1.455374	-0.830616	-0.741366
H82	H	1.536554	-0.869201	-0.849590
H83	H	1.434249	-0.927599	-0.786234
O84	O	1.785436	-0.168924	-0.898803
C85	C	1.844813	-0.127008	-0.970775
H86	H	1.801797	-0.124413	-1.048982
H87	H	1.856072	-0.068504	-0.939091
H88	H	1.924581	-0.154211	-0.982451
H89	H	1.383963	-0.452480	-1.205718
O90	O	1.785292	-0.168863	-1.115000
C91	C	1.725533	-0.120891	-1.178494
H92	H	1.642785	-0.116301	-1.145414
H93	H	1.763585	-0.063742	-1.179769
H94	H	1.721905	-0.143838	-1.261641
H95	H	0.819739	-0.452819	-0.640355
O96	O	1.325904	-0.908192	-0.454437
C97	C	1.327549	-0.986293	-0.453908
H98	H	1.411353	-1.006394	-0.441751
H99	H	1.275880	-1.007712	-0.387567
H100	H	1.296743	-1.007926	-0.531975
H101	H	1.388650	-0.810991	-0.635551
O102	O	0.910759	-0.168876	-0.239684
C103	C	0.937482	-0.185026	-0.134925
H104	H	1.017127	-0.213570	-0.132660
H105	H	0.941245	-0.131387	-0.087948
H106	H	0.875684	-0.223179	-0.099456
H107	H	1.652907	-0.262526	-1.205813
O108	O	1.251495	-0.546103	-1.114922
C109	C	1.265911	-0.535874	-1.223534
H110	H	1.347016	-0.511553	-1.238537
H111	H	1.258743	-0.591488	-1.265226
H112	H	1.203634	-0.496311	-1.254664
H113	H	1.261904	-0.538712	-0.907082
O114	O	1.383989	-0.452710	-0.790348
C115	C	1.410873	-0.523903	-0.753679
H116	H	1.456644	-0.554597	-0.816918
H117	H	1.461256	-0.518610	-0.680294
H118	H	1.336459	-0.556071	-0.734174
O119	O	1.235109	-0.452937	-0.640278
C120	C	1.271697	-0.524083	-0.613075
H121	H	1.208447	-0.566877	-0.630931
H122	H	1.345123	-0.537327	-0.660409
H123	H	1.291109	-0.525575	-0.525892
H124	H	1.118325	-0.176292	-0.250347
H125	H	1.217863	-0.262581	-0.372019
