data_functionalizedCrystal
_audit_creation_method	'MofGen! by Chris Wilmer'
_symmetry_space_group_name_H-M	'P1'
_symmetry_Int_Tables_number	1
_symmetry_cell_setting	triclinic
loop_
_symmetry_equiv_pos_as_xyz
  x,y,z
_cell_length_a	17.038272
_cell_length_b	19.188930
_cell_length_c	16.098538
_cell_angle_alpha	92.708456
_cell_angle_beta	87.069734
_cell_angle_gamma	87.128169
loop_
_atom_site_label
_atom_site_type_symbol
_atom_site_fract_x
_atom_site_fract_y
_atom_site_fract_z
O1	O	1.040399	0.148677	-0.069168
O2	O	0.812777	0.146269	-0.069192
O3	O	0.933156	0.046226	-0.069163
O4	O	0.920020	0.248720	-0.069197
O5	O	0.926124	0.052046	0.069348
O6	O	0.805745	0.152089	0.069319
O7	O	1.033367	0.154497	0.069343
Zn8	Zn	0.918440	0.154217	0.091323
Zn9	Zn	0.927705	0.146549	-0.091172
O10	O	0.912989	0.254540	0.069314
C11	C	0.780140	0.146990	0.000061
C12	C	0.693368	0.140458	0.000052
C13	C	0.643067	0.200424	0.000043
C14	C	0.561535	0.194283	0.000055
C15	C	0.530306	0.128176	0.000071
C16	C	0.580613	0.068205	0.000083
C17	C	0.662144	0.074347	0.000077
C18	C	0.284615	0.106479	0.000097
C19	C	0.203078	0.100342	0.000101
C20	C	0.184005	0.226420	0.000075
C21	C	0.265538	0.232556	0.000063
C22	C	0.315838	0.172586	0.000080
C23	C	0.446968	0.121897	0.000081
C24	C	0.399175	0.178865	0.000075
C25	C	0.929215	0.023099	0.000095
C26	C	0.927937	-0.054485	0.000102
C27	C	0.998572	-0.095020	0.000113
C28	C	0.997373	-0.167919	0.000100
C29	C	0.925534	-0.200279	0.000092
C30	C	0.854890	-0.159735	0.000076
C31	C	0.856092	-0.086838	0.000081
N32	N	0.868229	-0.309715	0.047224
N33	N	0.867092	-0.378964	0.047221
C34	C	0.921910	-0.419913	0.000075
N35	N	0.977918	-0.388997	-0.047058
N36	N	0.979057	-0.319742	-0.047051
C37	C	0.924223	-0.279323	0.000086
C38	C	0.991249	-0.539494	0.000070
C39	C	0.990047	-0.612395	0.000052
C40	C	0.847562	-0.604208	0.000036
C41	C	0.848767	-0.531310	0.000046
C42	C	0.920612	-0.498957	0.000067
C43	C	1.066005	0.153776	0.000089
C44	C	1.152777	0.160308	0.000092
C45	C	0.916930	0.277667	0.000054
C46	C	0.918208	0.355250	0.000042
N47	N	0.912123	0.159449	0.215871
N48	N	0.934028	0.141311	-0.215719
C49	C	0.963235	0.117004	0.259468
C50	C	0.958823	0.120672	0.346656
C51	C	0.903302	0.166789	0.390245
C52	C	0.852184	0.209235	0.346641
C53	C	0.856593	0.205564	0.259455
C54	C	0.887319	0.180086	0.653491
C55	C	0.882916	0.183756	0.740683
C56	C	0.989554	0.095192	0.740692
C57	C	0.993961	0.091527	0.653504
C58	C	0.942841	0.133971	0.609908
C59	C	0.898792	0.170540	0.479365
C60	C	0.947347	0.130216	0.520790
H61	H	0.555180	0.014379	0.000108
O62	O	1.073562	-0.211648	0.000121
H63	H	1.073540	-0.242692	0.056575
O64	O	0.770079	-0.639105	0.000028
H65	H	0.721162	-0.598667	0.000020
H66	H	0.814971	0.240126	0.223959
O67	O	0.413279	0.050598	0.000095
H68	H	0.461951	0.009926	0.000103
O69	O	1.013950	0.074895	0.393685
H70	H	1.049818	0.108234	0.433400
O71	O	0.129747	0.291097	0.000071
H72	H	0.143671	0.320131	-0.056392
O73	O	0.779901	-0.043115	0.000074
H74	H	0.792806	0.013010	0.000077
O75	O	0.838919	0.220286	0.526385
H76	H	0.778858	0.207039	0.509673
H77	H	0.837702	0.221313	0.776169
O78	O	0.777406	-0.194634	0.000078
H79	H	0.776318	-0.230021	-0.056373
H80	H	0.806974	0.246782	0.382136
H81	H	1.039171	0.053976	0.618016
O82	O	1.068736	-0.504594	0.000083
H83	H	1.075551	-0.473934	-0.056364
O84	O	0.338856	0.041796	0.000113
H85	H	0.379323	0.039203	-0.056338
O86	O	1.066235	-0.656121	0.000071
H87	H	1.116390	-0.621373	0.000097
H88	H	0.424604	0.232690	0.000067
H89	H	0.791248	-0.498305	0.000041
O90	O	0.676749	0.271726	0.000034
H91	H	0.628069	0.312393	0.000040
H92	H	1.031173	0.060635	0.776196
O93	O	0.832193	0.225870	0.606474
H94	H	0.792854	0.258559	0.651434
H95	H	1.057074	-0.068683	0.000128
H96	H	1.008449	0.079455	0.223984
O97	O	1.007218	0.080472	0.473770
H98	H	1.067281	0.093714	0.490482
H99	H	0.520582	0.243114	0.000047
H100	H	0.290958	0.286387	0.000041
H101	H	0.177655	0.046506	0.000113
H102	H	0.703099	0.025516	0.000084
