data_functionalizedCrystal
_audit_creation_method	'MofGen! by Chris Wilmer'
_symmetry_space_group_name_H-M	'P1'
_symmetry_Int_Tables_number	1
_symmetry_cell_setting	triclinic
loop_
_symmetry_equiv_pos_as_xyz
  x,y,z
_cell_length_a	12.759401
_cell_length_b	15.297327
_cell_length_c	12.759393
_cell_angle_alpha	99.642800
_cell_angle_beta	89.981708
_cell_angle_gamma	99.706546
loop_
_atom_site_label
_atom_site_type_symbol
_atom_site_fract_x
_atom_site_fract_y
_atom_site_fract_z
Zn1	Zn	1.533794	-0.359114	-0.666299
Zn2	Zn	2.033794	0.140886	-0.166299
Zn3	Zn	1.503245	-0.509999	-0.521004
Zn4	Zn	2.003245	-0.009999	-0.021004
Zn5	Zn	1.358088	-0.359158	-0.490647
Zn6	Zn	1.858088	0.140842	0.009353
Zn7	Zn	1.327654	-0.509932	-0.696632
Zn8	Zn	1.827654	-0.009932	-0.196632
O9	O	1.430695	-0.434550	-0.593645
O10	O	1.930695	0.065450	-0.093645
O11	O	1.676761	-0.379138	-0.647035
O12	O	2.176761	0.120862	-0.147035
O13	O	1.483941	-0.490036	-0.369965
O14	O	1.983941	0.009964	0.130035
O15	O	1.406918	-0.232907	-0.488549
O16	O	1.906918	0.267093	0.011451
O17	O	1.654317	-0.489993	-0.540287
O18	O	2.154317	0.010007	-0.040287
O19	O	1.536008	-0.232874	-0.617599
O20	O	2.036008	0.267126	-0.117599
O21	O	1.377295	-0.379214	-0.347662
O22	O	1.877295	0.120786	0.152338
O23	O	1.207032	-0.379149	-0.517962
O24	O	1.707032	0.120851	-0.017962
O25	O	1.355047	-0.489879	-0.839620
O26	O	1.855047	0.010121	-0.339620
O27	O	1.184672	-0.489922	-0.669298
O28	O	1.684672	0.010078	-0.169298
O29	O	1.506498	-0.379074	-0.817334
O30	O	2.006498	0.120926	-0.317334
O31	O	1.454431	-0.636235	-0.569700
O32	O	1.954431	-0.136235	-0.069700
O33	O	1.325425	-0.636186	-0.698733
O34	O	1.825425	-0.136186	-0.198733
C35	C	1.157731	-0.434534	-0.593628
C36	C	1.657731	0.065466	-0.093628
C37	C	1.040952	-0.434549	-0.593650
C38	C	1.540952	0.065451	-0.093650
C39	C	0.974456	-0.492320	-0.672358
C40	C	1.474456	0.007680	-0.172358
C41	C	0.864730	-0.492332	-0.672371
C42	C	1.364730	0.007668	-0.172371
C43	C	0.888005	-0.376797	-0.514959
C44	C	1.388005	0.123203	-0.014959
C45	C	0.997730	-0.376782	-0.514951
C46	C	1.497730	0.123218	-0.014951
C47	C	1.017677	-0.550087	-0.751056
C48	C	1.517677	-0.050087	-0.251056
C49	C	0.951180	-0.607865	-0.829770
C50	C	1.451180	-0.107865	-0.329770
C51	C	0.841454	-0.607876	-0.829784
C52	C	1.341454	-0.107876	-0.329784
C53	C	0.798225	-0.550110	-0.751084
C54	C	1.298225	-0.050110	-0.251084
C55	C	1.383339	-0.668945	-0.640825
C56	C	1.883339	-0.168945	-0.140825
C57	C	1.363176	-0.769219	-0.661044
C58	C	1.863176	-0.269219	-0.161044
C59	C	1.575238	-1.051854	-0.449496
C60	C	2.075238	-0.551854	0.050504
C61	C	1.594182	-0.957641	-0.430495
C62	C	2.094182	-0.457641	0.069505
C63	C	1.536432	-0.910531	-0.488130
C64	C	2.036432	-0.410531	0.011870
C65	C	1.459735	-0.957643	-0.564771
C66	C	1.959735	-0.457643	-0.064771
C67	C	1.440783	-1.051866	-0.583769
C68	C	1.940783	-0.551866	-0.083769
C69	C	1.401978	-0.910542	-0.622403
C70	C	1.901978	-0.410542	-0.122403
C71	C	1.325280	-0.957655	-0.699044
C72	C	1.825280	-0.457655	-0.199044
C73	C	1.306333	-1.051868	-0.718039
C74	C	1.806333	-0.551868	-0.218039
C75	C	1.364082	-1.098978	-0.660403
C76	C	1.864082	-0.598978	-0.160403
C77	C	1.420929	-0.816320	-0.603405
C78	C	1.920929	-0.316320	-0.103405
C79	C	1.286475	-0.816332	-0.737678
C80	C	1.786475	-0.316332	-0.237678
C81	C	1.267531	-0.910545	-0.756680
C82	C	1.767531	-0.410545	-0.256680
C83	C	1.704725	-0.434568	-0.593664
C84	C	2.204725	0.065432	-0.093664
C85	C	1.821500	-0.434575	-0.593672
C86	C	2.321500	0.065425	-0.093672
C87	C	1.430785	-0.434464	-0.867661
C88	C	1.930785	0.065536	-0.367661
C89	C	1.430824	-0.434427	-0.984431
C90	C	1.930824	0.065573	-0.484431
C91	C	1.478265	-0.199241	-0.546304
C92	C	1.978265	0.300759	-0.046304
C93	C	1.498537	-0.098966	-0.526130
C94	C	1.998537	0.401034	-0.026130
C95	C	1.486362	-0.492110	-1.050899
C96	C	1.986362	0.007890	-0.550899
C97	C	1.486402	-0.492072	-1.160615
C98	C	1.986402	0.007928	-0.660615
C99	C	1.375356	-0.376665	-1.137385
C100	C	1.875356	0.123335	-0.637385
C101	C	1.375323	-0.376699	-1.027670
C102	C	1.875323	0.123301	-0.527670
C103	C	1.541863	-0.549838	-1.007660
C104	C	2.041863	-0.049838	-0.507660
C105	C	1.597405	-0.607527	-1.074129
C106	C	2.097405	-0.107527	-0.574129
C107	C	1.597444	-0.607488	-1.183845
C108	C	2.097444	-0.107488	-0.683845
C109	C	1.541942	-0.549761	-1.227092
C110	C	2.041942	-0.049761	-0.727092
C111	C	1.430679	-0.434572	-0.320682
C112	C	1.930679	0.065428	0.179318
C113	C	1.430896	-0.434354	-0.203862
C114	C	1.930896	0.065646	0.296138
H115	H	0.787316	-0.654915	-0.893883
H116	H	1.287316	-0.154915	-0.393883
F117	F	1.068504	-0.315294	-0.431181
F118	F	1.568504	0.184706	0.068819
H119	H	1.239448	-0.777976	-0.784608
H120	H	1.739448	-0.277976	-0.284608
F121	F	0.841993	-0.315324	-0.431206
F122	F	1.341993	0.184676	0.068794
H123	H	0.708879	-0.550116	-0.751109
H124	H	1.208879	-0.050116	-0.251109
F125	F	1.502553	-0.766190	-0.521841
F126	F	2.002553	-0.266190	-0.021841
H127	H	1.330103	-0.329726	-0.973549
H128	H	1.830103	0.170274	-0.473549
H129	H	1.551860	-0.833818	-0.472653
H130	H	2.051860	-0.333818	0.027347
F131	F	1.675812	-0.907507	-0.348939
F132	F	2.175812	-0.407507	0.151061
F133	F	1.636687	-1.101997	-0.388163
F134	F	2.136687	-0.601997	0.111837
F135	F	1.343590	-1.199251	-0.680288
F136	F	1.843590	-0.699251	-0.180288
H137	H	1.642677	-0.654454	-1.237961
H138	H	2.142677	-0.154454	-0.737961
H139	H	1.541833	-0.549878	-0.918325
H140	H	2.041833	-0.049878	-0.418325
F141	F	1.224700	-1.102006	-0.799603
F142	F	1.724700	-0.602006	-0.299603
H143	H	1.205083	-0.948917	-0.819081
H144	H	1.705083	-0.448917	-0.319081
H145	H	1.107020	-0.550086	-0.751053
H146	H	1.607020	-0.050086	-0.251053
H147	H	1.330167	-0.329667	-1.172606
H148	H	1.830167	0.170333	-0.672606
F149	F	1.541998	-0.549715	-1.343863
F150	F	2.041998	-0.049715	-0.843863
F151	F	1.656482	-0.668952	-1.028099
F152	F	2.156482	-0.168952	-0.528099
H153	H	0.986387	-0.654890	-0.893850
H154	H	1.486387	-0.154890	-0.393850
