data_functionalizedCrystal
_audit_creation_method	'MofGen! by Chris Wilmer'
_symmetry_space_group_name_H-M	'P1'
_symmetry_Int_Tables_number	1
_symmetry_cell_setting	triclinic
loop_
_symmetry_equiv_pos_as_xyz
  x,y,z
_cell_length_a	14.519731
_cell_length_b	19.288874
_cell_length_c	18.366186
_cell_angle_alpha	90.002075
_cell_angle_beta	89.992506
_cell_angle_gamma	96.585461
loop_
_atom_site_label
_atom_site_type_symbol
_atom_site_fract_x
_atom_site_fract_y
_atom_site_fract_z
O1	O	-1.223285	0.091116	0.060569
O2	O	-0.889951	0.424450	0.393903
O3	O	-0.556618	0.757783	0.727236
O4	O	-0.954743	0.101823	0.060567
O5	O	-0.621410	0.435157	0.393900
O6	O	-0.288076	0.768490	0.727233
O7	O	-1.096769	-0.004632	0.060562
O8	O	-0.763435	0.328702	0.393896
O9	O	-0.430102	0.662035	0.727229
O10	O	-1.081259	0.197571	0.060574
O11	O	-0.747926	0.530905	0.393907
O12	O	-0.414592	0.864238	0.727240
O13	O	-1.096750	-0.004628	-0.060537
O14	O	-0.763417	0.328705	0.272796
O15	O	-0.430084	0.662039	0.606130
O16	O	-0.954725	0.101827	-0.060533
O17	O	-0.621391	0.435160	0.272801
O18	O	-0.288058	0.768494	0.606134
O19	O	-1.223266	0.091120	-0.060530
O20	O	-0.889933	0.424453	0.272803
O21	O	-0.556600	0.757787	0.606137
Zn22	Zn	-1.088993	0.096474	-0.079759
Zn23	Zn	-0.755659	0.429807	0.253575
Zn24	Zn	-0.422326	0.763141	0.586908
Zn25	Zn	-1.089017	0.096469	0.079795
Zn26	Zn	-0.755683	0.429803	0.413128
Zn27	Zn	-0.422350	0.763136	0.746462
O28	O	-1.081241	0.197575	-0.060526
O29	O	-0.747907	0.530908	0.272808
O30	O	-0.414574	0.864242	0.606141
C31	C	-0.920378	0.101323	0.000017
C32	C	-0.587044	0.434657	0.333350
C33	C	-0.253711	0.767990	0.666683
C34	C	-0.818007	0.099820	0.000015
C35	C	-0.484673	0.433153	0.333349
C36	C	-0.151340	0.766487	0.666682
C37	C	-0.734870	0.098599	0.000017
C38	C	-0.401537	0.431932	0.333351
C39	C	-0.068204	0.765265	0.666684
C40	C	-0.630571	0.097072	0.000016
C41	C	-0.297238	0.430405	0.333349
C42	C	0.036095	0.763739	0.666683
C43	C	-0.547440	0.095861	0.000015
C44	C	-0.214106	0.429194	0.333348
C45	C	0.119227	0.762527	0.666681
C46	C	-0.443134	0.094335	0.000015
C47	C	-0.109801	0.427668	0.333348
C48	C	0.223533	0.761001	0.666681
C49	C	-1.096259	-0.030508	0.000013
C50	C	-0.762926	0.302825	0.333346
C51	C	-0.429592	0.636159	0.666679
C52	C	-1.094756	-0.107617	0.000013
C53	C	-0.761423	0.225717	0.333346
C54	C	-0.428090	0.559050	0.666680
C55	C	-1.083958	-0.663223	-0.065981
C56	C	-0.750625	-0.329890	0.267353
C57	C	-0.417291	0.003443	0.600686
C58	C	-1.085360	-0.590771	-0.065985
C59	C	-0.752026	-0.257437	0.267349
C60	C	-0.418693	0.075896	0.600682
C61	C	-1.086075	-0.554539	0.000026
C62	C	-0.752742	-0.221206	0.333359
C63	C	-0.419408	0.112128	0.666693
C64	C	-1.085365	-0.590764	0.066045
C65	C	-0.752031	-0.257430	0.399379
C66	C	-0.418698	0.075903	0.732712
C67	C	-1.083953	-0.663214	0.066047
C68	C	-0.750620	-0.329881	0.399381
C69	C	-0.417287	0.003452	0.732714
C70	C	-1.142331	-0.445003	0.050598
C71	C	-0.808998	-0.111670	0.383931
C72	C	-0.475665	0.221663	0.717264
C73	C	-1.143748	-0.372555	0.050593
C74	C	-0.810415	-0.039221	0.383926
C75	C	-0.477081	0.294112	0.717259
C76	C	-1.090423	-0.331077	0.000022
C77	C	-0.757090	0.002257	0.333356
C78	C	-0.423756	0.335590	0.666689
C79	C	-1.035693	-0.362058	-0.050555
C80	C	-0.702360	-0.028724	0.282778
C81	C	-0.369026	0.304609	0.616111
C82	C	-1.034282	-0.434508	-0.050553
C83	C	-0.700949	-0.101175	0.282780
C84	C	-0.367615	0.232158	0.616113
C85	C	-1.087604	-0.475978	0.000031
C86	C	-0.754271	-0.142645	0.333364
C87	C	-0.420938	0.190688	0.666698
C88	C	-1.092647	-0.216298	-0.065997
C89	C	-0.759313	0.117035	0.267336
C90	C	-0.425980	0.450368	0.600670
C91	C	-1.094043	-0.143844	-0.065998
C92	C	-0.760709	0.189490	0.267335
C93	C	-0.427376	0.522823	0.600668
C94	C	-1.094057	-0.143839	0.066033
C95	C	-0.760724	0.189494	0.399367
C96	C	-0.427390	0.522828	0.732700
C97	C	-1.092652	-0.216291	0.066033
C98	C	-0.759318	0.117042	0.399366
C99	C	-0.425985	0.450375	0.732699
C100	C	-1.091951	-0.252517	0.000015
C101	C	-0.758618	0.080816	0.333349
C102	C	-0.425284	0.414149	0.666682
C103	C	-0.257632	0.091620	0.000018
C104	C	0.075702	0.424953	0.333351
C105	C	0.409035	0.758287	0.666685
C106	C	-0.360003	0.093123	0.000013
C107	C	-0.026669	0.426457	0.333347
C108	C	0.306664	0.759790	0.666680
C109	C	-1.081750	0.223451	0.000025
C110	C	-0.748417	0.556785	0.333359
C111	C	-0.415084	0.890118	0.666692
C112	C	-1.083253	0.300560	0.000030
C113	C	-0.749920	0.633893	0.333363
C114	C	-0.416586	0.967227	0.666697
N115	N	-1.088983	0.096477	-0.188650
N116	N	-0.755649	0.429810	0.144684
N117	N	-0.422316	0.763144	0.478017
C118	C	-1.144790	0.138679	-0.773196
C119	C	-0.811456	0.472012	-0.439863
C120	C	-0.478123	0.805345	-0.106530
C121	C	-1.144780	0.138685	-0.696968
C122	C	-0.811447	0.472019	-0.363635
C123	C	-0.478113	0.805352	-0.030302
C124	C	-1.089025	0.096462	-0.658861
C125	C	-0.755692	0.429795	-0.325528
C126	C	-0.422359	0.763128	0.007806
C127	C	-1.033258	0.054241	-0.696988
C128	C	-0.699925	0.387575	-0.363654
C129	C	-0.366592	0.720908	-0.030321
C130	C	-1.033263	0.054241	-0.773214
C131	C	-0.699929	0.387574	-0.439881
C132	C	-0.366596	0.720908	-0.106547
C133	C	-1.086730	0.033829	-0.538098
C134	C	-0.753396	0.367162	-0.204765
C135	C	-0.420063	0.700496	0.128568
C136	C	-1.086732	0.033828	-0.461873
C137	C	-0.753399	0.367161	-0.128540
C138	C	-0.420065	0.700495	0.204793
C139	C	-1.089007	0.096463	-0.423754
C140	C	-0.755674	0.429797	-0.090420
C141	C	-0.422340	0.763130	0.242913
C142	C	-1.091299	0.159101	-0.461868
C143	C	-0.757966	0.492434	-0.128535
C144	C	-0.424632	0.825768	0.204799
C145	C	-1.091303	0.159101	-0.538094
C146	C	-0.757970	0.492434	-0.204761
C147	C	-0.424636	0.825767	0.128572
C148	C	-1.089014	0.096458	-0.576206
C149	C	-0.755681	0.429791	-0.242873
C150	C	-0.422348	0.763124	0.090460
C151	C	-1.144755	0.138692	-0.302981
C152	C	-0.811422	0.472025	0.030352
C153	C	-0.478089	0.805359	0.363686
C154	C	-1.144739	0.138700	-0.226752
C155	C	-0.811406	0.472033	0.106581
C156	C	-0.478072	0.805367	0.439915
C157	C	-1.033223	0.054250	-0.226773
C158	C	-0.699890	0.387583	0.106561
C159	C	-0.366556	0.720916	0.439894
C160	C	-1.033234	0.054248	-0.303000
C161	C	-0.699900	0.387581	0.030333
C162	C	-0.366567	0.720915	0.363666
C163	C	-1.089005	0.096468	-0.341100
C164	C	-0.755672	0.429801	-0.007767
C165	C	-0.422338	0.763135	0.325567
N166	N	-1.089034	0.096461	0.188686
N167	N	-0.755700	0.429794	0.522020
N168	N	-0.422367	0.763128	0.855353
H169	H	-1.085917	-0.561276	-0.119740
H170	H	-0.752583	-0.227942	0.213593
H171	H	-0.419250	0.105391	0.546927
O172	O	-1.199856	-0.489734	0.105145
O173	O	-0.866523	-0.156401	0.438478
O174	O	-0.533189	0.176933	0.771811
H175	H	-1.153663	-0.518309	0.139296
H176	H	-0.820330	-0.184976	0.472629
H177	H	-0.486997	0.148358	0.805962
H178	H	-1.083386	-0.692714	-0.119737
H179	H	-0.750053	-0.359381	0.213596
H180	H	-0.416720	-0.026047	0.546930
H181	H	-0.987821	0.019874	-0.195746
H182	H	-0.654488	0.353208	0.137587
H183	H	-0.321154	0.686541	0.470920
O184	O	-0.975249	-0.467926	-0.105093
O185	O	-0.641916	-0.134593	0.228240
O186	O	-0.308582	0.198740	0.561573
H187	H	-0.938398	-0.426918	-0.140258
H188	H	-0.605064	-0.093584	0.193075
H189	H	-0.271731	0.239749	0.526409
H190	H	-1.092084	-0.245780	0.119786
H191	H	-0.758750	0.087553	0.453119
H192	H	-0.425417	0.420887	0.786453
H193	H	-1.190182	0.173067	-0.665927
H194	H	-0.856849	0.506400	-0.332594
H195	H	-0.523515	0.839734	0.000740
H196	H	-1.190163	0.173073	-0.334004
H197	H	-0.856830	0.506407	-0.000670
H198	H	-0.523496	0.839740	0.332663
O199	O	-1.202769	-0.339145	0.105149
O200	O	-0.869435	-0.005812	0.438482
O201	O	-0.536102	0.327521	0.771815
H202	H	-1.276543	-0.360255	0.097690
H203	H	-0.943209	-0.026922	0.431023
H204	H	-0.609876	0.306412	0.764357
H205	H	-0.992274	-0.328288	-0.091737
H206	H	-0.658940	0.005046	0.241597
H207	H	-0.325607	0.338379	0.574930
O208	O	-1.204873	0.184241	-0.185633
O209	O	-0.871540	0.517574	0.147700
O210	O	-0.538206	0.850907	0.481033
H211	H	-1.243657	0.213593	-0.224936
H212	H	-0.910323	0.546926	0.108397
H213	H	-0.576990	0.880260	0.441731
O214	O	-0.973133	0.008702	-0.814340
O215	O	-0.639800	0.342036	-0.481007
O216	O	-0.306467	0.675369	-0.147674
H217	H	-1.017511	-0.028544	-0.849065
H218	H	-0.684178	0.304789	-0.515731
H219	H	-0.350845	0.638122	-0.182398
H220	H	-1.085943	-0.561259	0.119791
H221	H	-0.752610	-0.227925	0.453125
H222	H	-0.419277	0.105408	0.786458
H223	H	-1.083378	-0.692701	0.119803
H224	H	-0.750045	-0.359368	0.453136
H225	H	-0.416711	-0.026035	0.786469
O226	O	-1.084256	-0.033729	-0.420772
O227	O	-0.750923	0.299604	-0.087438
O228	O	-0.417589	0.632937	0.245895
H229	H	-1.020326	-0.057050	-0.435412
H230	H	-0.686993	0.276284	-0.102078
H231	H	-0.353659	0.609617	0.231255
O232	O	-0.973113	0.008707	-0.344130
O233	O	-0.639780	0.342041	-0.010796
O234	O	-0.306447	0.675374	0.322537
H235	H	-1.017493	-0.028536	-0.378856
H236	H	-0.684160	0.304797	-0.045522
H237	H	-0.350827	0.638131	0.287811
H238	H	-1.093152	0.210105	-0.430832
H239	H	-0.759818	0.543438	-0.097499
H240	H	-0.426485	0.876771	0.235834
O241	O	-1.094799	-0.104781	-0.137202
O242	O	-0.761466	0.228552	0.196131
O243	O	-0.428132	0.561886	0.529465
H244	H	-1.095885	-0.048314	-0.126115
H245	H	-0.762552	0.285020	0.207219
H246	H	-0.429219	0.618353	0.540552
O247	O	-0.973122	0.008702	-0.655887
O248	O	-0.639789	0.342035	-0.322554
O249	O	-0.306455	0.675369	0.010780
H250	H	-0.934344	-0.020652	-0.695202
H251	H	-0.601011	0.312681	-0.361869
H252	H	-0.267678	0.646015	-0.028536
O253	O	-1.091874	-0.255377	-0.137196
O254	O	-0.758541	0.077956	0.196137
O255	O	-0.425208	0.411289	0.529471
H256	H	-1.092583	-0.218016	-0.183100
H257	H	-0.759250	0.115317	0.150233
H258	H	-0.425917	0.448650	0.483567
H259	H	-1.084869	-0.017179	-0.569129
H260	H	-0.751535	0.316154	-0.235796
H261	H	-0.418202	0.649488	0.097537
H262	H	-1.094628	-0.114339	0.119781
H263	H	-0.761295	0.218995	0.453114
H264	H	-0.427962	0.552328	0.786447
H265	H	-1.190201	0.173059	-0.804212
H266	H	-0.856868	0.506392	-0.470879
H267	H	-0.523534	0.839725	-0.137546
O268	O	-1.093770	0.226653	-0.579207
O269	O	-0.760437	0.559986	-0.245874
O270	O	-0.427103	0.893319	0.087460
H271	H	-1.095348	0.270211	-0.539900
H272	H	-0.762014	0.603544	-0.206567
H273	H	-0.428681	0.936878	0.126767
