data_functionalizedCrystal
_audit_creation_method	'MofGen! by Chris Wilmer'
_symmetry_space_group_name_H-M	'P1'
_symmetry_Int_Tables_number	1
_symmetry_cell_setting	triclinic
loop_
_symmetry_equiv_pos_as_xyz
  x,y,z
_cell_length_a	16.120530
_cell_length_b	16.120484
_cell_length_c	13.897441
_cell_angle_alpha	87.134365
_cell_angle_beta	92.919063
_cell_angle_gamma	90.167327
loop_
_atom_site_label
_atom_site_type_symbol
_atom_site_fract_x
_atom_site_fract_y
_atom_site_fract_z
Zn1	Zn	1.254496	-0.395574	0.642097
Zn2	Zn	1.754496	0.104426	1.142097
Zn3	Zn	1.247333	-0.534641	0.488526
Zn4	Zn	1.747333	-0.034641	0.988526
Zn5	Zn	1.115429	-0.388549	0.472252
Zn6	Zn	1.615429	0.111451	0.972252
Zn7	Zn	1.108348	-0.527527	0.641215
Zn8	Zn	1.608348	-0.027527	1.141215
O9	O	1.181401	-0.461573	0.561022
O10	O	1.681401	0.038427	1.061022
O11	O	1.369911	-0.419938	0.628906
O12	O	1.869911	0.080062	1.128906
O13	O	1.229802	-0.515300	0.351386
O14	O	1.729802	-0.015300	0.851386
O15	O	1.139838	-0.273118	0.488340
O16	O	1.639838	0.226882	0.988340
O17	O	1.364649	-0.522111	0.516078
O18	O	1.864649	-0.022111	1.016078
O19	O	1.242009	-0.278279	0.613125
O20	O	1.742009	0.221721	1.113125
O21	O	1.132893	-0.407967	0.339429
O22	O	1.632893	0.092033	0.839429
O23	O	0.998124	-0.401068	0.487485
O24	O	1.498124	0.098932	0.987485
O25	O	1.127768	-0.509985	0.776313
O26	O	1.627768	-0.009985	1.276313
O27	O	0.992921	-0.503174	0.611621
O28	O	1.492921	-0.003174	1.111621
O29	O	1.235142	-0.413040	0.776962
O30	O	1.735142	0.086960	1.276962
O31	O	1.222936	-0.650060	0.515222
O32	O	1.722936	-0.150060	1.015222
O33	O	1.120823	-0.644833	0.627402
O34	O	1.620823	-0.144833	1.127402
C35	C	0.965350	-0.450587	0.547692
C36	C	1.465350	0.049413	1.047692
C37	C	0.872922	-0.445908	0.542013
C38	C	1.372922	0.054092	1.042013
C39	C	0.703694	-0.437345	0.531652
C40	C	1.203694	0.062655	1.031652
C41	C	0.659946	-0.485862	0.590467
C42	C	1.159946	0.014138	1.090467
C43	C	0.565782	-0.481098	0.584702
C44	C	1.065782	0.018902	1.084702
C45	C	0.797867	-0.442108	0.537415
C46	C	1.297867	0.057892	1.037415
C47	C	1.170356	-0.677620	0.573005
C48	C	1.670356	-0.177620	1.073005
C49	C	1.165707	-0.770049	0.578168
C50	C	1.665707	-0.270049	1.078168
C51	C	1.157224	-0.939280	0.587614
C52	C	1.657224	-0.439280	1.087614
C53	C	1.205728	-0.983033	0.534456
C54	C	1.705728	-0.483033	1.034456
C55	C	1.201008	-1.077199	0.539712
C56	C	1.701008	-0.577199	1.039712
C57	C	1.161943	-0.845105	0.582359
C58	C	1.661943	-0.345105	1.082359
C59	C	1.398296	-0.472602	0.574406
C60	C	1.898296	0.027398	1.074406
C61	C	1.490724	-0.477302	0.580109
C62	C	1.990724	0.022698	1.080109
C63	C	1.181464	-0.461502	0.812615
C64	C	1.681464	0.038498	1.312615
C65	C	1.181491	-0.461472	0.919829
C66	C	1.681491	0.038528	1.419829
C67	C	1.192512	-0.244684	0.549016
C68	C	1.692512	0.255316	1.049016
C69	C	1.197247	-0.152258	0.543899
C70	C	1.697247	0.347742	1.043899
C71	C	1.181390	-0.461585	0.310408
C72	C	1.681390	0.038415	0.810408
C73	C	1.181536	-0.461389	0.203192
C74	C	1.681536	0.038611	0.703192
C75	C	1.181516	-0.461417	1.116122
C76	C	1.681516	0.038583	1.616122
C77	C	1.181500	-0.461450	1.006891
C78	C	1.681500	0.038550	1.506891
H79	H	0.670431	-0.392234	0.476972
H80	H	1.170431	0.107766	0.976972
Cl81	Cl	1.087642	-0.990631	0.663966
Cl82	Cl	1.587642	-0.490631	1.163966
Cl83	Cl	1.275309	-0.931682	0.458092
Cl84	Cl	1.775309	-0.431682	0.958092
H85	H	0.693212	-0.530976	0.645152
H86	H	1.193212	-0.030976	1.145152
