data_functionalizedCrystal
_audit_creation_method	'MofGen! by Chris Wilmer'
_symmetry_space_group_name_H-M	'P1'
_symmetry_Int_Tables_number	1
_symmetry_cell_setting	triclinic
loop_
_symmetry_equiv_pos_as_xyz
  x,y,z
_cell_length_a	19.805407
_cell_length_b	16.959447
_cell_length_c	19.805405
_cell_angle_alpha	90.031835
_cell_angle_beta	89.972273
_cell_angle_gamma	89.983607
loop_
_atom_site_label
_atom_site_type_symbol
_atom_site_fract_x
_atom_site_fract_y
_atom_site_fract_z
Zn1	Zn	1.034708	-0.446944	0.269450
Zn2	Zn	1.534708	0.053056	0.769450
Zn3	Zn	1.034627	-0.314762	0.382647
Zn4	Zn	1.534627	0.185238	0.882647
Zn5	Zn	0.921529	-0.314777	0.269477
Zn6	Zn	1.421529	0.185223	0.769477
Zn7	Zn	0.921484	-0.446896	0.382602
Zn8	Zn	1.421484	0.053104	0.882602
O9	O	0.978087	-0.380845	0.326044
O10	O	1.478087	0.119155	0.826044
O11	O	1.129414	-0.429424	0.284473
O12	O	1.629414	0.070576	0.784473
O13	O	1.019609	-0.204153	0.367665
O14	O	1.519609	0.295847	0.867665
O15	O	0.936596	-0.332335	0.174757
O16	O	1.436596	0.167665	0.674757
O17	O	1.129354	-0.332310	0.367638
O18	O	1.629354	0.167690	0.867638
O19	O	1.019748	-0.429438	0.174737
O20	O	1.519748	0.070562	0.674737
O21	O	0.936517	-0.204164	0.284519
O22	O	1.436517	0.295836	0.784519
O23	O	0.826807	-0.332289	0.284476
O24	O	1.326807	0.167711	0.784476
O25	O	0.936518	-0.557513	0.367562
O26	O	1.436518	-0.057513	0.867562
O27	O	0.826773	-0.429356	0.367589
O28	O	1.326773	0.070644	0.867589
O29	O	1.019704	-0.557549	0.284430
O30	O	1.519704	-0.057549	0.784430
O31	O	1.019565	-0.332263	0.477357
O32	O	1.519565	0.167737	0.977357
O33	O	0.936439	-0.429342	0.477325
O34	O	1.436439	0.070658	0.977325
C35	C	0.802231	-0.380819	0.326031
C36	C	1.302231	0.119181	0.826031
C37	C	0.726999	-0.380827	0.326042
C38	C	1.226999	0.119173	0.826042
C39	C	0.691655	-0.431288	0.369384
C40	C	1.191655	0.068712	0.869384
C41	C	0.620967	-0.431299	0.369385
C42	C	1.120967	0.068701	0.869385
C43	C	0.585623	-0.380845	0.326047
C44	C	1.085623	0.119155	0.826047
C45	C	0.620972	-0.330381	0.282700
C46	C	1.120972	0.169619	0.782700
C47	C	0.691659	-0.330375	0.282696
C48	C	1.191659	0.169625	0.782696
C49	C	0.335899	-0.330407	0.282715
C50	C	0.835899	0.169593	0.782715
C51	C	0.265207	-0.330416	0.282724
C52	C	0.765207	0.169584	0.782724
C53	C	0.265206	-0.431332	0.369404
C54	C	0.765206	0.068668	0.869404
C55	C	0.335893	-0.431325	0.369400
C56	C	0.835893	0.068675	0.869400
C57	C	0.371236	-0.380865	0.326051
C58	C	0.871236	0.119135	0.826051
C59	C	0.447884	-0.380855	0.326049
C60	C	0.947884	0.119145	0.826049
C61	C	0.508976	-0.380850	0.326052
C62	C	1.008976	0.119150	0.826052
C63	C	0.978115	-0.587013	0.325988
C64	C	1.478115	-0.087013	0.825988
C65	C	0.978127	-0.674870	0.325964
C66	C	1.478127	-0.174870	0.825964
C67	C	0.934897	-1.046329	0.369176
C68	C	1.434897	-0.546329	0.869176
C69	C	1.021519	-1.046361	0.282609
C70	C	1.521519	-0.546361	0.782609
C71	C	1.021501	-0.963816	0.282624
C72	C	1.521501	-0.463816	0.782624
C73	C	0.978181	-0.922523	0.325916
C74	C	1.478181	-0.422523	0.825916
C75	C	0.934879	-0.963776	0.369193
C76	C	1.434879	-0.463776	0.869193
C77	C	1.064807	-0.922556	0.239352
C78	C	1.564807	-0.422556	0.739352
C79	C	1.064791	-0.840005	0.239365
C80	C	1.564791	-0.340005	0.739365
C81	C	1.021467	-0.798711	0.282654
C82	C	1.521467	-0.298711	0.782654
C83	C	0.978163	-0.839969	0.325933
C84	C	1.478163	-0.339969	0.825933
C85	C	0.934843	-0.798676	0.369224
C86	C	1.434843	-0.298676	0.869224
C87	C	0.891535	-0.839933	0.412500
C88	C	1.391535	-0.339933	0.912500
C89	C	0.891555	-0.922482	0.412482
C90	C	1.391555	-0.422482	0.912482
C91	C	1.021447	-0.716162	0.282672
C92	C	1.521447	-0.216162	0.782672
C93	C	0.934825	-0.716123	0.369242
C94	C	1.434825	-0.216123	0.869242
C95	C	1.154630	-0.380871	0.326057
C96	C	1.654630	0.119129	0.826057
C97	C	1.229862	-0.380882	0.326063
C98	C	1.729862	0.119118	0.826063
C99	C	0.978007	-0.380813	0.501900
C100	C	1.478007	0.119187	1.001900
C101	C	0.978034	-0.380826	0.577132
C102	C	1.478034	0.119174	1.077132
C103	C	0.978098	-0.175478	0.326051
C104	C	1.478098	0.324522	0.826051
C105	C	0.978217	-0.087622	0.325884
C106	C	1.478217	0.412378	0.825884
C107	C	1.021359	-0.330331	0.612471
C108	C	1.521359	0.169669	1.112471
C109	C	1.021386	-0.330352	0.683159
C110	C	1.521386	0.169648	1.183159
C111	C	0.978085	-0.380863	0.718508
C112	C	1.478085	0.119137	1.218508
C113	C	0.934758	-0.431362	0.683164
C114	C	1.434758	0.068638	1.183164
C115	C	0.934735	-0.431346	0.612477
C116	C	1.434735	0.068654	1.112477
C117	C	0.934851	-0.431432	0.968237
C118	C	1.434851	0.068568	1.468237
C119	C	0.934876	-0.431443	1.038929
C120	C	1.434876	0.068557	1.538929
C121	C	1.021503	-0.330437	1.038920
C122	C	1.521503	0.169563	1.538920
C123	C	1.021480	-0.330421	0.968232
C124	C	1.521480	0.169579	1.468232
C125	C	0.978156	-0.380923	0.932895
C126	C	1.478156	0.119077	1.432895
C127	C	0.978128	-0.380902	0.856246
C128	C	1.478128	0.119098	1.356246
C129	C	0.978109	-0.380880	0.795155
C130	C	1.478109	0.119120	1.295155
C131	C	0.978180	-0.380903	1.149501
C132	C	1.478180	0.119097	1.649501
C133	C	0.978205	-0.380952	1.074269
C134	C	1.478205	0.119048	1.574269
H135	H	0.720435	-0.289288	0.247399
H136	H	1.220435	0.210712	0.747399
H137	H	1.056737	-0.289287	0.939454
H138	H	1.556737	0.210713	1.439454
C139	C	0.374767	-0.274895	0.235035
C140	C	0.874767	0.225105	0.735035
N141	N	0.404044	-0.233079	0.199120
N142	N	0.904044	0.266921	0.699120
C143	C	0.887228	-0.487026	0.929375
C144	C	1.387228	0.012974	1.429375
N145	N	0.851369	-0.528918	0.900102
N146	N	1.351369	-0.028918	1.400102
H147	H	0.364667	-0.472408	0.404692
H148	H	0.864667	0.027592	0.904692
H149	H	1.056782	-0.289319	1.067700
H150	H	1.556782	0.210681	1.567700
H151	H	0.236422	-0.472422	0.404698
H152	H	0.736422	0.027578	0.904698
H153	H	0.592190	-0.289304	0.247411
H154	H	1.092190	0.210696	0.747411
C155	C	0.730526	-0.486793	0.417060
C156	C	1.230526	0.013207	0.917060
N157	N	0.759802	-0.528603	0.452969
N158	N	1.259802	-0.028603	0.952969
H159	H	0.236432	-0.289330	0.247429
H160	H	0.736432	0.210670	0.747429
H161	H	1.100055	-0.806421	0.204127
H162	H	1.600055	-0.306421	0.704127
H163	H	0.592193	-0.472389	0.404679
H164	H	1.092193	0.027611	0.904679
C165	C	0.887168	-0.670707	0.416866
C166	C	1.387168	-0.170707	0.916866
N167	N	0.851272	-0.636501	0.452737
N168	N	1.351272	-0.136501	0.952737
C169	C	0.887075	-0.486894	0.573605
C170	C	1.387075	0.013106	1.073605
N171	N	0.851177	-0.528737	0.544327
N172	N	1.351177	-0.028737	1.044327
C173	C	0.843885	-0.794500	0.460120
C174	C	1.343885	-0.294500	0.960120
N175	N	0.807995	-0.760277	0.495985
N176	N	1.307995	-0.260277	0.995985
H177	H	0.856298	-0.956080	0.447717
H178	H	1.356298	-0.456080	0.947717
C179	C	0.887243	-0.487016	1.077811
C180	C	1.387243	0.012984	1.577811
N181	N	0.851367	-0.528871	1.107097
N182	N	1.351367	-0.028871	1.607097
H183	H	0.899635	-1.079924	0.404408
H184	H	1.399635	-0.579924	0.904408
H185	H	1.056792	-1.079987	0.247367
H186	H	1.556792	-0.579987	0.747367
H187	H	1.100080	-0.956183	0.204110
H188	H	1.600080	-0.456183	0.704110
C189	C	1.069084	-0.670784	0.235073
C190	C	1.569084	-0.170784	0.735073
N191	N	1.104965	-0.636606	0.199216
N192	N	1.604965	-0.136606	0.699216
H193	H	1.056617	-0.289196	0.583695
H194	H	1.556617	0.210804	1.083695
C195	C	1.069043	-0.274799	0.722029
C196	C	1.569043	0.225201	1.222029
N197	N	1.104939	-0.232952	0.751305
N198	N	1.604939	0.267048	1.251305
H199	H	0.899504	-0.472493	0.711950
H200	H	1.399504	0.027507	1.211950
