data_functionalizedCrystal
_audit_creation_method	'MofGen! by Chris Wilmer'
_symmetry_space_group_name_H-M	'P1'
_symmetry_Int_Tables_number	1
_symmetry_cell_setting	triclinic
loop_
_symmetry_equiv_pos_as_xyz
  x,y,z
_cell_length_a	16.956995
_cell_length_b	13.101039
_cell_length_c	16.992695
_cell_angle_alpha	86.408978
_cell_angle_beta	83.361347
_cell_angle_gamma	93.108940
loop_
_atom_site_label
_atom_site_type_symbol
_atom_site_fract_x
_atom_site_fract_y
_atom_site_fract_z
O1	O	1.064197	0.085286	0.027767
O2	O	1.314197	0.335286	0.277767
O3	O	1.564197	0.585286	0.527767
O4	O	1.814197	0.835286	0.777767
O5	O	0.833786	0.085273	0.055181
O6	O	1.083786	0.335273	0.305181
O7	O	1.333786	0.585273	0.555181
O8	O	1.583786	0.835273	0.805181
O9	O	0.948067	0.085271	-0.072609
O10	O	1.198067	0.335271	0.177391
O11	O	1.448067	0.585271	0.427391
O12	O	1.698067	0.835271	0.677391
O13	O	0.949915	0.085287	0.155556
O14	O	1.199915	0.335287	0.405556
O15	O	1.449915	0.585287	0.655556
O16	O	1.699915	0.835287	0.905556
O17	O	0.939868	-0.085159	-0.063426
O18	O	1.189868	0.164841	0.186574
O19	O	1.439868	0.414841	0.436574
O20	O	1.689868	0.664841	0.686574
O21	O	0.825587	-0.085157	0.064364
O22	O	1.075587	0.164843	0.314364
O23	O	1.325587	0.414843	0.564364
O24	O	1.575587	0.664843	0.814364
O25	O	1.055998	-0.085144	0.036950
O26	O	1.305998	0.164856	0.286950
O27	O	1.555998	0.414856	0.536950
O28	O	1.805998	0.664856	0.786950
Zn29	Zn	0.939491	-0.112210	0.052115
Zn30	Zn	1.189491	0.137790	0.302115
Zn31	Zn	1.439491	0.387790	0.552115
Zn32	Zn	1.689491	0.637790	0.802115
Zn33	Zn	0.950293	0.112339	0.040016
Zn34	Zn	1.200293	0.362339	0.290016
Zn35	Zn	1.450293	0.612339	0.540016
Zn36	Zn	1.700293	0.862339	0.790016
O37	O	0.941717	-0.085142	0.164739
O38	O	1.191717	0.164858	0.414739
O39	O	1.441717	0.414858	0.664739
O40	O	1.691717	0.664858	0.914739
C41	C	0.800068	0.000056	0.061176
C42	C	1.050068	0.250056	0.311176
C43	C	1.300068	0.500056	0.561176
C44	C	1.550068	0.750056	0.811176
C45	C	0.711813	0.000051	0.065349
C46	C	0.961813	0.250051	0.315349
C47	C	1.211813	0.500051	0.565349
C48	C	1.461813	0.750051	0.815349
C49	C	0.214504	0.000091	0.096565
C50	C	0.464504	0.250091	0.346565
C51	C	0.714504	0.500091	0.596565
C52	C	0.964504	0.750091	0.846565
C53	C	0.297429	0.000090	0.092638
C54	C	0.547429	0.250090	0.342638
C55	C	0.797429	0.500090	0.592638
C56	C	1.047429	0.750090	0.842638
C57	C	0.343819	0.000077	0.018926
C58	C	0.593819	0.250077	0.268926
C59	C	0.843819	0.500077	0.518926
C60	C	1.093819	0.750077	0.768926
C61	C	0.307281	0.000076	-0.050864
C62	C	0.557281	0.250076	0.199136
C63	C	0.807281	0.500076	0.449136
C64	C	1.057281	0.750076	0.699136
C65	C	0.224358	0.000084	-0.046936
C66	C	0.474358	0.250084	0.203064
C67	C	0.724358	0.500084	0.453064
C68	C	0.974358	0.750084	0.703064
C69	C	0.592352	0.000058	-0.000513
C70	C	0.842352	0.250058	0.249487
C71	C	1.092352	0.500058	0.499487
C72	C	1.342352	0.750058	0.749487
C73	C	0.675280	0.000046	-0.004435
C74	C	0.925280	0.250046	0.245565
C75	C	1.175280	0.500046	0.495565
C76	C	1.425280	0.750046	0.745565
C77	C	0.665422	0.000063	0.139067
C78	C	0.915422	0.250063	0.389067
C79	C	1.165422	0.500063	0.639067
C80	C	1.415422	0.750063	0.889067
C81	C	0.582498	0.000065	0.142988
C82	C	0.832498	0.250065	0.392988
C83	C	1.082498	0.500065	0.642988
C84	C	1.332498	0.750065	0.892988
C85	C	0.545967	0.000069	0.073198
C86	C	0.795967	0.250069	0.323198
C87	C	1.045967	0.500069	0.573198
C88	C	1.295967	0.750069	0.823198
N89	N	0.428582	0.000073	0.014911
N90	N	0.678582	0.250073	0.264911
N91	N	0.928582	0.500073	0.514911
N92	N	1.178582	0.750073	0.764911
N93	N	0.461206	0.000081	0.077214
N94	N	0.711206	0.250081	0.327214
N95	N	0.961206	0.500081	0.577214
N96	N	1.211206	0.750081	0.827214
N97	N	0.932124	-0.265458	0.060371
N98	N	1.182124	-0.015458	0.310371
N99	N	1.432124	0.234542	0.560371
N100	N	1.682124	0.484542	0.810371
C101	C	0.922103	-0.474501	0.071611
C102	C	1.172103	-0.224501	0.321611
C103	C	1.422103	0.025499	0.571611
C104	C	1.672103	0.275499	0.821611
C105	C	0.967685	-0.525377	0.020515
C106	C	1.217685	-0.275377	0.270515
C107	C	1.467685	-0.025377	0.520515
C108	C	1.717685	0.224623	0.770515
C109	C	0.962108	-0.641695	0.026769
C110	C	1.212108	-0.391695	0.276769
C111	C	1.462108	-0.141695	0.526769
C112	C	1.712108	0.108305	0.776769
C113	C	0.927678	-0.358172	0.065358
C114	C	1.177678	-0.108172	0.315358
C115	C	1.427678	0.141828	0.565358
C116	C	1.677678	0.391828	0.815358
C117	C	1.089716	0.000075	0.030954
C118	C	1.339716	0.250075	0.280954
C119	C	1.589716	0.500075	0.530954
C120	C	1.839716	0.750075	0.780954
C121	C	1.177971	0.000087	0.026781
C122	C	1.427971	0.250087	0.276781
C123	C	1.677971	0.500087	0.526781
C124	C	1.927971	0.750087	0.776781
C125	C	0.941591	0.000056	-0.097076
C126	C	1.191591	0.250056	0.152924
C127	C	1.441591	0.500056	0.402924
C128	C	1.691591	0.750056	0.652924
C129	C	0.934501	0.000056	-0.183660
C130	C	1.184501	0.250056	0.066340
C131	C	1.434501	0.500056	0.316340
C132	C	1.684501	0.750056	0.566340
N133	N	0.957665	0.265587	0.031753
N134	N	1.207665	0.515587	0.281753
N135	N	1.457665	0.765587	0.531753
N136	N	1.707665	1.015587	0.781753
C137	C	1.002916	0.000059	-0.238335
C138	C	1.252916	0.250059	0.011665
C139	C	1.502916	0.500059	0.261665
C140	C	1.752916	0.750059	0.511665
C141	C	0.996249	0.000068	-0.319690
C142	C	1.246249	0.250068	-0.069690
C143	C	1.496249	0.500068	0.180310
C144	C	1.746249	0.750068	0.430310
C145	C	0.921166	0.000067	-0.346368
C146	C	1.171166	0.250067	-0.096368
C147	C	1.421166	0.500067	0.153632
C148	C	1.671166	0.750067	0.403632
C149	C	0.852746	0.000068	-0.291687
C150	C	1.102746	0.250068	-0.041687
C151	C	1.352746	0.500068	0.208313
C152	C	1.602746	0.750068	0.458313
C153	C	0.859414	0.000066	-0.210334
C154	C	1.109414	0.250066	0.039666
C155	C	1.359414	0.500066	0.289666
C156	C	1.609414	0.750066	0.539666
C157	C	0.893531	0.000080	-0.588176
C158	C	1.143531	0.250080	-0.338176
C159	C	1.393531	0.500080	-0.088176
C160	C	1.643531	0.750080	0.161824
C161	C	0.886869	0.000079	-0.669535
C162	C	1.136869	0.250079	-0.419535
C163	C	1.386869	0.500079	-0.169535
C164	C	1.636869	0.750079	0.080465
C165	C	1.030372	0.000081	-0.697533
C166	C	1.280372	0.250081	-0.447533
C167	C	1.530372	0.500081	-0.197533
C168	C	1.780372	0.750081	0.052467
C169	C	1.037033	0.000073	-0.616176
C170	C	1.287033	0.250073	-0.366176
C171	C	1.537033	0.500073	-0.116176
C172	C	1.787033	0.750073	0.133824
C173	C	0.968613	0.000079	-0.561503
C174	C	1.218613	0.250079	-0.311503
C175	C	1.468613	0.500079	-0.061503
C176	C	1.718613	0.750079	0.188497
N177	N	0.914350	0.000074	-0.429526
N178	N	1.164350	0.250074	-0.179526
N179	N	1.414350	0.500074	0.070474
N180	N	1.664350	0.750074	0.320474
N181	N	0.975431	0.000080	-0.478347
N182	N	1.225431	0.250080	-0.228347
N183	N	1.475431	0.500080	0.021653
N184	N	1.725431	0.750080	0.271653
C185	C	0.948193	0.000075	0.189206
C186	C	1.198193	0.250075	0.439206
C187	C	1.448193	0.500075	0.689206
C188	C	1.698193	0.750075	0.939206
C189	C	0.955284	0.000082	0.275790
C190	C	1.205284	0.250082	0.525790
C191	C	1.455284	0.500082	0.775790
C192	C	1.705284	0.750082	1.025790
H193	H	0.544732	0.000079	0.203013
H194	H	0.794732	0.250079	0.453013
H195	H	1.044732	0.500079	0.703013
H196	H	1.294732	0.750079	0.953013
Br197	Br	0.766562	0.000070	-0.136131
Br198	Br	1.016562	0.250070	0.113869
Br199	Br	1.266562	0.500070	0.363869
Br200	Br	1.516562	0.750070	0.613869
Br201	Br	1.040064	-0.452379	-0.059917
Br202	Br	1.290064	-0.202379	0.190083
Br203	Br	1.540064	0.047621	0.440083
Br204	Br	1.790064	0.297621	0.690083
H205	H	1.064056	0.000053	-0.216620
H206	H	1.314056	0.250053	0.033380
H207	H	1.564056	0.500053	0.283380
H208	H	1.814056	0.750053	0.533380
Br209	Br	0.750848	0.000084	-0.327893
Br210	Br	1.000848	0.250084	-0.077893
Br211	Br	1.250848	0.500084	0.172107
Br212	Br	1.500848	0.750084	0.422107
H213	H	0.837819	0.000084	-0.543669
H214	H	1.087819	0.250084	-0.293669
H215	H	1.337819	0.500084	-0.043669
H216	H	1.587819	0.750084	0.206331
H217	H	0.878894	-0.518297	0.120050
H218	H	1.128894	-0.268297	0.370050
H219	H	1.378894	-0.018297	0.620050
H220	H	1.628894	0.231703	0.870050
H221	H	0.345059	0.000071	-0.110882
H222	H	0.595059	0.250071	0.139118
H223	H	0.845059	0.500071	0.389118
H224	H	1.095059	0.750071	0.639118
H225	H	1.086075	0.000079	-0.742056
H226	H	1.336075	0.250079	-0.492056
H227	H	1.586075	0.500079	-0.242056
H228	H	1.836075	0.750079	0.007944
Br229	Br	0.542786	0.000093	-0.095231
Br230	Br	0.792786	0.250093	0.154769
Br231	Br	1.042786	0.500093	0.404769
Br232	Br	1.292786	0.750093	0.654769
H233	H	1.051960	0.000068	-0.364204
H234	H	1.301960	0.250068	-0.114204
H235	H	1.551960	0.500068	0.135796
H236	H	1.801960	0.750068	0.385796
Br237	Br	0.784963	0.000067	-0.705740
Br238	Br	1.034963	0.250067	-0.455740
Br239	Br	1.284963	0.500067	-0.205740
Br240	Br	1.534963	0.750067	0.044260
H241	H	0.327170	0.000104	0.149464
H242	H	0.577170	0.250104	0.399464
H243	H	0.827170	0.500104	0.649464
H244	H	1.077170	0.750104	0.899464
H245	H	0.695175	0.000061	0.195887
H246	H	0.945175	0.250061	0.445887
H247	H	1.195175	0.500061	0.695887
H248	H	1.445175	0.750061	0.945887
H249	H	1.098173	0.000074	-0.594462
H250	H	1.348173	0.250074	-0.344462
H251	H	1.598173	0.500074	-0.094462
H252	H	1.848173	0.750074	0.155538
H253	H	0.176738	0.000094	0.156590
H254	H	0.426738	0.250094	0.406590
H255	H	0.676738	0.500094	0.656590
H256	H	0.926738	0.750094	0.906590
H257	H	0.194615	0.000082	-0.103763
H258	H	0.444615	0.250082	0.146237
H259	H	0.694615	0.500082	0.396237
H260	H	0.944615	0.750082	0.646237
H261	H	0.713050	0.000041	-0.064464
H262	H	0.963050	0.250041	0.185536
H263	H	1.213050	0.500041	0.435536
H264	H	1.463050	0.750041	0.685536
