data_functionalizedCrystal
_audit_creation_method	'MofGen! by Chris Wilmer'
_symmetry_space_group_name_H-M	'P1'
_symmetry_Int_Tables_number	1
_symmetry_cell_setting	triclinic
loop_
_symmetry_equiv_pos_as_xyz
  x,y,z
_cell_length_a	15.297327
_cell_length_b	14.908571
_cell_length_c	14.908308
_cell_angle_alpha	89.824947
_cell_angle_beta	102.308214
_cell_angle_gamma	83.008605
loop_
_atom_site_label
_atom_site_type_symbol
_atom_site_fract_x
_atom_site_fract_y
_atom_site_fract_z
Zn1	Zn	-0.470251	-1.259455	-0.663960
Zn2	Zn	-0.612780	-1.242018	-0.536750
Zn3	Zn	-0.452943	-1.120930	-0.502147
Zn4	Zn	-0.611710	-1.083241	-0.678228
O5	O	-0.536921	-1.176411	-0.595271
O6	O	-0.496849	-1.381564	-0.655596
O7	O	-0.584782	-1.234431	-0.405232
O8	O	-0.329146	-1.162376	-0.503159
O9	O	-0.601565	-1.368753	-0.562136
O10	O	-0.341862	-1.264150	-0.622043
O11	O	-0.467350	-1.145468	-0.379809
O12	O	-0.466312	-0.991508	-0.516994
O13	O	-0.599740	-1.098141	-0.803264
O14	O	-0.582958	-0.963819	-0.646360
O15	O	-0.495811	-1.227605	-0.792781
O16	O	-0.738732	-1.197885	-0.575970
O17	O	-0.737945	-1.081233	-0.679913
C18	C	-0.771036	-1.133600	-0.633267
C19	C	-0.871198	-1.115365	-0.649557
C20	C	-0.522641	-0.945402	-0.579471
C21	C	-0.516555	-0.846570	-0.572737
C22	C	-0.549587	-1.160614	-0.831854
C23	C	-0.554984	-1.153882	-0.932671
C24	C	-1.155071	-1.307088	-0.479176
C25	C	-1.060963	-1.324221	-0.463866
C26	C	-1.013517	-1.272009	-0.510288
C27	C	-1.060188	-1.202660	-0.572022
C28	C	-1.154304	-1.185521	-0.587328
C29	C	-1.012750	-1.150441	-0.618439
C30	C	-1.059421	-1.081092	-0.680173
C31	C	-1.153528	-1.063957	-0.695477
C32	C	-1.200974	-1.116169	-0.649056
C33	C	-0.918634	-1.167580	-0.603133
C34	C	-0.917868	-1.046013	-0.711285
C35	C	-1.011975	-1.028880	-0.726595
C36	C	-0.301895	-1.219412	-0.557150
C37	C	-0.201741	-1.237736	-0.540904
C38	C	-0.551257	-1.408322	-0.611134
C39	C	-0.557366	-1.507148	-0.617894
C40	C	-0.626752	-0.632047	-0.694664
C41	C	-0.621037	-0.539185	-0.688340
C42	C	-0.499405	-0.567982	-0.553769
C43	C	-0.505121	-0.660844	-0.560093
C44	C	-0.568797	-0.692873	-0.630542
C45	C	-0.574516	-0.785736	-0.636861
C46	C	-0.452881	-0.814532	-0.502295
C47	C	-0.447166	-0.721670	-0.495971
C48	C	-0.456884	-1.276044	-1.111201
C49	C	-0.461953	-1.269722	-1.205927
C50	C	-0.570184	-1.134914	-1.216852
C51	C	-0.565116	-1.141235	-1.122125
C52	C	-0.508465	-1.211804	-1.069303
C53	C	-0.503402	-1.218128	-0.974576
C54	C	-0.611628	-1.083317	-0.985501
C55	C	-0.616697	-1.076995	-1.080227
C56	C	-0.524243	-1.192210	-0.359602
C57	C	-0.518602	-1.199160	-0.258756
H58	H	-0.880644	-1.224045	-0.552868
H59	H	-1.193709	-1.349587	-0.441381
H60	H	-0.662818	-1.019539	-1.123247
H61	H	-0.936891	-1.285962	-0.497817
H62	H	-0.668228	-0.489663	-0.740556
C63	C	-1.341744	-1.108486	-0.758830
C64	C	-1.304423	-1.097347	-0.665888
H65	H	-1.405609	-1.096876	-0.769217
H66	H	-1.320178	-1.067457	-0.795299
H67	H	-1.324764	-1.168688	-0.775000
H68	H	-1.321397	-1.037143	-0.649719
H69	H	-1.325997	-1.138378	-0.629407
H70	H	-0.410762	-1.333507	-1.068193
C71	C	-0.721645	-1.061733	-1.267836
C72	C	-0.632443	-1.057347	-1.274927
H73	H	-0.760077	-1.013842	-1.303687
H74	H	-0.739347	-1.118018	-1.289587
H75	H	-0.726009	-1.056298	-1.205424
H76	H	-0.628078	-1.062789	-1.337338
H77	H	-0.614736	-1.001048	-1.253181
C78	C	-0.651922	-1.033145	-0.845145
C79	C	-0.668330	-1.012697	-0.939445
H80	H	-0.686925	-0.989546	-0.816714
H81	H	-0.667969	-1.091503	-0.835852
H82	H	-0.589743	-1.032239	-0.818915
H83	H	-0.730508	-1.013609	-0.965677
H84	H	-0.652289	-0.954324	-0.948744
H85	H	-1.022967	-1.380683	-0.413602
C86	C	-0.473698	-0.473945	-0.422634
C87	C	-0.429397	-0.532750	-0.476367
H88	H	-0.430471	-0.452195	-0.374855
H89	H	-0.507406	-0.424448	-0.459925
H90	H	-0.513252	-0.505320	-0.396669
H91	H	-0.389847	-0.501374	-0.502338
H92	H	-0.395674	-0.582256	-0.439070
C93	C	-1.143315	-0.945516	-0.800848
C94	C	-1.204829	-0.987724	-0.763331
H95	H	-1.174988	-0.898458	-0.842741
H96	H	-1.102439	-0.920854	-0.753016
H97	H	-1.110812	-0.988613	-0.832243
H98	H	-1.237328	-0.944629	-0.731929
H99	H	-1.245722	-1.012386	-0.811170
C100	C	-0.817771	-1.044698	-0.815226
C101	C	-0.865727	-0.988617	-0.762322
H102	H	-0.785582	-1.009263	-0.846734
H103	H	-0.776512	-1.088444	-0.776274
H104	H	-0.858700	-1.074408	-0.858562
H105	H	-0.824797	-0.958912	-0.718981
H106	H	-0.906990	-0.944854	-0.801278
C107	C	-0.694159	-0.747942	-0.769251
C108	C	-0.644503	-0.820946	-0.714301
H109	H	-0.737360	-0.769680	-0.817064
H110	H	-0.724222	-0.708071	-0.732798
H111	H	-0.654568	-0.716574	-0.795169
H112	H	-0.684092	-0.852310	-0.688377
H113	H	-0.614438	-0.860832	-0.750760
H114	H	-1.049987	-0.972416	-0.776859
H115	H	-0.405692	-0.864067	-0.450081
H116	H	-0.457275	-1.275590	-0.931569
H117	H	-0.678604	-0.658124	-0.752022
C118	C	-0.421504	-0.627671	-0.364811
C119	C	-0.377176	-0.686457	-0.418537
H120	H	-0.378293	-0.605939	-0.317003
H121	H	-0.455192	-0.578161	-0.402096
H122	H	-0.461079	-0.659054	-0.338885
H123	H	-0.337605	-0.655073	-0.444469
H124	H	-0.343472	-0.735976	-0.381247
C125	C	-0.354468	-1.403612	-1.185611
C126	C	-0.405258	-1.340340	-1.251983
H127	H	-0.319470	-1.447212	-1.214047
H128	H	-0.315632	-1.373642	-1.140428
H129	H	-0.393861	-1.432903	-1.157357
H130	H	-0.365865	-1.311045	-1.280232
H131	H	-0.444097	-1.370313	-1.297182
