data_functionalizedCrystal
_audit_creation_method	'MofGen! by Chris Wilmer'
_symmetry_space_group_name_H-M	'P1'
_symmetry_Int_Tables_number	1
_symmetry_cell_setting	triclinic
loop_
_symmetry_equiv_pos_as_xyz
  x,y,z
_cell_length_a	10.654550
_cell_length_b	9.616153
_cell_length_c	10.654551
_cell_angle_alpha	90.001368
_cell_angle_beta	84.485132
_cell_angle_gamma	89.987758
loop_
_atom_site_label
_atom_site_type_symbol
_atom_site_fract_x
_atom_site_fract_y
_atom_site_fract_z
O1	O	1.667850	-0.115751	0.176392
O2	O	1.302372	-0.115727	0.193198
O3	O	1.493513	-0.115740	0.002056
O4	O	1.476709	-0.115738	0.367534
O5	O	1.493480	0.115551	0.002063
O6	O	1.302338	0.115564	0.193205
O7	O	1.667817	0.115541	0.176399
Zn8	Zn	1.485072	0.152275	0.184803
Zn9	Zn	1.485116	-0.152461	0.184794
O10	O	1.476675	0.115554	0.367541
C11	C	1.255557	-0.000079	0.191968
C12	C	1.116114	-0.000070	0.188276
C13	C	1.036629	-0.000090	0.300817
C14	C	0.905608	-0.000114	0.297341
C15	C	0.933570	-0.000105	0.068771
C16	C	1.064589	-0.000071	0.072249
C17	C	1.088154	-0.000089	0.416844
C18	C	1.008667	-0.000110	0.529395
C19	C	0.877647	-0.000135	0.525918
C20	C	0.826112	-0.000138	0.409891
N21	N	1.485052	0.360249	0.184809
C22	C	1.382485	0.580626	0.286718
C23	C	1.382715	0.419459	0.287097
C24	C	1.616347	0.418691	0.214576
C25	C	1.615783	0.579909	0.215300
C26	C	1.457615	0.580162	0.052807
C27	C	1.454606	0.418936	0.053662
C28	C	1.714632	-0.000111	0.177629
C29	C	1.854075	-0.000128	0.181321
C30	C	1.492263	-0.000098	-0.044739
C31	C	1.488570	-0.000107	-0.184182
N32	N	1.485117	0.639564	0.184793
C33	C	1.486856	-0.126181	-0.249698
C34	C	1.483376	-0.126174	-0.380718
C35	C	1.483329	0.125992	-0.380695
C36	C	1.486800	0.125984	-0.249676
C37	C	1.488626	-0.252272	-0.184203
C38	C	1.486913	-0.378357	-0.249719
C39	C	1.483433	-0.378350	-0.380740
C40	C	1.481665	-0.252259	-0.446244
C41	C	1.477926	-0.000092	0.414336
C42	C	1.481619	-0.000092	0.553779
H43	H	1.129308	-0.000058	-0.019392
H44	H	1.478813	-0.252263	-0.552927
Br45	Br	1.746755	0.354773	0.094214
Br46	Br	1.480930	0.297104	-0.469593
H47	H	1.050636	-0.000096	0.623860
Br48	Br	1.657357	0.351372	0.373250
Br49	Br	1.220089	0.353600	0.257344
Br50	Br	1.489130	0.297088	-0.160754
Br51	Br	1.493361	-0.252288	-0.006392
Br52	Br	1.293618	0.355282	0.016049
Br53	Br	0.769775	-0.000144	0.678661
Br54	Br	1.265966	-0.000070	0.421568
H55	H	1.524410	0.378636	-0.025828
H56	H	1.399928	0.621124	0.384086
Br57	Br	0.648296	-0.000144	0.405175
H58	H	1.400390	0.380878	0.385019
Br59	Br	1.582337	0.643679	-0.073637
H60	H	0.891600	-0.000130	-0.025693
H61	H	1.284620	0.619443	0.269091
Br62	Br	1.655885	0.642564	0.375789
H63	H	1.488341	-0.481015	-0.196376
H64	H	1.694600	0.618892	0.144050
H65	H	1.363898	0.620905	0.024468
Br66	Br	1.481090	-0.549460	-0.469650
