data_functionalizedCrystal
_audit_creation_method	'MofGen! by Chris Wilmer'
_symmetry_space_group_name_H-M	'P1'
_symmetry_Int_Tables_number	1
_symmetry_cell_setting	triclinic
loop_
_symmetry_equiv_pos_as_xyz
  x,y,z
_cell_length_a	16.109301
_cell_length_b	23.532407
_cell_length_c	15.186229
_cell_angle_alpha	89.991614
_cell_angle_beta	89.999362
_cell_angle_gamma	83.155079
loop_
_atom_site_label
_atom_site_type_symbol
_atom_site_fract_x
_atom_site_fract_y
_atom_site_fract_z
O1	O	1.102555	0.073202	-0.073182
O2	O	0.860421	0.082312	-0.073197
O3	O	0.988790	-0.005148	-0.073173
O4	O	0.974187	0.160662	-0.073206
O5	O	0.988781	-0.005149	0.073284
O6	O	0.860413	0.082311	0.073260
O7	O	1.102547	0.073201	0.073275
Zn8	Zn	0.981478	0.077755	0.096521
Zn9	Zn	0.981490	0.077757	-0.096443
O10	O	0.974178	0.160660	0.073251
C11	C	0.829445	0.081942	0.000030
C12	C	0.737159	0.080836	0.000025
C13	C	0.514498	0.130160	0.000025
C14	C	0.427786	0.129116	0.000031
C15	C	0.448476	0.025348	0.000048
C16	C	0.535187	0.026393	0.000048
C17	C	0.568195	0.078801	0.000032
C18	C	0.394773	0.076712	0.000038
C19	C	0.300755	0.075580	0.000044
C20	C	0.662218	0.079933	0.000028
C21	C	0.988414	-0.026366	0.000058
C22	C	0.987296	-0.089587	0.000064
C23	C	1.056249	-0.488436	0.000021
C24	C	1.055210	-0.547840	0.000014
O25	O	1.119130	-0.584349	-0.000015
N26	N	0.978895	-0.570748	0.000010
C27	C	0.903614	-0.534248	0.000003
O28	O	0.838607	-0.559187	-0.000002
C29	C	0.904654	-0.474845	0.000004
C30	C	0.980973	-0.451941	0.000017
C31	C	1.132562	-0.465531	0.000033
C32	C	1.133601	-0.406131	0.000041
C33	C	1.058325	-0.369636	0.000037
C34	C	0.982012	-0.392541	0.000025
C35	C	0.829373	-0.438346	-0.000009
C36	C	0.830419	-0.378940	-0.000009
C37	C	0.906739	-0.356036	0.000004
C38	C	0.907774	-0.296645	0.000030
N39	N	0.984089	-0.273738	0.000034
C40	C	1.059365	-0.310233	0.000038
C41	C	0.901437	-0.658998	0.000001
C42	C	0.900396	-0.718400	0.000007
C43	C	1.051993	-0.731988	0.000016
C44	C	1.053032	-0.672585	0.000016
C45	C	0.977752	-0.636091	0.000005
C46	C	1.061539	-0.185488	0.000056
C47	C	1.062571	-0.126082	0.000068
C48	C	0.910975	-0.112499	0.000055
C49	C	0.909943	-0.171900	0.000047
C50	C	0.985232	-0.208394	0.000045
O51	O	0.843888	-0.260102	0.000055
O52	O	1.124361	-0.285285	0.000031
C53	C	1.133523	0.073570	0.000046
C54	C	1.225809	0.074677	0.000046
C55	C	0.974554	0.181878	0.000018
C56	C	0.975672	0.245100	0.000006
N57	N	0.981477	0.077754	0.228214
N58	N	0.981498	0.077754	-0.228136
C59	C	1.038337	0.039040	0.453947
C60	C	1.038340	0.039039	0.546137
C61	C	0.924631	0.116470	0.546124
C62	C	0.924625	0.116468	0.453936
C63	C	0.981483	0.077754	0.407850
C64	C	0.981492	0.077754	0.592228
C65	C	0.981494	0.077753	0.692184
C66	C	0.981480	0.077754	0.307888
H67	H	1.122847	-0.215195	0.000051
H68	H	1.084633	0.007515	0.416426
C69	C	1.283338	-0.425547	0.000040
C70	C	1.217495	-0.380960	0.000044
H71	H	1.335132	-0.410009	0.000034
H72	H	1.279774	-0.448436	0.051110
H73	H	1.279766	-0.448428	-0.051036
H74	H	1.221062	-0.358081	0.051124
H75	H	1.221060	-0.358061	-0.051031
H76	H	0.838249	-0.737043	0.000011
C77	C	0.362972	-0.036022	-0.075238
C78	C	0.412191	-0.032256	0.000053
H79	H	0.340577	-0.071587	-0.075237
H80	H	0.318585	-0.005587	-0.075236
H81	H	0.396380	-0.033455	-0.126303
H82	H	0.378781	-0.034820	0.051119
H83	H	0.456584	-0.062700	0.000060
H84	H	1.084635	0.007514	0.583666
C85	C	1.219372	-0.540203	-0.075250
C86	C	1.215317	-0.505639	0.000037
H87	H	1.270468	-0.564958	-0.075244
H88	H	1.173788	-0.562354	-0.075249
H89	H	1.216623	-0.516737	-0.126318
H90	H	1.218060	-0.529106	0.051105
H91	H	1.260913	-0.483487	0.000044
C92	C	0.546937	-0.076287	0.000055
C93	C	0.594218	-0.030066	0.000053
H94	H	0.583382	-0.111139	0.000055
H95	H	0.512687	-0.074540	0.051124
H96	H	0.512684	-0.074531	-0.051022
H97	H	0.628466	-0.031819	0.051134
H98	H	0.628482	-0.031814	-0.051022
H99	H	1.124722	-0.107437	0.000081
C100	C	0.874157	0.150859	0.687438
C101	C	0.862143	0.159029	0.596786
H102	H	0.835583	0.177138	0.718710
H103	H	0.865440	0.112854	0.702555
H104	H	0.929596	0.157055	0.702527
H105	H	0.806706	0.152829	0.581695
H106	H	0.870854	0.197043	0.581663
C107	C	1.202771	-0.691997	0.000019
C108	C	1.136925	-0.647412	0.000017
H109	H	1.254564	-0.676457	0.000011
H110	H	1.199209	-0.714883	0.051091
H111	H	1.199202	-0.714881	-0.051055
H112	H	1.140490	-0.624530	0.051094
H113	H	1.140488	-0.624516	-0.051061
C114	C	1.138765	-0.806666	-0.075289
C115	C	1.134742	-0.772110	0.000006
H116	H	1.189851	-0.831433	-0.075297
H117	H	1.093169	-0.828804	-0.075284
H118	H	1.136020	-0.783195	-0.126352
H119	H	1.137481	-0.795581	0.051069
H120	H	1.180351	-0.749970	0.000009
C121	C	0.874988	0.215054	0.425520
C122	C	0.862129	0.159028	0.403259
H123	H	0.836408	0.241325	0.394229
H124	H	0.866851	0.220593	0.487011
H125	H	0.930423	0.221241	0.410401
H126	H	0.806694	0.152839	0.418384
H127	H	0.870259	0.153486	0.341754
C128	C	0.485334	0.232625	0.000019
C129	C	0.550782	0.187766	0.000019
H130	H	0.507735	0.268188	0.000023
H131	H	0.451947	0.230062	-0.051051
H132	H	0.451943	0.230050	0.051096
H133	H	0.584170	0.190338	-0.051060
H134	H	0.584183	0.190329	0.051095
C135	C	0.318270	0.188139	-0.075269
C136	C	0.368761	0.185572	0.000017
H137	H	0.281827	0.222993	-0.075272
H138	H	0.352526	0.186391	-0.126332
H139	H	0.286202	0.156778	-0.075250
H140	H	0.400833	0.216932	-0.000005
H141	H	0.334500	0.187326	0.051094
H142	H	0.847797	-0.190549	0.000061
H143	H	0.840130	-0.629287	-0.000001
H144	H	0.767225	-0.456984	-0.000025
C145	C	0.680466	-0.371480	-0.000028
C146	C	0.747666	-0.338825	-0.000018
H147	H	0.629380	-0.346715	-0.000026
H148	H	0.683222	-0.394923	-0.051100
H149	H	0.683217	-0.394940	0.051046
H150	H	0.744918	-0.315368	-0.051095
H151	H	0.744908	-0.315372	0.051060
H152	H	0.849688	-0.082774	0.000055
