data_functionalizedCrystal
_audit_creation_method	'MofGen! by Chris Wilmer'
_symmetry_space_group_name_H-M	'P1'
_symmetry_Int_Tables_number	1
_symmetry_cell_setting	triclinic
loop_
_symmetry_equiv_pos_as_xyz
  x,y,z
_cell_length_a	18.101398
_cell_length_b	12.594516
_cell_length_c	18.101389
_cell_angle_alpha	90.014195
_cell_angle_beta	90.009745
_cell_angle_gamma	90.007372
loop_
_atom_site_label
_atom_site_type_symbol
_atom_site_fract_x
_atom_site_fract_y
_atom_site_fract_z
Zn1	Zn	1.132220	-0.423980	0.418572
Zn2	Zn	1.632220	0.076020	0.918572
Zn3	Zn	1.132158	-0.601948	0.294740
Zn4	Zn	1.632158	-0.101948	0.794740
Zn5	Zn	1.008379	-0.423970	0.294765
Zn6	Zn	1.508379	0.076030	0.794765
Zn7	Zn	1.008372	-0.601903	0.418560
Zn8	Zn	1.508372	-0.101903	0.918560
O9	O	1.070282	-0.512950	0.356659
O10	O	1.570282	-0.012950	0.856659
O11	O	1.235845	-0.447611	0.402140
O12	O	1.735845	0.052389	0.902140
O13	O	1.115715	-0.578353	0.191110
O14	O	1.615715	-0.078353	0.691110
O15	O	1.024836	-0.275025	0.311204
O16	O	1.524836	0.224975	0.811204
O17	O	1.235799	-0.578363	0.311161
O18	O	1.735799	-0.078363	0.811161
O19	O	1.115822	-0.275033	0.402165
O20	O	1.615822	0.224967	0.902165
O21	O	1.024776	-0.447593	0.191129
O22	O	1.524776	0.052407	0.691129
O23	O	0.904745	-0.447550	0.311192
O24	O	1.404745	0.052450	0.811192
O25	O	1.024823	-0.578287	0.522195
O26	O	1.524823	-0.078287	1.022195
O27	O	0.904740	-0.578277	0.402144
O28	O	1.404740	-0.078277	0.902144
O29	O	1.115814	-0.447567	0.522204
O30	O	1.615814	0.052433	1.022204
O31	O	1.115708	-0.750888	0.311149
O32	O	1.615708	-0.250888	0.811149
O33	O	1.024763	-0.750855	0.402119
O34	O	1.524763	-0.250855	0.902119
C35	C	0.877872	-0.512908	0.356670
C36	C	1.377872	-0.012908	0.856670
C37	C	0.795558	-0.512916	0.356692
C38	C	1.295558	-0.012916	0.856692
C39	C	1.070248	-0.789491	0.356646
C40	C	1.570248	-0.289491	0.856646
C41	C	1.070301	-0.907797	0.356666
C42	C	1.570301	-0.407797	0.856666
C43	C	0.496467	-0.512979	0.356661
C44	C	0.996467	-0.012979	0.856661
C45	C	0.527813	-0.595626	0.413603
C46	C	1.027813	-0.095626	0.913603
C47	C	0.613431	-0.595367	0.413837
C48	C	1.113431	-0.095367	0.913837
C49	C	0.644849	-0.512949	0.356676
C50	C	1.144849	-0.012949	0.856676
C51	C	0.613768	-0.400845	0.377998
C52	C	1.113768	0.099155	0.877998
C53	C	0.528123	-0.401342	0.378403
C54	C	1.028123	0.098658	0.878403
C55	C	0.528021	-0.541446	0.278259
C56	C	1.028021	-0.041446	0.778259
C57	C	0.613671	-0.543906	0.278679
C58	C	1.113671	-0.043906	0.778679
C59	C	0.728709	-0.512925	0.356684
C60	C	1.228709	-0.012925	0.856684
C61	C	0.412607	-0.512995	0.356655
C62	C	0.912607	-0.012995	0.856655
C63	C	1.119823	-0.977029	0.307240
C64	C	1.619823	-0.477029	0.807240
C65	C	1.137919	-1.047751	0.374831
C66	C	1.637919	-0.547751	0.874831
C67	C	1.052298	-1.047874	0.289118
C68	C	1.552298	-0.547874	0.789118
C69	C	1.088431	-0.976960	0.424292
C70	C	1.588431	-0.476960	0.924292
C71	C	1.002779	-0.977077	0.338533
C72	C	1.502779	-0.477077	0.838533
C73	C	1.020849	-1.047767	0.406171
C74	C	1.520849	-0.547767	0.906171
C75	C	1.263444	-0.512993	0.356649
C76	C	1.763444	-0.012993	0.856649
C77	C	1.345758	-0.513011	0.356645
C78	C	1.845758	-0.013011	0.856645
C79	C	1.070325	-0.512923	0.549821
C80	C	1.570325	-0.012923	1.049821
C81	C	1.070343	-0.512912	0.632135
C82	C	1.570343	-0.012912	1.132135
C83	C	1.070337	-0.235329	0.356688
C84	C	1.570337	0.264671	0.856688
C85	C	1.070360	-0.117024	0.356701
C86	C	1.570360	0.382976	0.856701
C87	C	1.070282	-0.512900	0.164249
C88	C	1.570282	-0.012900	0.664249
C89	C	1.070407	-0.512612	0.081935
C90	C	1.570407	-0.012612	0.581935
C91	C	1.070386	-0.512712	0.931227
C92	C	1.570386	-0.012712	1.431227
C93	C	1.012940	-0.594696	0.899896
C94	C	1.512940	-0.094696	1.399896
C95	C	1.013095	-0.595076	0.814277
C96	C	1.513095	-0.095076	1.314277
C97	C	1.070364	-0.512811	0.782844
C98	C	1.570364	-0.012811	1.282844
C99	C	1.148397	-0.543267	0.813931
C100	C	1.648397	-0.043267	1.313931
C101	C	1.148077	-0.543805	0.899576
C102	C	1.648077	-0.043805	1.399576
C103	C	1.050479	-0.400091	0.899650
C104	C	1.550479	0.099909	1.399650
C105	C	1.048743	-0.400742	0.814000
C106	C	1.548743	0.099258	1.314000
C107	C	1.070357	-0.512865	0.698984
C108	C	1.570357	-0.012865	1.198984
C109	C	1.070399	-0.512661	1.015086
C110	C	1.570399	-0.012661	1.515086
H111	H	0.634446	-0.678498	0.400474
H112	H	1.134446	-0.178498	0.900474
H113	H	1.192349	-0.485430	0.793571
H114	H	1.692349	0.014570	1.293571
H115	H	0.954902	-0.575832	0.920495
H116	H	1.454902	-0.075832	1.420495
N117	N	0.640720	-0.317054	0.324785
N118	N	1.140720	0.182946	0.824785
H119	H	0.623688	-0.335168	0.273162
H120	H	1.123688	0.164832	0.773162
H121	H	0.696467	-0.314249	0.326052
H122	H	1.196467	0.185751	0.826052
H123	H	0.507217	-0.679029	0.400389
H124	H	1.007217	-0.179029	0.900389
N125	N	0.965403	-1.088670	0.461607
N126	N	1.465403	-0.588670	0.961607
H127	H	0.914528	-1.061818	0.448350
H128	H	1.414528	-0.561818	0.948350
H129	H	0.979176	-1.062728	0.512581
H130	H	1.479176	-0.562728	1.012581
N131	N	0.641975	-0.469950	0.219454
N132	N	1.141975	0.030050	0.719454
H133	H	0.670413	-0.511992	0.181390
H134	H	1.170413	-0.011992	0.681390
H135	H	0.675532	-0.415094	0.242503
H136	H	1.175532	0.084906	0.742503
N137	N	0.499320	-0.571006	0.490108
N138	N	0.999320	-0.071006	0.990108
H139	H	0.466195	-0.506548	0.488042
H140	H	0.966195	-0.006548	0.988042
H141	H	0.542368	-0.556337	0.524114
H142	H	1.042368	-0.056337	1.024114
H143	H	0.945668	-0.946008	0.323157
H144	H	1.445668	-0.446008	0.823157
N145	N	1.032092	-1.089140	0.213435
N146	N	1.532092	-0.589140	0.713435
H147	H	1.069515	-1.063408	0.176131
H148	H	1.569515	-0.563408	0.676131
H149	H	0.981418	-1.062319	0.199405
H150	H	1.481418	-0.562319	0.699405
H151	H	1.164950	-0.626132	0.919560
H152	H	1.664950	-0.126132	1.419560
H153	H	0.507748	-0.481246	0.235833
H154	H	1.007748	0.018754	0.735833
N155	N	1.030190	-0.704598	0.928399
N156	N	1.530190	-0.204598	1.428399
H157	H	0.986621	-0.732406	0.957384
H158	H	1.486621	-0.232406	1.457384
H159	H	1.075068	-0.701414	0.961485
H160	H	1.575068	-0.201414	1.461485
H161	H	1.161710	-0.945968	0.265480
H162	H	1.661710	-0.445968	0.765480
H163	H	0.633929	-0.576533	0.471927
H164	H	1.133929	-0.076533	0.971927
N165	N	1.108729	-0.935891	0.500002
N166	N	1.608729	-0.435891	1.000002
H167	H	1.071596	-0.962225	0.537393
H168	H	1.571596	-0.462225	1.037393
H169	H	1.108614	-0.855705	0.499451
H170	H	1.608614	-0.355705	0.999451
N171	N	0.501667	-0.369254	0.454298
N172	N	1.001667	0.130746	0.954298
H173	H	0.545639	-0.354933	0.487179
H174	H	1.045639	0.145067	0.987179
H175	H	0.471022	-0.428446	0.476149
H176	H	0.971022	0.071554	0.976149
H177	H	0.635227	-0.376262	0.434690
H178	H	1.135227	0.123738	0.934690
H179	H	0.955232	-0.576017	0.793259
H180	H	1.455232	-0.076017	1.293259
H181	H	1.026241	-0.678554	0.793796
H182	H	1.526241	-0.178554	1.293796
H183	H	0.507387	-0.337558	0.338831
H184	H	1.007387	0.162442	0.838831
H185	H	1.192331	-0.486684	0.920303
H186	H	1.692331	0.013316	1.420303
N187	N	1.171142	-0.651157	0.785532
N188	N	1.671142	-0.151157	1.285532
H189	H	1.131018	-0.680461	0.752537
H190	H	1.631018	-0.180461	1.252537
H191	H	1.179131	-0.700757	0.828632
H192	H	1.679131	-0.200757	1.328632
H193	H	0.994565	-0.372346	0.921249
H194	H	1.494565	0.127654	1.421249
H195	H	0.991318	-0.377775	0.793681
H196	H	1.491318	0.122225	1.293681
N197	N	1.213584	-1.088889	0.395177
N198	N	1.713584	-0.588889	0.895177
H199	H	1.248046	-1.027075	0.403928
H200	H	1.748046	-0.527075	0.903928
H201	H	1.233309	-1.134182	0.353572
H202	H	1.733309	-0.634182	0.853572
H203	H	1.092320	-0.339009	0.919912
H204	H	1.592320	0.160991	1.419912
N205	N	0.499407	-0.647861	0.252578
N206	N	0.999407	-0.147861	0.752578
H207	H	0.465695	-0.678696	0.291511
H208	H	0.965695	-0.178696	0.791511
H209	H	0.542364	-0.697536	0.244047
H210	H	1.042364	-0.197536	0.744047
N211	N	0.640648	-0.653129	0.257337
N212	N	1.140648	-0.153129	0.757337
H213	H	0.672924	-0.682450	0.298022
H214	H	1.172924	-0.182450	0.798022
H215	H	0.670141	-0.648277	0.210101
H216	H	1.170141	-0.148277	0.710101
N217	N	1.100116	-0.315527	0.785662
N218	N	1.600116	0.184473	1.285662
H219	H	1.138306	-0.348509	0.752079
H220	H	1.638306	0.151491	1.252079
H221	H	1.125608	-0.280104	0.828753
H222	H	1.625608	0.219896	1.328753
