data_functionalizedCrystal
_audit_creation_method	'MofGen! by Chris Wilmer'
_symmetry_space_group_name_H-M	'P1'
_symmetry_Int_Tables_number	1
_symmetry_cell_setting	triclinic
loop_
_symmetry_equiv_pos_as_xyz
  x,y,z
_cell_length_a	6.817900
_cell_length_b	10.943632
_cell_length_c	10.943881
_cell_angle_alpha	91.769068
_cell_angle_beta	108.843448
_cell_angle_gamma	108.838880
loop_
_atom_site_label
_atom_site_type_symbol
_atom_site_fract_x
_atom_site_fract_y
_atom_site_fract_z
V1	V	-4.115549	-0.178593	-0.402521
O2	O	-4.073257	0.008620	-0.394891
O3	O	-4.093499	-0.354157	-0.399738
O4	O	-4.093535	-0.175829	-0.578089
O5	O	-4.073220	-0.170942	-0.215305
V6	V	-4.592343	-0.156202	-0.380133
O7	O	-4.391566	-0.227709	-0.451633
O8	O	-4.766523	-0.107086	-0.331021
O9	O	-4.391187	0.019361	-0.382916
O10	O	-4.752032	-0.343415	-0.387763
O11	O	-4.752069	-0.163854	-0.567349
O12	O	-4.391151	-0.158966	-0.204565
C13	C	-3.944056	-0.396956	-0.393380
C14	C	-4.007490	-0.540481	-0.392274
C15	C	-3.852335	-0.617634	-0.384921
C16	C	-3.931157	-0.690290	-0.280696
C17	C	-4.041724	-0.723564	-0.494544
C18	C	-4.085431	-0.611233	-0.287975
C19	C	-4.196016	-0.644513	-0.501918
C20	C	-4.274948	-0.717131	-0.397671
C21	C	-3.944100	-0.169480	-0.620883
C22	C	-4.007559	-0.168382	-0.764410
C23	C	-4.237003	-0.174462	-0.855292
C24	C	-4.123548	-0.063483	-0.921048
C25	C	-4.234026	-0.277326	-0.954381
C26	C	-3.893222	-0.057329	-0.828262
C27	C	-4.003774	-0.271270	-0.861603
C28	C	-3.890148	-0.160260	-0.927311
C29	C	-4.203972	0.062153	-0.389270
C30	C	-4.119778	0.205677	-0.390385
C31	C	-4.203927	-0.165320	-0.161764
C32	C	-4.119705	-0.166411	-0.018236
H33	H	-4.382911	-0.180341	-0.823422
C34	C	-4.514095	-0.774897	-0.405080
C35	C	-4.637356	-0.867669	-0.517780
C36	C	-4.857664	-0.920901	-0.524649
H37	H	-4.519894	-0.815581	-0.330261
H38	H	-4.574144	-0.707386	-0.408133
H39	H	-4.577325	-0.935170	-0.514715
H40	H	-4.631623	-0.827018	-0.592619
H41	H	-4.917713	-0.853390	-0.527703
H42	H	-4.863440	-0.961578	-0.449825
H43	H	-4.941328	-0.983844	-0.601122
C44	C	-4.108964	-0.546375	-0.171278
C45	C	-3.970685	-0.570049	-0.055850
C46	C	-3.992317	-0.510335	0.051674
H47	H	-4.068099	-0.454934	-0.172470
H48	H	-4.258315	-0.581273	-0.175438
H49	H	-3.821367	-0.535146	-0.051692
H50	H	-4.011521	-0.661479	-0.054616
H51	H	-4.141667	-0.545233	0.047515
H52	H	-3.951453	-0.418897	0.050470
H53	H	-3.898515	-0.526400	0.130004
C54	C	-4.192267	0.053542	-0.956423
C55	C	-4.374629	0.045652	-0.920274
C56	C	-4.438029	0.153415	-0.952857
H57	H	-4.072687	0.131679	-0.911545
H58	H	-4.231191	0.053842	-1.047940
H59	H	-4.335696	0.045365	-0.828774
H60	H	-4.494250	-0.032462	-0.965148
H61	H	-4.476953	0.153715	-1.044374
H62	H	-4.318436	0.231544	-0.907976
H63	H	-4.561780	0.148070	-0.928346
C64	C	-3.700645	0.066918	-0.755659
C65	C	-3.763048	0.175330	-0.786471
C66	C	-3.585706	0.289809	-0.719629
H67	H	-3.661155	0.065657	-0.664270
H68	H	-3.577506	0.072304	-0.780828
H69	H	-3.886148	0.169945	-0.761294
H70	H	-3.802517	0.176634	-0.877848
H71	H	-3.462567	0.295195	-0.744798
H72	H	-3.546229	0.288535	-0.628244
H73	H	-3.628015	0.363381	-0.740535
C74	C	-3.935351	-0.388318	-0.825886
C75	C	-3.874420	-0.387089	-0.690679
C76	C	-3.811371	-0.494895	-0.657726
H77	H	-4.055937	-0.466492	-0.869398
H78	H	-3.813286	-0.384091	-0.851721
H79	H	-3.996472	-0.391328	-0.664858
H80	H	-3.753819	-0.308940	-0.647136
H81	H	-3.689306	-0.490668	-0.683561
H82	H	-3.931966	-0.573061	-0.701246
H83	H	-3.770003	-0.494069	-0.565985
C84	C	-4.426680	-0.401429	-1.027293
C85	C	-4.365244	-0.510032	-0.995798
C86	C	-4.542656	-0.624369	-1.062948
H87	H	-4.550366	-0.406489	-1.002844
H88	H	-4.464992	-0.400268	-1.118670
H89	H	-4.326962	-0.511194	-0.904442
H90	H	-4.241585	-0.505015	-1.020251
H91	H	-4.580968	-0.623208	-1.154324
H92	H	-4.666331	-0.629416	-1.038493
H93	H	-4.500990	-0.698069	-1.041597
H94	H	-3.743915	-0.154212	-0.958911
H95	H	-4.307255	-0.623713	-0.595461
H96	H	-4.023815	-0.772476	-0.581814
C97	C	-3.613316	-0.559402	-0.377652
C98	C	-3.557078	-0.424829	-0.379942
C99	C	-3.336925	-0.371141	-0.373259
H100	H	-3.518743	-0.574415	-0.299000
H101	H	-3.596710	-0.599246	-0.450241
H102	H	-3.573663	-0.384997	-0.307360
H103	H	-3.651593	-0.409779	-0.458588
H104	H	-3.320319	-0.410986	-0.445847
H105	H	-3.242371	-0.386164	-0.294606
H106	H	-3.298745	-0.279831	-0.374824
H107	H	-3.819838	-0.711057	-0.187152
