data_functionalizedCrystal
_audit_creation_method	'MofGen! by Chris Wilmer'
_symmetry_space_group_name_H-M	'P1'
_symmetry_Int_Tables_number	1
_symmetry_cell_setting	triclinic
loop_
_symmetry_equiv_pos_as_xyz
  x,y,z
_cell_length_a	11.792241
_cell_length_b	10.654550
_cell_length_c	10.868271
_cell_angle_alpha	90.000241
_cell_angle_beta	89.999844
_cell_angle_gamma	95.660841
loop_
_atom_site_label
_atom_site_type_symbol
_atom_site_fract_x
_atom_site_fract_y
_atom_site_fract_z
O1	O	1.507307	-0.172129	-0.102199
O2	O	2.007307	0.327871	0.397801
O3	O	1.177007	-0.189870	-0.102228
O4	O	1.677007	0.310130	0.397772
O5	O	1.349751	0.001761	-0.102208
O6	O	1.849751	0.501761	0.397792
O7	O	1.334562	-0.363760	-0.102219
O8	O	1.834562	0.136240	0.397781
O9	O	1.349735	0.001755	0.102436
O10	O	1.849735	0.501755	0.602436
O11	O	1.176991	-0.189876	0.102417
O12	O	1.676991	0.310124	0.602417
O13	O	1.507291	-0.172135	0.102445
O14	O	2.007291	0.327865	0.602445
Zn15	Zn	1.342138	-0.181007	0.134923
Zn16	Zn	1.842138	0.318993	0.634923
Zn17	Zn	1.342159	-0.180998	-0.134705
Zn18	Zn	1.842159	0.319002	0.365295
O19	O	1.334547	-0.363766	0.102426
O20	O	1.834547	0.136234	0.602426
C21	C	1.134705	-0.188758	0.000091
C22	C	1.634705	0.311242	0.500091
C23	C	1.008684	-0.185423	0.000080
C24	C	1.508684	0.314577	0.500080
C25	C	1.348628	0.048553	0.000112
C26	C	1.848628	0.548553	0.500112
C27	C	1.345291	0.187987	0.000108
C28	C	1.845291	0.687987	0.500108
N29	N	1.342133	-0.181011	0.318937
N30	N	1.842133	0.318989	0.818937
C31	C	0.777957	-0.179290	0.000116
C32	C	1.277957	0.320710	0.500116
C33	C	0.906351	-0.182697	0.000096
C34	C	1.406351	0.317303	0.500096
C35	C	1.549592	-0.173247	0.000124
C36	C	2.049592	0.326753	0.500124
C37	C	1.675614	-0.176582	0.000127
C38	C	2.175614	0.323418	0.500127
C39	C	1.335670	-0.410558	0.000102
C40	C	1.835670	0.089442	0.500102
C41	C	1.339006	-0.549992	0.000099
C42	C	1.839006	-0.049992	0.500099
C43	C	1.447000	0.267760	0.000120
C44	C	1.947000	0.767760	0.500120
C45	C	1.443858	0.398772	0.000111
C46	C	1.943858	0.898772	0.500111
C47	C	1.237290	0.370224	0.000083
C48	C	1.737290	0.870224	0.500083
C49	C	1.240433	0.239215	0.000083
C50	C	1.740433	0.739215	0.500083
C51	C	1.551859	0.216532	0.000145
C52	C	2.051859	0.716532	0.500145
C53	C	1.653577	0.296307	0.000159
C54	C	2.153577	0.796307	0.500159
C55	C	1.650435	0.427319	0.000150
C56	C	2.150435	0.927319	0.500150
C57	C	1.545575	0.478556	0.000128
C58	C	2.045575	0.978556	0.500128
N59	N	1.342174	-0.180984	-0.318719
N60	N	1.842174	0.319016	0.181281
C61	C	1.342141	-0.181012	0.430275
C62	C	1.842141	0.318988	0.930275
C63	C	1.342156	-0.181000	0.569952
C64	C	1.842156	0.319000	1.069952
H65	H	1.738949	0.254580	0.000147
H66	H	2.238949	0.754580	0.500147
H67	H	1.733258	0.492268	0.000149
H68	H	2.233258	0.992268	0.500149
C69	C	1.123562	0.426093	0.000132
C70	C	1.623562	0.926093	0.500132
C71	C	1.142580	0.557900	0.000169
C72	C	1.642580	1.057900	0.500169
C73	C	1.037840	0.609407	0.000236
C74	C	1.537840	1.109407	0.500236
H75	H	1.081556	0.398902	-0.071216
H76	H	1.581556	0.898902	0.428784
H77	H	1.081624	0.398828	0.071521
H78	H	1.581624	0.898828	0.571521
H79	H	1.184501	0.585154	-0.071212
H80	H	1.684501	1.085154	0.428788
H81	H	1.184568	0.585127	0.071513
H82	H	1.684568	1.085127	0.571513
H83	H	0.995902	0.582142	0.071625
H84	H	1.495902	1.082142	0.571625
H85	H	0.995842	0.582206	-0.071114
H86	H	1.495842	1.082206	0.428886
H87	H	1.050729	0.698842	0.000273
H88	H	1.550729	1.198842	0.500273
H89	H	1.157612	0.174261	0.000074
H90	H	1.657612	0.674261	0.500074
H91	H	1.554429	0.109857	0.000156
H92	H	2.054429	0.609857	0.500156
H93	H	1.543025	0.585236	0.000107
H94	H	2.043025	1.085236	0.500107
