data_functionalizedCrystal
_audit_creation_method	'MofGen! by Chris Wilmer'
_symmetry_space_group_name_H-M	'P1'
_symmetry_Int_Tables_number	1
_symmetry_cell_setting	triclinic
loop_
_symmetry_equiv_pos_as_xyz
  x,y,z
_cell_length_a	19.077409
_cell_length_b	19.077068
_cell_length_c	12.759393
_cell_angle_alpha	87.738768
_cell_angle_beta	87.729585
_cell_angle_gamma	94.533134
loop_
_atom_site_label
_atom_site_type_symbol
_atom_site_fract_x
_atom_site_fract_y
_atom_site_fract_z
Zn1	Zn	1.066438	-0.237283	0.544523
Zn2	Zn	1.061604	-0.355193	0.376182
Zn3	Zn	0.948546	-0.242060	0.376184
Zn4	Zn	0.943779	-0.359876	0.559136
O5	O	1.005092	-0.298603	0.464007
O6	O	1.164445	-0.248966	0.516076
O7	O	1.046579	-0.340225	0.229166
O8	O	0.968202	-0.142774	0.392400
O9	O	1.160894	-0.335594	0.392397
O10	O	1.054817	-0.139265	0.516078
O11	O	0.963515	-0.257106	0.229167
O12	O	0.849265	-0.261647	0.406569
O13	O	0.960078	-0.343574	0.704215
O14	O	0.845763	-0.348206	0.540983
O15	O	1.050195	-0.253506	0.693479
O16	O	1.041956	-0.454466	0.406566
O17	O	0.955391	-0.457907	0.540981
C18	C	0.821935	-0.305953	0.475363
C19	C	0.743579	-0.309115	0.480247
C20	C	0.302326	-0.331733	0.515324
C21	C	0.375949	-0.328768	0.510715
C22	C	0.414564	-0.282146	0.438536
C23	C	0.379552	-0.238492	0.370954
C24	C	0.305930	-0.241461	0.375558
C25	C	0.634945	-0.268429	0.417269
C26	C	0.708572	-0.265462	0.412672
C27	C	0.704964	-0.355739	0.552433
C28	C	0.631341	-0.358701	0.557035
C29	C	0.596335	-0.315050	0.489449
N30	N	0.489819	-0.279113	0.433826
N31	N	0.521081	-0.318087	0.494154
C32	C	0.997651	-0.481765	0.475381
C33	C	0.994532	-0.560120	0.480278
C34	C	1.038172	-0.595116	0.412649
C35	C	1.035243	-0.668738	0.417261
C36	C	0.988670	-0.707365	0.489497
C37	C	0.945028	-0.672364	0.557133
C38	C	0.947961	-0.598742	0.552525
C39	C	0.975064	-0.927744	0.510781
C40	C	0.972132	-1.001371	0.515381
C41	C	1.062348	-0.997740	0.375510
C42	C	1.065275	-0.924118	0.370905
C43	C	1.021635	-0.889123	0.438544
N44	N	0.985673	-0.782619	0.494211
N45	N	1.024636	-0.813870	0.433835
C46	C	1.188963	-0.291224	0.452607
C47	C	1.267319	-0.288080	0.447749
C48	C	1.005144	-0.298530	0.738032
C49	C	1.005166	-0.298499	0.854806
C50	C	1.012581	-0.114725	0.452610
C51	C	1.015772	-0.036367	0.447753
C52	C	1.005082	-0.298623	0.191041
C53	C	1.005205	-0.298450	0.074247
C54	C	1.052097	-0.251596	0.904079
C55	C	1.052114	-0.251569	1.013801
C56	C	0.958269	-0.345356	1.024967
C57	C	0.958248	-0.345378	0.915247
C58	C	1.106280	-0.197451	0.897633
C59	C	1.106297	-0.197425	1.007355
H60	H	0.404449	-0.364316	0.565740
N61	N	0.907675	-0.395922	1.090161
H62	H	0.877943	-0.425639	1.042294
H63	H	0.876229	-0.368525	1.135930
N64	N	1.173836	-0.220787	0.849899
H65	H	1.206504	-0.232019	0.907534
H66	H	1.197143	-0.181855	0.801535
N67	N	1.088410	-0.553463	0.334737
H68	H	1.122280	-0.521554	0.373536
H69	H	1.060946	-0.524161	0.285896
H70	H	0.912426	-0.570250	0.607597
N71	N	1.083222	-0.129746	1.049795
H72	H	1.084081	-0.132198	1.128945
H73	H	1.033876	-0.122801	1.027826
N74	N	1.177828	-0.213891	1.043538
H75	H	1.214700	-0.177084	1.012790
H76	H	1.188777	-0.261762	1.019370
H77	H	0.270891	-0.369694	0.574106
N78	N	0.894790	-0.714020	0.635042
H79	H	0.906223	-0.700720	0.708641
H80	H	0.899572	-0.765956	0.627606
N81	N	0.589692	-0.408999	0.634867
H82	H	0.623041	-0.436208	0.676971
H83	H	0.557815	-0.442814	0.595932
H84	H	0.934215	-1.032818	0.574223
H85	H	0.733474	-0.391279	0.607457
H86	H	0.740011	-0.227488	0.353902
N87	N	0.597207	-0.221339	0.344374
H88	H	0.612075	-0.170469	0.356902
H89	H	0.544717	-0.230343	0.358260
N90	N	0.421197	-0.188209	0.293096
H91	H	0.473149	-0.192950	0.300434
H92	H	0.410373	-0.138394	0.307254
H93	H	0.920031	-0.383568	0.875134
H94	H	1.103198	-0.892669	0.312085
H95	H	1.097878	-1.026241	0.320444
H96	H	0.277428	-0.205912	0.320533
N97	N	1.089861	-0.125913	0.854907
H98	H	1.082544	-0.093974	0.914981
H99	H	1.045693	-0.130873	0.813827
H100	H	1.070779	-0.697228	0.362190
N101	N	0.927992	-0.890006	0.583723
H102	H	0.898041	-0.925649	0.630175
H103	H	0.896600	-0.860823	0.541026
