data_functionalizedCrystal
_audit_creation_method	'MofGen! by Chris Wilmer'
_symmetry_space_group_name_H-M	'P1'
_symmetry_Int_Tables_number	1
_symmetry_cell_setting	triclinic
loop_
_symmetry_equiv_pos_as_xyz
  x,y,z
_cell_length_a	18.101395
_cell_length_b	16.625548
_cell_length_c	16.625539
_cell_angle_alpha	89.979432
_cell_angle_beta	90.027648
_cell_angle_gamma	89.967828
loop_
_atom_site_label
_atom_site_type_symbol
_atom_site_fract_x
_atom_site_fract_y
_atom_site_fract_z
Zn1	Zn	-0.294807	-1.232632	0.455913
Zn2	Zn	-0.044807	-0.982632	0.705913
Zn3	Zn	0.205193	-0.732632	0.955913
Zn4	Zn	0.455193	-0.482632	1.205913
Zn5	Zn	-0.418656	-1.232515	0.321082
Zn6	Zn	-0.168656	-0.982515	0.571082
Zn7	Zn	0.081344	-0.732515	0.821082
Zn8	Zn	0.331344	-0.482515	1.071082
Zn9	Zn	-0.294835	-1.097794	0.321094
Zn10	Zn	-0.044835	-0.847794	0.571094
Zn11	Zn	0.205165	-0.597794	0.821094
Zn12	Zn	0.455165	-0.347794	1.071094
Zn13	Zn	-0.418614	-1.097744	0.455872
Zn14	Zn	-0.168614	-0.847744	0.705872
Zn15	Zn	0.081386	-0.597744	0.955872
Zn16	Zn	0.331386	-0.347744	1.205872
O17	O	-0.356728	-1.165171	0.388490
O18	O	-0.106728	-0.915171	0.638490
O19	O	0.143272	-0.665171	0.888490
O20	O	0.393272	-0.415171	1.138490
O21	O	-0.311242	-1.345449	0.438040
O22	O	-0.061242	-1.095449	0.688040
O23	O	0.188758	-0.845449	0.938040
O24	O	0.438758	-0.595449	1.188040
O25	O	-0.402261	-1.214616	0.208251
O26	O	-0.152261	-0.964616	0.458251
O27	O	0.097739	-0.714616	0.708251
O28	O	0.347739	-0.464616	0.958251
O29	O	-0.191199	-1.115750	0.339000
O30	O	0.058801	-0.865750	0.589000
O31	O	0.308801	-0.615750	0.839000
O32	O	0.558801	-0.365750	1.089000
O33	O	-0.402233	-1.345363	0.338980
O34	O	-0.152233	-1.095363	0.588980
O35	O	0.097767	-0.845363	0.838980
O36	O	0.347767	-0.595363	1.088980
O37	O	-0.191178	-1.214815	0.438051
O38	O	0.058822	-0.964815	0.688051
O39	O	0.308822	-0.714815	0.938051
O40	O	0.558822	-0.464815	1.188051
O41	O	-0.311290	-1.115637	0.208260
O42	O	-0.061290	-0.865637	0.458260
O43	O	0.188710	-0.615637	0.708260
O44	O	0.438710	-0.365637	0.958260
O45	O	-0.311249	-0.984955	0.338960
O46	O	-0.061249	-0.734955	0.588960
O47	O	0.188751	-0.484955	0.838960
O48	O	0.438751	-0.234955	1.088960
O49	O	-0.402161	-1.115665	0.568710
O50	O	-0.152161	-0.865665	0.818710
O51	O	0.097839	-0.615665	1.068710
O52	O	0.347839	-0.365665	1.318710
O53	O	-0.402188	-0.984918	0.437981
O54	O	-0.152188	-0.734918	0.687981
O55	O	0.097812	-0.484918	0.937981
O56	O	0.347812	-0.234918	1.187981
O57	O	-0.311201	-1.214767	0.568740
O58	O	-0.061201	-0.964767	0.818740
O59	O	0.188799	-0.714767	1.068740
O60	O	0.438799	-0.464767	1.318740
O61	O	-0.522284	-1.214567	0.338940
O62	O	-0.272284	-0.964567	0.588940
O63	O	-0.022284	-0.714567	0.838940
O64	O	0.227716	-0.464567	1.088940
O65	O	-0.522252	-1.115552	0.437969
O66	O	-0.272252	-0.865552	0.687969
O67	O	-0.022252	-0.615552	0.937969
O68	O	0.227748	-0.365552	1.187969
C69	C	-0.356718	-0.955680	0.388467
C70	C	-0.106718	-0.705680	0.638467
C71	C	0.143282	-0.455680	0.888467
C72	C	0.393282	-0.205680	1.138467
C73	C	-0.356731	-0.866059	0.388477
C74	C	-0.106731	-0.616059	0.638477
C75	C	0.143269	-0.366059	0.888477
C76	C	0.393269	-0.116059	1.138477
C77	C	-0.549139	-1.165063	0.388466
C78	C	-0.299139	-0.915063	0.638466
C79	C	-0.049139	-0.665063	0.888466
C80	C	0.200861	-0.415063	1.138466
C81	C	-0.631453	-1.165091	0.388483
C82	C	-0.381453	-0.915091	0.638483
C83	C	-0.131453	-0.665091	0.888483
C84	C	0.118547	-0.415091	1.138483
C85	C	-0.356673	-1.165224	0.598799
C86	C	-0.106673	-0.915224	0.848799
C87	C	0.143327	-0.665224	1.098799
C88	C	0.393327	-0.415224	1.348799
C89	C	-0.356649	-1.165246	0.688420
C90	C	-0.106649	-0.915246	0.938420
C91	C	0.143351	-0.665246	1.188420
C92	C	0.393351	-0.415246	1.438420
C93	C	-0.930544	-1.165268	0.388527
C94	C	-0.680544	-0.915268	0.638527
C95	C	-0.430544	-0.665268	0.888527
C96	C	-0.180544	-0.415268	1.138527
C97	C	-0.899230	-1.103114	0.450988
C98	C	-0.649230	-0.853114	0.700988
C99	C	-0.399230	-0.603114	0.950988
C100	C	-0.149230	-0.353114	1.200988
C101	C	-0.813612	-1.102819	0.450793
C102	C	-0.563612	-0.852819	0.700793
C103	C	-0.313612	-0.602819	0.950793
C104	C	-0.063612	-0.352819	1.200793
C105	C	-0.782161	-1.165180	0.388506
C106	C	-0.532161	-0.915180	0.638506
C107	C	-0.282161	-0.665180	0.888506
C108	C	-0.032161	-0.415180	1.138506
C109	C	-0.813313	-1.142173	0.303528
C110	C	-0.563313	-0.892173	0.553528
C111	C	-0.313313	-0.642173	0.803528
C112	C	-0.063313	-0.392173	1.053528
C113	C	-0.898959	-1.141772	0.303901
C114	C	-0.648959	-0.891772	0.553901
C115	C	-0.398959	-0.641772	0.803901
C116	C	-0.148959	-0.391772	1.053901
C117	C	-0.898886	-1.250565	0.410295
C118	C	-0.648886	-1.000565	0.660295
C119	C	-0.398886	-0.750565	0.910295
C120	C	-0.148886	-0.500565	1.160295
C121	C	-0.813235	-1.250063	0.412159
C122	C	-0.563235	-1.000063	0.662159
C123	C	-0.313235	-0.750063	0.912159
C124	C	-0.063235	-0.500063	1.162159
C125	C	-0.698302	-1.165132	0.388489
C126	C	-0.448302	-0.915132	0.638489
C127	C	-0.198302	-0.665132	0.888489
C128	C	0.051698	-0.415132	1.138489
C129	C	-1.014403	-1.165314	0.388538
C130	C	-0.764403	-0.915314	0.638538
C131	C	-0.514403	-0.665314	0.888538
C132	C	-0.264403	-0.415314	1.138538
C133	C	-0.163566	-1.165302	0.388531
C134	C	0.086434	-0.915302	0.638531
C135	C	0.336434	-0.665302	0.888531
C136	C	0.586434	-0.415302	1.138531
C137	C	-0.081252	-1.165357	0.388549
C138	C	0.168748	-0.915357	0.638549
C139	C	0.418748	-0.665357	0.888549
C140	C	0.668748	-0.415357	1.138549
C141	C	-0.356739	-1.375480	0.388513
C142	C	-0.106739	-1.125480	0.638513
C143	C	0.143261	-0.875480	0.888513
C144	C	0.393261	-0.625480	1.138513
C145	C	-0.356744	-1.465101	0.388523
C146	C	-0.106744	-1.215101	0.638523
C147	C	0.143256	-0.965101	0.888523
C148	C	0.393256	-0.715101	1.138523
C149	C	-0.356736	-0.537884	0.388511
C150	C	-0.106736	-0.287884	0.638511
C151	C	0.143264	-0.037884	0.888511
C152	C	0.393264	0.212116	1.138511
C153	C	-0.356732	-0.629192	0.388499
C154	C	-0.106732	-0.379192	0.638499
C155	C	0.143268	-0.129192	0.888499
C156	C	0.393268	0.120808	1.138499
C157	C	-0.356734	-0.701969	0.388494
C158	C	-0.106734	-0.451969	0.638494
C159	C	0.143266	-0.201969	0.888494
C160	C	0.393266	0.048031	1.138494
C161	C	-0.356729	-0.793283	0.388483
C162	C	-0.106729	-0.543283	0.638483
C163	C	0.143271	-0.293283	0.888483
C164	C	0.393271	-0.043283	1.138483
C165	C	-0.356730	-1.165165	0.178999
C166	C	-0.106730	-0.915165	0.428999
C167	C	0.143270	-0.665165	0.678999
C168	C	0.393270	-0.415165	0.928999
C169	C	-0.356545	-1.165299	0.089378
C170	C	-0.106545	-0.915299	0.339378
C171	C	0.143455	-0.665299	0.589378
C172	C	0.393455	-0.415299	0.839378
C173	C	-0.356567	-1.165283	1.016596
C174	C	-0.106567	-0.915283	1.266596
C175	C	0.143433	-0.665283	1.516596
C176	C	0.393433	-0.415283	1.766596
C177	C	-0.356592	-1.165271	0.925287
C178	C	-0.106592	-0.915271	1.175287
C179	C	0.143408	-0.665271	1.425287
C180	C	0.393408	-0.415271	1.675287
C181	C	-0.356609	-1.165265	0.852511
C182	C	-0.106609	-0.915265	1.102511
C183	C	0.143391	-0.665265	1.352511
C184	C	0.393391	-0.415265	1.602511
C185	C	-0.356633	-1.165252	0.761197
C186	C	-0.106633	-0.915252	1.011197
C187	C	0.143367	-0.665252	1.261197
C188	C	0.393367	-0.415252	1.511197
H189	H	-0.792547	-1.117214	0.513803
H190	H	-0.542547	-0.867214	0.763803
H191	H	-0.292547	-0.617214	1.013803
H192	H	-0.042547	-0.367214	1.263803
H193	H	-0.919135	-1.296871	0.364802
H194	H	-0.669135	-1.046871	0.614802
H195	H	-0.419135	-0.796871	0.864802
H196	H	-0.169135	-0.546871	1.114802
Cl197	Cl	-0.781796	-1.276854	0.508715
Cl198	Cl	-0.531796	-1.026854	0.758715
Cl199	Cl	-0.281796	-0.776854	1.008715
Cl200	Cl	-0.031796	-0.526854	1.258715
Cl201	Cl	-0.930955	-1.125112	0.548589
Cl202	Cl	-0.680955	-0.875112	0.798589
Cl203	Cl	-0.430955	-0.625112	1.048589
Cl204	Cl	-0.180955	-0.375112	1.298589
Cl205	Cl	-0.780170	-1.325346	0.347045
Cl206	Cl	-0.530170	-1.075346	0.597045
Cl207	Cl	-0.280170	-0.825346	0.847045
Cl208	Cl	-0.030170	-0.575346	1.097045
H209	H	-0.793190	-1.039595	0.436373
H210	H	-0.543190	-0.789595	0.686373
H211	H	-0.293190	-0.539595	0.936373
H212	H	-0.043190	-0.289595	1.186373
Cl213	Cl	-0.932575	-1.006097	0.429024
Cl214	Cl	-0.682575	-0.756097	0.679024
Cl215	Cl	-0.432575	-0.506097	0.929024
Cl216	Cl	-0.182575	-0.256097	1.179024
Cl217	Cl	-0.929909	-1.045507	0.275433
Cl218	Cl	-0.679909	-0.795507	0.525433
Cl219	Cl	-0.429909	-0.545507	0.775433
Cl220	Cl	-0.179909	-0.295507	1.025433
Cl221	Cl	-0.930948	-1.208623	0.229594
Cl222	Cl	-0.680948	-0.958623	0.479594
Cl223	Cl	-0.430948	-0.708623	0.729594
Cl224	Cl	-0.180948	-0.458623	0.979594
Cl225	Cl	-0.780305	-1.046924	0.274546
Cl226	Cl	-0.530305	-0.796924	0.524546
Cl227	Cl	-0.280305	-0.546924	0.774546
Cl228	Cl	-0.030305	-0.296924	1.024546
Cl229	Cl	-0.781865	-1.209864	0.229713
Cl230	Cl	-0.531865	-0.959864	0.479713
Cl231	Cl	-0.281865	-0.709864	0.729713
Cl232	Cl	-0.031865	-0.459864	0.979713
H233	H	-0.920433	-1.271540	0.471205
H234	H	-0.670433	-1.021540	0.721205
H235	H	-0.420433	-0.771540	0.971205
H236	H	-0.170433	-0.521540	1.221205
