data_functionalizedCrystal
_audit_creation_method	'MofGen! by Chris Wilmer'
_symmetry_space_group_name_H-M	'P1'
_symmetry_Int_Tables_number	1
_symmetry_cell_setting	triclinic
loop_
_symmetry_equiv_pos_as_xyz
  x,y,z
_cell_length_a	14.908183
_cell_length_b	21.295418
_cell_length_c	14.908308
_cell_angle_alpha	86.746315
_cell_angle_beta	89.779152
_cell_angle_gamma	86.668613
loop_
_atom_site_label
_atom_site_type_symbol
_atom_site_fract_x
_atom_site_fract_y
_atom_site_fract_z
Zn1	Zn	-0.386929	-0.927129	-0.488292
Zn2	Zn	-0.528639	-0.927763	-0.329256
Zn3	Zn	-0.378330	-0.828266	-0.337890
Zn4	Zn	-0.537302	-0.816143	-0.479498
O5	O	-0.457800	-0.874825	-0.408734
O6	O	-0.405701	-1.015300	-0.467263
O7	O	-0.501476	-0.919903	-0.204580
O8	O	-0.253635	-0.846188	-0.365135
O9	O	-0.509814	-1.015766	-0.350419
O10	O	-0.259952	-0.918822	-0.475635
O11	O	-0.391045	-0.846803	-0.210923
O12	O	-0.399445	-0.738570	-0.356608
O13	O	-0.524579	-0.825526	-0.606486
O14	O	-0.516240	-0.729663	-0.460647
O15	O	-0.414101	-0.907067	-0.612947
O16	O	-0.655624	-0.908148	-0.341892
O17	O	-0.661988	-0.826141	-0.452275
C18	C	-0.457850	-0.711276	-0.408610
C19	C	-0.457894	-0.641308	-0.408578
C20	C	-0.518783	-0.603821	-0.462657
C21	C	-0.518767	-0.538077	-0.462692
C22	C	-0.457870	-0.509824	-0.408630
C23	C	-0.396970	-0.547319	-0.354548
C24	C	-0.396982	-0.613061	-0.354521
N25	N	-0.446316	-0.410169	-0.330385
N26	N	-0.446310	-0.347716	-0.330412
C27	C	-0.457829	-0.311748	-0.408708
N28	N	-0.469372	-0.340590	-0.486976
N29	N	-0.469383	-0.403048	-0.486947
C30	C	-0.457850	-0.438538	-0.408653
C31	C	-0.518703	-0.202974	-0.462830
C32	C	-0.518681	-0.137230	-0.462866
C33	C	-0.396889	-0.146473	-0.354714
C34	C	-0.396907	-0.212216	-0.354686
C35	C	-0.457819	-0.240463	-0.408742
C36	C	-0.691435	-0.865914	-0.395212
C37	C	-0.791387	-0.862158	-0.389457
C38	C	-0.929048	-0.819083	-0.323767
C39	C	-0.835134	-0.822610	-0.329172
C40	C	-0.841561	-0.898182	-0.444342
C41	C	-0.935475	-0.894655	-0.438937
C42	C	-0.979215	-0.855105	-0.378646
C43	C	-1.073130	-0.851583	-0.373237
C44	C	-1.079555	-0.927150	-0.488411
C45	C	-0.985641	-0.930677	-0.493816
C46	C	-0.223253	-0.883787	-0.422329
C47	C	-0.123304	-0.887606	-0.428122
C48	C	-0.471265	-0.864874	-0.643253
C49	C	-0.477003	-0.860633	-0.743190
C50	C	-0.457764	-0.039013	-0.408832
C51	C	-0.457783	-0.108981	-0.408805
C52	C	-0.372724	-0.937572	-0.937715
C53	C	-0.378112	-0.933590	-1.031616
C54	C	-0.493163	-0.848684	-1.024895
C55	C	-0.487775	-0.852666	-0.930994
C56	C	-0.427554	-0.897112	-0.887407
C57	C	-0.422171	-0.901097	-0.793505
C58	C	-0.537216	-0.816189	-0.786786
C59	C	-0.542605	-0.812206	-0.880686
C60	C	-0.444322	-0.884776	-0.175132
C61	C	-0.438331	-0.889148	-0.075209
H62	H	-0.347397	-0.643584	-0.310483
N63	N	-0.940972	-0.971084	-0.555393
N64	N	-0.985778	-1.003247	-0.604382
H65	H	-0.954232	-1.031788	-0.647871
H66	H	-0.568381	-0.626814	-0.506675
H67	H	-0.347329	-0.242739	-0.310643
H68	H	-1.108741	-0.819380	-0.324144
H69	H	-0.805936	-0.930377	-0.493435
H70	H	-1.120411	-0.956484	-0.533095
H71	H	-0.568297	-0.225973	-0.506850
N72	N	-0.311216	-0.982964	-0.893173
N73	N	-0.306412	-0.986512	-0.809333
H74	H	-0.262971	-1.018571	-0.777874
N75	N	-0.360646	-0.946493	-0.748995
N76	N	-0.278275	-0.945035	-0.764290
H77	H	-0.234817	-0.977096	-0.732858
H78	H	-0.333462	-0.966535	-1.072573
N79	N	-0.554656	-0.803284	-1.069441
N80	N	-0.559448	-0.799732	-1.153281
H81	H	-0.602877	-0.767667	-1.184744
N82	N	-0.593212	-0.774853	-0.735387
N83	N	-0.558580	-0.738171	-0.684794
H84	H	-0.598125	-0.708977	-0.648494
H85	H	-0.568262	-0.106708	-0.506910
N86	N	-0.604096	-0.766800	-0.925223
N87	N	-0.575466	-0.725676	-0.979421
H88	H	-0.618893	-0.693606	-1.010877
N89	N	-0.580982	-0.499785	-0.517928
N90	N	-0.663598	-0.504191	-0.507012
H91	H	-0.707540	-0.477149	-0.546021
N92	N	-0.334766	-0.518452	-0.299337
N93	N	-0.334763	-0.459754	-0.299367
H94	H	-0.290827	-0.439366	-0.260376
N95	N	-0.973717	-0.778704	-0.262155
N96	N	-0.928913	-0.746557	-0.213141
H97	H	-0.960458	-0.718043	-0.169618
N98	N	-0.334670	-0.117633	-0.299492
N99	N	-0.252055	-0.127918	-0.310392
H100	H	-0.208107	-0.107549	-0.271392
N101	N	-0.783903	-0.785807	-0.273113
N102	N	-0.822972	-0.750497	-0.219293
H103	H	-0.786791	-0.724501	-0.179699
