data_functionalizedCrystal
_audit_creation_method	'MofGen! by Chris Wilmer'
_symmetry_space_group_name_H-M	'P1'
_symmetry_Int_Tables_number	1
_symmetry_cell_setting	triclinic
loop_
_symmetry_equiv_pos_as_xyz
  x,y,z
_cell_length_a	15.944493
_cell_length_b	15.944493
_cell_length_c	13.448316
_cell_angle_alpha	89.999270
_cell_angle_beta	89.993805
_cell_angle_gamma	83.475044
loop_
_atom_site_label
_atom_site_type_symbol
_atom_site_fract_x
_atom_site_fract_y
_atom_site_fract_z
O1	O	1.114535	0.108105	-0.082666
O2	O	1.614535	0.608105	0.417334
O3	O	0.869975	0.121512	-0.082669
O4	O	1.369975	0.621512	0.417331
O5	O	0.998959	-0.007471	-0.082675
O6	O	1.498959	0.492529	0.417325
O7	O	0.985551	0.237088	-0.082659
O8	O	1.485551	0.737088	0.417341
O9	O	0.998943	-0.007479	0.082708
O10	O	1.498943	0.492521	0.582708
O11	O	0.869959	0.121505	0.082715
O12	O	1.369959	0.621505	0.582715
O13	O	1.114518	0.108097	0.082718
O14	O	1.614518	0.608097	0.582718
Cu15	Cu	0.992237	0.114800	0.097818
Cu16	Cu	1.492237	0.614800	0.597818
Cu17	Cu	0.992256	0.114809	-0.097768
Cu18	Cu	1.492256	0.614809	0.402232
O19	O	0.985535	0.237080	0.082725
O20	O	1.485535	0.737080	0.582725
C21	C	0.838673	0.120961	0.000022
C22	C	1.338673	0.620961	0.500022
C23	C	0.745424	0.119318	0.000021
C24	C	1.245424	0.619318	0.500021
C25	C	0.509649	0.195240	0.000025
C26	C	1.009649	0.695240	0.500025
C27	C	0.459091	0.154294	0.081569
C28	C	0.959091	0.654294	0.581569
C29	C	0.574704	0.116273	0.000022
C30	C	1.074704	0.616273	0.500022
C31	C	0.459111	0.154283	-0.081486
C32	C	0.959111	0.654283	0.418514
C33	C	0.409795	0.113339	0.000020
C34	C	0.909795	0.613339	0.500020
C35	C	0.525374	0.075349	0.081634
C36	C	1.025374	0.575349	0.581634
C37	C	0.525398	0.075350	-0.081495
C38	C	1.025398	0.575350	0.418505
C39	C	0.474873	0.034346	0.000070
C40	C	0.974873	0.534346	0.500070
C41	C	0.669704	0.117966	0.000025
C42	C	1.169704	0.617966	0.500025
C43	C	0.314798	0.111640	0.000024
C44	C	0.814798	0.611640	0.500024
C45	C	0.998403	-0.038769	0.000012
C46	C	1.498403	0.461231	0.500012
C47	C	0.996760	-0.132018	-0.000000
C48	C	1.496760	0.367982	0.500000
C49	C	1.072682	-0.367793	0.000020
C50	C	1.572682	0.132207	0.500020
C51	C	1.031748	-0.418349	-0.081523
C52	C	1.531748	0.081651	0.418477
C53	C	0.993716	-0.302738	0.000012
C54	C	1.493716	0.197262	0.500012
C55	C	1.031714	-0.418333	0.081532
C56	C	1.531714	0.081667	0.581532
C57	C	0.990781	-0.467647	0.000028
C58	C	1.490781	0.032353	0.500028
C59	C	0.952803	-0.352065	-0.081598
C60	C	1.452803	0.147935	0.418402
C61	C	0.952780	-0.352046	0.081530
C62	C	1.452780	0.147954	0.581530
C63	C	0.911788	-0.402569	-0.000032
C64	C	1.411788	0.097431	0.499968
C65	C	0.995408	-0.207739	0.000002
C66	C	1.495408	0.292261	0.500002
C67	C	0.989082	-0.562644	0.000031
C68	C	1.489082	-0.062644	0.500031
C69	C	1.145821	0.108649	0.000025
C70	C	1.645821	0.608649	0.500025
C71	C	1.239069	0.110292	0.000020
C72	C	1.739069	0.610292	0.500020
C73	C	0.986091	0.268379	0.000035
C74	C	1.486091	0.768379	0.500035
C75	C	0.987734	0.361627	0.000041
C76	C	1.487734	0.861627	0.500041
N77	N	0.992230	0.114793	0.235382
N78	N	1.492230	0.614793	0.735382
N79	N	0.992270	0.114810	-0.235332
N80	N	1.492270	0.614810	0.264668
C81	C	1.049361	0.057703	0.287419
C82	C	1.549361	0.557703	0.787419
C83	C	1.049367	0.057702	0.391523
C84	C	1.549367	0.557702	0.891523
C85	C	0.992244	0.114796	0.443586
C86	C	1.492244	0.614796	0.943586
C87	C	0.935106	0.171889	0.391542
C88	C	1.435106	0.671889	0.891542
C89	C	0.935098	0.171885	0.287440
C90	C	1.435098	0.671885	0.787440
C91	C	0.935130	0.171895	0.608522
C92	C	1.435130	0.671895	1.108522
C93	C	0.935139	0.171900	0.712630
C94	C	1.435139	0.671900	1.212630
C95	C	1.049399	0.057712	0.712604
C96	C	1.549399	0.557712	1.212604
C97	C	1.049390	0.057708	0.608503
C98	C	1.549390	0.557708	1.108503
C99	C	0.992253	0.114802	0.556465
C100	C	1.492253	0.614802	1.056465
H101	H	0.430173	0.187652	-0.150416
H102	H	0.930173	0.687652	0.349584
C103	C	1.164572	-0.346695	-0.000089
C104	C	1.664572	0.153305	0.499911
N105	N	1.233782	-0.330802	-0.000175
N106	N	1.733782	0.169198	0.499825
H107	H	0.525258	0.263261	0.000106
H108	H	1.025258	0.763261	0.500106
H109	H	1.065072	-0.447274	0.150466
H110	H	1.565072	0.052726	0.650466
H111	H	0.554202	0.042017	0.150642
H112	H	1.054202	0.542017	0.650642
H113	H	0.919480	-0.323235	-0.150610
H114	H	1.419480	0.176765	0.349390
C115	C	0.419970	0.199344	0.174703
C116	C	0.919970	0.699344	0.674703
N117	N	0.390504	0.233281	0.244846
N118	N	0.890504	0.733281	0.744846
H119	H	0.843715	-0.418021	-0.000078
H120	H	1.343715	0.081979	0.499922
C121	C	0.453989	-0.057614	0.000130
C122	C	0.953989	0.442386	0.500130
N123	N	0.438255	-0.126877	0.000181
N124	N	0.938255	0.373123	0.500181
C125	C	0.907753	-0.312921	0.174669
C126	C	1.407753	0.187079	0.674669
N127	N	0.873843	-0.283454	0.244829
N128	N	1.373843	0.216546	0.744829
H129	H	1.065104	-0.447298	-0.150462
H130	H	1.565104	0.052702	0.349538
H131	H	0.888623	0.218392	0.755015
H132	H	1.388623	0.718392	1.255015
C133	C	0.872255	0.234696	0.230200
C134	C	1.372255	0.734696	0.730200
N135	N	0.824921	0.282007	0.187087
N136	N	1.324921	0.782007	0.687087
H137	H	0.554358	0.042029	-0.150441
H138	H	1.054358	0.542029	0.349559
H139	H	1.095881	0.011213	0.245036
H140	H	1.595881	0.511213	0.745036
C141	C	1.112196	-0.005122	0.448759
C142	C	1.612196	0.494878	0.948759
N143	N	1.159514	-0.052452	0.491869
N144	N	1.659514	0.447548	0.991869
H145	H	1.095908	0.011221	0.566112
H146	H	1.595908	0.511221	1.066112
C147	C	1.112247	-0.005096	0.769847
C148	C	1.612247	0.494904	1.269847
N149	N	1.159584	-0.052399	0.812967
N150	N	1.659584	0.447601	1.312967
C151	C	0.872267	0.234693	0.551283
C152	C	1.372267	0.734693	1.051283
N153	N	0.824920	0.281992	0.508171
N154	N	1.324920	0.781992	1.008171
H155	H	0.888591	0.218374	0.433938
H156	H	1.388591	0.718374	0.933938
