data_functionalizedCrystal
_audit_creation_method	'MofGen! by Chris Wilmer'
_symmetry_space_group_name_H-M	'P1'
_symmetry_Int_Tables_number	1
_symmetry_cell_setting	triclinic
loop_
_symmetry_equiv_pos_as_xyz
  x,y,z
_cell_length_a	19.121449
_cell_length_b	10.686220
_cell_length_c	10.686551
_cell_angle_alpha	90.308082
_cell_angle_beta	97.024737
_cell_angle_gamma	87.843996
loop_
_atom_site_label
_atom_site_type_symbol
_atom_site_fract_x
_atom_site_fract_y
_atom_site_fract_z
Zn1	Zn	-0.171316	-1.984276	0.548325
Zn2	Zn	-0.298504	-1.976946	0.328128
Zn3	Zn	-0.189292	-1.759652	0.353168
Zn4	Zn	-0.297079	-1.783277	0.554022
O5	O	-0.239048	-1.876038	0.445911
O6	O	-0.181261	-2.158361	0.506252
O7	O	-0.292135	-1.935167	0.155238
O8	O	-0.088570	-1.782629	0.387150
O9	O	-0.274705	-2.152976	0.344474
O10	O	-0.075363	-1.947659	0.530532
O11	O	-0.211898	-1.775522	0.173634
O12	O	-0.210517	-1.587729	0.392675
O13	O	-0.272278	-1.822894	0.729479
O14	O	-0.289708	-1.605086	0.540242
O15	O	-0.179880	-1.970567	0.725293
O16	O	-0.396652	-1.958076	0.349998
O17	O	-0.395606	-1.815787	0.515962
C18	C	-0.251909	-1.551017	0.469794
C19	C	-0.257427	-1.411975	0.480040
C20	C	-0.421624	-1.888736	0.430906
C21	C	-0.499725	-1.894286	0.424521
C22	C	-0.535903	-1.822752	0.507867
C23	C	-0.609287	-1.827971	0.501862
C24	C	-0.646491	-1.904733	0.412516
C25	C	-0.610308	-1.976269	0.329161
C26	C	-0.536926	-1.971042	0.335161
C27	C	-0.868083	-1.924219	0.390074
C28	C	-0.941470	-1.929443	0.384083
C29	C	-0.940443	-1.781143	0.556783
C30	C	-0.867060	-1.775928	0.562780
C31	C	-0.830884	-1.847460	0.479421
C32	C	-0.721501	-1.910073	0.406378
C33	C	-0.755876	-1.842112	0.485554
C34	C	-0.223915	-1.900184	0.774353
C35	C	-0.217466	-1.910473	0.914316
C36	C	-0.055756	-1.863326	0.460999
C37	C	0.022352	-1.857909	0.467429
C38	C	-0.226137	-2.202328	0.421935
C39	C	-0.220635	-2.341373	0.411717
C40	C	-0.254068	-1.852054	0.118745
C41	C	-0.260309	-1.841993	-0.021218
H42	H	-0.505616	-1.760250	0.580627
H43	H	-0.301925	-1.775497	0.926898
C44	C	-0.161994	-1.999032	0.983727
C45	C	-0.166392	-1.991947	1.113411
C46	C	-0.115297	-2.073493	1.177393
H47	H	-0.169875	-2.082295	0.955361
H48	H	-0.116465	-1.975873	0.967539
H49	H	-0.211911	-2.015114	1.129590
H50	H	-0.158504	-1.908703	1.141813
H51	H	-0.069767	-2.050333	1.161205
H52	H	-0.123182	-2.156750	1.149017
H53	H	-0.118269	-2.068688	1.265390
C54	C	-0.981743	-2.012814	0.286938
C55	C	-0.934358	-2.074314	0.215196
C56	C	-0.971433	-2.151110	0.125691
H57	H	-1.005953	-2.072965	0.328664
H58	H	-1.014819	-1.963027	0.233142
H59	H	-0.901294	-2.124098	0.268984
H60	H	-0.910146	-2.014194	0.173441
H61	H	-1.004509	-2.101323	0.071896
H62	H	-0.995642	-2.211253	0.167429
H63	H	-0.939289	-2.192838	0.076996
C64	C	-0.173112	-1.402764	0.323176
C65	C	-0.213610	-1.474621	0.233645
C66	C	-0.169855	-1.531214	0.152069
H67	H	-0.150753	-1.339964	0.281555
H68	H	-0.138322	-1.455233	0.370196
H69	H	-0.248387	-1.422155	0.186630
H70	H	-0.235969	-1.537441	0.275229
H71	H	-0.135065	-1.583684	0.199090
H72	H	-0.147498	-1.468406	0.110458
H73	H	-0.197325	-1.579984	0.091320
H74	H	-0.725583	-1.779608	0.558295
H75	H	-0.638740	-1.769708	0.569721
C76	C	-0.826800	-1.692441	0.659816
C77	C	-0.874194	-1.630877	0.731496
C78	C	-0.837134	-1.553943	0.820883
H79	H	-0.793707	-1.742100	0.713678
H80	H	-0.802614	-1.632334	0.617956
H81	H	-0.898368	-1.690976	0.773353
H82	H	-0.907288	-1.581196	0.677668
H83	H	-0.812947	-1.493836	0.779024
H84	H	-0.804041	-1.603611	0.874737
H85	H	-0.869285	-1.512154	0.869521
H86	H	-0.751800	-1.972573	0.333633
C87	C	-0.979801	-1.703689	0.647324
C88	C	-1.015365	-1.783384	0.719433
C89	C	-1.051635	-1.712071	0.802841
H90	H	-0.947210	-1.657209	0.701509
H91	H	-1.012883	-1.647745	0.600796
H92	H	-0.982286	-1.839306	0.765957
H93	H	-1.047967	-1.829865	0.665282
H94	H	-1.084718	-1.656126	0.756313
H95	H	-1.019040	-1.665593	0.857017
H96	H	-1.075775	-1.766131	0.851768
C97	C	-0.828706	-2.001967	0.299789
C98	C	-0.780043	-2.084306	0.368715
C99	C	-0.743746	-2.155938	0.285586
H100	H	-0.861288	-2.048547	0.245690
H101	H	-0.804500	-1.948117	0.250753
H102	H	-0.804248	-2.138150	0.417730
H103	H	-0.747447	-2.037759	0.422810
H104	H	-0.719539	-2.102088	0.236550
H105	H	-0.776333	-2.202510	0.231492
H106	H	-0.710719	-2.211805	0.332341
C107	C	-0.497768	-2.048849	0.244601
C108	C	-0.546052	-2.117217	0.165091
C109	C	-0.510006	-2.188915	0.081653
H110	H	-0.473602	-1.995093	0.195427
H111	H	-0.464735	-2.104886	0.291117
H112	H	-0.579072	-2.061186	0.118578
H113	H	-0.570220	-2.170997	0.214229
H114	H	-0.476973	-2.244952	0.128170
H115	H	-0.485841	-2.135149	0.032489
H116	H	-0.542760	-2.235320	0.027704
C117	C	-0.304999	-1.350509	0.568468
C118	C	-0.301185	-1.220194	0.561424
C119	C	-0.344989	-1.163532	0.642875
H120	H	-0.352246	-1.373649	0.544557
H121	H	-0.290042	-1.377317	0.652421
H122	H	-0.316144	-1.193397	0.477489
H123	H	-0.253948	-1.197019	0.585345
H124	H	-0.330033	-1.190340	0.726828
H125	H	-0.392233	-1.186681	0.618957
H126	H	-0.342402	-1.075108	0.638115
H127	H	-0.640606	-2.038764	0.256408
