data_functionalizedCrystal
_audit_creation_method	'MofGen! by Chris Wilmer'
_symmetry_space_group_name_H-M	'P1'
_symmetry_Int_Tables_number	1
_symmetry_cell_setting	triclinic
loop_
_symmetry_equiv_pos_as_xyz
  x,y,z
_cell_length_a	14.971486
_cell_length_b	15.500227
_cell_length_c	14.971486
_cell_angle_alpha	87.168664
_cell_angle_beta	83.614129
_cell_angle_gamma	92.842940
loop_
_atom_site_label
_atom_site_type_symbol
_atom_site_fract_x
_atom_site_fract_y
_atom_site_fract_z
O1	O	1.191095	0.071845	0.112420
O2	O	0.930696	0.071868	0.126378
O3	O	1.067875	0.071850	-0.010801
O4	O	1.053917	0.071863	0.249599
O5	O	1.059550	-0.072038	-0.002509
O6	O	0.922372	-0.072019	0.134670
O7	O	1.182771	-0.072043	0.120712
Cu8	Cu	1.051811	-0.085169	0.128448
Cu9	Cu	1.061656	0.084995	0.118642
O10	O	1.045592	-0.072024	0.257890
C11	C	0.893210	-0.000073	0.129899
C12	C	0.793913	-0.000064	0.128028
N13	N	1.044894	-0.204853	0.135344
C14	C	0.736688	-0.000061	0.208617
C15	C	0.643388	-0.000074	0.206855
C16	C	0.607315	-0.000083	0.124502
C17	C	0.664547	-0.000089	0.043907
C18	C	0.757845	-0.000082	0.045671
C19	C	0.470084	-0.000101	0.040237
C20	C	0.376780	-0.000106	0.038472
C21	C	0.355627	-0.000093	0.201421
C22	C	0.448925	-0.000086	0.203184
C23	C	0.506151	-0.000090	0.122589
C24	C	1.103041	-0.250138	0.077238
C25	C	1.097818	-0.340710	0.082462
C26	C	1.034451	-0.385996	0.145797
C27	C	0.976297	-0.340705	0.203905
C28	C	0.981517	-0.250134	0.198676
C29	C	1.015647	-0.659460	0.164618
C30	C	1.010433	-0.750037	0.169845
C31	C	1.131953	-0.750036	0.048400
C32	C	1.137171	-0.659463	0.043180
C33	C	1.079015	-0.614180	0.101285
C34	C	1.029112	-0.478575	0.151140
C35	C	1.084350	-0.521603	0.095937
C36	C	1.220258	-0.000100	0.117191
C37	C	1.319555	-0.000103	0.119061
C38	C	1.063088	-0.000094	-0.039979
C39	C	1.061218	-0.000093	-0.139277
N40	N	1.068581	0.204679	0.111739
C41	C	1.141807	-0.000101	-0.196501
C42	C	1.140044	-0.000092	-0.289801
C43	C	1.057691	-0.000081	-0.325874
C44	C	0.977096	-0.000071	-0.268642
C45	C	0.978860	-0.000073	-0.175344
C46	C	0.973426	-0.000067	-0.463105
C47	C	0.971661	-0.000066	-0.556409
C48	C	1.134609	-0.000086	-0.577562
C49	C	1.136373	-0.000088	-0.484264
C50	C	1.055778	-0.000080	-0.427038
C51	C	1.050379	-0.000079	0.287069
C52	C	1.052250	-0.000074	0.386366
H53	H	0.766051	-0.000052	0.275678
H54	H	1.203431	-0.000103	-0.454897
H55	H	1.208867	-0.000115	-0.167138
H56	H	1.154645	-0.213272	0.025668
H57	H	1.200233	-0.000090	-0.624160
H58	H	0.977518	-0.515454	0.202710
H59	H	1.135940	-0.484728	0.044367
H60	H	1.188770	-0.622593	-0.008392
H61	H	1.205667	-0.000100	-0.336391
H62	H	0.904602	-0.000072	-0.585775
H63	H	0.347413	-0.000115	-0.028586
H64	H	0.804438	-0.000084	-0.019953
H65	H	0.913237	-0.000067	-0.128752
H66	H	0.907796	-0.000058	-0.416514
H67	H	0.596798	-0.000070	0.272479
H68	H	0.478292	-0.000070	0.270243
H69	H	0.910044	-0.000057	-0.298020
H70	H	0.309028	-0.000093	0.267045
H71	H	0.516676	-0.000106	-0.025393
H72	H	1.145165	-0.377580	0.035147
H73	H	1.179301	-0.786913	0.001092
H74	H	0.635169	-0.000109	-0.023145
H75	H	0.958829	-0.786905	0.221423
H76	H	0.924697	-0.377582	0.255471
H77	H	0.968295	-0.622598	0.211932
H78	H	0.934166	-0.213265	0.245991
