data_functionalizedCrystal
_audit_creation_method	'MofGen! by Chris Wilmer'
_symmetry_space_group_name_H-M	'P1'
_symmetry_Int_Tables_number	1
_symmetry_cell_setting	triclinic
loop_
_symmetry_equiv_pos_as_xyz
  x,y,z
_cell_length_a	16.992694
_cell_length_b	19.288865
_cell_length_c	17.766277
_cell_angle_alpha	90.011603
_cell_angle_beta	90.003596
_cell_angle_gamma	86.902236
loop_
_atom_site_label
_atom_site_type_symbol
_atom_site_fract_x
_atom_site_fract_y
_atom_site_fract_z
O1	O	-1.039877	-0.147253	-0.062515
O2	O	-0.539877	0.352747	0.437485
O3	O	-0.811597	-0.145638	-0.062537
O4	O	-0.311597	0.354362	0.437463
O5	O	-0.932333	-0.045700	-0.062510
O6	O	-0.432333	0.454300	0.437490
O7	O	-0.919141	-0.247191	-0.062541
O8	O	-0.419141	0.252809	0.437459
O9	O	-0.932312	-0.045693	0.062678
O10	O	-0.432312	0.454307	0.562678
O11	O	-0.811576	-0.145631	0.062652
O12	O	-0.311576	0.354369	0.562652
O13	O	-1.039855	-0.147247	0.062674
O14	O	-0.539855	0.352753	0.562674
Cu15	Cu	-0.925714	-0.146438	0.074094
Cu16	Cu	-0.425714	0.353562	0.574094
Cu17	Cu	-0.925739	-0.146446	-0.073956
Cu18	Cu	-0.425739	0.353554	0.426044
O19	O	-0.919119	-0.247185	0.062647
O20	O	-0.419119	0.252815	0.562647
C21	C	-0.931898	-0.019795	0.000086
C22	C	-0.431898	0.480205	0.500086
C23	C	-0.930624	0.057383	0.000093
C24	C	-0.430624	0.557383	0.500093
C25	C	-0.782381	-0.143556	0.000055
C26	C	-0.282381	0.356444	0.500055
C27	C	-0.695359	-0.137355	0.000047
C28	C	-0.195359	0.362645	0.500047
C29	C	-1.069071	-0.149328	0.000080
C30	C	-0.569071	0.350672	0.500080
C31	C	-1.156093	-0.155529	0.000083
C32	C	-0.656093	0.344471	0.500083
C33	C	-0.644907	-0.197184	0.000039
C34	C	-0.144907	0.302816	0.500039
C35	C	-0.563141	-0.191353	0.000050
C36	C	-0.063141	0.308647	0.500050
C37	C	-0.531829	-0.125694	0.000064
C38	C	-0.031829	0.374306	0.500064
C39	C	-0.582287	-0.065862	0.000075
C40	C	-0.082287	0.434138	0.500075
C41	C	-0.664051	-0.071693	0.000069
C42	C	-0.164051	0.428307	0.500069
C43	C	-0.288316	-0.101527	0.000088
C44	C	0.211684	0.398473	0.500088
C45	C	-0.206545	-0.095701	0.000092
C46	C	0.293455	0.404299	0.500092
C47	C	-0.187405	-0.221193	0.000068
C48	C	0.312595	0.278807	0.500068
C49	C	-0.269172	-0.227018	0.000057
C50	C	0.230828	0.272982	0.500057
C51	C	-0.319623	-0.167186	0.000072
C52	C	0.180377	0.332814	0.500072
N53	N	-0.448251	-0.119733	0.000074
N54	N	0.051749	0.380267	0.500074
N55	N	-0.403199	-0.173147	0.000069
N56	N	0.096801	0.326853	0.500069
C57	C	-0.919555	-0.273089	0.000049
C58	C	-0.419555	0.226911	0.500049
C59	C	-0.920829	-0.350267	0.000038
C60	C	-0.420829	0.149733	0.500038
N61	N	-0.925702	-0.146433	0.178224
N62	N	-0.425702	0.353567	0.678224
C63	C	-1.001466	0.097950	0.000103
C64	C	-0.501466	0.597950	0.500103
C65	C	-1.000269	0.170467	0.000091
C66	C	-0.500269	0.670467	0.500091
C67	C	-0.928225	0.202413	0.000084
C68	C	-0.428225	0.702413	0.500084
C69	C	-0.857374	0.161837	0.000069
C70	C	-0.357374	0.661837	0.500069
C71	C	-0.858573	0.089321	0.000074
C72	C	-0.358573	0.589321	0.500074
C73	C	-0.871583	0.314004	0.043929
C74	C	-0.371583	0.814004	0.543929
C75	C	-0.870387	0.386518	0.043929
C76	C	-0.370387	0.886518	0.543929
C77	C	-0.924524	0.426075	0.000067
C78	C	-0.424524	0.926075	0.500067
C79	C	-0.979870	0.393109	-0.043787
C80	C	-0.479870	0.893109	0.456213
C81	C	-0.981069	0.320594	-0.043782
C82	C	-0.481069	0.820594	0.456218
C83	C	-0.926917	0.281044	0.000079
C84	C	-0.426917	0.781044	0.500079
C85	C	-0.994073	0.545274	0.000063
C86	C	-0.494073	1.045274	0.500063
C87	C	-0.992873	0.617792	0.000046
C88	C	-0.492873	1.117792	0.500046
C89	C	-0.849976	0.609160	0.000032
C90	C	-0.349976	1.109160	0.500032
C91	C	-0.851178	0.536643	0.000041
C92	C	-0.351178	1.036643	0.500041
C93	C	-0.923229	0.504705	0.000060
C94	C	-0.423229	1.004705	0.500060
N95	N	-0.925757	-0.146447	-0.178087
N96	N	-0.425757	0.353553	0.321913
C97	C	-0.979181	-0.102204	0.217622
C98	C	-0.479181	0.397796	0.717622
C99	C	-0.979185	-0.102201	0.296424
C100	C	-0.479185	0.397799	0.796424
C101	C	-0.925718	-0.146439	0.335824
C102	C	-0.425718	0.353561	0.835824
C103	C	-0.872229	-0.190671	0.296416
C104	C	-0.372229	0.309329	0.796416
C105	C	-0.872221	-0.190667	0.217616
C106	C	-0.372221	0.309333	0.717616
C107	C	-0.915223	-0.209115	0.460652
C108	C	-0.415223	0.290885	0.960652
C109	C	-0.915237	-0.209120	0.539451
C110	C	-0.415237	0.290880	1.039451
C111	C	-0.925739	-0.146449	0.578871
C112	C	-0.425739	0.353551	1.078871
C113	C	-0.936244	-0.083771	0.539482
C114	C	-0.436244	0.416229	1.039482
C115	C	-0.936236	-0.083768	0.460682
C116	C	-0.436236	0.416232	0.960682
C117	C	-0.925721	-0.146447	0.421270
C118	C	-0.425721	0.353553	0.921270
C119	C	-0.979226	-0.102213	0.703715
C120	C	-0.479226	0.397787	1.203715
C121	C	-0.979225	-0.102209	0.782519
C122	C	-0.479225	0.397791	1.282519
C123	C	-0.872273	-0.190685	0.782509
C124	C	-0.372273	0.309315	1.282509
C125	C	-0.872270	-0.190683	0.703707
C126	C	-0.372270	0.309317	1.203707
C127	C	-0.925751	-0.146448	0.664315
C128	C	-0.425751	0.353552	1.164315
H129	H	-0.670395	-0.250650	0.000026
H130	H	-0.170395	0.249350	0.500026
H131	H	-1.026132	0.293756	-0.079490
H132	H	-0.526132	0.793756	0.420510
H133	H	-0.146320	-0.269905	0.000057
H134	H	0.353680	0.230095	0.500057
H135	H	-1.022736	-0.066184	0.328509
H136	H	-0.522736	0.433816	0.828509
H137	H	-0.828725	-0.226701	0.671627
H138	H	-0.328725	0.273299	1.171627
H139	H	-0.522066	-0.240072	0.000042
H140	H	-0.022066	0.259928	0.500042
H141	H	-1.057959	0.203504	0.000097
H142	H	-0.557959	0.703504	0.500097
H143	H	-0.944788	-0.032734	0.428615
H144	H	-0.444788	0.467266	0.928615
H145	H	-0.944796	-0.032739	0.571576
H146	H	-0.444796	0.467261	1.071576
H147	H	-0.793490	0.503612	0.000037
H148	H	-0.293490	1.003612	0.500037
O149	O	-0.820260	-0.233547	0.334770
O150	O	-0.320260	0.266453	0.834770
C151	C	-0.713130	-0.242330	0.423721
C152	C	-0.213130	0.257670	0.923721
C153	C	-0.771958	-0.193697	0.380347
C154	C	-0.271958	0.306303	0.880347
H155	H	-0.674052	-0.210130	0.460569
H156	H	-0.174052	0.289870	0.960569
H157	H	-0.746812	-0.278910	0.460648
H158	H	-0.246812	0.221090	0.960648
H159	H	-0.674939	-0.273959	0.382009
H160	H	-0.174939	0.226041	0.882009
H161	H	-0.810165	-0.162023	0.422005
H162	H	-0.310165	0.337977	0.922005
H163	H	-0.738229	-0.157163	0.343410
H164	H	-0.238229	0.342837	0.843410
O165	O	-0.819097	0.275515	0.086588
O166	O	-0.319097	0.775515	0.586588
C167	C	-0.800545	0.192503	0.187225
C168	C	-0.300545	0.692503	0.687225
C169	C	-0.860071	0.236037	0.138960
C170	C	-0.360071	0.736037	0.638960
H171	H	-0.833649	0.160585	0.229590
H172	H	-0.333649	0.660585	0.729590
H173	H	-0.763133	0.156204	0.149319
H174	H	-0.263133	0.656204	0.649319
H175	H	-0.760777	0.228534	0.218533
H176	H	-0.260777	0.728534	0.718533
H177	H	-0.899891	0.200059	0.107646
H178	H	-0.399891	0.700059	0.607646
H179	H	-0.897428	0.272343	0.176905
H180	H	-0.397428	0.772343	0.676905
H181	H	-1.023953	0.425315	-0.079504
H182	H	-0.523953	0.925315	0.420496
O183	O	-0.779943	0.640105	0.000124
O184	O	-0.279943	1.140105	0.500124
C185	C	-0.657453	0.654969	0.064985
C186	C	-0.157453	1.154969	0.564985
C187	C	-0.736731	0.619862	0.064971
C188	C	-0.236731	1.119862	0.564971
H189	H	-0.622501	0.638627	0.117416
H190	H	-0.122501	1.138627	0.617416
H191	H	-0.622412	0.638553	0.012627
H192	H	-0.122412	1.138553	0.512627
H193	H	-0.668785	0.713764	0.064945
H194	H	-0.168785	1.213764	0.564945
H195	H	-0.725471	0.561062	0.065038
H196	H	-0.225471	1.061062	0.565038
H197	H	-0.771747	0.636334	0.117325
H198	H	-0.271747	1.136334	0.617325
H199	H	-0.705129	-0.022974	0.000076
H200	H	-0.205129	0.477026	0.500076
H201	H	-0.294660	-0.280485	0.000037
H202	H	0.205340	0.219515	0.500037
O203	O	-0.904990	-0.270060	0.577593
O204	O	-0.404990	0.229940	1.077593
C205	C	-0.884190	-0.394390	0.569244
C206	C	-0.384190	0.105610	1.069244
C207	C	-0.895768	-0.325423	0.525957
C208	C	-0.395768	0.174577	1.025957
H209	H	-0.876747	-0.439171	0.527516
H210	H	-0.376747	0.060829	1.027516
H211	H	-0.829390	-0.393059	0.606127
H212	H	-0.329390	0.106941	1.106127
H213	H	-0.937924	-0.402000	0.606144
H214	H	-0.437924	0.098000	1.106144
H215	H	-0.842078	-0.317770	0.489017
H216	H	-0.342078	0.182230	0.989017
H217	H	-0.950599	-0.326786	0.489122
H218	H	-0.450599	0.173214	0.989122
O219	O	-0.816554	0.418426	0.086545
O220	O	-0.316554	0.918426	0.586545
C221	C	-0.708113	0.404235	0.173576
C222	C	-0.208113	0.904235	0.673576
C223	C	-0.769026	0.368013	0.125333
C224	C	-0.269026	0.868013	0.625333
H225	H	-0.669681	0.363494	0.204961
H226	H	-0.169681	0.863494	0.704961
H227	H	-0.669520	0.435863	0.135650
H228	H	-0.169520	0.935863	0.635650
H229	H	-0.740086	0.440177	0.215873
H230	H	-0.240086	0.940177	0.715873
H231	H	-0.737117	0.332038	0.083031
H232	H	-0.237117	0.832038	0.583031
H233	H	-0.807616	0.336429	0.163306
H234	H	-0.307616	0.836429	0.663306
H235	H	-0.556786	-0.012400	0.000098
H236	H	-0.056786	0.487600	0.500098
O237	O	-0.176258	-0.031862	0.000139
O238	O	0.323742	0.468138	0.500139
C239	C	-0.203866	0.091995	0.000115
C240	C	0.296134	0.591995	0.500115
C241	C	-0.238272	0.019747	0.000084
C242	C	0.261728	0.519747	0.500084
H243	H	-0.253987	0.133740	0.000054
H244	H	0.246013	0.633740	0.500054
H245	H	-0.166087	0.097907	0.052518
H246	H	0.333913	0.597907	0.552518
H247	H	-0.166041	0.097820	-0.052265
H248	H	0.333959	0.597820	0.447735
H249	H	-0.276131	0.013872	0.052428
H250	H	0.223869	0.513872	0.552428
H251	H	-0.276006	0.013867	-0.052354
H252	H	0.223994	0.513867	0.447646
O253	O	-0.337394	-0.043456	-0.000007
O254	O	0.162606	0.456544	0.499993
C255	C	-0.440775	0.022818	-0.064886
C256	C	0.059225	0.522818	0.435114
C257	C	-0.385250	-0.042987	-0.064860
C258	C	0.114750	0.457013	0.435140
H259	H	-0.479469	0.023226	-0.117323
H260	H	0.020531	0.523226	0.382677
H261	H	-0.479588	0.023243	-0.012533
H262	H	0.020412	0.523243	0.487467
H263	H	-0.404326	0.070733	-0.064843
H264	H	0.095674	0.570733	0.435157
H265	H	-0.421636	-0.090937	-0.064930
H266	H	0.078364	0.409063	0.435070
H267	H	-0.346433	-0.043351	-0.117209
H268	H	0.153567	0.456649	0.382791
H269	H	-1.060135	0.071951	0.000116
H270	H	-0.560135	0.571951	0.500116
H271	H	-0.906658	-0.260152	0.428563
H272	H	-0.406658	0.239848	0.928563
H273	H	-0.828671	-0.226684	0.185537
H274	H	-0.328671	0.273316	0.685537
H275	H	-1.050564	0.650821	0.000051
H276	H	-0.550564	1.150821	0.500051
O277	O	-1.064128	0.514355	0.000035
O278	O	-0.564128	1.014355	0.500035
C279	C	-1.205733	0.530568	0.000078
C280	C	-0.705733	1.030568	0.500078
C281	C	-1.126453	0.565670	0.000096
C282	C	-0.626453	1.065670	0.500096
H283	H	-1.256143	0.572041	0.000144
H284	H	-0.756143	1.072041	0.500144
H285	H	-1.209923	0.496844	-0.052323
H286	H	-0.709923	0.996844	0.447677
H287	H	-1.209822	0.496825	0.052460
H288	H	-0.709822	0.996825	0.552460
H289	H	-1.122311	0.599448	-0.052249
H290	H	-0.622311	1.099448	0.447751
H291	H	-1.122296	0.599353	0.052532
H292	H	-0.622296	1.099353	0.552532
O293	O	-0.787440	0.192946	-0.000037
O294	O	-0.287440	0.692946	0.499963
C295	C	-0.703150	0.269764	-0.064930
C296	C	-0.203150	0.769764	0.435070
C297	C	-0.782388	0.234592	-0.064889
C298	C	-0.282388	0.734592	0.435111
H299	H	-0.699032	0.303432	-0.117365
H300	H	-0.199032	0.803432	0.382635
H301	H	-0.698993	0.303555	-0.012576
H302	H	-0.198993	0.803555	0.487424
H303	H	-0.652733	0.228298	-0.064900
H304	H	-0.152733	0.728298	0.435100
H305	H	-0.832850	0.276012	-0.064946
H306	H	-0.332850	0.776012	0.435054
H307	H	-0.786475	0.200787	-0.117239
H308	H	-0.286475	0.700787	0.382761
H309	H	-0.800883	0.056291	0.000065
H310	H	-0.300883	0.556291	0.500065
O311	O	-1.031155	-0.059165	0.179475
O312	O	-0.531155	0.440835	0.679475
C313	C	-1.137268	0.028557	0.187805
C314	C	-0.637268	0.528557	0.687805
C315	C	-1.078441	-0.020138	0.231102
C316	C	-0.578441	0.479862	0.731102
H317	H	-1.175526	0.060113	0.229526
H318	H	-0.675526	0.560113	0.729526
H319	H	-1.103586	0.065196	0.150950
H320	H	-0.603586	0.565196	0.650950
H321	H	-1.176281	-0.003628	0.150875
H322	H	-0.676281	0.496372	0.650875
H323	H	-1.039413	0.011991	0.268073
H324	H	-0.539413	0.511991	0.768073
H325	H	-1.112172	-0.056779	0.267908
H326	H	-0.612172	0.443221	0.767908
H327	H	-1.022771	-0.066192	0.671641
H328	H	-0.522771	0.433808	1.171641
H329	H	-1.022772	-0.066189	0.814598
H330	H	-0.522772	0.433811	1.314598
H331	H	-0.828736	-0.226701	0.814588
H332	H	-0.328736	0.273299	1.314588
