data_functionalizedCrystal
_audit_creation_method	'MofGen! by Chris Wilmer'
_symmetry_space_group_name_H-M	'P1'
_symmetry_Int_Tables_number	1
_symmetry_cell_setting	triclinic
loop_
_symmetry_equiv_pos_as_xyz
  x,y,z
_cell_length_a	12.759401
_cell_length_b	13.897448
_cell_length_c	13.897433
_cell_angle_alpha	89.928482
_cell_angle_beta	89.952141
_cell_angle_gamma	90.019217
loop_
_atom_site_label
_atom_site_type_symbol
_atom_site_fract_x
_atom_site_fract_y
_atom_site_fract_z
Zn1	Zn	1.606524	-0.383555	-0.545365
Zn2	Zn	1.939857	-0.050222	-0.212032
Zn3	Zn	2.273190	0.283111	0.121301
Zn4	Zn	1.606323	-0.544992	-0.384066
Zn5	Zn	1.939656	-0.211659	-0.050733
Zn6	Zn	2.272990	0.121674	0.282600
Zn7	Zn	1.430740	-0.383717	-0.384085
Zn8	Zn	1.764073	-0.050384	-0.050752
Zn9	Zn	2.097407	0.282950	0.282581
Zn10	Zn	1.430805	-0.544814	-0.545321
Zn11	Zn	1.764139	-0.211481	-0.211988
Zn12	Zn	2.097472	0.121852	0.121346
O13	O	1.518598	-0.464270	-0.464710
O14	O	1.851931	-0.130936	-0.131376
O15	O	2.185265	0.202397	0.201957
O16	O	1.753518	-0.404977	-0.523979
O17	O	2.086851	-0.071644	-0.190646
O18	O	2.420185	0.261690	0.142687
O19	O	1.582920	-0.523741	-0.249087
O20	O	1.916254	-0.190408	0.084246
O21	O	2.249587	0.142926	0.417580
O22	O	1.454115	-0.248714	-0.405506
O23	O	1.787448	0.084619	-0.072172
O24	O	2.120781	0.417953	0.261161
O25	O	1.753371	-0.523584	-0.405474
O26	O	2.086704	-0.190251	-0.072140
O27	O	2.420037	0.143083	0.261193
O28	O	1.583262	-0.248595	-0.523998
O29	O	1.916596	0.084738	-0.190664
O30	O	2.249929	0.418072	0.142669
O31	O	1.453920	-0.405253	-0.249101
O32	O	1.787253	-0.071919	0.084232
O33	O	2.120587	0.261414	0.417566
O34	O	1.283728	-0.405080	-0.405463
O35	O	1.617061	-0.071747	-0.072130
O36	O	1.950394	0.261586	0.261204
O37	O	1.454226	-0.523281	-0.680309
O38	O	1.787559	-0.189948	-0.346976
O39	O	2.120893	0.143386	-0.013642
O40	O	1.283775	-0.523438	-0.523922
O41	O	1.617109	-0.190104	-0.190589
O42	O	1.950442	0.143229	0.142744
O43	O	1.583326	-0.404805	-0.680341
O44	O	1.916659	-0.071471	-0.347008
O45	O	2.249992	0.261862	-0.013675
O46	O	1.582984	-0.679950	-0.405431
O47	O	1.916317	-0.346617	-0.072098
O48	O	2.249650	-0.013284	0.261236
O49	O	1.454031	-0.679820	-0.523904
O50	O	1.787365	-0.346486	-0.190571
O51	O	2.120698	-0.013153	0.142763
C52	C	1.245631	-0.464258	-0.464690
C53	C	1.578964	-0.130925	-0.131357
C54	C	1.912297	0.202409	0.201976
C55	C	1.128854	-0.464276	-0.464705
C56	C	1.462187	-0.130943	-0.131372
C57	C	1.795521	0.202391	0.201962
C58	C	1.074044	-0.525999	-0.526290
C59	C	1.407378	-0.192665	-0.192956
C60	C	1.740711	0.140668	0.140377
C61	C	0.964320	-0.526002	-0.526309
C62	C	1.297654	-0.192669	-0.192976
C63	C	1.630987	0.140664	0.140358
C64	C	0.964225	-0.402558	-0.403150
C65	C	1.297558	-0.069225	-0.069817
C66	C	1.630892	0.264108	0.263516
C67	C	1.073947	-0.402550	-0.403137
C68	C	1.407280	-0.069217	-0.069803
C69	C	1.740614	0.264116	0.263530
C70	C	1.518521	-0.714884	-0.464682
C71	C	1.851855	-0.381551	-0.131348
C72	C	2.185188	-0.048217	0.201985
C73	C	1.518585	-0.822098	-0.464702
C74	C	1.851918	-0.488765	-0.131369
C75	C	2.185251	-0.155431	0.201965
C76	C	1.518695	-1.018393	-0.464762
C77	C	1.852028	-0.685060	-0.131429
C78	C	2.185362	-0.351726	0.201904
C79	C	1.518631	-0.909161	-0.464732
C80	C	1.851964	-0.575827	-0.131398
C81	C	2.185297	-0.242494	0.201935
C82	C	1.792631	-0.464282	-0.464729
C83	C	2.125965	-0.130949	-0.131396
C84	C	2.459298	0.202384	0.201937
C85	C	1.909408	-0.464288	-0.464738
C86	C	2.242741	-0.130954	-0.131404
C87	C	2.576075	0.202379	0.201929
C88	C	1.518805	-0.464005	-0.716303
C89	C	1.852139	-0.130671	-0.382970
C90	C	2.185472	0.202662	-0.049636
C91	C	1.518894	-0.463892	-0.823517
C92	C	1.852227	-0.130559	-0.490184
C93	C	2.185560	0.202775	-0.156851
C94	C	1.518704	-0.212677	-0.464759
C95	C	1.852037	0.120657	-0.131425
C96	C	2.185370	0.453990	0.201908
C97	C	1.518749	-0.105463	-0.464780
C98	C	1.852082	0.227871	-0.131446
C99	C	2.185415	0.561204	0.201887
C100	C	1.518452	-0.464464	-0.214095
C101	C	1.851785	-0.131131	0.119239
C102	C	2.185118	0.202203	0.452572
C103	C	1.518567	-0.464305	-0.106881
C104	C	1.851900	-0.130972	0.226452
C105	C	2.185234	0.202361	0.559785
C106	C	1.518801	-0.464022	0.089413
C107	C	1.852134	-0.130689	0.422747
C108	C	2.185467	0.202645	0.756080
C109	C	1.518674	-0.464182	-0.019819
C110	C	1.852007	-0.130849	0.313514
C111	C	2.185341	0.202484	0.646848
H112	H	0.919699	-0.576262	-0.576459
H113	H	1.253033	-0.242929	-0.243125
H114	H	1.586366	0.090405	0.090208
N115	N	1.133081	-0.335981	-0.336710
N116	N	1.466414	-0.002648	-0.003377
N117	N	1.799748	0.330685	0.329957
H118	H	1.178656	-0.291302	-0.375991
H119	H	1.511990	0.042031	-0.042657
H120	H	1.845323	0.375364	0.290676
H121	H	1.081591	-0.296946	-0.297713
H122	H	1.414924	0.036387	0.035620
H123	H	1.748258	0.369721	0.368953
N124	N	0.905004	-0.336011	-0.336722
N125	N	1.238337	-0.002677	-0.003389
N126	N	1.571671	0.330656	0.329945
H127	H	0.827178	-0.345390	-0.346064
H128	H	1.160511	-0.012057	-0.012731
H129	H	1.493845	0.321277	0.320603
H130	H	0.924123	-0.351011	-0.267812
H131	H	1.257456	-0.017678	0.065521
H132	H	1.590789	0.315656	0.398854
H133	H	1.118746	-0.576258	-0.576425
H134	H	1.452080	-0.242924	-0.243092
H135	H	1.785413	0.090409	0.090242
