data_functionalizedCrystal
_audit_creation_method	'MofGen! by Chris Wilmer'
_symmetry_space_group_name_H-M	'P1'
_symmetry_Int_Tables_number	1
_symmetry_cell_setting	triclinic
loop_
_symmetry_equiv_pos_as_xyz
  x,y,z
_cell_length_a	16.992697
_cell_length_b	15.455438
_cell_length_c	16.992695
_cell_angle_alpha	87.143447
_cell_angle_beta	90.668337
_cell_angle_gamma	92.853811
loop_
_atom_site_label
_atom_site_type_symbol
_atom_site_fract_x
_atom_site_fract_y
_atom_site_fract_z
O1	O	-1.047630	0.072005	-0.170139
O2	O	-0.714296	0.405339	0.163194
O3	O	-0.380963	0.738672	0.496527
O4	O	-0.819228	0.072035	-0.168309
O5	O	-0.485895	0.405368	0.165024
O6	O	-0.152562	0.738701	0.498358
O7	O	-0.932514	0.072013	-0.055024
O8	O	-0.599180	0.405346	0.278310
O9	O	-0.265847	0.738680	0.611643
O10	O	-0.934344	0.072027	-0.283424
O11	O	-0.601011	0.405360	0.049909
O12	O	-0.267678	0.738693	0.383242
O13	O	-0.938956	-0.072247	-0.048567
O14	O	-0.605622	0.261086	0.284766
O15	O	-0.272289	0.594419	0.618100
O16	O	-0.825670	-0.072226	-0.161852
O17	O	-0.492337	0.261107	0.171481
O18	O	-0.159004	0.594441	0.504814
O19	O	-1.054072	-0.072255	-0.163683
O20	O	-0.720738	0.261078	0.169651
O21	O	-0.387405	0.594411	0.502984
Cu22	Cu	-0.940459	-0.085413	-0.162178
Cu23	Cu	-0.607126	0.247921	0.171155
Cu24	Cu	-0.273793	0.581254	0.504489
Cu25	Cu	-0.932841	0.085192	-0.169814
Cu26	Cu	-0.599507	0.418525	0.163520
Cu27	Cu	-0.266174	0.751859	0.496853
O28	O	-0.940786	-0.072234	-0.276968
O29	O	-0.607453	0.261100	0.056366
O30	O	-0.274120	0.594433	0.389699
C31	C	-0.793089	-0.000092	-0.162725
C32	C	-0.459756	0.333241	0.170608
C33	C	-0.126422	0.666575	0.503942
C34	C	-0.705604	-0.000081	-0.155696
C35	C	-0.372271	0.333252	0.177637
C36	C	-0.038937	0.666586	0.510970
N37	N	-0.945823	-0.205407	-0.156807
N38	N	-0.612490	0.127926	0.176526
N39	N	-0.279157	0.461260	0.509859
C40	C	-0.659613	-0.000077	-0.223515
C41	C	-0.326280	0.333256	0.109819
C42	C	0.007054	0.666590	0.443152
C43	C	-0.577413	-0.000088	-0.216905
C44	C	-0.244079	0.333245	0.116428
C45	C	0.089254	0.666579	0.449762
C46	C	-0.541205	-0.000097	-0.142477
C47	C	-0.207871	0.333236	0.190857
C48	C	0.125462	0.666570	0.524190
C49	C	-0.587202	-0.000104	-0.074654
C50	C	-0.253869	0.333230	0.258680
C51	C	0.079465	0.666563	0.592013
C52	C	-0.669401	-0.000099	-0.081264
C53	C	-0.336068	0.333235	0.252070
C54	C	-0.002734	0.666568	0.585403
C55	C	-0.295891	-0.000118	-0.115081
C56	C	0.037442	0.333216	0.218252
C57	C	0.370775	0.666549	0.551586
C58	C	-0.213686	-0.000120	-0.108476
C59	C	0.119647	0.333213	0.224857
C60	C	0.452980	0.666547	0.558191
C61	C	-0.203903	-0.000106	-0.250728
C62	C	0.129431	0.333227	0.082605
C63	C	0.462764	0.666561	0.415939
C64	C	-0.286103	-0.000096	-0.257332
C65	C	0.047230	0.333237	0.076002
C66	C	0.380563	0.666571	0.409335
C67	C	-0.332094	-0.000107	-0.189508
C68	C	0.001240	0.333226	0.143825
C69	C	0.334573	0.666559	0.477158
N70	N	-0.457183	-0.000105	-0.135719
N71	N	-0.123850	0.333228	0.197614
N72	N	0.209484	0.666561	0.530948
N73	N	-0.416114	-0.000105	-0.196266
N74	N	-0.082781	0.333228	0.137067
N75	N	0.250552	0.666562	0.470400
C76	C	-0.897685	-0.250813	-0.204914
C77	C	-0.564352	0.082520	0.128419
C78	C	-0.231019	0.415853	0.461752
C79	C	-0.901764	-0.341620	-0.200851
C80	C	-0.568431	-0.008287	0.132482
C81	C	-0.235097	0.325047	0.465816
C82	C	-0.953978	-0.387019	-0.148676
C83	C	-0.620644	-0.053686	0.184657
C84	C	-0.287311	0.279648	0.517991
C85	C	-1.002121	-0.341606	-0.100567
C86	C	-0.668788	-0.008273	0.232766
C87	C	-0.335455	0.325061	0.566100
C88	C	-0.998046	-0.250801	-0.104635
C89	C	-0.664713	0.082532	0.228699
C90	C	-0.331379	0.415866	0.562032
C91	C	-0.971551	-0.658596	-0.131137
C92	C	-0.638217	-0.325263	0.202196
C93	C	-0.304884	0.008071	0.535530
C94	C	-0.975621	-0.749407	-0.127071
C95	C	-0.642287	-0.416074	0.206262
C96	C	-0.308954	-0.082741	0.539596
C97	C	-0.875264	-0.749415	-0.227357
C98	C	-0.541931	-0.416082	0.105976
C99	C	-0.208597	-0.082748	0.439310
C100	C	-0.871190	-0.658608	-0.231417
C101	C	-0.537857	-0.325275	0.101917
C102	C	-0.204523	0.008058	0.435250
C103	C	-0.919336	-0.613203	-0.183311
C104	C	-0.586003	-0.279870	0.150023
C105	C	-0.252670	0.053463	0.483356
N106	N	-0.958147	-0.479838	-0.144520
N107	N	-0.624813	-0.146505	0.188814
N108	N	-0.291480	0.186829	0.522147
N109	N	-0.915171	-0.520386	-0.187472
N110	N	-0.581838	-0.187052	0.145862
N111	N	-0.248504	0.146281	0.479195
C112	C	-0.080211	-0.000123	-0.169266
C113	C	0.253123	0.333211	0.164067
C114	C	0.586456	0.666544	0.497400
C115	C	-0.167695	-0.000116	-0.176294
C116	C	0.165638	0.333217	0.157039
C117	C	0.498971	0.666551	0.490373
C118	C	-0.933379	-0.000117	-0.022435
C119	C	-0.600046	0.333217	0.310898
C120	C	-0.266712	0.666550	0.644231
C121	C	-0.926350	-0.000116	0.065049
C122	C	-0.593017	0.333218	0.398383
C123	C	-0.259683	0.666551	0.731716
N124	N	-0.927482	0.205186	-0.175178
N125	N	-0.594149	0.538520	0.158155
N126	N	-0.260816	0.871853	0.491488
C127	C	-0.939921	-0.000102	-0.309556
C128	C	-0.606588	0.333231	0.023777
C129	C	-0.273254	0.666565	0.357110
C130	C	-0.946950	-0.000098	-0.397041
C131	C	-0.613616	0.333236	-0.063708
C132	C	-0.280283	0.666569	0.269626
C133	C	-0.994169	-0.000125	0.111040
C134	C	-0.660835	0.333208	0.444374
C135	C	-0.327502	0.666542	0.777707
C136	C	-0.987559	-0.000116	0.193241
C137	C	-0.654226	0.333217	0.526574
C138	C	-0.320893	0.666551	0.859907
C139	C	-0.913131	-0.000104	0.229449
C140	C	-0.579798	0.333230	0.562782
C141	C	-0.246464	0.666563	0.896115
C142	C	-0.845307	-0.000091	0.183451
C143	C	-0.511974	0.333242	0.516785
C144	C	-0.178641	0.666575	0.850118
C145	C	-0.851917	-0.000094	0.101252
C146	C	-0.518584	0.333239	0.434586
C147	C	-0.185251	0.666572	0.767919
C148	C	-0.885736	-0.000088	0.474762
C149	C	-0.552402	0.333245	0.808096
C150	C	-0.219069	0.666578	1.141429
C151	C	-0.879131	-0.000088	0.556968
C152	C	-0.545798	0.333245	0.890301
C153	C	-0.212465	0.666579	1.223634
C154	C	-1.021384	-0.000111	0.566752
C155	C	-0.688050	0.333222	0.900085
C156	C	-0.354717	0.666556	1.233418
C157	C	-1.027987	-0.000119	0.484551
C158	C	-0.694654	0.333214	0.817884
C159	C	-0.361320	0.666548	1.151217
C160	C	-0.960163	-0.000102	0.438560
C161	C	-0.626830	0.333231	0.771894
C162	C	-0.293497	0.666564	1.105227
N163	N	-0.906374	-0.000097	0.313471
N164	N	-0.573040	0.333236	0.646804
N165	N	-0.239707	0.666570	0.980137
N166	N	-0.966921	-0.000103	0.354540
N167	N	-0.633588	0.333231	0.687873
N168	N	-0.300255	0.666564	1.021206
H169	H	-0.689087	-0.000069	-0.284122
H170	H	-0.355754	0.333264	0.049211
H171	H	-0.022420	0.666598	0.382545
Br172	Br	-1.036889	-0.596980	-0.065851
Br173	Br	-0.703555	-0.263647	0.267483
Br174	Br	-0.370222	0.069687	0.600816
Br175	Br	-0.793688	-0.000060	0.412357
Br176	Br	-0.460355	0.333273	0.745690
Br177	Br	-0.127021	0.666607	1.079023
Br178	Br	-0.826814	-0.189210	-0.275721
Br179	Br	-0.493481	0.144123	0.057612
Br180	Br	-0.160147	0.477457	0.390945
H181	H	-0.315577	-0.000079	-0.317939
H182	H	0.017756	0.333255	0.015394
H183	H	0.351089	0.666588	0.348727
H184	H	-0.828673	-0.621646	-0.273902
H185	H	-0.495340	-0.288313	0.059431
H186	H	-0.162007	0.045020	0.392765
H187	H	-0.836066	-0.786392	-0.266524
H188	H	-0.502733	-0.453059	0.066810
H189	H	-0.169400	-0.119725	0.400143
Br190	Br	-0.514999	-0.000080	-0.308948
Br191	Br	-0.181665	0.333254	0.024385
Br192	Br	0.151668	0.666587	0.357718
Br193	Br	-0.358297	-0.000135	-0.023034
Br194	Br	-0.024963	0.333198	0.310300
Br195	Br	0.308370	0.666531	0.643633
H196	H	-1.088594	-0.000129	0.455076
H197	H	-0.755261	0.333204	0.788410
H198	H	-0.421928	0.666537	1.121743
H199	H	-1.018142	-0.786367	-0.084581
H200	H	-0.684808	-0.453034	0.248753
H201	H	-0.351475	-0.119700	0.582086
H202	H	-0.818520	-0.000092	0.586446
H203	H	-0.485187	0.333242	0.919779
H204	H	-0.151854	0.666575	1.253112
Br205	Br	-1.113425	-0.000134	0.629171
Br206	Br	-0.780092	0.333200	0.962504
Br207	Br	-0.446758	0.666533	1.295837
H208	H	-0.784706	-0.000076	0.212938
H209	H	-0.451373	0.333257	0.546271
H210	H	-0.118039	0.666591	0.879605
Br211	Br	-1.072991	-0.403215	-0.029762
Br212	Br	-0.739657	-0.069882	0.303571
Br213	Br	-0.406324	0.263451	0.636905
H214	H	-0.557716	-0.000123	-0.014052
H215	H	-0.224382	0.333210	0.319281
H216	H	0.108951	0.666543	0.652615
Br217	Br	-0.731819	-0.000112	0.010779
Br218	Br	-0.398486	0.333221	0.344113
Br219	Br	-0.065153	0.666555	0.677446
H220	H	-0.796692	-0.000086	0.063807
H221	H	-0.463359	0.333247	0.397140
H222	H	-0.130025	0.666580	0.730473
H223	H	-0.166449	-0.000099	-0.305946
H224	H	0.166885	0.333235	0.027388
H225	H	0.500218	0.666568	0.360721
H226	H	-1.054776	-0.000141	0.081567
H227	H	-0.721443	0.333193	0.414900
H228	H	-0.388109	0.666526	0.748233
Br229	Br	-1.063385	-0.189178	-0.039349
Br230	Br	-0.730052	0.144155	0.293985
Br231	Br	-0.396718	0.477489	0.627318
H232	H	-0.862567	-0.378590	-0.240024
H233	H	-0.529233	-0.045256	0.093309
H234	H	-0.195900	0.288077	0.426642
H235	H	-1.042784	-0.000126	0.230684
H236	H	-0.709451	0.333208	0.564017
H237	H	-0.376118	0.666541	0.897350
H238	H	-0.184209	-0.000126	-0.047865
H239	H	0.149125	0.333207	0.285469
H240	H	0.482458	0.666540	0.618802
