data_functionalizedCrystal
_audit_creation_method	'MofGen! by Chris Wilmer'
_symmetry_space_group_name_H-M	'P1'
_symmetry_Int_Tables_number	1
_symmetry_cell_setting	triclinic
loop_
_symmetry_equiv_pos_as_xyz
  x,y,z
_cell_length_a	14.971482
_cell_length_b	19.288857
_cell_length_c	13.448316
_cell_angle_alpha	89.991240
_cell_angle_beta	89.993798
_cell_angle_gamma	83.372858
loop_
_atom_site_label
_atom_site_type_symbol
_atom_site_fract_x
_atom_site_fract_y
_atom_site_fract_z
O1	O	1.186457	0.090505	-0.082684
O2	O	1.686457	0.590505	0.417316
O3	O	0.925997	0.101348	-0.082689
O4	O	1.425997	0.601348	0.417311
O5	O	1.063757	-0.005180	-0.082674
O6	O	1.563757	0.494820	0.417326
O7	O	1.048697	0.197033	-0.082699
O8	O	1.548697	0.697033	0.417301
O9	O	1.063740	-0.005186	0.082709
O10	O	1.563740	0.494814	0.582709
O11	O	0.925980	0.101341	0.082695
O12	O	1.425980	0.601341	0.582695
O13	O	1.186440	0.090499	0.082700
O14	O	1.686440	0.590499	0.582700
Cu15	Cu	1.056208	0.095919	0.097798
Cu16	Cu	1.556208	0.595919	0.597798
Cu17	Cu	1.056229	0.095927	-0.097787
Cu18	Cu	1.556229	0.595927	0.402213
O19	O	1.048680	0.197026	0.082685
O20	O	1.548680	0.697026	0.582685
C21	C	0.892667	0.100860	0.000002
C22	C	1.392667	0.600860	0.500002
C23	C	0.793377	0.099408	0.000001
C24	C	1.293377	0.599408	0.500001
C25	C	0.746727	0.098721	0.090152
C26	C	1.246727	0.598721	0.590152
C27	C	0.653436	0.097346	0.090154
C28	C	1.153436	0.597346	0.590154
C29	C	0.606796	0.096663	0.000002
C30	C	1.106796	0.596663	0.500002
C31	C	0.653453	0.097348	-0.090157
C32	C	1.153453	0.597348	0.409843
C33	C	0.746743	0.098719	-0.090157
C34	C	1.246743	0.598719	0.409843
C35	C	0.459007	0.094494	-0.090150
C36	C	0.959007	0.594494	0.409850
C37	C	0.365710	0.093126	-0.090150
C38	C	0.865710	0.593126	0.409850
C39	C	0.365699	0.093122	0.090161
C40	C	0.865699	0.593122	0.590161
C41	C	0.458990	0.094492	0.090160
C42	C	0.958990	0.594492	0.590160
C43	C	0.505640	0.095178	0.000001
C44	C	1.005640	0.595178	0.500001
C45	C	1.063265	-0.031061	0.000018
C46	C	1.563265	0.468939	0.500018
C47	C	1.061814	-0.108170	0.000021
C48	C	1.561814	0.391830	0.500021
C49	C	1.061146	-0.144379	-0.090130
C50	C	1.561146	0.355621	0.409870
C51	C	1.059770	-0.216829	-0.090137
C52	C	1.559770	0.283171	0.409863
C53	C	1.059079	-0.253070	0.000011
C54	C	1.559079	0.246930	0.500011
C55	C	1.059742	-0.216851	0.090174
C56	C	1.559742	0.283149	0.590174
C57	C	1.061109	-0.144401	0.090179
C58	C	1.561109	0.355599	0.590179
C59	C	1.109296	-0.373141	0.069072
C60	C	1.609296	0.126859	0.569072
C61	C	1.107934	-0.445590	0.069063
C62	C	1.607934	0.054410	0.569063
C63	C	1.054858	-0.476529	0.000000
C64	C	1.554858	0.023471	0.500000
C65	C	1.003156	-0.435012	-0.069071
C66	C	1.503156	0.064988	0.430929
C67	C	1.004523	-0.362562	-0.069066
C68	C	1.504523	0.137438	0.430934
C69	C	1.057596	-0.331629	0.000016
C70	C	1.557596	0.168371	0.500016
C71	C	1.052697	-0.591297	-0.090165
C72	C	1.552697	-0.091297	0.409835
C73	C	1.051315	-0.663749	-0.090169
C74	C	1.551315	-0.163749	0.409831
C75	C	1.051297	-0.663770	0.090145
C76	C	1.551297	-0.163770	0.590145
C77	C	1.052670	-0.591319	0.090146
C78	C	1.552670	-0.091319	0.590146
C79	C	1.053374	-0.555088	-0.000012
C80	C	1.553374	-0.055088	0.499988
C81	C	1.219770	0.090987	0.000006
C82	C	1.719770	0.590987	0.500006
C83	C	1.319060	0.092438	0.000002
C84	C	1.819060	0.592438	0.500002
C85	C	1.049172	0.222908	-0.000010
C86	C	1.549172	0.722908	0.499990
C87	C	1.050623	0.300016	-0.000019
C88	C	1.550623	0.800016	0.499981
N89	N	1.056201	0.095914	0.235362
N90	N	1.556201	0.595914	0.735362
N91	N	1.056244	0.095928	-0.235352
N92	N	1.556244	0.595928	0.264648
C93	C	1.117219	0.048763	0.287409
C94	C	1.617219	0.548763	0.787409
C95	C	1.117225	0.048762	0.391513
C96	C	1.617225	0.548762	0.891513
C97	C	1.056215	0.095916	0.443567
C98	C	1.556215	0.595916	0.943567
C99	C	0.995190	0.143069	0.391513
C100	C	1.495190	0.643069	0.891513
C101	C	0.995181	0.143066	0.287411
C102	C	1.495181	0.643066	0.787411
C103	C	0.995215	0.143074	0.608493
C104	C	1.495215	0.643074	1.108493
C105	C	0.995225	0.143079	0.712601
C106	C	1.495225	0.643079	1.212601
C107	C	1.117259	0.048770	0.712594
C108	C	1.617259	0.548770	1.212594
C109	C	1.117250	0.048767	0.608493
C110	C	1.617250	0.548767	1.108493
C111	C	1.056225	0.095921	0.556446
C112	C	1.556225	0.595921	1.056446
H113	H	0.784725	0.099280	-0.163568
H114	H	1.284725	0.599280	0.336432
H115	H	0.784693	0.099283	0.163565
H116	H	1.284693	0.599283	0.663565
H117	H	0.945544	0.181476	0.754979
H118	H	1.445544	0.681476	1.254979
H119	H	1.152516	-0.347956	0.125319
H120	H	1.652516	0.152044	0.625319
H121	H	0.945519	0.181470	0.566120
H122	H	1.445519	0.681470	1.066120
H123	H	1.166910	0.010368	0.433889
H124	H	1.666910	0.510368	0.933889
H125	H	0.496960	0.095052	0.163570
H126	H	0.996960	0.595052	0.663570
H127	H	0.327712	0.092563	0.163571
H128	H	0.827712	0.592563	0.663571
H129	H	1.059220	-0.246316	-0.163551
H130	H	1.559220	0.253684	0.336449
H131	H	1.061717	-0.114883	-0.163543
H132	H	1.561717	0.385117	0.336457
H133	H	0.962423	-0.328760	-0.125304
H134	H	1.462423	0.171240	0.374696
H135	H	0.959936	-0.460200	-0.125309
H136	H	1.459936	0.039800	0.374691
H137	H	1.053221	-0.561838	0.163557
H138	H	1.553221	-0.061838	0.663557
H139	H	1.050728	-0.693275	0.163546
H140	H	1.550728	-0.193275	0.663546
H141	H	0.327738	0.092570	-0.163560
H142	H	0.827738	0.592570	0.336440
H143	H	0.496987	0.095054	-0.163567
H144	H	0.996987	0.595054	0.336433
H145	H	1.053265	-0.561796	-0.163577
H146	H	1.553265	-0.061796	0.336423
H147	H	1.050767	-0.693229	-0.163583
H148	H	1.550767	-0.193229	0.336417
H149	H	0.615473	0.096788	-0.163560
H150	H	1.115473	0.596788	0.336440
H151	H	0.945492	0.181460	0.245036
H152	H	1.445492	0.681460	0.745036
H153	H	1.150037	-0.479389	0.125302
H154	H	1.650037	0.020611	0.625302
H155	H	1.059177	-0.246362	0.163574
H156	H	1.559177	0.253638	0.663574
H157	H	1.166932	0.010374	0.566110
H158	H	1.666932	0.510374	1.066110
H159	H	1.166946	0.010376	0.754977
H160	H	1.666946	0.510376	1.254977
H161	H	1.166904	0.010367	0.245033
H162	H	1.666904	0.510367	0.745033
H163	H	0.945511	0.181461	0.433902
H164	H	1.445511	0.681461	0.933902
H165	H	1.061649	-0.114920	0.163593
H166	H	1.561649	0.385080	0.663593
H167	H	0.615459	0.096775	0.163564
H168	H	1.115459	0.596775	0.663564
