data_functionalizedCrystal
_audit_creation_method	'MofGen! by Chris Wilmer'
_symmetry_space_group_name_H-M	'P1'
_symmetry_Int_Tables_number	1
_symmetry_cell_setting	triclinic
loop_
_symmetry_equiv_pos_as_xyz
  x,y,z
_cell_length_a	11.169417
_cell_length_b	29.839131
_cell_length_c	29.839126
_cell_angle_alpha	89.975848
_cell_angle_beta	89.983436
_cell_angle_gamma	90.042299
loop_
_atom_site_label
_atom_site_type_symbol
_atom_site_fract_x
_atom_site_fract_y
_atom_site_fract_z
Zn1	Zn	1.834664	-0.178877	-0.253968
Zn2	Zn	1.834456	-0.253998	-0.178838
Zn3	Zn	1.633962	-0.178884	-0.178855
Zn4	Zn	1.633849	-0.253982	-0.253944
O5	O	1.734233	-0.216435	-0.216401
O6	O	2.002586	-0.188846	-0.244005
O7	O	1.807820	-0.244043	-0.115973
O8	O	1.660720	-0.116016	-0.188836
O9	O	2.002434	-0.244037	-0.188808
O10	O	1.808175	-0.116011	-0.244022
O11	O	1.660518	-0.188857	-0.115986
O12	O	1.465997	-0.188842	-0.188812
O13	O	1.660527	-0.244010	-0.316814
O14	O	1.465914	-0.244016	-0.243980
O15	O	1.808066	-0.188831	-0.316832
O16	O	1.807711	-0.316863	-0.188784
O17	O	1.660326	-0.316851	-0.243964
C18	C	1.422408	-0.216428	-0.216396
C19	C	1.289008	-0.216436	-0.216404
C20	C	1.734016	-0.333158	-0.216379
C21	C	1.734033	-0.383092	-0.216385
C22	C	1.811116	-0.692729	-0.187711
C23	C	1.811264	-0.880402	-0.187729
O24	O	1.876631	-0.904661	-0.163332
N25	N	1.734482	-0.903877	-0.216435
C26	C	1.657662	-0.880431	-0.245142
O27	O	1.592366	-0.904705	-0.269562
C28	C	1.657521	-0.692759	-0.245126
C29	C	1.734300	-0.669286	-0.216414
C30	C	1.887890	-0.669256	-0.159002
C31	C	1.887847	-0.622341	-0.158997
C32	C	1.811031	-0.598898	-0.187700
C33	C	1.734258	-0.622371	-0.216409
C34	C	1.580709	-0.669314	-0.273834
C35	C	1.580682	-0.622393	-0.273829
C36	C	1.657461	-0.598920	-0.245117
C37	C	1.657399	-0.552013	-0.245106
N38	N	1.734182	-0.528538	-0.216399
C39	C	1.810998	-0.551980	-0.187696
C40	C	1.657740	-0.978962	-0.245147
C41	C	1.657774	-1.025880	-0.245150
C42	C	1.811377	-1.025847	-0.187738
C43	C	1.811337	-0.978928	-0.187733
C44	C	1.734523	-0.955487	-0.216441
C45	C	1.810902	-0.453454	-0.187686
C46	C	1.810849	-0.406535	-0.187681
C47	C	1.657251	-0.406572	-0.245095
C48	C	1.657298	-0.453487	-0.245098
C49	C	1.734134	-0.476927	-0.216392
O50	O	1.592076	-0.527725	-0.269493
O51	O	1.876303	-0.527699	-0.163287
C52	C	1.811158	-0.739644	-0.187717
C53	C	1.734385	-0.763117	-0.216426
C54	C	1.657569	-0.739675	-0.245129
C55	C	1.734418	-0.810035	-0.216429
C56	C	1.811234	-0.833478	-0.187726
C57	C	1.888017	-0.810002	-0.159020
C58	C	1.887974	-0.763087	-0.159014
C59	C	1.580787	-0.763150	-0.273836
C60	C	1.580834	-0.810065	-0.273839
C61	C	1.657650	-0.833508	-0.245136
C62	C	2.047275	-0.216442	-0.216407
C63	C	2.180675	-0.216445	-0.216410
C64	C	1.734307	-0.216418	-0.333580
C65	C	1.734339	-0.216411	-0.383514
C66	C	1.734483	-0.099257	-0.216434
C67	C	1.734590	-0.049322	-0.216447
C68	C	1.657662	-0.187630	-0.693167
C69	C	1.657696	-0.187599	-0.880840
O70	O	1.592443	-0.163174	-0.905113
N71	N	1.734396	-0.216326	-0.904300
C72	C	1.811087	-0.245065	-0.880838
O73	O	1.876316	-0.269502	-0.905098
C74	C	1.811046	-0.245099	-0.693165
C75	C	1.734350	-0.216366	-0.669709
C76	C	1.580972	-0.158901	-0.669710
C77	C	1.580969	-0.158907	-0.622795
C78	C	1.657656	-0.187643	-0.599336
C79	C	1.734347	-0.216373	-0.622793
C80	C	1.887729	-0.273840	-0.669705
C81	C	1.887710	-0.273846	-0.622783
C82	C	1.811014	-0.245114	-0.599327
C83	C	1.811031	-0.245115	-0.552419
N84	N	1.734332	-0.216388	-0.528960
C85	C	1.657644	-0.187652	-0.552418
C86	C	1.811104	-0.245045	-0.979368
C87	C	1.811116	-0.245037	-1.026286
C88	C	1.657724	-0.187571	-1.026285
C89	C	1.657719	-0.187578	-0.979367
C90	C	1.734405	-0.216318	-0.955909
C91	C	1.657644	-0.187667	-0.453892
C92	C	1.657651	-0.187675	-0.406973
C93	C	1.811039	-0.245142	-0.406978
C94	C	1.811036	-0.245133	-0.453893
C95	C	1.734329	-0.216394	-0.477349
O96	O	1.876240	-0.269531	-0.528117
O97	O	1.592406	-0.163226	-0.528150
C98	C	1.657665	-0.187624	-0.740082
C99	C	1.734356	-0.216354	-0.763539
C100	C	1.811043	-0.245089	-0.740081
C101	C	1.734368	-0.216345	-0.810457
C102	C	1.657681	-0.187609	-0.833916
C103	C	1.580981	-0.158882	-0.810456
C104	C	1.580978	-0.158888	-0.763541
C105	C	1.887743	-0.273817	-0.763540
C106	C	1.887741	-0.273808	-0.810456
C107	C	1.811053	-0.245072	-0.833914
C108	C	1.734228	-0.216420	-0.099679
C109	C	1.734429	-0.216301	-0.049745
H110	H	1.873471	-0.472534	-0.164312
O111	O	1.962372	-0.301685	-0.692500
C112	C	2.039947	-0.276110	-0.719657
H113	H	2.047418	-0.240727	-0.705535
H114	H	2.132278	-0.292360	-0.720179
H115	H	2.002876	-0.274565	-0.755217
H116	H	1.518132	-0.603309	-0.297208
O117	O	1.583151	-0.159733	-0.956533
C118	C	1.505546	-0.185313	-0.929393
H119	H	1.547799	-0.219361	-0.922356
H120	H	1.489482	-0.167019	-0.896404
H121	H	1.416604	-0.190245	-0.947470
O122	O	1.506101	-0.740332	-0.301655
C123	C	1.428576	-0.713248	-0.276048
H124	H	1.470957	-0.706216	-0.242017
H125	H	1.412419	-0.680254	-0.294340
H126	H	1.339665	-0.731372	-0.271081
O127	O	1.582675	-0.476222	-0.273029
C128	C	1.514842	-0.445467	-0.298352
H129	H	1.563963	-0.412001	-0.299914
H130	H	1.502006	-0.459005	-0.333748
H131	H	1.423708	-0.440527	-0.281872
O132	O	1.962557	-0.599612	-0.131096
C133	C	2.030339	-0.630372	-0.105761
H134	H	2.034470	-0.663804	-0.124169
H135	H	2.124905	-0.616788	-0.101001
H136	H	1.986455	-0.635396	-0.071625
O137	O	1.506091	-0.692039	-0.301769
C138	C	1.438280	-0.661278	-0.327093
H139	H	1.487421	-0.627815	-0.328653
H140	H	1.425441	-0.674814	-0.362489
H141	H	1.347146	-0.656331	-0.310614
H142	H	1.950449	-0.688338	-0.135629
H143	H	1.873479	-0.268537	-0.387869
O144	O	1.583185	-0.159616	-1.049008
C145	C	1.515448	-0.134269	-1.018248
H146	H	1.564595	-0.132713	-0.984806
H147	H	1.502711	-0.098873	-1.031816
H148	H	1.424267	-0.150725	-1.013247
H149	H	1.518524	-0.135491	-0.744446
H150	H	1.873857	-0.959820	-0.164354
O151	O	1.886196	-1.048630	-0.159935
C152	C	1.963653	-1.075715	-0.185569
H153	H	1.970887	-1.061551	-0.220955
H154	H	2.056085	-1.076200	-0.169384
H155	H	1.926625	-1.111295	-0.187097
O156	O	1.885551	-0.383803	-0.159776
C157	C	1.953338	-0.414559	-0.134437
H158	H	1.957491	-0.447991	-0.152846
H159	H	2.047896	-0.400969	-0.129673
H160	H	1.909444	-0.419586	-0.100304
O161	O	1.582813	-0.383773	-0.273025
C162	C	1.651100	-0.356585	-0.302046
H163	H	1.745628	-0.370692	-0.304850
H164	H	1.607653	-0.356044	-0.336608
H165	H	1.655239	-0.321034	-0.288149
O166	O	1.885667	-0.272901	-0.956535
C167	C	1.963256	-0.247331	-0.929417
H168	H	1.920995	-0.213287	-0.922388
H169	H	1.979307	-0.265639	-0.896423
H170	H	2.052206	-0.242389	-0.947510
H171	H	1.873502	-0.268524	-0.472993
H172	H	1.950207	-0.297204	-0.829550
O173	O	1.583143	-1.048609	-0.273080
C174	C	1.515323	-1.017851	-0.298404
H175	H	1.564461	-0.984388	-0.299969
H176	H	1.502475	-1.031391	-0.333798
H177	H	1.424193	-1.012903	-0.281922
H178	H	1.950495	-0.743979	-0.135634
O179	O	1.582970	-0.159812	-0.384207
C180	C	1.463336	-0.169620	-0.395668
H181	H	1.457205	-0.205509	-0.408554
H182	H	1.404042	-0.165752	-0.364810
H183	H	1.432020	-0.145531	-0.422908
O184	O	1.583052	-0.956144	-0.272971
C185	C	1.505531	-0.929056	-0.247366
H186	H	1.547912	-0.922023	-0.213335
H187	H	1.489381	-0.896063	-0.265660
H188	H	1.416618	-0.947178	-0.242398
H189	H	1.873583	-0.268428	-1.045381
O190	O	1.962317	-0.301781	-0.600067
C191	C	2.029979	-0.327145	-0.630836
H192	H	2.034181	-0.308737	-0.664284
H193	H	2.124528	-0.331947	-0.617288
H194	H	1.985945	-0.361261	-0.635814
O195	O	1.506316	-0.130990	-0.833199
C196	C	1.386674	-0.140816	-0.821731
H197	H	1.384141	-0.158087	-0.787659
H198	H	1.332920	-0.108394	-0.820136
H199	H	1.346215	-0.163913	-0.848126
O200	O	1.962360	-0.301744	-0.740826
C201	C	2.030028	-0.327103	-0.771598
H202	H	2.034206	-0.308695	-0.805047
H203	H	2.124585	-0.331896	-0.758055
H204	H	1.986013	-0.361222	-0.776573
H205	H	1.518301	-0.829173	-0.297219
O206	O	1.962794	-0.832793	-0.131208
C207	C	2.040261	-0.859888	-0.156827
H208	H	2.047563	-0.845723	-0.192211
H209	H	2.132668	-0.860388	-0.140623
H210	H	2.003198	-0.895463	-0.158365
H211	H	1.595183	-0.164265	-0.472985
O212	O	1.506345	-0.130985	-0.600081
C213	C	1.438689	-0.105617	-0.630855
H214	H	1.434516	-0.124016	-0.664293
H215	H	1.344130	-0.100825	-0.617298
H216	H	1.482711	-0.071497	-0.635859
O217	O	1.506637	-0.130964	-0.692544
C218	C	1.575029	-0.101934	-0.719687
H219	H	1.665948	-0.117778	-0.726724
H220	H	1.526154	-0.095902	-0.752674
H221	H	1.588288	-0.068647	-0.701610
