data_functionalizedCrystal
_audit_creation_method	'MofGen! by Chris Wilmer'
_symmetry_space_group_name_H-M	'P1'
_symmetry_Int_Tables_number	1
_symmetry_cell_setting	triclinic
loop_
_symmetry_equiv_pos_as_xyz
  x,y,z
_cell_length_a	27.780882
_cell_length_b	27.780884
_cell_length_c	27.780936
_cell_angle_alpha	90.002261
_cell_angle_beta	59.997799
_cell_angle_gamma	119.999789
loop_
_atom_site_label
_atom_site_type_symbol
_atom_site_fract_x
_atom_site_fract_y
_atom_site_fract_z
O1	O	0.424592	-0.330213	-0.014321
O2	O	0.326022	-0.260214	0.014251
O3	O	0.424588	-0.260214	-0.084318
O4	O	0.326026	-0.330213	0.084247
O5	O	0.344528	-0.340274	-0.084318
O6	O	0.245962	-0.340274	0.014251
O7	O	0.344532	-0.410273	-0.014321
Zn8	Zn	0.282536	-0.387985	-0.000035
Zn9	Zn	0.388018	-0.282503	-0.000035
O10	O	0.245966	-0.410273	0.084248
C11	C	0.177734	-0.120430	0.029862
C12	C	0.211527	-0.056934	0.025772
C13	C	0.119397	-0.149664	0.030267
C14	C	0.177730	-0.207598	0.029867
C15	C	0.211519	-0.237303	0.025783
C16	C	0.119393	-0.236700	0.030273
C17	C	0.090568	-0.207596	0.029862
C18	C	0.031162	-0.237298	0.025772
C19	C	0.206427	-0.149666	0.030273
C20	C	-0.016831	-0.261295	0.022466
C21	C	0.238829	-0.005636	0.022467
C22	C	0.238818	-0.261301	0.022482
C23	C	-0.077040	-0.291400	0.018321
C24	C	0.273079	0.058719	0.018322
C25	C	0.273065	-0.291409	0.018343
O26	O	-0.234707	-0.410266	-0.014339
O27	O	-0.094711	-0.340265	0.014229
O28	O	-0.094704	-0.340270	-0.084338
O29	O	-0.234714	-0.410261	0.084228
O30	O	-0.094701	-0.260209	-0.084343
O31	O	-0.094708	-0.260204	0.014225
O32	O	-0.234704	-0.330205	-0.014344
Zn33	Zn	-0.164706	-0.282493	-0.000061
Zn34	Zn	-0.164709	-0.387977	-0.000054
O35	O	-0.234711	-0.330200	0.084223
C36	C	0.492828	-0.207603	-0.372394
C37	C	0.459037	-0.237307	-0.402098
C38	C	0.551166	-0.149673	-0.401496
C39	C	0.492828	-0.207604	-0.285228
C40	C	0.459036	-0.237307	-0.221733
C41	C	0.551166	-0.149673	-0.314463
C42	C	0.579994	-0.120438	-0.372393
C43	C	0.639400	-0.056943	-0.402096
C44	C	0.464132	-0.236706	-0.314464
C45	C	0.687394	-0.005646	-0.426092
C46	C	0.431736	-0.261304	-0.426095
C47	C	0.431736	-0.261304	-0.170435
C48	C	0.747605	0.058709	-0.456197
C49	C	0.397486	-0.291409	-0.456201
C50	C	0.397486	-0.291410	-0.106080
C51	C	0.580008	-0.462879	-0.029964
C52	C	0.639417	-0.433174	-0.025878
C53	C	0.551182	-0.520809	-0.030373
C54	C	0.492839	-0.462880	-0.029960
C55	C	0.459045	-0.433178	-0.025869
C56	C	0.464144	-0.520811	-0.030368
C57	C	0.492842	-0.550045	-0.029964
C58	C	0.459052	-0.613540	-0.025878
C59	C	0.551178	-0.433777	-0.030369
C60	C	0.431752	-0.664837	-0.022575
C61	C	0.687412	-0.409177	-0.022576
C62	C	0.431742	-0.409182	-0.022562
C63	C	0.397504	-0.729192	-0.018433
C64	C	0.747625	-0.379070	-0.018434
C65	C	0.397490	-0.379077	-0.018415
O66	O	0.344549	0.249047	-0.014343
O67	O	0.245980	0.080483	0.014226
O68	O	0.344550	0.179042	-0.084342
O69	O	0.245978	0.150488	0.084224
O70	O	0.424607	0.179040	-0.084336
O71	O	0.326036	0.080480	0.014231
O72	O	0.424605	0.249045	-0.014338
Zn73	Zn	0.388031	0.164762	-0.000053
Zn74	Zn	0.282554	0.164766	-0.000059
O75	O	0.326034	0.150486	0.084230
O76	O	0.905273	0.249033	-0.494995
O77	O	0.765273	0.080470	-0.425001
O78	O	0.765270	0.179032	-0.424994
O79	O	0.905276	0.150471	-0.495003
O80	O	0.765272	0.179034	-0.505055
O81	O	0.765275	0.080472	-0.505062
O82	O	0.905275	0.249035	-0.575056
Zn83	Zn	0.835275	0.164754	-0.552770
Zn84	Zn	0.835273	0.164751	-0.447287
O85	O	0.905278	0.150473	-0.575063
O86	O	0.326020	-0.330218	-0.575063
O87	O	0.424588	-0.260215	-0.505065
O88	O	0.326020	-0.260217	-0.505059
O89	O	0.424589	-0.330216	-0.575069
O90	O	0.245961	-0.340275	-0.425000
O91	O	0.344530	-0.340273	-0.425006
O92	O	0.245962	-0.410276	-0.495003
Zn93	Zn	0.282535	-0.387986	-0.447293
Zn94	Zn	0.388015	-0.282505	-0.552775
O95	O	0.344531	-0.410274	-0.495009
C96	C	0.090559	-0.550051	0.372323
C97	C	0.031152	-0.613546	0.402025
C98	C	0.119386	-0.520817	0.401426
C99	C	0.177725	-0.462885	0.285158
C100	C	0.211517	-0.433181	0.221663
C101	C	0.206420	-0.433783	0.314394
C102	C	0.177724	-0.462886	0.372324
C103	C	0.211515	-0.433183	0.402029
C104	C	0.119387	-0.520816	0.314392
C105	C	0.238815	-0.409187	0.426026
C106	C	-0.016842	-0.664843	0.426021
C107	C	0.238818	-0.409184	0.170365
C108	C	0.273064	-0.379082	0.456133
C109	C	-0.077053	-0.729198	0.456125
C110	C	0.273068	-0.379078	0.106010
C111	C	0.177761	-0.120445	-0.372420
C112	C	0.211554	-0.056951	-0.402125
C113	C	0.206457	-0.149682	-0.401521
C114	C	0.090590	-0.207608	-0.285252
C115	C	0.031179	-0.237308	-0.221756
C116	C	0.119418	-0.236712	-0.314485
C117	C	0.177759	-0.207612	-0.372416
C118	C	0.211551	-0.237318	-0.402117
C119	C	0.119420	-0.149677	-0.314489
C120	C	0.238852	-0.261316	-0.426113
C121	C	0.238857	-0.005654	-0.426124
C122	C	-0.016817	-0.261303	-0.170458
C123	C	0.273102	-0.291424	-0.456216
C124	C	0.273109	0.058701	-0.456232
C125	C	-0.077032	-0.291406	-0.106103
C126	C	-0.507174	-0.462860	0.372301
C127	C	-0.540966	-0.433155	0.402003
C128	C	-0.535872	-0.520790	0.401406
C129	C	-0.420004	-0.462864	0.285137
C130	C	-0.360594	-0.433163	0.221642
C131	C	-0.448834	-0.520794	0.314373
C132	C	-0.507175	-0.550027	0.372304
C133	C	-0.540968	-0.613521	0.402010
C134	C	-0.448833	-0.433760	0.314371
C135	C	-0.568270	-0.664818	0.426008
C136	C	-0.568268	-0.409157	0.425999
C137	C	-0.312597	-0.409168	0.170343
C138	C	-0.602522	-0.729173	0.456115
C139	C	-0.602518	-0.379050	0.456103
C140	C	-0.252383	-0.379064	0.105988
C141	C	0.580005	0.194619	-0.372405
C142	C	0.639409	0.190525	-0.402104
C143	C	0.551178	0.195023	-0.401510
C144	C	0.492843	0.194635	-0.285245
C145	C	0.459054	0.190558	-0.221751
C146	C	0.464149	0.195039	-0.314482
C147	C	0.492843	0.194621	-0.372410
C148	C	0.459052	0.190530	-0.402115
C149	C	0.551179	0.195036	-0.314476
C150	C	0.431752	0.187222	-0.426113
C151	C	0.687401	0.187216	-0.426097
C152	C	0.431754	0.187263	-0.170455
C153	C	0.397503	0.183075	-0.456220
C154	C	0.747609	0.183066	-0.456199
C155	C	0.397506	0.183130	-0.106101
O156	O	0.424649	0.249027	-0.575092
O157	O	0.326070	0.080461	-0.505095
O158	O	0.424629	0.179018	-0.505082
O159	O	0.326090	0.150471	-0.575105
O160	O	0.344563	0.179021	-0.425026
O161	O	0.246004	0.080464	-0.425039
O162	O	0.344583	0.249030	-0.495036
Zn163	Zn	0.282581	0.164748	-0.447327
Zn164	Zn	0.388072	0.164744	-0.552804
O165	O	0.246024	0.150474	-0.495049
C166	C	0.177742	0.134906	0.372298
C167	C	0.211532	0.138997	0.402003
C168	C	0.119406	0.134505	0.401398
C169	C	0.177741	0.134893	0.285133
C170	C	0.211531	0.138970	0.221639
C171	C	0.119406	0.134492	0.314364
C172	C	0.090580	0.134909	0.372293
C173	C	0.031176	0.139004	0.401992
C174	C	0.206435	0.134489	0.314370
C175	C	-0.016815	0.142313	0.425985
C176	C	0.238832	0.142304	0.426002
C177	C	0.238831	0.142265	0.170343
C178	C	-0.077023	0.146464	0.456086
C179	C	0.273081	0.146451	0.456109
C180	C	0.273079	0.146398	0.105989
H181	H	0.095268	-0.284299	0.030928
H182	H	0.575291	-0.126204	-0.449095
O183	O	0.580050	-0.121643	-0.286540
C184	C	0.647422	-0.105327	-0.318064
H185	H	0.667030	-0.102196	-0.365910
H186	H	0.648567	-0.139876	-0.297428
C187	C	0.668899	-0.048912	-0.256981
C188	C	0.692983	-0.045061	-0.315747
H189	H	0.697003	-0.011739	-0.255550
H190	H	0.623509	-0.059906	-0.235741
H191	H	0.669854	-0.077705	-0.239791
H192	H	0.692020	-0.016274	-0.332934
H193	H	0.738375	-0.034061	-0.336990
O194	O	0.090618	-0.121679	0.030986
C195	C	0.090317	-0.118713	-0.019519
H196	H	0.093061	-0.155065	-0.036924
H197	H	0.136142	-0.073943	-0.054932
C198	C	0.021008	-0.082198	0.018038
C199	C	0.024372	-0.126849	-0.003337
H200	H	-0.019668	-0.087213	0.028018
H201	H	0.021212	-0.084194	0.052063
H202	H	0.059199	-0.044893	-0.011477
H203	H	-0.013814	-0.164151	0.026180
H204	H	0.024159	-0.124859	-0.037357
H205	H	0.253364	-0.386185	0.290920
H206	H	0.095280	0.133853	0.448996
O207	O	-0.591812	-0.548770	0.458220
C208	C	-0.576628	-0.565115	0.494073
H209	H	-0.519311	-0.535696	0.471795
H210	H	-0.594665	-0.613069	0.500775
C211	C	-0.683500	-0.594063	0.581643
C212	C	-0.613103	-0.557927	0.554282
H213	H	-0.706002	-0.589632	0.618783
H214	H	-0.693732	-0.583053	0.557488
H215	H	-0.698522	-0.634021	0.587222
H216	H	-0.598082	-0.517969	0.548696
H217	H	-0.602870	-0.568930	0.578437
H218	H	-0.424738	-0.386177	0.290884
O219	O	0.262374	-0.121760	0.031136
C220	C	0.247139	-0.153298	0.082198
H221	H	0.202415	-0.201135	0.098667
H222	H	0.233233	-0.132658	0.117892
C223	C	0.364631	-0.092256	0.047282
C224	C	0.309703	-0.151012	0.067507
H225	H	0.403223	-0.090844	0.038221
H226	H	0.374895	-0.071006	0.012882
H227	H	0.353033	-0.075063	0.077030
H228	H	0.321298	-0.168202	0.037756
H229	H	0.299443	-0.172265	0.101902
H230	H	0.417204	0.195694	-0.291009
O231	O	0.262490	0.133783	0.286401
C232	C	0.316240	0.184306	0.283442
H233	H	0.294520	0.201707	0.319786
H234	H	0.350601	0.219711	0.238666
C235	C	0.384552	0.146791	0.246966
C236	C	0.357875	0.168160	0.291607
H237	H	0.410237	0.136833	0.252000
H238	H	0.348341	0.112753	0.248957
H239	H	0.413182	0.176298	0.209657
H240	H	0.329239	0.138650	0.328915
H241	H	0.394082	0.202193	0.289623
O242	O	0.090663	0.133810	0.286356
C243	C	0.090346	0.184310	0.283442
H244	H	0.131636	0.220267	0.287230
H245	H	0.038567	0.172687	0.321168
C246	C	0.053454	0.162437	0.219530
C247	C	0.104171	0.206603	0.224176
H248	H	0.061979	0.176188	0.182973
H249	H	0.053665	0.128413	0.221494
H250	H	0.010310	0.152755	0.250971
H251	H	0.147313	0.216279	0.192739
H252	H	0.103968	0.240629	0.222205
H253	H	0.575310	0.195676	-0.449109
H254	H	0.575312	-0.544278	-0.031030
O255	O	0.408118	-0.293484	-0.286541
C256	C	0.388822	-0.313002	-0.324769
H257	H	0.434649	-0.285311	-0.372401
H258	H	0.346696	-0.308218	-0.315049
C259	C	0.306459	-0.412203	-0.256813
C260	C	0.362747	-0.378195	-0.315316
H261	H	0.290371	-0.452418	-0.250981
H262	H	0.319457	-0.399053	-0.231057
H263	H	0.271361	-0.408210	-0.248720
H264	H	0.397847	-0.382183	-0.323406
H265	H	0.349754	-0.391347	-0.341074
H266	H	0.417198	-0.544282	-0.031019
H267	H	0.575304	-0.386180	-0.031019
O268	O	0.090570	-0.548735	0.458247
C269	C	0.071100	-0.517155	0.494049
H270	H	0.063953	-0.489286	0.471747
H271	H	0.112378	-0.487208	0.500713
C272	C	0.012506	-0.594991	0.581675
C273	C	0.003722	-0.560765	0.554285
H274	H	-0.029054	-0.621891	0.618833
H275	H	0.025625	-0.616266	0.557555
H276	H	0.046906	-0.570029	0.587223
H277	H	-0.030672	-0.585727	0.548731
H278	H	-0.009404	-0.539495	0.578406
H279	H	0.253408	-0.126207	-0.449117
O280	O	0.090504	-0.548891	0.286483
C281	C	0.032741	-0.606407	0.324718
H282	H	0.012838	-0.608216	0.372347
H283	H	0.047210	-0.638835	0.314976
C284	C	0.001429	-0.620764	0.256809
C285	C	-0.023019	-0.622985	0.315307
H286	H	-0.032966	-0.630992	0.251002
H287	H	0.040346	-0.582016	0.231048
H288	H	0.013486	-0.647788	0.248698
H289	H	-0.035068	-0.595957	0.323415
H290	H	-0.061940	-0.661730	0.341070
O291	O	0.090532	-0.293504	-0.286407
C292	C	0.032766	-0.313028	-0.228891
H293	H	0.012866	-0.285301	-0.227085
H294	H	0.047231	-0.308299	-0.196461
C295	C	0.001451	-0.412250	-0.214530
C296	C	-0.022994	-0.378199	-0.212313
H297	H	-0.032944	-0.452451	-0.204302
H298	H	0.040370	-0.399097	-0.253279
H299	H	0.013504	-0.408303	-0.187505
H300	H	-0.035039	-0.382141	-0.239343
H301	H	-0.061917	-0.391355	-0.173568
H302	H	0.095296	-0.126201	-0.291020
O303	O	-0.419938	-0.548698	0.286305
C304	C	-0.362167	-0.510461	0.228791
H305	H	-0.342279	-0.462835	0.226980
H306	H	-0.376619	-0.520209	0.196353
C307	C	-0.330829	-0.578354	0.214454
C308	C	-0.306400	-0.519858	0.212231
H309	H	-0.296430	-0.584152	0.204237
H310	H	-0.369753	-0.604116	0.253201
H311	H	-0.342872	-0.586470	0.187422
H312	H	-0.294365	-0.511745	0.239268
H313	H	-0.267473	-0.494094	0.173488
O314	O	0.580063	0.195849	-0.286566
C315	C	0.637823	0.196088	-0.324799
H316	H	0.657725	0.214174	-0.372428
H317	H	0.623351	0.149192	-0.315053
C318	C	0.669137	0.213055	-0.256892
C319	C	0.693585	0.235273	-0.315391
H320	H	0.703534	0.237223	-0.251087
H321	H	0.630222	0.212892	-0.231132
H322	H	0.657078	0.173975	-0.248776
H323	H	0.705636	0.274349	-0.323503
H324	H	0.732504	0.235444	-0.341152
