data_functionalizedCrystal
_audit_creation_method	'MofGen! by Chris Wilmer'
_symmetry_space_group_name_H-M	'P1'
_symmetry_Int_Tables_number	1
_symmetry_cell_setting	triclinic
loop_
_symmetry_equiv_pos_as_xyz
  x,y,z
_cell_length_a	14.044220
_cell_length_b	14.044220
_cell_length_c	16.053802
_cell_angle_alpha	92.799619
_cell_angle_beta	87.189254
_cell_angle_gamma	93.188878
loop_
_atom_site_label
_atom_site_type_symbol
_atom_site_fract_x
_atom_site_fract_y
_atom_site_fract_z
O1	O	1.280851	0.226493	-0.069343
O2	O	1.004181	0.218186	-0.069364
O3	O	1.138363	0.084004	-0.069346
O4	O	1.146669	0.360675	-0.069362
O5	O	1.130974	0.091357	0.069512
O6	O	0.996792	0.225539	0.069493
O7	O	1.273463	0.233845	0.069514
Zn8	Zn	1.133954	0.230859	0.091551
Zn9	Zn	1.143689	0.221172	-0.091401
O10	O	1.139281	0.368027	0.069496
C11	C	0.964865	0.218227	0.000062
C12	C	0.858723	0.207382	0.000054
C13	C	1.131033	0.052059	0.000083
C14	C	1.120188	-0.054084	0.000083
C15	C	0.664384	0.187556	0.000072
C16	C	0.613254	0.264471	0.000071
C17	C	0.505117	0.253440	0.000081
C18	C	0.772530	0.198586	0.000062
C19	C	1.100363	-0.248422	0.000070
C20	C	1.177277	-0.299552	0.000073
C21	C	1.166246	-0.407689	0.000065
C22	C	1.111392	-0.140276	0.000077
C23	C	1.312779	0.233805	0.000086
C24	C	1.418921	0.244650	0.000089
C25	C	1.146611	0.399973	0.000065
C26	C	1.157456	0.506115	0.000059
N27	N	1.127318	0.237471	0.216410
N28	N	1.150333	0.214554	-0.216260
C29	C	1.184437	0.180400	0.260112
C30	C	1.179804	0.185035	0.347518
C31	C	1.118056	0.246745	0.391221
C32	C	1.060931	0.303818	0.347513
C33	C	1.065559	0.299178	0.260108
C34	C	1.097836	0.266987	0.652628
C35	C	1.093214	0.271625	0.740038
C36	C	1.212086	0.152839	0.740037
C37	C	1.216713	0.148209	0.652631
C38	C	1.159584	0.205278	0.608931
N39	N	1.113321	0.251486	0.480564
N40	N	1.164315	0.200532	0.519589
H41	H	0.650694	0.338604	0.000063
C42	C	0.644100	0.034046	-0.071311
C43	C	0.613851	0.087482	0.000073
H44	H	0.612898	-0.027736	-0.071309
H45	H	0.628722	0.065192	-0.119722
H46	H	0.711194	0.028430	-0.071305
H47	H	0.546758	0.093104	0.000064
H48	H	0.629222	0.056329	0.048496
C49	C	1.269058	-0.150121	0.000103
C50	C	1.277356	-0.249017	0.000093
H51	H	1.330841	-0.118922	0.000123
H52	H	1.237947	-0.134737	-0.048321
H53	H	1.232771	-0.129633	0.048525
H54	H	1.313638	-0.269506	-0.048331
H55	H	1.308481	-0.264408	0.048523
H56	H	1.026236	-0.285860	0.000062
C57	C	1.330039	0.034952	0.731256
C58	C	1.274868	0.090099	0.788074
H59	H	1.368799	-0.003783	0.760913
H60	H	1.289198	-0.004573	0.697174
H61	H	1.369549	0.075814	0.697155
H62	H	1.235353	0.049235	0.822170
H63	H	1.315713	0.129627	0.822169
C64	C	1.017393	0.465745	0.374395
C65	C	0.993049	0.371650	0.395544
H66	H	0.975480	0.507621	0.404043
H67	H	1.081216	0.482296	0.388717
H68	H	1.011975	0.471133	0.316083
H69	H	0.998474	0.366260	0.453855
H70	H	0.929209	0.355094	0.381228
H71	H	1.234723	0.130153	0.224535
C72	C	1.297795	0.067185	0.338738
C73	C	1.242608	0.122317	0.395555
H74	H	1.336575	0.028472	0.368395
H75	H	1.256965	0.027640	0.304663
H76	H	1.337285	0.108057	0.304631
H77	H	1.203112	0.081444	0.429658
H78	H	1.283442	0.161865	0.429644
C79	C	1.231008	0.014390	0.554844
C80	C	1.284299	0.079909	0.604820
H81	H	1.272653	-0.027907	0.525392
H82	H	1.186343	-0.021064	0.589108
H83	H	1.197901	0.047710	0.516131
H84	H	1.317401	0.046589	0.643538
H85	H	1.328981	0.115367	0.570553
H86	H	1.019045	0.345649	0.224527
C87	C	0.976145	0.388552	0.731265
C88	C	1.025320	0.339447	0.788078
H89	H	0.934228	0.430413	0.760925
H90	H	1.020582	0.424479	0.697167
H91	H	0.940261	0.344062	0.697180
H92	H	1.061210	0.383937	0.822159
H93	H	0.980877	0.303518	0.822190
C94	C	1.093309	0.389945	0.554333
C95	C	1.035054	0.329733	0.604603
H96	H	1.054548	0.428682	0.524681
H97	H	1.134144	0.429465	0.588422
H98	H	1.130732	0.352517	0.515794
H99	H	0.997635	0.367161	0.643146
H100	H	0.994202	0.290208	0.570510
