data_functionalizedCrystal
_audit_creation_method	'MofGen! by Chris Wilmer'
_symmetry_space_group_name_H-M	'P1'
_symmetry_Int_Tables_number	1
_symmetry_cell_setting	triclinic
loop_
_symmetry_equiv_pos_as_xyz
  x,y,z
_cell_length_a	12.759401
_cell_length_b	16.625545
_cell_length_c	12.759393
_cell_angle_alpha	89.967043
_cell_angle_beta	90.020938
_cell_angle_gamma	89.974438
loop_
_atom_site_label
_atom_site_type_symbol
_atom_site_fract_x
_atom_site_fract_y
_atom_site_fract_z
Zn1	Zn	1.606198	0.320930	0.594002
Zn2	Zn	1.606061	0.455784	0.418315
Zn3	Zn	1.430497	0.320973	0.418337
Zn4	Zn	1.430460	0.455728	0.593952
O5	O	1.518304	0.388354	0.506152
O6	O	1.753201	0.338824	0.570708
O7	O	1.582730	0.437943	0.271297
O8	O	1.453877	0.208135	0.441670
O9	O	1.753100	0.437901	0.441632
O10	O	1.582964	0.208103	0.570730
O11	O	1.453744	0.338897	0.271313
O12	O	1.283471	0.338843	0.441621
O13	O	1.453814	0.437805	0.740980
O14	O	1.283444	0.437847	0.570645
O15	O	1.582928	0.338770	0.741017
O16	O	1.582694	0.568609	0.441583
O17	O	1.453681	0.568568	0.570623
C18	C	1.245337	0.388344	0.506131
C19	C	1.128560	0.388359	0.506147
C20	C	1.073711	0.439989	0.573223
C21	C	0.963987	0.439992	0.573244
C22	C	0.963970	0.336733	0.439103
C23	C	1.073692	0.336726	0.439088
C24	C	0.814085	0.468924	0.697103
C25	C	0.759233	0.520566	0.764170
C26	C	0.794814	0.599254	0.780114
C27	C	0.885246	0.626316	0.728975
C28	C	0.940092	0.574678	0.661899
C29	C	0.904513	0.495979	0.645976
C30	C	1.223596	0.307803	0.315228
C31	C	1.278445	0.256168	0.248146
C32	C	1.242866	0.177479	0.232192
C33	C	1.152431	0.150420	0.283313
C34	C	1.097582	0.202055	0.350394
C35	C	1.133169	0.280743	0.366350
C36	C	1.518197	0.597844	0.506118
C37	C	1.518247	0.687466	0.506139
C38	C	1.518419	1.015641	0.506264
C39	C	1.518368	0.924333	0.506232
C40	C	1.518332	0.851556	0.506201
C41	C	1.518283	0.760242	0.506170
C42	C	1.792337	0.388364	0.506173
C43	C	1.909114	0.388369	0.506182
C44	C	1.518383	0.388276	0.780185
C45	C	1.518416	0.388243	0.896962
C46	C	1.518431	1.178045	0.506221
C47	C	1.518462	1.088423	0.506282
C48	C	1.518286	0.388372	0.233184
C49	C	1.518456	0.388178	0.116408
C50	C	1.585651	0.336667	0.951845
C51	C	1.585669	0.336632	1.061569
C52	C	1.451214	0.439757	1.061517
C53	C	1.451192	0.439787	0.951795
C54	C	1.623301	0.241501	1.211552
C55	C	1.690552	0.189932	1.266439
C56	C	1.793067	0.177568	1.230848
C57	C	1.828353	0.216784	1.140373
C58	C	1.761107	0.268359	1.085492
C59	C	1.658577	0.280708	1.121081
C60	C	1.413570	0.534919	0.801810
C61	C	1.346329	0.586499	0.746927
C62	C	1.243812	0.598871	0.782516
C63	C	1.208531	0.559669	0.872995
C64	C	1.275772	0.508089	0.927878
C65	C	1.378288	0.495716	0.892281
H66	H	0.785114	0.404847	0.684139
H67	H	1.189069	0.640879	0.737825
N68	N	0.923609	0.711196	0.746152
H69	H	0.875142	0.739802	0.796402
H70	H	0.996718	0.709720	0.776462
N71	N	0.661707	0.491372	0.819330
H72	H	0.672149	0.494903	0.897661
H73	H	0.600179	0.525994	0.798139
H74	H	1.789837	0.300292	1.011831
N75	N	0.904791	0.281067	0.366750
H76	H	0.826959	0.288913	0.376926
H77	H	0.923943	0.293567	0.291694
H78	H	1.375069	0.618427	0.673261
N79	N	1.524145	0.521570	0.763417
H80	H	1.534805	0.462645	0.747408
H81	H	1.536217	0.554282	0.697805
N82	N	1.302033	0.121792	0.159839
H83	H	1.326514	0.073048	0.200307
H84	H	1.254453	0.104202	0.100883
H85	H	1.125054	0.569746	0.901975
N86	N	1.132893	0.495674	0.645548
H87	H	1.081493	0.528381	0.688044
H88	H	1.178459	0.462896	0.694238
N89	N	1.652489	0.147623	1.364006
H90	H	1.710649	0.113080	1.393375
H91	H	1.630929	0.188894	1.417909
H92	H	1.640386	0.294695	0.907202
N93	N	1.938930	0.203455	1.101991
H94	H	1.976174	0.164831	1.150484
H95	H	1.936966	0.180207	1.028906
H96	H	1.023950	0.180014	0.392027
N97	N	1.865606	0.121952	1.290046
H98	H	1.827700	0.098988	1.352760
H99	H	1.888547	0.076719	1.242480
H100	H	1.013719	0.596711	0.620262
H101	H	1.539822	0.251557	1.240534
H102	H	0.750146	0.641302	0.834723
N103	N	1.114049	0.065547	0.266108
H104	H	1.048435	0.056242	0.308669
H105	H	1.098061	0.057378	0.189321
H106	H	1.352081	0.278207	0.206520
N107	N	1.261978	0.392676	0.332447
H108	H	1.327585	0.401984	0.289877
H109	H	1.205959	0.431953	0.309798
H110	H	1.396485	0.481723	1.106176
H111	H	1.247037	0.476169	1.001551
