data_functionalizedCrystal
_audit_creation_method	'MofGen! by Chris Wilmer'
_symmetry_space_group_name_H-M	'P1'
_symmetry_Int_Tables_number	1
_symmetry_cell_setting	triclinic
loop_
_symmetry_equiv_pos_as_xyz
  x,y,z
_cell_length_a	10.686220
_cell_length_b	18.050589
_cell_length_c	10.686551
_cell_angle_alpha	85.596139
_cell_angle_beta	90.308082
_cell_angle_gamma	94.409750
loop_
_atom_site_label
_atom_site_type_symbol
_atom_site_fract_x
_atom_site_fract_y
_atom_site_fract_z
Zn1	Zn	1.972217	-0.181059	-0.562396
Zn2	Zn	1.955936	-0.315479	-0.352644
Zn3	Zn	1.746328	-0.200057	-0.368714
Zn4	Zn	1.762366	-0.313974	-0.578422
O5	O	1.859212	-0.252642	-0.465544
O6	O	2.145602	-0.191569	-0.521139
O7	O	1.914605	-0.308749	-0.179231
O8	O	1.776395	-0.093607	-0.394425
O9	O	2.133640	-0.290327	-0.367036
O10	O	1.942354	-0.079649	-0.536722
O11	O	1.760607	-0.223949	-0.191038
O12	O	1.572911	-0.222489	-0.409965
O13	O	1.803729	-0.287762	-0.751841
O14	O	1.584694	-0.306184	-0.564036
O15	O	1.957906	-0.190110	-0.740067
O16	O	1.930156	-0.419209	-0.382576
O17	O	1.787942	-0.418104	-0.548454
C18	C	1.533286	-0.266235	-0.490484
C19	C	1.393856	-0.272067	-0.501183
C20	C	1.859059	-0.445602	-0.465535
C21	C	1.859111	-0.528144	-0.465564
C22	C	1.781855	-0.727018	-0.555733
C23	C	1.742482	-0.783311	-0.443604
C24	C	1.859236	-0.679268	-0.465571
C25	C	1.898671	-0.770054	-0.577708
C26	C	1.859354	-0.825247	-0.465588
C27	C	1.819798	-0.734480	-0.353387
C28	C	1.976046	-0.721212	-0.487563
C29	C	1.936711	-0.777484	-0.375352
C30	C	1.859164	-0.595174	-0.465563
C31	C	1.859425	-0.909341	-0.465583
C32	C	2.186411	-0.238997	-0.440508
C33	C	2.325843	-0.233182	-0.429838
C34	C	1.884423	-0.236649	-0.792743
C35	C	1.895166	-0.229833	-0.932176
C36	C	1.859402	-0.058926	-0.465578
C37	C	1.859483	0.023624	-0.465593
C38	C	1.834171	-0.268517	-0.139612
C39	C	1.823671	-0.275113	-0.000161
H40	H	1.345409	-0.309826	-0.570447
H41	H	1.964605	-0.185853	-0.980647
C42	C	1.361786	-0.108662	-0.366000
C43	C	1.391221	-0.182214	-0.336326
H44	H	1.402147	-0.077198	-0.308261
H45	H	1.389727	-0.092867	-0.448678
H46	H	1.273519	-0.106037	-0.361163
H47	H	1.479488	-0.184839	-0.341171
H48	H	1.363286	-0.198013	-0.253626
C49	C	1.638024	-0.756638	-0.721214
C50	C	1.693370	-0.697133	-0.658537
H51	H	1.583390	-0.738186	-0.784669
H52	H	1.701602	-0.781708	-0.758406
H53	H	1.591525	-0.790369	-0.663070
H54	H	1.739877	-0.663404	-0.716678
H55	H	1.629783	-0.672051	-0.621344
C56	C	1.610908	-0.897387	-0.417637
C57	C	1.609202	-0.819861	-0.418487
H58	H	1.528625	-0.919947	-0.402129
H59	H	1.639405	-0.910118	-0.496667
H60	H	1.665837	-0.914673	-0.353520
H61	H	1.554279	-0.802574	-0.482610
H62	H	1.580688	-0.807124	-0.339446
C63	C	1.774963	-0.635576	-0.226523
C64	C	1.774671	-0.713213	-0.225351
H65	H	1.747092	-0.622448	-0.147484
H66	H	1.857647	-0.613751	-0.242282
H67	H	1.720328	-0.617880	-0.290586
H68	H	1.829313	-0.730909	-0.161294
H69	H	1.691974	-0.735046	-0.209577
H70	H	2.002194	-0.799490	-0.299031
H71	H	2.074755	-0.694126	-0.506203
C72	C	1.970249	-0.726821	-0.785058
C73	C	1.943647	-0.791457	-0.705713
H74	H	1.998015	-0.740034	-0.864081
H75	H	1.896640	-0.700737	-0.796321
H76	H	2.034151	-0.695862	-0.748588
H77	H	1.879738	-0.822413	-0.742179
H78	H	2.017266	-0.817553	-0.694453
H79	H	1.754245	-0.319095	-0.951696
