data_functionalizedCrystal
_audit_creation_method	'MofGen! by Chris Wilmer'
_symmetry_space_group_name_H-M	'P1'
_symmetry_Int_Tables_number	1
_symmetry_cell_setting	triclinic
loop_
_symmetry_equiv_pos_as_xyz
  x,y,z
_cell_length_a	9.065215
_cell_length_b	9.065215
_cell_length_c	8.140239
_cell_angle_alpha	89.999269
_cell_angle_beta	90.000251
_cell_angle_gamma	85.014764
loop_
_atom_site_label
_atom_site_type_symbol
_atom_site_fract_x
_atom_site_fract_y
_atom_site_fract_z
O1	O	-0.216335	-1.960395	0.136572
O2	O	0.116998	-1.627062	0.469906
O3	O	0.450332	-1.293729	0.803239
O4	O	-0.234086	-1.531110	0.136580
O5	O	0.099248	-1.197777	0.469914
O6	O	0.432581	-0.864443	0.803247
O7	O	-0.010568	-1.754628	0.136580
O8	O	0.322766	-1.421295	0.469913
O9	O	0.656099	-1.087961	0.803246
O10	O	-0.439853	-1.736877	0.136573
O11	O	-0.106520	-1.403544	0.469907
O12	O	0.226814	-1.070211	0.803240
O13	O	-0.010566	-1.754621	-0.136648
O14	O	0.322767	-1.421288	0.196686
O15	O	0.656101	-1.087954	0.530019
O16	O	-0.234084	-1.531103	-0.136647
O17	O	0.099249	-1.197769	0.196687
O18	O	0.432583	-0.864436	0.530020
O19	O	-0.216333	-1.960388	-0.136655
O20	O	0.117000	-1.627055	0.196679
O21	O	0.450333	-1.293722	0.530012
Zn22	Zn	-0.225208	-1.745744	-0.180031
Zn23	Zn	0.108125	-1.412411	0.153302
Zn24	Zn	0.441458	-1.079078	0.486635
Zn25	Zn	-0.225211	-1.745754	0.179957
Zn26	Zn	0.108123	-1.412421	0.513290
Zn27	Zn	0.441456	-1.079087	0.846624
O28	O	-0.439851	-1.736870	-0.136654
O29	O	-0.106518	-1.403537	0.196680
O30	O	0.226815	-1.070203	0.530013
C31	C	-0.232380	-1.476120	-0.000032
C32	C	0.100953	-1.142786	0.333301
C33	C	0.434287	-0.809453	0.666635
C34	C	-0.227282	-1.312277	-0.000028
C35	C	0.106051	-0.978943	0.333305
C36	C	0.439385	-0.645610	0.666638
C37	C	0.044420	-1.752919	-0.000030
C38	C	0.377753	-1.419586	0.333304
C39	C	0.711087	-1.086253	0.666637
C40	C	0.208263	-1.747821	-0.000017
C41	C	0.541596	-1.414488	0.333317
C42	C	0.874930	-1.081155	0.666650
C43	C	0.505161	-1.738579	-0.000029
C44	C	0.838494	-1.405245	0.333304
C45	C	1.171828	-1.071912	0.666638
C46	C	0.341318	-1.743676	0.000005
C47	C	0.674651	-1.410343	0.333338
C48	C	1.007985	-1.077010	0.666671
N49	N	-0.225206	-1.745749	-0.425714
N50	N	0.108127	-1.412415	-0.092381
N51	N	0.441460	-1.079082	0.240953
C52	C	-0.218039	-1.015379	-0.000038
C53	C	0.115294	-0.682045	0.333296
C54	C	0.448628	-0.348712	0.666629
C55	C	-0.223137	-1.179222	-0.000027
C56	C	0.110197	-0.845888	0.333306
C57	C	0.443530	-0.512555	0.666639
N58	N	-0.225201	-1.745761	0.425640
N59	N	0.108132	-1.412428	0.758973
N60	N	0.441465	-1.079094	1.092306
