data_functionalizedCrystal
_audit_creation_method	'MofGen! by Chris Wilmer'
_symmetry_space_group_name_H-M	'P1'
_symmetry_Int_Tables_number	1
_symmetry_cell_setting	triclinic
loop_
_symmetry_equiv_pos_as_xyz
  x,y,z
_cell_length_a	25.639242
_cell_length_b	21.295417
_cell_length_c	21.295412
_cell_angle_alpha	90.027661
_cell_angle_beta	90.026311
_cell_angle_gamma	90.022517
loop_
_atom_site_label
_atom_site_type_symbol
_atom_site_fract_x
_atom_site_fract_y
_atom_site_fract_z
Zn1	Zn	-0.799280	0.250711	-0.356092
Zn2	Zn	-0.549280	0.500711	-0.106092
Zn3	Zn	-0.299280	0.750711	0.143908
Zn4	Zn	-0.049280	1.000711	0.393908
Zn5	Zn	-0.799215	0.355981	-0.250824
Zn6	Zn	-0.549215	0.605981	-0.000824
Zn7	Zn	-0.299215	0.855981	0.249176
Zn8	Zn	-0.049215	1.105981	0.499176
Zn9	Zn	-0.711852	0.250719	-0.250819
Zn10	Zn	-0.461852	0.500719	-0.000819
Zn11	Zn	-0.211852	0.750719	0.249181
Zn12	Zn	0.038148	1.000719	0.499181
Zn13	Zn	-0.711818	0.355937	-0.356038
Zn14	Zn	-0.461818	0.605937	-0.106038
Zn15	Zn	-0.211818	0.855937	0.143962
Zn16	Zn	0.038182	1.105937	0.393962
O17	O	-0.755541	0.303337	-0.303444
O18	O	-0.505541	0.553337	-0.053444
O19	O	-0.255541	0.803337	0.196556
O20	O	-0.005541	1.053337	0.446556
O21	O	-0.872437	0.264690	-0.342153
O22	O	-0.622437	0.514690	-0.092153
O23	O	-0.372437	0.764690	0.157847
O24	O	-0.122437	1.014690	0.407847
O25	O	-0.787614	0.342039	-0.162734
O26	O	-0.537614	0.592039	0.087266
O27	O	-0.287614	0.842039	0.337266
O28	O	-0.037614	1.092039	0.587266
O29	O	-0.723490	0.162629	-0.264805
O30	O	-0.473490	0.412629	-0.014805
O31	O	-0.223490	0.662629	0.235195
O32	O	0.026510	0.912629	0.485195
O33	O	-0.872389	0.342031	-0.264813
O34	O	-0.622389	0.592031	-0.014813
O35	O	-0.372389	0.842031	0.235187
O36	O	-0.122389	1.092031	0.485187
O37	O	-0.787724	0.162623	-0.342149
O38	O	-0.537724	0.412623	-0.092149
O39	O	-0.287724	0.662623	0.157851
O40	O	-0.037724	0.912623	0.407851
O41	O	-0.723428	0.264704	-0.162731
O42	O	-0.473428	0.514704	0.087269
O43	O	-0.223428	0.764704	0.337269
O44	O	0.026572	1.014704	0.587269
O45	O	-0.638682	0.264662	-0.264752
O46	O	-0.388682	0.514662	-0.014752
O47	O	-0.138682	0.764662	0.235248
O48	O	0.111318	1.014662	0.485248
O49	O	-0.723433	0.341957	-0.444135
O50	O	-0.473433	0.591957	-0.194135
O51	O	-0.223433	0.841957	0.055865
O52	O	0.026567	1.091957	0.305865
O53	O	-0.638657	0.341965	-0.342056
O54	O	-0.388657	0.591965	-0.092056
O55	O	-0.138657	0.841965	0.157944
O56	O	0.111343	1.091965	0.407944
O57	O	-0.787691	0.264648	-0.444175
O58	O	-0.537691	0.514648	-0.194175
O59	O	-0.287691	0.764648	0.055825
O60	O	-0.037691	1.014648	0.305825
O61	O	-0.787581	0.444064	-0.264760
O62	O	-0.537581	0.694064	-0.014760
O63	O	-0.287581	0.944064	0.235240
O64	O	-0.037581	1.194064	0.485240
O65	O	-0.723370	0.444032	-0.342060
O66	O	-0.473370	0.694032	-0.092060
O67	O	-0.223370	0.944032	0.157940
O68	O	0.026630	1.194032	0.407940
C69	C	-0.619699	0.303310	-0.303398
C70	C	-0.369699	0.553310	-0.053398
C71	C	-0.119699	0.803310	0.196602
C72	C	0.130301	1.053310	0.446602
C73	C	-0.561585	0.303313	-0.303393
C74	C	-0.311585	0.553313	-0.053393
C75	C	-0.061585	0.803313	0.196607
C76	C	0.188415	1.053313	0.446607
C77	C	-0.310395	0.263016	-0.263245
C78	C	-0.060395	0.513016	-0.013245
C79	C	0.189605	0.763016	0.236755
C80	C	0.439605	1.013016	0.486755
C81	C	-0.365000	0.263011	-0.263239
C82	C	-0.115000	0.513011	-0.013239
C83	C	0.135000	0.763011	0.236761
C84	C	0.385000	1.013011	0.486761
O85	O	-0.393240	0.228713	-0.229077
O86	O	-0.143240	0.478713	0.020923
O87	O	0.106760	0.728713	0.270923
O88	O	0.356760	0.978713	0.520923
N89	N	-0.392311	0.303320	-0.303419
N90	N	-0.142311	0.553320	-0.053419
N91	N	0.107689	0.803320	0.196581
N92	N	0.357689	1.053320	0.446581
C93	C	-0.365015	0.343634	-0.343611
C94	C	-0.115015	0.593634	-0.093611
C95	C	0.134985	0.843634	0.156389
C96	C	0.384985	1.093634	0.406389
O97	O	-0.393259	0.377919	-0.377787
O98	O	-0.143259	0.627919	-0.127787
O99	O	0.106741	0.877919	0.122213
O100	O	0.356741	1.127919	0.372213
C101	C	-0.310411	0.343635	-0.343620
C102	C	-0.060411	0.593635	-0.093620
C103	C	0.189589	0.843635	0.156380
C104	C	0.439589	1.093635	0.406380
C105	C	-0.283103	0.303328	-0.303433
C106	C	-0.033103	0.553328	-0.053433
C107	C	0.216897	0.803328	0.196567
C108	C	0.466897	1.053328	0.446567
C109	C	-0.283087	0.222711	-0.223062
C110	C	-0.033087	0.472711	0.026938
C111	C	0.216913	0.722711	0.276938
C112	C	0.466913	0.972711	0.526938
C113	C	-0.228486	0.222718	-0.223068
C114	C	0.021514	0.472718	0.026932
C115	C	0.271514	0.722718	0.276932
C116	C	0.521514	0.972718	0.526932
C117	C	-0.201194	0.263029	-0.263256
C118	C	0.048806	0.513029	-0.013256
C119	C	0.298806	0.763029	0.236744
C120	C	0.548806	1.013029	0.486744
C121	C	-0.228503	0.303334	-0.303439
C122	C	0.021497	0.553334	-0.053439
C123	C	0.271497	0.803334	0.196561
C124	C	0.521497	1.053334	0.446561
C125	C	-0.283116	0.383945	-0.383815
C126	C	-0.033116	0.633945	-0.133815
C127	C	0.216884	0.883945	0.116185
C128	C	0.466884	1.133945	0.366185
C129	C	-0.228509	0.383943	-0.383821
C130	C	0.021491	0.633943	-0.133821
C131	C	0.271491	0.883943	0.116179
C132	C	0.521491	1.133943	0.366179
C133	C	-0.201201	0.343635	-0.343634
C134	C	0.048799	0.593635	-0.093634
C135	C	0.298799	0.843635	0.156366
C136	C	0.548799	1.093635	0.406366
C137	C	-0.146610	0.343652	-0.343632
C138	C	0.103390	0.593652	-0.093632
C139	C	0.353390	0.843652	0.156368
C140	C	0.603390	1.093652	0.406368
N141	N	-0.119299	0.303343	-0.303453
N142	N	0.130701	0.553343	-0.053453
N143	N	0.380701	0.803343	0.196547
N144	N	0.630701	1.053343	0.446547
C145	C	-0.146591	0.263031	-0.263265
C146	C	0.103409	0.513031	-0.013265
C147	C	0.353409	0.763031	0.236735
C148	C	0.603409	1.013031	0.486735
C149	C	-0.479685	0.343626	-0.343591
C150	C	-0.229685	0.593626	-0.093591
C151	C	0.020315	0.843626	0.156409
C152	C	0.270315	1.093626	0.406409
C153	C	-0.534288	0.343627	-0.343579
C154	C	-0.284288	0.593627	-0.093579
C155	C	-0.034288	0.843627	0.156421
C156	C	0.215712	1.093627	0.406421
C157	C	-0.534269	0.263003	-0.263208
C158	C	-0.284269	0.513003	-0.013208
C159	C	-0.034269	0.763003	0.236792
C160	C	0.215731	1.013003	0.486792
C161	C	-0.479666	0.263005	-0.263216
C162	C	-0.229666	0.513005	-0.013216
C163	C	0.020334	0.763005	0.236784
C164	C	0.270334	1.013005	0.486784
C165	C	-0.452374	0.303316	-0.303411
C166	C	-0.202374	0.553316	-0.053411
C167	C	0.047626	0.803316	0.196589
C168	C	0.297626	1.053316	0.446589
C169	C	-0.031926	0.263048	-0.263279
C170	C	0.218074	0.513048	-0.013279
C171	C	0.468074	0.763048	0.236721
C172	C	0.718074	1.013048	0.486721
C173	C	0.022679	0.263060	-0.263286
C174	C	0.272679	0.513060	-0.013286
C175	C	0.522679	0.763060	0.236714
C176	C	0.772679	1.013060	0.486714
C177	C	0.022656	0.343681	-0.343659
C178	C	0.272656	0.593681	-0.093659
C179	C	0.522656	0.843681	0.156341
C180	C	0.772656	1.093681	0.406341
C181	C	-0.031945	0.343672	-0.343650
C182	C	0.218055	0.593672	-0.093650
C183	C	0.468055	0.843672	0.156350
C184	C	0.718055	1.093672	0.406350
C185	C	-0.059234	0.303350	-0.303458
C186	C	0.190766	0.553350	-0.053458
C187	C	0.440766	0.803350	0.196542
C188	C	0.690766	1.053350	0.446542
O189	O	-0.118335	0.377931	-0.377779
O190	O	0.131665	0.627931	-0.127779
O191	O	0.381665	0.877931	0.122221
O192	O	0.631665	1.127931	0.372221
O193	O	-0.118340	0.228745	-0.229101
O194	O	0.131660	0.478745	0.020899
O195	O	0.381660	0.728745	0.270899
O196	O	0.631660	0.978745	0.520899
C197	C	-0.755479	0.466889	-0.303419
C198	C	-0.505479	0.716889	-0.053419
C199	C	-0.255479	0.966889	0.196581
C200	C	-0.005479	1.216889	0.446581
C201	C	-0.755500	0.536857	-0.303429
C202	C	-0.505500	0.786857	-0.053429
C203	C	-0.255500	1.036857	0.196571
C204	C	-0.005500	1.286857	0.446571
C205	C	0.108086	0.303364	-0.303481
C206	C	0.358086	0.553364	-0.053481
C207	C	0.608086	0.803364	0.196519
C208	C	0.858086	1.053364	0.446519
C209	C	0.049972	0.303372	-0.303474
C210	C	0.299972	0.553372	-0.053474
C211	C	0.549972	0.803372	0.196526
C212	C	0.799972	1.053372	0.446526
C213	C	-0.789096	1.036311	-0.263318
C214	C	-0.539096	1.286311	-0.013318
C215	C	-0.289096	1.536311	0.236682
C216	C	-0.039096	1.786311	0.486682
C217	C	-0.789077	0.970568	-0.263301
C218	C	-0.539077	1.220568	-0.013301
C219	C	-0.289077	1.470568	0.236699
C220	C	-0.039077	1.720568	0.486699
C221	C	-0.755611	0.937696	-0.303508
C222	C	-0.505611	1.187696	-0.053508
C223	C	-0.255611	1.437696	0.196492
C224	C	-0.005611	1.687696	0.446492
C225	C	-0.722152	0.970572	-0.343723
C226	C	-0.472152	1.220572	-0.093723
C227	C	-0.222152	1.470572	0.156277
C228	C	0.027848	1.720572	0.406277
C229	C	-0.722169	1.036313	-0.343734
C230	C	-0.472169	1.286313	-0.093734
C231	C	-0.222169	1.536313	0.156266
C232	C	0.027831	1.786313	0.406266
N233	N	-0.751544	0.834444	-0.358587
N234	N	-0.501544	1.084444	-0.108587
N235	N	-0.251544	1.334444	0.141413
N236	N	-0.001544	1.584444	0.391413
N237	N	-0.751531	0.771992	-0.358574
N238	N	-0.501531	1.021992	-0.108574
N239	N	-0.251531	1.271992	0.141426
N240	N	-0.001531	1.521992	0.391426
C241	C	-0.755558	0.739621	-0.303475
C242	C	-0.505558	0.989621	-0.053475
C243	C	-0.255558	1.239621	0.196525
C244	C	-0.005558	1.489621	0.446525
N245	N	-0.759607	0.772061	-0.248388
N246	N	-0.509607	1.022061	0.001612
N247	N	-0.259607	1.272061	0.251612
N248	N	-0.009607	1.522061	0.501612
N249	N	-0.759623	0.834519	-0.248401
N250	N	-0.509623	1.084519	0.001599
N251	N	-0.259623	1.334519	0.251599
N252	N	-0.009623	1.584519	0.501599
C253	C	-0.755589	0.866411	-0.303500
C254	C	-0.505589	1.116411	-0.053500
C255	C	-0.255589	1.366411	0.196500
C256	C	-0.005589	1.616411	0.446500
C257	C	-0.788990	0.635468	-0.263241
C258	C	-0.538990	0.885468	-0.013241
C259	C	-0.288990	1.135468	0.236759
C260	C	-0.038990	1.385468	0.486759
C261	C	-0.788967	0.569724	-0.263223
C262	C	-0.538967	0.819724	-0.013223
C263	C	-0.288967	1.069724	0.236777
C264	C	-0.038967	1.319724	0.486777
C265	C	-0.722045	0.569730	-0.343650
C266	C	-0.472045	0.819730	-0.093650
C267	C	-0.222045	1.069730	0.156350
C268	C	0.027955	1.319730	0.406350
C269	C	-0.722066	0.635472	-0.343663
C270	C	-0.472066	0.885472	-0.093663
C271	C	-0.222066	1.135472	0.156337
C272	C	0.027934	1.385472	0.406337
C273	C	-0.755541	0.668337	-0.303459
C274	C	-0.505541	0.918337	-0.053459
C275	C	-0.255541	1.168337	0.196541
C276	C	-0.005541	1.418337	0.446541
C277	C	-0.755565	0.303296	-0.467634
C278	C	-0.505565	0.553296	-0.217634
C279	C	-0.255565	0.803296	0.032366
C280	C	-0.005565	1.053296	0.282366
C281	C	-0.755576	0.303279	-0.537602
C282	C	-0.505576	0.553279	-0.287602
C283	C	-0.255576	0.803279	-0.037602
C284	C	-0.005576	1.053279	0.212398
C285	C	-0.755616	1.139147	-0.303490
C286	C	-0.505616	1.389147	-0.053490
C287	C	-0.255616	1.639147	0.196510
C288	C	-0.005616	1.889147	0.446510
C289	C	-0.755644	1.069179	-0.303531
C290	C	-0.505644	1.319179	-0.053531
C291	C	-0.255644	1.569179	0.196469
C292	C	-0.005644	1.819179	0.446469
C293	C	-0.789084	0.262925	-1.037082
C294	C	-0.539084	0.512925	-0.787082
C295	C	-0.289084	0.762925	-0.537082
C296	C	-0.039084	1.012925	-0.287082
C297	C	-0.789080	0.262940	-0.971340
C298	C	-0.539080	0.512940	-0.721340
C299	C	-0.289080	0.762940	-0.471340
C300	C	-0.039080	1.012940	-0.221340
C301	C	-0.755621	0.303196	-0.938442
C302	C	-0.505621	0.553196	-0.688442
C303	C	-0.255621	0.803196	-0.438442
C304	C	-0.005621	1.053196	-0.188442
C305	C	-0.722173	0.343451	-0.971292
C306	C	-0.472173	0.593451	-0.721292
C307	C	-0.222173	0.843451	-0.471292
C308	C	0.027827	1.093451	-0.221292
C309	C	-0.722181	0.343439	-1.037033
C310	C	-0.472181	0.593439	-0.787033
C311	C	-0.222181	0.843439	-0.537033
C312	C	0.027819	1.093439	-0.287033
N313	N	-0.709839	0.308035	-0.835204
N314	N	-0.459839	0.558035	-0.585204
N315	N	-0.209839	0.808035	-0.335204
N316	N	0.040161	1.058035	-0.085204
N317	N	-0.709832	0.308042	-0.772752
N318	N	-0.459832	0.558042	-0.522752
N319	N	-0.209832	0.808042	-0.272752
N320	N	0.040168	1.058042	-0.022752
C321	C	-0.755594	0.303235	-0.740367
C322	C	-0.505594	0.553235	-0.490367
C323	C	-0.255594	0.803235	-0.240367
C324	C	-0.005594	1.053235	0.009633
N325	N	-0.801363	0.298408	-0.772792
N326	N	-0.551363	0.548408	-0.522792
N327	N	-0.301363	0.798408	-0.272792
N328	N	-0.051363	1.048408	-0.022792
N329	N	-0.801370	0.298397	-0.835249
N330	N	-0.551370	0.548397	-0.585249
N331	N	-0.301370	0.798397	-0.335249
N332	N	-0.051370	1.048397	-0.085249
C333	C	-0.755608	0.303214	-0.867156
C334	C	-0.505608	0.553214	-0.617156
C335	C	-0.255608	0.803214	-0.367156
C336	C	-0.005608	1.053214	-0.117156
C337	C	-0.789038	0.263002	-0.636239
C338	C	-0.539038	0.513002	-0.386239
C339	C	-0.289038	0.763002	-0.136239
C340	C	-0.039038	1.013002	0.113761
C341	C	-0.789035	0.263022	-0.570495
C342	C	-0.539035	0.513022	-0.320495
C343	C	-0.289035	0.763022	-0.070495
C344	C	-0.039035	1.013022	0.179505
C345	C	-0.722122	0.343530	-0.570449
C346	C	-0.472122	0.593530	-0.320449
C347	C	-0.222122	0.843530	-0.070449
C348	C	0.027878	1.093530	0.179551
C349	C	-0.722130	0.343513	-0.636191
C350	C	-0.472130	0.593513	-0.386191
C351	C	-0.222130	0.843513	-0.136191
C352	C	0.027870	1.093513	0.113809
C353	C	-0.755587	0.303246	-0.669083
C354	C	-0.505587	0.553246	-0.419083
C355	C	-0.255587	0.803246	-0.169083
C356	C	-0.005587	1.053246	0.080917
C357	C	-0.755547	0.303332	-0.139892
C358	C	-0.505547	0.553332	0.110108
C359	C	-0.255547	0.803332	0.360108
C360	C	-0.005547	1.053332	0.610108
C361	C	-0.755638	0.303172	-0.069924
C362	C	-0.505638	0.553172	0.180076
C363	C	-0.255638	0.803172	0.430076
C364	C	-0.005638	1.053172	0.680076
H365	H	-0.206257	0.189895	-0.190344
H366	H	0.043743	0.439895	0.059656
H367	H	0.293743	0.689895	0.309656
H368	H	0.543743	0.939895	0.559656
H369	H	0.044911	0.230236	-0.230559
H370	H	0.294911	0.480236	0.019441
H371	H	0.544911	0.730236	0.269441
H372	H	0.794911	0.980236	0.519441
H373	H	-0.305303	0.189881	-0.190336
H374	H	-0.055303	0.439881	0.059664
H375	H	0.194697	0.689881	0.309664
H376	H	0.444697	0.939881	0.559664
Cl377	Cl	-0.066276	0.394352	-0.394164
Cl378	Cl	0.183724	0.644352	-0.144164
Cl379	Cl	0.433724	0.894352	0.105836
Cl380	Cl	0.683724	1.144352	0.355836
H381	H	0.044887	0.376504	-0.376377
H382	H	0.294887	0.626504	-0.126377
H383	H	0.544887	0.876504	0.123623
H384	H	0.794887	1.126504	0.373623
Cl385	Cl	-0.831069	0.676787	-0.212696
Cl386	Cl	-0.581069	0.926787	0.037304
Cl387	Cl	-0.331069	1.176787	0.287304
Cl388	Cl	-0.081069	1.426787	0.537304
H389	H	-0.816319	0.943802	-0.230555
H390	H	-0.566319	1.193802	0.019445
H391	H	-0.316319	1.443802	0.269445
H392	H	-0.066319	1.693802	0.519445
Cl393	Cl	-0.680080	0.394112	-0.677481
Cl394	Cl	-0.430080	0.644112	-0.427481
Cl395	Cl	-0.180080	0.894112	-0.177481
Cl396	Cl	0.069920	1.144112	0.072519
Cl397	Cl	-0.831088	0.212424	-0.529207
Cl398	Cl	-0.581088	0.462424	-0.279207
Cl399	Cl	-0.331088	0.712424	-0.029207
Cl400	Cl	-0.081088	0.962424	0.220793
Cl401	Cl	-0.831178	1.077623	-0.212774
Cl402	Cl	-0.581178	1.327623	0.037226
Cl403	Cl	-0.331178	1.577623	0.287226
Cl404	Cl	-0.081178	1.827623	0.537226
H405	H	-0.816280	0.230214	-0.663021
H406	H	-0.566280	0.480214	-0.413021
H407	H	-0.316280	0.730214	-0.163021
H408	H	-0.066280	0.980214	0.086979
H409	H	-0.694881	0.376309	-0.543664
H410	H	-0.444881	0.626309	-0.293664
H411	H	-0.194881	0.876309	-0.043664
H412	H	0.055119	1.126309	0.206336
Cl413	Cl	-0.445341	0.212330	-0.212696
Cl414	Cl	-0.195341	0.462330	0.037304
Cl415	Cl	0.054659	0.712330	0.287304
Cl416	Cl	0.304659	0.962330	0.537304
Cl417	Cl	-0.831026	0.528403	-0.212665
Cl418	Cl	-0.581026	0.778403	0.037335
Cl419	Cl	-0.331026	1.028403	0.287335
Cl420	Cl	-0.081026	1.278403	0.537335
H421	H	-0.054139	0.230211	-0.230553
H422	H	0.195861	0.480211	0.019447
H423	H	0.445861	0.730211	0.269447
H424	H	0.695861	0.980211	0.519447
H425	H	-0.556500	0.230178	-0.230485
H426	H	-0.306500	0.480178	0.019515
H427	H	-0.056500	0.730178	0.269515
H428	H	0.193500	0.980178	0.519515
Cl429	Cl	-0.680112	1.077636	-0.394293
Cl430	Cl	-0.430112	1.327636	-0.144293
Cl431	Cl	-0.180112	1.577636	0.105707
Cl432	Cl	0.069888	1.827636	0.355707
Cl433	Cl	-0.680014	0.676794	-0.394225
Cl434	Cl	-0.430014	0.926794	-0.144225
Cl435	Cl	-0.180014	1.176794	0.105775
Cl436	Cl	0.069986	1.426794	0.355775
Cl437	Cl	-0.568611	0.394311	-0.394093
Cl438	Cl	-0.318611	0.644311	-0.144093
Cl439	Cl	-0.068611	0.894311	0.105907
Cl440	Cl	0.181389	1.144311	0.355907
Cl441	Cl	-0.445382	0.394313	-0.394121
Cl442	Cl	-0.195382	0.644313	-0.144121
Cl443	Cl	0.054618	0.894313	0.105879
Cl444	Cl	0.304618	1.144313	0.355879
Cl445	Cl	-0.680079	0.929249	-0.394267
Cl446	Cl	-0.430079	1.179249	-0.144267
Cl447	Cl	-0.180079	1.429249	0.105733
Cl448	Cl	0.069921	1.679249	0.355733
H449	H	-0.305342	0.416768	-0.416539
H450	H	-0.055342	0.666768	-0.166539
H451	H	0.194658	0.916768	0.083461
H452	H	0.444658	1.166768	0.333461
Cl453	Cl	-0.194204	0.434622	-0.434356
Cl454	Cl	0.055796	0.684622	-0.184356
Cl455	Cl	0.305796	0.934622	0.065644
Cl456	Cl	0.555796	1.184622	0.315644
H457	H	-0.694794	0.542966	-0.376385
H458	H	-0.444794	0.792966	-0.126385
H459	H	-0.194794	1.042966	0.123615
H460	H	0.055206	1.292966	0.373615
H461	H	-0.816330	0.230139	-1.063858
H462	H	-0.566330	0.480139	-0.813858
H463	H	-0.316330	0.730139	-0.563858
H464	H	-0.066330	0.980139	-0.313858
H465	H	-0.816316	0.230163	-0.944594
H466	H	-0.566316	0.480163	-0.694594
H467	H	-0.316316	0.730163	-0.444594
H468	H	-0.066316	0.980163	-0.194594
H469	H	-0.694931	0.376229	-0.944502
H470	H	-0.444931	0.626229	-0.694502
H471	H	-0.194931	0.876229	-0.444502
H472	H	0.055069	1.126229	-0.194502
Cl473	Cl	-0.680131	0.394040	-1.078323
Cl474	Cl	-0.430131	0.644040	-0.828323
Cl475	Cl	-0.180131	0.894040	-0.578323
Cl476	Cl	0.069869	1.144040	-0.328323
