data_functionalizedCrystal
_audit_creation_method	'MofGen! by Chris Wilmer'
_symmetry_space_group_name_H-M	'P1'
_symmetry_Int_Tables_number	1
_symmetry_cell_setting	triclinic
loop_
_symmetry_equiv_pos_as_xyz
  x,y,z
_cell_length_a	8.559649
_cell_length_b	11.295501
_cell_length_c	8.559649
_cell_angle_alpha	95.054749
_cell_angle_beta	69.778664
_cell_angle_gamma	95.056291
loop_
_atom_site_label
_atom_site_type_symbol
_atom_site_fract_x
_atom_site_fract_y
_atom_site_fract_z
O1	O	2.135432	0.099007	-0.046486
O2	O	1.659947	0.099011	0.037296
O3	O	1.939580	0.099007	-0.242338
O4	O	1.855799	0.099010	0.233147
O5	O	1.922456	-0.099043	-0.259444
O6	O	1.642823	-0.099039	0.020189
O7	O	2.118307	-0.099044	-0.063592
Cu8	Cu	1.879002	-0.117125	-0.023263
Cu9	Cu	1.899253	0.117092	-0.003033
O10	O	1.838675	-0.099040	0.216041
C11	C	1.591076	-0.000014	0.035092
C12	C	1.411377	-0.000012	0.053991
N13	N	1.864770	-0.281861	-0.037495
C14	C	2.015921	-0.531153	0.113709
C15	C	2.005180	-0.655816	0.102939
C16	C	1.832558	-0.655854	-0.069813
C17	C	1.843298	-0.531191	-0.059043
C18	C	1.934981	-0.468844	0.032723
C19	C	1.945712	-0.344179	0.043501
C20	C	1.773099	-0.344219	-0.129260
C21	C	1.762359	-0.468883	-0.140029
C22	C	2.187179	-0.000017	-0.061388
C23	C	2.366879	-0.000011	-0.080287
C24	C	1.937367	-0.000016	-0.311200
C25	C	1.956267	-0.000009	-0.490898
N26	N	1.913499	0.281829	0.011184
C27	C	1.840888	-0.000014	0.284903
C28	C	1.821989	-0.000013	0.464603
H29	H	1.466257	-0.000006	-0.209706
O30	O	1.694184	-0.283756	-0.207723
C31	C	1.432220	-0.245756	-0.234472
C32	C	1.521390	-0.314275	-0.145470
H33	H	1.292506	-0.270424	-0.184201
H34	H	1.455479	-0.145928	-0.210987
H35	H	1.482697	-0.270253	-0.374223
H36	H	1.470968	-0.289878	-0.005696
H37	H	1.498137	-0.414086	-0.169092
H38	H	1.692569	-0.000016	-0.436019
O39	O	1.292901	0.000203	0.208457
C40	C	1.185831	0.102775	0.479440
C41	C	1.320076	0.102693	0.304564
H42	H	1.207775	0.185616	0.557204
H43	H	1.057125	0.102856	0.467799
H44	H	1.193274	0.019853	0.542820
H45	H	1.312787	0.185601	0.241086
H46	H	1.448724	0.102550	0.316319
O47	O	1.673308	-0.529632	-0.229034
C48	C	1.580210	-0.721694	-0.322159
C49	C	1.681091	-0.653051	-0.221277
H50	H	1.586498	-0.821490	-0.315950
H51	H	1.444668	-0.697228	-0.267658
H52	H	1.634882	-0.697168	-0.457667
H53	H	1.626563	-0.677540	-0.085754
H54	H	1.816624	-0.677522	-0.275913
H55	H	2.085694	-0.000020	-0.590288
H56	H	2.090555	-0.480389	0.188446
O57	O	2.034899	-0.283796	0.132646
C58	C	2.204910	-0.296922	0.302927
C59	C	2.103987	-0.365448	0.201999
H60	H	2.260765	-0.362908	0.359055
H61	H	2.309411	-0.238579	0.217290
H62	H	2.119156	-0.238536	0.407258
H63	H	2.189607	-0.423899	0.097663
H64	H	1.999469	-0.423716	0.287745
H65	H	1.757933	-0.706638	-0.144544
H66	H	2.071092	-0.706543	0.168886
