data_functionalizedCrystal
_audit_creation_method	'MofGen! by Chris Wilmer'
_symmetry_space_group_name_H-M	'P1'
_symmetry_Int_Tables_number	1
_symmetry_cell_setting	triclinic
loop_
_symmetry_equiv_pos_as_xyz
  x,y,z
_cell_length_a	14.560438
_cell_length_b	14.560438
_cell_length_c	14.560438
_cell_angle_alpha	60.000095
_cell_angle_beta	90.001343
_cell_angle_gamma	120.004140
loop_
_atom_site_label
_atom_site_type_symbol
_atom_site_fract_x
_atom_site_fract_y
_atom_site_fract_z
Zr1	Zr	-0.884697	1.005325	-0.120579
O2	O	-0.738034	1.196938	-0.267226
O3	O	-0.929665	0.813714	-0.075622
O4	O	-0.929649	1.005327	-0.267230
O5	O	-0.738054	1.005322	0.075523
O6	O	-1.080788	1.005327	-0.267236
O7	O	-0.738051	1.005324	-0.075618
O8	O	-1.080818	0.662565	0.075516
O9	O	-0.738025	1.348084	-0.267229
O10	O	-1.061628	0.892525	-0.056455
O11	O	-0.948837	0.892523	0.056344
O12	O	-0.948817	1.118124	-0.169250
O13	O	-0.836026	1.118122	-0.056451
Zr14	Zr	-1.125754	1.005320	0.120463
Zr15	Zr	-1.125747	1.005324	-0.120589
Zr16	Zr	-0.884703	1.005321	0.120473
Zr17	Zr	-0.884682	1.246385	-0.120584
Zr18	Zr	-1.125768	0.764260	0.120468
O19	O	-1.080785	1.196931	0.075506
O20	O	-1.080777	1.196937	-0.267239
O21	O	-0.738043	1.196932	0.075519
O22	O	-1.272417	0.813707	0.267110
O23	O	-1.272408	0.813713	-0.075635
O24	O	-0.929674	0.813708	0.267123
O25	O	-1.272396	1.005323	-0.075639
O26	O	-1.080802	1.005318	0.267114
O27	O	-0.929662	1.005318	0.267120
O28	O	-1.272400	1.005321	0.075502
O29	O	-0.929628	1.348083	-0.267236
O30	O	-1.080823	0.662562	0.267120
O31	O	-1.272426	0.662561	0.267113
O32	O	-1.272421	0.662565	0.075508
O33	O	-0.738030	1.348080	-0.075624
O34	O	-0.929633	1.348080	-0.075632
O35	O	-1.061633	0.892521	0.169134
O36	O	-1.174424	0.892523	0.056335
O37	O	-1.061614	1.118122	-0.056460
O38	O	-0.948823	1.118120	0.056340
C39	C	-1.005244	0.703794	-0.000052
C40	C	-1.005250	0.601457	-0.000050
C41	C	-0.703708	1.005323	-0.000046
C42	C	-0.601376	1.005324	-0.000042
C43	C	-0.457138	1.005327	0.083215
C44	C	-0.553294	1.005320	0.083224
C45	C	-0.553304	1.005322	-0.083316
C46	C	-0.457155	1.005320	-0.083319
C47	C	-0.306742	1.005324	-0.000065
C48	C	-0.409071	1.005329	-0.000054
C49	C	-1.005218	1.005328	-0.301577
C50	C	-1.005215	1.005329	-0.403910
C51	C	-1.088486	0.373964	0.083203
C52	C	-1.088513	0.470099	0.083209
C53	C	-0.921960	0.636681	-0.083328
C54	C	-0.921939	0.540546	-0.083337
C55	C	-1.226430	0.501412	0.145412
C56	C	-1.309709	0.466187	0.228697
C57	C	-1.345378	0.361455	0.340061
C58	C	-1.297757	0.291946	0.368160
C59	C	-1.214472	0.327177	0.284880
C60	C	-1.178821	0.431904	0.173504
C61	C	-0.784022	0.509226	-0.145529
C62	C	-0.700731	0.544457	-0.228805
C63	C	-0.665050	0.649195	-0.340173
C64	C	-0.712652	0.718716	-0.368272
C65	C	-0.795943	0.683485	-0.284996
C66	C	-0.831626	0.578740	-0.173628
C67	C	-1.005207	1.306851	-0.000064
C68	C	-1.005201	1.409188	-0.000065
C69	C	-0.946330	1.123087	-0.510864
C70	C	-0.946344	1.123081	-0.607013
C71	C	-1.064128	0.887549	-0.489240
C72	C	-1.064120	0.887556	-0.393094
C73	C	-1.005233	1.005317	0.301462
C74	C	-1.005236	1.005316	0.403794
C75	C	-1.306761	0.703793	-0.000064
C76	C	-1.409099	0.601456	-0.000066
C77	C	-1.005251	0.703789	0.301467
C78	C	-1.005260	0.601451	0.403802
C79	C	-1.306769	0.703788	0.301455
C80	C	-1.409110	0.601450	0.403786
C81	C	-0.703682	1.306857	-0.301571
C82	C	-0.601341	1.409195	-0.403902
C83	C	-0.703690	1.306852	-0.000052
C84	C	-0.601351	1.409189	-0.000050
C85	C	-1.005199	1.306856	-0.301583
C86	C	-1.005190	1.409194	-0.403918
C87	C	-1.398302	0.553377	-0.058940
C88	C	-1.494464	0.457229	-0.058946
C89	C	-1.612217	0.457244	0.058805
C90	C	-1.516056	0.553397	0.058803
C91	C	-1.064142	0.553369	0.510754
C92	C	-1.064137	0.457221	0.606905
C93	C	-0.946368	0.457240	0.489137
C94	C	-0.946366	0.553393	0.392989
C95	C	-1.516065	0.553370	0.392984
C96	C	-1.612222	0.457220	0.489139
C97	C	-1.494453	0.457236	0.606894
C98	C	-1.398299	0.553390	0.510740
H99	H	-0.417992	1.005332	0.151016
Cl100	Cl	-1.138160	0.396783	0.741359
Cl101	Cl	-0.872338	0.396815	0.475554
Cl102	Cl	-1.746680	0.396783	0.475552
Cl103	Cl	-0.613721	1.005313	0.187911
H104	H	-0.592462	1.005317	-0.151109
H105	H	-1.156284	0.267009	0.151008
Cl106	Cl	-0.872330	0.613851	0.258523
Cl107	Cl	-0.667792	0.850397	-0.508281
Cl108	Cl	-1.529631	0.613850	0.132817
Cl109	Cl	-1.746678	0.396814	0.132814
H110	H	-1.112085	0.791662	-0.480448
Cl111	Cl	-1.154607	0.239804	0.320195
Cl112	Cl	-1.263829	0.613845	0.524321
Cl113	Cl	-0.396726	1.005313	-0.188003
Cl114	Cl	-1.529659	0.613793	0.258531
H115	H	-0.898395	1.218972	-0.694096
H116	H	-1.348479	0.522788	0.205808
H117	H	-1.326798	0.206678	0.458849
Cl118	Cl	-1.138176	0.613784	0.524351
Cl119	Cl	-1.263846	0.613799	-0.132955
H120	H	-1.485663	0.418089	-0.106889
Cl121	Cl	-1.480873	0.396808	0.741353
H122	H	-0.834698	0.740101	-0.307882
H123	H	-1.413185	0.332780	0.407872
Cl124	Cl	-0.640882	0.457061	-0.193478
H125	H	-1.197404	0.586683	0.054730
Cl126	Cl	-1.138150	0.739505	-0.258627
H127	H	-0.597221	0.677880	-0.407976
Cl128	Cl	-0.828890	0.377533	-0.005520
Cl129	Cl	-0.817288	0.801818	-0.188000
H130	H	-0.898366	1.218986	-0.519677
