data_functionalizedCrystal
_audit_creation_method	'MofGen! by Chris Wilmer'
_symmetry_space_group_name_H-M	'P1'
_symmetry_Int_Tables_number	1
_symmetry_cell_setting	triclinic
loop_
_symmetry_equiv_pos_as_xyz
  x,y,z
_cell_length_a	14.519731
_cell_length_b	14.519731
_cell_length_c	16.053802
_cell_angle_alpha	92.569546
_cell_angle_beta	87.413705
_cell_angle_gamma	83.688853
loop_
_atom_site_label
_atom_site_type_symbol
_atom_site_fract_x
_atom_site_fract_y
_atom_site_fract_z
O1	O	1.227749	0.117107	-0.069433
O2	O	0.959276	0.131323	-0.069434
O3	O	1.100620	-0.010021	-0.069426
O4	O	1.086405	0.258451	-0.069441
O5	O	1.092840	-0.002273	0.069432
O6	O	0.951496	0.139071	0.069424
O7	O	1.219969	0.124855	0.069426
Zn8	Zn	1.084497	0.133193	0.091472
Zn9	Zn	1.094747	0.122985	-0.091480
O10	O	1.078625	0.266199	0.069417
C11	C	0.921026	0.134531	-0.000005
C12	C	0.818646	0.132535	-0.000006
C13	C	1.096064	-0.040507	0.000003
C14	C	1.094068	-0.142887	0.000004
C15	C	0.735502	0.130913	-0.000009
C16	C	0.631193	0.128886	-0.000009
C17	C	0.548054	0.127278	-0.000009
C18	C	0.443738	0.125251	-0.000011
C19	C	1.092446	-0.226031	0.000002
C20	C	1.090420	-0.330341	-0.000004
C21	C	1.088811	-0.413480	-0.000010
C22	C	1.086785	-0.517796	-0.000015
C23	C	1.258218	0.121647	-0.000005
C24	C	1.360599	0.123643	-0.000011
C25	C	1.083181	0.296685	-0.000014
C26	C	1.085177	0.399065	-0.000020
N27	N	1.077508	0.140159	0.216331
N28	N	1.101744	0.116011	-0.216340
C29	C	1.137672	0.080039	0.260029
C30	C	1.132792	0.084920	0.347435
C31	C	1.067751	0.149928	0.391143
C32	C	1.007581	0.210051	0.347439
C33	C	1.012457	0.205164	0.260034
C34	C	1.046450	0.171248	0.652551
C35	C	1.041580	0.176132	0.739962
C36	C	1.166790	0.051000	0.739952
C37	C	1.171665	0.046122	0.652546
C38	C	1.111491	0.106242	0.608850
N39	N	1.062763	0.154921	0.480486
N40	N	1.116475	0.101244	0.519508
H41	H	1.181782	0.035965	0.383014
H42	H	0.988613	0.229073	0.775545
H43	H	1.215780	0.002052	0.775538
H44	H	0.997455	0.220202	0.616981
O45	O	0.944481	0.273173	0.390023
C46	C	0.881443	0.336126	0.524676
C47	C	0.952960	0.264609	0.476557
H48	H	0.888261	0.329214	0.594647
H49	H	0.894539	0.409082	0.507536
H50	H	0.808532	0.322984	0.507460
H51	H	1.025899	0.277664	0.493748
H52	H	0.939783	0.191676	0.493701
O53	O	0.954106	0.263697	0.217621
C54	C	0.901787	0.422435	0.190897
C55	C	0.967939	0.356253	0.238965
H56	H	0.912934	0.497281	0.208149
H57	H	0.916442	0.407855	0.120909
H58	H	0.826956	0.411159	0.208090
H59	H	1.042793	0.367492	0.221842
H60	H	0.953204	0.370849	0.308941
O61	O	1.200881	0.016808	0.217705
C62	C	1.324590	-0.106756	0.226930
C63	C	1.253036	-0.035203	0.274963
H64	H	1.366790	-0.148813	0.273203
H65	H	1.287028	-0.155270	0.186048
H66	H	1.372970	-0.069107	0.185971
H67	H	1.204637	-0.072775	0.315968
H68	H	1.290659	0.013307	0.315792
O69	O	1.234870	-0.017111	0.610221
C70	C	1.358582	-0.140674	0.619438
C71	C	1.287029	-0.069124	0.667475
H72	H	1.400785	-0.182732	0.665707
H73	H	1.321019	-0.189187	0.578555
H74	H	1.406959	-0.103021	0.578478
H75	H	1.238632	-0.106699	0.708480
H76	H	1.324652	-0.020615	0.708305
