data_functionalizedCrystal
_audit_creation_method	'MofGen! by Chris Wilmer'
_symmetry_space_group_name_H-M	'P1'
_symmetry_Int_Tables_number	1
_symmetry_cell_setting	triclinic
loop_
_symmetry_equiv_pos_as_xyz
  x,y,z
_cell_length_a	13.339070
_cell_length_b	15.944493
_cell_length_c	12.376457
_cell_angle_alpha	101.280268
_cell_angle_beta	75.589755
_cell_angle_gamma	99.552169
loop_
_atom_site_label
_atom_site_type_symbol
_atom_site_fract_x
_atom_site_fract_y
_atom_site_fract_z
O1	O	1.361605	0.409515	-0.093990
O2	O	1.067088	0.354244	-0.093991
O3	O	1.222422	0.261481	-0.094000
O4	O	1.206272	0.502277	-0.093981
O5	O	1.183602	0.284631	0.094014
O6	O	1.028269	0.377394	0.094023
O7	O	1.322786	0.432665	0.094024
Zn8	Zn	1.169364	0.408705	0.123875
Zn9	Zn	1.220510	0.378204	-0.123842
O10	O	1.167452	0.525427	0.094033
C11	C	1.009991	0.356483	0.000016
C12	C	0.897695	0.328653	0.000015
C13	C	1.202353	0.241607	0.000002
C14	C	1.200378	0.147896	-0.000012
C15	C	0.532862	0.545039	0.000014
C16	C	0.638371	0.571188	0.000011
C17	C	0.703207	0.510557	0.000013
C18	C	0.662524	0.423771	0.000016
C19	C	0.557007	0.397618	0.000009
C20	C	0.727352	0.363136	0.000008
C21	C	0.686669	0.276351	0.000011
C22	C	0.581162	0.250202	0.000005
C23	C	0.516326	0.310834	0.000004
C24	C	0.832869	0.389289	0.000014
C25	C	0.857014	0.241868	0.000010
C26	C	0.751505	0.215719	0.000012
C27	C	1.291805	-0.066556	0.000010
C28	C	1.261639	-0.140028	-0.092691
C29	C	1.196709	-0.023678	0.000002
C30	C	1.223344	-0.117185	0.092677
C31	C	1.193171	-0.189409	0.000020
C32	C	1.166584	-0.095924	-0.092775
C33	C	1.128286	-0.073065	0.092676
C34	C	1.098055	-0.146522	-0.000047
C35	C	1.198750	0.071796	-0.000010
C36	C	1.191124	-0.284882	0.000024
C37	C	1.379883	0.430426	0.000015
C38	C	1.492181	0.458254	0.000009
C39	C	1.187521	0.545301	0.000028
C40	C	1.189498	0.639012	0.000035
N41	N	1.134465	0.429522	0.292936
N42	N	1.255417	0.357382	-0.292902
C43	C	1.336428	0.309041	0.647909
C44	C	1.360848	0.294470	0.529568
C45	C	1.304254	0.328231	0.470404
C46	C	1.223236	0.376568	0.529593
C47	C	1.198819	0.391146	0.647946
C48	C	1.166645	0.410336	0.470441
C49	C	1.085628	0.458673	0.529630
C50	C	1.061214	0.473248	0.647971
C51	C	1.117808	0.439487	0.707135
C52	C	1.191063	0.395758	0.352088
C53	C	1.053454	0.477863	0.352124
C54	C	1.029034	0.492434	0.470466
H55	H	0.865981	0.459951	0.000016
H56	H	0.548045	0.179534	-0.000005
H57	H	1.373739	-0.031852	-0.000083
H58	H	0.430411	0.289547	0.000007
F59	F	1.054702	-0.034798	0.195119
F60	F	0.708195	0.123357	0.000015
F61	F	1.335281	-0.178246	-0.195128
F62	F	1.135297	-0.083110	-0.195324
F63	F	0.926013	0.177334	0.000004
H64	H	1.382505	0.281562	0.696088
H65	H	0.671489	0.641848	0.000000
F66	F	1.277284	0.344316	0.289108
H67	H	0.789116	0.531853	0.000008
H68	H	1.247345	-0.127104	0.171043
F69	F	1.330244	0.312721	0.344454
H70	H	1.097923	0.451347	0.803498
H71	H	1.016087	-0.181097	-0.000098
F72	F	1.447069	0.243030	0.466578
H73	H	0.995253	0.512614	0.696163
H74	H	0.963068	0.531791	0.518672
F75	F	0.463858	0.609555	-0.000003
F76	F	0.993222	0.513800	0.289163
