data_functionalizedCrystal
_audit_creation_method	'MofGen! by Chris Wilmer'
_symmetry_space_group_name_H-M	'P1'
_symmetry_Int_Tables_number	1
_symmetry_cell_setting	triclinic
loop_
_symmetry_equiv_pos_as_xyz
  x,y,z
_cell_length_a	14.044220
_cell_length_b	13.101018
_cell_length_c	8.559649
_cell_angle_alpha	92.886752
_cell_angle_beta	98.516229
_cell_angle_gamma	93.664297
loop_
_atom_site_label
_atom_site_type_symbol
_atom_site_fract_x
_atom_site_fract_y
_atom_site_fract_z
O1	O	1.235746	0.085099	-0.373291
O2	O	0.960780	0.085125	-0.359531
O3	O	1.122488	0.085109	-0.137262
O4	O	1.074038	0.085115	-0.595560
O5	O	1.110872	-0.085320	-0.153223
O6	O	0.949165	-0.085304	-0.375492
O7	O	1.224131	-0.085330	-0.389253
Zn8	Zn	1.084804	-0.112376	-0.384906
Zn9	Zn	1.100107	0.112171	-0.363877
O10	O	1.062423	-0.085314	-0.611521
C11	C	0.920097	-0.000086	-0.361489
C12	C	0.816179	-0.000076	-0.343524
N13	N	1.074366	-0.265624	-0.399258
C14	C	1.124749	-0.525539	-0.329980
C15	C	1.060173	-0.474660	-0.418787
C16	C	1.068072	-0.358342	-0.407918
C17	C	1.116852	-0.641867	-0.340847
C18	C	0.625907	-0.000097	-0.310684
C19	C	0.558999	-0.000099	-0.438091
C20	C	0.453125	-0.000111	-0.419819
C21	C	0.731791	-0.000085	-0.328954
C22	C	1.264814	-0.000117	-0.387294
C23	C	1.368732	-0.000120	-0.405259
C24	C	1.120352	-0.000104	-0.086236
C25	C	1.131281	-0.000100	0.089587
N26	N	1.110553	0.265419	-0.349514
C27	C	1.064559	-0.000098	-0.662547
C28	C	1.053630	-0.000096	-0.838369
H29	H	0.998957	-0.518458	-0.502980
H30	H	1.185963	-0.481745	-0.245795
C31	C	0.589032	-0.000078	-0.603988
N32	N	0.611659	-0.000057	-0.728936
H33	H	0.603676	-0.000104	-0.187895
H34	H	1.206127	-0.000115	0.162423
H35	H	0.978789	-0.000093	0.088802
