data_functionalizedCrystal
_audit_creation_method	'MofGen! by Chris Wilmer'
_symmetry_space_group_name_H-M	'P1'
_symmetry_Int_Tables_number	1
_symmetry_cell_setting	triclinic
loop_
_symmetry_equiv_pos_as_xyz
  x,y,z
_cell_length_a	19.188930
_cell_length_b	19.288864
_cell_length_c	17.766277
_cell_angle_alpha	89.976755
_cell_angle_beta	90.010343
_cell_angle_gamma	96.859488
loop_
_atom_site_label
_atom_site_type_symbol
_atom_site_fract_x
_atom_site_fract_y
_atom_site_fract_z
O1	O	0.087098	-0.921360	0.062844
O2	O	0.420431	-0.588026	0.396177
O3	O	0.753765	-0.254693	0.729511
O4	O	0.098848	-0.719100	0.062794
O5	O	0.432181	-0.385767	0.396127
O6	O	0.765514	-0.052433	0.729460
O7	O	-0.008683	-0.826067	0.062806
O8	O	0.324650	-0.492733	0.396139
O9	O	0.657983	-0.159400	0.729472
O10	O	0.194629	-0.814393	0.062832
O11	O	0.527962	-0.481060	0.396165
O12	O	0.861296	-0.147726	0.729499
O13	O	-0.008686	-0.826048	-0.062383
O14	O	0.324647	-0.492714	0.270950
O15	O	0.657980	-0.159381	0.604284
O16	O	0.098844	-0.719081	-0.062395
O17	O	0.432178	-0.385748	0.270938
O18	O	0.765511	-0.052414	0.604272
O19	O	0.087095	-0.921341	-0.062345
O20	O	0.420428	-0.588007	0.270989
O21	O	0.753762	-0.254674	0.604322
Cu22	Cu	0.092969	-0.820209	-0.073800
Cu23	Cu	0.426303	-0.486876	0.259533
Cu24	Cu	0.759636	-0.153542	0.592866
Cu25	Cu	0.092973	-0.820232	0.074250
Cu26	Cu	0.426306	-0.486898	0.407583
Cu27	Cu	0.759640	-0.153565	0.740916
O28	O	0.194626	-0.814374	-0.062356
O29	O	0.527959	-0.481041	0.270977
O30	O	0.861292	-0.147707	0.604310
C31	C	0.098468	-0.693214	0.000193
C32	C	0.431801	-0.359881	0.333526
C33	C	0.765135	-0.026547	0.666859
C34	C	0.097333	-0.616110	0.000173
C35	C	0.430666	-0.282777	0.333506
C36	C	0.764000	0.050556	0.666840
C37	C	-0.034696	-0.825679	0.000209
C38	C	0.298638	-0.492346	0.333542
C39	C	0.631971	-0.159012	0.666876
C40	C	-0.112200	-0.824544	0.000202
C41	C	0.221133	-0.491211	0.333536
C42	C	0.554466	-0.157878	0.666869
C43	C	0.087475	-0.947227	0.000258
C44	C	0.420808	-0.613893	0.333591
C45	C	0.754141	-0.280560	0.666925
C46	C	0.088609	-1.024330	0.000283
C47	C	0.421943	-0.690997	0.333616
C48	C	0.755276	-0.357664	0.666949
C49	C	-0.157129	-0.887309	0.000214
C50	C	0.176204	-0.553975	0.333548
C51	C	0.509538	-0.220642	0.666881
C52	C	-0.229953	-0.886243	0.000226
C53	C	0.103381	-0.552909	0.333559
C54	C	0.436714	-0.219576	0.666893
C55	C	-0.257844	-0.822408	0.000211
C56	C	0.075489	-0.489075	0.333544
C57	C	0.408822	-0.155742	0.666877
C58	C	-0.212906	-0.759636	0.000203
C59	C	0.120427	-0.426302	0.333536
C60	C	0.453761	-0.092969	0.666870
C61	C	-0.140084	-0.760704	0.000199
C62	C	0.193250	-0.427370	0.333532
C63	C	0.526583	-0.094037	0.666865
N64	N	-0.365847	-0.773608	-0.042405
N65	N	-0.032513	-0.440275	0.290928
N66	N	0.300820	-0.106942	0.624261
N67	N	-0.435025	-0.772598	-0.042403
N68	N	-0.101692	-0.439265	0.290930
N69	N	0.231641	-0.105931	0.624264
C70	C	-0.477253	-0.819187	0.000225
C71	C	-0.143919	-0.485854	0.333559
C72	C	0.189414	-0.152520	0.666892
N73	N	-0.447690	-0.866835	0.042841
N74	N	-0.114357	-0.533502	0.376175
N75	N	0.218977	-0.200168	0.709508
N76	N	-0.378505	-0.867847	0.042836
N77	N	-0.045172	-0.534514	0.376169
N78	N	0.288161	-0.201181	0.709502
C79	C	-0.336807	-0.821243	0.000216
C80	C	-0.003473	-0.487910	0.333549
C81	C	0.329860	-0.154577	0.666883
C82	C	-0.601146	-0.880800	0.000251
C83	C	-0.267813	-0.547467	0.333584
C84	C	0.065521	-0.214133	0.666918
C85	C	-0.673971	-0.879731	0.000268
C86	C	-0.340637	-0.546398	0.333601
C87	C	-0.007304	-0.213065	0.666934
C88	C	-0.656922	-0.753122	0.000237
C89	C	-0.323589	-0.419789	0.333570
C90	C	0.009745	-0.086456	0.666903
C91	C	-0.584099	-0.754193	0.000228
C92	C	-0.250766	-0.420860	0.333561
C93	C	0.082568	-0.087526	0.666895
C94	C	-0.556216	-0.818034	0.000231
C95	C	-0.222882	-0.484700	0.333565
C96	C	0.110451	-0.151367	0.666898
C97	C	0.220638	-0.814762	0.000242
C98	C	0.553972	-0.481428	0.333575
C99	C	0.887305	-0.148095	0.666908
C100	C	0.298143	-0.815896	0.000253
C101	C	0.631476	-0.482563	0.333587
C102	C	0.964809	-0.149230	0.666920
N103	N	0.092966	-0.820198	-0.177931
N104	N	0.426300	-0.486865	0.155403
N105	N	0.759633	-0.153532	0.488736
C106	C	0.160427	-0.571419	0.000193
C107	C	0.493761	-0.238085	0.333526
C108	C	0.827094	0.095248	0.666860
C109	C	0.159361	-0.498972	0.000201
C110	C	0.492694	-0.165638	0.333534
C111	C	0.826028	0.167695	0.666868
C112	C	0.095197	-0.471219	0.000204
C113	C	0.428530	-0.137886	0.333538
C114	C	0.761864	0.195447	0.666871
C115	C	0.032095	-0.515921	0.000180
C116	C	0.365428	-0.182587	0.333513
C117	C	0.698761	0.150746	0.666847
C118	C	0.033163	-0.588366	0.000164
C119	C	0.366496	-0.255033	0.333498
C120	C	0.699829	0.078300	0.666831
C121	C	0.044758	-0.362960	0.044082
C122	C	0.378091	-0.029627	0.377415
C123	C	0.711425	0.303707	0.710749
C124	C	0.043693	-0.290516	0.044103
C125	C	0.377026	0.042818	0.377436
C126	C	0.710359	0.376151	0.710769
C127	C	0.091900	-0.247773	0.000249
C128	C	0.425234	0.085560	0.333583
C129	C	0.758567	0.418893	0.666916
C130	C	0.141185	-0.277483	-0.043614
C131	C	0.474519	0.055850	0.289719
C132	C	0.807852	0.389184	0.623052
C133	C	0.142253	-0.349929	-0.043630
C134	C	0.475587	-0.016595	0.289703
C135	C	0.808920	0.316738	0.623037
C136	C	0.094032	-0.392665	0.000221
C137	C	0.427365	-0.059332	0.333554
C138	C	0.760699	0.274002	0.666888
C139	C	0.153843	-0.124526	0.000277
C140	C	0.487176	0.208808	0.333611
C141	C	0.820510	0.542141	0.666944
C142	C	0.152774	-0.052078	0.000281
C143	C	0.486107	0.281256	0.333614
C144	C	0.819441	0.614589	0.666948
C145	C	0.025506	-0.069028	0.000267
C146	C	0.358839	0.264305	0.333601
C147	C	0.692172	0.597638	0.666934
C148	C	0.026576	-0.141475	0.000256
C149	C	0.359910	0.191858	0.333590
C150	C	0.693243	0.525192	0.666923
C151	C	0.090747	-0.169219	0.000265
C152	C	0.424080	0.164114	0.333598
C153	C	0.757414	0.497448	0.666931
C154	C	0.135209	-0.862189	-0.217294
C155	C	0.468542	-0.528855	0.116039
C156	C	0.801875	-0.195522	0.449372
C157	C	0.135207	-0.862200	-0.296096
C158	C	0.468540	-0.528866	0.037237
C159	C	0.801873	-0.195533	0.370570
C160	C	0.092971	-0.820207	-0.335531
C161	C	0.426304	-0.486874	-0.002198
C162	C	0.759637	-0.153541	0.331135
C163	C	0.050720	-0.778214	-0.296158
C164	C	0.384053	-0.444881	0.037175
C165	C	0.717386	-0.111547	0.370509
C166	C	0.050718	-0.778210	-0.217358
C167	C	0.384051	-0.444876	0.115975
C168	C	0.717384	-0.111543	0.449309
C169	C	0.091205	-0.757595	-0.460407
C170	C	0.424538	-0.424261	-0.127074
C171	C	0.757871	-0.090928	0.206260
C172	C	0.091212	-0.757598	-0.539206
C173	C	0.424545	-0.424264	-0.205872
C174	C	0.757878	-0.090931	0.127461
C175	C	0.092973	-0.820222	-0.578578
C176	C	0.426306	-0.486888	-0.245244
C177	C	0.759639	-0.153555	0.088089
C178	C	0.094741	-0.882844	-0.539141
C179	C	0.428075	-0.549510	-0.205808
C180	C	0.761408	-0.216177	0.127526
C181	C	0.094739	-0.882839	-0.460341
C182	C	0.428073	-0.549506	-0.127007
C183	C	0.761406	-0.216172	0.206326
C184	C	0.092968	-0.820208	-0.420977
C185	C	0.426301	-0.486874	-0.087644
C186	C	0.759634	-0.153541	0.245690
C187	C	0.135215	-0.862228	-0.703387
C188	C	0.468548	-0.528894	-0.370054
C189	C	0.801882	-0.195561	-0.036721
C190	C	0.135208	-0.862240	-0.782191
C191	C	0.468541	-0.528907	-0.448857
C192	C	0.801875	-0.195573	-0.115524
C193	C	0.050725	-0.778248	-0.782251
C194	C	0.384058	-0.444915	-0.448918
C195	C	0.717392	-0.111581	-0.115584
C196	C	0.050728	-0.778242	-0.703449
C197	C	0.384061	-0.444909	-0.370116
C198	C	0.717395	-0.111575	-0.036782
C199	C	0.092977	-0.820231	-0.664022
C200	C	0.426310	-0.486897	-0.330689
C201	C	0.759643	-0.153564	0.002645
N202	N	0.092971	-0.820248	0.178380
N203	N	0.426304	-0.486915	0.511713
N204	N	0.759637	-0.153581	0.845047
H205	H	-0.134431	-0.939293	0.000220
H206	H	0.198902	-0.605960	0.333553
H207	H	0.532235	-0.272626	0.666886
Br208	Br	-0.006608	-0.721268	-0.835761
Br209	Br	0.326725	-0.387934	-0.502428
Br210	Br	0.660059	-0.054601	-0.169095
Br211	Br	-0.734948	-0.964920	0.000292
Br212	Br	-0.401615	-0.631586	0.333625
Br213	Br	-0.068281	-0.298253	0.666959
Br214	Br	-0.523120	-0.669008	0.000211
Br215	Br	-0.189787	-0.335674	0.333544
Br216	Br	0.143547	-0.002341	0.666877
Br217	Br	0.247515	-0.609069	0.000203
Br218	Br	0.580848	-0.275735	0.333537
Br219	Br	0.914182	0.057598	0.666870
Br220	Br	-0.023184	-0.250201	0.103641
Br221	Br	0.310149	0.083132	0.436975
Br222	Br	0.643483	0.416465	0.770308
Br223	Br	-0.694767	-0.666488	0.000224
Br224	Br	-0.361434	-0.333155	0.333557
Br225	Br	-0.028100	0.000178	0.666890
Br226	Br	0.088821	-0.672611	-0.592719
Br227	Br	0.422155	-0.339278	-0.259386
Br228	Br	0.755488	-0.005944	0.073948
H229	H	0.204155	-0.015690	0.000293
H230	H	0.537488	0.317644	0.333626
H231	H	0.870822	0.650977	0.666960
Br232	Br	0.244995	-0.438307	0.000224
Br233	Br	0.578328	-0.104973	0.333557
Br234	Br	0.911662	0.228360	0.666890
Br235	Br	0.240929	-0.162183	0.000283
Br236	Br	0.574262	0.171150	0.333617
Br237	Br	0.907596	0.504484	0.666950
Br238	Br	-0.250757	-0.673003	0.000192
Br239	Br	0.082577	-0.339669	0.333525
Br240	Br	0.415910	-0.006336	0.666858
H241	H	0.089775	-0.706594	-0.428357
H242	H	0.423109	-0.373261	-0.095024
H243	H	0.756442	-0.039928	0.238310
H244	H	0.182381	-0.374115	-0.079348
H245	H	0.515714	-0.040782	0.253986
H246	H	0.849047	0.292551	0.587319
Br247	Br	-0.020674	-0.420961	0.103600
Br248	Br	0.312659	-0.087628	0.436934
Br249	Br	0.645992	0.245706	0.770267
H250	H	0.169616	-0.896418	-0.671284
H251	H	0.502949	-0.563085	-0.337951
H252	H	0.836283	-0.229751	-0.004617
Br253	Br	-0.563299	-0.967438	0.000248
Br254	Br	-0.229966	-0.634105	0.333582
Br255	Br	0.103367	-0.300772	0.666915
Br256	Br	-0.006613	-0.721215	-0.163932
Br257	Br	0.326721	-0.387881	0.169402
Br258	Br	0.660054	-0.054548	0.502735
H259	H	-0.103502	-0.709591	0.000189
H260	H	0.229831	-0.376258	0.333522
H261	H	0.563165	-0.042925	0.666855
Br262	Br	0.192537	-0.919238	-0.835615
Br263	Br	0.525870	-0.585905	-0.502281
Br264	Br	0.859203	-0.252571	-0.168948
H265	H	-0.020148	-0.493320	0.000193
H266	H	0.313185	-0.159987	0.333526
H267	H	0.646518	0.173347	0.666860
Br268	Br	0.097140	-0.967821	-0.406821
Br269	Br	0.430474	-0.634487	-0.073488
Br270	Br	0.763807	-0.301154	0.259845
Br271	Br	0.206617	-0.219485	-0.103131
Br272	Br	0.539950	0.113849	0.230202
Br273	Br	0.873284	0.447182	0.563535
Br274	Br	-0.006606	-0.721228	-0.349675
Br275	Br	0.326727	-0.387895	-0.016341
Br276	Br	0.660061	-0.054561	0.316992
Br277	Br	-0.061576	-0.031373	0.000259
Br278	Br	0.271757	0.301961	0.333592
Br279	Br	0.605091	0.635294	0.666926
Br280	Br	-0.290939	-0.971429	0.000246
Br281	Br	0.042394	-0.638096	0.333579
Br282	Br	0.375727	-0.304762	0.666912
Br283	Br	-0.059056	-0.202132	0.000231
Br284	Br	0.274277	0.131201	0.333564
Br285	Br	0.607610	0.464535	0.666898
H286	H	-0.018218	-0.624755	0.000148
H287	H	0.315115	-0.291422	0.333482
H288	H	0.648449	0.041912	0.666815
Br289	Br	0.097134	-0.967839	-0.592564
Br290	Br	0.430468	-0.634506	-0.259230
Br291	Br	0.763801	-0.301173	0.074103
Br292	Br	0.192563	-0.919156	-0.163790
Br293	Br	0.525896	-0.585823	0.169544
Br294	Br	0.859230	-0.252490	0.502877
H295	H	0.169607	-0.896394	-0.328152
H296	H	0.502941	-0.563060	0.005181
H297	H	0.836274	-0.229727	0.338514
Br298	Br	-0.006591	-0.721238	-0.650023
Br299	Br	0.326743	-0.387905	-0.316690
Br300	Br	0.660076	-0.054571	0.016644
