data_functionalizedCrystal
_audit_creation_method	'MofGen! by Chris Wilmer'
_symmetry_space_group_name_H-M	'P1'
_symmetry_Int_Tables_number	1
_symmetry_cell_setting	triclinic
loop_
_symmetry_equiv_pos_as_xyz
  x,y,z
_cell_length_a	16.109301
_cell_length_b	16.053802
_cell_length_c	16.109301
_cell_angle_alpha	92.563380
_cell_angle_beta	96.538519
_cell_angle_gamma	92.577771
loop_
_atom_site_label
_atom_site_type_symbol
_atom_site_fract_x
_atom_site_fract_y
_atom_site_fract_z
O1	O	1.106638	0.069379	-0.103368
O2	O	1.439971	0.402712	0.229965
O3	O	1.773304	0.736046	0.563298
O4	O	0.864576	0.069392	-0.116667
O5	O	1.197910	0.402726	0.216666
O6	O	1.531243	0.736059	0.550000
O7	O	0.992256	0.069377	0.011013
O8	O	1.325590	0.402710	0.344346
O9	O	1.658923	0.736043	0.677680
O10	O	0.978958	0.069395	-0.231048
O11	O	1.312291	0.402728	0.102285
O12	O	1.645625	0.736061	0.435619
O13	O	0.985228	-0.069481	0.004014
O14	O	1.318562	0.263852	0.337347
O15	O	1.651895	0.597185	0.670681
O16	O	0.857549	-0.069466	-0.123666
O17	O	1.190882	0.263868	0.209668
O18	O	1.524215	0.597201	0.543001
O19	O	1.099610	-0.069479	-0.110367
O20	O	1.432943	0.263854	0.222966
O21	O	1.766277	0.597187	0.556300
Zn22	Zn	0.977463	-0.091519	-0.118128
Zn23	Zn	1.310797	0.241814	0.215206
Zn24	Zn	1.644130	0.575148	0.548539
Zn25	Zn	0.986723	0.091432	-0.108906
Zn26	Zn	1.320056	0.424766	0.224427
Zn27	Zn	1.653390	0.758099	0.557760
O28	O	0.971930	-0.069464	-0.238047
O29	O	1.305263	0.263870	0.095286
O30	O	1.638597	0.597203	0.428620
C31	C	0.830088	-0.000035	-0.119628
C32	C	1.163421	0.333298	0.213706
C33	C	1.496754	0.666632	0.547039
C34	C	0.737793	-0.000030	-0.118012
C35	C	1.071126	0.333303	0.215321
C36	C	1.404459	0.666637	0.548655
N37	N	0.971150	-0.216379	-0.124420
N38	N	1.304483	0.116955	0.208913
N39	N	1.637817	0.450288	0.542246
C40	C	0.515520	-0.000034	-0.190020
C41	C	0.848853	0.333299	0.143313
C42	C	1.182187	0.666632	0.476647
C43	C	0.428799	-0.000040	-0.188496
C44	C	0.762133	0.333293	0.144837
C45	C	1.095466	0.666627	0.478170
C46	C	0.448673	-0.000048	-0.037008
C47	C	0.782007	0.333286	0.296325
C48	C	1.115340	0.666619	0.629659
C49	C	0.535392	-0.000048	-0.038533
C50	C	0.868725	0.333285	0.294800
C51	C	1.202059	0.666619	0.628134
C52	C	0.568813	-0.000037	-0.115041
C53	C	0.902146	0.333296	0.218292
C54	C	1.235480	0.666629	0.551625
C55	C	0.395374	-0.000042	-0.111992
C56	C	0.728707	0.333291	0.221341
C57	C	1.062040	0.666624	0.554674
C58	C	0.301347	-0.000048	-0.110340
C59	C	0.634681	0.333285	0.222994
C60	C	0.968014	0.666619	0.556327
C61	C	0.662845	-0.000033	-0.116694
C62	C	0.996179	0.333300	0.216639
C63	C	1.329512	0.666634	0.549972
C64	C	1.025498	-0.260079	-0.070112
C65	C	1.358831	0.073254	0.263222
C66	C	1.692165	0.406587	0.596555
C67	C	1.021089	-0.347485	-0.074522
C68	C	1.354423	-0.014152	0.258812
C69	C	1.687756	0.319181	0.592145
C70	C	0.962337	-0.391189	-0.133245
C71	C	1.295670	-0.057856	0.200089
C72	C	1.629003	0.275477	0.533422
C73	C	0.907983	-0.347483	-0.187556
C74	C	1.241316	-0.014149	0.145778
C75	C	1.574650	0.319184	0.479111
C76	C	0.912388	-0.260078	-0.183141
C77	C	1.245721	0.073255	0.150192
C78	C	1.579055	0.406589	0.483525
C79	C	0.943094	-0.652597	-0.152504
C80	C	1.276428	-0.319263	0.180830
C81	C	1.609761	0.014070	0.514163
C82	C	0.938695	-0.740008	-0.156916
C83	C	1.272028	-0.406674	0.176418
C84	C	1.605362	-0.073341	0.509751
C85	C	1.051801	-0.740004	-0.043880
C86	C	1.385134	-0.406671	0.289453
C87	C	1.718468	-0.073338	0.622787
C88	C	1.056204	-0.652598	-0.039474
C89	C	1.389537	-0.319265	0.293859
C90	C	1.722871	0.014069	0.627193
C91	C	1.001848	-0.608899	-0.093782
C92	C	1.335181	-0.275565	0.239551
C93	C	1.668514	0.057768	0.572885
N94	N	0.957831	-0.480533	-0.137755
N95	N	1.291164	-0.147199	0.195578
N96	N	1.624497	0.186134	0.528911
N97	N	1.006350	-0.519557	-0.089267
N98	N	1.339684	-0.186224	0.244066
N99	N	1.673017	0.147109	0.577400
C100	C	1.134099	-0.000050	-0.107406
C101	C	1.467432	0.333283	0.225927
C102	C	1.800765	0.666617	0.559260
C103	C	1.226394	-0.000049	-0.109021
C104	C	1.559727	0.333284	0.224312
C105	C	1.893061	0.666617	0.557645
C106	C	0.988204	-0.000053	0.038488
C107	C	1.321537	0.333281	0.371822
C108	C	1.654870	0.666614	0.705155
C109	C	0.986588	-0.000054	0.130784
C110	C	1.319922	0.333280	0.464117
C111	C	1.653255	0.666613	0.797450
N112	N	0.993043	0.216292	-0.102607
N113	N	1.326376	0.549625	0.230726
N114	N	1.659709	0.882959	0.564060
C115	C	0.975983	-0.000032	-0.265522
C116	C	1.309316	0.333301	0.067811
C117	C	1.642649	0.666634	0.401144
C118	C	0.977598	-0.000026	-0.357817
C119	C	1.310932	0.333308	-0.024484
C120	C	1.644265	0.666641	0.308849
C121	C	1.058597	-0.000045	0.353057
C122	C	1.391930	0.333289	0.686390
C123	C	1.725263	0.666622	1.019723
C124	C	1.057073	-0.000038	0.439777
C125	C	1.390406	0.333296	0.773111
C126	C	1.723740	0.666629	1.106444
C127	C	0.905584	-0.000032	0.419903
C128	C	1.238918	0.333301	0.753236
C129	C	1.572251	0.666634	1.086570
C130	C	0.907109	-0.000033	0.333184
C131	C	1.240443	0.333300	0.666518
C132	C	1.573776	0.666633	0.999851
C133	C	0.983618	-0.000044	0.299763
C134	C	1.316951	0.333290	0.633097
C135	C	1.650284	0.666623	0.966430
C136	C	0.980569	-0.000036	0.473203
C137	C	1.313902	0.333298	0.806536
C138	C	1.647236	0.666631	1.139870
C139	C	0.978916	-0.000028	0.567229
C140	C	1.312250	0.333305	0.900563
C141	C	1.645583	0.666638	1.233896
C142	C	0.985271	-0.000050	0.205731
C143	C	1.318604	0.333284	0.539064
C144	C	1.651937	0.666617	0.872398
H145	H	0.542728	-0.000032	-0.252318
H146	H	0.876061	0.333301	0.081015
H147	H	1.209395	0.666635	0.414348
H148	H	0.385411	-0.000039	-0.249552
H149	H	0.718744	0.333294	0.083781
H150	H	1.052078	0.666627	0.417115
H151	H	1.120895	-0.000051	0.325848
H152	H	1.454228	0.333282	0.659182
H153	H	1.787561	0.666615	0.992515
F154	F	0.413097	-0.000055	0.044413
F155	F	0.746430	0.333278	0.377747
F156	F	1.079763	0.666611	0.711080
H157	H	0.578786	-0.000053	0.022528
H158	H	0.912119	0.333281	0.355861
H159	H	1.245452	0.666614	0.689194
H160	H	1.096054	-0.775592	0.000336
H161	H	1.429388	-0.442259	0.333669
H162	H	1.762721	-0.108925	0.667003
H163	H	1.104045	-0.617016	0.008343
H164	H	1.437379	-0.283682	0.341676
H165	H	1.770712	0.049651	0.675009
F166	F	0.876159	-0.786515	-0.219422
F167	F	1.209492	-0.453182	0.113911
F168	F	1.542826	-0.119848	0.447245
F169	F	0.885247	-0.606096	-0.210304
F170	F	1.218580	-0.272762	0.123029
F171	F	1.551914	0.060571	0.456363
F172	F	0.845449	-0.393997	-0.250050
F173	F	1.178782	-0.060663	0.083283
F174	F	1.512116	0.272670	0.416616
H175	H	1.073344	-0.224501	-0.022297
H176	H	1.406677	0.108832	0.311037
H177	H	1.740011	0.442166	0.644370
F178	F	0.854541	-0.213570	-0.240942
F179	F	1.187874	0.119763	0.092391
F180	F	1.521208	0.453097	0.425724
F181	F	1.078931	-0.393995	-0.016719
F182	F	1.412265	-0.060662	0.316614
F183	F	1.745598	0.272672	0.649947
H184	H	0.843294	-0.000026	0.447125
H185	H	1.176627	0.333308	0.780459
H186	H	1.509961	0.666641	1.113792
F187	F	1.136876	-0.000037	0.496493
F188	F	1.470210	0.333297	0.829826
F189	F	1.803543	0.666630	1.163159
F190	F	0.827302	-0.000026	0.276462
F191	F	1.160636	0.333307	0.609796
F192	F	1.493969	0.666640	0.943129
