data_functionalizedCrystal
_audit_creation_method	'MofGen! by Chris Wilmer'
_symmetry_space_group_name_H-M	'P1'
_symmetry_Int_Tables_number	1
_symmetry_cell_setting	triclinic
loop_
_symmetry_equiv_pos_as_xyz
  x,y,z
_cell_length_a	17.038272
_cell_length_b	15.500227
_cell_length_c	17.699083
_cell_angle_alpha	87.178547
_cell_angle_beta	87.197286
_cell_angle_gamma	93.043705
loop_
_atom_site_label
_atom_site_type_symbol
_atom_site_fract_x
_atom_site_fract_y
_atom_site_fract_z
O1	O	1.040737	0.071839	0.161061
O2	O	0.813112	0.071864	0.158450
O3	O	0.933355	0.071843	0.049992
O4	O	0.920494	0.071860	0.269519
O5	O	0.926058	-0.072044	0.056546
O6	O	0.805815	-0.072023	0.165004
O7	O	1.033440	-0.072049	0.167615
Cu8	Cu	0.918962	-0.085174	0.166908
Cu9	Cu	0.927591	0.084989	0.159157
O10	O	0.913197	-0.072028	0.276073
C11	C	0.780339	-0.000076	0.159354
C12	C	0.693558	-0.000067	0.152273
N13	N	0.912898	-0.204858	0.172359
C14	C	0.643338	-0.000063	0.217283
C15	C	0.561798	-0.000075	0.210626
C16	C	0.530480	-0.000086	0.138957
C17	C	0.580706	-0.000093	0.073943
C18	C	0.662244	-0.000086	0.080601
C19	C	0.284759	-0.000111	0.115436
C20	C	0.203214	-0.000114	0.108782
C21	C	0.184312	-0.000099	0.245466
C22	C	0.265853	-0.000087	0.252118
C23	C	0.316072	-0.000099	0.187103
C24	C	0.447133	-0.000096	0.132151
C25	C	0.399417	-0.000095	0.193910
C26	C	0.963867	-0.250144	0.126421
C27	C	0.959288	-0.340716	0.130551
C28	C	0.903744	-0.386000	0.180624
C29	C	0.852770	-0.340709	0.226564
C30	C	0.857345	-0.250138	0.222430
C31	C	0.887261	-0.659464	0.195506
C32	C	0.882691	-0.750041	0.199639
C33	C	0.989210	-0.750042	0.103624
C34	C	0.993783	-0.659470	0.099497
C35	C	0.942806	-0.614186	0.145435
C36	C	0.899064	-0.478580	0.184849
C37	C	0.947483	-0.521608	0.141206
C38	C	1.066213	-0.000106	0.166711
C39	C	1.152994	-0.000110	0.173792
C40	C	0.929246	-0.000101	0.025042
C41	C	0.927863	-0.000101	-0.059068
N42	N	0.933660	0.204673	0.153700
C43	C	0.998444	-0.000110	-0.103018
C44	C	0.997140	-0.000102	-0.182048
C45	C	0.925255	-0.000092	-0.217126
C46	C	0.854670	-0.000080	-0.173170
C47	C	0.855974	-0.000081	-0.094142
C48	C	0.849407	-0.000072	-0.491881
C49	C	0.848108	-0.000073	-0.570915
C50	C	0.990573	-0.000093	-0.579788
C51	C	0.991878	-0.000095	-0.500759
C52	C	0.921293	-0.000078	-0.456811
C53	C	0.922707	-0.000085	-0.371118
C54	C	0.923840	-0.000091	-0.302817
C55	C	0.917306	-0.000082	0.301023
C56	C	0.918689	-0.000076	0.385133
H57	H	0.668831	-0.000054	0.275643
F58	F	1.013534	-0.388912	0.081658
F59	F	1.052900	-0.611276	0.046206
F60	F	1.043457	-0.798242	0.054736
H61	H	0.421623	-0.000129	0.073799
H62	H	0.520912	-0.000071	0.263564
H63	H	0.291347	-0.000069	0.310477
F64	F	1.022989	-0.201957	0.073130
F65	F	1.072262	-0.000114	-0.228820
F66	F	0.839952	-0.526780	0.238141
H67	H	0.815840	-0.213267	0.259836
H68	H	1.050413	-0.000108	-0.472203
F69	F	0.823571	-0.798231	0.252938
H70	H	1.056980	-0.000124	-0.074463
H71	H	0.177718	-0.000122	0.050418
H72	H	1.048047	-0.000102	-0.615581
H73	H	0.789567	-0.000066	-0.599473
H74	H	0.325638	-0.000121	0.062496
F75	F	0.833011	-0.611277	0.244397
F76	F	0.793651	-0.388905	0.279852
F77	F	1.006592	-0.473412	0.087913
F78	F	0.774284	-0.000053	-0.445118
H79	H	0.143415	-0.000091	0.298397
F80	F	0.778164	-0.000059	-0.210505
H81	H	0.555199	-0.000114	0.015589
F82	F	0.780853	-0.000069	-0.047367
H83	H	0.424920	-0.000091	0.252263
F84	F	0.715692	-0.000094	0.011408
