data_functionalizedCrystal
_audit_creation_method	'MofGen! by Chris Wilmer'
_symmetry_space_group_name_H-M	'P1'
_symmetry_Int_Tables_number	1
_symmetry_cell_setting	triclinic
loop_
_symmetry_equiv_pos_as_xyz
  x,y,z
_cell_length_a	14.044220
_cell_length_b	27.732048
_cell_length_c	13.101039
_cell_angle_alpha	93.329410
_cell_angle_beta	86.340132
_cell_angle_gamma	87.915767
loop_
_atom_site_label
_atom_site_type_symbol
_atom_site_fract_x
_atom_site_fract_y
_atom_site_fract_z
O1	O	1.261246	0.114020	-0.085126
O2	O	0.985339	0.109817	-0.085151
O3	O	1.131860	0.041925	-0.085119
O4	O	1.114725	0.181913	-0.085159
O5	O	1.121348	0.046805	0.085309
O6	O	0.974827	0.114697	0.085276
O7	O	1.250733	0.118900	0.085301
Zn8	Zn	1.111111	0.117574	0.112348
Zn9	Zn	1.124962	0.111144	-0.112198
O10	O	1.104212	0.186793	0.085268
C11	C	0.944796	0.110418	0.000059
C12	C	0.839651	0.104930	0.000051
C13	C	0.647135	0.094899	0.000074
C14	C	0.588932	0.133816	0.000067
C15	C	0.481810	0.128235	0.000080
C16	C	0.754268	0.100480	0.000061
C17	C	1.126244	0.026341	0.000098
C18	C	1.125160	-0.027364	0.000106
C19	C	1.204929	-0.362438	0.000061
C20	C	1.200910	-0.564286	0.000046
O21	O	1.273853	-0.592120	0.000008
N22	N	1.114029	-0.587487	0.000039
C23	C	1.028146	-0.560223	0.000029
O24	O	0.954156	-0.584589	0.000012
C25	C	1.032166	-0.358376	0.000037
C26	C	1.119052	-0.335177	0.000054
C27	C	1.291808	-0.339239	0.000077
C28	C	1.292812	-0.288779	0.000086
C29	C	1.206935	-0.261519	0.000079
C30	C	1.120056	-0.284718	0.000063
C31	C	0.946285	-0.331113	0.000019
C32	C	0.947297	-0.280648	0.000018
C33	C	1.034184	-0.257449	0.000036
C34	C	1.035183	-0.206998	0.000066
N35	N	1.122064	-0.183797	0.000072
C36	C	1.207941	-0.211057	0.000079
C37	C	1.026042	-0.666196	0.000027
C38	C	1.025036	-0.716658	0.000027
C39	C	1.197801	-0.720717	0.000043
C40	C	1.198805	-0.670255	0.000050
C41	C	1.112923	-0.642995	0.000034
C42	C	1.210041	-0.105089	0.000100
C43	C	1.211037	-0.054625	0.000113
C44	C	1.038273	-0.050570	0.000093
C45	C	1.037276	-0.101030	0.000085
C46	C	1.123168	-0.128288	0.000085
O47	O	0.962280	-0.179134	0.000092
O48	O	1.281921	-0.186683	0.000073
C49	C	1.203925	-0.412897	0.000052
C50	C	1.117046	-0.436096	0.000035
C51	C	1.031169	-0.408835	0.000029
C52	C	1.116040	-0.486557	0.000035
C53	C	1.201917	-0.513818	0.000042
C54	C	1.288798	-0.490617	0.000049
C55	C	1.289802	-0.440157	0.000059
C56	C	0.944288	-0.432037	0.000022
C57	C	0.943292	-0.482496	0.000013
C58	C	1.029168	-0.509756	0.000020
C59	C	1.291277	0.118300	0.000088
C60	C	1.396422	0.123787	0.000090
C61	C	1.109828	0.202376	0.000050
C62	C	1.110913	0.256082	0.000034
N63	N	1.101664	0.121962	0.265594
N64	N	1.134415	0.106752	-0.265444
C65	C	1.088813	0.127936	0.474634
C66	C	1.147264	0.100779	0.525523
C67	C	1.140113	0.104104	0.641839
C68	C	1.095962	0.124612	0.358306
H69	H	0.619555	0.171325	0.000051
H70	H	0.954283	-0.735541	0.000031
C71	C	1.222128	0.066000	0.466379
H72	H	1.257860	0.049397	0.513606
H73	H	1.263898	0.083879	0.424519
H74	H	1.190806	0.043263	0.424531
C75	C	1.013940	0.162705	0.533777
H76	H	0.978193	0.179303	0.486555
H77	H	1.045242	0.185441	0.575640
H78	H	0.972173	0.144814	0.575623
C79	C	0.605774	0.044230	0.000082
H80	H	0.538157	0.047079	0.000078
H81	H	0.623156	0.028874	0.059512
H82	H	0.630472	0.025480	-0.059359
H83	H	1.281793	-0.035739	0.000130
H84	H	1.279983	-0.127277	0.000096
C85	C	1.388389	-0.263268	0.000086
H86	H	1.439383	-0.286736	0.000077
H87	H	1.388722	-0.241968	0.059515
H88	H	1.396036	-0.245368	-0.059356
H89	H	1.361743	-0.361429	0.000079
H90	H	0.877360	-0.258456	0.000004
H91	H	1.269556	-0.651370	0.000063
C92	C	1.292264	-0.750710	0.000034
H93	H	1.279214	-0.784085	0.000021
H94	H	1.324273	-0.741583	0.059461
H95	H	1.331574	-0.744973	-0.059410
H96	H	0.956102	-0.644006	0.000015
H97	H	0.966524	-0.119918	0.000099
C98	C	0.850708	-0.356621	-0.000009
H99	H	0.799717	-0.333152	-0.000026
H100	H	0.843042	-0.374526	0.059418
H101	H	0.850394	-0.377916	-0.059454
H102	H	0.968354	-0.028365	0.000091
H103	H	1.360554	-0.421273	0.000072
H104	H	1.358722	-0.512821	0.000060
H105	H	0.872532	-0.501380	0.000008
H106	H	0.874355	-0.409846	0.000014
