data_functionalizedCrystal
_audit_creation_method	'MofGen! by Chris Wilmer'
_symmetry_space_group_name_H-M	'P1'
_symmetry_Int_Tables_number	1
_symmetry_cell_setting	triclinic
loop_
_symmetry_equiv_pos_as_xyz
  x,y,z
_cell_length_a	13.897449
_cell_length_b	16.625545
_cell_length_c	16.625539
_cell_angle_alpha	90.028234
_cell_angle_beta	90.024767
_cell_angle_gamma	90.023964
loop_
_atom_site_label
_atom_site_type_symbol
_atom_site_fract_x
_atom_site_fract_y
_atom_site_fract_z
Zn1	Zn	-1.474648	0.321002	-0.456000
Zn2	Zn	-1.224648	0.571002	-0.206000
Zn3	Zn	-0.974648	0.821002	0.044000
Zn4	Zn	-0.724648	1.071002	0.294000
Zn5	Zn	-1.474528	0.455845	-0.321167
Zn6	Zn	-1.224528	0.705845	-0.071167
Zn7	Zn	-0.974528	0.955845	0.178833
Zn8	Zn	-0.724528	1.205845	0.428833
Zn9	Zn	-1.313341	0.321030	-0.321171
Zn10	Zn	-1.063341	0.571030	-0.071171
Zn11	Zn	-0.813341	0.821030	0.178829
Zn12	Zn	-0.563341	1.071030	0.428829
Zn13	Zn	-1.313301	0.455796	-0.455947
Zn14	Zn	-1.063301	0.705796	-0.205947
Zn15	Zn	-0.813301	0.955796	0.044053
Zn16	Zn	-0.563301	1.205796	0.294053
O17	O	-1.393954	0.388418	-0.388571
O18	O	-1.143954	0.638418	-0.138571
O19	O	-0.893954	0.888418	0.111429
O20	O	-0.643954	1.138418	0.361429
O21	O	-1.609613	0.338898	-0.438135
O22	O	-1.359613	0.588898	-0.188135
O23	O	-1.109613	0.838898	0.061865
O24	O	-0.859613	1.088898	0.311865
O25	O	-1.453112	0.437994	-0.208335
O26	O	-1.203112	0.687994	0.041665
O27	O	-0.953112	0.937994	0.291665
O28	O	-0.703112	1.187994	0.541665
O29	O	-1.334805	0.208194	-0.339080
O30	O	-1.084805	0.458194	-0.089080
O31	O	-0.834805	0.708194	0.160920
O32	O	-0.584805	0.958194	0.410920
O33	O	-1.609525	0.437966	-0.339074
O34	O	-1.359525	0.687966	-0.089074
O35	O	-1.109525	0.937966	0.160926
O36	O	-0.859525	1.187966	0.410926
O37	O	-1.453317	0.208173	-0.438138
O38	O	-1.203317	0.458173	-0.188138
O39	O	-0.953317	0.708173	0.061862
O40	O	-0.703317	0.958173	0.311862
O41	O	-1.334689	0.338945	-0.208338
O42	O	-1.084689	0.588945	0.041662
O43	O	-0.834689	0.838945	0.291662
O44	O	-0.584689	1.088945	0.541662
O45	O	-1.178354	0.338898	-0.339028
O46	O	-0.928354	0.588898	-0.089028
O47	O	-0.678354	0.838898	0.160972
O48	O	-0.428354	1.088898	0.410972
O49	O	-1.334737	0.437883	-0.568787
O50	O	-1.084737	0.687883	-0.318787
O51	O	-0.834737	0.937883	-0.068787
O52	O	-0.584737	1.187883	0.181213
O53	O	-1.178324	0.437910	-0.438048
O54	O	-0.928324	0.687910	-0.188048
O55	O	-0.678324	0.937910	0.061952
O56	O	-0.428324	1.187910	0.311952
O57	O	-1.453278	0.338850	-0.568826
O58	O	-1.203278	0.588850	-0.318826
O59	O	-0.953278	0.838850	-0.068826
O60	O	-0.703278	1.088850	0.181174
O61	O	-1.453073	0.568671	-0.339023
O62	O	-1.203073	0.818671	-0.089023
O63	O	-0.953073	1.068671	0.160977
O64	O	-0.703073	1.318671	0.410977
O65	O	-1.334621	0.568635	-0.438045
O66	O	-1.084621	0.818635	-0.188045
O67	O	-0.834621	1.068635	0.061955
O68	O	-0.584621	1.318635	0.311955
C69	C	-1.143340	0.388402	-0.388534
C70	C	-0.893340	0.638402	-0.138534
C71	C	-0.643340	0.888402	0.111466
C72	C	-0.393340	1.138402	0.361466
C73	C	-1.036126	0.388415	-0.388536
C74	C	-0.786126	0.638415	-0.138536
C75	C	-0.536126	0.888415	0.111464
C76	C	-0.286126	1.138415	0.361464
C77	C	-0.949056	0.388417	-0.388546
C78	C	-0.699056	0.638417	-0.138546
C79	C	-0.449056	0.888417	0.111454
C80	C	-0.199056	1.138417	0.361454
C81	C	-0.839824	0.388421	-0.388567
C82	C	-0.589824	0.638421	-0.138567
C83	C	-0.339824	0.888421	0.111433
C84	C	-0.089824	1.138421	0.361433
C85	C	-1.393856	0.597909	-0.388546
C86	C	-1.143856	0.847909	-0.138546
C87	C	-0.893856	1.097909	0.111454
C88	C	-0.643856	1.347909	0.361454
C89	C	-1.393902	0.687530	-0.388561
C90	C	-1.143902	0.937530	-0.138561
C91	C	-0.893902	1.187530	0.111439
C92	C	-0.643902	1.437530	0.361439
C93	C	-1.394017	0.388358	-0.598880
C94	C	-1.144017	0.638358	-0.348880
C95	C	-0.894017	0.888358	-0.098880
C96	C	-0.644017	1.138358	0.151120
C97	C	-1.394044	0.388332	-0.688502
C98	C	-1.144044	0.638332	-0.438502
C99	C	-0.894044	0.888332	-0.188502
C100	C	-0.644044	1.138332	0.061498
C101	C	-0.645547	0.388431	-0.388600
C102	C	-0.395547	0.638431	-0.138600
C103	C	-0.145547	0.888431	0.111400
C104	C	0.104453	1.138431	0.361400
C105	C	-0.752761	0.388428	-0.388587
C106	C	-0.502761	0.638428	-0.138587
C107	C	-0.252761	0.888428	0.111413
C108	C	-0.002761	1.138428	0.361413
C109	C	-1.394060	1.015706	-0.388658
C110	C	-1.144060	1.265706	-0.138658
C111	C	-0.894060	1.515706	0.111342
C112	C	-0.644060	1.765706	0.361342
C113	C	-1.394013	0.924397	-0.388633
C114	C	-1.144013	1.174397	-0.138633
C115	C	-0.894013	1.424397	0.111367
C116	C	-0.644013	1.674397	0.361367
C117	C	-1.393980	0.851621	-0.388609
C118	C	-1.143980	1.101621	-0.138609
C119	C	-0.893980	1.351621	0.111391
C120	C	-0.643980	1.601621	0.361391
C121	C	-1.393935	0.760306	-0.388585
C122	C	-1.143935	1.010306	-0.138585
C123	C	-0.893935	1.260306	0.111415
C124	C	-0.643935	1.510306	0.361415
C125	C	-1.394071	1.178109	-0.388625
C126	C	-1.144071	1.428109	-0.138625
C127	C	-0.894071	1.678109	0.111375
C128	C	-0.644071	1.928109	0.361375
C129	C	-1.394099	1.088488	-0.388671
C130	C	-1.144099	1.338488	-0.138671
C131	C	-0.894099	1.588488	0.111329
C132	C	-0.644099	1.838488	0.361329
C133	C	-1.394088	0.388242	-1.016677
C134	C	-1.144088	0.638242	-0.766677
C135	C	-0.894088	0.888242	-0.516677
C136	C	-0.644088	1.138242	-0.266677
C137	C	-1.394073	0.388270	-0.925369
C138	C	-1.144073	0.638270	-0.675369
C139	C	-0.894073	0.888270	-0.425369
C140	C	-0.644073	1.138270	-0.175369
C141	C	-1.394066	0.388288	-0.852592
C142	C	-1.144066	0.638288	-0.602592
C143	C	-0.894066	0.888288	-0.352592
C144	C	-0.644066	1.138288	-0.102592
C145	C	-1.394050	0.388314	-0.761278
C146	C	-1.144050	0.638314	-0.511278
C147	C	-0.894050	0.888314	-0.261278
C148	C	-0.644050	1.138314	-0.011278
C149	C	-1.393947	0.388420	-0.179081
C150	C	-1.143947	0.638420	0.070919
C151	C	-0.893947	0.888420	0.320919
C152	C	-0.643947	1.138420	0.570919
C153	C	-1.394107	0.388218	-0.089460
C154	C	-1.144107	0.638218	0.160540
C155	C	-0.894107	0.888218	0.410540
C156	C	-0.644107	1.138218	0.660540
