data_functionalizedCrystal
_audit_creation_method	'MofGen! by Chris Wilmer'
_symmetry_space_group_name_H-M	'P1'
_symmetry_Int_Tables_number	1
_symmetry_cell_setting	triclinic
loop_
_symmetry_equiv_pos_as_xyz
  x,y,z
_cell_length_a	19.188930
_cell_length_b	14.971486
_cell_length_c	13.448316
_cell_angle_alpha	90.006811
_cell_angle_beta	90.020644
_cell_angle_gamma	83.379454
loop_
_atom_site_label
_atom_site_type_symbol
_atom_site_fract_x
_atom_site_fract_y
_atom_site_fract_z
O1	O	-0.926506	-0.111671	-0.083012
O2	O	-0.426506	0.388329	0.416988
O3	O	-0.723243	-0.126703	-0.082944
O4	O	-0.223243	0.373297	0.417056
O5	O	-0.830323	0.011042	-0.082973
O6	O	-0.330323	0.511042	0.417027
O7	O	-0.819427	-0.249416	-0.082983
O8	O	-0.319427	0.250584	0.417017
O9	O	-0.830309	0.011050	0.082411
O10	O	-0.330309	0.511050	0.582411
O11	O	-0.723230	-0.126695	0.082440
O12	O	-0.223230	0.373305	0.582440
O13	O	-0.926493	-0.111662	0.082372
O14	O	-0.426493	0.388338	0.582372
Cu15	Cu	-0.824860	-0.119178	0.097507
Cu16	Cu	-0.324860	0.380822	0.597507
Cu17	Cu	-0.824876	-0.119188	-0.098079
Cu18	Cu	-0.324876	0.380812	0.401921
O19	O	-0.819413	-0.249407	0.082400
O20	O	-0.319413	0.250593	0.582400
C21	C	-0.829829	0.044368	-0.000281
C22	C	-0.329829	0.544368	0.499719
C23	C	-0.828369	0.143658	-0.000281
C24	C	-0.328369	0.643658	0.499719
C25	C	-0.697224	-0.126212	-0.000243
C26	C	-0.197224	0.373788	0.499757
C27	C	-0.619715	-0.124751	-0.000217
C28	C	-0.119715	0.375249	0.499783
C29	C	-0.952512	-0.112153	-0.000331
C30	C	-0.452512	0.387847	0.499669
C31	C	-1.030021	-0.113615	-0.000364
C32	C	-0.530021	0.386385	0.499636
C33	C	-0.575051	-0.205575	-0.000236
C34	C	-0.075051	0.294425	0.499764
C35	C	-0.502223	-0.204202	-0.000247
C36	C	-0.002223	0.295798	0.499753
C37	C	-0.474062	-0.122000	-0.000259
C38	C	0.025938	0.378000	0.499741
C39	C	-0.518735	-0.041166	-0.000234
C40	C	-0.018735	0.458834	0.499766
C41	C	-0.591562	-0.042541	-0.000214
C42	C	-0.091562	0.457459	0.499786
N43	N	-0.365884	-0.059170	-0.056584
N44	N	0.134116	0.440830	0.443416
N45	N	-0.296701	-0.057869	-0.056606
N46	N	0.203299	0.442131	0.443394
C47	C	-0.254640	-0.117852	-0.000320
C48	C	0.245360	0.382148	0.499680
N49	N	-0.284373	-0.179199	0.055977
N50	N	0.215627	0.320801	0.555977
N51	N	-0.353562	-0.180502	0.055994
N52	N	0.146438	0.319498	0.555994
C53	C	-0.395094	-0.120500	-0.000281
C54	C	0.104906	0.379500	0.499719
C55	C	-0.131007	-0.197193	-0.000349
C56	C	0.368993	0.302807	0.499651
C57	C	-0.058178	-0.195817	-0.000354
C58	C	0.441822	0.304183	0.499646
C59	C	-0.074692	-0.032778	-0.000351
C60	C	0.425308	0.467222	0.499649
C61	C	-0.147519	-0.034157	-0.000336
C62	C	0.352481	0.465843	0.499664
C63	C	-0.175672	-0.116367	-0.000340
C64	C	0.324328	0.383633	0.499660
C65	C	-0.819907	-0.282734	-0.000293
C66	C	-0.319907	0.217266	0.499707
C67	C	-0.821368	-0.382023	-0.000300
C68	C	-0.321368	0.117977	0.499700
N69	N	-0.824854	-0.119170	0.235071
N70	N	-0.324854	0.380830	0.735071
C71	C	-0.891275	0.201215	-0.000302
C72	C	-0.391275	0.701215	0.499698
C73	C	-0.889899	0.294507	-0.000311
C74	C	-0.389899	0.794507	0.499689
C75	C	-0.825615	0.330240	-0.000293
C76	C	-0.325615	0.830240	0.499707
C77	C	-0.762704	0.272675	-0.000276
C78	C	-0.262704	0.772675	0.499724
C79	C	-0.764081	0.179385	-0.000274
C80	C	-0.264081	0.679385	0.499726
C81	C	-0.759839	0.467123	-0.000279
C82	C	-0.259839	0.967123	0.499721
C83	C	-0.758461	0.560419	-0.000279
C84	C	-0.258461	1.060419	0.499721
C85	C	-0.885656	0.582245	-0.000316
C86	C	-0.385656	1.082245	0.499684
C87	C	-0.887033	0.488955	-0.000314
C88	C	-0.387033	0.988955	0.499686
C89	C	-0.824122	0.431396	-0.000295
C90	C	-0.324122	0.931396	0.499705
N91	N	-0.824888	-0.119188	-0.235643
N92	N	-0.324888	0.380812	0.264357
C93	C	-0.872284	-0.058202	0.287099
C94	C	-0.372284	0.441798	0.787099
C95	C	-0.872288	-0.058201	0.391202
C96	C	-0.372288	0.441799	0.891202
C97	C	-0.824866	-0.119174	0.443275
C98	C	-0.324866	0.380826	0.943275
C99	C	-0.777431	-0.180145	0.391241
C100	C	-0.277431	0.319855	0.891241
C101	C	-0.777424	-0.180141	0.287139
C102	C	-0.277424	0.319859	0.787139
C103	C	-0.777450	-0.180151	0.608221
C104	C	-0.277450	0.319849	1.108221
C105	C	-0.777458	-0.180157	0.712329
C106	C	-0.277458	0.319843	1.212329
C107	C	-0.872315	-0.058211	0.712283
C108	C	-0.372315	0.441789	1.212283
C109	C	-0.872307	-0.058207	0.608182
C110	C	-0.372307	0.441793	1.108182
C111	C	-0.824873	-0.119180	0.556154
C112	C	-0.324873	0.380820	1.056154
H113	H	-0.597968	-0.272517	-0.000241
H114	H	-0.097968	0.227483	0.499759
H115	H	-0.941123	0.341368	-0.000326
H116	H	-0.441123	0.841368	0.499674
H117	H	-0.939378	0.459865	-0.000321
H118	H	-0.439378	0.959865	0.499679
H119	H	-0.910936	-0.008565	0.754650
H120	H	-0.410936	0.491435	1.254650
H121	H	-0.465851	-0.270021	-0.000260
H122	H	0.034149	0.229979	0.499740
C123	C	-0.487757	0.049257	-0.000249
C124	C	0.012243	0.549257	0.499751
N125	N	-0.464424	0.117366	-0.000257
N126	N	0.035576	0.617366	0.499743
H127	H	-0.021812	-0.261637	-0.000363
H128	H	0.478188	0.238363	0.499637
C129	C	-0.691992	0.311985	-0.000248
C130	C	-0.191992	0.811985	0.499752
N131	N	-0.638730	0.341591	-0.000219
N132	N	-0.138730	0.841591	0.499781
H133	H	-0.738841	-0.229806	0.754722
H134	H	-0.238841	0.270194	1.254722
C135	C	-0.687747	0.599723	-0.000272
C136	C	-0.187747	1.099723	0.499728
N137	N	-0.634483	0.629326	-0.000270
N138	N	-0.134483	1.129326	0.499730
H139	H	-0.627928	0.023278	-0.000199
H140	H	-0.127928	0.523278	0.499801
H141	H	-0.708609	0.420260	-0.000266
H142	H	-0.208609	0.920260	0.499734
C143	C	-0.924453	0.008875	0.229827
C144	C	-0.424453	0.508875	0.729827
N145	N	-0.963746	0.059402	0.186693
N146	N	-0.463746	0.559402	0.686693
H147	H	-0.738822	-0.229799	0.565863
H148	H	-0.238822	0.270201	1.065863
C149	C	-0.161977	-0.287625	-0.000340
C150	C	0.338023	0.212375	0.499660
N151	N	-0.185302	-0.355739	-0.000332
N152	N	0.314698	0.144261	0.499668
C153	C	-0.924474	0.008866	0.550903
C154	C	-0.424474	0.508866	1.050903
N155	N	-0.963765	0.059389	0.507760
N156	N	-0.463765	0.559389	1.007760
C157	C	-0.725259	-0.247208	0.448525
C158	C	-0.225259	0.252792	0.948525
N159	N	-0.685962	-0.297720	0.491671
N160	N	-0.185962	0.202280	0.991671
C161	C	-0.725253	-0.247218	0.229909
C162	C	-0.225253	0.252782	0.729909
N163	N	-0.685957	-0.297744	0.186805
N164	N	-0.185957	0.202256	0.686805
H165	H	-0.051764	0.034152	-0.000422
H166	H	0.448236	0.534152	0.499578
H167	H	-0.183886	0.031659	-0.000326
H168	H	0.316114	0.531659	0.499674
H169	H	-0.943622	0.172130	-0.000310
H170	H	-0.443622	0.672130	0.499690
H171	H	-0.712856	0.132522	-0.000257
H172	H	-0.212856	0.632522	0.499743
H173	H	-0.936881	0.629114	-0.000335
H174	H	-0.436881	1.129114	0.499665
H175	H	-0.910908	-0.008555	0.433562
H176	H	-0.410908	0.491445	0.933562
