data_functionalizedCrystal
_audit_creation_method	'MofGen! by Chris Wilmer'
_symmetry_space_group_name_H-M	'P1'
_symmetry_Int_Tables_number	1
_symmetry_cell_setting	triclinic
loop_
_symmetry_equiv_pos_as_xyz
  x,y,z
_cell_length_a	14.560438
_cell_length_b	23.096457
_cell_length_c	14.560438
_cell_angle_alpha	89.996893
_cell_angle_beta	60.003849
_cell_angle_gamma	60.003865
loop_
_atom_site_label
_atom_site_type_symbol
_atom_site_fract_x
_atom_site_fract_y
_atom_site_fract_z
Zr1	Zr	1.005107	0.557882	-0.120395
O2	O	1.196684	0.465454	-0.267011
O3	O	0.813533	0.586203	-0.075469
O4	O	1.005106	0.586225	-0.267044
O5	O	1.005110	0.465429	0.075703
O6	O	1.005103	0.681507	-0.267047
O7	O	1.005110	0.465431	-0.075437
O8	O	0.662413	0.681467	0.075645
O9	O	1.347799	0.465469	-0.266989
O10	O	0.892327	0.669406	-0.056287
O11	O	0.892329	0.598296	0.056509
O12	O	1.117882	0.598323	-0.169045
O13	O	1.117884	0.527213	-0.056249
Zr14	Zr	1.005101	0.709843	0.120650
Zr15	Zr	1.005101	0.709846	-0.120400
Zr16	Zr	1.005107	0.557879	0.120655
Zr17	Zr	1.246119	0.557907	-0.120359
Zr18	Zr	0.764088	0.709818	0.120614
O19	O	1.196675	0.681523	0.075724
O20	O	1.196675	0.681527	-0.267018
O21	O	1.196683	0.465449	0.075731
O22	O	0.813524	0.802272	0.267266
O23	O	0.813525	0.802276	-0.075476
O24	O	0.813532	0.586198	0.267273
O25	O	1.005098	0.802296	-0.075448
O26	O	1.005102	0.681501	0.267299
O27	O	1.005105	0.586218	0.267302
O28	O	1.005097	0.802294	0.075692
O29	O	1.347795	0.586261	-0.266993
O30	O	0.662413	0.681465	0.267248
O31	O	0.662408	0.802256	0.267244
O32	O	0.662409	0.802259	0.075641
O33	O	1.347799	0.465467	-0.075386
O34	O	1.347794	0.586258	-0.075390
O35	O	0.892326	0.669403	0.169300
O36	O	0.892324	0.740513	0.056504
O37	O	1.117879	0.669429	-0.056254
O38	O	1.117881	0.598320	0.056542
C39	C	0.703634	0.633831	0.000083
C40	C	0.601318	0.633821	0.000068
C41	C	1.005111	0.443779	0.000134
C42	C	1.005114	0.379266	0.000136
C43	C	0.553206	0.596726	0.058981
C44	C	0.456994	0.596765	0.059038
C45	C	0.457011	0.671001	-0.058733
C46	C	0.553228	0.670957	-0.058796
C47	C	0.553192	0.553868	0.126979
C48	C	0.456980	0.553908	0.127036
C49	C	1.005105	0.633867	-0.301390
C50	C	1.005105	0.633868	-0.403722
C51	C	1.306574	0.633894	0.000172
C52	C	1.408890	0.633905	0.000187
C53	C	1.005123	0.348964	-0.083133
C54	C	1.005111	0.288352	-0.083133
C55	C	1.005116	0.258035	0.000128
C56	C	1.005099	0.288347	0.083412
C57	C	1.005098	0.348962	0.083416
N58	N	1.078637	0.139691	0.025346
N59	N	1.078641	0.082108	0.025335
C60	C	1.005117	0.075406	0.000122
N61	N	0.931605	0.128457	-0.025101
N62	N	0.931606	0.186044	-0.025096
C63	C	1.005116	0.192309	0.000133
C64	C	1.005112	-0.020618	-0.083152
C65	C	1.005092	-0.081229	-0.083144
C66	C	1.005093	-0.081237	0.083397
C67	C	1.005099	-0.020623	0.083394
C68	C	1.005115	0.009681	0.000113
C69	C	1.005097	0.823947	0.000121
C70	C	1.005094	0.888460	0.000119
C71	C	1.005108	0.686356	-0.451808
C72	C	1.005103	0.686353	-0.547957
C73	C	1.005096	0.581366	-0.547929
C74	C	1.005092	0.581373	-0.451777
C75	C	1.005118	0.746968	-0.451828
C76	C	1.005112	0.746965	-0.547977
C77	C	1.005103	0.633859	0.301645
C78	C	1.005103	0.633858	0.403977
C79	C	0.703627	0.823916	0.000076
C80	C	0.601309	0.888418	0.000059
C81	C	0.703634	0.633828	0.301600
C82	C	0.601317	0.633816	0.403917
C83	C	0.703626	0.823912	0.301594
C84	C	0.601308	0.888413	0.403909
C85	C	1.306581	0.443814	-0.301339
C86	C	1.408900	0.379313	-0.403654
C87	C	1.306581	0.443810	0.000179
C88	C	1.408899	0.379308	0.000196
C89	C	1.306574	0.633898	-0.301345
C90	C	1.408891	0.633910	-0.403662
C91	C	0.553260	0.881592	-0.058835
C92	C	0.457134	0.942193	-0.058874
C93	C	0.409052	1.009619	-0.000011
C94	C	0.457110	1.016443	0.058885
C95	C	0.553241	0.955843	0.058916
C96	C	0.553256	0.955828	0.393078
C97	C	0.457131	1.016439	0.489205
C98	C	0.409051	1.009634	0.596160
C99	C	0.457112	0.942211	0.606989
C100	C	0.553242	0.881602	0.510863
C101	C	1.456963	0.311898	-0.392823
C102	C	1.553119	0.251287	-0.488950
C103	C	1.601203	0.258092	-0.595905
C104	C	1.553137	0.325514	-0.606734
C105	C	1.456989	0.386124	-0.510608
C106	C	1.456958	0.386134	0.059080
C107	C	1.553110	0.325533	0.059092
C108	C	1.601196	0.258107	0.000226
C109	C	1.553133	0.251282	-0.058665
C110	C	1.456989	0.311882	-0.058683
C111	C	0.553243	0.670928	0.510862
C112	C	0.457111	0.670911	0.606996
C113	C	0.457133	0.596668	0.489226
C114	C	0.553270	0.596682	0.393095
C115	C	0.553225	0.713794	0.578856
C116	C	0.457093	0.713777	0.674990
H117	H	0.592411	0.701155	-0.106779
H118	H	0.592408	0.826695	-0.106782
F119	F	0.405929	0.934979	0.720828
F120	F	0.604415	0.963087	0.279257
F121	F	1.703521	0.193616	0.000257
F122	F	0.406001	0.934914	-0.121558
H123	H	1.005084	0.538627	-0.587064
F124	F	1.005097	0.256084	0.172028
H125	H	1.592299	0.196376	-0.106592
H126	H	0.367081	0.770523	0.727173
F127	F	0.405823	0.710521	-0.121378
F128	F	1.405802	0.457888	0.121735
H129	H	0.592353	0.826711	0.519697
F130	F	0.506006	0.785518	0.567433
F131	F	0.604448	0.557171	0.279276
F132	F	0.670789	0.479679	0.077546
H133	H	1.005090	0.373634	0.151226
F134	F	1.604254	0.179538	-0.477402
H135	H	1.005099	0.004048	0.151196
F136	F	1.005133	0.381216	-0.171762
F137	F	0.306739	1.074109	-0.000054
F138	F	0.405994	1.088188	0.477657
F139	F	0.339368	0.585081	0.244714
F140	F	1.005066	0.525516	-0.400589
F141	F	1.604240	0.332811	0.121779
F142	F	0.604360	0.963119	0.121610
F143	F	0.886976	0.814623	-0.358667
H144	H	0.517142	0.582130	0.213998
F145	F	0.405921	1.088209	0.121530
H146	H	0.493220	0.685503	0.725919
H147	H	1.005119	0.004058	-0.150961
H148	H	1.098378	0.736385	-0.468629
F149	F	1.405803	0.304639	-0.279002
H150	H	0.330775	1.058992	0.674423
H151	H	1.679492	0.208734	-0.674168
H152	H	1.592299	0.331047	-0.693828
F153	F	1.005122	0.256097	-0.171765
H154	H	1.417863	0.306315	-0.106631
H155	H	0.418002	0.566435	0.480429
H156	H	1.417857	0.441015	-0.519440
H157	H	1.005092	-0.105898	-0.150950
F158	F	0.504090	0.482202	0.068452
F159	F	1.005086	-0.113495	0.172016
F160	F	0.670862	0.682647	0.578893
F161	F	0.883214	0.809964	-0.526028
H162	H	1.095507	0.741745	-0.619266
