data_functionalizedCrystal
_audit_creation_method	'MofGen! by Chris Wilmer'
_symmetry_space_group_name_H-M	'P1'
_symmetry_Int_Tables_number	1
_symmetry_cell_setting	triclinic
loop_
_symmetry_equiv_pos_as_xyz
  x,y,z
_cell_length_a	14.560438
_cell_length_b	14.560438
_cell_length_c	14.560438
_cell_angle_alpha	60.002872
_cell_angle_beta	89.998677
_cell_angle_gamma	60.003040
loop_
_atom_site_label
_atom_site_type_symbol
_atom_site_fract_x
_atom_site_fract_y
_atom_site_fract_z
Zr1	Zr	0.884881	1.005159	-0.120409
O2	O	0.738257	1.196744	-0.267036
O3	O	0.929815	0.813577	-0.075474
O4	O	0.929840	1.005159	-0.267056
O5	O	0.738229	1.005161	0.075686
O6	O	1.080981	1.005156	-0.267055
O7	O	0.738232	1.005162	-0.075454
O8	O	1.080936	0.662451	0.075650
O9	O	0.738274	1.347866	-0.267019
O10	O	1.061791	0.892375	-0.056292
O11	O	0.948994	0.892377	0.056502
O12	O	0.949024	1.117940	-0.169061
O13	O	0.836227	1.117941	-0.056268
Zr14	Zr	1.125929	1.005155	0.120643
Zr15	Zr	1.125934	1.005155	-0.120407
Zr16	Zr	0.884877	1.005159	0.120642
Zr17	Zr	0.884908	1.246183	-0.120382
Zr18	Zr	1.125902	0.764131	0.120617
O19	O	1.080995	1.196737	0.075709
O20	O	1.081002	1.196738	-0.267034
O21	O	0.738250	1.196743	0.075707
O22	O	1.272553	0.813570	0.267271
O23	O	1.272560	0.813571	-0.075472
O24	O	0.929808	0.813576	0.267269
O25	O	1.272581	1.005153	-0.075451
O26	O	1.080970	1.005155	0.267291
O27	O	0.929829	1.005158	0.267290
O28	O	1.272578	1.005152	0.075689
O29	O	0.929878	1.347863	-0.267018
O30	O	1.080932	0.662451	0.267253
O31	O	1.272536	0.662448	0.267254
O32	O	1.272540	0.662448	0.075651
O33	O	0.738270	1.347866	-0.075416
O34	O	0.929874	1.347863	-0.075415
O35	O	1.061787	0.892374	0.169296
O36	O	1.174583	0.892373	0.056503
O37	O	1.061816	1.117937	-0.056267
O38	O	0.949019	1.117939	0.056526
C39	C	1.005372	0.703673	0.000084
C40	C	1.005360	0.601353	0.000073
C41	C	0.946545	0.457059	0.059014
C42	C	0.946503	0.553253	0.058974
C43	C	1.064272	0.553245	-0.058781
C44	C	1.064320	0.457047	-0.058733
C45	C	0.878548	0.457068	0.126995
C46	C	0.878506	0.553262	0.126954
C47	C	0.703886	1.005162	0.000115
C48	C	0.601553	1.005164	0.000115
C49	C	0.494613	1.122904	-0.058745
C50	C	0.398464	1.122898	-0.058746
C51	C	0.516209	0.887401	0.058982
C52	C	0.612355	0.887408	0.058975
C53	C	0.483811	1.240660	-0.117606
C54	C	0.376866	1.358410	-0.176469
C55	C	0.280717	1.358403	-0.176470
C56	C	0.291513	1.240647	-0.117607
C57	C	1.306925	1.005152	0.000119
C58	C	1.409258	1.005150	0.000120
C59	C	1.005411	1.005158	-0.301400
C60	C	1.005413	1.005158	-0.403732
C61	C	1.005438	1.306641	0.000151
C62	C	1.005450	1.408961	0.000162
C63	C	1.088673	1.005162	-0.451815
C64	C	1.088667	1.005156	-0.547965
C65	C	0.922133	1.005148	-0.547941
C66	C	0.922144	1.005144	-0.451789
C67	C	1.184817	1.005172	-0.451833
C68	C	1.184812	1.005167	-0.547982
C69	C	1.005399	1.005156	0.301635
C70	C	1.005397	1.005156	0.403967
C71	C	1.306891	0.703668	0.000086
C72	C	1.409213	0.601346	0.000076
C73	C	1.005366	0.703673	0.301601
C74	C	1.005352	0.601352	0.403922
C75	C	1.306885	0.703668	0.301603
C76	C	1.409205	0.601345	0.403925
C77	C	0.703925	1.306646	-0.301369
C78	C	0.601605	1.408969	-0.403690
C79	C	0.703919	1.306646	0.000149
C80	C	0.601597	1.408968	0.000159
C81	C	1.005445	1.306641	-0.301367
C82	C	1.005458	1.408962	-0.403687
C83	C	1.398410	0.553272	-0.058803
C84	C	1.494556	0.457137	-0.058817
C85	C	1.612304	0.457153	0.058937
C86	C	1.516159	0.553294	0.058943
C87	C	1.330430	0.553257	-0.126784
C88	C	1.426576	0.457122	-0.126797
C89	C	1.064224	0.553275	0.510871
C90	C	1.064203	0.457139	0.607008
C91	C	0.946436	0.457160	0.489235
C92	C	0.946451	0.553301	0.393100
C93	C	1.132220	0.553258	0.578867
C94	C	1.132198	0.457122	0.675004
C95	C	1.516154	0.553268	0.393122
C96	C	1.612290	0.457132	0.489268
C97	C	1.494515	0.457152	0.607016
C98	C	1.398381	0.553294	0.510872
C99	C	1.584151	0.553251	0.325142
C100	C	1.680287	0.457115	0.421288
H101	H	0.791521	0.493140	0.082157
Cl102	Cl	0.739507	0.692206	0.068545
Cl103	Cl	0.936940	0.318137	0.265997
H104	H	0.854356	1.005124	-0.412632
H105	H	1.261277	0.911903	-0.531180
H106	H	0.368085	1.454282	-0.224400
H107	H	0.562093	1.240678	-0.117608
H108	H	0.923342	0.517186	0.213988
Cl109	Cl	0.746799	0.739389	0.132967
Cl110	Cl	1.138375	0.396583	-0.132722
H111	H	0.193643	1.454281	-0.224409
H112	H	0.898499	0.592455	0.306021
Cl113	Cl	0.170637	1.240644	-0.117625
Cl114	Cl	0.872393	0.396748	0.475641
H115	H	0.524988	0.791530	0.106905
Cl116	Cl	1.138275	0.613703	-0.132818
H117	H	1.524964	0.592444	0.106876
Cl118	Cl	0.817457	1.005131	-0.608361
Cl119	Cl	1.172030	1.144725	-0.658054
H120	H	1.266929	0.914780	-0.380555
Cl121	Cl	1.760870	0.318135	0.421277
Cl122	Cl	1.062956	0.512887	0.753640
Cl123	Cl	1.158878	1.149168	-0.477773
Cl124	Cl	1.746753	0.396739	0.132937
Cl125	Cl	1.249851	0.692220	-0.265763
H126	H	1.426562	0.367109	-0.088986
Cl127	Cl	1.251811	0.497481	-0.057522
H128	H	1.094414	0.643261	0.578894
H129	H	1.435308	0.493254	-0.213847
Cl130	Cl	1.570662	0.497477	0.246522
Cl131	Cl	1.266610	0.497483	0.565377
H132	H	1.222215	0.367106	0.727193
Cl133	Cl	1.263930	0.613750	0.524458
Cl134	Cl	1.480918	0.396740	0.741466
H135	H	1.584179	0.643254	0.272954
Cl136	Cl	1.758918	0.512882	0.434773
