data_functionalizedCrystal
_audit_creation_method	'MofGen! by Chris Wilmer'
_symmetry_space_group_name_H-M	'P1'
_symmetry_Int_Tables_number	1
_symmetry_cell_setting	triclinic
loop_
_symmetry_equiv_pos_as_xyz
  x,y,z
_cell_length_a	14.044220
_cell_length_b	13.101039
_cell_length_c	14.044220
_cell_angle_alpha	86.332523
_cell_angle_beta	93.188878
_cell_angle_gamma	93.659868
loop_
_atom_site_label
_atom_site_type_symbol
_atom_site_fract_x
_atom_site_fract_y
_atom_site_fract_z
O1	O	1.281968	0.085109	0.225348
O2	O	1.781968	0.585109	0.725348
O3	O	1.005298	0.085135	0.217041
O4	O	1.505298	0.585135	0.717041
O5	O	1.139480	0.085112	0.082860
O6	O	1.639480	0.585112	0.582860
O7	O	1.147787	0.085132	0.359530
O8	O	1.647787	0.585132	0.859530
O9	O	1.129854	-0.085316	0.092504
O10	O	1.629854	0.414684	0.592504
O11	O	0.995673	-0.085293	0.226686
O12	O	1.495673	0.414707	0.726686
O13	O	1.272343	-0.085319	0.234993
O14	O	1.772343	0.414681	0.734993
Zn15	Zn	1.132479	-0.112365	0.232371
Zn16	Zn	1.632479	0.387635	0.732371
Zn17	Zn	1.145162	0.112181	0.219663
Zn18	Zn	1.645162	0.612181	0.719663
O19	O	1.138161	-0.085296	0.369175
O20	O	1.638161	0.414704	0.869175
C21	C	0.964864	-0.000076	0.218228
C22	C	1.464864	0.499924	0.718228
C23	C	0.858722	-0.000066	0.207383
C24	C	1.358722	0.499934	0.707383
N25	N	1.123831	-0.265612	0.241043
N26	N	1.623831	0.234388	0.741043
C27	C	0.664383	-0.000088	0.187558
C28	C	1.164383	0.499912	0.687558
C29	C	0.613253	-0.000087	0.264472
C30	C	1.113253	0.499913	0.764472
C31	C	0.505116	-0.000099	0.253441
C32	C	1.005116	0.499901	0.753441
C33	C	0.772529	-0.000076	0.198587
C34	C	1.272529	0.499924	0.698587
C35	C	1.112065	-0.474653	0.252851
C36	C	1.612065	0.025347	0.752851
C37	C	1.165580	-0.525538	0.199179
C38	C	1.665580	-0.025538	0.699179
C39	C	1.159034	-0.641855	0.205749
C40	C	1.659034	-0.141855	0.705749
C41	C	1.118610	-0.358325	0.246282
C42	C	1.618610	0.141675	0.746282
C43	C	1.312777	-0.000106	0.233806
C44	C	1.812777	0.499894	0.733806
C45	C	1.418920	-0.000109	0.244651
C46	C	1.918920	0.499891	0.744651
C47	C	1.131031	-0.000102	0.052060
C48	C	1.631031	0.499898	0.552060
C49	C	1.120187	-0.000102	-0.054083
C50	C	1.620187	0.499898	0.445917
N51	N	1.153817	0.265428	0.210984
N52	N	1.653817	0.765428	0.710984
C53	C	1.100362	-0.000086	-0.248421
C54	C	1.600362	0.499914	0.251579
C55	C	1.177276	-0.000090	-0.299551
C56	C	1.677276	0.499910	0.200449
C57	C	1.166245	-0.000080	-0.407688
C58	C	1.666245	0.499920	0.092312
C59	C	1.111391	-0.000095	-0.140275
C60	C	1.611391	0.499905	0.359725
C61	C	1.146610	-0.000080	0.399974
C62	C	1.646610	0.499920	0.899974
C63	C	1.157455	-0.000073	0.506116
C64	C	1.657455	0.499927	1.006116
H65	H	0.650693	-0.000077	0.338605
H66	H	1.150693	0.499923	0.838605
O67	O	1.232784	-0.467538	0.131773
O68	O	1.732784	0.032462	0.631773
H69	H	1.285362	-0.418659	0.173116
H70	H	1.785362	0.081341	0.673116
O71	O	1.275474	-0.000101	-0.249962
O72	O	1.775474	0.499899	0.250038
H73	H	1.330118	-0.000095	-0.304101
H74	H	1.830118	0.499905	0.195899
H75	H	1.061336	-0.518442	0.303733
H76	H	1.561336	-0.018442	0.803733
H77	H	0.626945	-0.000099	0.113431
H78	H	1.126945	0.499901	0.613431
O79	O	1.002165	-0.000092	-0.298001
O80	O	1.502165	0.499908	0.201999
H81	H	1.008802	-0.000101	-0.376385
H82	H	1.508802	0.499899	0.123615
