data_functionalizedCrystal
_audit_creation_method	'MofGen! by Chris Wilmer'
_symmetry_space_group_name_H-M	'P1'
_symmetry_Int_Tables_number	1
_symmetry_cell_setting	triclinic
loop_
_symmetry_equiv_pos_as_xyz
  x,y,z
_cell_length_a	18.101398
_cell_length_b	19.121111
_cell_length_c	18.101389
_cell_angle_alpha	87.578568
_cell_angle_beta	89.985654
_cell_angle_gamma	87.531715
loop_
_atom_site_label
_atom_site_type_symbol
_atom_site_fract_x
_atom_site_fract_y
_atom_site_fract_z
Zn1	Zn	1.119549	0.279724	-0.431217
Zn2	Zn	1.114167	0.397160	-0.312655
Zn3	Zn	0.995708	0.279723	-0.307400
Zn4	Zn	0.990382	0.397136	-0.436464
O5	O	1.054952	0.338436	-0.371934
O6	O	1.222468	0.295313	-0.415493
O7	O	1.098430	0.381591	-0.208326
O8	O	1.016618	0.181438	-0.319429
O9	O	1.218514	0.381593	-0.328386
O10	O	1.107603	0.181439	-0.410397
O11	O	1.011399	0.295310	-0.204464
O12	O	0.891369	0.295287	-0.324517
O13	O	1.007540	0.381551	-0.539401
O14	O	0.887456	0.381550	-0.419340
O15	O	1.102438	0.295289	-0.535546
O16	O	1.093266	0.495442	-0.333474
O17	O	1.002321	0.495424	-0.424436
C18	C	0.862542	0.338416	-0.371928
C19	C	0.780228	0.338425	-0.371944
C20	C	0.629519	0.338438	-0.371943
C21	C	0.595724	0.392796	-0.431519
C22	C	0.510096	0.393016	-0.431359
C23	C	0.481136	0.338451	-0.371944
C24	C	0.511301	0.358190	-0.294689
C25	C	0.596929	0.358577	-0.295037
C26	C	0.601334	0.264206	-0.388934
C27	C	0.515665	0.264613	-0.390673
C28	C	0.397276	0.338457	-0.371939
C29	C	0.713378	0.338434	-0.371943
C30	C	1.046651	0.520917	-0.380111
C31	C	1.043168	0.598984	-0.383634
C32	C	1.088919	0.635646	-0.337969
C33	C	1.085647	0.708997	-0.341286
C34	C	1.036621	0.745686	-0.390266
C35	C	0.990869	0.709019	-0.435935
C36	C	0.994145	0.635669	-0.432621
C37	C	1.024363	0.967158	-0.402644
C38	C	1.021089	1.040513	-0.405953
C39	C	1.115869	1.040486	-0.311305
C40	C	1.119137	0.967134	-0.307991
C41	C	1.073388	0.930474	-0.353664
C42	C	1.033274	0.820663	-0.393656
C43	C	1.076739	0.855498	-0.350277
C44	C	1.248113	0.338456	-0.371941
C45	C	1.330426	0.338464	-0.371943
C46	C	1.063299	1.155241	-0.363751
C47	C	1.066839	1.077175	-0.360288
C48	C	1.054995	0.338418	-0.565095
C49	C	1.055014	0.338410	-0.647409
C50	C	1.055063	0.338279	-0.946494
C51	C	0.995166	0.392380	-0.917587
C52	C	0.995310	0.392631	-0.831980
C53	C	1.055038	0.338344	-0.798115
C54	C	1.132160	0.358437	-0.830110
C55	C	1.131824	0.358792	-0.915771
C56	C	1.038522	0.263964	-0.911581
C57	C	1.036766	0.264393	-0.825950
C58	C	1.055029	0.338380	-0.714257
C59	C	1.055077	0.338245	-1.030352
C60	C	1.054953	0.338403	-0.179522
C61	C	1.055087	0.338212	-0.097200
H62	H	0.614433	0.412829	-0.280295
H63	H	0.981175	1.070383	-0.445850
H64	H	1.116659	0.825624	-0.310400
H65	H	1.153116	1.070343	-0.274122
F66	F	0.483375	0.376925	-0.506356
F67	F	0.938696	0.748068	-0.488067
H68	H	0.993356	0.850543	-0.433534
F69	F	1.171325	0.928093	-0.255869
H70	H	1.077475	0.221945	-0.802650
H71	H	1.177842	0.320271	-0.808041
F72	F	0.975671	0.928150	-0.451252
F73	F	0.962600	0.244589	-0.798506
H74	H	1.146237	0.413117	-0.938194
F75	F	0.620598	0.464285	-0.417322
F76	F	1.191869	0.309492	-0.940656
H77	H	0.623770	0.246169	-0.444144
F78	F	0.480071	0.428327	-0.274999
F79	F	0.920424	0.376192	-0.803761
H80	H	0.616891	0.380627	-0.489083
F81	F	0.945453	0.596651	-0.481226
H82	H	0.487101	0.448026	-0.420346
F83	F	0.626265	0.309058	-0.235246
H84	H	1.122901	0.738844	-0.304101
F85	F	0.920040	0.376110	-0.943768
H86	H	1.082188	0.223656	-0.930037
F87	F	1.008901	0.463932	-0.948979
H88	H	1.146891	0.412185	-0.811081
H89	H	1.005960	0.447715	-0.813971
F90	F	0.486963	0.308028	-0.235265
H91	H	0.983437	0.245658	-0.932354
H92	H	1.128838	0.605778	-0.298082
F93	F	0.490218	0.208880	-0.337793
F94	F	0.490017	0.245148	-0.464966
H95	H	0.623431	0.223710	-0.345506
