data_functionalizedCrystal
_audit_creation_method	'MofGen! by Chris Wilmer'
_symmetry_space_group_name_H-M	'P1'
_symmetry_Int_Tables_number	1
_symmetry_cell_setting	triclinic
loop_
_symmetry_equiv_pos_as_xyz
  x,y,z
_cell_length_a	18.050591
_cell_length_b	25.639239
_cell_length_c	18.050582
_cell_angle_alpha	89.974655
_cell_angle_beta	89.978183
_cell_angle_gamma	90.034692
loop_
_atom_site_label
_atom_site_type_symbol
_atom_site_fract_x
_atom_site_fract_y
_atom_site_fract_z
Zn1	Zn	1.135245	-0.208236	-0.420021
Zn2	Zn	1.635245	0.291764	0.079979
Zn3	Zn	1.135131	-0.295665	-0.295826
Zn4	Zn	1.635131	0.204335	0.204174
Zn5	Zn	1.011062	-0.208239	-0.295832
Zn6	Zn	1.511062	0.291761	0.204168
Zn7	Zn	1.010990	-0.295636	-0.419962
Zn8	Zn	1.510990	0.204364	0.080038
O9	O	1.073107	-0.251944	-0.357910
O10	O	1.573107	0.248056	0.142090
O11	O	1.239155	-0.219844	-0.403568
O12	O	1.739155	0.280156	0.096432
O13	O	1.118656	-0.284081	-0.191902
O14	O	1.618656	0.215919	0.308098
O15	O	1.027614	-0.135074	-0.312333
O16	O	1.527614	0.364926	0.187667
O17	O	1.239071	-0.284078	-0.312323
O18	O	1.739071	0.215922	0.187677
O19	O	1.118850	-0.135071	-0.403574
O20	O	1.618850	0.364929	0.096426
O21	O	1.027503	-0.219850	-0.191906
O22	O	1.527503	0.280150	0.308094
O23	O	0.907128	-0.219822	-0.312276
O24	O	1.407128	0.280178	0.187724
O25	O	1.027490	-0.284029	-0.523894
O26	O	1.527490	0.215971	-0.023894
O27	O	0.907075	-0.284032	-0.403473
O28	O	1.407075	0.215968	0.096527
O29	O	1.118780	-0.219817	-0.523938
O30	O	1.618780	0.280183	-0.023938
O31	O	1.118585	-0.368826	-0.312266
O32	O	1.618585	0.131174	0.187734
O33	O	1.027379	-0.368805	-0.403468
O34	O	1.527379	0.131195	0.096532
C35	C	0.880155	-0.251925	-0.357869
C36	C	1.380155	0.248075	0.142131
C37	C	0.797609	-0.251929	-0.357869
C38	C	1.297609	0.248071	0.142131
C39	C	0.598166	-0.216971	-0.308390
C40	C	1.098166	0.283029	0.191610
C41	C	0.548734	-0.264659	-0.290112
C42	C	1.048734	0.235341	0.209888
C43	C	0.646479	-0.251945	-0.357903
C44	C	1.146479	0.248055	0.142097
C45	C	0.548829	-0.204274	-0.376179
C46	C	1.048829	0.295726	0.123821
C47	C	0.500494	-0.251956	-0.357934
C48	C	1.000494	0.248044	0.142066
C49	C	0.598134	-0.299658	-0.339589
C50	C	1.098134	0.200342	0.160411
C51	C	0.598234	-0.239240	-0.425688
C52	C	1.098234	0.260760	0.074312
C53	C	0.548824	-0.286961	-0.407435
C54	C	1.048824	0.213039	0.092565
C55	C	0.730577	-0.251938	-0.357883
C56	C	1.230577	0.248062	0.142117
C57	C	0.416397	-0.251968	-0.357954
C58	C	0.916397	0.248032	0.142046
C59	C	1.072982	-0.387787	-0.357876
C60	C	1.572982	0.112213	0.142124
C61	C	1.072997	-0.445901	-0.357886
C62	C	1.572997	0.054099	0.142114
C63	C	1.120722	-0.806262	-0.310502
C64	C	1.620722	-0.306262	0.189498
C65	C	1.120751	-0.860866	-0.310512
C66	C	1.620751	-0.360866	0.189488
O67	O	1.161199	-0.889102	-0.270187
O68	O	1.661199	-0.389102	0.229813
N69	N	1.073238	-0.888183	-0.357959
N70	N	1.573238	-0.388183	0.142041
C71	C	1.025698	-0.860893	-0.405405
C72	C	1.525698	-0.360893	0.094595
O73	O	0.985287	-0.889142	-0.445764
O74	O	1.485287	-0.389142	0.054236
C75	C	1.025673	-0.806289	-0.405398
C76	C	1.525673	-0.306289	0.094602
C77	C	1.073184	-0.778976	-0.357943
C78	C	1.573184	-0.278976	0.142057
C79	C	1.168230	-0.778948	-0.263051
C80	C	1.668230	-0.278948	0.236949
C81	C	1.168200	-0.724348	-0.263040
C82	C	1.668200	-0.224348	0.236960
C83	C	1.120662	-0.697061	-0.310481
C84	C	1.620662	-0.197061	0.189519
C85	C	1.073154	-0.724375	-0.357932
C86	C	1.573154	-0.224375	0.142068
C87	C	0.978138	-0.779000	-0.452847
C88	C	1.478138	-0.279000	0.047153
C89	C	0.978118	-0.724393	-0.452837
C90	C	1.478118	-0.224393	0.047163
C91	C	1.025629	-0.697079	-0.405381
C92	C	1.525629	-0.197079	0.094619
C93	C	1.025587	-0.642488	-0.405362
C94	C	1.525587	-0.142488	0.094638
N95	N	1.073100	-0.615171	-0.357914
N96	N	1.573100	-0.115171	0.142086
C97	C	1.120638	-0.642458	-0.310474
C98	C	1.620638	-0.142458	0.189526
C99	C	1.025754	-0.975563	-0.405416
C100	C	1.525754	-0.475563	0.094584
C101	C	1.025774	-1.030166	-0.405420
C102	C	1.525774	-0.530166	0.094580
C103	C	1.120828	-1.030136	-0.310528
C104	C	1.620828	-0.530136	0.189472
C105	C	1.120804	-0.975532	-0.310521
C106	C	1.620804	-0.475532	0.189479
C107	C	1.073267	-0.948247	-0.357969
C108	C	1.573267	-0.448247	0.142031
C109	C	1.120571	-0.527793	-0.310455
C110	C	1.620571	-0.027793	0.189545
C111	C	1.120534	-0.473187	-0.310446
C112	C	1.620534	0.026813	0.189554
C113	C	1.025483	-0.473222	-0.405340
C114	C	1.525483	0.026778	0.094660
C115	C	1.025516	-0.527823	-0.405347
C116	C	1.525516	-0.027823	0.094653
C117	C	1.073066	-0.555107	-0.357901
C118	C	1.573066	-0.055107	0.142099
O119	O	0.985161	-0.614218	-0.445668
O120	O	1.485161	-0.114218	0.054332
O121	O	1.161048	-0.614202	-0.270129
O122	O	1.661048	-0.114202	0.229871
C123	C	1.266813	-0.251964	-0.357952
C124	C	1.766813	0.248036	0.142048
C125	C	1.349358	-0.251973	-0.357970
C126	C	1.849358	0.248027	0.142030
C127	C	1.073139	-0.251919	-0.551616
C128	C	1.573139	0.248081	-0.051616
C129	C	1.073153	-0.251909	-0.634162
C130	C	1.573153	0.248091	-0.134162
C131	C	1.073253	-0.115571	-0.357961
C132	C	1.573253	0.384429	0.142039
C133	C	1.073315	-0.057457	-0.357982
C134	C	1.573315	0.442543	0.142018
C135	C	1.023556	-0.286770	-0.882964
C136	C	1.523556	0.213230	-0.382964
C137	C	1.005428	-0.239081	-0.833577
C138	C	1.505428	0.260919	-0.333577
C139	C	1.073216	-0.251832	-0.931282
C140	C	1.573216	0.248168	-0.431282
C141	C	1.091277	-0.299556	-0.833588
C142	C	1.591277	0.200444	-0.333588
C143	C	1.073183	-0.251872	-0.785297
C144	C	1.573183	0.248128	-0.285297
C145	C	1.055053	-0.204117	-0.882982
C146	C	1.555053	0.295883	-0.382982
C147	C	1.140934	-0.264624	-0.882998
C148	C	1.640934	0.235376	-0.382998
C149	C	1.122832	-0.216902	-0.833633
C150	C	1.622832	0.283098	-0.333633
C151	C	1.073233	-0.251809	-1.015381
C152	C	1.573233	0.248191	-0.515381
C153	C	1.073166	-0.251889	-0.701200
C154	C	1.573166	0.248111	-0.201200
C155	C	1.073118	-0.251931	-0.164958
C156	C	1.573118	0.248069	0.335042
C157	C	1.073248	-0.251794	-0.082413
C158	C	1.573248	0.248206	0.417587
H159	H	0.619993	-0.228472	-0.482982
H160	H	1.119993	0.271528	0.017018
C161	C	0.929098	-0.224205	-0.726696
C162	C	1.429098	0.275795	-0.226696
C163	C	0.928105	-0.224489	-0.804261
C164	C	1.428105	0.275511	-0.304261
H165	H	0.881363	-0.215195	-0.708600
H166	H	1.381363	0.284805	-0.208600
H167	H	0.942275	-0.257852	-0.709063
H168	H	1.442275	0.242148	-0.209063
H169	H	0.964322	-0.199368	-0.709821
H170	H	1.464322	0.300632	-0.209821
H171	H	0.892885	-0.249329	-0.821136
H172	H	1.392885	0.250671	-0.321136
H173	H	0.914919	-0.190837	-0.821900
H174	H	1.414919	0.309163	-0.321900
H175	H	1.164814	-0.187339	-0.812109
H176	H	1.664814	0.312661	-0.312109
C177	C	1.237061	-0.329229	-0.887446
C178	C	1.737061	0.170771	-0.387446
C179	C	1.218238	-0.279231	-0.912335
C180	C	1.718238	0.220769	-0.412335
H181	H	1.284783	-0.338251	-0.905564
H182	H	1.784783	0.161749	-0.405564
H183	H	1.237503	-0.329661	-0.834832
H184	H	1.737503	0.170339	-0.334832
H185	H	1.201666	-0.353683	-0.905075
H186	H	1.701666	0.146317	-0.405075
H187	H	1.253629	-0.254777	-0.894702
H188	H	1.753629	0.245223	-0.394702
H189	H	1.217801	-0.278795	-0.964961
H190	H	1.717801	0.221205	-0.464961
C191	C	0.544774	-0.376807	-0.444677
C192	C	1.044774	0.123193	0.055323
C193	C	0.519750	-0.326937	-0.463976
C194	C	1.019750	0.173063	0.036024
H195	H	0.526819	-0.401487	-0.479578
H196	H	1.026819	0.098513	0.020422
H197	H	0.597390	-0.377216	-0.444686
H198	H	1.097390	0.122784	0.055314
H199	H	0.527071	-0.385541	-0.396680
H200	H	1.027071	0.114459	0.103320
H201	H	0.537458	-0.318201	-0.511971
H202	H	1.037458	0.181799	-0.011971
H203	H	0.467123	-0.326527	-0.463974
H204	H	0.967123	0.173473	0.036026
H205	H	1.206945	-0.801159	-0.224419
H206	H	1.706945	-0.301159	0.275581
H207	H	0.527132	-0.163959	-0.391599
H208	H	1.027132	0.336041	0.108401
C209	C	1.214499	-0.478651	-0.216650
C210	C	1.714499	0.021349	0.283350
C211	C	1.172765	-0.443165	-0.258282
C212	C	1.672765	0.056835	0.241718
H213	H	1.246746	-0.460116	-0.184453
H214	H	1.746746	0.039884	0.315547
H215	H	1.182171	-0.499980	-0.188216
H216	H	1.682171	0.000020	0.311784
H217	H	1.242893	-0.499916	-0.249051
H218	H	1.742893	0.000084	0.250949
H219	H	1.144367	-0.421902	-0.225882
H220	H	1.644367	0.078098	0.274118
H221	H	1.205097	-0.421826	-0.286719
H222	H	1.705097	0.078174	0.213281
C223	C	1.112336	-0.353343	-0.726734
C224	C	1.612336	0.146657	-0.226734
C225	C	1.111923	-0.354018	-0.804299
C226	C	1.611923	0.145982	-0.304299
H227	H	1.125073	-0.386967	-0.708657
H228	H	1.625073	0.113033	-0.208657
H229	H	1.147655	-0.328583	-0.709849
H230	H	1.647655	0.171417	-0.209849
H231	H	1.064555	-0.344029	-0.709094
H232	H	1.564555	0.155971	-0.209094
H233	H	1.159706	-0.363329	-0.821940
H234	H	1.659706	0.136671	-0.321940
H235	H	1.076603	-0.378786	-0.821192
H236	H	1.576603	0.121214	-0.321192
H237	H	1.039697	-0.163762	-0.904588
H238	H	1.539697	0.336238	-0.404588
H239	H	1.159292	-0.550001	-0.271822
H240	H	1.659292	-0.050001	0.228178
C241	C	1.262168	-0.729820	-0.169259
C242	C	1.762168	-0.229820	0.330741
C243	C	1.220437	-0.694329	-0.210886
C244	C	1.720437	-0.194329	0.289114
H245	H	1.294424	-0.711289	-0.137066
H246	H	1.794424	-0.211289	0.362934
H247	H	1.229839	-0.751145	-0.140820
H248	H	1.729839	-0.251145	0.359180
H249	H	1.290552	-0.751089	-0.201663
H250	H	1.790552	-0.251089	0.298337
H251	H	1.192049	-0.673062	-0.178482
H252	H	1.692049	-0.173062	0.321518
H253	H	1.252770	-0.672995	-0.239328
H254	H	1.752770	-0.172995	0.260672
H255	H	0.619831	-0.187427	-0.266473
H256	H	1.119831	0.312573	0.233527
H257	H	0.619701	-0.339989	-0.324080
H258	H	1.119701	0.160011	0.175920
C259	C	0.475626	-0.238360	-0.185471
C260	C	0.975626	0.261640	0.314529
C261	C	0.519374	-0.279149	-0.212737
C262	C	1.019374	0.220851	0.287263
H263	H	0.457499	-0.247297	-0.137702
H264	H	0.957499	0.252703	0.362298
H265	H	0.504610	-0.207515	-0.182209
H266	H	1.004610	0.292485	0.317791
H267	H	0.435091	-0.232611	-0.218008
H268	H	0.935091	0.267389	0.281992
H269	H	0.559912	-0.284895	-0.180203
H270	H	1.059912	0.215105	0.319797
H271	H	0.490388	-0.310002	-0.215995
H272	H	0.990388	0.189998	0.284005
C273	C	1.214759	-0.981000	-0.216726
C274	C	1.714759	-0.481000	0.283274
C275	C	1.173033	-0.945512	-0.258362
C276	C	1.673033	-0.445512	0.241638
H277	H	1.247008	-0.962467	-0.184528
H278	H	1.747008	-0.462467	0.315472
H279	H	1.182427	-1.002326	-0.188292
H280	H	1.682427	-0.502326	0.311708
H281	H	1.243151	-1.002269	-0.249124
H282	H	1.743151	-0.502269	0.250876
H283	H	1.144638	-0.924245	-0.225964
H284	H	1.644638	-0.424245	0.274036
H285	H	1.205370	-0.924177	-0.286798
H286	H	1.705370	-0.424177	0.213202
C287	C	0.985088	-0.376405	-0.886210
C288	C	1.485088	0.123595	-0.386210
C289	C	0.966844	-0.326583	-0.912216
C290	C	1.466844	0.173417	-0.412216
H291	H	0.950072	-0.400980	-0.904268
H292	H	1.450072	0.099020	-0.404268
H293	H	1.033182	-0.385558	-0.903134
H294	H	1.533182	0.114442	-0.403134
H295	H	0.984369	-0.376467	-0.833587
H296	H	1.484369	0.123533	-0.333587
H297	H	0.967568	-0.326520	-0.964838
H298	H	1.467568	0.173480	-0.464838
H299	H	0.918737	-0.317428	-0.895295
H300	H	1.418737	0.182572	-0.395295
H301	H	0.986776	-0.450997	-0.443964
H302	H	1.486776	0.049003	0.056036
H303	H	1.159539	-1.052362	-0.271902
H304	H	1.659539	-0.552362	0.228098
C305	C	0.989524	-1.046944	-0.531139
C306	C	1.489524	-0.546944	-0.031139
C307	C	0.973544	-1.060186	-0.457580
C308	C	1.473544	-0.560186	0.042420
H309	H	0.957283	-1.065479	-0.563342
H310	H	1.457283	-0.565479	-0.063342
H311	H	0.982705	-1.010523	-0.537912
H312	H	1.482705	-0.510523	-0.037912
H313	H	1.039421	-1.055859	-0.542051
H314	H	1.539421	-0.555859	-0.042051
H315	H	0.923649	-1.051268	-0.446665
H316	H	1.423649	-0.551268	0.053335
H317	H	0.980358	-1.096615	-0.450804
H318	H	1.480358	-0.596615	0.049196
C319	C	1.015324	-0.914133	-0.505305
C320	C	1.515324	-0.414133	-0.005305
C321	C	0.973489	-0.945573	-0.457569
C322	C	1.473489	-0.445573	0.042431
H323	H	0.983057	-0.895624	-0.537504
H324	H	1.483057	-0.395624	-0.037504
H325	H	1.043606	-0.890049	-0.477050
H326	H	1.543606	-0.390049	0.022950
H327	H	1.047672	-0.935408	-0.533745
H328	H	1.547672	-0.435408	-0.033745
H329	H	0.941145	-0.924298	-0.429125
H330	H	1.441145	-0.424298	0.070875
H331	H	0.945194	-0.969661	-0.485827
H332	H	1.445194	-0.469661	0.014173
H333	H	0.939445	-0.801229	-0.491487
H334	H	1.439445	-0.301229	0.008513
H335	H	0.939408	-0.702179	-0.491477
H336	H	1.439408	-0.202179	0.008523
H337	H	0.986831	-0.550063	-0.443991
H338	H	1.486831	-0.050063	0.056009
