data_functionalizedCrystal
_audit_creation_method	'MofGen! by Chris Wilmer'
_symmetry_space_group_name_H-M	'P1'
_symmetry_Int_Tables_number	1
_symmetry_cell_setting	triclinic
loop_
_symmetry_equiv_pos_as_xyz
  x,y,z
_cell_length_a	25.639242
_cell_length_b	25.639240
_cell_length_c	25.639233
_cell_angle_alpha	89.974071
_cell_angle_beta	89.977834
_cell_angle_gamma	90.028283
loop_
_atom_site_label
_atom_site_type_symbol
_atom_site_fract_x
_atom_site_fract_y
_atom_site_fract_z
Zn1	Zn	0.799247	-0.208277	-0.295716
Zn2	Zn	1.299247	0.291723	0.204284
Zn3	Zn	0.799179	-0.295696	-0.208270
Zn4	Zn	1.299179	0.204304	0.291730
Zn5	Zn	0.711823	-0.208269	-0.208280
Zn6	Zn	1.211823	0.291731	0.291720
Zn7	Zn	0.711777	-0.295676	-0.295659
Zn8	Zn	1.211777	0.204324	0.204341
O9	O	0.755506	-0.251979	-0.251981
O10	O	1.255506	0.248021	0.248019
O11	O	0.872403	-0.219884	-0.284135
O12	O	1.372403	0.280116	0.215865
O13	O	0.787582	-0.284103	-0.135106
O14	O	1.287582	0.215897	0.364894
O15	O	0.723467	-0.135105	-0.219907
O16	O	1.223467	0.364895	0.280093
O17	O	0.872353	-0.284111	-0.219889
O18	O	1.372353	0.215889	0.280111
O19	O	0.787697	-0.135111	-0.284146
O20	O	1.287697	0.364889	0.215854
O21	O	0.723402	-0.219871	-0.135114
O22	O	1.223402	0.280129	0.364886
O23	O	0.638652	-0.219853	-0.219852
O24	O	1.138652	0.280147	0.280148
O25	O	0.723389	-0.284078	-0.368832
O26	O	1.223389	0.215922	0.131168
O27	O	0.638618	-0.284070	-0.284049
O28	O	1.138618	0.215930	0.215951
O29	O	0.787653	-0.219866	-0.368874
O30	O	1.287653	0.280134	0.131126
O31	O	0.787538	-0.368858	-0.219834
O32	O	1.287538	0.131142	0.280166
O33	O	0.723324	-0.368844	-0.284039
O34	O	1.223324	0.131156	0.215961
C35	C	0.619664	-0.251959	-0.251946
C36	C	1.119664	0.248041	0.248054
C37	C	0.561550	-0.251963	-0.251943
C38	C	1.061550	0.248037	0.248057
C39	C	0.201178	-0.285473	-0.285377
C40	C	0.701178	0.214527	0.214623
C41	C	0.146574	-0.285477	-0.285385
C42	C	0.646574	0.214523	0.214615
O43	O	0.118330	-0.313943	-0.313782
O44	O	0.618330	0.186057	0.186218
N45	N	0.119267	-0.251994	-0.252015
N46	N	0.619267	0.248006	0.247985
C47	C	0.146568	-0.218502	-0.218639
C48	C	0.646568	0.281498	0.281361
O49	O	0.118328	-0.190022	-0.190256
O50	O	0.618328	0.309978	0.309744
C51	C	0.201171	-0.218496	-0.218634
C52	C	0.701171	0.281504	0.281366
C53	C	0.228475	-0.251985	-0.252002
C54	C	0.728475	0.248015	0.247998
C55	C	0.228482	-0.318959	-0.318743
C56	C	0.728482	0.181041	0.181257
C57	C	0.283082	-0.318956	-0.318734
C58	C	0.783082	0.181044	0.181266
C59	C	0.310379	-0.285468	-0.285359
C60	C	0.810379	0.214532	0.214641
C61	C	0.283076	-0.251983	-0.251993
C62	C	0.783076	0.248017	0.248007
C63	C	0.228471	-0.185002	-0.185260
C64	C	0.728471	0.314998	0.314740
C65	C	0.283078	-0.184999	-0.185258
C66	C	0.783078	0.315001	0.314742
C67	C	0.310382	-0.218488	-0.218626
C68	C	0.810382	0.281512	0.281374
C69	C	0.364973	-0.218492	-0.218609
C70	C	0.864973	0.281508	0.281391
N71	N	0.392279	-0.251974	-0.251979
N72	N	0.892279	0.248026	0.248021
C73	C	0.364983	-0.285463	-0.285354
C74	C	0.864983	0.214537	0.214646
C75	C	0.031897	-0.218515	-0.218653
C76	C	0.531897	0.281485	0.281347
C77	C	-0.022705	-0.218523	-0.218655
C78	C	0.477295	0.281477	0.281345
C79	C	-0.022695	-0.285497	-0.285402
C80	C	0.477305	0.214503	0.214598
C81	C	0.031908	-0.285492	-0.285397
C82	C	0.531908	0.214508	0.214603
C83	C	0.059204	-0.251998	-0.252023
C84	C	0.559204	0.248002	0.247977
C85	C	0.479648	-0.285455	-0.285332
C86	C	0.979648	0.214545	0.214668
C87	C	0.534253	-0.285451	-0.285318
C88	C	1.034253	0.214549	0.214682
C89	C	0.534239	-0.218475	-0.218573
C90	C	1.034239	0.281525	0.281427
C91	C	0.479638	-0.218481	-0.218585
C92	C	0.979638	0.281519	0.281415
C93	C	0.452344	-0.251972	-0.251968
C94	C	0.952344	0.248028	0.248032
O95	O	0.393252	-0.190038	-0.190228
O96	O	0.893252	0.309962	0.309772
O97	O	0.393229	-0.313933	-0.313736
O98	O	0.893229	0.186067	0.186264
C99	C	0.755433	-0.387822	-0.251940
C100	C	1.255433	0.112178	0.248060
C101	C	0.755449	-0.445936	-0.251940
C102	C	1.255449	0.054064	0.248060
C103	C	0.788967	-0.806264	-0.285491
C104	C	1.288967	-0.306264	0.214509
C105	C	0.788983	-0.860868	-0.285501
C106	C	1.288983	-0.360868	0.214499
O107	O	0.817394	-0.889074	-0.313985
O108	O	1.317394	-0.389074	0.186015
N109	N	0.755579	-0.888218	-0.252032
N110	N	1.255579	-0.388218	0.247968
C111	C	0.722154	-0.860962	-0.218553
C112	C	1.222154	-0.360962	0.281447
O113	O	0.693742	-0.889240	-0.190086
O114	O	1.193742	-0.389240	0.309914
C115	C	0.722136	-0.806359	-0.218546
C116	C	1.222136	-0.306359	0.281454
C117	C	0.755546	-0.779011	-0.252014
C118	C	1.255546	-0.279011	0.247986
C119	C	0.822374	-0.778916	-0.318956
C120	C	1.322374	-0.278916	0.181044
C121	C	0.822359	-0.724315	-0.318945
C122	C	1.322359	-0.224315	0.181055
C123	C	0.788938	-0.697062	-0.285468
C124	C	1.288938	-0.197062	0.214532
C125	C	0.755531	-0.724410	-0.252002
C126	C	1.255531	-0.224410	0.247998
C127	C	0.688708	-0.779103	-0.185070
C128	C	1.188708	-0.279103	0.314930
C129	C	0.688693	-0.724496	-0.185066
C130	C	1.188693	-0.224496	0.314934
C131	C	0.722103	-0.697148	-0.218534
C132	C	1.222103	-0.197148	0.281466
C133	C	0.722095	-0.642557	-0.218514
C134	C	1.222095	-0.142557	0.281486
N135	N	0.755498	-0.615206	-0.251983
N136	N	1.255498	-0.115206	0.248017
C137	C	0.788920	-0.642459	-0.285460
C138	C	1.288920	-0.142459	0.214540
C139	C	0.722193	-0.975633	-0.218572
C140	C	1.222193	-0.475633	0.281428
C141	C	0.722213	-1.030235	-0.218577
C142	C	1.222213	-0.530235	0.281423
C143	C	0.789041	-1.030137	-0.285526
C144	C	1.289041	-0.530137	0.214474
C145	C	0.789024	-0.975534	-0.285518
C146	C	1.289024	-0.475534	0.214482
C147	C	0.755597	-0.948282	-0.252042
C148	C	1.255597	-0.448282	0.247958
C149	C	0.788887	-0.527794	-0.285433
C150	C	1.288887	-0.027794	0.214567
C151	C	0.788870	-0.473189	-0.285417
C152	C	1.288870	0.026811	0.214583
C153	C	0.722040	-0.473291	-0.218471
C154	C	1.222040	0.026709	0.281529
C155	C	0.722058	-0.527892	-0.218484
C156	C	1.222058	-0.027892	0.281516
C157	C	0.755483	-0.555142	-0.251970
C158	C	1.255483	-0.055142	0.248030
O159	O	0.693697	-0.614316	-0.190046
O160	O	1.193697	-0.114316	0.309954
O161	O	0.817322	-0.614175	-0.313927
O162	O	1.317322	-0.114175	0.186073
C163	C	0.891879	-0.252000	-0.252017
C164	C	1.391879	0.248000	0.247983
C165	C	0.949993	-0.252009	-0.252032
C166	C	1.449993	0.247991	0.247968
C167	C	0.755523	-0.251970	-0.388354
C168	C	1.255523	0.248030	0.111646
C169	C	0.755530	-0.251966	-0.446468
C170	C	1.255530	0.248034	0.053532
C171	C	0.755595	-0.115606	-0.252034
C172	C	1.255595	0.384394	0.247966
C173	C	0.755632	-0.057492	-0.252056
C174	C	1.255632	0.442508	0.247944
C175	C	0.789035	-0.218432	-0.806859
C176	C	1.289035	0.281568	-0.306859
C177	C	0.789041	-0.218417	-0.861463
C178	C	1.289041	0.281583	-0.361463
O179	O	0.817486	-0.189967	-0.889723
O180	O	1.317486	0.310033	-0.389723
N181	N	0.755588	-0.251844	-0.888751
N182	N	1.255588	0.248156	-0.388751
C183	C	0.722122	-0.285283	-0.861432
C184	C	1.222122	0.214717	-0.361432
O185	O	0.693668	-0.313713	-0.889656
O186	O	1.193668	0.186287	-0.389656
C187	C	0.722114	-0.285294	-0.806828
C188	C	1.222114	0.214706	-0.306828
C189	C	0.755573	-0.251870	-0.779543
C190	C	1.255573	0.248130	-0.279543
C191	C	0.822491	-0.185009	-0.779574
C192	C	1.322491	0.314991	-0.279574
C193	C	0.822485	-0.185025	-0.724973
C194	C	1.322485	0.314975	-0.224973
C195	C	0.789023	-0.218462	-0.697658
C196	C	1.289023	0.281538	-0.197658
C197	C	0.755567	-0.251885	-0.724943
C198	C	1.255567	0.248115	-0.224943
C199	C	0.688646	-0.318731	-0.779510
C200	C	1.188646	0.181269	-0.279510
C201	C	0.688640	-0.318739	-0.724903
C202	C	1.188640	0.181261	-0.224903
C203	C	0.722099	-0.285314	-0.697618
C204	C	1.222099	0.214686	-0.197618
C205	C	0.722099	-0.285338	-0.643027
C206	C	1.222099	0.214662	-0.143027
N207	N	0.755552	-0.251912	-0.615739
N208	N	1.255552	0.248088	-0.115739
C209	C	0.789014	-0.218474	-0.643055
C210	C	1.289014	0.281526	-0.143055
C211	C	0.722143	-0.285256	-0.976102
C212	C	1.222143	0.214744	-0.476102
C213	C	0.722154	-0.285247	-1.030705
C214	C	1.222154	0.214753	-0.530705
C215	C	0.789072	-0.218381	-1.030733
C216	C	1.289072	0.281619	-0.530733
C217	C	0.789063	-0.218392	-0.976129
C218	C	1.289063	0.281608	-0.476129
C219	C	0.755596	-0.251829	-0.948815
C220	C	1.255596	0.248171	-0.448815
C221	C	0.789000	-0.218509	-0.528389
C222	C	1.289000	0.281491	-0.028389
C223	C	0.788992	-0.218529	-0.473784
C224	C	1.288992	0.281471	0.026216
C225	C	0.722072	-0.285393	-0.473761
C226	C	1.222072	0.214607	0.026239
C227	C	0.722081	-0.285375	-0.528362
C228	C	1.222081	0.214625	-0.028362
C229	C	0.755547	-0.251929	-0.555674
C230	C	1.255547	0.248071	-0.055674
O231	O	0.693668	-0.313773	-0.614732
O232	O	1.193668	0.186227	-0.114732
O233	O	0.817459	-0.190044	-0.614823
O234	O	1.317459	0.309956	-0.114823
C235	C	0.755520	-0.251951	-0.116139
C236	C	1.255520	0.248049	0.383861
C237	C	0.755614	-0.251807	-0.058025
C238	C	1.255614	0.248193	0.441975
H239	H	0.054135	-0.312760	-0.312570
H240	H	0.554135	0.187240	0.187430
C241	C	0.825059	-0.443431	-0.321788
C242	C	1.325059	0.056569	0.178212
C243	C	0.795424	-0.412074	-0.355253
C244	C	1.295424	0.087926	0.144747
C245	C	0.828741	-0.384651	-0.388760
C246	C	1.328741	0.115349	0.111240
H247	H	0.844976	-0.467425	-0.341778
H248	H	1.344976	0.032575	0.158222
H249	H	0.847841	-0.422095	-0.301824
H250	H	1.347841	0.077905	0.198176
H251	H	0.772651	-0.433408	-0.375216
H252	H	1.272651	0.066592	0.124784
H253	H	0.775509	-0.388070	-0.335278
H254	H	1.275509	0.111930	0.164722
H255	H	0.851524	-0.363315	-0.368796
H256	H	1.351524	0.136685	0.131204
H257	H	0.848656	-0.408648	-0.408746
H258	H	1.348656	0.091352	0.091254
H259	H	0.808640	-0.363368	-0.411467
H260	H	1.308640	0.136632	0.088533
C261	C	0.652336	-0.694881	-0.148805
C262	C	1.152336	-0.194881	0.351195
C263	C	0.618787	-0.663550	-0.178368
C264	C	1.118787	-0.163550	0.321632
C265	C	0.585285	-0.636268	-0.144983
C266	C	1.085285	-0.136268	0.355017
H267	H	0.672283	-0.673537	-0.126029
H268	H	1.172283	-0.173537	0.373971
H269	H	0.632412	-0.718975	-0.128885
H270	H	1.132412	-0.218975	0.371115
H271	H	0.638709	-0.639460	-0.198279
H272	H	1.138709	-0.139460	0.301721
H273	H	0.598828	-0.684882	-0.201143
H274	H	1.098828	-0.184882	0.298857
H275	H	0.565361	-0.660361	-0.125063
H276	H	1.065361	-0.160361	0.374937
H277	H	0.605236	-0.614926	-0.122209
H278	H	1.105236	-0.114926	0.377791
H279	H	0.562515	-0.615011	-0.165037
H280	H	1.062515	-0.115011	0.334963
C281	C	0.825340	-0.182178	-0.444255
C282	C	1.325340	0.317822	0.055745
C283	C	0.854633	-0.152882	-0.479869
C284	C	1.354633	0.347118	0.020131
C285	C	0.888115	-0.119386	-0.452688
C286	C	1.388115	0.380614	0.047312
H287	H	0.848153	-0.202128	-0.422955
H288	H	1.348153	0.297872	0.077045
H289	H	0.805364	-0.159371	-0.422965
H290	H	1.305364	0.340629	0.077035
H291	H	0.874608	-0.175686	-0.501150
H292	H	1.374608	0.324314	-0.001150
H293	H	0.831834	-0.132921	-0.501170
H294	H	1.331834	0.367079	-0.001170
H295	H	0.868139	-0.096579	-0.431398
H296	H	1.368139	0.403421	0.068602
H297	H	0.910925	-0.139340	-0.431389
H298	H	1.410925	0.360660	0.068611
H299	H	0.907991	-0.099501	-0.476848
H300	H	1.407991	0.400499	0.023152
H301	H	0.849740	-0.157777	-0.801809
H302	H	1.349740	0.342223	-0.301809
C303	C	0.685730	-0.557493	-0.182126
C304	C	1.185730	-0.057493	0.317874
C305	C	0.656451	-0.521936	-0.152814
C306	C	1.156451	-0.021936	0.347186
C307	C	0.622971	-0.549181	-0.119324
C308	C	1.122971	-0.049181	0.380676
H309	H	0.705691	-0.578799	-0.159325
H310	H	1.205691	-0.078799	0.340675
H311	H	0.662912	-0.578783	-0.202097
H312	H	1.162912	-0.078783	0.297903
H313	H	0.679266	-0.500655	-0.132844
H314	H	1.179266	-0.000655	0.367156
H315	H	0.636480	-0.500629	-0.175601
H316	H	1.136480	-0.000629	0.324399
H317	H	0.600152	-0.570471	-0.139295
H318	H	1.100152	-0.070471	0.360705
H319	H	0.642935	-0.570486	-0.096526
H320	H	1.142935	-0.070486	0.403474
H321	H	0.603097	-0.525060	-0.099435
H322	H	1.103097	-0.025060	0.400565
C323	C	0.825248	-0.182133	-0.558065
C324	C	1.325248	0.317867	-0.058065
C325	C	0.795676	-0.148594	-0.589401
C326	C	1.295676	0.351406	-0.089401
C327	C	0.829052	-0.115076	-0.616740
C328	C	1.329052	0.384924	-0.116740
H329	H	0.848031	-0.202069	-0.579410
H330	H	1.348031	0.297931	-0.079410
H331	H	0.845161	-0.162203	-0.534005
H332	H	1.345161	0.337797	-0.034005
H333	H	0.775772	-0.168522	-0.613459
H334	H	1.275772	0.331478	-0.113459
H335	H	0.772895	-0.128646	-0.568069
H336	H	1.272895	0.371354	-0.068069
H337	H	0.848965	-0.095146	-0.592680
H338	H	1.348965	0.404854	-0.092680
H339	H	0.851833	-0.135016	-0.638082
H340	H	1.351833	0.364984	-0.138082
H341	H	0.808992	-0.092313	-0.638001
H342	H	1.308992	0.407687	-0.138001
C343	C	0.563990	-0.321789	-0.321495
C344	C	1.063990	0.178211	0.178505
C345	C	0.617653	-0.314632	-0.314338
C346	C	1.117653	0.185368	0.185662
C347	C	0.645061	-0.348100	-0.347649
C348	C	1.145061	0.151900	0.152351
H349	H	0.555126	-0.314221	-0.356661
H350	H	1.055126	0.185779	0.143339
H351	H	0.555051	-0.356919	-0.313772
H352	H	1.055051	0.143081	0.186228
H353	H	0.626589	-0.279510	-0.322064
H354	H	1.126589	0.220490	0.177936
H355	H	0.626534	-0.322204	-0.279179
H356	H	1.126534	0.177796	0.220821
H357	H	0.636122	-0.383230	-0.339926
H358	H	1.136122	0.116770	0.160074
H359	H	0.636192	-0.340529	-0.382813
H360	H	1.136192	0.159471	0.117187
H361	H	0.681474	-0.343252	-0.342794
H362	H	1.181474	0.156748	0.157206
H363	H	0.305300	-0.157721	-0.158083
H364	H	0.805300	0.342279	0.341917
C365	C	0.685817	-0.321787	-0.444119
C366	C	1.185817	0.178213	0.055881
C367	C	0.697182	-0.373517	-0.457379
C368	C	1.197182	0.126483	0.042621
C369	C	0.663801	-0.407058	-0.430074
C370	C	1.163801	0.092942	0.069926
H371	H	0.650671	-0.314203	-0.453028
H372	H	1.150671	0.185797	0.046972
H373	H	0.690618	-0.317038	-0.407688
H374	H	1.190618	0.182962	0.092312
H375	H	0.692377	-0.378264	-0.493802
H376	H	1.192377	0.121736	0.006198
H377	H	0.732322	-0.381118	-0.448469
H378	H	1.232322	0.118882	0.051531
H379	H	0.668602	-0.402308	-0.393644
H380	H	1.168602	0.097692	0.106356
H381	H	0.628657	-0.399469	-0.438986
H382	H	1.128657	0.100531	0.061014
H383	H	0.671510	-0.442160	-0.439064
H384	H	1.171510	0.057840	0.060936
C385	C	0.685919	-0.321610	-1.060350
C386	C	1.185919	0.178390	-0.560350
C387	C	0.715506	-0.355130	-1.091687
C388	C	1.215506	0.144870	-0.591687
C389	C	0.682143	-0.388639	-1.118996
C390	C	1.182143	0.111361	-0.618996
H391	H	0.663139	-0.301667	-1.081692
H392	H	1.163139	0.198333	-0.581692
H393	H	0.666003	-0.341556	-1.036272
H394	H	1.166003	0.158444	-0.536272
H395	H	0.735413	-0.335186	-1.115763
H396	H	1.235413	0.164814	-0.615763
H397	H	0.738284	-0.375084	-1.070358
H398	H	1.238284	0.124916	-0.570358
H399	H	0.662226	-0.408585	-1.094917
H400	H	1.162226	0.091415	-0.594917
H401	H	0.659364	-0.368692	-1.140335
H402	H	1.159364	0.131308	-0.640335
H403	H	0.702212	-0.411389	-1.140257
H404	H	1.202212	0.088611	-0.640257
H405	H	0.816228	-0.953270	-0.312771
H406	H	1.316228	-0.453270	0.187229
C407	C	0.450114	-0.321874	-0.321597
C408	C	0.950114	0.178126	0.178403
C409	C	0.485721	-0.351203	-0.350802
C410	C	0.985721	0.148797	0.149198
C411	C	0.458534	-0.384764	-0.384208
C412	C	0.958534	0.115236	0.115792
H413	H	0.428833	-0.301969	-0.344468
H414	H	0.928833	0.198031	0.155532
H415	H	0.428803	-0.344657	-0.301570
H416	H	0.928803	0.155343	0.198430
H417	H	0.507022	-0.328423	-0.370828
H418	H	1.007022	0.171577	0.129172
H419	H	0.507003	-0.371119	-0.327944
H420	H	1.007003	0.128881	0.172056
H421	H	0.437223	-0.407547	-0.364181
H422	H	0.937223	0.092453	0.135819
H423	H	0.437254	-0.364855	-0.407076
H424	H	0.937254	0.135145	0.092924
H425	H	0.482689	-0.404671	-0.404025
H426	H	0.982689	0.095329	0.095975
H427	H	0.661380	-0.345963	-0.702666
H428	H	1.161380	0.154037	-0.202666
C429	C	0.858858	-0.148808	-0.695319
C430	C	1.358858	0.351192	-0.195319
C431	C	0.892362	-0.178406	-0.663972
C432	C	1.392362	0.321594	-0.163972
C433	C	0.925874	-0.145054	-0.636653
C434	C	1.425874	0.354946	-0.136653
H435	H	0.838916	-0.126024	-0.673983
H436	H	1.338916	0.373976	-0.173983
H437	H	0.878815	-0.128895	-0.719391
H438	H	1.378815	0.371105	-0.219391
H439	H	0.872407	-0.198310	-0.639903
H440	H	1.372407	0.301690	-0.139903
H441	H	0.912315	-0.201188	-0.685296
H442	H	1.412315	0.298812	-0.185296
H443	H	0.945831	-0.125141	-0.660725
H444	H	1.445831	0.374859	-0.160725
H445	H	0.905928	-0.122272	-0.615320
H446	H	1.405928	0.377728	-0.115320
H447	H	0.948613	-0.165132	-0.615385
H448	H	1.448613	0.334868	-0.115385
C449	C	0.312627	-0.355332	-0.355025
C450	C	0.812627	0.144668	0.144975
C451	C	0.277026	-0.384645	-0.384262
C452	C	0.777026	0.115355	0.115738
C453	C	0.304219	-0.418155	-0.417707
C454	C	0.804219	0.081845	0.082293
H455	H	0.333911	-0.378131	-0.335041
H456	H	0.833911	0.121869	0.164959
H457	H	0.333935	-0.335375	-0.377872
H458	H	0.833935	0.164625	0.122128
H459	H	0.255727	-0.404600	-0.361418
H460	H	0.755727	0.095400	0.138582
H461	H	0.255741	-0.361859	-0.404256
H462	H	0.755741	0.138141	0.095744
H463	H	0.325527	-0.398198	-0.440554
H464	H	0.825527	0.101802	0.059446
H465	H	0.325503	-0.440951	-0.397719
H466	H	0.825503	0.059049	0.102281
H467	H	0.280068	-0.438044	-0.437551
H468	H	0.780068	0.061956	0.062449
C469	C	0.563951	-0.182202	-0.182310
C470	C	1.063951	0.317798	0.317690
C471	C	0.595280	-0.211755	-0.148748
C472	C	1.095280	0.288245	0.351252
C473	C	0.622666	-0.178356	-0.115343
C474	C	1.122666	0.321644	0.384657
H475	H	0.539934	-0.162244	-0.162386
H476	H	1.039934	0.337756	0.337614
H477	H	0.585302	-0.159463	-0.202343
H478	H	1.085302	0.340537	0.297657
H479	H	0.573932	-0.234485	-0.128717
H480	H	1.073932	0.265515	0.371283
H481	H	0.619307	-0.231712	-0.168658
H482	H	1.119307	0.268288	0.331342
H483	H	0.644017	-0.155616	-0.135377
H484	H	1.144017	0.344384	0.364623
H485	H	0.598646	-0.158399	-0.095423
H486	H	1.098646	0.341601	0.404577
H487	H	0.643930	-0.198402	-0.092571
H488	H	1.143930	0.301598	0.407429
C489	C	0.685792	-0.321628	-0.946543
C490	C	1.185792	0.178372	-0.446543
C491	C	0.656512	-0.350906	-0.982133
C492	C	1.156512	0.149094	-0.482133
C493	C	0.623027	-0.384422	-0.954925
C494	C	1.123027	0.115578	-0.454925
H495	H	0.662971	-0.301693	-0.925238
H496	H	1.162971	0.198307	-0.425238
H497	H	0.705766	-0.344445	-0.925256
H498	H	1.205766	0.155555	-0.425256
H499	H	0.636541	-0.328092	-1.003412
H500	H	1.136541	0.171908	-0.503412
H501	H	0.679320	-0.370851	-1.003439
H502	H	1.179320	0.129149	-0.503439
H503	H	0.643000	-0.407240	-0.933638
H504	H	1.143000	0.092760	-0.433638
H505	H	0.600209	-0.364484	-0.933621
H506	H	1.100209	0.135516	-0.433621
H507	H	0.603160	-0.404295	-0.979069
H508	H	1.103160	0.095705	-0.479069
H509	H	0.816308	-0.191174	-0.953917
H510	H	1.316308	0.308826	-0.453917
C511	C	0.450085	-0.182069	-0.182333
C512	C	0.950085	0.317931	0.317667
C513	C	0.485681	-0.152734	-0.153110
C514	C	0.985681	0.347266	0.346890
C515	C	0.458480	-0.119177	-0.119719
C516	C	0.958480	0.380823	0.380281
H517	H	0.428758	-0.201976	-0.159472
H518	H	0.928758	0.298024	0.340528
H519	H	0.428820	-0.159288	-0.202371
H520	H	0.928820	0.340712	0.297629
H521	H	0.506937	-0.175511	-0.133074
H522	H	1.006937	0.324489	0.366926
H523	H	0.507009	-0.132816	-0.175958
H524	H	1.007009	0.367184	0.324042
H525	H	0.437215	-0.096397	-0.139757
H526	H	0.937215	0.403603	0.360243
H527	H	0.437154	-0.139088	-0.096861
H528	H	0.937154	0.360912	0.403139
H529	H	0.482627	-0.099266	-0.099891
H530	H	0.982627	0.400734	0.400109
H531	H	0.816317	-0.191153	-1.052983
H532	H	1.316317	0.308847	-0.552983
H533	H	0.694830	-0.451094	-0.191212
H534	H	1.194830	0.048906	0.308788
C535	C	0.652257	-0.355038	-0.809030
C536	C	1.152257	0.144962	-0.309030
C537	C	0.622942	-0.384306	-0.773410
C538	C	1.122942	0.115694	-0.273410
C539	C	0.589407	-0.417754	-0.800584
C540	C	1.089407	0.082246	-0.300584
H541	H	0.672179	-0.377869	-0.830334
H542	H	1.172179	0.122131	-0.330334
H543	H	0.629463	-0.335039	-0.830315
H544	H	1.129463	0.164961	-0.330315
H545	H	0.645734	-0.404304	-0.752134
H546	H	1.145734	0.095696	-0.252134
H547	H	0.603010	-0.361489	-0.752105
H548	H	1.103010	0.138511	-0.252105
H549	H	0.566613	-0.397754	-0.821869
H550	H	1.066613	0.102246	-0.321869
H551	H	0.609333	-0.440581	-0.821887
H552	H	1.109333	0.059419	-0.321887
H553	H	0.569510	-0.437613	-0.776420
H554	H	1.069510	0.062387	-0.276420
C555	C	0.685843	-0.321728	-0.558019
C556	C	1.185843	0.178272	-0.058019
C557	C	0.715424	-0.355244	-0.589365
C558	C	1.215424	0.144756	-0.089365
C559	C	0.682054	-0.388739	-0.616684
C560	C	1.182054	0.111261	-0.116684
H561	H	0.663068	-0.301775	-0.579355
H562	H	1.163068	0.198225	-0.079355
H563	H	0.665923	-0.341677	-0.533946
H564	H	1.165923	0.158323	-0.033946
H565	H	0.735335	-0.335298	-0.613434
H566	H	1.235335	0.164702	-0.113434
H567	H	0.738198	-0.375210	-0.568041
H568	H	1.238198	0.124790	-0.068041
H569	H	0.662134	-0.408688	-0.592611
H570	H	1.162134	0.091312	-0.092611
H571	H	0.659280	-0.368781	-0.638017
H572	H	1.159280	0.131219	-0.138017
H573	H	0.702120	-0.411487	-0.637952
H574	H	1.202120	0.088513	-0.137952
H575	H	0.206262	-0.346229	-0.345924
H576	H	0.706262	0.153771	0.154076
C577	C	-0.052271	-0.321824	-0.321728
C578	C	0.447729	0.178176	0.178272
C579	C	-0.038950	-0.310522	-0.373479
C580	C	0.461050	0.189478	0.126521
C581	C	-0.066181	-0.343978	-0.406953
C582	C	0.433819	0.156022	0.093047
H583	H	-0.088709	-0.317061	-0.317022
H584	H	0.411291	0.182939	0.182978
H585	H	-0.043333	-0.356952	-0.314041
H586	H	0.456667	0.143048	0.185959
H587	H	-0.047892	-0.275403	-0.381163
H588	H	0.452108	0.224597	0.118837
H589	H	-0.002517	-0.315288	-0.378201
H590	H	0.497483	0.184712	0.121799
H591	H	-0.057243	-0.379106	-0.399266
H592	H	0.442757	0.120894	0.100734
H593	H	-0.102617	-0.339212	-0.402243
H594	H	0.397383	0.160788	0.097757
H595	H	-0.057143	-0.336318	-0.442069
H596	H	0.442857	0.163682	0.057931
H597	H	0.849563	-0.702052	-0.346199
H598	H	1.349563	-0.202052	0.153801
C599	C	-0.052251	-0.182110	-0.182402
C600	C	0.447749	0.317890	0.317598
C601	C	-0.016652	-0.152776	-0.153183
C602	C	0.483348	0.347224	0.346817
C603	C	-0.043848	-0.119219	-0.119788
C604	C	0.456152	0.380781	0.380212
H605	H	-0.073575	-0.202018	-0.159538
H606	H	0.426425	0.297982	0.340462
H607	H	-0.073519	-0.159330	-0.202437
H608	H	0.426481	0.340670	0.297563
H609	H	0.004607	-0.175554	-0.133150
H610	H	0.504607	0.324446	0.366850
H611	H	0.004674	-0.132858	-0.176034
H612	H	0.504674	0.367142	0.323966
H613	H	-0.065116	-0.096439	-0.139823
H614	H	0.434884	0.403561	0.360177
H615	H	-0.065171	-0.139131	-0.096927
H616	H	0.434829	0.360869	0.403073
H617	H	-0.019698	-0.099309	-0.099962
H618	H	0.480302	0.400691	0.400038
H619	H	0.206250	-0.157734	-0.158087
H620	H	0.706250	0.342266	0.341913
C621	C	0.061598	-0.182239	-0.182378
C622	C	0.561598	0.317761	0.317622
C623	C	0.092925	-0.211790	-0.148813
C624	C	0.592925	0.288210	0.351187
C625	C	0.120295	-0.178391	-0.115395
C626	C	0.620295	0.321609	0.384605
H627	H	0.037571	-0.162290	-0.162456
H628	H	0.537571	0.337710	0.337544
H629	H	0.082948	-0.159491	-0.202402
H630	H	0.582948	0.340509	0.297598
H631	H	0.071577	-0.234530	-0.128792
H632	H	0.571577	0.265470	0.371208
H633	H	0.116961	-0.231739	-0.168720
H634	H	0.616961	0.268261	0.331280
H635	H	0.141645	-0.155643	-0.135419
H636	H	0.641645	0.344357	0.364581
H637	H	0.096265	-0.158444	-0.095477
H638	H	0.596265	0.341556	0.404523
H639	H	0.141557	-0.198436	-0.092621
H640	H	0.641557	0.301564	0.407379
C641	C	0.825090	-0.557404	-0.321851
C642	C	1.325090	-0.057404	0.178149
C643	C	0.795475	-0.588743	-0.355349
C644	C	1.295475	-0.088743	0.144651
C645	C	0.828808	-0.616023	-0.388906
C646	C	1.328808	-0.116023	0.111094
H647	H	0.847902	-0.578743	-0.301941
H648	H	1.347902	-0.078743	0.198059
H649	H	0.844973	-0.533309	-0.341809
H650	H	1.344973	-0.033309	0.158191
H651	H	0.775600	-0.612836	-0.335393
H652	H	1.275600	-0.112836	0.164607
H653	H	0.772665	-0.567418	-0.375271
H654	H	1.272665	-0.067418	0.124729
H655	H	0.848692	-0.591928	-0.408864
H656	H	1.348692	-0.091928	0.091136
H657	H	0.851618	-0.637358	-0.368991
H658	H	1.351618	-0.137358	0.131009
H659	H	0.808720	-0.637286	-0.411641
H660	H	1.308720	-0.137286	0.088359
C661	C	0.858636	-0.808431	-0.355390
C662	C	1.358636	-0.308431	0.144610
C663	C	0.847223	-0.795114	-0.407105
C664	C	1.347223	-0.295114	0.092895
C665	C	0.880627	-0.822283	-0.440680
C666	C	1.380627	-0.322283	0.059320
H667	H	0.853903	-0.844877	-0.350678
H668	H	1.353903	-0.344877	0.149322
H669	H	0.893774	-0.799441	-0.347801
H670	H	1.393774	-0.299441	0.152199
H671	H	0.812094	-0.804108	-0.414691
H672	H	1.312094	-0.304108	0.085309
H673	H	0.851960	-0.758672	-0.411833
H674	H	1.351960	-0.258672	0.088167
H675	H	0.915765	-0.813293	-0.433091
H676	H	1.415765	-0.313293	0.066909
H677	H	0.875891	-0.858728	-0.435964
H678	H	1.375891	-0.358728	0.064036
H679	H	0.872891	-0.813247	-0.475772
H680	H	1.372891	-0.313247	0.024228
C681	C	0.825268	-1.059827	-0.321858
C682	C	1.325268	-0.559827	0.178142
C683	C	0.818118	-1.113498	-0.314709
C684	C	1.318118	-0.613498	0.185291
C685	C	0.851474	-1.140865	-0.348171
C686	C	1.351474	-0.640865	0.151829
H687	H	0.860423	-1.050922	-0.314280
H688	H	1.360423	-0.550922	0.185720
H689	H	0.817582	-1.050894	-0.356989
H690	H	1.317582	-0.550894	0.143011
H691	H	0.825808	-1.122427	-0.279586
H692	H	1.325808	-0.622427	0.220414
H693	H	0.782970	-1.122418	-0.322291
H694	H	1.282970	-0.622418	0.177709
H695	H	0.843788	-1.131933	-0.383302
H696	H	1.343788	-0.631933	0.116698
H697	H	0.886627	-1.131956	-0.340590
H698	H	1.386627	-0.631956	0.159410
H699	H	0.846623	-1.177284	-0.343328
H700	H	1.346623	-0.677284	0.156672
H701	H	0.695013	-1.052497	-0.191318
H702	H	1.195013	-0.552497	0.308682
H703	H	0.661503	-0.801360	-0.157817
H704	H	1.161503	-0.301360	0.342183
C705	C	0.685883	-0.946142	-0.182161
C706	C	1.185883	-0.446142	0.317839
C707	C	0.656647	-0.981786	-0.152845
C708	C	1.156647	-0.481786	0.347155
C709	C	0.623198	-0.954642	-0.119294
C710	C	1.123198	-0.454642	0.380706
H711	H	0.663033	-0.924845	-0.202071
H712	H	1.163033	-0.424845	0.297929
H713	H	0.705881	-0.924851	-0.159369
H714	H	1.205881	-0.424851	0.340631
H715	H	0.636651	-1.003068	-0.175634
H716	H	1.136651	-0.503068	0.324366
H717	H	0.679484	-1.003084	-0.132924
H718	H	1.179484	-0.503084	0.367076
H719	H	0.643195	-0.933351	-0.096502
H720	H	1.143195	-0.433351	0.403498
H721	H	0.600351	-0.933346	-0.139209
H722	H	1.100351	-0.433346	0.360791
H723	H	0.603361	-0.978822	-0.099396
H724	H	1.103361	-0.478822	0.400604
