data_functionalizedCrystal
_audit_creation_method	'MofGen! by Chris Wilmer'
_symmetry_space_group_name_H-M	'P1'
_symmetry_Int_Tables_number	1
_symmetry_cell_setting	triclinic
loop_
_symmetry_equiv_pos_as_xyz
  x,y,z
_cell_length_a	10.654550
_cell_length_b	17.038272
_cell_length_c	9.730223
_cell_angle_alpha	89.995299
_cell_angle_beta	89.999957
_cell_angle_gamma	87.798243
loop_
_atom_site_label
_atom_site_type_symbol
_atom_site_fract_x
_atom_site_fract_y
_atom_site_fract_z
O1	O	1.678042	0.109878	-0.114188
O2	O	1.313535	0.120346	-0.114214
O3	O	1.493622	0.001285	-0.114190
O4	O	1.497955	0.228940	-0.114212
O5	O	1.493609	0.001281	0.114390
O6	O	1.313523	0.120343	0.114366
O7	O	1.678029	0.109875	0.114392
Zn8	Zn	1.495774	0.115108	0.150671
Zn9	Zn	1.495791	0.115113	-0.150493
O10	O	1.497942	0.228936	0.114368
C11	C	1.266660	0.119576	0.000073
C12	C	1.127003	0.117276	0.000064
C13	C	1.054026	0.187378	0.000061
C14	C	0.922805	0.185213	0.000085
C15	C	0.937548	0.042838	0.000109
C16	C	1.068767	0.045004	0.000095
C17	C	1.489675	-0.027867	0.000099
C18	C	1.477918	-0.114726	0.000098
C19	C	1.585862	-0.164237	0.000107
C20	C	1.574808	-0.245849	0.000093
C21	C	1.455808	-0.277949	0.000080
C22	C	1.347855	-0.228431	0.000067
C23	C	1.358911	-0.146820	0.000071
C24	C	1.416750	-0.523925	0.000059
C25	C	1.405702	-0.605542	0.000059
C26	C	1.632655	-0.622955	0.000082
C27	C	1.643701	-0.541341	0.000094
C28	C	1.535748	-0.491831	0.000074
C29	C	1.444505	-0.361369	0.000070
C30	C	1.547052	-0.408412	0.000074
C31	C	1.724905	0.110645	0.000102
C32	C	1.864561	0.112945	0.000102
C33	C	1.501889	0.258088	0.000076
C34	C	1.513646	0.344947	0.000068
N35	N	1.495771	0.115105	0.356207
N36	N	1.495802	0.115110	-0.356029
C37	C	1.575545	0.062407	0.428144
C38	C	1.575558	0.062407	0.572027
C39	C	1.416020	0.167810	0.572024
C40	C	1.416002	0.167806	0.428144
H41	H	1.128187	-0.012085	0.000101
Cl42	Cl	1.315747	0.234063	0.662465
Cl43	Cl	0.831068	0.273345	0.000083
Cl44	Cl	1.675846	-0.003846	0.662457
H45	H	1.271011	-0.106509	0.000064
Cl46	Cl	1.696646	-0.368057	0.000083
Cl47	Cl	1.256091	-0.645894	0.000051
Cl48	Cl	0.864327	-0.048014	0.000139
Cl49	Cl	1.315701	0.234056	0.337701
Cl50	Cl	1.735470	-0.123892	0.000137
H51	H	1.662708	-0.286159	0.000103
Cl52	Cl	1.127233	0.278234	0.000031
H53	H	1.328847	-0.483623	0.000043
H54	H	1.740603	-0.515213	0.000105
Cl55	Cl	1.294910	-0.401730	0.000047
Cl56	Cl	1.198254	-0.268785	0.000034
H57	H	1.720544	-0.663274	0.000096
Cl58	Cl	1.675822	-0.003849	0.337715
