data_functionalizedCrystal
_audit_creation_method	'MofGen! by Chris Wilmer'
_symmetry_space_group_name_H-M	'P1'
_symmetry_Int_Tables_number	1
_symmetry_cell_setting	triclinic
loop_
_symmetry_equiv_pos_as_xyz
  x,y,z
_cell_length_a	12.811457
_cell_length_b	13.185407
_cell_length_c	11.295483
_cell_angle_alpha	92.691793
_cell_angle_beta	91.289320
_cell_angle_gamma	68.085483
loop_
_atom_site_label
_atom_site_type_symbol
_atom_site_fract_x
_atom_site_fract_y
_atom_site_fract_z
O1	O	1.346942	0.150109	0.046438
O2	O	1.039913	0.163618	0.013279
O3	O	1.246030	-0.001225	0.035544
O4	O	1.140825	0.314952	0.024173
O5	O	1.227932	0.013231	0.231640
O6	O	1.021815	0.178074	0.209375
O7	O	1.328844	0.164565	0.242534
Cu8	Cu	1.173677	0.172639	0.243859
Cu9	Cu	1.195080	0.155543	0.011953
O10	O	1.122727	0.329408	0.220269
C11	C	0.992396	0.169646	0.107172
C12	C	0.877777	0.166057	0.094794
C13	C	0.642670	0.175055	0.285341
C14	C	0.534975	0.171683	0.273716
C15	C	0.554692	0.155934	0.059920
C16	C	0.662387	0.159306	0.071545
C17	C	0.706372	0.168868	0.184259
C18	C	0.814066	0.172248	0.195883
C19	C	0.833784	0.156491	-0.017912
C20	C	0.726089	0.153119	-0.029537
C21	C	1.247647	-0.034492	0.134742
C22	C	1.279415	-0.155155	0.138169
C23	C	0.976234	-0.448212	0.105414
C24	C	0.946383	-0.334844	0.102183
C25	C	1.029639	-0.289916	0.111179
C26	C	1.142749	-0.358367	0.123407
C27	C	1.172603	-0.471747	0.126630
C28	C	1.226008	-0.313451	0.132395
C29	C	1.339119	-0.381902	0.144623
C30	C	1.368968	-0.495270	0.147846
C31	C	1.285713	-0.540198	0.138849
C32	C	1.196154	-0.200071	0.129172
C33	C	1.392524	-0.223606	0.150388
C34	C	1.422374	-0.336974	0.153620
C35	C	1.376361	0.158537	0.148638
C36	C	1.490981	0.162125	0.161009
C37	C	1.121110	0.362675	0.121068
C38	C	1.089343	0.483337	0.117634
N39	N	1.158632	0.184663	0.406971
N40	N	1.210136	0.143511	-0.151157
C41	C	1.318458	0.056897	0.673524
C42	C	1.307093	0.065991	0.796961
C43	C	1.124535	0.211940	0.777281
C44	C	1.135900	0.202846	0.653845
C45	C	1.232865	0.125323	0.601971
C46	C	1.244233	0.116235	0.478533
C47	C	1.061672	0.262177	0.458855
C48	C	1.050307	0.271271	0.582292
H49	H	0.849873	0.180040	0.287660
F50	F	0.689478	0.185245	0.405297
F51	F	1.489352	-0.568119	0.160845
F52	F	1.421661	-0.025598	0.618317
F53	F	1.542752	-0.409837	0.166635
F54	F	1.398192	-0.006839	0.873109
F55	F	1.481137	-0.175797	0.159958
H56	H	1.045583	0.275050	0.819532
F57	F	0.947112	0.353770	0.637510
H58	H	0.908460	-0.484804	0.098081
F59	F	0.970577	0.335009	0.382691
F60	F	0.507897	0.145675	-0.060025
F61	F	0.467183	0.178266	0.381301
H62	H	1.323188	0.053115	0.436300
H63	H	1.310010	-0.632510	0.141493
H64	H	0.690264	0.145329	-0.121305
F65	F	0.901582	0.149922	-0.125498
H66	H	1.005327	-0.197606	0.108549
F67	F	0.826009	-0.262002	0.089162
F68	F	1.075777	-0.127233	0.116159
