data_functionalizedCrystal
_audit_creation_method	'MofGen! by Chris Wilmer'
_symmetry_space_group_name_H-M	'P1'
_symmetry_Int_Tables_number	1
_symmetry_cell_setting	triclinic
loop_
_symmetry_equiv_pos_as_xyz
  x,y,z
_cell_length_a	21.295420
_cell_length_b	21.295417
_cell_length_c	12.594509
_cell_angle_alpha	90.036245
_cell_angle_beta	90.021167
_cell_angle_gamma	90.028757
loop_
_atom_site_label
_atom_site_type_symbol
_atom_site_fract_x
_atom_site_fract_y
_atom_site_fract_z
Zn1	Zn	0.962333	-0.250620	0.601796
Zn2	Zn	1.295667	0.082714	0.935130
Zn3	Zn	1.629000	0.416047	1.268463
Zn4	Zn	0.962242	-0.355898	0.423793
Zn5	Zn	1.295576	-0.022565	0.757126
Zn6	Zn	1.628909	0.310768	1.090459
Zn7	Zn	0.857063	-0.250644	0.423826
Zn8	Zn	1.190396	0.082690	0.757159
Zn9	Zn	1.523730	0.416023	1.090492
Zn10	Zn	0.857026	-0.355852	0.601723
Zn11	Zn	1.190359	-0.022518	0.935057
Zn12	Zn	1.523693	0.310815	1.268390
O13	O	0.909666	-0.303253	0.512784
O14	O	1.243000	0.030080	0.846118
O15	O	1.576333	0.363413	1.179451
O16	O	1.050411	-0.264594	0.578200
O17	O	1.383744	0.068739	0.911534
O18	O	1.717077	0.402072	1.244867
O19	O	0.948267	-0.341966	0.274851
O20	O	1.281601	-0.008632	0.608185
O21	O	1.614934	0.324701	0.941518
O22	O	0.871081	-0.162551	0.447478
O23	O	1.204414	0.170782	0.780811
O24	O	1.537748	0.504116	1.114145
O25	O	1.050344	-0.341942	0.447422
O26	O	1.383677	-0.008609	0.780755
O27	O	1.717010	0.324724	1.114089
O28	O	0.948423	-0.162533	0.578232
O29	O	1.281756	0.170800	0.911566
O30	O	1.615089	0.504133	1.244899
O31	O	0.870993	-0.264636	0.274875
O32	O	1.204326	0.068698	0.608209
O33	O	1.537659	0.402031	0.941542
O34	O	0.768969	-0.264590	0.447407
O35	O	1.102302	0.068743	0.780741
O36	O	1.435636	0.402076	1.114074
O37	O	0.871018	-0.341863	0.750679
O38	O	1.204351	-0.008530	1.084012
O39	O	1.537685	0.324804	1.417346
O40	O	0.768942	-0.341886	0.578108
O41	O	1.102275	-0.008553	0.911441
O42	O	1.435608	0.324780	1.244775
O43	O	0.948387	-0.264549	0.750732
O44	O	1.281720	0.068784	1.084066
O45	O	1.615053	0.402117	1.417399
O46	O	0.948232	-0.443981	0.447351
O47	O	1.281565	-0.110648	0.780685
O48	O	1.614898	0.222685	1.114018
O49	O	0.870930	-0.443947	0.578076
O50	O	1.204263	-0.110614	0.911409
O51	O	1.537596	0.222719	1.244743
C52	C	0.746115	-0.303236	0.512754
C53	C	1.079448	0.030097	0.846087
C54	C	1.412781	0.363430	1.179421
C55	C	0.676147	-0.303244	0.512766
C56	C	1.009480	0.030089	0.846099
C57	C	1.342813	0.363423	1.179433
C58	C	0.176691	-0.343575	0.580774
C59	C	0.510024	-0.010242	0.914108
C60	C	0.843358	0.323091	1.247441
C61	C	0.242433	-0.343576	0.580763
C62	C	0.575767	-0.010242	0.914096
C63	C	0.909100	0.323091	1.247430
C64	C	0.275307	-0.303268	0.512818
C65	C	0.608640	0.030066	0.846151
C66	C	0.941974	0.363399	1.179485
C67	C	0.242433	-0.262968	0.444859
C68	C	0.575766	0.070366	0.778193
C69	C	0.909100	0.403699	1.111526
C70	C	0.176692	-0.262973	0.444865
C71	C	0.510025	0.070360	0.778198
C72	C	0.843358	0.403694	1.111532
N73	N	0.378548	-0.248151	0.504816
N74	N	0.711881	0.085182	0.838149
N75	N	1.045215	0.418515	1.171482
N76	N	0.441000	-0.248148	0.504817
N77	N	0.774333	0.085185	0.838150
N78	N	1.107666	0.418519	1.171483
C79	C	0.473382	-0.303250	0.512795
C80	C	0.806715	0.030083	0.846129
C81	C	1.140048	0.363417	1.179462
N82	N	0.440953	-0.358356	0.520794
N83	N	0.774287	-0.025023	0.854127
N84	N	1.107620	0.308310	1.187460
N85	N	0.378496	-0.358359	0.520798
N86	N	0.711830	-0.025026	0.854132
N87	N	1.045163	0.308308	1.187465
C88	C	0.346592	-0.303258	0.512804
C89	C	0.679926	0.030076	0.846137
C90	C	1.013259	0.363409	1.179470
C91	C	0.577534	-0.343551	0.580732
C92	C	0.910867	-0.010217	0.914065
C93	C	1.244200	0.323116	1.247398
C94	C	0.643277	-0.343552	0.580713
C95	C	0.976611	-0.010218	0.914046
C96	C	1.309944	0.323115	1.247380
C97	C	0.643276	-0.262938	0.444815
C98	C	0.976609	0.070395	0.778149
C99	C	1.309942	0.403728	1.111482
C100	C	0.577533	-0.262943	0.444828
C101	C	0.910866	0.070391	0.778162
C102	C	1.244200	0.403724	1.111495
C103	C	0.544666	-0.303248	0.512792
C104	C	0.877999	0.030085	0.846126
C105	C	1.211333	0.363419	1.179459
C106	C	0.909584	-0.466805	0.512725
C107	C	1.242917	-0.133472	0.846059
C108	C	1.576250	0.199862	1.179392
C109	C	0.909606	-0.536773	0.512736
C110	C	1.242939	-0.203440	0.846069
C111	C	1.576273	0.129894	1.179403
C112	C	0.949893	-0.569637	0.444737
C113	C	1.283226	-0.236303	0.778071
C114	C	1.616560	0.097030	1.111404
C115	C	0.949922	-0.635379	0.444761
C116	C	1.283256	-0.302046	0.778094
C117	C	1.616589	0.031288	1.111428
C118	C	0.909654	-0.668256	0.512773
C119	C	1.242987	-0.334922	0.846106
C120	C	1.576320	-0.001589	1.179439
C121	C	0.869364	-0.635384	0.580784
C122	C	1.202697	-0.302051	0.914118
C123	C	1.536031	0.031283	1.247451
C124	C	0.869340	-0.569643	0.580766
C125	C	1.202674	-0.236309	0.914099
C126	C	1.536007	0.097024	1.247433
N127	N	0.854586	-0.771519	0.520877
N128	N	1.187920	-0.438186	0.854210
N129	N	1.521253	-0.104853	1.187543
N130	N	0.854611	-0.833971	0.520888
N131	N	1.187944	-0.500637	0.854221
N132	N	1.521278	-0.167304	1.187554
C133	C	0.909724	-0.866330	0.512834
C134	C	1.243058	-0.532997	0.846167
C135	C	1.576391	-0.199664	1.179500
N136	N	0.964813	-0.833879	0.504747
N137	N	1.298147	-0.500546	0.838080
N138	N	1.631480	-0.167212	1.171414
N139	N	0.964788	-0.771422	0.504730
N140	N	1.298122	-0.438089	0.838064
N141	N	1.631455	-0.104755	1.171397
C142	C	0.909675	-0.739541	0.512801
C143	C	1.243009	-0.406208	0.846134
C144	C	1.576342	-0.072874	1.179467
C145	C	0.950047	-0.970479	0.444857
C146	C	1.283380	-0.637146	0.778191
C147	C	1.616713	-0.303813	1.111524
C148	C	0.950077	-1.036223	0.444889
C149	C	1.283410	-0.702890	0.778222
C150	C	1.616744	-0.369556	1.111555
C151	C	0.869513	-1.036227	0.580906
C152	C	1.202847	-0.702893	0.914240
C153	C	1.536180	-0.369560	1.247573
C154	C	0.869488	-0.970484	0.580881
C155	C	1.202822	-0.637151	0.914214
C156	C	1.536155	-0.303818	1.247547
C157	C	0.909754	-0.937614	0.512850
C158	C	1.243087	-0.604281	0.846184
C159	C	1.576421	-0.270948	1.179517
C160	C	1.073856	-0.303271	0.512816
C161	C	1.407190	0.030062	0.846149
C162	C	1.740523	0.363396	1.179482
C163	C	1.143825	-0.303278	0.512829
C164	C	1.477158	0.030055	0.846162
C165	C	1.810491	0.363388	1.179496
C166	C	0.909708	-0.303198	0.790405
C167	C	1.243042	0.030135	1.123739
C168	C	1.576375	0.363468	1.457072
C169	C	0.909726	-0.303175	0.908711
C170	C	1.243060	0.030159	1.242044
C171	C	1.576393	0.363492	1.575378
C172	C	0.909766	-0.139063	0.512867
C173	C	1.243100	0.194270	0.846200
C174	C	1.576433	0.527604	1.179534
C175	C	0.909809	-0.069095	0.512902
C176	C	1.243142	0.264238	0.846235
C177	C	1.576476	0.597572	1.179569
C178	C	0.909660	-0.303263	0.236243
C179	C	1.242994	0.030071	0.569577
C180	C	1.576327	0.363404	0.902910
C181	C	0.909765	-0.303109	0.117939
C182	C	1.243098	0.030224	0.451272
C183	C	1.576431	0.363558	0.784605
C184	C	0.867659	-0.345202	0.977935
C185	C	1.200992	-0.011868	1.311268
C186	C	1.534325	0.321465	1.644602
C187	C	0.925094	-0.360584	1.048722
C188	C	1.258427	-0.027251	1.382055
C189	C	1.591760	0.306083	1.715388
C190	C	0.852336	-0.287754	1.048724
C191	C	1.185669	0.045579	1.382057
C192	C	1.519003	0.378912	1.715390
C193	C	0.967191	-0.318587	0.977939
C194	C	1.300525	0.014746	1.311273
C195	C	1.633858	0.348079	1.644606
C196	C	0.894395	-0.245731	0.977935
C197	C	1.227728	0.087602	1.311268
C198	C	1.561062	0.420936	1.644602
C199	C	0.951870	-0.261091	1.048690
C200	C	1.285203	0.072242	1.382023
C201	C	1.618537	0.405575	1.715356
H202	H	0.149932	-0.230157	0.389535
H203	H	0.483266	0.103177	0.722869
H204	H	0.816599	0.436510	1.056202
H205	H	0.836578	-0.662156	0.636162
H206	H	1.169912	-0.328823	0.969495
H207	H	1.503245	0.004510	1.302828
Cl208	Cl	1.042170	-0.338774	0.930143
Cl209	Cl	1.375503	-0.005441	1.263476
Cl210	Cl	1.708837	0.327892	1.596809
Cl211	Cl	1.000572	-0.676702	0.359269
Cl212	Cl	1.333905	-0.343369	0.692602
Cl213	Cl	1.667238	-0.010035	1.025935
Cl214	Cl	0.777380	-0.267659	1.096730
Cl215	Cl	1.110713	0.065675	1.430063
Cl216	Cl	1.444046	0.399008	1.763397
H217	H	0.269198	-0.376390	0.636096
H218	H	0.602532	-0.043057	0.969429
H219	H	0.935865	0.290276	1.302762
H220	H	0.938082	-0.409135	1.079815
H221	H	1.271415	-0.075801	1.413148
H222	H	1.604748	0.257532	1.746482
Cl223	Cl	0.812776	-0.400156	0.929965
Cl224	Cl	1.146110	-0.066823	1.263298
Cl225	Cl	1.479443	0.266511	1.596632
Cl226	Cl	0.135376	-0.394249	0.666208
Cl227	Cl	0.468709	-0.060915	0.999541
Cl228	Cl	0.802042	0.272418	1.332875
H229	H	0.881390	-0.197194	0.946818
H230	H	1.214724	0.136139	1.280152
H231	H	1.548057	0.469473	1.613485
H232	H	0.670036	-0.376371	0.636039
H233	H	1.003369	-0.043038	0.969373
H234	H	1.336703	0.290296	1.302706
H235	H	0.269203	-0.230150	0.389536
H236	H	0.602536	0.103184	0.722870
H237	H	0.935870	0.436517	1.056203
Cl238	Cl	0.536212	-0.394222	0.666165
Cl239	Cl	0.869545	-0.060889	0.999498
Cl240	Cl	1.202879	0.272445	1.332831
H241	H	0.670041	-0.230121	0.389489
H242	H	1.003374	0.103212	0.722823
H243	H	1.336707	0.436546	1.056156
H244	H	0.550773	-0.230126	0.389504
H245	H	0.884106	0.103207	0.722837
H246	H	1.217440	0.436540	1.056170
Cl247	Cl	1.006881	-0.206176	1.096361
Cl248	Cl	1.340215	0.127157	1.429694
Cl249	Cl	1.673548	0.460490	1.763028
H250	H	0.982681	-0.542876	0.389346
H251	H	1.316015	-0.209543	0.722679
H252	H	1.649348	0.123791	1.056012
Cl253	Cl	0.818689	-0.528326	0.666256
Cl254	Cl	1.152022	-0.194993	0.999590
Cl255	Cl	1.485356	0.138340	1.332923
H256	H	0.982836	-0.943716	0.389466
H257	H	1.316169	-0.610382	0.722799
H258	H	1.649502	-0.277049	1.056133
Cl259	Cl	1.000733	-1.077538	0.359404
Cl260	Cl	1.334066	-0.744205	0.692737
Cl261	Cl	1.667400	-0.410871	1.026071
Cl262	Cl	0.818893	-1.077551	0.666415
Cl263	Cl	1.152227	-0.744218	0.999748
Cl264	Cl	1.485560	-0.410884	1.333082
H265	H	0.836680	-0.943725	0.636247
H266	H	1.170014	-0.610392	0.969580
H267	H	1.503347	-0.277058	1.302914
