data_functionalizedCrystal
_audit_creation_method	'MofGen! by Chris Wilmer'
_symmetry_space_group_name_H-M	'P1'
_symmetry_Int_Tables_number	1
_symmetry_cell_setting	triclinic
loop_
_symmetry_equiv_pos_as_xyz
  x,y,z
_cell_length_a	16.625546
_cell_length_b	10.685980
_cell_length_c	10.686551
_cell_angle_alpha	81.591741
_cell_angle_beta	85.590142
_cell_angle_gamma	94.388851
loop_
_atom_site_label
_atom_site_type_symbol
_atom_site_fract_x
_atom_site_fract_y
_atom_site_fract_z
Zn1	Zn	-0.180728	1.995749	-0.866678
Zn2	Zn	-0.326801	1.979295	-0.654394
Zn3	Zn	-0.203170	1.767171	-0.638140
Zn4	Zn	-0.326722	1.783418	-0.850304
O5	O	-0.259355	1.881408	-0.752379
O6	O	-0.190746	2.171202	-0.852173
O7	O	-0.319826	1.937470	-0.474604
O8	O	-0.087354	1.797579	-0.668506
O9	O	-0.298065	2.159113	-0.696209
O10	O	-0.070866	1.965514	-0.836412
O11	O	-0.228995	1.781624	-0.462662
O12	O	-0.228919	1.591691	-0.652629
O13	O	-0.297931	1.825270	-1.030110
O14	O	-0.319692	1.603628	-0.808505
O15	O	-0.190670	1.981269	-1.042140
O16	O	-0.439629	1.953225	-0.680332
O17	O	-0.439572	1.809315	-0.824267
C18	C	-0.276733	1.551600	-0.727027
C19	C	-0.284185	1.410509	-0.716211
C20	C	-0.468855	1.881284	-0.752317
C21	C	-0.558472	1.881350	-0.752341
C22	C	-0.886629	1.881582	-0.752491
C23	C	-0.795326	1.881514	-0.752452
C24	C	-0.722553	1.881465	-0.752415
C25	C	-0.631244	1.881399	-0.752378
C26	C	-0.049034	1.881570	-0.752472
C27	C	0.040593	1.881639	-0.752512
C28	C	-0.241788	1.906917	-1.083471
C29	C	-0.234302	1.917788	-1.224563
C30	C	-0.241911	2.212504	-0.777831
C31	C	-0.234477	2.353597	-0.788677
C32	C	-0.276792	1.856072	-0.422581
C33	C	-0.284038	1.845447	-0.281509
H34	H	-0.186214	1.412811	-0.858990
H35	H	-0.185995	1.988047	-1.283755
H36	H	-0.332446	1.351288	-0.645886
C37	C	-0.401253	1.816371	-1.130865
C38	C	-0.349253	1.750611	-1.201613
H39	H	-0.441511	1.757820	-1.081528
H40	H	-0.426471	1.875577	-1.186823
H41	H	-0.371043	1.860297	-1.076247
H42	H	-0.379462	1.706693	-1.256238
H43	H	-0.324034	1.691383	-1.145648
