data_functionalizedCrystal
_audit_creation_method	'MofGen! by Chris Wilmer'
_symmetry_space_group_name_H-M	'P1'
_symmetry_Int_Tables_number	1
_symmetry_cell_setting	triclinic
loop_
_symmetry_equiv_pos_as_xyz
  x,y,z
_cell_length_a	6.817900
_cell_length_b	16.305597
_cell_length_c	10.943624
_cell_angle_alpha	93.792899
_cell_angle_beta	108.838799
_cell_angle_gamma	103.455834
loop_
_atom_site_label
_atom_site_type_symbol
_atom_site_fract_x
_atom_site_fract_y
_atom_site_fract_z
V1	V	-4.088114	-0.116694	-0.402994
O2	O	-4.074525	0.005630	-0.394867
O3	O	-4.039148	-0.231407	-0.400676
O4	O	-4.066500	-0.114889	-0.578553
O5	O	-4.046984	-0.111694	-0.215758
V6	V	-4.568344	-0.102064	-0.380546
O7	O	-4.356595	-0.148787	-0.452236
O8	O	-4.750061	-0.069971	-0.331304
O9	O	-4.394104	0.012649	-0.382864
O10	O	-4.699330	-0.224388	-0.388673
O11	O	-4.726871	-0.107064	-0.567782
O12	O	-4.366752	-0.103869	-0.204986
C13	C	-3.883145	-0.259371	-0.394431
C14	C	-3.924575	-0.353150	-0.393706
C15	C	-4.075307	-0.693909	-0.391134
C16	C	-3.838504	-0.653078	-0.384083
C17	C	-3.795003	-0.555480	-0.384326
C18	C	-4.000526	-0.524854	-0.392411
C19	C	-4.065013	-0.550229	-0.272111
C20	C	-4.106682	-0.647761	-0.271221
C21	C	-4.232848	-0.673080	-0.518137
C22	C	-4.186359	-0.575567	-0.520365
C23	C	-3.958272	-0.429312	-0.393128
C24	C	-4.117563	-0.789450	-0.390407
C25	C	-3.918033	-0.110741	-0.621330
C26	C	-3.981641	-0.110024	-0.764854
C27	C	-3.827604	-0.105197	-0.841983
C28	C	-4.000152	-0.176838	-0.948245
C29	C	-3.922456	-0.037114	-0.914328
C30	C	-4.153385	-0.181732	-0.869240
C31	C	-4.075623	-0.041944	-0.835299
C32	C	-4.248303	-0.113606	-0.941531
C33	C	-4.213449	0.040609	-0.389104
C34	C	-4.151258	0.134387	-0.389838
C35	C	-4.178559	-0.108020	-0.162202
C36	C	-4.094190	-0.108732	-0.018677
H37	H	-3.805809	-0.683553	-0.469700
H38	H	-4.141176	-0.559872	-0.609380
H39	H	-4.219179	-0.705587	-0.609369
C40	C	-4.265128	-0.523698	-0.273574
C41	C	-4.216673	-0.466798	-0.159747
C42	C	-4.400979	-0.442352	-0.161044
H43	H	-4.312622	-0.496675	-0.347773
H44	H	-4.375524	-0.572742	-0.277445
H45	H	-4.106315	-0.417762	-0.155889
H46	H	-4.169205	-0.493802	-0.085530
H47	H	-4.511374	-0.491396	-0.164914
H48	H	-4.448459	-0.415333	-0.235248
H49	H	-4.368133	-0.403749	-0.083809
C50	C	-4.333336	-0.683733	-0.271188
C51	C	-4.372605	-0.771854	-0.270423
C52	C	-4.581377	-0.805018	-0.270409
H53	H	-4.347436	-0.657241	-0.195668
H54	H	-4.434229	-0.672957	-0.347240
H55	H	-4.271741	-0.782624	-0.194379
H56	H	-4.358551	-0.798369	-0.345938
H57	H	-4.682270	-0.794241	-0.346461
H58	H	-4.595458	-0.778519	-0.194887
H59	H	-4.608056	-0.864812	-0.269902
C60	C	-4.464470	-0.709140	-0.526982
C61	C	-4.575881	-0.767789	-0.641964
C62	C	-4.789251	-0.801019	-0.650158
H63	H	-4.466804	-0.736988	-0.453720
H64	H	-4.531317	-0.664045	-0.527828
H65	H	-4.509053	-0.812877	-0.641107
H66	H	-4.573609	-0.739961	-0.715247
H67	H	-4.856098	-0.755924	-0.651004
H68	H	-4.791563	-0.828863	-0.576890
H69	H	-4.864875	-0.840810	-0.728178
C70	C	-3.589842	-0.100718	-0.783869
C71	C	-3.565745	-0.172933	-0.724339
C72	C	-3.346759	-0.168836	-0.670775
H73	H	-3.529849	-0.098848	-0.851164
H74	H	-3.517636	-0.050824	-0.720598
H75	H	-3.637923	-0.222814	-0.787605
H76	H	-3.625691	-0.174818	-0.657028
H77	H	-3.274553	-0.118942	-0.607503
H78	H	-3.286785	-0.166964	-0.738077
H79	H	-3.330380	-0.217828	-0.630368
C80	C	-4.282386	-0.263387	-0.842101
C81	C	-4.141834	-0.308672	-0.773954
C82	C	-4.260581	-0.383901	-0.748945
H83	H	-4.362859	-0.249643	-0.791030
H84	H	-4.377789	-0.297452	-0.922446
H85	H	-4.046468	-0.274614	-0.693622
H86	H	-4.061358	-0.322437	-0.825002
H87	H	-4.355984	-0.417967	-0.829289
H88	H	-4.341049	-0.370150	-0.697877
H89	H	-4.165236	-0.414641	-0.702715
C90	C	-3.954873	-0.662935	-0.143771
C91	C	-3.826584	-0.584372	-0.068288
C92	C	-3.686685	-0.598311	0.049120
H93	H	-4.036136	-0.693288	-0.097041
H94	H	-3.865699	-0.695321	-0.162064
H95	H	-3.915748	-0.551999	-0.049992
H96	H	-3.745276	-0.554006	-0.114978
H97	H	-3.597511	-0.630697	0.030826
H98	H	-3.767966	-0.628666	0.095838
H99	H	-3.599612	-0.545009	0.100344
C100	C	-3.724493	-0.532750	-0.498959
C101	C	-3.685334	-0.444579	-0.499155
C102	C	-3.620465	-0.423619	-0.604772
H103	H	-3.596705	-0.549214	-0.491159
H104	H	-3.834874	-0.561870	-0.578280
H105	H	-3.574961	-0.415470	-0.419854
H106	H	-3.813093	-0.428094	-0.506974
H107	H	-3.730846	-0.452739	-0.684093
H108	H	-3.492681	-0.440088	-0.596962
H109	H	-3.593906	-0.363795	-0.604926
C110	C	-3.958308	-0.252766	-1.013963
C111	C	-3.813879	-0.223616	-1.078077
C112	C	-3.775286	-0.293533	-1.138638
H113	H	-3.898572	-0.285227	-0.949920
H114	H	-4.089848	-0.287501	-1.075620
H115	H	-3.682364	-0.188896	-1.016427
H116	H	-3.873574	-0.191164	-1.142140
H117	H	-3.906827	-0.328267	-1.200294
H118	H	-3.715557	-0.325989	-1.074586
H119	H	-3.677304	-0.273765	-1.182156
H120	H	-4.426780	-0.117178	-0.984789
H121	H	-4.106782	0.015087	-0.786099
H122	H	-3.825445	0.023991	-0.934859
H123	H	-3.719393	-0.666583	-0.292486
H124	H	-3.932462	-0.514622	-0.177391
H125	H	-3.654094	-0.521052	-0.292464
H126	H	-4.340760	-0.555733	-0.533736
