data_functionalizedCrystal
_audit_creation_method	'MofGen! by Chris Wilmer'
_symmetry_space_group_name_H-M	'P1'
_symmetry_Int_Tables_number	1
_symmetry_cell_setting	triclinic
loop_
_symmetry_equiv_pos_as_xyz
  x,y,z
_cell_length_a	27.731994
_cell_length_b	27.731996
_cell_length_c	14.048226
_cell_angle_alpha	89.987595
_cell_angle_beta	89.999619
_cell_angle_gamma	82.620961
loop_
_atom_site_label
_atom_site_type_symbol
_atom_site_fract_x
_atom_site_fract_y
_atom_site_fract_z
O1	O	0.640935	0.057395	-0.079037
O2	O	0.500136	0.066168	-0.079070
O3	O	0.574921	-0.008618	-0.079032
O4	O	0.566149	0.132181	-0.079075
O5	O	0.574913	-0.008622	0.079289
O6	O	0.500127	0.066164	0.079251
O7	O	0.640926	0.057390	0.079284
Zn8	Zn	0.570525	0.061776	0.104405
Zn9	Zn	0.570537	0.061782	-0.104191
O10	O	0.566141	0.132176	0.079246
C11	C	0.482124	0.065986	0.000086
C12	C	0.428468	0.065443	0.000074
C13	C	0.095745	0.062025	0.086413
C14	C	-0.105912	0.059963	0.086425
O15	O	-0.131989	0.059674	0.159820
N16	N	-0.131122	0.059710	0.000124
C17	C	-0.105914	0.059968	-0.086186
O18	O	-0.131983	0.059700	-0.159590
C19	C	0.095743	0.062026	-0.086196
C20	C	0.120950	0.062285	0.000110
C21	C	0.120952	0.062283	0.172713
C22	C	0.171363	0.062801	0.172709
C23	C	0.196567	0.063061	0.086406
C24	C	0.171361	0.062803	0.000106
C25	C	0.120951	0.062282	-0.172505
C26	C	0.171368	0.062795	-0.172500
C27	C	0.196575	0.063053	-0.086194
C28	C	0.246976	0.063581	-0.086201
N29	N	0.272186	0.063835	0.000100
C30	C	0.246982	0.063575	0.086403
C31	C	-0.211787	0.058889	-0.086174
C32	C	-0.262202	0.058375	-0.086172
C33	C	-0.262196	0.058369	0.086439
C34	C	-0.211782	0.058886	0.086436
C35	C	-0.186578	0.059142	0.000126
C36	C	0.352848	0.064663	0.086389
C37	C	0.403264	0.065183	0.086378
C38	C	0.403254	0.065186	-0.086233
C39	C	0.352843	0.064669	-0.086222
C40	C	0.327642	0.064406	0.000097
O41	O	0.273084	0.063865	-0.159558
O42	O	0.273061	0.063832	0.159796
C43	C	0.045334	0.061507	0.086417
C44	C	0.020128	0.061249	0.000117
C45	C	0.045332	0.061509	-0.086186
C46	C	-0.030287	0.060735	0.000120
C47	C	-0.055491	0.060475	0.086423
C48	C	-0.030281	0.060729	0.172724
C49	C	0.020130	0.061247	0.172720
C50	C	0.020122	0.061255	-0.172486
C51	C	-0.030289	0.060738	-0.172476
C52	C	-0.055494	0.060478	-0.086173
C53	C	0.574737	-0.026628	0.000132
C54	C	0.574194	-0.080284	0.000141
C55	C	0.570784	-0.412997	-0.086207
C56	C	0.568723	-0.614655	-0.086224
O57	O	0.568440	-0.640723	-0.159620
N58	N	0.568462	-0.639874	0.000076
C59	C	0.568713	-0.614676	0.086386
O60	O	0.568439	-0.640753	0.159790
C61	C	0.570771	-0.413018	0.086403
C62	C	0.571037	-0.387802	0.000097
C63	C	0.571049	-0.387781	-0.172506
C64	C	0.571567	-0.337370	-0.172500
C65	C	0.571820	-0.312175	-0.086197
C66	C	0.571555	-0.337391	0.000102
C67	C	0.571019	-0.387820	0.172712
C68	C	0.571532	-0.337403	0.172709
C69	C	0.571798	-0.312186	0.086403
C70	C	0.572325	-0.261785	0.086411
N71	N	0.572586	-0.236566	0.000111
C72	C	0.572333	-0.261761	-0.086193
C73	C	0.567634	-0.720549	0.086372
C74	C	0.567121	-0.770963	0.086368
C75	C	0.567129	-0.770939	-0.086243
C76	C	0.567646	-0.720524	-0.086238
C77	C	0.567895	-0.695329	0.000072
C78	C	0.573421	-0.155894	-0.086175
C79	C	0.573941	-0.105479	-0.086163
C80	C	0.573930	-0.105507	0.086448
C81	C	0.573413	-0.155918	0.086436
C82	C	0.573157	-0.181110	0.000116
O83	O	0.572603	-0.235685	0.159769
O84	O	0.572597	-0.235673	-0.159585
C85	C	0.570266	-0.463408	-0.086212
C86	C	0.570001	-0.488624	0.000087
C87	C	0.570254	-0.463430	0.086390
C88	C	0.569487	-0.539039	0.000083
C89	C	0.569235	-0.564233	-0.086221
C90	C	0.569496	-0.539014	-0.172521
C91	C	0.570013	-0.488603	-0.172516
C92	C	0.569993	-0.488649	0.172691
C93	C	0.569476	-0.539060	0.172678
C94	C	0.569223	-0.564255	0.086374
C95	C	0.658938	0.057573	0.000126
C96	C	0.712594	0.058115	0.000131
C97	C	0.566325	0.150186	0.000080
C98	C	0.566868	0.203842	0.000064
N99	N	0.570521	0.061772	0.246765
N100	N	0.570545	0.061782	-0.246551
C101	C	0.603646	0.028670	0.296600
C102	C	0.603649	0.028670	0.396258
C103	C	0.570529	0.061774	0.446079
C104	C	0.537400	0.094878	0.396237
C105	C	0.537395	0.094875	0.296581
C106	C	0.537414	0.094881	0.603951
C107	C	0.537420	0.094884	0.703614
C108	C	0.603668	0.028676	0.703628
C109	C	0.603663	0.028673	0.603972
C110	C	0.570535	0.061778	0.554137
H111	H	-0.282726	0.058159	0.156710
H112	H	0.423784	0.065395	0.156662
H113	H	0.332335	0.064453	0.156678
H114	H	0.332318	0.064466	-0.156500
H115	H	0.570230	-0.468076	-0.242795
C116	C	0.567913	-0.692841	0.181322
C117	C	0.526274	-0.652375	0.205074
C118	C	0.526556	-0.624671	0.300026
C119	C	0.568477	-0.637433	0.371225
C120	C	0.610118	-0.677902	0.347475
C121	C	0.609837	-0.705606	0.252524
H122	H	0.495239	-0.642925	0.152367
H123	H	0.495730	-0.594713	0.317607
H124	H	0.568685	-0.616925	0.441514
H125	H	0.641153	-0.687351	0.400183
H126	H	0.640663	-0.735563	0.234942
C127	C	0.500958	0.131289	0.241759
C128	C	0.464543	0.167720	0.296557
C129	C	0.428102	0.204133	0.241737
C130	C	0.428076	0.204115	0.132119
C131	C	0.464493	0.167683	0.077316
C132	C	0.500933	0.131270	0.132136
H133	H	0.464560	0.167734	0.377708
H134	H	0.401144	0.231102	0.282307
H135	H	0.401101	0.231070	0.091538
H136	H	0.464475	0.167668	-0.003835
H137	H	0.527891	0.104300	0.091566
H138	H	0.571782	-0.316843	-0.242780
H139	H	0.423784	0.065400	-0.156499
H140	H	0.570842	-0.408289	-0.242789
C141	C	0.574231	-0.077742	-0.181105
C142	C	0.616154	-0.090484	-0.252297
C143	C	0.616442	-0.062749	-0.347236
C144	C	0.574807	-0.022272	-0.370982
C145	C	0.532881	-0.009527	-0.299788
C146	C	0.532593	-0.037262	-0.204849
H147	H	0.646977	-0.120449	-0.234720
H148	H	0.647479	-0.072183	-0.399938
H149	H	0.575021	-0.001741	-0.441262
H150	H	0.502058	0.020438	-0.317365
H151	H	0.501556	-0.027828	-0.152147
C152	C	0.640108	-0.007741	0.758445
C153	C	0.676543	-0.044153	0.703650
C154	C	0.712983	-0.080565	0.758473
C155	C	0.712987	-0.080566	0.868091
C156	C	0.676550	-0.044153	0.922892
C157	C	0.640111	-0.007740	0.868069
H158	H	0.676541	-0.044153	0.622499
H159	H	0.739955	-0.107521	0.717906
H160	H	0.739962	-0.107521	0.908674
H161	H	0.676552	-0.044152	1.004042
H162	H	0.613138	0.019216	0.908636
H163	H	0.573201	-0.176451	0.156713
H164	H	-0.282722	0.058172	-0.156451
C165	C	0.093235	0.061993	-0.267448
C166	C	0.064396	0.019643	-0.291173
C167	C	0.036682	0.019353	-0.386123
C168	C	0.037807	0.061411	-0.457348
C169	C	0.066646	0.103764	-0.433625
C170	C	0.094360	0.104054	-0.338675
H171	H	0.063563	-0.011494	-0.238447
H172	H	0.015334	-0.011999	-0.403685
H173	H	0.017292	0.061196	-0.527636
H174	H	0.067480	0.134901	-0.486352
H175	H	0.115709	0.135406	-0.321113
C176	C	0.574206	-0.077785	0.181377
C177	C	0.532564	-0.037314	0.205084
C178	C	0.532834	-0.009589	0.300013
C179	C	0.574747	-0.022335	0.371236
C180	C	0.616393	-0.062808	0.347531
C181	C	0.616122	-0.090533	0.252602
H182	H	0.501534	-0.027877	0.152359
H183	H	0.502006	0.020372	0.317561
H184	H	0.574948	-0.001811	0.441508
H185	H	0.647422	-0.072245	0.400256
H186	H	0.646950	-0.120494	0.235054
H187	H	0.191882	0.063009	0.242989
C188	C	-0.058013	0.060454	-0.267422
C189	C	-0.045258	0.018532	-0.338598
C190	C	-0.072979	0.018243	-0.433541
C191	C	-0.113453	0.059877	-0.457308
C192	C	-0.126210	0.101802	-0.386131
C193	C	-0.098489	0.102091	-0.291187
H194	H	-0.015295	-0.012291	-0.321006
H195	H	-0.063535	-0.012793	-0.486232
H196	H	-0.133974	0.059663	-0.527591
H197	H	-0.156173	0.132625	-0.403723
H198	H	-0.107933	0.133127	-0.238497
H199	H	0.566912	-0.791491	0.156647
H200	H	0.569292	-0.559537	-0.242793
C201	C	0.500984	0.131296	0.758414
C202	C	0.445946	0.130866	0.744728
C203	C	0.409509	0.167279	0.799526
C204	C	0.428110	0.204122	0.868010
C205	C	0.483150	0.204553	0.881698
C206	C	0.519587	0.168141	0.826900
H207	H	0.432175	0.103592	0.694030
H208	H	0.368764	0.166960	0.789393
H209	H	0.401137	0.231077	0.908575
H210	H	0.496922	0.231828	0.932397
H211	H	0.560332	0.168460	0.837034
H212	H	0.570803	-0.408343	0.242992
H213	H	0.569263	-0.559587	0.242964
H214	H	0.570199	-0.468141	0.242971
C215	C	0.571807	-0.309689	0.267653
C216	C	0.530169	-0.269219	0.291384
C217	C	0.530446	-0.241507	0.386327
C218	C	0.572361	-0.254265	0.457539
C219	C	0.614003	-0.294737	0.433810
C220	C	0.613726	-0.322449	0.338867
H221	H	0.499138	-0.259773	0.238666
H222	H	0.499620	-0.211546	0.403892
H223	H	0.572566	-0.233750	0.527821
H224	H	0.645034	-0.304183	0.486528
H225	H	0.644552	-0.352409	0.321302
C226	C	0.199092	0.063079	-0.267444
C227	C	0.197973	0.021017	-0.338627
C228	C	0.225696	0.021302	-0.433569
C229	C	0.254538	0.063649	-0.457328
C230	C	0.255657	0.105715	-0.386143
C231	C	0.227935	0.105429	-0.291201
H232	H	0.176622	-0.010334	-0.321041
H233	H	0.224867	-0.009838	-0.486264
H234	H	0.275060	0.063861	-0.527609
H235	H	0.277008	0.137065	-0.403729
H236	H	0.228764	0.136569	-0.238505
H237	H	0.510436	0.121836	0.563378
H238	H	0.100436	0.062070	0.242995
H239	H	-0.191262	0.059097	0.156714
H240	H	-0.191271	0.059097	-0.156462
H241	H	0.630618	0.001715	0.256043
H242	H	0.630622	0.001716	0.436833
H243	H	0.040649	0.061458	0.243000
H244	H	0.630634	0.001720	0.563408
H245	H	0.040638	0.061466	-0.242766
H246	H	0.573211	-0.176399	-0.156465
C247	C	0.567934	-0.692788	-0.181175
C248	C	0.609859	-0.705527	-0.252364
C249	C	0.610146	-0.677794	-0.347305
C250	C	0.568508	-0.637321	-0.371057
C251	C	0.526580	-0.624580	-0.299866
C252	C	0.526293	-0.652313	-0.204925
H253	H	0.640685	-0.735489	-0.234783
H254	H	0.641184	-0.687226	-0.400004
H255	H	0.568720	-0.616791	-0.441338
H256	H	0.495754	-0.594618	-0.317447
H257	H	0.495255	-0.642881	-0.152225
H258	H	-0.050812	0.060520	0.242995
H259	H	0.510431	0.121830	0.436807
H260	H	0.566924	-0.791461	-0.156515
