data_functionalizedCrystal
_audit_creation_method	'MofGen! by Chris Wilmer'
_symmetry_space_group_name_H-M	'P1'
_symmetry_Int_Tables_number	1
_symmetry_cell_setting	triclinic
loop_
_symmetry_equiv_pos_as_xyz
  x,y,z
_cell_length_a	18.050589
_cell_length_b	12.759395
_cell_length_c	18.050583
_cell_angle_alpha	89.986213
_cell_angle_beta	90.031910
_cell_angle_gamma	89.974303
loop_
_atom_site_label
_atom_site_type_symbol
_atom_site_fract_x
_atom_site_fract_y
_atom_site_fract_z
Zn1	Zn	-0.295656	-1.606099	0.419891
Zn2	Zn	-0.419869	-1.605969	0.295710
Zn3	Zn	-0.295692	-1.430418	0.295720
Zn4	Zn	-0.419803	-1.430348	0.419864
O5	O	-0.357755	-1.518208	0.357796
O6	O	-0.312146	-1.753102	0.403425
O7	O	-0.403439	-1.582657	0.191787
O8	O	-0.191763	-1.453806	0.312207
O9	O	-0.403405	-1.753007	0.312191
O10	O	-0.191736	-1.582878	0.403435
O11	O	-0.312207	-1.453680	0.191794
O12	O	-0.312143	-1.283387	0.312180
O13	O	-0.403293	-1.453686	0.523792
O14	O	-0.403327	-1.283336	0.403388
O15	O	-0.312082	-1.582810	0.523812
O16	O	-0.523785	-1.582589	0.312164
O17	O	-0.523737	-1.453561	0.403379
C18	C	-0.357733	-1.245241	0.357783
C19	C	-0.357741	-1.128464	0.357795
C20	C	-0.262867	-1.128544	0.452951
C21	C	-0.215437	-1.073723	0.500534
C22	C	-0.215447	-0.964001	0.500542
C23	C	-0.262890	-0.909098	0.452960
C24	C	-0.310320	-0.963919	0.405376
C25	C	-0.310306	-1.073643	0.405375
C26	C	-0.405189	-0.963839	0.310217
C27	C	-0.405184	-1.073561	0.310212
C28	C	-0.452632	-0.908936	0.262635
C29	C	-0.500067	-0.963757	0.215054
C30	C	-0.500055	-1.073485	0.215049
C31	C	-0.452614	-1.128382	0.262629
C32	C	-0.550707	-1.518081	0.357784
C33	C	-0.633253	-1.518123	0.357803
C34	C	-0.832704	-1.448027	0.407389
C35	C	-0.882154	-1.422422	0.339622
C36	C	-0.784383	-1.518226	0.357813
C37	C	-0.882016	-1.543883	0.425587
C38	C	-0.930369	-1.518324	0.357828
C39	C	-0.832746	-1.492571	0.290011
C40	C	-0.832603	-1.614077	0.376022
C41	C	-0.882030	-1.588508	0.308208
C42	C	-0.700285	-1.518168	0.357805
C43	C	-1.014465	-1.518383	0.357829
C44	C	-0.164050	-1.518364	0.357825
C45	C	-0.081504	-1.518431	0.357837
C46	C	-0.357676	-1.518255	0.551502
C47	C	-0.357642	-1.518274	0.634048
C48	C	-0.357771	-0.792242	0.357806
C49	C	-0.357759	-0.909018	0.357801
C50	C	-0.357781	-1.518222	0.164844
C51	C	-0.357605	-1.518406	0.082299
C52	C	-0.308018	-1.588562	0.833509
C53	C	-0.289839	-1.492740	0.882905
C54	C	-0.357629	-1.518317	0.785178
C55	C	-0.375762	-1.614177	0.882864
C56	C	-0.357616	-1.518366	0.931163
C57	C	-0.339415	-1.422444	0.833487
C58	C	-0.425369	-1.543946	0.833441
C59	C	-0.407216	-1.448057	0.882815
C60	C	-0.357635	-1.518290	0.701080
C61	C	-0.357610	-1.518382	1.015260
H62	H	-0.176808	-1.118437	0.539274
H63	H	-0.266037	-1.647869	0.811857
H64	H	-0.903659	-1.565544	0.482897
H65	H	-0.176821	-0.919366	0.539284
H66	H	-0.810824	-1.695070	0.391441
H67	H	-0.538688	-0.919046	0.176313
H68	H	-0.903935	-1.341410	0.324235
H69	H	-0.811046	-1.388574	0.449254
H70	H	-0.449165	-1.388606	0.904328
H71	H	-0.232547	-1.471078	0.904633
H72	H	-0.903552	-1.647916	0.266242
H73	H	-0.324007	-1.341373	0.811888
H74	H	-0.452596	-1.217723	0.262626
H75	H	-0.262850	-1.217885	0.452947
H76	H	-0.811192	-1.470816	0.232685
H77	H	-0.538676	-1.118114	0.176298
H78	H	-0.482646	-1.565637	0.811699
H79	H	-0.262888	-0.819757	0.452964
H80	H	-0.452635	-0.819595	0.262642
H81	H	-0.391102	-1.695224	0.904556
