data_functionalizedCrystal
_audit_creation_method	'MofGen! by Chris Wilmer'
_symmetry_space_group_name_H-M	'P1'
_symmetry_Int_Tables_number	1
_symmetry_cell_setting	triclinic
loop_
_symmetry_equiv_pos_as_xyz
  x,y,z
_cell_length_a	15.538191
_cell_length_b	19.288864
_cell_length_c	17.766277
_cell_angle_alpha	89.976791
_cell_angle_beta	90.004727
_cell_angle_gamma	114.795828
loop_
_atom_site_label
_atom_site_type_symbol
_atom_site_fract_x
_atom_site_fract_y
_atom_site_fract_z
O1	O	0.117639	-0.891966	0.062821
O2	O	0.617639	-0.391966	0.562821
O3	O	0.133508	-0.685741	0.062767
O4	O	0.633508	-0.185741	0.562767
O5	O	-0.011726	-0.828996	0.062808
O6	O	0.488274	-0.328996	0.562808
O7	O	0.262873	-0.748710	0.062780
O8	O	0.762873	-0.248710	0.562780
O9	O	-0.011734	-0.828980	-0.062381
O10	O	0.488266	-0.328980	0.437619
O11	O	0.133501	-0.685724	-0.062421
O12	O	0.633501	-0.185724	0.437579
O13	O	0.117631	-0.891949	-0.062368
O14	O	0.617631	-0.391949	0.437632
Cu15	Cu	0.125565	-0.788835	-0.073825
Cu16	Cu	0.625565	-0.288835	0.426175
Cu17	Cu	0.125574	-0.788855	0.074225
Cu18	Cu	0.625574	-0.288855	0.574225
O19	O	0.262866	-0.748693	-0.062409
O20	O	0.762866	-0.248693	0.437591
C21	C	0.132994	-0.659983	0.000166
C22	C	0.632994	-0.159983	0.500166
C23	C	0.131461	-0.583263	0.000147
C24	C	0.631461	-0.083263	0.500147
C25	C	-0.046861	-0.837388	0.000218
C26	C	0.453139	-0.337388	0.500218
C27	C	-0.151541	-0.862409	0.000232
C28	C	0.348459	-0.362409	0.500232
C29	C	0.118146	-0.917706	0.000235
C30	C	0.618146	-0.417706	0.500235
C31	C	0.119679	-0.994427	0.000259
C32	C	0.619679	-0.494427	0.500259
C33	C	-0.438277	-0.613831	0.000152
C34	C	0.061723	-0.113831	0.500152
C35	C	-0.536642	-0.637359	0.000156
C36	C	-0.036642	-0.137359	0.500156
C37	C	-0.559647	-0.769703	0.000191
C38	C	-0.059647	-0.269703	0.500191
C39	C	-0.461281	-0.746185	0.000190
C40	C	0.038719	-0.246185	0.500190
C41	C	-0.400603	-0.668248	0.000170
C42	C	0.099397	-0.168248	0.500170
C43	C	-0.423608	-0.800603	0.000208
C44	C	0.076392	-0.300603	0.500208
C45	C	-0.325251	-0.777087	0.000203
C46	C	0.174749	-0.277087	0.500203
C47	C	-0.264567	-0.699153	0.000181
C48	C	0.235433	-0.199153	0.500181
C49	C	-0.302246	-0.644732	0.000165
C50	C	0.197754	-0.144732	0.500165
C51	C	-0.484287	-0.878540	0.000223
C52	C	0.015713	-0.378540	0.500223
C53	C	-0.446614	-0.932957	0.000241
C54	C	0.053386	-0.432957	0.500241
C55	C	-0.348255	-0.909441	0.000242
C56	C	0.151745	-0.409441	0.500242
C57	C	-0.287571	-0.831508	0.000219
C58	C	0.212429	-0.331508	0.500219
C59	C	-0.310576	-0.963863	0.000257
C60	C	0.189424	-0.463863	0.500257
C61	C	-0.212219	-0.940346	0.000253
C62	C	0.287781	-0.440346	0.500253
C63	C	-0.189214	-0.807992	0.000214
C64	C	0.310786	-0.307992	0.500214
C65	C	0.298001	-0.740301	0.000183
C66	C	0.798001	-0.240301	0.500183
C67	C	0.402681	-0.715280	0.000174
C68	C	0.902681	-0.215280	0.500174
N69	N	0.125559	-0.788826	-0.177956
N70	N	0.625559	-0.288826	0.322044
C71	C	0.216678	-0.517278	0.000150
C72	C	0.716678	-0.017278	0.500150
C73	C	0.215238	-0.445191	0.000158
C74	C	0.715238	0.054809	0.500158
C75	C	0.128576	-0.439092	0.000179
C76	C	0.628576	0.060908	0.500179
C77	C	0.043348	-0.505089	0.000171
C78	C	0.543348	-0.005089	0.500171
C79	C	0.044790	-0.577175	0.000155
C80	C	0.544790	-0.077175	0.500155
C81	C	0.060453	-0.347855	0.044070
C82	C	0.560453	0.152145	0.544070
C83	C	0.059014	-0.275770	0.044091
C84	C	0.559014	0.224230	0.544091
C85	C	0.124123	-0.216759	0.000225
C86	C	0.624123	0.283241	0.500225
C87	C	0.190688	-0.229837	-0.043652
C88	C	0.690688	0.270163	0.456348
C89	C	0.192130	-0.301922	-0.043668
C90	C	0.692130	0.198078	0.456332
C91	C	0.127002	-0.360931	0.000196
C92	C	0.627002	0.139069	0.500196
C93	C	0.207785	-0.072607	0.000236
C94	C	0.707785	0.427393	0.500236
C95	C	0.206341	-0.000520	0.000240
C96	C	0.706341	0.499480	0.500240
C97	C	0.034449	-0.060421	0.000261
C98	C	0.534449	0.439579	0.500261
C99	C	0.035895	-0.132506	0.000249
C100	C	0.535895	0.367494	0.500249
C101	C	0.122565	-0.138594	0.000241
C102	C	0.622565	0.361406	0.500241
C103	C	0.061280	-0.852267	-0.217325
C104	C	0.561280	-0.352267	0.282675
C105	C	0.061276	-0.852272	-0.296126
C106	C	0.561276	-0.352272	0.203874
C107	C	0.125566	-0.788839	-0.335556
C108	C	0.625566	-0.288839	0.164444
C109	C	0.189850	-0.725387	-0.296178
C110	C	0.689850	-0.225387	0.203822
C111	C	0.189846	-0.725381	-0.217378
C112	C	0.689846	-0.225381	0.282622
C113	C	0.211489	-0.758075	-0.460404
C114	C	0.711489	-0.258075	0.039596
C115	C	0.211494	-0.758086	-0.539203
C116	C	0.711494	-0.258086	-0.039203
C117	C	0.125578	-0.788854	-0.578603
C118	C	0.625578	-0.288854	-0.078603
C119	C	0.039653	-0.819627	-0.539193
C120	C	0.539653	-0.319627	-0.039193
C121	C	0.039649	-0.819621	-0.460393
C122	C	0.539649	-0.319621	0.039607
C123	C	0.125577	-0.788838	-0.421002
C124	C	0.625577	-0.288838	0.078998
C125	C	0.061289	-0.852305	-0.703417
C126	C	0.561289	-0.352305	-0.203417
C127	C	0.061283	-0.852305	-0.782221
C128	C	0.561283	-0.352305	-0.282221
C129	C	0.189865	-0.725422	-0.782271
C130	C	0.689865	-0.225422	-0.282271
C131	C	0.189863	-0.725420	-0.703469
C132	C	0.689863	-0.225420	-0.203469
C133	C	0.125576	-0.788865	-0.664047
C134	C	0.625576	-0.288865	-0.164047
N135	N	0.125573	-0.788871	0.178355
N136	N	0.625573	-0.288871	0.678355
H137	H	-0.139806	-0.744528	0.000203
H138	H	0.360194	-0.244528	0.500203
H139	H	-0.030309	-0.844681	-0.571271
H140	H	0.469691	-0.344681	-0.071271
Br141	Br	0.322004	0.089036	0.000238
Br142	Br	0.822004	0.589036	0.500238
H143	H	-0.036113	-0.055457	0.000324
H144	H	0.463887	0.444543	0.500324
H145	H	-0.181545	-0.984659	0.000266
H146	H	0.318455	-0.484659	0.500266
Br147	Br	-0.355919	-0.508057	0.000135
Br148	Br	0.144081	-0.008057	0.500135
H149	H	-0.024606	-0.630903	0.000153
H150	H	0.475394	-0.130903	0.500153
Br151	Br	0.328103	-0.716384	-0.406942
Br152	Br	0.828103	-0.216384	0.093058
Br153	Br	-0.076957	-0.861375	-0.406911
Br154	Br	0.423043	-0.361375	0.093089
Br155	Br	0.277104	-0.639319	-0.650033
Br156	Br	0.777104	-0.139319	-0.150033
Br157	Br	0.328104	-0.716332	-0.592679
Br158	Br	0.828104	-0.216332	-0.092679
Br159	Br	-0.031310	-0.258024	0.103648
Br160	Br	0.468690	0.241976	0.603648
Br161	Br	-0.131080	-0.667235	0.000164
Br162	Br	0.368920	-0.167235	0.500164
Br163	Br	0.334301	-0.525538	0.000137
Br164	Br	0.834301	-0.025538	0.500137
H165	H	-0.496031	-0.996414	0.000255
H166	H	0.003969	-0.496414	0.500255
Br167	Br	-0.219889	-0.538959	0.000148
Br168	Br	0.280111	-0.038959	0.500148
H169	H	0.008931	-0.903935	-0.328186
H170	H	0.508931	-0.403935	0.171814
Br171	Br	-0.392934	-1.069630	0.000267
Br172	Br	0.107066	-0.569630	0.500267
Br173	Br	0.277095	-0.639295	-0.349687
Br174	Br	0.777095	-0.139295	0.150313
Br175	Br	-0.079763	-0.222062	0.000247
Br176	Br	0.420237	0.277938	0.500247
H177	H	0.008935	-0.903966	-0.814275
H178	H	0.508935	-0.403966	-0.314275
H179	H	0.007431	-0.395899	0.079796
H180	H	0.507431	0.104101	0.579796
H181	H	-0.027213	-0.500120	0.000198
H182	H	0.472787	-0.000120	0.500198
Br183	Br	0.277086	-0.639275	-0.163944
Br184	Br	0.777086	-0.139275	0.336056
Br185	Br	0.282460	-0.319671	-0.103214
Br186	Br	0.782460	0.180329	0.396786
H187	H	0.008940	-0.903964	-0.671319
H188	H	0.508940	-0.403964	-0.171319
H189	H	0.008932	-0.903926	-0.185230
H190	H	0.508932	-0.403926	0.314770
H191	H	-0.567310	-0.593040	0.000131
H192	H	-0.067310	-0.093040	0.500131
H193	H	0.243706	-0.181790	-0.079373
H194	H	0.743706	0.318210	0.420627
H195	H	0.242208	-0.673772	-0.814374
H196	H	0.742208	-0.173772	-0.314374
H197	H	0.278357	-0.077564	0.000218
H198	H	0.778357	0.422436	0.500218
Br199	Br	0.330898	-0.355627	0.000158
Br200	Br	0.830898	0.144373	0.500158
H201	H	-0.564375	-0.897684	0.000234
H202	H	-0.064375	-0.397684	0.500234
H203	H	-0.609064	-0.833159	0.000204
H204	H	-0.109064	-0.333159	0.500204
