data_functionalizedCrystal
_audit_creation_method	'MofGen! by Chris Wilmer'
_symmetry_space_group_name_H-M	'P1'
_symmetry_Int_Tables_number	1
_symmetry_cell_setting	triclinic
loop_
_symmetry_equiv_pos_as_xyz
  x,y,z
_cell_length_a	17.639664
_cell_length_b	19.805405
_cell_length_c	17.640968
_cell_angle_alpha	101.231546
_cell_angle_beta	87.861045
_cell_angle_gamma	101.262500
loop_
_atom_site_label
_atom_site_type_symbol
_atom_site_fract_x
_atom_site_fract_y
_atom_site_fract_z
Zn1	Zn	-1.247824	0.019362	-0.195101
Zn2	Zn	-0.747824	0.519362	0.304899
Zn3	Zn	-1.222023	0.159013	-0.068118
Zn4	Zn	-0.722023	0.659013	0.431882
Zn5	Zn	-1.095141	0.063402	-0.093744
Zn6	Zn	-0.595141	0.563402	0.406256
Zn7	Zn	-1.120762	0.150110	-0.220698
Zn8	Zn	-0.620762	0.650110	0.279302
O9	O	-1.171437	0.097972	-0.144415
O10	O	-0.671437	0.597972	0.355585
O11	O	-1.350678	0.023181	-0.156819
O12	O	-0.850678	0.523181	0.343181
O13	O	-1.183672	0.168487	0.034756
O14	O	-0.683672	0.668487	0.534756
O15	O	-1.115469	-0.037171	-0.107202
O16	O	-0.615469	0.462829	0.392798
O17	O	-1.331723	0.125782	-0.063525
O18	O	-0.831723	0.625782	0.436475
O19	O	-1.227645	-0.069528	-0.181668
O20	O	-0.727645	0.430472	0.318332
O21	O	-1.090451	0.098242	0.015929
O22	O	-0.590451	0.598242	0.515929
O23	O	-0.992263	0.089610	-0.132022
O24	O	-0.492263	0.589610	0.367978
O25	O	-1.159137	0.110609	-0.323576
O26	O	-0.659137	0.610609	0.176424
O27	O	-1.011087	0.153313	-0.225295
O28	O	-0.511087	0.653313	0.274705
O29	O	-1.252489	0.014549	-0.304770
O30	O	-0.752489	0.514549	0.195230
O31	O	-1.208516	0.252563	-0.088345
O32	O	-0.708516	0.752563	0.411655
O33	O	-1.134120	0.246022	-0.200446
O34	O	-0.634120	0.746022	0.299554
C35	C	-0.974118	0.125275	-0.184217
C36	C	-0.474118	0.625275	0.315783
C37	C	-0.889708	0.136968	-0.201263
C38	C	-0.389708	0.636968	0.298737
C39	C	-0.780540	0.186692	-0.273766
C40	C	-0.280540	0.686692	0.226234
C41	C	-0.859855	0.175701	-0.257743
C42	C	-0.359855	0.675701	0.242257
C43	C	-0.840251	0.109207	-0.160785
C44	C	-0.340251	0.609207	0.339215
C45	C	-0.760933	0.120190	-0.176802
C46	C	-0.260933	0.620190	0.323198
C47	C	-0.731084	0.158933	-0.233293
C48	C	-0.231084	0.658933	0.266707
C49	C	-0.711477	0.092431	-0.136329
C50	C	-0.211477	0.592431	0.363671
C51	C	-0.632166	0.103416	-0.152343
C52	C	-0.132166	0.603416	0.347657
C53	C	-0.602310	0.142160	-0.208829
C54	C	-0.102310	0.642160	0.291171
C55	C	-0.651772	0.169918	-0.249306
C56	C	-0.151772	0.669918	0.250694
C57	C	-0.741327	0.053692	-0.079835
C58	C	-0.241327	0.553692	0.420165
C59	C	-0.691872	0.025934	-0.039362
C60	C	-0.191872	0.525934	0.460638
C61	C	-0.612559	0.036914	-0.055379
C62	C	-0.112559	0.536914	0.444621
C63	C	-0.582703	0.075658	-0.111865
C64	C	-0.082703	0.575658	0.388135
C65	C	-0.563097	0.009156	-0.014902
C66	C	-0.063097	0.509156	0.485098
C67	C	-0.483785	0.020141	-0.030915
C68	C	0.016215	0.520141	0.469085
C69	C	-0.503392	0.086643	-0.127879
C70	C	-0.003392	0.586643	0.372121
C71	C	-1.171322	0.273850	-0.144405
C72	C	-0.671322	0.773850	0.355595
C73	C	-1.171347	0.349076	-0.144412
C74	C	-0.671347	0.849076	0.355588
C75	C	-1.211549	0.056673	-0.342499
C76	C	-0.711549	0.556673	0.157501
C77	C	-1.228643	0.039074	-0.426910
C78	C	-0.728643	0.539074	0.073090
C79	C	-0.369526	0.070563	-0.104452
C80	C	0.130474	0.570563	0.395548
C81	C	-0.453936	0.058884	-0.087406
C82	C	0.046064	0.558884	0.412594
C83	C	-1.229732	0.367511	-0.183230
C84	C	-0.729732	0.867511	0.316770
C85	C	-1.229753	0.438194	-0.183238
C86	C	-0.729753	0.938194	0.316762
C87	C	-1.171392	0.490442	-0.144423
C88	C	-0.671392	0.990442	0.355577
C89	C	-1.113002	0.472003	-0.105604
C90	C	-0.613002	0.972003	0.394396
C91	C	-1.112978	0.401321	-0.105601
C92	C	-0.612978	0.901321	0.394399
C93	C	-1.113094	0.757058	-0.105617
C94	C	-0.613094	1.257058	0.394383
C95	C	-1.113123	0.827744	-0.105622
C96	C	-0.613123	1.327744	0.394378
C97	C	-1.229868	0.793931	-0.183255
C98	C	-0.729868	1.293931	0.316745
C99	C	-1.229845	0.723249	-0.183252
C100	C	-0.729845	1.223249	0.316748
C101	C	-1.171453	0.704816	-0.144436
C102	C	-0.671453	1.204816	0.355564
C103	C	-1.171430	0.628173	-0.144429
C104	C	-0.671430	1.128173	0.355571
C105	C	-1.171417	0.567084	-0.144426
C106	C	-0.671417	1.067084	0.355574
C107	C	-1.171544	0.921407	-0.144438
C108	C	-0.671544	1.421407	0.355562
C109	C	-1.171505	0.846180	-0.144445
C110	C	-0.671505	1.346180	0.355555
C111	C	-1.041873	0.231261	-0.753480
C112	C	-0.541873	0.731261	-0.253480
C113	C	-1.057951	0.214713	-0.832794
C114	C	-0.557951	0.714713	-0.332794
C115	C	-1.155150	0.114695	-0.813202
C116	C	-0.655150	0.614695	-0.313202
C117	C	-1.139077	0.131232	-0.733886
C118	C	-0.639077	0.631232	-0.233886
C119	C	-1.082439	0.189517	-0.704031
C120	C	-0.582439	0.689517	-0.204031
C121	C	-1.179643	0.089487	-0.684436
C122	C	-0.679643	0.589487	-0.184436
C123	C	-1.163575	0.106026	-0.605126
C124	C	-0.663575	0.606026	-0.105126
C125	C	-1.106941	0.164309	-0.575264
C126	C	-0.606941	0.664309	-0.075264
C127	C	-1.066370	0.206055	-0.624720
C128	C	-0.566370	0.706055	-0.124720
C129	C	-1.236286	0.031206	-0.714292
C130	C	-0.736286	0.531206	-0.214292
C131	C	-1.276852	-0.010539	-0.664843
C132	C	-0.776852	0.489461	-0.164843
C133	C	-1.260780	0.005997	-0.585532
C134	C	-0.760780	0.505997	-0.085532
C135	C	-1.204145	0.064280	-0.555670
C136	C	-0.704145	0.564280	-0.055670
C137	C	-1.301350	-0.035749	-0.536076
C138	C	-0.801350	0.464251	-0.036076
C139	C	-1.285281	-0.019211	-0.456765
C140	C	-0.785281	0.480789	0.043235
C141	C	-1.188077	0.080818	-0.476360
C142	C	-0.688077	0.580818	0.023640
C143	C	-1.131525	0.139055	0.052907
C144	C	-0.631525	0.639055	0.552907
C145	C	-1.114579	0.156443	0.137347
C146	C	-0.614579	0.656443	0.637347
H147	H	-0.479089	0.118183	-0.173886
H148	H	0.020911	0.618183	0.326114
H149	H	-0.716186	-0.005609	0.006635
H150	H	-0.216186	0.494391	0.506635
Cl151	Cl	-1.372558	-0.109012	-0.573616
Cl152	Cl	-0.872558	0.390988	-0.073616
H153	H	-0.756237	0.218232	-0.319774
H154	H	-0.256237	0.718232	0.180226
H155	H	-1.141938	0.128266	-0.452054
H156	H	-0.641938	0.628266	0.047946
H157	H	-1.318313	-0.053204	-0.416502
H158	H	-0.818313	0.446796	0.083498
H159	H	-1.020231	0.253503	-0.600415
H160	H	-0.520231	0.753503	-0.100415
Cl161	Cl	-0.877784	0.060504	-0.089771
Cl162	Cl	-0.377784	0.560504	0.410229
Cl163	Cl	-1.303274	0.817108	-0.232057
Cl164	Cl	-0.803274	1.317108	0.267943
H165	H	-1.065550	0.742057	-0.074011
H166	H	-0.565550	1.242057	0.425989
Cl167	Cl	-0.970662	0.304530	-0.715943
Cl168	Cl	-0.470662	0.804530	-0.215943
Cl169	Cl	-1.039748	0.893428	-0.056823
Cl170	Cl	-0.539748	1.393428	0.443177
H171	H	-1.065481	0.514549	-0.074004
H172	H	-0.565481	1.014549	0.425996
H173	H	-1.201267	0.067241	-0.837521
H174	H	-0.701267	0.567241	-0.337521
Cl175	Cl	-1.086743	0.185105	-0.475558
Cl176	Cl	-0.586743	0.685105	0.024442
Cl177	Cl	-1.039577	0.378146	-0.056799
Cl178	Cl	-0.539577	0.878146	0.443201
H179	H	-1.024913	0.248711	-0.873054
H180	H	-0.524913	0.748711	-0.373054
H181	H	-0.537729	0.151104	-0.221865
H182	H	-0.037729	0.651104	0.278135
Cl183	Cl	-1.256488	0.010417	-0.813998
Cl184	Cl	-0.756488	0.510417	-0.313998
H185	H	-1.322969	-0.057992	-0.689161
H186	H	-0.822969	0.442008	-0.189161
H187	H	-1.277300	0.453199	-0.214841
H188	H	-0.777300	0.953199	0.285159
H189	H	-0.627470	0.201459	-0.295314
H190	H	-0.127470	0.701459	0.204686
Cl191	Cl	-0.600630	-0.039540	0.056119
Cl192	Cl	-0.100630	0.460460	0.556119
H193	H	-0.900121	0.198307	-0.290707
H194	H	-0.400121	0.698307	0.209293
H195	H	-0.805908	0.044751	-0.066798
H196	H	-0.305908	0.544751	0.433202
H197	H	-1.277259	0.324973	-0.214834
H198	H	-0.777259	0.824973	0.285166
Cl199	Cl	-0.421607	-0.014751	0.019971
Cl200	Cl	0.078393	0.485249	0.519971
H201	H	-1.277370	0.680710	-0.214855
H202	H	-0.777370	1.180710	0.285145
