data_functionalizedCrystal
_audit_creation_method	'MofGen! by Chris Wilmer'
_symmetry_space_group_name_H-M	'P1'
_symmetry_Int_Tables_number	1
_symmetry_cell_setting	triclinic
loop_
_symmetry_equiv_pos_as_xyz
  x,y,z
_cell_length_a	6.817900
_cell_length_b	10.992410
_cell_length_c	14.858329
_cell_angle_alpha	93.425518
_cell_angle_beta	104.519616
_cell_angle_gamma	108.764651
loop_
_atom_site_label
_atom_site_type_symbol
_atom_site_fract_x
_atom_site_fract_y
_atom_site_fract_z
V1	V	-4.092555	-0.400959	-0.128670
O2	O	-4.073418	-0.392950	0.006183
O3	O	-4.048813	-0.398579	-0.255132
O4	O	-4.070481	-0.575666	-0.126691
O5	O	-4.051601	-0.214637	-0.123147
V6	V	-4.572168	-0.378630	-0.112540
O7	O	-4.362390	-0.449941	-0.164053
O8	O	-4.752530	-0.329648	-0.077158
O9	O	-4.392703	-0.381009	0.013921
O10	O	-4.708702	-0.386639	-0.247394
O11	O	-4.730519	-0.564952	-0.118064
O12	O	-4.371036	-0.203923	-0.114520
C13	C	-3.894095	-0.392348	-0.285960
C14	C	-3.939794	-0.391566	-0.389344
C15	C	-3.976898	-0.390920	-0.473302
C16	C	-4.023467	-0.390115	-0.578632
C17	C	-4.060600	-0.389475	-0.662584
C18	C	-4.107171	-0.388668	-0.767920
C19	C	-3.921733	-0.618238	-0.122120
C20	C	-3.985000	-0.761064	-0.121339
C21	C	-3.853323	-0.956167	-0.114219
C22	C	-3.787571	-0.807687	-0.115417
C23	C	-4.167556	-0.838429	-0.213035
C24	C	-4.232006	-0.986993	-0.212224
C25	C	-4.139708	-0.948456	-0.034667
C26	C	-4.069072	-0.799442	-0.034232
C27	C	-4.210763	-0.387238	0.044745
C28	C	-4.144304	-0.388027	0.148128
C29	C	-4.183125	-0.161344	-0.119093
C30	C	-4.099096	-0.018517	-0.119870
H31	H	-3.650231	-0.754159	-0.049483
H32	H	-3.719926	-0.783049	-0.177486
H33	H	-4.412664	-1.029647	-0.220198
F34	F	-4.362431	-0.800816	-0.223030
H35	H	-3.818064	-1.004334	-0.175438
H36	H	-4.110891	-0.813008	-0.277708
F37	F	-4.197452	-1.047716	-0.296548
F38	F	-3.896774	-0.730763	0.054432
F39	F	-4.020543	-0.974810	0.056348
F40	F	-4.372914	-1.001853	-0.039019
F41	F	-3.714736	-0.980358	-0.027374
F42	F	-4.255050	-0.756933	-0.032818
