data_functionalizedCrystal
_audit_creation_method	'MofGen! by Chris Wilmer'
_symmetry_space_group_name_H-M	'P1'
_symmetry_Int_Tables_number	1
_symmetry_cell_setting	triclinic
loop_
_symmetry_equiv_pos_as_xyz
  x,y,z
_cell_length_a	13.897448
_cell_length_b	13.032831
_cell_length_c	13.033109
_cell_angle_alpha	103.334486
_cell_angle_beta	82.844057
_cell_angle_gamma	82.824586
loop_
_atom_site_label
_atom_site_type_symbol
_atom_site_fract_x
_atom_site_fract_y
_atom_site_fract_z
Zn1	Zn	0.678107	-1.700093	-0.806431
Zn2	Zn	0.815945	-1.677421	-0.628819
Zn3	Zn	0.631190	-1.499918	-0.606323
Zn4	Zn	0.815860	-1.522436	-0.783863
O5	O	0.735276	-1.599967	-0.706359
O6	O	0.716062	-1.845721	-0.801730
O7	O	0.771838	-1.634963	-0.477203
O8	O	0.502443	-1.526537	-0.632898
O9	O	0.817331	-1.829064	-0.671239
O10	O	0.536913	-1.673604	-0.779917
O11	O	0.636099	-1.504553	-0.460675
O12	O	0.636017	-1.354270	-0.611015
O13	O	0.817186	-1.564914	-0.935489
O14	O	0.771693	-1.370813	-0.741453
O15	O	0.715979	-1.695438	-0.952070
O16	O	0.950904	-1.656797	-0.649356
O17	O	0.950842	-1.542930	-0.763266
C18	C	0.985876	-1.599878	-0.706330
C19	C	1.093102	-1.599942	-0.706365
C20	C	0.698755	-1.324002	-0.671344
C21	C	0.683158	-1.205946	-0.656390
C22	C	0.771807	-1.635217	-0.983396
C23	C	0.787374	-1.650238	-1.101453
C24	C	1.289420	-1.600056	-0.706455
C25	C	1.180175	-1.599990	-0.706408
C26	C	1.483704	-1.600081	-0.706427
C27	C	1.376500	-1.600110	-0.706485
C28	C	0.771939	-1.877009	-0.741512
C29	C	0.787563	-1.995068	-0.756492
C30	C	0.743416	-1.161514	-0.714164
C31	C	0.727297	-1.039497	-0.698709
C32	C	0.727154	-1.592411	-1.145908
C33	C	0.743242	-1.607935	-1.267926
C34	C	0.698825	-1.564915	-0.430408
C35	C	0.683013	-1.550100	-0.312378
H36	H	0.806935	-1.213806	-0.775072
H37	H	0.851085	-1.047357	-0.817407
O38	O	0.863208	-1.722896	-1.163745
C39	C	0.952727	-1.696243	-1.133736
H40	H	0.942370	-1.607526	-1.092404
H41	H	0.977057	-1.745057	-1.076657
C42	C	1.044362	-1.829992	-1.284660
C43	C	1.031642	-1.721027	-1.233903
H44	H	1.093042	-1.845285	-1.346446
H45	H	0.984051	-1.847953	-1.304876
H46	H	1.064631	-1.870658	-1.237084
H47	H	1.011361	-1.680365	-1.281474
H48	H	1.091952	-1.703061	-1.213697
O49	O	0.607378	-1.477173	-1.250061
C50	C	0.617972	-1.374720	-1.263675
H51	H	0.698316	-1.373181	-1.293538
H52	H	0.571007	-1.355109	-1.324469
C53	C	0.485773	-1.293268	-1.119406
C54	C	0.584455	-1.291375	-1.156075
H55	H	0.465094	-1.241855	-1.053035
H56	H	0.478632	-1.362292	-1.110236
H57	H	0.446648	-1.276928	-1.170077
H58	H	0.623579	-1.307727	-1.105411
H59	H	0.591601	-1.222351	-1.165234
H60	H	0.663768	-0.987209	-0.637805
H61	H	0.619633	-1.153655	-0.595490
H62	H	0.806714	-1.668939	-1.320195
O63	O	0.651458	-1.519714	-1.083406
C64	C	0.652256	-1.520385	-0.975490
H65	H	0.692725	-1.600439	-0.970842
H66	H	0.691160	-1.453380	-0.936006
C67	C	0.496207	-1.405168	-0.922933
C68	C	0.545903	-1.503495	-0.917224
H69	H	0.430604	-1.394745	-0.886989
H70	H	0.495670	-1.404712	-0.995637
H71	H	0.528637	-1.349342	-0.890031
H72	H	0.513480	-1.559320	-0.950138
H73	H	0.546433	-1.503960	-0.844524
