data_functionalizedCrystal
_audit_creation_method	'MofGen! by Chris Wilmer'
_symmetry_space_group_name_H-M	'P1'
_symmetry_Int_Tables_number	1
_symmetry_cell_setting	triclinic
loop_
_symmetry_equiv_pos_as_xyz
  x,y,z
_cell_length_a	21.295419
_cell_length_b	21.295417
_cell_length_c	16.959447
_cell_angle_alpha	89.964725
_cell_angle_beta	89.981937
_cell_angle_gamma	90.045308
loop_
_atom_site_label
_atom_site_type_symbol
_atom_site_fract_x
_atom_site_fract_y
_atom_site_fract_z
Zn1	Zn	0.962315	-0.250348	-0.446906
Zn2	Zn	1.462315	0.249652	0.053094
Zn3	Zn	0.962230	-0.355625	-0.314716
Zn4	Zn	1.462230	0.144375	0.185284
Zn5	Zn	0.857050	-0.250400	-0.314741
Zn6	Zn	1.357050	0.249600	0.185259
Zn7	Zn	0.857008	-0.355610	-0.446852
Zn8	Zn	1.357008	0.144390	0.053148
O9	O	0.909651	-0.302996	-0.380804
O10	O	1.409651	0.197004	0.119196
O11	O	1.050393	-0.264297	-0.429383
O12	O	1.550393	0.235703	0.070617
O13	O	0.948259	-0.341694	-0.204108
O14	O	1.448259	0.158306	0.295892
O15	O	0.871068	-0.162304	-0.332305
O16	O	1.371068	0.337696	0.167695
O17	O	1.050330	-0.341643	-0.332263
O18	O	1.550330	0.158357	0.167737
O19	O	0.948405	-0.162265	-0.429407
O20	O	1.448405	0.337735	0.070593
O21	O	0.870985	-0.264387	-0.204126
O22	O	1.370985	0.235613	0.295874
O23	O	0.768955	-0.264373	-0.332253
O24	O	1.268955	0.235627	0.167747
O25	O	0.870995	-0.341619	-0.557470
O26	O	1.370995	0.158381	-0.057470
O27	O	0.768924	-0.341670	-0.429315
O28	O	1.268924	0.158330	0.070685
O29	O	0.948364	-0.264283	-0.557510
O30	O	1.448364	0.235717	-0.057510
O31	O	0.948218	-0.443712	-0.332211
O32	O	1.448218	0.056288	0.167789
O33	O	0.870912	-0.443701	-0.429291
O34	O	1.370912	0.056299	0.070709
C35	C	0.746099	-0.303026	-0.380781
C36	C	1.246099	0.196974	0.119219
C37	C	0.676131	-0.303054	-0.380791
C38	C	1.176131	0.196946	0.119209
C39	C	0.909568	-0.466547	-0.380760
C40	C	1.409568	0.033453	0.119240
C41	C	0.909591	-0.536515	-0.380768
C42	C	1.409591	-0.036515	0.119232
C43	C	0.643320	-0.262845	-0.431439
C44	C	1.143320	0.237155	0.068561
C45	C	0.577577	-0.262829	-0.431442
C46	C	1.077577	0.237171	0.068558
C47	C	0.544649	-0.303031	-0.380805
C48	C	1.044649	0.196969	0.119195
C49	C	0.577468	-0.343243	-0.330147
C50	C	1.077468	0.156757	0.169853
C51	C	0.643209	-0.343254	-0.330140
C52	C	1.143209	0.156746	0.169860
N53	N	0.441374	-0.358110	-0.374628
N54	N	0.941374	0.141890	0.125372
N55	N	0.378922	-0.358097	-0.374639
N56	N	0.878922	0.141903	0.125361
C57	C	0.346574	-0.302999	-0.380823
C58	C	0.846574	0.197001	0.119177
N59	N	0.379036	-0.247912	-0.387010
N60	N	0.879036	0.252088	0.112990
N61	N	0.441493	-0.247925	-0.387002
N62	N	0.941493	0.252075	0.112998
C63	C	0.473363	-0.303023	-0.380807
C64	C	0.973363	0.196977	0.119193
C65	C	0.242477	-0.262769	-0.431477
C66	C	0.742477	0.237231	0.068523
C67	C	0.176733	-0.262751	-0.431474
C68	C	0.676733	0.237249	0.068526
C69	C	0.176625	-0.343170	-0.330184
C70	C	0.676625	0.156830	0.169816
C71	C	0.242368	-0.343183	-0.330182
C72	C	0.742368	0.156817	0.169818
C73	C	0.275290	-0.302983	-0.380833
C74	C	0.775290	0.197017	0.119167
C75	C	0.949880	-0.569367	-0.330270
C76	C	1.449880	-0.069367	0.169730
C77	C	0.949909	-0.635109	-0.330288
C78	C	1.449909	-0.135109	0.169712
C79	C	0.909638	-0.667998	-0.380795
C80	C	1.409638	-0.167998	0.119205
C81	C	0.869347	-0.635139	-0.431302
C82	C	1.369347	-0.135139	0.068698
C83	C	0.869323	-0.569398	-0.431289
C84	C	1.369323	-0.069398	0.068711
N85	N	0.854571	-0.771278	-0.386813
N86	N	1.354571	-0.271278	0.113187
N87	N	0.854595	-0.833729	-0.386821
N88	N	1.354595	-0.333729	0.113179
C89	C	0.909709	-0.866073	-0.380840
C90	C	1.409709	-0.366073	0.119160
N91	N	0.964798	-0.833605	-0.374835
N92	N	1.464798	-0.333605	0.125165
N93	N	0.964773	-0.771148	-0.374822
N94	N	1.464773	-0.271148	0.125178
C95	C	0.909660	-0.739283	-0.380816
C96	C	1.409660	-0.239283	0.119184
C97	C	0.950033	-0.970209	-0.330359
C98	C	1.450033	-0.470209	0.169641
C99	C	0.950064	-1.035953	-0.330382
C100	C	1.450064	-0.535953	0.169618
C101	C	0.869496	-1.035981	-0.431393
C102	C	1.369496	-0.535981	0.068607
C103	C	0.869471	-0.970239	-0.431374
C104	C	1.369471	-0.470239	0.068626
C105	C	0.909739	-0.937357	-0.380853
C106	C	1.409739	-0.437357	0.119147
C107	C	1.073841	-0.302966	-0.380826
C108	C	1.573841	0.197034	0.119174
C109	C	1.143809	-0.302953	-0.380836
C110	C	1.643809	0.197047	0.119164
C111	C	0.909685	-0.302943	-0.586972
C112	C	1.409685	0.197057	-0.086972
C113	C	0.909699	-0.302921	-0.674829
C114	C	1.409699	0.197079	-0.174829
C115	C	0.909751	-0.138805	-0.380865
C116	C	1.409751	0.361195	0.119135
C117	C	0.909793	-0.068837	-0.380891
C118	C	1.409793	0.431163	0.119109
C119	C	0.869521	-0.262604	-1.046320
C120	C	1.369521	0.237396	-0.546320
C121	C	0.949988	-0.343105	-1.046289
C122	C	1.449988	0.156895	-0.546289
C123	C	0.949977	-0.343120	-0.963743
C124	C	1.449977	0.156880	-0.463743
C125	C	0.909737	-0.302877	-0.922482
C126	C	1.409737	0.197123	-0.422482
C127	C	0.869508	-0.262619	-0.963766
C128	C	1.369508	0.237381	-0.463766
C129	C	0.990201	-0.383382	-0.922452
C130	C	1.490201	0.116618	-0.422452
C131	C	0.990191	-0.383399	-0.839901
C132	C	1.490191	0.116601	-0.339901
C133	C	0.949954	-0.343152	-0.798638
C134	C	1.449954	0.156848	-0.298638
C135	C	0.909723	-0.302892	-0.839928
C136	C	1.409723	0.197108	-0.339928
C137	C	0.869483	-0.262648	-0.798667
C138	C	1.369483	0.237352	-0.298667
C139	C	0.829256	-0.222385	-0.839955
C140	C	1.329256	0.277615	-0.339955
C141	C	0.829270	-0.222372	-0.922504
C142	C	1.329270	0.277628	-0.422504
C143	C	0.949939	-0.343164	-0.716090
C144	C	1.449939	0.156836	-0.216090
C145	C	0.869470	-0.262663	-0.716113
C146	C	1.369470	0.237337	-0.216113
C147	C	0.909653	-0.303002	-0.175437
C148	C	1.409653	0.196998	0.324563
C149	C	0.909761	-0.302847	-0.087581
C150	C	1.409761	0.197153	0.412419
H151	H	0.550857	-0.230083	-0.472684
H152	H	1.050857	0.269917	0.027316
H153	H	0.269283	-0.230031	-0.472715
H154	H	0.769283	0.269969	0.027285
O155	O	0.993383	-0.386514	-1.090788
O156	O	1.493383	0.113486	-0.590788
H157	H	1.042793	-0.375715	-1.074955
H158	H	1.542793	0.124285	-0.574955
O159	O	0.541958	-0.386606	-0.275529
O160	O	1.041958	0.113394	0.224471
H161	H	0.490731	-0.379848	-0.284048
H162	H	0.990731	0.120152	0.215952
O163	O	0.678602	-0.386623	-0.275507
O164	O	1.178602	0.113377	0.224493
H165	H	0.708537	-0.418689	-0.310805
H166	H	1.208537	0.081311	0.189195
O167	O	1.033597	-0.426787	-0.966955
O168	O	1.533597	0.073213	-0.466955
H169	H	1.083006	-0.415991	-0.951118
H170	H	1.583006	0.084009	-0.451118
O171	O	0.785882	-0.178946	-0.967029
O172	O	1.285882	0.321054	-0.467029
H173	H	0.796715	-0.129544	-0.951211
H174	H	1.296715	0.370456	-0.451211
H175	H	0.150019	-0.230004	-0.472717
H176	H	0.650019	0.269996	0.027283
H177	H	0.670121	-0.230111	-0.472682
H178	H	1.170121	0.269889	0.027318
O179	O	0.826135	-0.219174	-1.090842
O180	O	1.326135	0.280826	-0.590842
H181	H	0.836969	-0.169774	-1.075016
H182	H	1.336969	0.330226	-0.575016
O183	O	1.033588	-0.426810	-0.795369
O184	O	1.533588	0.073190	-0.295369
H185	H	1.061577	-0.454785	-0.837930
H186	H	1.561577	0.045215	-0.337930
H187	H	0.982696	-0.375942	-0.682476
H188	H	1.482696	0.124058	-0.182476
H189	H	0.796489	-0.189621	-0.806350
H190	H	1.296489	0.310379	-0.306350
H191	H	0.149815	-0.375904	-0.288954
H192	H	0.649815	0.124096	0.211046
O193	O	0.277764	-0.386553	-0.275557
O194	O	0.777764	0.113447	0.224443
H195	H	0.243824	-0.414509	-0.240348
H196	H	0.743824	0.085491	0.259652
H197	H	0.982719	-0.661862	-0.289167
H198	H	1.482719	-0.161862	0.210833
H199	H	0.982670	-0.542596	-0.289135
H200	H	1.482670	-0.042596	0.210865
H201	H	0.836559	-0.661921	-0.472427
H202	H	1.336559	-0.161921	0.027573
H203	H	0.836514	-0.542649	-0.472411
H204	H	1.336514	-0.042649	0.027589
H205	H	0.982824	-0.943436	-0.289224
H206	H	1.482824	-0.443436	0.210776
H207	H	0.982876	-1.062699	-0.289263
H208	H	1.482876	-0.562699	0.210737
H209	H	0.836704	-0.229889	-0.682524
H210	H	1.336704	0.270111	-0.182524
O211	O	0.826056	-1.071443	-0.485868
O212	O	1.326056	-0.571443	0.014132
H213	H	0.832837	-1.122677	-0.477391
H214	H	1.332837	-0.622677	0.022609
H215	H	0.836661	-0.943490	-0.472490
H216	H	1.336661	-0.443490	0.027510
