data_functionalizedCrystal
_audit_creation_method	'MofGen! by Chris Wilmer'
_symmetry_space_group_name_H-M	'P1'
_symmetry_Int_Tables_number	1
_symmetry_cell_setting	triclinic
loop_
_symmetry_equiv_pos_as_xyz
  x,y,z
_cell_length_a	21.295417
_cell_length_b	16.625547
_cell_length_c	16.625539
_cell_angle_alpha	90.023545
_cell_angle_beta	89.968491
_cell_angle_gamma	89.970308
loop_
_atom_site_label
_atom_site_type_symbol
_atom_site_fract_x
_atom_site_fract_y
_atom_site_fract_z
Zn1	Zn	-0.250633	-1.232608	-0.456021
Zn2	Zn	-0.000633	-0.982608	-0.206021
Zn3	Zn	0.249367	-0.732608	0.043979
Zn4	Zn	0.499367	-0.482608	0.293979
Zn5	Zn	-0.355903	-1.232500	-0.321176
Zn6	Zn	-0.105903	-0.982500	-0.071176
Zn7	Zn	0.144097	-0.732500	0.178824
Zn8	Zn	0.394097	-0.482500	0.428824
Zn9	Zn	-0.250650	-1.097778	-0.321186
Zn10	Zn	-0.000650	-0.847778	-0.071186
Zn11	Zn	0.249350	-0.597778	0.178814
Zn12	Zn	0.499350	-0.347778	0.428814
Zn13	Zn	-0.355867	-1.097721	-0.455950
Zn14	Zn	-0.105867	-0.847721	-0.205950
Zn15	Zn	0.144133	-0.597721	0.044050
Zn16	Zn	0.394133	-0.347721	0.294050
O17	O	-0.303264	-1.165151	-0.388583
O18	O	-0.053264	-0.915151	-0.138583
O19	O	0.196736	-0.665151	0.111417
O20	O	0.446736	-0.415151	0.361417
O21	O	-0.264606	-1.345426	-0.438158
O22	O	-0.014606	-1.095426	-0.188158
O23	O	0.235394	-0.845426	0.061842
O24	O	0.485394	-0.595426	0.311842
O25	O	-0.341964	-1.214608	-0.208345
O26	O	-0.091964	-0.964608	0.041655
O27	O	0.158036	-0.714608	0.291655
O28	O	0.408036	-0.464608	0.541655
O29	O	-0.162559	-1.115732	-0.339105
O30	O	0.087441	-0.865732	-0.089105
O31	O	0.337441	-0.615732	0.160895
O32	O	0.587441	-0.365732	0.410895
O33	O	-0.341947	-1.345347	-0.339088
O34	O	-0.091947	-1.095347	-0.089088
O35	O	0.158053	-0.845347	0.160912
O36	O	0.408053	-0.595347	0.410912
O37	O	-0.162546	-1.214791	-0.438168
O38	O	0.087454	-0.964791	-0.188168
O39	O	0.337454	-0.714791	0.061832
O40	O	0.587454	-0.464791	0.311832
O41	O	-0.264635	-1.115628	-0.208352
O42	O	-0.014635	-0.865628	0.041648
O43	O	0.235365	-0.615628	0.291648
O44	O	0.485365	-0.365628	0.541648
O45	O	-0.264600	-0.984938	-0.339037
O46	O	-0.014600	-0.734938	-0.089037
O47	O	0.235400	-0.484938	0.160963
O48	O	0.485400	-0.234938	0.410963
O49	O	-0.341885	-1.115635	-0.568792
O50	O	-0.091885	-0.865635	-0.318792
O51	O	0.158115	-0.615635	-0.068792
O52	O	0.408115	-0.365635	0.181208
O53	O	-0.341902	-0.984896	-0.438048
O54	O	-0.091902	-0.734896	-0.188048
O55	O	0.158098	-0.484896	0.061952
O56	O	0.408098	-0.234896	0.311952
O57	O	-0.264570	-1.214736	-0.568844
O58	O	-0.014570	-0.964736	-0.318844
O59	O	0.235430	-0.714736	-0.068844
O60	O	0.485430	-0.464736	0.181156
O61	O	-0.443988	-1.214553	-0.339020
O62	O	-0.193988	-0.964553	-0.089020
O63	O	0.056012	-0.714553	0.160980
O64	O	0.306012	-0.464553	0.410980
O65	O	-0.443961	-1.115531	-0.438039
O66	O	-0.193961	-0.865531	-0.188039
O67	O	0.056039	-0.615531	0.061961
O68	O	0.306039	-0.365531	0.311961
C69	C	-0.303249	-0.955661	-0.388537
C70	C	-0.053249	-0.705661	-0.138537
C71	C	0.196751	-0.455661	0.111463
C72	C	0.446751	-0.205661	0.361463
C73	C	-0.303258	-0.866040	-0.388536
C74	C	-0.053258	-0.616040	-0.138536
C75	C	0.196742	-0.366040	0.111464
C76	C	0.446742	-0.116040	0.361464
C77	C	-0.303259	-0.793257	-0.388543
C78	C	-0.053259	-0.543257	-0.138543
C79	C	0.196741	-0.293257	0.111457
C80	C	0.446741	-0.043257	0.361457
C81	C	-0.303261	-0.701949	-0.388560
C82	C	-0.053261	-0.451949	-0.138560
C83	C	0.196739	-0.201949	0.111440
C84	C	0.446739	0.048051	0.361440
C85	C	-0.303266	-0.629172	-0.388578
C86	C	-0.053266	-0.379172	-0.138578
C87	C	0.196734	-0.129172	0.111422
C88	C	0.446734	0.120828	0.361422
C89	C	-0.303269	-0.537858	-0.388593
C90	C	-0.053269	-0.287858	-0.138593
C91	C	0.196731	-0.037858	0.111407
C92	C	0.446731	0.212142	0.361407
C93	C	-0.466815	-1.165046	-0.388538
C94	C	-0.216815	-0.915046	-0.138538
C95	C	0.033185	-0.665046	0.111462
C96	C	0.283185	-0.415046	0.361462
C97	C	-0.536783	-1.165074	-0.388546
C98	C	-0.286783	-0.915074	-0.138546
C99	C	-0.036783	-0.665074	0.111454
C100	C	0.213217	-0.415074	0.361454
C101	C	-0.569643	-1.216681	-0.337040
C102	C	-0.319643	-0.966681	-0.087040
C103	C	-0.069643	-0.716681	0.162960
C104	C	0.180357	-0.466681	0.412960
C105	C	-0.635385	-1.216719	-0.337058
C106	C	-0.385385	-0.966719	-0.087058
C107	C	-0.135385	-0.716719	0.162942
C108	C	0.114615	-0.466719	0.412942
C109	C	-0.668266	-1.165136	-0.388574
C110	C	-0.418266	-0.915136	-0.138574
C111	C	-0.168266	-0.665136	0.111426
C112	C	0.081734	-0.415136	0.361426
C113	C	-0.635398	-1.113525	-0.440090
C114	C	-0.385398	-0.863525	-0.190090
C115	C	-0.135398	-0.613525	0.059910
C116	C	0.114602	-0.363525	0.309910
C117	C	-0.569657	-1.113495	-0.440076
C118	C	-0.319657	-0.863495	-0.190076
C119	C	-0.069657	-0.613495	0.059924
C120	C	0.180343	-0.363495	0.309924
N121	N	-0.771531	-1.094600	-0.394705
N122	N	-0.521531	-0.844600	-0.144705
N123	N	-0.271531	-0.594600	0.105295
N124	N	-0.021531	-0.344600	0.355295
N125	N	-0.833982	-1.094632	-0.394714
N126	N	-0.583982	-0.844632	-0.144714
N127	N	-0.333982	-0.594632	0.105286
N128	N	-0.083982	-0.344632	0.355286
C129	C	-0.866340	-1.165226	-0.388620
C130	C	-0.616340	-0.915226	-0.138620
C131	C	-0.366340	-0.665226	0.111380
C132	C	-0.116340	-0.415226	0.361380
N133	N	-0.833888	-1.235789	-0.382502
N134	N	-0.583888	-0.985789	-0.132502
N135	N	-0.333888	-0.735789	0.117498
N136	N	-0.083888	-0.485789	0.367498
N137	N	-0.771431	-1.235757	-0.382490
N138	N	-0.521431	-0.985757	-0.132490
N139	N	-0.271431	-0.735757	0.117510
N140	N	-0.021431	-0.485757	0.367510
C141	C	-0.739551	-1.165163	-0.388595
C142	C	-0.489551	-0.915163	-0.138595
C143	C	-0.239551	-0.665163	0.111405
C144	C	0.010449	-0.415163	0.361405
C145	C	-0.970486	-1.216878	-0.337131
C146	C	-0.720486	-0.966878	-0.087131
C147	C	-0.470486	-0.716878	0.162869
C148	C	-0.220486	-0.466878	0.412869
C149	C	-1.036229	-1.216917	-0.337155
C150	C	-0.786229	-0.966917	-0.087155
C151	C	-0.536229	-0.716917	0.162845
C152	C	-0.286229	-0.466917	0.412845
C153	C	-1.036241	-1.113716	-0.440183
C154	C	-0.786241	-0.863716	-0.190183
C155	C	-0.536241	-0.613716	0.059817
C156	C	-0.286241	-0.363716	0.309817
C157	C	-0.970498	-1.113685	-0.440163
C158	C	-0.720498	-0.863685	-0.190163
C159	C	-0.470498	-0.613685	0.059837
C160	C	-0.220498	-0.363685	0.309837
C161	C	-0.937625	-1.165264	-0.388633
C162	C	-0.687625	-0.915264	-0.138633
C163	C	-0.437625	-0.665264	0.111367
C164	C	-0.187625	-0.415264	0.361367
C165	C	-0.139073	-1.165280	-0.388646
C166	C	0.110927	-0.915280	-0.138646
C167	C	0.360927	-0.665280	0.111354
C168	C	0.610927	-0.415280	0.361354
C169	C	-0.069105	-1.165334	-0.388672
C170	C	0.180895	-0.915334	-0.138672
C171	C	0.430895	-0.665334	0.111328
C172	C	0.680895	-0.415334	0.361328
C173	C	-0.303222	-1.165191	-0.598892
C174	C	-0.053222	-0.915191	-0.348892
C175	C	0.196778	-0.665191	-0.098892
C176	C	0.446778	-0.415191	0.151108
C177	C	-0.303204	-1.165208	-0.688513
C178	C	-0.053204	-0.915208	-0.438513
C179	C	0.196796	-0.665208	-0.188513
C180	C	0.446796	-0.415208	0.061487
C181	C	-0.303276	-0.375460	-0.388620
C182	C	-0.053276	-0.125460	-0.138620
C183	C	0.196724	0.124540	0.111380
C184	C	0.446724	0.374540	0.361380
C185	C	-0.303275	-0.465081	-0.388611
C186	C	-0.053275	-0.215081	-0.138611
C187	C	0.196725	0.034919	0.111389
C188	C	0.446725	0.284919	0.361389
C189	C	-0.303190	-1.165221	-0.761296
C190	C	-0.053190	-0.915221	-0.511296
C191	C	0.196810	-0.665221	-0.261296
C192	C	0.446810	-0.415221	-0.011296
C193	C	-0.303167	-1.165240	-0.852604
C194	C	-0.053167	-0.915240	-0.602604
C195	C	0.196833	-0.665240	-0.352604
C196	C	0.446833	-0.415240	-0.102604
C197	C	-0.303145	-1.165259	-0.925381
C198	C	-0.053145	-0.915259	-0.675381
C199	C	0.196855	-0.665259	-0.425381
C200	C	0.446855	-0.415259	-0.175381
C201	C	-0.303122	-1.165279	-1.016695
C202	C	-0.053122	-0.915279	-0.766695
C203	C	0.196878	-0.665279	-0.516695
C204	C	0.446878	-0.415279	-0.266695
C205	C	-0.303259	-1.165159	-0.179092
C206	C	-0.053259	-0.915159	0.070908
C207	C	0.196741	-0.665159	0.320908
C208	C	0.446741	-0.415159	0.570908
C209	C	-0.303100	-1.165298	-0.089472
C210	C	-0.053100	-0.915298	0.160528
C211	C	0.196900	-0.665298	0.410528
C212	C	0.446900	-0.415298	0.660528
H213	H	-0.662145	-1.258746	-0.295116
H214	H	-0.412145	-1.008746	-0.045116
H215	H	-0.162145	-0.758746	0.204884
H216	H	0.087855	-0.508746	0.454884
H217	H	-0.943742	-1.071658	-0.482101
H218	H	-0.693742	-0.821658	-0.232101
H219	H	-0.443742	-0.571658	0.017899
H220	H	-0.193742	-0.321658	0.267899
N221	N	-0.668992	-1.060833	-0.492699
N222	N	-0.418992	-0.810833	-0.242699
N223	N	-0.168992	-0.560833	0.007301
N224	N	0.081008	-0.310833	0.257301
N225	N	-0.705726	-1.009488	-0.464281
N226	N	-0.455726	-0.759488	-0.214281
N227	N	-0.205726	-0.509488	0.035719
N228	N	0.044274	-0.259488	0.285719
H229	H	-0.729453	-0.972273	-0.501440
H230	H	-0.479453	-0.722273	-0.251440
H231	H	-0.229453	-0.472273	-0.001440
H232	H	0.020547	-0.222273	0.248560
H233	H	-0.542902	-1.071470	-0.482020
H234	H	-0.292902	-0.821470	-0.232020
H235	H	-0.042902	-0.571470	0.017980
H236	H	0.207098	-0.321470	0.267980
N237	N	-0.936888	-1.269561	-0.284511
N238	N	-0.686888	-1.019561	-0.034511
N239	N	-0.436888	-0.769561	0.215489
N240	N	-0.186888	-0.519561	0.465489
N241	N	-0.900251	-1.241210	-0.233094
N242	N	-0.650251	-0.991210	0.016906
N243	N	-0.400251	-0.741210	0.266906
N244	N	-0.150251	-0.491210	0.516906
H245	H	-0.876522	-1.278418	-0.195932
H246	H	-0.626522	-1.028418	0.054068
H247	H	-0.376522	-0.778418	0.304068
H248	H	-0.126522	-0.528418	0.554068
H249	H	-0.542879	-1.258682	-0.295084
H250	H	-0.292879	-1.008682	-0.045084
H251	H	-0.042879	-0.758682	0.204916
H252	H	0.207121	-0.508682	0.454916
H253	H	-1.062982	-1.258946	-0.295214
H254	H	-0.812982	-1.008946	-0.045214
H255	H	-0.562982	-0.758946	0.204786
H256	H	-0.312982	-0.508946	0.454786
N257	N	-1.069829	-1.061035	-0.492805
N258	N	-0.819829	-0.811035	-0.242805
N259	N	-0.569829	-0.561035	0.007195
N260	N	-0.319829	-0.311035	0.257195
N261	N	-1.128526	-1.061070	-0.492814
N262	N	-0.878526	-0.811070	-0.242814
N263	N	-0.628526	-0.561070	0.007186
N264	N	-0.378526	-0.311070	0.257186
H265	H	-1.152251	-1.023864	-0.529982
H266	H	-0.902251	-0.773864	-0.279982
H267	H	-0.652251	-0.523864	-0.029982
H268	H	-0.402251	-0.273864	0.220018
