data_functionalizedCrystal
_audit_creation_method	'MofGen! by Chris Wilmer'
_symmetry_space_group_name_H-M	'P1'
_symmetry_Int_Tables_number	1
_symmetry_cell_setting	triclinic
loop_
_symmetry_equiv_pos_as_xyz
  x,y,z
_cell_length_a	9.730223
_cell_length_b	8.559649
_cell_length_c	8.559649
_cell_angle_alpha	69.778664
_cell_angle_beta	90.001748
_cell_angle_gamma	89.997944
loop_
_atom_site_label
_atom_site_type_symbol
_atom_site_fract_x
_atom_site_fract_y
_atom_site_fract_z
O1	O	0.114268	-2.126880	0.055045
O2	O	0.114274	-1.651395	-0.028736
O3	O	0.114269	-1.931028	0.250897
O4	O	0.114273	-1.847247	-0.224588
O5	O	-0.114311	-1.931010	0.250881
O6	O	-0.114306	-1.651377	-0.028752
O7	O	-0.114312	-2.126862	0.055030
Zn8	Zn	-0.150601	-1.889117	0.013137
Zn9	Zn	0.150563	-1.889140	0.013157
O10	O	-0.114307	-1.847229	-0.224603
C11	C	-0.000016	-1.591077	-0.035093
C12	C	-0.000013	-1.411378	-0.053992
C13	C	-0.000018	-1.937369	0.311198
C14	C	-0.000011	-1.956268	0.490898
N15	N	-0.356137	-1.889113	0.013125
C16	C	-0.428077	-1.975417	-0.073245
C17	C	-0.571960	-1.975445	-0.073211
C18	C	-0.571951	-1.802852	0.099564
C19	C	-0.428071	-1.802835	0.099539
C20	C	-0.356144	-2.061695	-0.159659
C21	C	-0.428083	-2.148004	-0.246038
C22	C	-0.571966	-2.148033	-0.246004
C23	C	-0.643909	-2.061752	-0.159592
N24	N	0.356099	-1.889159	0.013184
C25	C	-0.000019	-2.187180	0.061387
C26	C	-0.000013	-2.366879	0.080286
C27	C	-0.000017	-1.840889	-0.284904
C28	C	-0.000015	-1.821990	-0.464604
H29	H	-0.369498	-2.218262	-0.316381
H30	H	-0.000005	-1.311990	-0.183420
H31	H	-0.000007	-1.466258	0.209705
C32	C	-0.350202	-1.708960	0.193336
C33	C	-0.443990	-1.633356	0.268971
C34	C	-0.372308	-1.546851	0.355379
H35	H	-0.294053	-1.784438	0.276217
H36	H	-0.294120	-1.626059	0.117747
H37	H	-0.500049	-1.716248	0.344553
H38	H	-0.500143	-1.557853	0.186127
H39	H	-0.316226	-1.463950	0.279790
H40	H	-0.316161	-1.622340	0.438251
H41	H	-0.435932	-1.495531	0.406694
H42	H	-0.000018	-1.692570	0.436018
H43	H	-0.000023	-2.085696	0.590286
H44	H	-0.238987	-2.061677	-0.159701
H45	H	-0.630539	-1.732604	0.169914
H46	H	-0.630536	-2.218323	-0.316324
H47	H	-0.761069	-2.061799	-0.159554
