data_functionalizedCrystal
_audit_creation_method	'MofGen! by Chris Wilmer'
_symmetry_space_group_name_H-M	'P1'
_symmetry_Int_Tables_number	1
_symmetry_cell_setting	triclinic
loop_
_symmetry_equiv_pos_as_xyz
  x,y,z
_cell_length_a	29.839134
_cell_length_b	29.839131
_cell_length_c	29.839125
_cell_angle_alpha	89.982291
_cell_angle_beta	90.021980
_cell_angle_gamma	89.963719
loop_
_atom_site_label
_atom_site_type_symbol
_atom_site_fract_x
_atom_site_fract_y
_atom_site_fract_z
Zn1	Zn	0.686720	0.178978	0.254125
Zn2	Zn	1.186720	0.678978	0.754125
Zn3	Zn	0.686652	0.254090	0.178995
Zn4	Zn	1.186652	0.754090	0.678995
Zn5	Zn	0.611602	0.178968	0.178995
Zn6	Zn	1.111602	0.678968	0.678995
Zn7	Zn	0.611550	0.254075	0.254083
Zn8	Zn	1.111550	0.754075	0.754083
O9	O	0.649131	0.216528	0.216549
O10	O	1.149131	0.716528	0.716549
O11	O	0.749578	0.188952	0.244176
O12	O	1.249578	0.688952	0.744176
O13	O	0.676690	0.244127	0.116128
O14	O	1.176690	0.744127	0.616128
O15	O	0.621617	0.116102	0.188978
O16	O	1.121617	0.616102	0.688978
O17	O	0.749528	0.244137	0.188979
O18	O	1.249528	0.744137	0.688979
O19	O	0.676805	0.116109	0.244176
O20	O	1.176805	0.616109	0.744176
O21	O	0.621551	0.188935	0.116127
O22	O	1.121551	0.688935	0.616127
O23	O	0.548728	0.188921	0.188938
O24	O	1.048728	0.688921	0.688938
O25	O	0.621528	0.244111	0.316956
O26	O	1.121528	0.744111	0.816956
O27	O	0.548690	0.244101	0.244105
O28	O	1.048690	0.744101	0.744105
O29	O	0.676755	0.188937	0.316987
O30	O	1.176755	0.688937	0.816987
O31	O	0.676639	0.316955	0.188938
O32	O	1.176639	0.816955	0.688938
O33	O	0.621462	0.316944	0.244105
O34	O	1.121462	0.816944	0.744105
C35	C	0.532408	0.216509	0.216517
C36	C	1.032408	0.716509	0.716517
C37	C	0.482474	0.216511	0.216514
C38	C	0.982474	0.716511	0.716514
C39	C	0.649050	0.333250	0.216527
C40	C	1.149050	0.833250	0.716527
C41	C	0.649056	0.383185	0.216533
C42	C	1.149056	0.883185	0.716533
C43	C	0.172820	0.245303	0.245240
C44	C	0.672820	0.745303	0.745240
C45	C	-0.014853	0.245315	0.245260
C46	C	0.485147	0.745315	0.745260
O47	O	-0.039127	0.269774	0.269665
O48	O	0.460873	0.769774	0.769665
N49	N	-0.038311	0.216544	0.216583
N50	N	0.461689	0.716544	0.716583
C51	C	-0.014848	0.187766	0.187902
C52	C	0.485152	0.687766	0.687902
O53	O	-0.039107	0.163291	0.163514
O54	O	0.460893	0.663291	0.663514
C55	C	0.172824	0.187751	0.187884
C56	C	0.672824	0.687751	0.687884
C57	C	0.196280	0.216527	0.216560
C58	C	0.696280	0.716527	0.716560
C59	C	0.196276	0.274076	0.273913
C60	C	0.696276	0.774076	0.773913
C61	C	0.243191	0.274075	0.273906
C62	C	0.743191	0.774075	0.773906
C63	C	0.266651	0.245299	0.245226
C64	C	0.766651	0.745299	0.745226
C65	C	0.243195	0.216526	0.216553
C66	C	0.743195	0.716526	0.716553
C67	C	0.196286	0.158971	0.159205
C68	C	0.696286	0.658971	0.659205
C69	C	0.243207	0.158969	0.159204
C70	C	0.743207	0.658969	0.659204
C71	C	0.266663	0.187745	0.187880
C72	C	0.766663	0.687745	0.687880
C73	C	0.313570	0.187749	0.187865
C74	C	0.813570	0.687749	0.687865
N75	N	0.337029	0.216520	0.216542
N76	N	0.837029	0.716520	0.716542
C77	C	0.313569	0.245295	0.245222
C78	C	0.813569	0.745295	0.745222
C79	C	-0.113379	0.187776	0.187912
C80	C	0.386621	0.687776	0.687912
C81	C	-0.160297	0.187780	0.187916
C82	C	0.339703	0.687780	0.687916
C83	C	-0.160298	0.245329	0.245275
C84	C	0.339702	0.745329	0.745275
C85	C	-0.113380	0.245327	0.245269
C86	C	0.386620	0.745327	0.745269
C87	C	-0.089921	0.216547	0.216589
C88	C	0.410079	0.716547	0.716589
C89	C	0.412095	0.245290	0.245205
C90	C	0.912095	0.745290	0.745205
C91	C	0.459014	0.245287	0.245194
C92	C	0.959014	0.745287	0.745194
C93	C	0.459012	0.187736	0.187837
C94	C	0.959012	0.687736	0.687837
C95	C	0.412096	0.187740	0.187846
C96	C	0.912096	0.687740	0.687846
C97	C	0.388639	0.216519	0.216534
C98	C	0.888639	0.716519	0.716534
O99	O	0.337873	0.163299	0.163477
O100	O	0.837873	0.663299	0.663477
O101	O	0.337836	0.269759	0.269613
O102	O	0.837836	0.769759	0.769613
C103	C	0.125905	0.245304	0.245247
C104	C	0.625905	0.745304	0.745247
C105	C	0.102449	0.216531	0.216574
C106	C	0.602449	0.716531	0.716574
C107	C	0.125909	0.187755	0.187893
C108	C	0.625909	0.687755	0.687893
C109	C	0.055531	0.216535	0.216577
C110	C	0.555531	0.716535	0.716577
C111	C	0.032071	0.245310	0.245258
C112	C	0.532071	0.745310	0.745258
C113	C	0.055529	0.274082	0.273934
C114	C	0.555529	0.774082	0.773934
C115	C	0.102445	0.274080	0.273927
C116	C	0.602445	0.774080	0.773927
C117	C	0.102451	0.158984	0.159217
C118	C	0.602451	0.658984	0.659217
C119	C	0.055535	0.158989	0.159226
C120	C	0.555535	0.658989	0.659226
C121	C	0.032075	0.187764	0.187906
C122	C	0.532075	0.687764	0.687906
C123	C	0.649143	0.216524	0.333728
C124	C	1.149143	0.716524	0.833728
C125	C	0.649148	0.216522	0.383662
C126	C	1.149148	0.716522	0.883662
C127	C	0.766309	0.216547	0.216582
C128	C	1.266309	0.716547	0.716582
C129	C	0.816244	0.216555	0.216596
C130	C	1.316244	0.716555	0.716596
C131	C	0.649225	0.099349	0.216582
C132	C	1.149225	0.599349	0.716582
C133	C	0.649265	0.049415	0.216595
C134	C	1.149265	0.549415	0.716595
C135	C	0.677914	0.692821	0.187866
C136	C	1.177914	1.192821	0.687866
C137	C	0.677969	0.880494	0.187883
C138	C	1.177969	1.380494	0.687883
O139	O	0.702441	0.904753	0.163493
O140	O	1.202441	1.404753	0.663493
N141	N	0.649224	0.903970	0.216583
N142	N	1.149224	1.403970	0.716583
C143	C	0.620465	0.880524	0.245283
C144	C	1.120465	1.380524	0.745283
O145	O	0.596020	0.904798	0.269698
O146	O	1.096020	1.404798	0.769698
C147	C	0.620412	0.692852	0.245268
C148	C	1.120412	1.192852	0.745268
C149	C	0.649156	0.669379	0.216563
C150	C	1.149156	1.169379	0.716563
C151	C	0.706656	0.669348	0.159164
C152	C	1.206656	1.169348	0.659164
C153	C	0.706640	0.622433	0.159158
C154	C	1.206640	1.122433	0.659158
C155	C	0.677882	0.598990	0.187854
C156	C	1.177882	1.098990	0.687854
C157	C	0.649140	0.622463	0.216557
C158	C	1.149140	1.122463	0.716557
C159	C	0.591656	0.669407	0.273969
C160	C	1.091656	1.169407	0.773969
C161	C	0.591646	0.622486	0.273964
C162	C	1.091646	1.122486	0.773964
C163	C	0.620390	0.599013	0.245259
C164	C	1.120390	1.099013	0.745259
C165	C	0.620367	0.552106	0.245248
C166	C	1.120367	1.052106	0.745248
N167	N	0.649112	0.528630	0.216548
N168	N	1.149112	1.028630	0.716548
C169	C	0.677869	0.552072	0.187851
C170	C	1.177869	1.052072	0.687851
C171	C	0.620494	0.979055	0.245289
C172	C	1.120494	1.479055	0.745289
C173	C	0.620507	1.025973	0.245292
C174	C	1.120507	1.525973	0.745292
C175	C	0.678012	1.025939	0.187893
C176	C	1.178012	1.525939	0.687893
C177	C	0.677996	0.979021	0.187887
C178	C	1.177996	1.479021	0.687887
C179	C	0.649239	0.955579	0.216589
C180	C	1.149239	1.455579	0.716589
C181	C	0.677834	0.453547	0.187841
C182	C	1.177834	0.953547	0.687841
C183	C	0.677814	0.406627	0.187836
C184	C	1.177814	0.906627	0.687836
C185	C	0.620311	0.406664	0.245237
C186	C	1.120311	0.906664	0.745237
C187	C	0.620329	0.453580	0.245240
C188	C	1.120329	0.953580	0.745240
C189	C	0.649094	0.477020	0.216540
C190	C	1.149094	0.977020	0.716540
O191	O	0.595912	0.527818	0.269629
O192	O	1.095912	1.027818	0.769629
O193	O	0.702318	0.527791	0.163447
O194	O	1.202318	1.027791	0.663447
C195	C	0.677930	0.739737	0.187872
C196	C	1.177930	1.239737	0.687872
C197	C	0.649188	0.763210	0.216574
C198	C	1.149188	1.263210	0.716574
C199	C	0.620430	0.739767	0.245271
C200	C	1.120430	1.239767	0.745271
C201	C	0.649200	0.810128	0.216578
C202	C	1.149200	1.310128	0.716578
C203	C	0.677958	0.833570	0.187881
C204	C	1.177958	1.333570	0.687881
C205	C	0.706703	0.810094	0.159181
C206	C	1.206703	1.310094	0.659181
C207	C	0.706687	0.763179	0.159175
C208	C	1.206687	1.263179	0.659175
C209	C	0.591685	0.763243	0.273971
C210	C	1.091685	1.263243	0.773971
C211	C	0.591703	0.810158	0.273974
C212	C	1.091703	1.310158	0.773974
C213	C	0.620461	0.833601	0.245277
C214	C	1.120461	1.333601	0.745277
C215	C	0.649145	0.216499	0.099827
C216	C	1.149145	0.716499	0.599827
C217	C	0.649227	0.216374	0.049893
C218	C	1.149227	0.716374	0.549893
C219	C	0.677935	0.187718	0.693325
C220	C	1.177935	0.687718	1.193325
C221	C	0.677957	0.187680	0.880998
C222	C	1.177957	0.687680	1.380998
O223	O	0.702399	0.163232	0.905279
O224	O	1.202399	0.663232	1.405279
N225	N	0.649208	0.216402	0.904448
N226	N	1.149208	0.716402	1.404448
C227	C	0.620449	0.245133	0.880976
C228	C	1.120449	0.745133	1.380976
O229	O	0.595993	0.269559	0.905228
O230	O	1.095993	0.769559	1.405228
C231	C	0.620424	0.245169	0.693304
C232	C	1.120424	0.745169	1.193304
C233	C	0.649179	0.216448	0.669857
C234	C	1.149179	0.716448	1.169857
C235	C	0.706687	0.158999	0.669877
C236	C	1.206687	0.658999	1.169877
C237	C	0.706683	0.159011	0.622962
C238	C	1.206683	0.659011	1.122962
C239	C	0.677927	0.187741	0.599494
C240	C	1.177927	0.687741	1.099494
C241	C	0.649175	0.216460	0.622941
C242	C	1.149175	0.716460	1.122941
C243	C	0.591663	0.273898	0.669833
C244	C	1.091663	0.773898	1.169833
C245	C	0.591659	0.273903	0.622912
C246	C	1.091659	0.773903	1.122912
C247	C	0.620414	0.245183	0.599465
C248	C	1.120414	0.745183	1.099465
C249	C	0.620415	0.245202	0.552558
C250	C	1.120415	0.745202	1.052558
N251	N	0.649164	0.216480	0.529108
N252	N	1.149164	0.716480	1.029108
C253	C	0.677920	0.187749	0.552576
C254	C	1.177920	0.687749	1.052576
C255	C	0.620464	0.245113	0.979507
C256	C	1.120464	0.745113	1.479507
C257	C	0.620471	0.245105	1.026425
C258	C	1.120471	0.745105	1.526425
C259	C	0.677979	0.187650	1.026443
C260	C	1.177979	0.687650	1.526443
C261	C	0.677974	0.187661	0.979524
C262	C	1.177974	0.687661	1.479524
C263	C	0.649214	0.216391	0.956057
C264	C	1.149214	0.716391	1.456057
C265	C	0.677910	0.187776	0.454050
C266	C	1.177910	0.687776	0.954050
C267	C	0.677904	0.187792	0.407130
C268	C	1.177904	0.687792	0.907130
C269	C	0.620395	0.245244	0.407116
C270	C	1.120395	0.745244	0.907116
C271	C	0.620401	0.245230	0.454032
C272	C	1.120401	0.745230	0.954032
C273	C	0.649161	0.216493	0.477497
C274	C	1.149161	0.716493	0.977497
O275	O	0.595982	0.269633	0.528248
O276	O	1.095982	0.769633	1.028248
O277	O	0.702366	0.163320	0.528316
O278	O	1.202366	0.663320	1.028316
C279	C	0.677939	0.187706	0.740240
C280	C	1.177939	0.687706	1.240240
C281	C	0.649187	0.216425	0.763688
C282	C	1.149187	0.716425	1.263688
C283	C	0.620431	0.245155	0.740219
C284	C	1.120431	0.745155	1.240219
C285	C	0.649194	0.216417	0.810605
C286	C	1.149194	0.716417	1.310605
C287	C	0.677950	0.187686	0.834074
C288	C	1.177950	0.687686	1.334074
C289	C	0.706699	0.158964	0.810624
C290	C	1.206699	0.658964	1.310624
C291	C	0.706695	0.158976	0.763708
C292	C	1.206695	0.658976	1.263708
C293	C	0.591682	0.273877	0.763669
C294	C	1.091682	0.773877	1.263669
C295	C	0.591689	0.273864	0.810585
C296	C	1.091689	0.773864	1.310585
C297	C	0.620445	0.245133	0.834053
C298	C	1.120445	0.745133	1.334053
H299	H	0.478110	0.268721	0.268545
H300	H	0.978110	0.768721	0.768545
H301	H	0.730047	0.603324	0.135785
H302	H	1.230047	1.103324	0.635785
H303	H	0.701258	0.472626	0.164472
H304	H	1.201258	0.972626	0.664472
H305	H	0.121547	0.135551	0.135861
H306	H	0.621547	0.635551	0.635861
H307	H	-0.094285	0.268759	0.268619
H308	H	0.405715	0.768759	0.768619
C309	C	-0.174746	0.165784	0.111881
C310	C	0.325254	0.665784	0.611881
C311	C	-0.186070	0.156152	0.156387
C312	C	0.313930	0.656152	0.656387
H313	H	-0.190654	0.146253	0.092417
H314	H	0.309346	0.646253	0.592417
H315	H	-0.182462	0.195954	0.105255
H316	H	0.317538	0.695954	0.605255
H317	H	-0.143444	0.161668	0.107787
H318	H	0.356556	0.661668	0.607787
H319	H	-0.217373	0.160270	0.160482
H320	H	0.282627	0.660270	0.660482
H321	H	-0.178358	0.125974	0.163016
H322	H	0.321642	0.625974	0.663016
C323	C	0.767126	0.152740	0.710962
C324	C	1.267126	0.652740	1.210962
C325	C	0.738295	0.127399	0.737936
C326	C	1.238295	0.627399	1.237936
H327	H	0.786634	0.133242	0.695055
H328	H	1.286634	0.633242	1.195055
H329	H	0.750002	0.169848	0.690269
H330	H	1.250002	0.669848	1.190269
H331	H	0.784300	0.172310	0.729269
H332	H	1.284300	0.672310	1.229269
H333	H	0.721119	0.107831	0.719628
H334	H	1.221119	0.607831	1.219628
H335	H	0.755421	0.110283	0.758631
H336	H	1.255421	0.610283	1.258631
H337	H	-0.094283	0.164339	0.164556
H338	H	0.405717	0.664339	0.664556
C339	C	0.201021	0.102076	0.102522
C340	C	0.701021	0.602076	0.602522
C341	C	0.170512	0.127334	0.127688
C342	C	0.670512	0.627334	0.627688
H343	H	0.185108	0.082542	0.083066
H344	H	0.685108	0.582542	0.583066
H345	H	0.219297	0.121623	0.085299
H346	H	0.719297	0.621623	0.585299
H347	H	0.219342	0.084929	0.122135
H348	H	0.719342	0.584929	0.622135
H349	H	0.152193	0.144484	0.108075
H350	H	0.652193	0.644484	0.608075
H351	H	0.152228	0.107785	0.144912
H352	H	0.652228	0.607785	0.644912
C353	C	0.295942	0.152628	0.098778
C354	C	0.795942	0.652628	0.598778
C355	C	0.268995	0.127335	0.127677
C356	C	0.768995	0.627335	0.627677
H357	H	0.311864	0.133099	0.079317
H358	H	0.811864	0.633099	0.579317
H359	H	0.277618	0.172171	0.081562
H360	H	0.777618	0.672171	0.581562
H361	H	0.316626	0.169762	0.115859
H362	H	0.816626	0.669762	0.615859
H363	H	0.248309	0.110203	0.110596
H364	H	0.748309	0.610203	0.610596
H365	H	0.287321	0.107783	0.144896
H366	H	0.787321	0.607783	0.644896
C367	C	0.359377	0.127294	0.181734
C368	C	0.859377	0.627294	0.681734
C369	C	0.386315	0.156103	0.156329
C370	C	0.886315	0.656103	0.656329
H371	H	0.343463	0.107760	0.162279
H372	H	0.843463	0.607760	0.662279
H373	H	0.377707	0.110150	0.201335
H374	H	0.877707	0.610150	0.701335
H375	H	0.338687	0.144435	0.198810
H376	H	0.838687	0.644435	0.698810
H377	H	0.407008	0.138963	0.139255
H378	H	0.907008	0.638963	0.639255
H379	H	0.367983	0.173249	0.136720
H380	H	0.867983	0.673249	0.636720
H381	H	0.568292	0.829266	0.297349
H382	H	1.068292	1.329266	0.797349
H383	H	0.478121	0.164309	0.164485
H384	H	0.978121	0.664309	0.664485
C385	C	0.782792	0.137087	0.825106
C386	C	1.282792	0.637087	1.325106
C387	C	0.738308	0.127383	0.836427
C388	C	1.238308	0.627383	1.336427
H389	H	0.802302	0.117591	0.841040
H390	H	1.302302	0.617591	1.341040
H391	H	0.786906	0.132977	0.793813
H392	H	1.286906	0.632977	1.293813
H393	H	0.789339	0.167272	0.832794
H394	H	1.289339	0.667272	1.332794
H395	H	0.731760	0.097198	0.828736
H396	H	1.231760	0.597198	1.328736
H397	H	0.734192	0.131489	0.867728
H398	H	1.234192	0.631489	1.367728
H399	H	0.121538	0.297512	0.297278
H400	H	0.621538	0.797512	0.797278
H401	H	0.701402	0.959912	0.164514
H402	H	1.201402	1.459912	0.664514
C403	C	0.703433	0.162287	0.335219
C404	C	1.203433	0.662287	0.835219
C405	C	0.709507	0.156214	0.381357
C406	C	1.209507	0.656214	0.881357
H407	H	0.722942	0.142792	0.319310
H408	H	1.222942	0.642792	0.819310
H409	H	0.673254	0.155713	0.327526
H410	H	1.173254	0.655713	0.827526
H411	H	0.709990	0.192474	0.327531
H412	H	1.209990	0.692474	0.827531
H413	H	0.702947	0.126027	0.389046
H414	H	1.202947	0.626027	0.889046
H415	H	0.739692	0.162784	0.389054
H416	H	1.239692	0.662784	0.889054
H417	H	0.730117	0.829189	0.135814
H418	H	1.230117	1.329189	0.635814
H419	H	-0.179407	0.268759	0.268628
H420	H	0.320593	0.768759	0.768628
H421	H	0.596991	0.268621	0.473123
H422	H	1.096991	0.768621	0.973123
H423	H	0.568274	0.297256	0.829671
H424	H	1.068274	0.797256	1.329671
C425	C	0.534841	0.330666	0.768373
C426	C	1.034841	0.830666	1.268373
C427	C	0.560071	0.305461	0.737877
C428	C	1.060071	0.805461	1.237877
H429	H	0.515328	0.350168	0.752451
H430	H	1.015328	0.850168	1.252451
H431	H	0.517676	0.311083	0.786667
H432	H	1.017676	0.811083	1.286667
H433	H	0.554410	0.347845	0.786678
H434	H	1.054410	0.847845	1.286678
H435	H	0.540502	0.288279	0.719574
H436	H	1.040502	0.788279	1.219574
H437	H	0.577237	0.325046	0.719575
H438	H	1.077237	0.825046	1.219575
H439	H	0.262285	0.297506	0.297258
H440	H	0.762285	0.797506	0.797258
C441	C	-0.016397	0.299630	0.299409
C442	C	0.483603	0.799630	0.799409
C443	C	0.029736	0.305710	0.305462
C444	C	0.529736	0.805710	0.805462
H445	H	-0.032321	0.319152	0.318876
H446	H	0.467679	0.819152	0.818876
H447	H	-0.024101	0.306162	0.269216
H448	H	0.475899	0.806162	0.769216
H449	H	-0.024057	0.269452	0.306037
H450	H	0.475943	0.769452	0.806037
H451	H	0.037396	0.335887	0.298831
H452	H	0.537396	0.835887	0.798831
H453	H	0.037443	0.299182	0.335662
H454	H	0.537443	0.799182	0.835662
C455	C	0.734817	0.130870	0.984266
C456	C	1.234817	0.630870	1.484266
C457	C	0.709578	0.156087	0.953754
C458	C	1.209578	0.656087	1.453754
H459	H	0.754326	0.111374	0.968357
H460	H	1.254326	0.611374	1.468357
H461	H	0.751987	0.150445	1.002565
H462	H	1.251987	0.650445	1.502565
H463	H	0.715254	0.113683	1.002566
H464	H	1.215254	0.613683	1.502566
H465	H	0.729141	0.173277	0.935456
H466	H	1.229141	0.673277	1.435456
H467	H	0.692406	0.136509	0.935448
H468	H	1.192406	0.636509	1.435448
H469	H	0.568248	0.297285	0.688916
H470	H	1.068248	0.797285	1.188916
H471	H	0.393001	0.268723	0.268566
H472	H	0.893001	0.768723	0.768566
C473	C	0.060261	0.102096	0.102533
C474	C	0.560261	0.602096	0.602533
C475	C	0.029756	0.127353	0.127704
C476	C	0.529756	0.627353	0.627704
H477	H	0.044346	0.082563	0.083078
H478	H	0.544346	0.582563	0.583078
H479	H	0.078537	0.121644	0.085309
H480	H	0.578537	0.621644	0.585309
H481	H	0.078584	0.084947	0.122143
H482	H	0.578584	0.584947	0.622143
H483	H	0.011435	0.144505	0.108093
H484	H	0.511435	0.644505	0.608093
H485	H	0.011473	0.107804	0.144929
H486	H	0.511473	0.607804	0.644929
C487	C	0.569708	0.608035	0.350015
C488	C	1.069708	1.108035	0.850015
C489	C	0.560035	0.596720	0.305514
C490	C	1.060035	1.096720	0.805514
H491	H	0.550191	0.592130	0.369491
H492	H	1.050191	1.092130	0.869491
H493	H	0.599882	0.600312	0.356616
H494	H	1.099882	1.100312	0.856616
H495	H	0.565603	0.639338	0.354119
H496	H	1.065603	1.139338	0.854119
H497	H	0.564143	0.565417	0.301409
H498	H	1.064143	1.065417	0.801409
H499	H	0.529853	0.604440	0.298911
H500	H	1.029853	1.104440	0.798911
C501	C	0.767107	0.152762	0.570207
C502	C	1.267107	0.652762	1.070207
C503	C	0.738275	0.127429	0.597186
C504	C	1.238275	0.627429	1.097186
H505	H	0.786608	0.133260	0.554297
H506	H	1.286608	0.633260	1.054297
H507	H	0.749983	0.169874	0.549517
H508	H	1.249983	0.669874	1.049517
H509	H	0.784288	0.172329	0.588511
H510	H	1.284288	0.672329	1.088511
H511	H	0.721091	0.107865	0.578881
H512	H	1.221091	0.607865	1.078881
H513	H	0.755401	0.110309	0.617878
H514	H	1.255401	0.610309	1.117878
H515	H	0.701220	0.387517	0.164459
H516	H	1.201220	0.887517	0.664459
H517	H	0.730076	0.688430	0.135795
H518	H	1.230076	1.188430	0.635795
H519	H	0.568233	0.297294	0.603808
H520	H	1.068233	0.797294	1.103808
H521	H	0.701327	0.164374	0.473150
H522	H	1.201327	0.664374	0.973150
H523	H	0.701427	1.045034	0.164527
H524	H	1.201427	1.545034	0.664527
C525	C	0.534842	0.767998	0.330700
C526	C	1.034842	1.267998	0.830700
C527	C	0.560068	0.737479	0.305513
C528	C	1.060068	1.237479	0.805513
H529	H	0.515318	0.752093	0.350170
H530	H	1.015318	1.252093	0.850170
H531	H	0.554410	0.786268	0.347909
H532	H	1.054410	1.286268	0.847909
H533	H	0.517685	0.786325	0.311101
H534	H	1.017685	1.286325	0.811101
H535	H	0.577228	0.719154	0.325111
H536	H	1.077228	1.219154	0.825111
H537	H	0.540497	0.719202	0.288302
H538	H	1.040497	1.219202	0.788302
C539	C	0.200999	0.330964	0.330601
C540	C	0.700999	0.830964	0.830601
C541	C	0.170494	0.305713	0.305440
C542	C	0.670494	0.805713	0.805440
H543	H	0.185084	0.350500	0.350061
H544	H	0.685084	0.850500	0.850061
H545	H	0.219314	0.311413	0.347820
H546	H	0.719314	0.811413	0.847820
H547	H	0.219283	0.348110	0.310986
H548	H	0.719283	0.848110	0.810986
H549	H	0.152213	0.288564	0.325055
H550	H	0.652213	0.788564	0.825055
H551	H	0.152171	0.325266	0.288220
H552	H	0.652171	0.825266	0.788220
C553	C	0.594854	0.270759	0.335182
C554	C	1.094854	0.770759	0.835182
C555	C	0.588785	0.276821	0.381314
C556	C	1.088785	0.776821	0.881314
H557	H	0.575334	0.290250	0.319253
H558	H	1.075334	0.790250	0.819253
H559	H	0.625028	0.277345	0.327504
H560	H	1.125028	0.777345	0.827504
H561	H	0.588306	0.240571	0.327502
H562	H	1.088306	0.740571	0.827502
H563	H	0.595335	0.307008	0.388994
H564	H	1.095335	0.807008	0.888994
H565	H	0.558603	0.270238	0.388994
H566	H	1.058603	0.770238	0.888994
C567	C	0.563668	1.021281	0.302030
C568	C	1.063668	1.521281	0.802030
C569	C	0.588908	1.051771	0.276843
C570	C	1.088908	1.551771	0.776843
H571	H	0.544164	1.037207	0.321512
H572	H	1.044164	1.537207	0.821512
H573	H	0.546494	1.003007	0.282435
H574	H	1.046494	1.503007	0.782435
H575	H	0.583232	1.002955	0.319230
H576	H	1.083232	1.502955	0.819230
H577	H	0.569345	1.070095	0.259640
H578	H	1.069345	1.570095	0.759640
H579	H	0.606084	1.070053	0.296440
H580	H	1.106084	1.570053	0.796440
H581	H	0.597076	0.959972	0.268661
H582	H	1.097076	1.459972	0.768661
C583	C	0.563489	0.448897	0.301979
C584	C	1.063489	0.948897	0.801979
C585	C	0.588734	0.479384	0.276792
C586	C	1.088734	0.979384	0.776792
H587	H	0.543989	0.464826	0.321462
H588	H	1.043989	0.964826	0.821462
H589	H	0.546310	0.430628	0.282383
H590	H	1.046310	0.930628	0.782383
H591	H	0.583050	0.430567	0.319177
H592	H	1.083050	0.930567	0.819177
H593	H	0.569173	0.497713	0.259591
H594	H	1.069173	0.997713	0.759591
H595	H	0.605914	0.497661	0.296390
H596	H	1.105914	0.997661	0.796390
H597	H	0.568248	0.688511	0.297342
H598	H	1.068248	1.188511	0.797342
H599	H	0.596895	0.387570	0.268600
H600	H	1.096895	0.887570	0.768600
C601	C	0.763530	0.767874	0.102443
C602	C	1.263530	1.267874	0.602443
C603	C	0.738287	0.737381	0.127625
C604	C	1.238287	1.237381	0.627625
H605	H	0.783041	0.751948	0.082967
H606	H	1.283041	1.251948	0.582967
H607	H	0.743972	0.786196	0.085241
H608	H	1.243972	1.286196	0.585241
H609	H	0.780701	0.786151	0.122045
H610	H	1.280701	1.286151	0.622045
H611	H	0.721113	0.719107	0.108023
H612	H	1.221113	1.219107	0.608023
H613	H	0.757847	0.719051	0.144828
H614	H	1.257847	1.219051	0.644828
C615	C	0.703509	0.162122	1.098377
C616	C	1.203509	0.662122	1.598377
C617	C	0.709582	0.156063	1.052245
C618	C	1.209582	0.656063	1.552245
H619	H	0.723015	0.142618	1.114307
H620	H	1.223015	0.642618	1.614307
H621	H	0.710069	0.192302	1.106062
H622	H	1.210069	0.692302	1.606062
H623	H	0.673326	0.155549	1.106049
H624	H	1.173326	0.655549	1.606049
H625	H	0.739765	0.162640	1.044572
H626	H	1.239765	0.662640	1.544572
H627	H	0.703026	0.125877	1.044558
H628	H	1.203026	0.625877	1.544558
C629	C	0.563624	0.301893	1.021682
C630	C	1.063624	0.801893	1.521682
C631	C	0.588865	0.276678	1.052195
C632	C	1.088865	0.776678	1.552195
H633	H	0.544109	0.321382	1.037591
H634	H	1.044109	0.821382	1.537591
H635	H	0.583183	0.319083	1.003387
H636	H	1.083183	0.819083	1.503387
H637	H	0.546457	0.282313	1.003379
H638	H	1.046457	0.782313	1.503379
H639	H	0.606036	0.296258	1.070496
H640	H	1.106036	0.796258	1.570496
H641	H	0.569305	0.259487	1.070497
H642	H	1.069305	0.759487	1.570497
H643	H	0.730104	0.135601	0.688980
H644	H	1.230104	0.635601	1.188980
H645	H	0.597044	0.268511	0.960404
H646	H	1.097044	0.768511	1.460404
