data_functionalizedCrystal
_audit_creation_method	'MofGen! by Chris Wilmer'
_symmetry_space_group_name_H-M	'P1'
_symmetry_Int_Tables_number	1
_symmetry_cell_setting	triclinic
loop_
_symmetry_equiv_pos_as_xyz
  x,y,z
_cell_length_a	13.032831
_cell_length_b	16.120444
_cell_length_c	16.120256
_cell_angle_alpha	95.616860
_cell_angle_beta	86.057501
_cell_angle_gamma	86.079645
loop_
_atom_site_label
_atom_site_type_symbol
_atom_site_fract_x
_atom_site_fract_y
_atom_site_fract_z
Zn1	Zn	1.523142	-0.519561	-0.651752
Zn2	Zn	1.523010	-0.652233	-0.519049
Zn3	Zn	1.359933	-0.495049	-0.494607
Zn4	Zn	1.341469	-0.639875	-0.639430
O5	O	1.436888	-0.576680	-0.576210
O6	O	1.667404	-0.552591	-0.649535
O7	O	1.509049	-0.626296	-0.399662
O8	O	1.389366	-0.382166	-0.510381
O9	O	1.667306	-0.650065	-0.552039
O10	O	1.509275	-0.400176	-0.625834
O11	O	1.389237	-0.510813	-0.381704
O12	O	1.213204	-0.498830	-0.498432
O13	O	1.357897	-0.629002	-0.757209
O14	O	1.199639	-0.605233	-0.604832
O15	O	1.491371	-0.540608	-0.766263
O16	O	1.491145	-0.766728	-0.540090
O17	O	1.357768	-0.757649	-0.628533
C18	C	1.169012	-0.548031	-0.547643
C19	C	1.054410	-0.535796	-0.535443
C20	C	0.996633	-0.583066	-0.582577
C21	C	0.878186	-0.570421	-0.569969
C22	C	1.422465	-0.792305	-0.585648
C23	C	1.416388	-0.884561	-0.589723
C24	C	1.468658	-1.099057	-0.555273
C25	C	1.405309	-1.053473	-0.597175
C26	C	1.411475	-0.959482	-0.593028
C27	C	1.462494	-1.193056	-0.559419
C28	C	1.705811	-0.605441	-0.604888
C29	C	1.820410	-0.617697	-0.617109
C30	C	1.422589	-0.586161	-0.792693
C31	C	1.416496	-0.590201	-0.884946
C32	C	1.451395	-0.360217	-0.566756
C33	C	1.457577	-0.267973	-0.562727
C34	C	1.468665	-0.555589	-1.099430
C35	C	1.405338	-0.597540	-1.053842
C36	C	1.411548	-0.593455	-0.959859
C37	C	1.462457	-0.559672	-1.193421
C38	C	1.451196	-0.567182	-0.360572
C39	C	1.457504	-0.562929	-0.268331
H40	H	1.034857	-0.632893	-0.632267
Cl41	Cl	1.559554	-0.495394	-1.050713
Cl42	Cl	1.314421	-1.102200	-0.657367
Cl43	Cl	1.314433	-0.657729	-1.102556
Cl44	Cl	0.819185	-0.493477	-0.493253
Cl45	Cl	0.879408	-0.694625	-0.693841
H46	H	1.016186	-0.485963	-0.485759
H47	H	1.527518	-1.067497	-0.516287
