data_functionalizedCrystal
_audit_creation_method	'MofGen! by Chris Wilmer'
_symmetry_space_group_name_H-M	'P1'
_symmetry_Int_Tables_number	1
_symmetry_cell_setting	triclinic
loop_
_symmetry_equiv_pos_as_xyz
  x,y,z
_cell_length_a	12.594517
_cell_length_b	12.594516
_cell_length_c	12.594510
_cell_angle_alpha	89.966003
_cell_angle_beta	89.977994
_cell_angle_gamma	90.011248
loop_
_atom_site_label
_atom_site_type_symbol
_atom_site_fract_x
_atom_site_fract_y
_atom_site_fract_z
Zn1	Zn	1.627296	-0.423662	-0.601888
Zn2	Zn	1.627201	-0.601691	-0.423910
Zn3	Zn	1.449301	-0.423725	-0.423914
Zn4	Zn	1.449295	-0.601597	-0.601838
O5	O	1.538273	-0.512669	-0.512888
O6	O	1.776229	-0.447291	-0.578298
O7	O	1.603564	-0.578149	-0.274965
O8	O	1.472954	-0.274771	-0.447545
O9	O	1.776159	-0.578088	-0.447539
O10	O	1.603727	-0.274724	-0.578302
O11	O	1.472862	-0.447399	-0.274968
O12	O	1.300354	-0.447307	-0.447496
O13	O	1.472945	-0.577928	-0.750790
O14	O	1.300350	-0.577989	-0.578216
O15	O	1.603722	-0.447199	-0.750827
O16	O	1.603559	-0.750624	-0.447490
O17	O	1.472853	-0.750555	-0.578213
C18	C	1.261732	-0.512646	-0.512852
C19	C	1.143427	-0.512661	-0.512862
C20	C	1.003381	-0.441506	-0.441926
C21	C	1.074238	-0.415562	-0.539052
C22	C	1.074142	-0.538557	-0.415746
C23	C	1.003498	-0.486709	-0.610117
C24	C	1.003396	-0.609750	-0.486746
C25	C	1.074220	-0.583843	-0.583939
C26	C	1.538224	-0.789210	-0.512869
C27	C	1.538300	-0.907515	-0.512897
C28	C	1.609474	-0.976767	-0.441873
C29	C	1.635484	-1.047454	-0.539022
C30	C	1.512423	-1.047628	-0.415809
C31	C	1.564360	-0.976643	-0.610098
C32	C	1.441254	-0.976811	-0.486818
C33	C	1.467227	-1.047466	-0.584035
C34	C	1.815894	-0.512693	-0.512924
C35	C	1.934200	-0.512703	-0.512939
C36	C	1.538344	-0.512546	-0.790509
C37	C	1.538373	-0.512494	-0.908814
C38	C	1.538352	-0.235048	-0.512929
C39	C	1.538385	-0.116742	-0.512947
C40	C	1.609524	-0.441385	-0.978087
C41	C	1.512446	-0.415332	-1.048877
C42	C	1.635508	-0.538473	-1.048824
C43	C	1.441244	-0.486390	-0.978045
C44	C	1.564372	-0.609576	-0.977986
C45	C	1.467227	-0.583559	-1.048744
C46	C	1.538264	-0.512714	-0.236347
C47	C	1.538441	-0.512467	-0.118042
H48	H	0.972595	-0.464729	-0.692303
H49	H	1.407074	-1.078313	-0.644189
H50	H	1.669673	-0.945723	-0.381864
H51	H	1.105177	-0.560442	-0.333584
C52	C	1.482795	-1.089743	-0.304863
C53	C	1.552411	-1.061854	-0.208332
C54	C	1.522793	-1.103964	-0.097384
C55	C	1.423559	-1.173964	-0.082968
C56	C	1.353938	-1.201856	-0.179502
C57	C	1.383556	-1.159746	-0.290450
H58	H	1.625875	-1.010033	-0.219001
H59	H	1.574332	-1.083316	-0.025923
H60	H	1.401634	-1.205136	-0.000838
H61	H	1.280474	-1.253677	-0.168833
H62	H	1.332017	-1.180395	-0.361911
H63	H	1.359103	-0.464310	-0.947085
C64	C	1.330368	-0.934843	-0.456945
C65	C	1.268251	-0.864877	-0.535667
C66	C	1.157365	-0.822906	-0.505780
C67	C	1.108596	-0.850902	-0.397171
C68	C	1.170713	-0.920872	-0.318441
C69	C	1.281599	-0.962843	-0.348329
H70	H	1.304352	-0.844149	-0.616073
H71	H	1.111381	-0.771109	-0.564061
H72	H	1.026511	-0.819833	-0.375046
H73	H	1.134612	-0.941600	-0.238036
H74	H	1.327583	-1.014640	-0.290048
H75	H	1.669588	-0.381216	-0.947059
C76	C	1.594113	-0.934712	-0.721079
C77	C	1.599611	-0.814279	-0.741547
C78	C	1.629367	-0.772345	-0.852524
C79	C	1.653626	-0.850844	-0.943033
C80	C	1.648129	-0.971284	-0.922568
C81	C	1.618372	-1.013218	-0.811591
H82	H	1.581652	-0.756162	-0.674544
H83	H	1.633436	-0.683187	-0.867674
H84	H	1.675653	-0.819802	-1.025185
H85	H	1.666087	-1.029401	-0.989570
H86	H	1.614303	-1.102376	-0.796441
H87	H	0.972256	-0.691814	-0.464590
H88	H	1.490479	-0.333220	-1.080016
C89	C	1.116286	-0.304671	-0.568945
C90	C	1.236735	-0.284597	-0.575320
C91	C	1.278779	-0.173704	-0.605203
C92	C	1.200374	-0.082884	-0.628711
C93	C	1.079917	-0.102955	-0.622336
C94	C	1.037873	-0.213848	-0.592453
H95	H	1.294782	-0.351830	-0.557918
H96	H	1.367950	-0.158847	-0.609922
H97	H	1.231497	-0.000794	-0.650832
H98	H	1.021870	-0.035722	-0.639739
H99	H	0.948703	-0.228705	-0.587734
H100	H	1.407016	-0.643682	-1.079572
H101	H	1.586367	-0.691665	-0.946827
C102	C	1.746440	-0.568184	-1.090824
C103	C	1.837260	-0.591515	-1.012381
C104	C	1.948193	-0.621216	-1.054377
C105	C	1.968307	-0.627587	-1.174816
C106	C	1.877486	-0.604255	-1.253267
C107	C	1.766552	-0.574554	-1.211271
H108	H	1.822372	-0.586800	-0.923217
H109	H	2.015425	-0.638488	-0.996302
H110	H	2.050427	-0.649574	-1.205904
H111	H	1.892373	-0.608970	-1.342431
H112	H	1.699320	-0.557282	-1.269347
C113	C	0.961350	-0.360136	-0.360946
C114	C	0.989325	-0.241726	-0.373175
C115	C	0.947291	-0.160355	-0.292202
C116	C	0.877281	-0.197394	-0.198999
C117	C	0.849301	-0.315811	-0.186766
C118	C	0.891336	-0.397182	-0.267739
H119	H	1.041154	-0.214302	-0.442173
H120	H	0.968004	-0.072695	-0.301259
H121	H	0.846164	-0.137159	-0.139058
H122	H	0.797472	-0.343235	-0.117768
H123	H	0.870623	-0.484841	-0.258682
C124	C	1.115986	-0.665158	-0.665110
C125	C	1.087867	-0.653301	-0.783506
C126	C	1.129636	-0.734609	-0.864679
C127	C	1.199523	-0.827774	-0.827456
C128	C	1.227645	-0.839635	-0.709054
C129	C	1.185877	-0.758326	-0.627881
H130	H	1.036129	-0.584331	-0.811066
H131	H	1.108817	-0.725829	-0.952328
H132	H	1.230442	-0.887964	-0.887545
H133	H	1.279383	-0.908605	-0.681493
H134	H	1.206695	-0.767107	-0.540231
H135	H	1.717591	-1.078487	-0.561108
