data_functionalizedCrystal
_audit_creation_method	'MofGen! by Chris Wilmer'
_symmetry_space_group_name_H-M	'P1'
_symmetry_Int_Tables_number	1
_symmetry_cell_setting	triclinic
loop_
_symmetry_equiv_pos_as_xyz
  x,y,z
_cell_length_a	10.489716
_cell_length_b	10.489716
_cell_length_c	14.586319
_cell_angle_alpha	90.000245
_cell_angle_beta	89.996864
_cell_angle_gamma	84.529136
loop_
_atom_site_label
_atom_site_type_symbol
_atom_site_fract_x
_atom_site_fract_y
_atom_site_fract_z
O1	O	1.694054	0.179819	-0.076224
O2	O	1.322853	0.196745	-0.076227
O3	O	1.516917	0.002681	-0.076228
O4	O	1.499991	0.373883	-0.076222
O5	O	1.516903	0.002678	0.076252
O6	O	1.322840	0.196742	0.076254
O7	O	1.694041	0.179816	0.076257
Cu8	Cu	1.508439	0.188279	0.090178
Cu9	Cu	1.508455	0.188282	-0.090148
O10	O	1.499977	0.373880	0.076259
C11	C	1.275314	0.195472	0.000013
C12	C	1.133684	0.191667	0.000012
C13	C	1.515638	-0.044852	0.000009
C14	C	1.511833	-0.186483	0.000001
C15	C	1.035999	0.310673	0.000012
C16	C	0.958652	0.247786	0.075196
C17	C	0.958672	0.247761	-0.075138
C18	C	1.058202	0.128830	0.075258
C19	C	1.058227	0.128822	-0.075144
C20	C	0.980929	0.065848	0.000059
C21	C	1.630839	-0.284167	0.000010
C22	C	1.567960	-0.361521	-0.075169
C23	C	1.567920	-0.361488	0.075165
C24	C	1.449004	-0.261971	-0.075240
C25	C	1.448981	-0.261933	0.075161
C26	C	1.386015	-0.339237	-0.000036
C27	C	1.741580	0.181089	0.000015
C28	C	1.883210	0.184894	0.000010
C29	C	1.501256	0.421413	0.000019
C30	C	1.505061	0.563044	0.000021
N31	N	1.508437	0.188276	0.217010
N32	N	1.508467	0.188276	-0.216980
C33	C	1.594397	0.102374	0.452016
C34	C	1.594401	0.102370	0.547997
C35	C	1.422498	0.274182	0.548008
C36	C	1.422489	0.274177	0.452028
C37	C	1.508446	0.188275	0.404035
C38	C	1.508458	0.188276	0.595996
C39	C	1.508462	0.188273	0.700063
C40	C	1.508441	0.188276	0.299961
H41	H	1.060659	0.414190	0.000084
H42	H	1.352515	0.344123	0.587094
F43	F	1.114812	0.063204	0.158422
F44	F	0.901802	0.313446	0.158277
H45	H	1.618203	-0.405019	-0.138728
H46	H	1.101733	0.078625	-0.138710
F47	F	0.948999	-0.069551	0.000113
F48	F	0.901838	0.313455	-0.158207
F49	F	1.766138	-0.251922	-0.000086
H50	H	1.352491	0.344129	0.412960
F51	F	1.383387	-0.205368	-0.158410
H52	H	1.282422	-0.363659	-0.000077
F53	F	1.383388	-0.205021	0.158242
F54	F	1.633605	-0.418314	0.158239
F55	F	1.685877	0.010945	0.400941
H56	H	1.664388	0.032420	0.587060
