data_functionalizedCrystal
_audit_creation_method	'MofGen! by Chris Wilmer'
_symmetry_space_group_name_H-M	'P1'
_symmetry_Int_Tables_number	1
_symmetry_cell_setting	triclinic
loop_
_symmetry_equiv_pos_as_xyz
  x,y,z
_cell_length_a	31.640172
_cell_length_b	19.851628
_cell_length_c	19.851628
_cell_angle_alpha	89.994768
_cell_angle_beta	119.996679
_cell_angle_gamma	59.995139
loop_
_atom_site_label
_atom_site_type_symbol
_atom_site_fract_x
_atom_site_fract_y
_atom_site_fract_z
Zr1	Zr	0.462524	-0.088298	-0.649088
O2	O	0.550710	-0.195880	-0.541529
O3	O	0.374351	-0.055319	-0.682047
O4	O	0.462528	-0.195860	-0.682055
O5	O	0.462525	0.055522	-0.541530
O6	O	0.462517	-0.195843	-0.792920
O7	O	0.462533	-0.055339	-0.541521
O8	O	0.304784	0.055558	-0.792906
O9	O	0.620257	-0.195878	-0.541544
O10	O	0.410604	-0.041240	-0.778857
O11	O	0.410607	0.041482	-0.696127
O12	O	0.514424	-0.123986	-0.696136
O13	O	0.514427	-0.041264	-0.613406
Zr14	Zr	0.462492	0.088541	-0.825919
Zr15	Zr	0.462505	-0.088271	-0.825904
Zr16	Zr	0.462511	0.088514	-0.649102
Zr17	Zr	0.573444	-0.088296	-0.649112
Zr18	Zr	0.351572	0.088539	-0.825894
O19	O	0.550665	0.055563	-0.792959
O20	O	0.550683	-0.195841	-0.792939
O21	O	0.550691	0.055524	-0.541549
O22	O	0.374306	0.196123	-0.933477
O23	O	0.374325	-0.055281	-0.933457
O24	O	0.374333	0.196084	-0.682067
O25	O	0.462491	-0.055279	-0.933476
O26	O	0.462488	0.196103	-0.792951
O27	O	0.462499	0.196086	-0.682087
O28	O	0.462483	0.055583	-0.933485
O29	O	0.620243	-0.195857	-0.682090
O30	O	0.304773	0.196100	-0.792917
O31	O	0.304759	0.196121	-0.933462
O32	O	0.304769	0.055580	-0.933451
O33	O	0.620247	-0.055337	-0.541556
O34	O	0.620232	-0.055315	-0.682101
O35	O	0.410592	0.124229	-0.778870
O36	O	0.410589	0.041507	-0.861601
O37	O	0.514409	-0.041239	-0.778880
O38	O	0.514412	0.041484	-0.696149
C39	C	0.323764	0.000119	-0.737473
C40	C	0.276675	0.000118	-0.737463
C41	C	0.462531	0.000088	-0.516333
C42	C	0.462539	0.000076	-0.441270
C43	C	0.462492	0.221286	-0.737521
C44	C	0.462486	0.296347	-0.737527
C45	C	-0.015368	-0.043051	-0.780704
C46	C	-0.192364	-0.043051	-0.780721
O47	O	-0.215270	-0.079744	-0.817478
N48	N	-0.214492	0.000128	-0.737536
C49	C	-0.192370	0.043314	-0.694347
O50	O	-0.215257	0.080047	-0.657623
C51	C	-0.015379	0.043318	-0.694336
C52	C	0.006751	0.000130	-0.737517
C53	C	0.006761	-0.086235	-0.823883
C54	C	0.051010	-0.086238	-0.823874
C55	C	0.073129	-0.043058	-0.780687
C56	C	0.051000	0.000126	-0.737509
C57	C	0.006739	0.086508	-0.651153
C58	C	0.050989	0.086507	-0.651155
C59	C	0.073118	0.043319	-0.694337
C60	C	0.117368	0.043303	-0.694314
N61	N	0.139495	0.000125	-0.737499
C62	C	0.117376	-0.043056	-0.780686
C63	C	-0.285293	0.043307	-0.694355
C64	C	-0.329540	0.043305	-0.694357
C65	C	-0.329531	-0.043058	-0.780732
C66	C	-0.285280	-0.043060	-0.780725
C67	C	-0.263165	0.000129	-0.737541
C68	C	0.210302	-0.043060	-0.780665
C69	C	0.254556	-0.043062	-0.780650
C70	C	0.254541	0.043304	-0.694278
C71	C	0.210293	0.043303	-0.694289
C72	C	0.188173	0.000120	-0.737489
O73	O	0.140296	0.079985	-0.657583
O74	O	0.140261	-0.079768	-0.817420
C75	C	-0.059617	-0.043048	-0.780713
C76	C	-0.081746	0.000136	-0.737534
C77	C	-0.059627	0.043317	-0.694347
C78	C	-0.125993	0.000134	-0.737535
C79	C	-0.148112	-0.043046	-0.780722
C80	C	-0.125985	-0.086225	-0.823908
C81	C	-0.081736	-0.086228	-0.823900
C82	C	-0.081754	0.086495	-0.651162
C83	C	-0.126002	0.086494	-0.651173
C84	C	-0.148122	0.043314	-0.694360
C85	C	0.601252	0.000124	-0.737534
C86	C	0.648341	0.000125	-0.737544
C87	C	0.462524	-0.221043	-0.737485
C88	C	0.462530	-0.296104	-0.737479
C89	C	0.405892	0.522809	-0.782613
C90	C	0.434183	0.545170	-0.815314
C91	C	0.462502	0.433754	-0.737512
C92	C	0.434208	0.545133	-0.704834
C93	C	0.462512	0.566486	-0.737497
C94	C	0.490792	0.455127	-0.770258
C95	C	0.490809	0.455092	-0.659734
C96	C	0.519141	0.477401	-0.692416
C97	C	0.462494	0.357292	-0.737522
C98	C	0.462525	0.642943	-0.737488
C99	C	0.519139	-0.045019	-0.214817
C100	C	0.490848	-0.077710	-0.192446
C101	C	0.462528	0.000095	-0.303860
C102	C	0.490827	0.032767	-0.192486
C103	C	0.462522	0.000113	-0.171124
C104	C	0.434237	-0.032642	-0.282478
C105	C	0.434224	0.077879	-0.282515
C106	C	0.405892	0.045207	-0.260197
C107	C	0.462534	0.000083	-0.380324
C108	C	0.462512	0.000125	-0.094665
C109	C	0.462493	0.000147	0.041333
C110	C	0.462509	0.000135	-0.033711
C111	C	0.323740	0.000153	-0.958643
C112	C	0.276644	0.000164	-1.033696
C113	C	0.323747	0.221284	-0.737491
C114	C	0.276653	0.296344	-0.737487
C115	C	0.323724	0.221318	-0.958661
C116	C	0.276622	0.296389	-1.033720
C117	C	0.601292	-0.221074	-0.516345
C118	C	0.648394	-0.296146	-0.441286
C119	C	0.601276	0.000090	-0.516363
C120	C	0.648372	0.000079	-0.441310
C121	C	0.601269	-0.221041	-0.737516
C122	C	0.648363	-0.296101	-0.737520
C123	C	0.254535	-0.043032	-1.025750
C124	C	0.210288	-0.043039	-1.096264
C125	C	0.188150	0.000156	-1.174722
C126	C	0.210263	0.043353	-1.182666
C127	C	0.254511	0.043354	-1.112153
C128	C	0.254530	0.374794	-0.780676
C129	C	0.210286	0.445328	-0.780669
C130	C	0.188164	0.437410	-0.737477
C131	C	0.210292	0.358952	-0.694282
C132	C	0.254538	0.288420	-0.694285
C133	C	0.254501	0.288464	-1.112160
C134	C	0.210250	0.358995	-1.182693
C135	C	0.188117	0.437451	-1.174783
C136	C	0.210243	0.445375	-1.096335
C137	C	0.254496	0.374845	-1.025804
C138	C	0.670520	-0.288221	-0.362846
C139	C	0.714785	-0.358752	-0.292314
C140	C	0.736920	-0.437208	-0.300223
C141	C	0.714792	-0.445132	-0.378672
C142	C	0.670531	-0.374602	-0.449202
C143	C	0.670486	0.043268	-0.449256
C144	C	0.714744	0.043255	-0.378743
C145	C	0.736885	0.000058	-0.300285
C146	C	0.714769	-0.043136	-0.292340
C147	C	0.670515	-0.043127	-0.362853
C148	C	0.670471	-0.288157	-0.780720
C149	C	0.714715	-0.358677	-0.780741
C150	C	0.736853	-0.437141	-0.737555
C151	C	0.714740	-0.445084	-0.694353
C152	C	0.670494	-0.374564	-0.694338
H153	H	0.272574	-0.078234	-0.815812
H154	H	0.152136	0.494849	-0.737481
H155	H	0.358027	0.541264	-0.820806
Cl156	Cl	0.132521	0.000148	-1.263359
H157	H	-0.011272	0.121677	-0.615991
Cl158	Cl	0.642712	-0.384566	-0.640014
Cl159	Cl	0.078787	0.140806	-0.596863
H160	H	0.272501	0.381309	-0.961937
Cl161	Cl	0.182412	0.544012	-1.086405
H162	H	0.652501	-0.224344	-0.356390
H163	H	0.410332	-0.060342	-0.321166
Cl164	Cl	0.742592	-0.348772	-0.193703
H165	H	0.272515	0.224587	-1.118616
H166	H	0.652453	-0.224274	-0.815887
Cl167	Cl	-0.357346	0.097588	-0.640056
Cl168	Cl	0.527792	-0.179258	-0.132522
H169	H	0.192289	-0.078215	-1.089779
Cl170	Cl	0.331953	0.104058	-0.288833
Cl171	Cl	0.742508	-0.348673	-0.835050
H172	H	0.192231	0.078520	-1.246556
H173	H	0.272507	0.078534	-1.118635
H174	H	0.410315	0.143639	-0.321324
Cl175	Cl	0.282356	0.097586	-0.639990
Cl176	Cl	0.282330	0.384770	-0.834983
Cl177	Cl	0.792562	-0.525868	-0.211546
H178	H	0.732820	-0.509019	-0.385102
H179	H	0.192273	0.352517	-0.659116
H180	H	0.567004	-0.083223	-0.196373
H181	H	0.514761	0.060392	-0.153691
H182	H	-0.063721	-0.121396	-0.859062
Cl183	Cl	-0.257466	-0.097353	-0.835015
Cl184	Cl	0.182475	0.543951	-0.834978
Cl185	Cl	0.792479	-0.525787	-0.737579
Cl186	Cl	0.282360	-0.097345	-0.927125
H187	H	0.410253	0.583985	-0.881084
H188	H	-0.011246	-0.121397	-0.859055
Cl189	Cl	0.282341	0.189800	-0.639989
H190	H	0.732743	0.078431	-0.385227
Cl191	Cl	-0.153799	-0.140511	-0.878197
H192	H	0.192240	0.352529	-1.246563
H193	H	0.652463	0.078450	-0.513135
Cl194	Cl	0.527724	0.395164	-0.558212
H195	H	0.152083	0.494875	-1.232221
H196	H	0.732772	-0.508978	-0.659192
Cl197	Cl	0.642716	-0.384580	-0.547810
Cl198	Cl	0.742607	-0.097433	-0.193700
Cl199	Cl	0.182500	-0.097348	-0.834974
H200	H	0.069023	-0.121403	-0.859039
Cl201	Cl	0.642716	-0.097421	-0.352849
Cl202	Cl	-0.357347	-0.097340	-0.835026
Cl203	Cl	-0.257497	0.097608	-0.640060
H204	H	0.772920	0.000057	-0.242875
H205	H	0.192281	0.078460	-0.659117
Cl206	Cl	-0.153815	0.140790	-0.596878
H207	H	-0.063751	0.121661	-0.615995
Cl208	Cl	0.527695	0.395391	-0.813038
H209	H	0.410277	0.583932	-0.677202
Cl210	Cl	0.593099	0.448678	-0.633537
