data_functionalizedCrystal
_audit_creation_method	'MofGen! by Chris Wilmer'
_symmetry_space_group_name_H-M	'P1'
_symmetry_Int_Tables_number	1
_symmetry_cell_setting	triclinic
loop_
_symmetry_equiv_pos_as_xyz
  x,y,z
_cell_length_a	19.288840
_cell_length_b	22.610064
_cell_length_c	23.532357
_cell_angle_alpha	89.998517
_cell_angle_beta	97.022847
_cell_angle_gamma	90.015423
loop_
_atom_site_label
_atom_site_type_symbol
_atom_site_fract_x
_atom_site_fract_y
_atom_site_fract_z
O1	O	0.921130	0.049290	-0.070970
O2	O	0.718835	0.049271	-0.080569
O3	O	0.826101	0.049269	0.007152
O4	O	0.813864	0.049292	-0.158691
O5	O	0.826082	-0.049100	0.007139
O6	O	0.718816	-0.049098	-0.080582
O7	O	0.921111	-0.049079	-0.070983
Zn8	Zn	0.819961	-0.064707	-0.075785
Zn9	Zn	0.819985	0.064899	-0.075768
O10	O	0.813845	-0.049077	-0.158704
C11	C	0.692950	0.000084	-0.080269
C12	C	0.615848	0.000076	-0.079349
N13	N	0.819949	-0.153159	-0.075796
C14	C	0.579657	0.053698	-0.078900
C15	C	0.507213	0.053705	-0.078030
C16	C	0.470965	0.000087	-0.077596
C17	C	0.507165	-0.053543	-0.078049
C18	C	0.579607	-0.053548	-0.078925
C19	C	0.361744	-0.040989	-0.042854
C20	C	0.289304	-0.040981	-0.041974
C21	C	0.247530	0.000102	-0.074895
C22	C	0.278206	0.041187	-0.108689
C23	C	0.350648	0.041181	-0.109566
C24	C	0.392414	0.000087	-0.076646
C25	C	0.132786	0.053736	-0.073503
C26	C	0.060340	0.053741	-0.072636
C27	C	0.060295	-0.053509	-0.072649
C28	C	0.132739	-0.053512	-0.073522
C29	C	0.168980	0.000112	-0.073946
C30	C	0.867485	-0.561801	-0.036931
C31	C	0.867488	-0.623721	-0.036927
O32	O	0.907876	-0.655741	-0.003891
N33	N	0.819985	-0.654696	-0.075756
C34	C	0.772470	-0.623748	-0.114588
O35	O	0.732065	-0.655781	-0.147615
C36	C	0.772464	-0.561830	-0.114589
C37	C	0.819975	-0.530858	-0.075761
C38	C	0.914992	-0.530829	0.001894
C39	C	0.914989	-0.468914	0.001889
C40	C	0.867479	-0.437970	-0.036941
C41	C	0.819972	-0.468942	-0.075766
C42	C	0.724946	-0.530883	-0.153418
C43	C	0.724944	-0.468960	-0.153415
C44	C	0.772455	-0.437988	-0.114587
C45	C	0.772460	-0.376083	-0.114601
N46	N	0.819963	-0.345108	-0.075772
C47	C	0.867473	-0.376051	-0.036942
C48	C	0.772486	-0.753782	-0.114582
C49	C	0.772495	-0.815700	-0.114585
C50	C	0.867513	-0.815668	-0.036923
C51	C	0.867507	-0.753750	-0.036923
C52	C	0.819990	-0.722807	-0.075753
C53	C	0.867463	-0.246024	-0.036956
C54	C	0.867458	-0.184103	-0.036966
C55	C	0.772439	-0.184140	-0.114626
C56	C	0.772446	-0.246055	-0.114618
C57	C	0.819961	-0.276996	-0.075778
O58	O	0.732091	-0.344024	-0.147619
O59	O	0.907865	-0.344011	-0.003916
C60	C	0.946996	0.000110	-0.071283
C61	C	1.024098	0.000122	-0.072203
C62	C	0.825785	0.000083	0.028362
C63	C	0.824865	0.000077	0.091583
N64	N	0.820003	0.153351	-0.075752
C65	C	0.814161	0.000111	-0.179915
C66	C	0.815081	0.000120	-0.243135
C67	C	0.819098	0.053729	0.483613
C68	C	0.818223	0.053733	0.543014
O69	O	0.817756	0.099335	0.573737
N70	N	0.817779	0.000112	0.572719
C71	C	0.818203	-0.053515	0.543019
O72	O	0.817744	-0.099123	0.573740
C73	C	0.819073	-0.053517	0.483618
C74	C	0.819524	0.000106	0.453917
C75	C	0.819549	0.107349	0.453911
C76	C	0.820425	0.107345	0.394514
C77	C	0.820850	0.053722	0.364819
C78	C	0.820400	0.000103	0.394520
C79	C	0.819491	-0.107144	0.453919
C80	C	0.820361	-0.107142	0.394514
C81	C	0.820812	-0.053518	0.364813
C82	C	0.821702	-0.053524	0.305428
N83	N	0.822146	0.000097	0.275722
C84	C	0.821720	0.053720	0.305418
C85	C	0.816375	-0.053505	0.667764
C86	C	0.815510	-0.053503	0.727164
C87	C	0.815530	0.053745	0.727155
C88	C	0.816399	0.053742	0.667754
C89	C	0.816819	0.000115	0.638059
C90	C	0.823560	0.053708	0.180680
C91	C	0.824439	0.053700	0.121278
C92	C	0.824416	-0.053547	0.121292
C93	C	0.823541	-0.053539	0.180690
C94	C	0.823111	0.000093	0.210382
O95	O	0.822166	-0.099103	0.274666
O96	O	0.822170	0.099320	0.274689
H97	H	0.609160	0.097363	-0.079246
H98	H	0.686248	-0.443769	-0.185035
F99	F	0.815043	-0.110577	0.758769
F100	F	0.965561	-0.563754	0.043227
F101	F	0.816828	-0.110586	0.636166
F102	F	0.468586	-0.110607	-0.077590
F103	F	0.819008	-0.164219	0.485516
H104	H	0.906150	-0.158887	-0.005347
F105	F	0.819095	0.164427	0.485507
F106	F	0.918034	-0.278944	0.004382
F107	F	0.820900	0.164420	0.362911
F108	F	0.815072	0.110816	0.758769
H109	H	0.733794	-0.728591	-0.146207
H110	H	0.820692	-0.150812	0.370338
H111	H	0.733765	-0.271273	-0.146241
F112	F	0.468687	0.110780	-0.077552
H113	H	0.162207	-0.097178	-0.073884
H114	H	0.953674	-0.443700	0.033508
F115	F	0.824922	0.110776	0.089672
F116	F	0.618126	-0.110623	-0.079403
H117	H	0.162295	0.097400	-0.073854
F118	F	0.918073	-0.720793	0.004403
H119	H	0.823180	-0.097204	0.204874
H120	H	0.906197	-0.840874	-0.005304
H121	H	0.733759	-0.158936	-0.146242
F122	F	0.721936	-0.848656	-0.155917
F123	F	0.674378	-0.563834	-0.194743
H124	H	0.264335	-0.074432	-0.014454
H125	H	0.823207	0.097381	0.204848
F126	F	0.816878	0.110815	0.636149
H127	H	0.375621	0.074633	-0.137083
F128	F	0.824871	-0.110614	0.089678
H129	H	0.244194	0.074639	-0.135499
H130	H	0.030782	-0.097166	-0.072300
F131	F	0.406197	-0.084719	-0.007814
F132	F	0.021822	0.110816	-0.072162
