data_functionalizedCrystal
_audit_creation_method	'MofGen! by Chris Wilmer'
_symmetry_space_group_name_H-M	'P1'
_symmetry_Int_Tables_number	1
_symmetry_cell_setting	triclinic
loop_
_symmetry_equiv_pos_as_xyz
  x,y,z
_cell_length_a	14.971486
_cell_length_b	23.532407
_cell_length_c	13.448316
_cell_angle_alpha	89.988737
_cell_angle_beta	89.998199
_cell_angle_gamma	83.231404
loop_
_atom_site_label
_atom_site_type_symbol
_atom_site_fract_x
_atom_site_fract_y
_atom_site_fract_z
O1	O	1.186163	0.074216	-0.082588
O2	O	0.925669	0.083104	-0.082616
O3	O	1.063771	-0.004238	-0.082583
O4	O	1.048061	0.161558	-0.082621
O5	O	1.063754	-0.004243	0.082801
O6	O	0.925652	0.083099	0.082767
O7	O	1.186146	0.074211	0.082796
Cu8	Cu	1.055897	0.078654	0.097882
Cu9	Cu	1.055918	0.078661	-0.097703
O10	O	1.048044	0.161553	0.082763
C11	C	0.892340	0.082704	0.000072
C12	C	0.793056	0.081513	0.000062
C13	C	0.735288	0.132824	0.000052
C14	C	0.642001	0.131701	0.000067
C15	C	0.606482	0.079267	0.000085
C16	C	0.664257	0.027952	0.000099
C17	C	0.757543	0.029075	0.000091
C18	C	0.469819	0.025615	0.000113
C19	C	0.376527	0.024491	0.000119
C20	C	0.354277	0.128241	0.000089
C21	C	0.447563	0.129364	0.000081
C22	C	0.505331	0.078049	0.000093
C23	C	1.063363	-0.025458	0.000111
C24	C	1.062160	-0.088680	0.000119
C25	C	1.136342	-0.487466	0.000072
C26	C	1.135224	-0.546871	0.000065
O27	O	1.203992	-0.583321	0.000035
N28	N	1.053123	-0.569849	0.000056
C29	C	0.972133	-0.533418	0.000046
O30	O	0.902196	-0.558417	0.000037
C31	C	0.973251	-0.474014	0.000046
C32	C	1.055358	-0.451040	0.000065
C33	C	1.218442	-0.464491	0.000090
C34	C	1.219559	-0.405090	0.000099
C35	C	1.138576	-0.368664	0.000091
C36	C	1.056475	-0.391639	0.000074
C37	C	0.892263	-0.437584	0.000029
C38	C	0.893388	-0.378177	0.000028
C39	C	0.975495	-0.355203	0.000047
C40	C	0.976609	-0.295812	0.000076
N41	N	1.058711	-0.272834	0.000084
C42	C	1.139694	-0.309260	0.000092
C43	C	0.969791	-0.658170	0.000043
C44	C	0.968671	-0.717573	0.000049
C45	C	1.131763	-0.731022	0.000066
C46	C	1.132882	-0.671618	0.000067
C47	C	1.051892	-0.635193	0.000051
C48	C	1.142034	-0.184513	0.000113
C49	C	1.143143	-0.125106	0.000126
C50	C	0.980052	-0.111663	0.000104
C51	C	0.978942	-0.171064	0.000096
C52	C	1.059940	-0.207489	0.000097
O53	O	0.907878	-0.259327	0.000101
O54	O	1.209619	-0.284253	0.000087
C55	C	1.219475	0.074611	0.000105
C56	C	1.318760	0.075802	0.000109
C57	C	1.048453	0.182773	0.000066
C58	C	1.049655	0.245996	0.000052
N59	N	1.055890	0.078650	0.235447
N60	N	1.055933	0.078661	-0.235267
C61	C	1.117060	0.039991	0.287502
C62	C	1.117066	0.039990	0.391605
C63	C	1.055904	0.078652	0.443651
C64	C	0.994728	0.117313	0.391589
C65	C	0.994718	0.117310	0.287488
C66	C	0.994752	0.117317	0.608569
C67	C	0.994762	0.117320	0.712678
C68	C	1.117100	0.039997	0.712686
C69	C	1.117090	0.039994	0.608585
C70	C	1.055914	0.078656	0.556530
H71	H	0.764199	0.175522	0.000036
C72	C	0.587638	-0.033304	-0.084898
C73	C	0.533325	-0.030790	0.000122
H74	H	0.626847	-0.068123	-0.084891
H75	H	0.550780	-0.031586	-0.142557
H76	H	0.622133	-0.001911	-0.084896
H77	H	0.498824	-0.062180	0.000117
H78	H	0.570187	-0.032513	0.057796
H79	H	1.166911	0.008517	0.755076
H80	H	1.207990	-0.214164	0.000110
C81	C	1.311838	-0.539082	-0.084918
C82	C	1.307471	-0.504523	0.000098
H83	H	1.366809	-0.563790	-0.084908
H84	H	1.262798	-0.561274	-0.084918
H85	H	1.308883	-0.515616	-0.142585
H86	H	1.310419	-0.527989	0.057766
H87	H	1.356525	-0.482329	0.000108
H88	H	0.944933	0.148797	0.566189
H89	H	0.903835	-0.628515	0.000038
C90	C	0.872911	0.129544	0.508684
C91	C	0.927498	0.159810	0.448801
H92	H	0.831412	0.155782	0.544007
H93	H	0.840948	0.105808	0.468089
H94	H	0.909356	0.106521	0.554580
H95	H	0.891054	0.182829	0.402900
H96	H	0.959464	0.183555	0.489399
H97	H	1.166875	0.008511	0.433988
C98	C	0.731173	-0.418299	-0.000018
C99	C	0.802006	-0.462827	-0.000001
H100	H	0.675450	-0.433883	-0.000044
H101	H	0.734995	-0.395420	0.057656
H102	H	0.735030	-0.395401	-0.057690
H103	H	0.798153	-0.485722	0.057676
H104	H	0.798183	-0.485715	-0.057681
H105	H	0.944906	0.148789	0.245105
C106	C	0.524182	0.190624	-0.084968
C107	C	0.578504	0.188105	0.000045
H108	H	0.484980	0.225446	-0.084977
H109	H	0.561035	0.188904	-0.142632
H110	H	0.489680	0.159235	-0.084938
H111	H	0.613011	0.219492	0.000011
H112	H	0.541646	0.189830	0.057724
H113	H	0.476478	0.172060	0.000057
H114	H	0.307237	0.170023	0.000084
H115	H	1.166897	0.008515	0.566209
H116	H	1.286419	-0.386390	0.000110
C117	C	0.873806	0.193733	0.702218
C118	C	0.927517	0.159807	0.769889
H119	H	0.832285	0.219957	0.737541
H120	H	0.910836	0.214267	0.661608
H121	H	0.841859	0.169980	0.661622
H122	H	0.959469	0.183559	0.810480
H123	H	0.890482	0.139270	0.810517
H124	H	0.804577	-0.012707	0.000098
H125	H	1.210008	-0.106405	0.000144
H126	H	0.347612	-0.018205	0.000135
C127	C	1.293974	-0.690892	0.000077
C128	C	1.223135	-0.646368	0.000072
H129	H	1.349694	-0.675305	0.000071
H130	H	1.290139	-0.713784	0.057749
H131	H	1.290138	-0.713778	-0.057597
H132	H	1.226968	-0.623484	0.057750
H133	H	1.226972	-0.623467	-0.057607
H134	H	0.635331	-0.014741	0.000128
H135	H	0.901812	-0.736273	0.000052
C136	C	0.883084	-0.230055	-0.084942
C137	C	0.888693	-0.196325	0.000085
H138	H	0.827370	-0.245650	-0.084950
H139	H	0.886911	-0.207148	-0.142596
H140	H	0.931161	-0.260249	-0.084932
H141	H	0.840620	-0.166129	0.000072
H142	H	0.884858	-0.219234	0.057754
H143	H	1.197704	-0.760691	0.000069
H144	H	0.827435	-0.348522	0.000014
H145	H	1.166868	0.008510	0.245133
C146	C	0.886727	-0.037042	-0.084931
C147	C	0.891038	-0.071616	0.000089
H148	H	0.831770	-0.012320	-0.084947
H149	H	0.935784	-0.014864	-0.084910
H150	H	0.889689	-0.060496	-0.142596
H151	H	0.888083	-0.048161	0.057754
H152	H	0.841967	-0.093796	0.000077
