data_functionalizedCrystal
_audit_creation_method	'MofGen! by Chris Wilmer'
_symmetry_space_group_name_H-M	'P1'
_symmetry_Int_Tables_number	1
_symmetry_cell_setting	triclinic
loop_
_symmetry_equiv_pos_as_xyz
  x,y,z
_cell_length_a	14.971486
_cell_length_b	27.732048
_cell_length_c	13.448316
_cell_angle_alpha	89.988441
_cell_angle_beta	89.998199
_cell_angle_gamma	83.128392
loop_
_atom_site_label
_atom_site_type_symbol
_atom_site_fract_x
_atom_site_fract_y
_atom_site_fract_z
O1	O	1.185952	0.062991	-0.082589
O2	O	0.925433	0.070534	-0.082617
O3	O	1.063784	-0.003597	-0.082583
O4	O	1.047601	0.137122	-0.082623
O5	O	1.063766	-0.003601	0.082801
O6	O	0.925416	0.070530	0.082767
O7	O	1.185935	0.062986	0.082795
Cu8	Cu	1.055674	0.066758	0.097882
Cu9	Cu	1.055694	0.066763	-0.097704
O10	O	1.047584	0.137117	0.082761
C11	C	0.892105	0.070195	0.000071
C12	C	0.792824	0.069184	0.000061
C13	C	0.734910	0.112734	0.000051
C14	C	0.641626	0.111781	0.000066
C15	C	0.606257	0.067278	0.000084
C16	C	0.664177	0.023724	0.000098
C17	C	0.757460	0.024678	0.000090
C18	C	0.469746	0.021740	0.000113
C19	C	0.376457	0.020787	0.000119
C20	C	0.353912	0.108844	0.000088
C21	C	0.447195	0.109797	0.000080
C22	C	0.505109	0.066243	0.000092
C23	C	1.063435	-0.021608	0.000111
C24	C	1.062412	-0.075267	0.000120
C25	C	1.137729	-0.413735	0.000077
C26	C	1.133934	-0.615412	0.000062
O27	O	1.202806	-0.646350	0.000026
N28	N	1.051898	-0.634914	0.000054
C29	C	0.970804	-0.603994	0.000043
O30	O	0.900940	-0.625209	0.000026
C31	C	0.974601	-0.402318	0.000051
C32	C	1.056642	-0.382818	0.000069
C33	C	1.219764	-0.394235	0.000094
C34	C	1.220712	-0.343819	0.000103
C35	C	1.139625	-0.312902	0.000095
C36	C	1.057590	-0.332402	0.000078
C37	C	0.893508	-0.371398	0.000033
C38	C	0.894464	-0.320976	0.000032
C39	C	0.976506	-0.301477	0.000050
C40	C	0.977451	-0.251069	0.000079
N41	N	1.059487	-0.231567	0.000087
C42	C	1.140574	-0.262483	0.000095
C43	C	0.968817	-0.709877	0.000042
C44	C	0.967868	-0.760296	0.000042
C45	C	1.130998	-0.771710	0.000059
C46	C	1.131946	-0.721291	0.000066
C47	C	1.050854	-0.690375	0.000050
C48	C	1.142559	-0.156605	0.000114
C49	C	1.143500	-0.106184	0.000128
C50	C	0.980370	-0.094773	0.000105
C51	C	0.979429	-0.145190	0.000097
C52	C	1.060530	-0.176105	0.000099
O53	O	0.908616	-0.220103	0.000104
O54	O	1.210428	-0.241258	0.000090
C55	C	1.136781	-0.464151	0.000068
C56	C	1.054746	-0.483651	0.000051
C57	C	0.973659	-0.452734	0.000043
C58	C	1.053797	-0.534070	0.000051
C59	C	1.134884	-0.564986	0.000059
C60	C	1.216921	-0.545484	0.000067
C61	C	1.217868	-0.495067	0.000076
C62	C	0.891623	-0.472237	0.000035
C63	C	0.890682	-0.522654	0.000027
C64	C	0.971769	-0.553570	0.000035
C65	C	1.219263	0.063326	0.000104
C66	C	1.318544	0.064337	0.000108
C67	C	1.047932	0.155128	0.000064
C68	C	1.048955	0.208788	0.000050
N69	N	1.055666	0.066753	0.235446
N70	N	1.055709	0.066763	-0.235268
C71	C	1.116946	0.033942	0.287501
C72	C	1.116952	0.033941	0.391605
C73	C	1.055681	0.066755	0.443651
C74	C	0.994394	0.099569	0.391588
C75	C	0.994385	0.099566	0.287487
C76	C	0.994418	0.099572	0.608568
C77	C	0.994428	0.099575	0.712676
C78	C	1.116986	0.033947	0.712686
C79	C	1.116977	0.033945	0.608585
C80	C	1.055691	0.066759	0.556529
H81	H	1.208600	-0.181771	0.000112
C82	C	1.355669	-0.570763	0.085097
C83	C	1.306053	-0.579475	0.000073
H84	H	1.410688	-0.591751	0.085097
H85	H	1.367984	-0.537951	0.085096
H86	H	1.321985	-0.576687	0.142760
H87	H	1.339734	-0.573547	-0.057590
H88	H	1.293740	-0.612295	0.000065
H89	H	0.347663	-0.015451	0.000135
C90	C	0.873283	0.164450	0.619010
C91	C	0.927057	0.135644	0.551346
H92	H	0.831706	0.186721	0.583681
H93	H	0.841392	0.144303	0.659624
H94	H	0.910287	0.181868	0.659603
H95	H	0.890054	0.118223	0.510758
H96	H	0.958950	0.155794	0.510716
H97	H	1.166844	0.007223	0.245133
H98	H	0.594476	0.147244	0.000056
C99	C	0.867892	0.153296	0.000011
C100	C	0.773784	0.161653	0.000023
H101	H	0.891887	0.183498	-0.000012
H102	H	0.887811	0.135366	0.057685
H103	H	0.887799	0.135362	-0.057661
H104	H	0.753876	0.179585	0.057698
H105	H	0.753857	0.179591	-0.057658
C106	C	0.883703	-0.195278	0.085096
C107	C	0.889246	-0.166625	0.000088
H108	H	0.828024	-0.208505	0.085084
H109	H	0.931850	-0.220907	0.085087
H110	H	0.887462	-0.175852	0.142769
H111	H	0.885495	-0.186052	-0.057586
H112	H	0.841086	-0.140992	0.000088
H113	H	0.475989	0.146035	0.000055
C114	C	0.909409	-0.012413	0.000092
C115	C	0.891242	-0.060783	0.000090
H116	H	0.854384	0.008571	0.000071
H117	H	0.943060	-0.006506	0.057771
H118	H	0.943094	-0.006499	-0.057576
H119	H	0.857563	-0.066699	0.057762
H120	H	0.857576	-0.066693	-0.057594
C121	C	1.224558	-0.835024	-0.084969
C122	C	1.220134	-0.805699	0.000055
H123	H	1.279586	-0.856005	-0.084979
H124	H	1.175565	-0.853848	-0.084960
H125	H	1.221536	-0.815104	-0.142631
H126	H	1.223148	-0.825618	0.057718
H127	H	1.269139	-0.786872	0.000055
H128	H	1.166872	0.007227	0.566209
C129	C	0.305972	0.183607	-0.084956
C130	C	0.290257	0.156720	0.000078
H131	H	0.266668	0.213161	-0.084966
H132	H	0.366583	0.190541	-0.084959
H133	H	0.295307	0.165355	-0.142611
H134	H	0.300929	0.174970	0.057734
H135	H	0.229633	0.149788	0.000091
C136	C	0.482667	-0.065398	0.000122
C137	C	0.533408	-0.026134	0.000115
H138	H	0.521971	-0.094952	0.000112
H139	H	0.445823	-0.063944	0.057798
H140	H	0.445805	-0.063930	-0.057549
H141	H	0.570265	-0.027600	0.057790
H142	H	0.570267	-0.027589	-0.057566
H143	H	1.285799	-0.419403	0.000097
C144	C	1.313591	-0.444987	-0.084927
C145	C	1.308051	-0.473637	0.000086
H146	H	1.369267	-0.431758	-0.084917
H147	H	1.309833	-0.464413	-0.142590
H148	H	1.265437	-0.419355	-0.084919
H149	H	1.356202	-0.499271	0.000074
H150	H	1.311818	-0.454210	0.057764
C151	C	1.170699	-0.049687	0.744752
C152	C	1.184356	-0.002125	0.769895
H153	H	1.212298	-0.071953	0.780068
H154	H	1.111093	-0.054992	0.761833
H155	H	1.179461	-0.054376	0.675302
H156	H	1.175588	0.002565	0.839344
H157	H	1.243977	0.003182	0.752821
C158	C	1.227664	-0.671210	-0.084942
C159	C	1.222126	-0.699857	0.000076
H160	H	1.283338	-0.657978	-0.084933
H161	H	1.223910	-0.690638	-0.142602
H162	H	1.179507	-0.645580	-0.084938
H163	H	1.270280	-0.725490	0.000069
H164	H	1.225889	-0.680428	0.057751
H165	H	0.944534	0.126295	0.755047
H166	H	0.635373	-0.012511	0.000128
H167	H	0.944483	0.126284	0.245104
C168	C	0.770381	-0.062458	0.000104
C169	C	0.821123	-0.023194	0.000093
H170	H	0.809685	-0.092012	0.000102
H171	H	0.733534	-0.061001	0.057777
H172	H	0.733523	-0.060992	-0.057570
H173	H	0.857976	-0.024657	0.057771
H174	H	0.857985	-0.024652	-0.057585
C175	C	1.304655	-0.122539	0.000136
C176	C	1.233686	-0.084751	0.000139
H177	H	1.360329	-0.109307	0.000135
H178	H	1.300887	-0.141972	0.057803
H179	H	1.300886	-0.141960	-0.057544
H180	H	1.237451	-0.065332	0.057823
H181	H	1.237456	-0.065310	-0.057534
C182	C	1.381858	-0.360181	0.000109
C183	C	1.310896	-0.322389	0.000109
H184	H	1.437536	-0.346953	0.000105
H185	H	1.378087	-0.379612	0.057778
H186	H	1.378084	-0.379603	-0.057568
H187	H	1.314666	-0.302969	0.057791
H188	H	1.314669	-0.302950	-0.057566
C189	C	0.807475	-0.703669	0.000039
C190	C	0.879671	-0.675898	0.000038
H191	H	0.752441	-0.682693	0.000047
H192	H	0.810504	-0.723564	-0.057632
H193	H	0.810511	-0.723581	0.057714
H194	H	0.876639	-0.655989	-0.057641
H195	H	0.876641	-0.655995	0.057715
H196	H	1.166850	0.007223	0.433988
H197	H	0.901062	-0.776167	0.000044
C198	C	0.732364	-0.355030	-0.000014
C199	C	0.803324	-0.392822	0.000004
H200	H	0.676685	-0.368256	-0.000040
H201	H	0.736120	-0.335611	0.057660
H202	H	0.736155	-0.335595	-0.057687
H203	H	0.799536	-0.412255	0.057680
H204	H	0.799565	-0.412249	-0.057676
H205	H	0.825590	-0.447069	0.000026
C206	C	0.800894	-0.257647	-0.085001
C207	C	0.805322	-0.286994	0.000015
H208	H	0.745859	-0.236671	-0.085011
H209	H	0.849878	-0.238816	-0.084981
H210	H	0.803928	-0.277552	-0.142669
H211	H	0.802295	-0.267089	0.057683
H212	H	0.756324	-0.305826	0.000004
H213	H	0.823869	-0.538525	0.000021
H214	H	0.944501	0.126285	0.433970
