data_functionalizedCrystal
_audit_creation_method	'MofGen! by Chris Wilmer'
_symmetry_space_group_name_H-M	'P1'
_symmetry_Int_Tables_number	1
_symmetry_cell_setting	triclinic
loop_
_symmetry_equiv_pos_as_xyz
  x,y,z
_cell_length_a	29.839134
_cell_length_b	29.839131
_cell_length_c	29.839125
_cell_angle_alpha	90.017709
_cell_angle_beta	90.021980
_cell_angle_gamma	90.036281
loop_
_atom_site_label
_atom_site_type_symbol
_atom_site_fract_x
_atom_site_fract_y
_atom_site_fract_z
Zn1	Zn	0.686720	-0.178978	0.254125
Zn2	Zn	0.686652	-0.254090	0.178995
Zn3	Zn	0.611602	-0.178968	0.178995
Zn4	Zn	0.611550	-0.254075	0.254083
O5	O	0.649131	-0.216528	0.216549
O6	O	0.749578	-0.188952	0.244176
O7	O	0.676690	-0.244127	0.116128
O8	O	0.621617	-0.116102	0.188978
O9	O	0.749528	-0.244137	0.188979
O10	O	0.676805	-0.116109	0.244176
O11	O	0.621551	-0.188935	0.116127
O12	O	0.548728	-0.188921	0.188938
O13	O	0.621528	-0.244111	0.316956
O14	O	0.548690	-0.244101	0.244105
O15	O	0.676755	-0.188937	0.316987
O16	O	0.676639	-0.316955	0.188938
O17	O	0.621462	-0.316944	0.244105
C18	C	0.532408	-0.216509	0.216517
C19	C	0.482474	-0.216511	0.216514
C20	C	0.649050	-0.333250	0.216527
C21	C	0.649056	-0.383185	0.216533
C22	C	0.172820	-0.245303	0.245240
C23	C	-0.014853	-0.245315	0.245260
O24	O	-0.039127	-0.269774	0.269665
N25	N	-0.038311	-0.216544	0.216583
C26	C	-0.014848	-0.187766	0.187902
O27	O	-0.039107	-0.163291	0.163514
C28	C	0.172824	-0.187751	0.187884
C29	C	0.196280	-0.216527	0.216560
C30	C	0.196276	-0.274076	0.273913
C31	C	0.243191	-0.274075	0.273906
C32	C	0.266651	-0.245299	0.245226
C33	C	0.243195	-0.216526	0.216553
C34	C	0.196286	-0.158971	0.159205
C35	C	0.243207	-0.158969	0.159204
C36	C	0.266663	-0.187745	0.187880
C37	C	0.313570	-0.187749	0.187865
N38	N	0.337029	-0.216520	0.216542
C39	C	0.313569	-0.245295	0.245222
C40	C	-0.113379	-0.187776	0.187912
C41	C	-0.160297	-0.187780	0.187916
C42	C	-0.160298	-0.245329	0.245275
C43	C	-0.113380	-0.245327	0.245269
C44	C	-0.089921	-0.216547	0.216589
C45	C	0.412095	-0.245290	0.245205
C46	C	0.459014	-0.245287	0.245194
C47	C	0.459012	-0.187736	0.187837
C48	C	0.412096	-0.187740	0.187846
C49	C	0.388639	-0.216519	0.216534
O50	O	0.337873	-0.163299	0.163477
O51	O	0.337836	-0.269759	0.269613
C52	C	0.125905	-0.245304	0.245247
C53	C	0.102449	-0.216531	0.216574
C54	C	0.125909	-0.187755	0.187893
C55	C	0.055531	-0.216535	0.216577
C56	C	0.032071	-0.245310	0.245258
C57	C	0.055529	-0.274082	0.273934
C58	C	0.102445	-0.274080	0.273927
C59	C	0.102451	-0.158984	0.159217
C60	C	0.055535	-0.158989	0.159226
C61	C	0.032075	-0.187764	0.187906
C62	C	0.677914	-0.692821	0.187866
C63	C	0.677969	-0.880494	0.187883
O64	O	0.702441	-0.904753	0.163493
N65	N	0.649224	-0.903970	0.216583
C66	C	0.620465	-0.880524	0.245283
O67	O	0.596020	-0.904798	0.269698
C68	C	0.620412	-0.692852	0.245268
C69	C	0.649156	-0.669379	0.216563
C70	C	0.706656	-0.669348	0.159164
C71	C	0.706640	-0.622433	0.159158
C72	C	0.677882	-0.598990	0.187854
C73	C	0.649140	-0.622463	0.216557
C74	C	0.591656	-0.669407	0.273969
C75	C	0.591646	-0.622486	0.273964
C76	C	0.620390	-0.599013	0.245259
C77	C	0.620367	-0.552106	0.245248
N78	N	0.649112	-0.528630	0.216548
C79	C	0.677869	-0.552072	0.187851
C80	C	0.620494	-0.979055	0.245289
C81	C	0.620507	-1.025973	0.245292
C82	C	0.678012	-1.025939	0.187893
C83	C	0.677996	-0.979021	0.187887
C84	C	0.649239	-0.955579	0.216589
C85	C	0.677834	-0.453547	0.187841
C86	C	0.677814	-0.406627	0.187836
C87	C	0.620311	-0.406664	0.245237
C88	C	0.620329	-0.453580	0.245240
C89	C	0.649094	-0.477020	0.216540
O90	O	0.595912	-0.527818	0.269629
O91	O	0.702318	-0.527791	0.163447
C92	C	0.677930	-0.739737	0.187872
C93	C	0.649188	-0.763210	0.216574
C94	C	0.620430	-0.739767	0.245271
C95	C	0.649200	-0.810128	0.216578
C96	C	0.677958	-0.833570	0.187881
C97	C	0.706703	-0.810094	0.159181
C98	C	0.706687	-0.763179	0.159175
C99	C	0.591685	-0.763243	0.273971
C100	C	0.591703	-0.810158	0.273974
C101	C	0.620461	-0.833601	0.245277
C102	C	0.766309	-0.216547	0.216582
C103	C	0.816244	-0.216555	0.216596
C104	C	0.649143	-0.216524	0.333728
C105	C	0.649148	-0.216522	0.383662
C106	C	0.649225	-0.099349	0.216582
C107	C	0.649265	-0.049415	0.216595
C108	C	0.649145	-0.216499	0.099827
C109	C	0.649227	-0.216374	0.049893
C110	C	0.677935	-0.187718	0.693325
C111	C	0.677957	-0.187680	0.880998
O112	O	0.702399	-0.163232	0.905279
N113	N	0.649208	-0.216402	0.904448
C114	C	0.620449	-0.245133	0.880976
O115	O	0.595993	-0.269559	0.905228
C116	C	0.620424	-0.245169	0.693304
C117	C	0.649179	-0.216448	0.669857
C118	C	0.706687	-0.158999	0.669877
C119	C	0.706683	-0.159011	0.622962
C120	C	0.677927	-0.187741	0.599494
C121	C	0.649175	-0.216460	0.622941
C122	C	0.591663	-0.273898	0.669833
C123	C	0.591659	-0.273903	0.622912
C124	C	0.620414	-0.245183	0.599465
C125	C	0.620415	-0.245202	0.552558
N126	N	0.649164	-0.216480	0.529108
C127	C	0.677920	-0.187749	0.552576
C128	C	0.620464	-0.245113	0.979507
C129	C	0.620471	-0.245105	1.026425
C130	C	0.677979	-0.187650	1.026443
C131	C	0.677974	-0.187661	0.979524
C132	C	0.649214	-0.216391	0.956057
C133	C	0.677910	-0.187776	0.454050
C134	C	0.677904	-0.187792	0.407130
C135	C	0.620395	-0.245244	0.407116
C136	C	0.620401	-0.245230	0.454032
C137	C	0.649161	-0.216493	0.477497
O138	O	0.595982	-0.269633	0.528248
O139	O	0.702366	-0.163320	0.528316
C140	C	0.677939	-0.187706	0.740240
C141	C	0.649187	-0.216425	0.763688
C142	C	0.620431	-0.245155	0.740219
C143	C	0.649194	-0.216417	0.810605
C144	C	0.677950	-0.187686	0.834074
C145	C	0.706699	-0.158964	0.810624
C146	C	0.706695	-0.158976	0.763708
C147	C	0.591682	-0.273877	0.763669
C148	C	0.591689	-0.273864	0.810585
C149	C	0.620445	-0.245133	0.834053
H150	H	0.393001	-0.268723	0.268566
H151	H	0.597076	-0.959972	0.268661
C152	C	0.484815	-0.276941	0.276740
C153	C	0.478328	-0.328007	0.272984
C154	C	0.504126	-0.359660	0.304530
C155	C	0.536411	-0.340246	0.339832
C156	C	0.542899	-0.289178	0.343590
C157	C	0.517101	-0.257525	0.312044
H158	H	0.454428	-0.342380	0.246849
H159	H	0.499323	-0.397464	0.301747
H160	H	0.555508	-0.363677	0.363184
H161	H	0.566799	-0.274804	0.369725
H162	H	0.521904	-0.219721	0.314827
H163	H	0.597097	-1.045080	0.268662
H164	H	0.478121	-0.164309	0.164485
C165	C	0.709534	-0.156195	0.381339
C166	C	0.744789	-0.175673	0.349094
C167	C	0.776417	-0.144077	0.323304
C168	C	0.772790	-0.093004	0.329759
C169	C	0.737534	-0.073524	0.362005
C170	C	0.705906	-0.105119	0.387795
H171	H	0.747475	-0.213483	0.344315
H172	H	0.802516	-0.158498	0.299433
H173	H	0.796203	-0.069615	0.310668
H174	H	0.734848	-0.035714	0.366784
H175	H	0.679807	-0.090698	0.411666
H176	H	0.730115	-0.135573	0.829740
C177	C	0.588824	-0.276721	0.953701
C178	C	0.537758	-0.273046	0.960152
C179	C	0.506118	-0.304656	0.934351
C180	C	0.525544	-0.339942	0.902099
C181	C	0.576613	-0.343619	0.895646
C182	C	0.608253	-0.312009	0.921447
H183	H	0.523375	-0.246923	0.984029
H184	H	0.468313	-0.301934	0.939128
H185	H	0.502122	-0.363342	0.882999
H186	H	0.590996	-0.369742	0.871769
H187	H	0.646058	-0.314732	0.916670
C188	C	0.738292	-0.695129	0.127593
C189	C	0.734655	-0.688691	0.076518
C190	C	0.766291	-0.714468	0.044942
C191	C	0.801564	-0.746681	0.064440
C192	C	0.805202	-0.753120	0.115517
C193	C	0.773566	-0.727344	0.147094
H194	H	0.708543	-0.664844	0.062082
H195	H	0.763597	-0.709701	0.007131
H196	H	0.824982	-0.765762	0.041066
H197	H	0.831314	-0.776968	0.129954
H198	H	0.776259	-0.732110	0.184904
C199	C	0.738324	-0.127380	0.737921
C200	C	0.734696	-0.076307	0.744382
C201	C	0.766326	-0.044708	0.718599
C202	C	0.801583	-0.064181	0.686354
C203	C	0.805212	-0.115256	0.679891
C204	C	0.773582	-0.146856	0.705674
H205	H	0.708596	-0.061889	0.768253
H206	H	0.763640	-0.006898	0.723383
H207	H	0.824997	-0.040790	0.667267
H208	H	0.831312	-0.129674	0.656020
H209	H	0.776269	-0.184665	0.700890
H210	H	-0.094285	-0.268759	0.268619
H211	H	0.121538	-0.297512	0.297278
H212	H	0.262305	-0.135529	0.135852
C213	C	0.588775	-0.276831	0.479820
C214	C	0.553515	-0.257360	0.512062
C215	C	0.521884	-0.288960	0.537843
C216	C	0.525514	-0.340033	0.531381
C217	C	0.560776	-0.359507	0.499137
C218	C	0.592406	-0.327906	0.473356
H219	H	0.550826	-0.219550	0.516847
H220	H	0.495781	-0.274544	0.561712
H221	H	0.502099	-0.363425	0.550466
H222	H	0.563464	-0.397316	0.494353
H223	H	0.618509	-0.342323	0.449487
H224	H	0.262285	-0.297506	0.297258
H225	H	0.177180	-0.297509	0.297271
C226	C	0.170490	-0.127315	0.127665
C227	C	0.138207	-0.146724	0.092357
C228	C	0.112409	-0.115067	0.060815
C229	C	0.118895	-0.064001	0.064581
C230	C	0.151179	-0.044590	0.099889
C231	C	0.176976	-0.076247	0.131431
H232	H	0.133405	-0.184528	0.089569
H233	H	0.088511	-0.129436	0.034678
H234	H	0.099798	-0.040567	0.041232
H235	H	0.155981	-0.006786	0.102678
H236	H	0.200875	-0.061878	0.157569
C237	C	0.560029	-0.305483	0.695624
C238	C	0.524781	-0.285991	0.727868
C239	C	0.493143	-0.317574	0.753660
C240	C	0.496753	-0.368650	0.747210
C241	C	0.532003	-0.388144	0.714964
C242	C	0.563641	-0.356561	0.689172
H243	H	0.522107	-0.248180	0.732644
H244	H	0.467049	-0.303143	0.777530
H245	H	0.473333	-0.392029	0.766303
H246	H	0.534676	-0.425955	0.710188
H247	H	0.589735	-0.370992	0.665302
C248	C	0.588842	-0.276702	1.052212
C249	C	0.608278	-0.311975	1.084466
C250	C	0.576646	-0.343571	1.110250
C251	C	0.525578	-0.339893	1.103781
C252	C	0.506139	-0.304619	1.071526
C253	C	0.537771	-0.273023	1.045741
H254	H	0.646085	-0.314698	1.089256
H255	H	0.591036	-0.369683	1.134128
H256	H	0.502162	-0.363282	1.122868
H257	H	0.468333	-0.301895	1.066735
H258	H	0.523381	-0.246910	1.021863
H259	H	0.568248	-0.688511	0.297342
C260	C	-0.186109	-0.276981	0.276826
C261	C	-0.237717	-0.276980	0.276828
C262	C	-0.263531	-0.308627	0.308380
C263	C	-0.237736	-0.340276	0.339929
C264	C	-0.186126	-0.340278	0.339928
C265	C	-0.160312	-0.308631	0.308376
H266	H	-0.256814	-0.253551	0.253472
H267	H	-0.301736	-0.308625	0.308380
H268	H	-0.256845	-0.363703	0.363285
H269	H	-0.167029	-0.363708	0.363284
H270	H	-0.122106	-0.308633	0.308376
C271	C	0.029718	-0.305734	0.305484
C272	C	-0.002571	-0.340973	0.285956
C273	C	-0.028386	-0.372621	0.317506
C274	C	-0.021911	-0.369031	0.368584
C275	C	0.010380	-0.333790	0.388114
C276	C	0.036194	-0.302142	0.356565
H277	H	-0.007366	-0.343632	0.248143
H278	H	-0.052289	-0.398709	0.303048
H279	H	-0.041020	-0.392459	0.391939
H280	H	0.015174	-0.331131	0.425928
H281	H	0.060098	-0.276055	0.371023
C282	C	0.709435	-0.380808	0.156260
C283	C	0.705809	-0.387288	0.105185
C284	C	0.737430	-0.361471	0.073611
C285	C	0.772677	-0.329173	0.093111
C286	C	0.776305	-0.322692	0.144188
C287	C	0.744684	-0.348509	0.175762
H288	H	0.679716	-0.411197	0.090748
H289	H	0.734745	-0.366269	0.035800
H290	H	0.796085	-0.310062	0.069737
H291	H	0.802398	-0.298782	0.158625
H292	H	0.747370	-0.343711	0.213573
H293	H	-0.179390	-0.164352	0.164561
H294	H	-0.094283	-0.164339	0.164556
C295	C	0.588712	-0.479405	0.276814
C296	C	0.553467	-0.511708	0.257319
C297	C	0.521855	-0.537530	0.288897
C298	C	0.525487	-0.531050	0.339971
C299	C	0.560733	-0.498746	0.359469
C300	C	0.592346	-0.472924	0.327891
H301	H	0.550777	-0.516506	0.219508
H302	H	0.495763	-0.561444	0.274463
H303	H	0.502086	-0.550166	0.363348
H304	H	0.563424	-0.493948	0.397280
H305	H	0.618437	-0.449010	0.342325
H306	H	0.568229	-0.603402	0.297337
H307	H	0.730117	-0.829189	0.135814
H308	H	0.701258	-0.472626	0.164472
H309	H	0.036441	-0.135556	0.135871
H310	H	0.392998	-0.164309	0.164496
H311	H	0.596895	-0.387570	0.268600
H312	H	0.121547	-0.135551	0.135861
H313	H	0.730093	-0.744071	0.135801
H314	H	0.596984	-0.268637	0.388000
H315	H	0.730047	-0.603324	0.135785
H316	H	0.568292	-0.829266	0.297349
H317	H	0.701402	-0.959912	0.164514
C318	C	0.709648	-1.051731	0.156328
C319	C	0.709660	-1.103339	0.156338
C320	C	0.741298	-1.129134	0.124778
C321	C	0.772923	-1.103320	0.093208
C322	C	0.772911	-1.051709	0.093197
C323	C	0.741274	-1.025915	0.124757
H324	H	0.686249	-1.122450	0.179709
H325	H	0.741306	-1.167339	0.124786
H326	H	0.796342	-1.122415	0.069845
H327	H	0.796323	-1.032598	0.069826
H328	H	0.741266	-0.987709	0.124748
C329	C	0.560048	-0.737462	0.305539
C330	C	0.508982	-0.743970	0.301814
C331	C	0.477341	-0.718192	0.333384
C332	C	0.496765	-0.685906	0.368678
C333	C	0.547833	-0.679396	0.372404
C334	C	0.579475	-0.705174	0.340835
H335	H	0.494601	-0.767872	0.275686
H336	H	0.439536	-0.723012	0.330625
H337	H	0.473342	-0.666823	0.392047
H338	H	0.562215	-0.655494	0.398532
H339	H	0.617279	-0.700355	0.343593
C340	C	0.709547	-0.156168	0.479858
C341	C	0.760614	-0.159850	0.473416
C342	C	0.792253	-0.128245	0.499224
C343	C	0.772826	-0.092958	0.531474
C344	C	0.721756	-0.089274	0.537918
C345	C	0.690117	-0.120879	0.512110
H346	H	0.774997	-0.185973	0.449540
H347	H	0.830058	-0.130972	0.494453
H348	H	0.796247	-0.069562	0.550579
H349	H	0.707373	-0.063151	0.561794
H350	H	0.652312	-0.118152	0.516881
H351	H	0.730097	-0.135623	0.603875
H352	H	0.730104	-0.135601	0.688980
H353	H	0.701388	-0.164274	0.960437
H354	H	0.701393	-0.164257	1.045559
H355	H	0.568233	-0.297294	0.603808
H356	H	0.568274	-0.297256	0.829671
H357	H	0.568265	-0.297274	0.744566
