data_functionalizedCrystal
_audit_creation_method	'MofGen! by Chris Wilmer'
_symmetry_space_group_name_H-M	'P1'
_symmetry_Int_Tables_number	1
_symmetry_cell_setting	triclinic
loop_
_symmetry_equiv_pos_as_xyz
  x,y,z
_cell_length_a	13.897449
_cell_length_b	19.077396
_cell_length_c	19.076919
_cell_angle_alpha	89.931792
_cell_angle_beta	92.282068
_cell_angle_gamma	92.270830
loop_
_atom_site_label
_atom_site_type_symbol
_atom_site_fract_x
_atom_site_fract_y
_atom_site_fract_z
Zn1	Zn	1.469613	0.295698	-0.386072
Zn2	Zn	1.969613	0.795698	0.113928
Zn3	Zn	1.482434	0.408485	-0.263855
Zn4	Zn	1.982434	0.908485	0.236145
Zn5	Zn	1.314527	0.291000	-0.268581
Zn6	Zn	1.814527	0.791000	0.231419
Zn7	Zn	1.314987	0.413169	-0.381324
Zn8	Zn	1.814987	0.913169	0.118676
O9	O	1.395390	0.352088	-0.324958
O10	O	1.895390	0.852088	0.175042
O11	O	1.606296	0.310665	-0.369868
O12	O	2.106296	0.810665	0.130132
O13	O	1.465334	0.388974	-0.166150
O14	O	1.965334	0.888974	0.333850
O15	O	1.329542	0.193293	-0.288131
O16	O	1.829542	0.693293	0.211869
O17	O	1.615715	0.393529	-0.280076
O18	O	2.115715	0.893529	0.219924
O19	O	1.443483	0.196745	-0.374451
O20	O	1.943483	0.696745	0.125549
O21	O	1.341974	0.302658	-0.169623
O22	O	1.841974	0.802658	0.330377
O23	O	1.179607	0.307200	-0.283528
O24	O	1.679607	0.807200	0.216472
O25	O	1.330325	0.401513	-0.480286
O26	O	1.830325	0.901513	0.019714
O27	O	1.179944	0.396958	-0.366360
O28	O	1.679944	0.896958	0.133640
O29	O	1.443929	0.315207	-0.483774
O30	O	1.943929	0.815207	0.016226
O31	O	1.465780	0.507436	-0.275473
O32	O	1.965780	1.007436	0.224527
O33	O	1.342757	0.510878	-0.361777
O34	O	1.842757	1.010878	0.138223
C35	C	1.144776	0.352078	-0.324942
C36	C	1.644776	0.852078	0.175058
C37	C	1.037563	0.352091	-0.324952
C38	C	1.537563	0.852091	0.175048
C39	C	0.841267	0.352095	-0.324970
C40	C	1.341267	0.852095	0.175030
C41	C	0.950500	0.352091	-0.324958
C42	C	1.450500	0.852091	0.175042
C43	C	1.405735	0.534654	-0.317612
C44	C	1.905735	1.034654	0.182388
C45	C	1.410247	0.612757	-0.314493
C46	C	1.910247	1.112757	0.185507
C47	C	1.385748	0.359407	-0.508239
C48	C	1.885748	0.859407	-0.008239
C49	C	1.381639	0.362525	-0.586342
C50	C	1.881639	0.862525	-0.086342
C51	C	1.646983	0.352099	-0.324974
C52	C	2.146983	0.852099	0.175026
C53	C	1.754197	0.352103	-0.324981
C54	C	2.254197	0.852103	0.175019
C55	C	1.442548	1.052200	-0.292097
C56	C	1.942548	1.552200	0.207903
C57	C	1.438300	0.978813	-0.295030
C58	C	1.938300	1.478813	0.204970
C59	C	1.372083	0.943939	-0.341396
C60	C	1.872083	1.443939	0.158604
C61	C	1.310103	0.982454	-0.384827
C62	C	1.810103	1.482454	0.115173
C63	C	1.314347	1.055839	-0.381891
C64	C	1.814347	1.555839	0.118109
C65	C	1.352512	0.724657	-0.354988
C66	C	1.852512	1.224657	0.145012
C67	C	1.348274	0.651267	-0.357923
C68	C	1.848274	1.151267	0.142077
C69	C	1.476470	0.647631	-0.268124
C70	C	1.976470	1.147631	0.231876
C71	C	1.480713	0.721018	-0.265195
C72	C	1.980713	1.221018	0.234805
C73	C	1.418730	0.759526	-0.308624
C74	C	1.918730	1.259526	0.191376
N75	N	1.367741	0.868926	-0.344395
N76	N	1.867741	1.368926	0.155605
N77	N	1.423068	0.834537	-0.305620
N78	N	1.923068	1.334537	0.194380
C79	C	1.385021	1.168811	-0.332355
C80	C	1.885021	1.668811	0.167645
C81	C	1.380575	1.090710	-0.335527
C82	C	1.880575	1.590710	0.164473
C83	C	1.438853	0.319058	-0.624852
C84	C	1.938853	0.819058	-0.124852
C85	C	1.434980	0.321986	-0.698239
C86	C	1.934980	0.821986	-0.198239
C87	C	1.373898	0.368385	-0.733114
C88	C	1.873898	0.868385	-0.233114
C89	C	1.316677	0.411854	-0.694599
C90	C	1.816677	0.911854	-0.194599
C91	C	1.320546	0.408922	-0.621214
C92	C	1.820546	0.908922	-0.121214
C93	C	1.355981	0.381968	-0.952397
C94	C	1.855981	0.881968	-0.452397
C95	C	1.352119	0.384898	-1.025787
C96	C	1.852119	0.884898	-0.525787
C97	C	1.470421	0.295028	-1.029422
C98	C	1.970421	0.795028	-0.529422
C99	C	1.474288	0.292104	-0.956036
C100	C	1.974288	0.792104	-0.456036
C101	C	1.417064	0.335570	-0.917527
C102	C	1.917064	0.835570	-0.417527
N103	N	1.369940	0.371380	-0.808127
N104	N	1.869940	0.871380	-0.308127
N105	N	1.421017	0.332571	-0.842516
N106	N	1.921017	0.832571	-0.342516
C107	C	1.405048	0.344747	-0.142392
C108	C	1.905048	0.844747	0.357608
C109	C	1.409333	0.341431	-0.064297
C110	C	1.909333	0.841431	0.435703
H111	H	1.496475	1.080589	-0.254345
H112	H	1.996475	1.580589	0.245655
H113	H	1.488763	0.947459	-0.259665
H114	H	1.988763	1.447459	0.240335
Br115	Br	1.548075	0.236040	-1.081688
Br116	Br	2.048075	0.736040	-0.581688
H117	H	1.302376	0.422684	-1.054180
H118	H	1.802376	0.922684	-0.554180
Br119	Br	1.278318	0.440958	-0.900144
Br120	Br	1.778318	0.940958	-0.400144
Br121	Br	1.233773	0.474821	-0.741928
Br122	Br	1.733773	0.974821	-0.241928
Br123	Br	1.557192	0.229133	-0.908710
Br124	Br	2.057192	0.729133	-0.408710
H125	H	1.273946	0.444311	-0.589860
H126	H	1.773946	0.944311	-0.089860
Br127	Br	1.570589	0.768343	-0.202272
Br128	Br	2.070589	1.268343	0.297728
H129	H	1.526933	0.616271	-0.232765
H130	H	2.026933	1.116271	0.267235
Br131	Br	1.258404	0.603937	-0.420854
Br132	Br	1.758404	1.103937	0.079146
Br133	Br	1.268407	0.776910	-0.413940
Br134	Br	1.768407	1.276910	0.086060
Br135	Br	1.220233	0.935125	-0.447752
Br136	Br	1.720233	1.435125	0.052248
H137	H	1.263887	1.087193	-0.417260
H138	H	1.763887	1.587193	0.082740
Br139	Br	1.521762	0.256090	-0.577529
Br140	Br	2.021762	0.756090	-0.077529
H141	H	1.481572	0.286592	-0.729591
H142	H	1.981572	0.786592	-0.229591
