data_functionalizedCrystal
_audit_creation_method	'MofGen! by Chris Wilmer'
_symmetry_space_group_name_H-M	'P1'
_symmetry_Int_Tables_number	1
_symmetry_cell_setting	triclinic
loop_
_symmetry_equiv_pos_as_xyz
  x,y,z
_cell_length_a	11.026607
_cell_length_b	9.482900
_cell_length_c	10.489741
_cell_angle_alpha	99.430409
_cell_angle_beta	83.437405
_cell_angle_gamma	101.363848
loop_
_atom_site_label
_atom_site_type_symbol
_atom_site_fract_x
_atom_site_fract_y
_atom_site_fract_z
O1	O	-1.633618	-0.120902	0.519526
O2	O	-1.279780	-0.120903	0.458584
O3	O	-1.464749	-0.120894	0.305229
O4	O	-1.448649	-0.120911	0.672881
O5	O	-1.427179	0.120897	0.336539
O6	O	-1.242210	0.120887	0.489894
O7	O	-1.596048	0.120889	0.550836
Cu8	Cu	-1.415698	0.142965	0.523224
Cu9	Cu	-1.460129	-0.142980	0.486196
O10	O	-1.411079	0.120879	0.704190
C11	C	-1.215686	-0.000008	0.462996
C12	C	-1.080679	-0.000008	0.429482
C13	C	-1.444748	0.000000	0.273085
C14	C	-1.441110	-0.000002	0.130655
N15	N	-1.384457	0.344084	0.549268
C16	C	-1.660143	-0.000010	0.546423
C17	C	-1.795151	-0.000019	0.579936
C18	C	-1.007683	-0.000014	0.522021
C19	C	-0.868146	-0.000014	0.487384
N20	N	-1.491380	-0.344099	0.460144
C21	C	-1.450906	0.416286	0.493869
C22	C	-1.424922	0.583703	0.515551
C23	C	-1.323420	-0.000013	0.036624
C24	C	-1.360492	0.119202	-0.027831
C25	C	-1.397561	-0.119184	-0.058669
C26	C	-1.478215	0.119312	0.068088
C27	C	-1.515284	-0.119182	0.037242
C28	C	-1.552438	0.000063	-0.027163
C29	C	-1.431080	-0.000018	0.736334
C30	C	-1.434720	-0.000025	0.878763
H31	H	-0.827348	-0.000046	0.382504
O32	O	-0.843727	0.000226	0.705104
C33	C	-0.840258	0.125420	0.924325
C34	C	-0.785152	0.125344	0.782626
H35	H	-0.792906	0.226551	0.987047
H36	H	-0.944114	0.125512	0.930049
H37	H	-0.824493	0.024177	0.960797
H38	H	-0.800825	0.226569	0.746065
H39	H	-0.681315	0.125175	0.776985
O40	O	-1.031816	-0.000069	0.304427
C41	C	-0.848169	0.000023	0.155904
C42	C	-0.903344	0.000059	0.297578
H43	H	-0.744288	0.000157	0.150323
H44	H	-0.895326	-0.101189	0.093126
H45	H	-0.864044	0.101189	0.119386
H46	H	-0.887484	-0.101039	0.334213
H47	H	-0.856182	0.101338	0.360268
H48	H	-1.308326	0.406210	0.612742
H49	H	-1.567508	0.593781	0.396654
O50	O	-1.541600	0.342216	0.417962
C51	C	-1.617671	0.295318	0.205867
C52	C	-1.514856	0.379282	0.291667
H53	H	-1.596099	0.325278	0.103747
H54	H	-1.622423	0.173492	0.201792
H55	H	-1.710666	0.325102	0.248581
H56	H	-1.421808	0.349620	0.249018
H57	H	-1.510214	0.501088	0.295740
H58	H	-1.226636	0.000107	0.065005
H59	H	-1.348785	0.645823	0.579029
O60	O	-1.593170	-0.239461	0.071912
C61	C	-1.615043	-0.457491	0.168965
C62	C	-1.526721	-0.321302	0.129796
H63	H	-1.561348	-0.523713	0.215747
H64	H	-1.693168	-0.423228	0.240999
H65	H	-1.655991	-0.526409	0.079050
H66	H	-1.485682	-0.252324	0.219633
H67	H	-1.448667	-0.355666	0.057716
H68	H	-1.363411	-0.219981	-0.113642
O69	O	-1.282229	0.239333	-0.062307
C70	C	-1.073058	0.375215	-0.069250
C71	C	-1.161556	0.239098	-0.030177
H72	H	-0.975480	0.375085	-0.043265
H73	H	-1.071634	0.374606	-0.178180
H74	H	-1.106573	0.476789	-0.015147
H75	H	-1.128105	0.137452	-0.084191
H76	H	-1.162970	0.239835	0.078769
H77	H	-1.512292	0.220212	0.122930
H78	H	-1.048490	-0.000010	0.626890
O79	O	-1.668066	-0.000056	-0.060540
C80	C	-1.880685	-0.124630	-0.063642
C81	C	-1.749801	-0.124668	-0.025771
H82	H	-1.946799	-0.225383	-0.035572
H83	H	-1.914898	-0.022997	-0.010687
H84	H	-1.877229	-0.125525	-0.172801
H85	H	-1.753154	-0.123825	0.083368
H86	H	-1.715640	-0.226293	-0.078818
