data_functionalizedCrystal
_audit_creation_method	'MofGen! by Chris Wilmer'
_symmetry_space_group_name_H-M	'P1'
_symmetry_Int_Tables_number	1
_symmetry_cell_setting	triclinic
loop_
_symmetry_equiv_pos_as_xyz
  x,y,z
_cell_length_a	10.654550
_cell_length_b	15.995350
_cell_length_c	9.730223
_cell_angle_alpha	90.000899
_cell_angle_beta	89.996251
_cell_angle_gamma	83.988639
loop_
_atom_site_label
_atom_site_type_symbol
_atom_site_fract_x
_atom_site_fract_y
_atom_site_fract_z
O1	O	1.666298	0.117599	-0.114395
O2	O	1.300673	0.128803	-0.114373
O3	O	1.493480	0.001371	-0.114383
O4	O	1.473491	0.245031	-0.114385
O5	O	1.493478	0.001375	0.114197
O6	O	1.300671	0.128806	0.114207
O7	O	1.666295	0.117602	0.114185
Zn8	Zn	1.483483	0.123205	0.150488
Zn9	Zn	1.483486	0.123200	-0.150676
O10	O	1.473488	0.245034	0.114195
C11	C	1.253885	0.127982	-0.000080
C12	C	1.114473	0.125521	-0.000071
C13	C	1.034008	0.200551	-0.000092
C14	C	0.903017	0.198233	-0.000116
C15	C	0.932971	0.045849	-0.000104
C16	C	1.063959	0.048168	-0.000071
C17	C	1.084522	0.277904	-0.000093
C18	C	1.004055	0.352940	-0.000115
C19	C	0.873064	0.350622	-0.000138
C20	C	0.822541	0.273268	-0.000140
C21	C	1.492652	-0.029827	-0.000096
C22	C	1.490175	-0.122791	-0.000104
C23	C	1.481278	-0.460591	-0.000098
C24	C	1.343964	-0.413954	-0.000603
C25	C	1.346442	-0.317249	-0.000087
C26	C	1.485691	-0.293004	-0.000102
C27	C	1.553417	-0.333687	0.130422
C28	C	1.549968	-0.430342	0.130531
C29	C	1.552807	-0.430688	-0.129407
C30	C	1.552775	-0.333743	-0.131132
C31	C	1.488192	-0.198292	-0.000099
C32	C	1.478780	-0.555303	-0.000092
C33	C	1.713084	0.118423	-0.000111
C34	C	1.852495	0.120884	-0.000129
C35	C	1.474316	0.276232	-0.000095
C36	C	1.476793	0.369197	-0.000097
N37	N	1.483490	0.123207	0.356024
N38	N	1.483488	0.123191	-0.356212
C39	C	1.568886	0.066800	0.427946
C40	C	1.568883	0.066789	0.571829
C41	C	1.398083	0.179602	0.571856
C42	C	1.398081	0.179607	0.427976
C43	C	1.654295	0.010400	0.355994
C44	C	1.739700	-0.046012	0.427915
C45	C	1.739697	-0.046022	0.571798
C46	C	1.654289	0.010379	0.643760
H47	H	0.807551	0.411720	-0.000142
H48	H	1.654285	0.010360	0.760919
N49	N	1.654290	0.010400	0.200808
H50	H	1.587228	0.054691	0.166163
H51	H	1.739650	0.023090	0.166254
N52	N	0.681259	0.270765	-0.000147
H53	H	0.637946	0.330035	-0.000152
H54	H	0.655709	0.240255	-0.084889
H55	H	1.328542	0.225539	0.369417
H56	H	1.289324	-0.433864	0.092484
N57	N	1.305975	0.240430	0.649473
H58	H	1.353959	0.277799	0.709168
H59	H	1.251893	0.276108	0.581993
H60	H	1.809230	-0.091937	0.369317
H61	H	0.891824	-0.017129	-0.000128
H62	H	1.191179	0.279800	-0.000080
N63	N	1.831815	-0.106854	0.649375
H64	H	1.885923	-0.142576	0.581957
H65	H	1.887314	-0.074441	0.709062
H66	H	1.045200	0.415918	-0.000102
N67	N	1.150752	-0.032758	-0.000044
H68	H	1.134534	-0.066475	-0.084782
H69	H	1.241360	-0.019481	0.000036
N70	N	1.275922	-0.280003	-0.124017
H71	H	1.242942	-0.326402	-0.179474
H72	H	1.202896	-0.239070	-0.092726
H73	H	1.289082	-0.432806	-0.094203
H74	H	1.500580	-0.448929	0.228110
N75	N	1.275456	-0.280740	0.124070
H76	H	1.242438	-0.327478	0.178683
H77	H	1.334067	-0.250550	0.183436
H78	H	1.655720	-0.318967	0.135266
N79	N	1.683498	-0.472292	0.138372
H80	H	1.744339	-0.427971	0.141749
H81	H	1.693548	-0.508117	0.223927
H82	H	1.506376	-0.305577	0.227563
N83	N	1.493353	-0.458241	-0.260456
H84	H	1.419440	-0.490392	-0.237326
H85	H	1.463103	-0.407162	-0.317095
H86	H	1.654048	-0.461861	-0.130294
H87	H	1.503258	-0.306783	-0.227690
N88	N	1.687287	-0.312621	-0.141596
H89	H	1.706735	-0.276184	-0.061185
H90	H	1.746523	-0.366215	-0.140481
