data_functionalizedCrystal
_audit_creation_method	'MofGen! by Chris Wilmer'
_symmetry_space_group_name_H-M	'P1'
_symmetry_Int_Tables_number	1
_symmetry_cell_setting	triclinic
loop_
_symmetry_equiv_pos_as_xyz
  x,y,z
_cell_length_a	19.077105
_cell_length_b	12.594516
_cell_length_c	19.077174
_cell_angle_alpha	92.277804
_cell_angle_beta	85.483752
_cell_angle_gamma	87.712633
loop_
_atom_site_label
_atom_site_type_symbol
_atom_site_fract_x
_atom_site_fract_y
_atom_site_fract_z
Zn1	Zn	1.093758	-0.517166	-0.441877
Zn2	Zn	1.088960	-0.687708	-0.324000
Zn3	Zn	0.971142	-0.502287	-0.319274
Zn4	Zn	0.975854	-0.687638	-0.437118
O5	O	1.032429	-0.598700	-0.380567
O6	O	1.191772	-0.546045	-0.430210
O7	O	1.069351	-0.656914	-0.224723
O8	O	0.987443	-0.355318	-0.335551
O9	O	1.188248	-0.671341	-0.343607
O10	O	1.077528	-0.366249	-0.425627
O11	O	0.982790	-0.520686	-0.221250
O12	O	0.873116	-0.520618	-0.330936
O13	O	0.995475	-0.671223	-0.536400
O14	O	0.876578	-0.656795	-0.417516
O15	O	1.082098	-0.545977	-0.539896
O16	O	1.073921	-0.836642	-0.338992
O17	O	0.990822	-0.836590	-0.422099
C18	C	0.849268	-0.587085	-0.373197
C19	C	0.770912	-0.582143	-0.370061
C20	C	1.032382	-0.875237	-0.380559
C21	C	1.032428	-0.993547	-0.380581
C22	C	0.735918	-0.650820	-0.413594
C23	C	0.662294	-0.646162	-0.410651
C24	C	0.623666	-0.572833	-0.364170
C25	C	0.658664	-0.504149	-0.320635
C26	C	0.732287	-0.508802	-0.323583
C27	C	0.403282	-0.551299	-0.350532
C28	C	0.329655	-0.546653	-0.347586
C29	C	0.333290	-0.688665	-0.437603
C30	C	0.406914	-0.693316	-0.440544
C31	C	0.441906	-0.624629	-0.397011
N32	N	0.548410	-0.568073	-0.361159
N33	N	0.517161	-0.629384	-0.400027
C34	C	0.987224	-1.062809	-0.425750
C35	C	0.967469	-1.128514	-0.360734
C36	C	1.052247	-1.138645	-0.445610
C37	C	1.012637	-1.057690	-0.315530
C38	C	1.097447	-1.067820	-0.400450
C39	C	1.077715	-1.133492	-0.335392
C40	C	1.216304	-0.610360	-0.387967
C41	C	1.294661	-0.615329	-0.391120
C42	C	1.039847	-0.610252	-0.564442
C43	C	1.043008	-0.615174	-0.642798
C44	C	1.032495	-0.321084	-0.380592
C45	C	1.032523	-0.202781	-0.380603
C46	C	0.999428	-0.546562	-0.677802
C47	C	1.002396	-0.551196	-0.751426
C48	C	1.048948	-0.624438	-0.790045
C49	C	1.092530	-0.693058	-0.755037
C50	C	1.089558	-0.688428	-0.681414
C51	C	1.062665	-0.645895	-1.010428
C52	C	1.065635	-0.650517	-1.084056
C53	C	0.975499	-0.508656	-1.080440
C54	C	0.972535	-0.504028	-1.006816
C55	C	1.016114	-0.572652	-0.971814
N56	N	1.051984	-0.629174	-0.865301
N57	N	1.013074	-0.567920	-0.896559
C58	C	1.025079	-0.587119	-0.197410
C59	C	1.022055	-0.581905	-0.119059
H60	H	0.767365	-0.710536	-0.451442
Cl61	Cl	0.618306	-0.732503	-0.465381
H62	H	0.438361	-0.753031	-0.478392
Cl63	Cl	0.289295	-0.775011	-0.492325
H64	H	0.627207	-0.444438	-0.282793
Cl65	Cl	1.136797	-1.181108	-0.276365
H66	H	0.760778	-0.452873	-0.288137
H67	H	1.098143	-0.701784	-0.981938
H68	H	0.298205	-0.486927	-0.309740
Cl69	Cl	0.928095	-1.014875	-0.484631
H70	H	0.431764	-0.495376	-0.315080
Cl71	Cl	1.144345	-0.774692	-0.637409
H72	H	0.934625	-0.444389	-0.975377
H73	H	0.912529	-1.155368	-0.343946
H74	H	1.130430	-0.752699	-0.786486
H75	H	1.152377	-1.040970	-0.417269
H76	H	0.966905	-0.495328	-0.779922
H77	H	0.995849	-1.022424	-0.260527
Cl78	Cl	1.078069	-1.193288	-0.530501
H79	H	0.961524	-0.486914	-0.646363
H80	H	0.940019	-0.452788	-1.108947
H81	H	1.103547	-0.710161	-1.115498
