data_functionalizedCrystal
_audit_creation_method	'MofGen! by Chris Wilmer'
_symmetry_space_group_name_H-M	'P1'
_symmetry_Int_Tables_number	1
_symmetry_cell_setting	triclinic
loop_
_symmetry_equiv_pos_as_xyz
  x,y,z
_cell_length_a	10.654550
_cell_length_b	10.540539
_cell_length_c	9.730223
_cell_angle_alpha	89.997733
_cell_angle_beta	89.999957
_cell_angle_gamma	84.505211
loop_
_atom_site_label
_atom_site_type_symbol
_atom_site_fract_x
_atom_site_fract_y
_atom_site_fract_z
O1	O	1.667902	0.178301	-0.114180
O2	O	1.302429	0.195288	-0.114205
O3	O	1.493504	0.002085	-0.114190
O4	O	1.476827	0.371504	-0.114195
O5	O	1.493491	0.002079	0.114390
O6	O	1.302417	0.195282	0.114375
O7	O	1.667889	0.178295	0.114400
Zn8	Zn	1.485151	0.186788	0.150679
Zn9	Zn	1.485167	0.186795	-0.150484
O10	O	1.476815	0.371498	0.114385
C11	C	1.255625	0.194038	0.000082
C12	C	1.116180	0.190306	0.000072
C13	C	1.036735	0.304061	0.000075
C14	C	0.905712	0.300547	0.000099
C15	C	0.933594	0.069513	0.000112
C16	C	1.064614	0.073029	0.000098
C17	C	1.492247	-0.045221	0.000097
C18	C	1.488505	-0.186167	0.000090
C19	C	1.345134	-0.369543	-0.000433
C20	C	1.348927	-0.222926	0.000082
C21	C	1.555670	-0.247852	0.130624
C22	C	1.550906	-0.394395	0.130734
C23	C	1.553759	-0.394908	-0.129204
C24	C	1.555044	-0.247927	-0.130930
C25	C	1.714694	0.179545	0.000110
C26	C	1.854139	0.183277	0.000110
C27	C	1.478072	0.418804	0.000095
C28	C	1.481813	0.559750	0.000093
N29	N	1.485149	0.186782	0.356216
N30	N	1.485179	0.186791	-0.356021
C31	C	1.569786	0.101269	0.428148
C32	C	1.569799	0.101269	0.572031
C33	C	1.400533	0.272309	0.572037
C34	C	1.400516	0.272301	0.428156
H35	H	1.078715	0.399556	0.000064
C36	C	0.818327	0.425687	0.000108
N37	N	0.752509	0.519948	0.000119
C38	C	0.876858	-0.059486	0.000127
N39	N	0.834127	-0.156650	0.000133
H40	H	1.129302	-0.019610	0.000100
H41	H	1.296078	-0.180301	-0.093491
C42	C	1.686515	-0.459250	0.138765
N43	N	1.788654	-0.508094	0.144822
H44	H	1.509003	-0.205238	0.227758
H45	H	1.290002	-0.398121	-0.094042
C46	C	1.270956	-0.410287	0.125339
N47	N	1.215093	-0.440965	0.220083
H48	H	1.295697	-0.181153	0.093803
C49	C	1.483819	-0.432472	0.262539
N50	N	1.433283	-0.461144	0.361815
H51	H	1.638716	0.031634	0.630595
C52	C	1.307462	0.366436	0.349026
N53	N	1.237395	0.437355	0.289425
H54	H	1.658172	-0.225535	0.135484
H55	H	1.656808	-0.223742	-0.138805
C56	C	1.492733	-0.437503	-0.262864
N57	N	1.446753	-0.469583	-0.363530
C58	C	1.488718	-0.192629	-0.261392
N59	N	1.438748	-0.150982	-0.359653
C60	C	1.689954	-0.458764	-0.130387
N61	N	1.792532	-0.506869	-0.131270
H62	H	1.638698	0.031632	0.369578
C63	C	1.307439	0.366371	0.651185
N64	N	1.237318	0.437221	0.710798
