data_functionalizedCrystal
_audit_creation_method	'MofGen! by Chris Wilmer'
_symmetry_space_group_name_H-M	'P1'
_symmetry_Int_Tables_number	1
_symmetry_cell_setting	triclinic
loop_
_symmetry_equiv_pos_as_xyz
  x,y,z
_cell_length_a	13.897449
_cell_length_b	21.295412
_cell_length_c	13.897448
_cell_angle_alpha	89.975155
_cell_angle_beta	90.018519
_cell_angle_gamma	89.975000
loop_
_atom_site_label
_atom_site_type_symbol
_atom_site_fract_x
_atom_site_fract_y
_atom_site_fract_z
Zn1	Zn	1.474718	-0.355962	-0.384018
Zn2	Zn	1.808051	-0.022629	-0.050684
Zn3	Zn	2.141385	0.310705	0.282649
Zn4	Zn	1.474607	-0.250698	-0.545323
Zn5	Zn	1.807941	0.082635	-0.211990
Zn6	Zn	2.141274	0.415969	0.121344
Zn7	Zn	1.313403	-0.250704	-0.384046
Zn8	Zn	1.646736	0.082629	-0.050713
Zn9	Zn	1.980069	0.415962	0.282621
Zn10	Zn	1.313389	-0.355927	-0.545275
Zn11	Zn	1.646722	-0.022594	-0.211941
Zn12	Zn	1.980055	0.310740	0.121392
O13	O	1.394029	-0.303323	-0.464665
O14	O	1.727362	0.030011	-0.131332
O15	O	2.060696	0.363344	0.202001
O16	O	1.609685	-0.342010	-0.405423
O17	O	1.943018	-0.008677	-0.072090
O18	O	2.276352	0.324656	0.261243
O19	O	1.453183	-0.162609	-0.523962
O20	O	1.786516	0.170724	-0.190628
O21	O	2.119849	0.504057	0.142705
O22	O	1.334853	-0.264684	-0.249061
O23	O	1.668187	0.068649	0.084273
O24	O	2.001520	0.401983	0.417606
O25	O	1.609604	-0.264673	-0.523934
O26	O	1.942937	0.068660	-0.190601
O27	O	2.276270	0.401993	0.142733
O28	O	1.453371	-0.342016	-0.249040
O29	O	1.786704	-0.008683	0.084294
O30	O	2.120038	0.324650	0.417627
O31	O	1.334746	-0.162614	-0.405472
O32	O	1.668080	0.170719	-0.072139
O33	O	2.001413	0.504053	0.261195
O34	O	1.178419	-0.264650	-0.405425
O35	O	1.511752	0.068683	-0.072092
O36	O	1.845086	0.402016	0.261242
O37	O	1.334830	-0.444021	-0.523851
O38	O	1.668163	-0.110688	-0.190518
O39	O	2.001497	0.222646	0.142815
O40	O	1.178409	-0.341957	-0.523879
O41	O	1.511742	-0.008624	-0.190546
O42	O	1.845076	0.324710	0.142788
O43	O	1.453358	-0.444047	-0.405377
O44	O	1.786691	-0.110713	-0.072043
O45	O	2.120024	0.222620	0.261290
O46	O	1.453169	-0.264640	-0.680298
O47	O	1.786503	0.068694	-0.346965
O48	O	2.119836	0.402027	-0.013632
O49	O	1.334723	-0.341951	-0.680263
O50	O	1.668056	-0.008618	-0.346929
O51	O	2.001389	0.324716	-0.013596
C52	C	1.143415	-0.303301	-0.464651
C53	C	1.476748	0.030033	-0.131317
C54	C	1.810081	0.363366	0.202016
C55	C	1.036201	-0.303306	-0.464667
C56	C	1.369534	0.030027	-0.131334
C57	C	1.702868	0.363360	0.201999
C58	C	1.394105	-0.467513	-0.464605
C59	C	1.727438	-0.134180	-0.131272
C60	C	2.060771	0.199154	0.202061
C61	C	1.394137	-0.537481	-0.464580
C62	C	1.727470	-0.204148	-0.131246
C63	C	2.060803	0.129185	0.202087
C64	C	0.949131	-0.303317	-0.464671
C65	C	1.282464	0.030017	-0.131337
C66	C	1.615798	0.363350	0.201996
C67	C	0.839899	-0.303336	-0.464677
C68	C	1.173232	0.029997	-0.131344
C69	C	1.506565	0.363331	0.201989
C70	C	1.332483	-0.570340	-0.402875
C71	C	1.665817	-0.237007	-0.069542
C72	C	1.999150	0.096326	0.263791
C73	C	1.332480	-0.636083	-0.402857
C74	C	1.665813	-0.302750	-0.069524
C75	C	1.999147	0.030584	0.263809
C76	C	1.394147	-0.668964	-0.464534
C77	C	1.727480	-0.335630	-0.131200
C78	C	2.060814	-0.002297	0.202133
C79	C	1.455805	-0.636097	-0.526250
C80	C	1.789138	-0.302763	-0.192917
C81	C	2.122472	0.030570	0.140416
C82	C	1.455800	-0.570355	-0.526273
C83	C	1.789133	-0.237022	-0.192940
C84	C	2.122466	0.096311	0.140393
N85	N	1.478587	-0.772204	-0.471899
N86	N	1.811920	-0.438871	-0.138566
N87	N	2.145253	-0.105537	0.194767
N88	N	1.478589	-0.834655	-0.471872
N89	N	1.811922	-0.501322	-0.138539
N90	N	2.145256	-0.167989	0.194795
C91	C	1.394165	-0.867039	-0.464470
C92	C	1.727498	-0.533705	-0.131136
C93	C	2.060832	-0.200372	0.202197
N94	N	1.309737	-0.834611	-0.457077
N95	N	1.643070	-0.501278	-0.123744
N96	N	1.976403	-0.167944	0.209590
N97	N	1.309736	-0.772154	-0.457100
N98	N	1.643069	-0.438820	-0.123766
N99	N	1.976402	-0.105487	0.209567
C100	C	1.394159	-0.740249	-0.464516
C101	C	1.727492	-0.406916	-0.131183
C102	C	2.060826	-0.073583	0.202151
C103	C	1.332503	-0.971183	-0.402742
C104	C	1.665836	-0.637850	-0.069409
C105	C	1.999169	-0.304517	0.263924
C106	C	1.332497	-1.036927	-0.402731
C107	C	1.665831	-0.703594	-0.069398
C108	C	1.999164	-0.370260	0.263935
C109	C	1.455831	-1.036940	-0.526119
C110	C	1.789164	-0.703606	-0.192786
C111	C	2.122498	-0.370273	0.140548
C112	C	1.455828	-0.971197	-0.526135
C113	C	1.789161	-0.637864	-0.192802
C114	C	2.122494	-0.304530	0.140531
C115	C	1.394165	-0.938323	-0.464442
C116	C	1.727498	-0.604990	-0.131108
C117	C	2.060831	-0.271656	0.202225
C118	C	1.645622	-0.303345	-0.464681
C119	C	1.978955	0.029988	-0.131348
C120	C	2.312289	0.363322	0.201986
C121	C	1.752836	-0.303355	-0.464688
C122	C	2.086169	0.029979	-0.131354
C123	C	2.419503	0.363312	0.201979
C124	C	1.393959	-0.303305	-0.715280
C125	C	1.727292	0.030029	-0.381946
C126	C	2.060625	0.363362	-0.048613
C127	C	1.394017	-0.303318	-0.822494
C128	C	1.727350	0.030016	-0.489160
C129	C	2.060684	0.363349	-0.155827
C130	C	1.394009	-0.139771	-0.464656
C131	C	1.727343	0.193562	-0.131322
C132	C	2.060676	0.526895	0.202011
C133	C	1.394164	-0.069803	-0.464409
C134	C	1.727498	0.263530	-0.131076
C135	C	2.060831	0.596863	0.202257
C136	C	1.394118	-0.303357	-1.018789
C137	C	1.727451	0.029976	-0.685455
C138	C	2.060785	0.363309	-0.352122
C139	C	1.394059	-0.303337	-0.909556
C140	C	1.727392	0.029996	-0.576223
C141	C	2.060726	0.363329	-0.242890
C142	C	1.394126	-0.303355	-0.213072
C143	C	1.727459	0.029979	0.120261
C144	C	2.060793	0.363312	0.453594
C145	C	1.394167	-0.303368	-0.105858
C146	C	1.727501	0.029965	0.227475
C147	C	2.060834	0.363298	0.560808
H148	H	1.282269	-0.543578	-0.352643
H149	H	1.615602	-0.210245	-0.019310
H150	H	1.948935	0.123089	0.314023
N151	N	1.265984	-0.935722	-0.336219
N152	N	1.599317	-0.602389	-0.002886
N153	N	1.932650	-0.269056	0.330448
H154	H	1.275340	-0.889089	-0.345591
H155	H	1.608673	-0.555756	-0.012258
H156	H	1.942006	-0.222422	0.321075
H157	H	1.281020	-0.947229	-0.267326
H158	H	1.614354	-0.613896	0.066007
H159	H	1.947687	-0.280562	0.399341
H160	H	1.282285	-1.063680	-0.352487
H161	H	1.615618	-0.730347	-0.019154
H162	H	1.948951	-0.397013	0.314180
H163	H	1.282276	-0.662842	-0.352605
H164	H	1.615609	-0.329509	-0.019272
H165	H	1.948942	0.003825	0.314061
H166	H	1.506015	-0.662873	-0.576468
H167	H	1.839348	-0.329539	-0.243134
H168	H	2.172681	0.003794	0.090199
N169	N	1.522347	-1.072397	-0.592639
N170	N	1.855680	-0.739063	-0.259306
N171	N	2.189014	-0.405730	0.074028
H172	H	1.561408	-1.041601	-0.631731
H173	H	1.894741	-0.708268	-0.298398
H174	H	2.228074	-0.374935	0.034936
H175	H	1.483066	-1.099656	-0.637267
H176	H	1.816399	-0.766322	-0.303933
H177	H	2.149733	-0.432989	0.029400
H178	H	1.506035	-0.944443	-0.576379
H179	H	1.839368	-0.611110	-0.243046
H180	H	2.172702	-0.277776	0.090287
N181	N	1.522299	-0.534911	-0.592830
N182	N	1.855633	-0.201577	-0.259497
N183	N	2.188966	0.131756	0.073837
H184	H	1.561364	-0.565714	-0.631903
H185	H	1.894697	-0.232381	-0.298570
H186	H	2.228030	0.100952	0.034764
H187	H	1.566954	-0.507652	-0.553578
H188	H	1.900287	-0.174319	-0.220245
H189	H	2.233620	0.159014	0.113089
