data_functionalizedCrystal
_audit_creation_method	'MofGen! by Chris Wilmer'
_symmetry_space_group_name_H-M	'P1'
_symmetry_Int_Tables_number	1
_symmetry_cell_setting	triclinic
loop_
_symmetry_equiv_pos_as_xyz
  x,y,z
_cell_length_a	19.121224
_cell_length_b	12.759399
_cell_length_c	12.759393
_cell_angle_alpha	90.026988
_cell_angle_beta	92.470281
_cell_angle_gamma	92.446920
loop_
_atom_site_label
_atom_site_type_symbol
_atom_site_fract_x
_atom_site_fract_y
_atom_site_fract_z
Zn1	Zn	-1.073826	0.349881	-0.662851
Zn2	Zn	-0.573826	0.849881	-0.162851
Zn3	Zn	-1.073754	0.525601	-0.487177
Zn4	Zn	-0.573754	1.025601	0.012823
Zn5	Zn	-0.956366	0.357407	-0.479660
Zn6	Zn	-0.456366	0.857407	0.020340
Zn7	Zn	-0.956361	0.532993	-0.655292
Zn8	Zn	-0.456361	1.032993	-0.155292
O9	O	-1.015077	0.441470	-0.571245
O10	O	-0.515077	0.941470	-0.071245
O11	O	-1.172103	0.366947	-0.645857
O12	O	-0.672103	0.866947	-0.145857
O13	O	-1.058154	0.503345	-0.339157
O14	O	-0.558154	1.003345	0.160843
O15	O	-0.971979	0.209385	-0.503978
O16	O	-0.471979	0.709385	-0.003978
O17	O	-1.172050	0.496048	-0.516790
O18	O	-0.672050	0.996048	-0.016790
O19	O	-1.058277	0.203856	-0.638567
O20	O	-0.558277	0.703856	-0.138567
O21	O	-0.971909	0.379774	-0.333634
O22	O	-0.471909	0.879774	0.166366
O23	O	-0.858078	0.386942	-0.496649
O24	O	-0.358078	0.886942	0.003351
O25	O	-0.971971	0.508647	-0.803318
O26	O	-0.471971	1.008647	-0.303318
O27	O	-0.858075	0.515945	-0.625685
O28	O	-0.358075	1.015945	-0.125685
O29	O	-1.058272	0.374115	-0.808871
O30	O	-0.558272	0.874115	-0.308871
O31	O	-1.058149	0.673605	-0.509461
O32	O	-0.558149	1.173605	-0.009461
O33	O	-0.971901	0.679036	-0.632974
O34	O	-0.471901	1.179036	-0.132974
C35	C	-0.832592	0.453063	-0.559532
C36	C	-0.332592	0.953063	-0.059532
C37	C	-0.754524	0.458048	-0.554545
C38	C	-0.254524	0.958048	-0.054545
C39	C	-0.312987	0.489606	-0.523003
C40	C	0.187013	0.989606	-0.023003
C41	C	-0.386340	0.484917	-0.527680
C42	C	0.113660	0.984917	-0.027680
C43	C	-0.423046	0.415466	-0.597326
C44	C	0.076954	0.915466	-0.097326
C45	C	-0.386396	0.350693	-0.662292
C46	C	0.113604	0.850693	-0.162292
C47	C	-0.313044	0.355377	-0.657609
C48	C	0.186956	0.855377	-0.157609
C49	C	-0.644522	0.397959	-0.614828
C50	C	-0.144522	0.897959	-0.114828
C51	C	-0.717879	0.393282	-0.619509
C52	C	-0.217879	0.893282	-0.119509
C53	C	-0.717818	0.527505	-0.484895
C54	C	-0.217818	1.027505	0.015105
C55	C	-0.644465	0.532188	-0.480222
C56	C	-0.144465	1.032188	0.019778
C57	C	-0.607821	0.467411	-0.545184
C58	C	-0.107821	0.967411	-0.045184
C59	C	-0.498025	0.410673	-0.602111
C60	C	0.001975	0.910673	-0.102111
C61	C	-0.532844	0.472199	-0.540393
C62	C	-0.032844	0.972199	-0.040393
C63	C	-1.015036	0.714440	-0.571237
C64	C	-0.515036	1.214440	-0.071237
C65	C	-1.015083	0.831214	-0.571273
C66	C	-0.515083	1.331214	-0.071273
C67	C	-0.198274	0.429825	-0.582992
C68	C	0.301726	0.929825	-0.082992
C69	C	-0.276342	0.424840	-0.587966
C70	C	0.223658	0.924840	-0.087966
C71	C	-1.060085	0.992938	-0.507083
C72	C	-0.560085	1.492938	-0.007083
C73	C	-1.060043	0.883217	-0.507041
C74	C	-0.560043	1.383217	-0.007041
C75	C	-0.970157	0.888939	-0.635544
C76	C	-0.470157	1.388939	-0.135544
C77	C	-0.970197	0.998658	-0.635580
C78	C	-0.470197	1.498658	-0.135580
C79	C	-1.015129	0.441366	-0.845282
C80	C	-0.515129	0.941366	-0.345282
C81	C	-1.015152	0.441322	-0.962060
C82	C	-0.515152	0.941322	-0.462060
C83	C	-1.015137	1.167433	-0.571292
C84	C	-0.515137	1.667433	-0.071292
C85	C	-1.015165	1.050655	-0.571351
C86	C	-0.515165	1.550655	-0.071351
C87	C	-1.060092	0.371260	-1.019815
C88	C	-0.560092	0.871260	-0.519815
C89	C	-1.060104	0.371214	-1.129540
C90	C	-0.560104	0.871214	-0.629540
C91	C	-0.970233	0.511301	-1.123745
C92	C	-0.470233	1.011301	-0.623745
C93	C	-0.970218	0.511341	-1.014022
C94	C	-0.470218	1.011341	-0.514022
C95	C	-1.015065	0.441496	-0.298277
C96	C	-0.515065	0.941496	0.201723
C97	C	-1.015178	0.441236	-0.181508
C98	C	-0.515178	0.941236	0.318492
H99	H	-0.614584	0.588741	-0.423508
H100	H	-0.114584	1.088741	0.076492
C101	C	-0.851196	0.862821	-0.678945
C102	C	-0.351196	1.362821	-0.178945
C103	C	-0.920738	0.831783	-0.706157
C104	C	-0.420738	1.331783	-0.206157
H105	H	-0.820689	0.827532	-0.722541
H106	H	-0.320689	1.327532	-0.222541
H107	H	-0.844795	0.936418	-0.688162
H108	H	-0.344795	1.436418	-0.188162
H109	H	-0.840939	0.845545	-0.607680
H110	H	-0.340939	1.345545	-0.107680
H111	H	-0.930997	0.849066	-0.777420
H112	H	-0.430997	1.349066	-0.277420
H113	H	-0.927142	0.758170	-0.696948
H114	H	-0.427142	1.258170	-0.196948
H115	H	-0.614695	0.345218	-0.667730
H116	H	-0.114695	0.845218	-0.167730
H117	H	-0.416287	0.294140	-0.718995
H118	H	0.083713	0.794140	-0.218995
H119	H	-0.933614	1.045653	-0.687917
H120	H	-0.433614	1.545653	-0.187917
H121	H	-0.747662	0.580242	-0.432006
H122	H	-0.247662	1.080242	0.067994
C123	C	-1.148919	0.232778	-1.036569
C124	C	-0.648919	0.732778	-0.536569
C125	C	-1.109475	0.294286	-0.962698
C126	C	-0.609475	0.794286	-0.462698
H127	H	-1.179402	0.185251	-1.001306
H128	H	-0.679402	0.685251	-0.501306
H129	H	-1.175781	0.276830	-1.081083
H130	H	-0.675781	0.776830	-0.581083
H131	H	-1.118323	0.194524	-1.077404
H132	H	-0.618323	0.694524	-0.577404
H133	H	-1.140071	0.332546	-0.921868
H134	H	-0.640071	0.832546	-0.421868
H135	H	-1.082611	0.250228	-0.918165
H136	H	-0.582611	0.750228	-0.418165
H137	H	-0.283208	0.302634	-0.710506
H138	H	0.216792	0.802634	-0.210506
C139	C	-1.154593	0.350569	-1.259024
C140	C	-0.654593	0.850569	-0.759024
C141	C	-1.109500	0.294200	-1.193032
C142	C	-0.609500	0.794200	-0.693032
H143	H	-1.185084	0.303018	-1.298225
H144	H	-0.685084	0.803018	-0.798225
H145	H	-1.181445	0.394644	-1.217946
H146	H	-0.681445	0.894644	-0.717946
H147	H	-1.127829	0.392261	-1.305668
H148	H	-0.627829	0.892261	-0.805668
H149	H	-1.136264	0.252514	-1.146382
H150	H	-0.636264	0.752514	-0.646382
H151	H	-1.082646	0.250107	-1.234113
H152	H	-0.582646	0.750107	-0.734113
H153	H	-0.933652	0.568310	-1.166065
H154	H	-0.433652	1.068310	-0.666065
H155	H	-0.416174	0.537654	-0.474779
H156	H	0.083826	1.037654	0.025221
C157	C	-0.930289	0.573598	-0.843247
C158	C	-0.430289	1.073598	-0.343247
C159	C	-0.920816	0.588358	-0.950527
C160	C	-0.420816	1.088358	-0.450527
H161	H	-0.899787	0.621137	-0.804050
H162	H	-0.399787	1.121137	-0.304050
H163	H	-0.977469	0.585989	-0.828305
H164	H	-0.477469	1.085989	-0.328305
H165	H	-0.920025	0.503661	-0.824628
H166	H	-0.420025	1.003661	-0.324628
H167	H	-0.931085	0.658293	-0.969147
H168	H	-0.431085	1.158293	-0.469147
H169	H	-0.873626	0.575975	-0.965475
H170	H	-0.373626	1.075975	-0.465475
C171	C	-1.148901	0.888589	-0.380039
C172	C	-0.648901	1.388589	0.119961
C173	C	-1.109425	0.819775	-0.436400
C174	C	-0.609425	1.319775	0.063600
H175	H	-1.179390	0.849420	-0.336431
H176	H	-0.679390	1.349420	0.163569
H177	H	-1.118331	0.933396	-0.337866
H178	H	-0.618331	1.433396	0.162134
H179	H	-1.175763	0.929608	-0.427599
H180	H	-0.675763	1.429608	0.072401
H181	H	-1.082558	0.778761	-0.388840
H182	H	-0.582558	1.278761	0.111160
H183	H	-1.139999	0.774949	-0.478577
H184	H	-0.639999	1.274949	0.021423
C185	C	-0.320303	0.621800	-0.390408
C186	C	0.179697	1.121800	0.109592
C187	C	-0.272643	0.565948	-0.446444
C188	C	0.227357	1.065948	0.053556
H189	H	-0.295396	0.668926	-0.343138
H190	H	0.204604	1.168926	0.156862
H191	H	-0.348924	0.660215	-0.437941
H192	H	0.151076	1.160215	0.062059
H193	H	-0.348903	0.574136	-0.352129
H194	H	0.151097	1.074136	0.147871
H195	H	-0.244046	0.613613	-0.484729
H196	H	0.255954	1.113613	0.015271
H197	H	-0.244010	0.527532	-0.398904
H198	H	0.255990	1.027532	0.101096
H199	H	-0.747763	0.336719	-0.676221
H200	H	-0.247763	0.836719	-0.176221
H201	H	-0.527919	0.354129	-0.658820
H202	H	-0.027919	0.854129	-0.158820
C203	C	-0.540151	0.604406	-0.407803
C204	C	-0.040151	1.104406	0.092197
C205	C	-0.492499	0.548539	-0.463839
C206	C	0.007501	1.048539	0.036161
H207	H	-0.515237	0.651533	-0.360541
H208	H	-0.015237	1.151533	0.139459
H209	H	-0.568772	0.642821	-0.455337
H210	H	-0.068772	1.142821	0.044663
H211	H	-0.568751	0.556751	-0.369515
H212	H	-0.068751	1.056751	0.130485
H213	H	-0.463902	0.596194	-0.502134
H214	H	0.036098	1.096194	-0.002134
H215	H	-0.463866	0.510123	-0.416299
H216	H	0.036134	1.010123	0.083701
C217	C	-1.154631	1.110182	-0.498730
C218	C	-0.654631	1.610182	0.001270
C219	C	-1.109523	1.050081	-0.436490
C220	C	-0.609523	1.550081	0.063510
H221	H	-1.185158	1.145447	-0.455147
H222	H	-0.685158	1.645447	0.044853
H223	H	-1.127886	1.160267	-0.536989
H224	H	-0.627886	1.660267	-0.036989
H225	H	-1.181450	1.065584	-0.546252
H226	H	-0.681450	1.565584	-0.046252
H227	H	-1.082700	1.094680	-0.388973
H228	H	-0.582700	1.594680	0.111027
H229	H	-1.136272	0.999989	-0.398212
H230	H	-0.636272	1.499989	0.101788
