data_functionalizedCrystal
_audit_creation_method	'MofGen! by Chris Wilmer'
_symmetry_space_group_name_H-M	'P1'
_symmetry_Int_Tables_number	1
_symmetry_cell_setting	triclinic
loop_
_symmetry_equiv_pos_as_xyz
  x,y,z
_cell_length_a	10.685980
_cell_length_b	25.639240
_cell_length_c	10.685880
_cell_angle_alpha	94.327944
_cell_angle_beta	80.918858
_cell_angle_gamma	94.398495
loop_
_atom_site_label
_atom_site_type_symbol
_atom_site_fract_x
_atom_site_fract_y
_atom_site_fract_z
Zn1	Zn	1.995601	-0.172273	-0.866571
Zn2	Zn	2.495601	0.327727	-0.366571
Zn3	Zn	1.979126	-0.253501	-0.654267
Zn4	Zn	2.479126	0.246499	-0.154267
Zn5	Zn	1.767041	-0.172301	-0.638044
Zn6	Zn	2.267041	0.327699	-0.138044
Zn7	Zn	1.783229	-0.265901	-0.850163
Zn8	Zn	2.283229	0.234099	-0.350163
O9	O	1.881249	-0.215994	-0.752261
O10	O	2.381249	0.284006	-0.252261
O11	O	2.171053	-0.177847	-0.852065
O12	O	2.671053	0.322153	-0.352065
O13	O	1.937323	-0.237552	-0.474492
O14	O	2.437323	0.262448	0.025508
O15	O	1.797481	-0.099130	-0.668436
O16	O	2.297481	0.400870	-0.168436
O17	O	2.158948	-0.237525	-0.696086
O18	O	2.658948	0.262475	-0.196086
O19	O	1.965403	-0.099110	-0.836334
O20	O	2.465403	0.400890	-0.336334
O21	O	1.781505	-0.177894	-0.462573
O22	O	2.281505	0.322106	0.037427
O23	O	1.591552	-0.189918	-0.652526
O24	O	2.091552	0.310082	-0.152526
O25	O	1.825070	-0.258659	-1.029963
O26	O	2.325070	0.241341	-0.529963
O27	O	1.603444	-0.258686	-0.808369
O28	O	2.103444	0.241314	-0.308369
O29	O	1.981099	-0.189871	-1.042018
O30	O	2.481099	0.310129	-0.542018
O31	O	1.953019	-0.328313	-0.680176
O32	O	2.453019	0.171687	-0.180176
O33	O	1.809094	-0.337423	-0.824100
O34	O	2.309094	0.162577	-0.324100
C35	C	1.551439	-0.225651	-0.726907
C36	C	2.051439	0.274349	-0.226907
C37	C	1.410347	-0.229796	-0.716090
C38	C	1.910347	0.270204	-0.216090
C39	C	1.881062	-0.351839	-0.752148
C40	C	2.381062	0.148161	-0.252148
C41	C	1.881102	-0.409952	-0.752151
C42	C	2.381102	0.090048	-0.252151
C43	C	1.968738	-0.770268	-0.839836
C44	C	2.468738	-0.270268	-0.339836
C45	C	1.968777	-0.824872	-0.839864
C46	C	2.468777	-0.324872	-0.339864
O47	O	2.043067	-0.853072	-0.914298
O48	O	2.543067	-0.353072	-0.414298
N49	N	1.881435	-0.852231	-0.752398
N50	N	2.381435	-0.352231	-0.252398
C51	C	1.794039	-0.824985	-0.664905
C52	C	2.294039	-0.324985	-0.164905
O53	O	1.719750	-0.853271	-0.590511
O54	O	2.219750	-0.353271	-0.090511
C55	C	1.793995	-0.770382	-0.664883
C56	C	2.293995	-0.270382	-0.164883
C57	C	1.881351	-0.743025	-0.752347
C58	C	2.381351	-0.243025	-0.252347
C59	C	2.056086	-0.742910	-0.927293
C60	C	2.556086	-0.242910	-0.427293
C61	C	2.056048	-0.688310	-0.927263
C62	C	2.556048	-0.188310	-0.427263
C63	C	1.968661	-0.661067	-0.839774
C64	C	2.468661	-0.161067	-0.339774
C65	C	1.881313	-0.688425	-0.752317
C66	C	2.381313	-0.188425	-0.252317
C67	C	1.706594	-0.743137	-0.577398
C68	C	2.206594	-0.243137	-0.077398
C69	C	1.706556	-0.688531	-0.577384
C70	C	2.206556	-0.188531	-0.077384
C71	C	1.793913	-0.661174	-0.664848
C72	C	2.293913	-0.161174	-0.164848
C73	C	1.793888	-0.606582	-0.664798
C74	C	2.293888	-0.106582	-0.164798
N75	N	1.881230	-0.579222	-0.752264
N76	N	2.381230	-0.079222	-0.252264
C77	C	1.968617	-0.606465	-0.839753
C78	C	2.468617	-0.106465	-0.339753
C79	C	1.794137	-0.939654	-0.664959
C80	C	2.294137	-0.439654	-0.164959
C81	C	1.794186	-0.994255	-0.664974
C82	C	2.294186	-0.494255	-0.164974
C83	C	1.968924	-0.994138	-0.839935
C84	C	2.468924	-0.494138	-0.339935
C85	C	1.968879	-0.939536	-0.839913
C86	C	2.468879	-0.439536	-0.339913
C87	C	1.881480	-0.912294	-0.752425
C88	C	2.381480	-0.412294	-0.252425
C89	C	1.968531	-0.491800	-0.839681
C90	C	2.468531	0.008200	-0.339681
C91	C	1.968488	-0.437195	-0.839639
C92	C	2.468488	0.062805	-0.339639
C93	C	1.793748	-0.437317	-0.664683
C94	C	2.293748	0.062683	-0.164683
C95	C	1.793794	-0.491917	-0.664720
C96	C	2.293794	0.008083	-0.164720
C97	C	1.881191	-0.519157	-0.752230
C98	C	2.381191	-0.019157	-0.252230
O99	O	1.719632	-0.578347	-0.590405
O100	O	2.219632	-0.078347	-0.090405
O101	O	2.042882	-0.578173	-0.914145
O102	O	2.542882	-0.078173	-0.414145
C103	C	2.212348	-0.206300	-0.777716
C104	C	2.712348	0.293700	-0.277716
C105	C	2.353442	-0.202169	-0.788563
C106	C	2.853442	0.297831	-0.288563
C107	C	1.906728	-0.225645	-1.083333
C108	C	2.406728	0.274355	-0.583333
C109	C	1.917585	-0.229758	-1.224417
C110	C	2.417585	0.270242	-0.724417
C111	C	1.881474	-0.079618	-0.752406
C112	C	2.381474	0.420382	-0.252406
C113	C	1.881569	-0.021503	-0.752467
C114	C	2.381569	0.478497	-0.252467
C115	C	1.855943	-0.206341	-0.422483
C116	C	2.355943	0.293659	0.077517
C117	C	1.845332	-0.202073	-0.281420
C118	C	2.345332	0.297927	0.218580
H119	H	1.351119	-0.256621	-0.645758
H120	H	1.851119	0.243379	-0.145758
H121	H	1.987760	-0.256609	-1.283554
H122	H	2.487760	0.243391	-0.783554
Cl123	Cl	1.444871	-0.160749	-0.897137
Cl124	Cl	1.944871	0.339251	-0.397137
H125	H	2.039629	-0.414922	-0.910863
H126	H	2.539629	0.085078	-0.410863
Cl127	Cl	2.078406	-0.526036	-0.949691
Cl128	Cl	2.578406	-0.026036	-0.449691
Cl129	Cl	1.596762	-0.777517	-0.467440
Cl130	Cl	2.096762	-0.277517	0.032560
Cl131	Cl	1.736981	-0.160623	-1.190129
Cl132	Cl	2.236981	0.339377	-0.690129
Cl133	Cl	1.596676	-0.654288	-0.467392
Cl134	Cl	2.096676	-0.154288	0.032608
H135	H	2.127178	-0.666039	-0.998487
H136	H	2.627178	-0.166039	-0.498487
Cl137	Cl	2.165956	-0.777149	-1.037298
Cl138	Cl	2.665956	-0.277149	-0.537298
H139	H	2.040012	-0.917265	-0.911134
H140	H	2.540012	-0.417265	-0.411134
Cl141	Cl	1.684378	-1.028640	-0.554998
Cl142	Cl	2.184378	-0.528640	-0.054998
Cl143	Cl	2.078780	-1.028397	-0.949923
Cl144	Cl	2.578780	-0.528397	-0.449923
Cl145	Cl	1.684260	-0.905413	-0.554954
Cl146	Cl	2.184260	-0.405413	-0.054954
Cl147	Cl	1.683988	-0.526309	-0.554749
Cl148	Cl	2.183988	-0.026309	-0.054749
H149	H	1.722602	-0.415127	-0.593448
H150	H	2.222602	0.084873	-0.093448
