data_functionalizedCrystal
_audit_creation_method	'MofGen! by Chris Wilmer'
_symmetry_space_group_name_H-M	'P1'
_symmetry_Int_Tables_number	1
_symmetry_cell_setting	triclinic
loop_
_symmetry_equiv_pos_as_xyz
  x,y,z
_cell_length_a	14.971486
_cell_length_b	9.065218
_cell_length_c	13.448316
_cell_angle_alpha	89.995277
_cell_angle_beta	89.998199
_cell_angle_gamma	84.315007
loop_
_atom_site_label
_atom_site_type_symbol
_atom_site_fract_x
_atom_site_fract_y
_atom_site_fract_z
O1	O	1.188380	0.192261	-0.082573
O2	O	0.928152	0.215285	-0.082600
O3	O	1.063645	-0.010978	-0.082584
O4	O	1.052887	0.418525	-0.082589
O5	O	1.063628	-0.010992	0.082800
O6	O	0.928134	0.215271	0.082784
O7	O	1.188363	0.192248	0.082811
Cu8	Cu	1.058247	0.203758	0.097898
Cu9	Cu	1.058268	0.203775	-0.097687
O10	O	1.052870	0.418511	0.082795
C11	C	0.894811	0.214248	0.000089
C12	C	0.795491	0.211163	0.000078
C13	C	0.739256	0.344086	0.000078
C14	C	0.645935	0.341178	0.000093
C15	C	0.608850	0.205345	0.000101
C16	C	0.665092	0.072412	0.000104
C17	C	0.758411	0.075321	0.000096
C18	C	0.470584	0.066357	0.000118
C19	C	0.377259	0.063446	0.000124
C20	C	0.358108	0.332214	0.000115
C21	C	0.451427	0.335123	0.000107
C22	C	0.507663	0.202189	0.000108
C23	C	1.062602	-0.065951	0.000106
C24	C	1.059511	-0.229731	0.000101
C25	C	1.221704	0.193284	0.000120
C26	C	1.321024	0.196370	0.000124
C27	C	1.053912	0.473483	0.000102
C28	C	1.057004	0.637264	0.000101
N29	N	1.058239	0.203746	0.235462
N30	N	1.058283	0.203775	-0.235252
C31	C	1.118255	0.103597	0.287510
C32	C	1.118260	0.103596	0.391613
C33	C	1.058254	0.203751	0.443667
C34	C	0.998232	0.303904	0.391612
C35	C	0.998223	0.303897	0.287511
C36	C	0.998257	0.303914	0.608592
C37	C	0.998267	0.303924	0.712701
C38	C	1.118294	0.103613	0.712694
C39	C	1.118285	0.103606	0.608593
C40	C	1.058264	0.203761	0.556546
H41	H	0.516370	-0.041893	0.000120
C42	C	0.932204	0.413997	0.769959
H43	H	0.896432	0.473605	0.724054
H44	H	0.964822	0.475542	0.810590
H45	H	0.894572	0.360717	0.810547
C46	C	0.932239	0.414089	0.551342
H47	H	0.896509	0.473751	0.597251
H48	H	0.894573	0.360921	0.510739
H49	H	0.964916	0.475591	0.510726
H50	H	1.167129	0.022047	0.433990
H51	H	0.600152	0.449418	0.000092
H52	H	0.949369	0.385448	0.434001
C53	C	0.296253	0.478439	0.000116
H54	H	0.235364	0.457257	0.000133
H55	H	0.307609	0.534129	-0.057562
H56	H	0.307616	0.534130	0.057791
C57	C	0.624306	-0.077006	0.000112
H58	H	0.671165	-0.155754	0.000119
H59	H	0.588299	-0.083724	-0.057559
H60	H	0.588302	-0.083731	0.057794
C61	C	0.492219	0.484536	0.000100
H62	H	0.445364	0.563290	0.000111
H63	H	0.528226	0.491261	-0.057574
H64	H	0.528225	0.491243	0.057780
H65	H	0.804197	-0.032919	0.000096
C66	C	1.184290	-0.006562	0.551335
H67	H	1.220031	-0.066220	0.597240
H68	H	1.221944	0.046608	0.510712
H69	H	1.151606	-0.068069	0.510739
H70	H	1.167122	0.022046	0.245134
C71	C	1.184309	-0.006567	0.769942
H72	H	1.175714	0.007764	0.839396
H73	H	1.244132	0.009616	0.752875
H74	H	1.173794	-0.105061	0.752886
H75	H	0.769442	0.454697	0.000071
C76	C	0.932210	0.414060	0.230254
H77	H	0.940792	0.399703	0.160801
H78	H	0.942716	0.512553	0.247302
H79	H	0.872386	0.397863	0.247327
C80	C	0.336466	-0.085966	0.000138
H81	H	0.383322	-0.164720	0.000152
H82	H	0.300460	-0.092688	-0.057532
H83	H	0.300461	-0.092677	0.057821
