data_functionalizedCrystal
_audit_creation_method	'MofGen! by Chris Wilmer'
_symmetry_space_group_name_H-M	'P1'
_symmetry_Int_Tables_number	1
_symmetry_cell_setting	triclinic
loop_
_symmetry_equiv_pos_as_xyz
  x,y,z
_cell_length_a	29.019771
_cell_length_b	29.019011
_cell_length_c	29.015668
_cell_angle_alpha	60.004890
_cell_angle_beta	60.009825
_cell_angle_gamma	59.993818
loop_
_atom_site_label
_atom_site_type_symbol
_atom_site_fract_x
_atom_site_fract_y
_atom_site_fract_z
O1	O	0.063866	-0.673289	0.563007
O2	O	0.563866	-0.173289	1.063007
O3	O	0.024059	-0.524205	0.453633
O4	O	0.524059	-0.024205	0.953633
O5	O	0.118464	-0.618532	0.453552
O6	O	0.618464	-0.118532	0.953552
O7	O	-0.030540	-0.578962	0.563088
O8	O	0.469460	-0.078962	1.063088
O9	O	0.149785	-0.587215	0.484789
O10	O	0.649785	-0.087215	0.984789
O11	O	0.055379	-0.492888	0.484869
O12	O	0.555379	0.007112	0.984869
O13	O	0.095186	-0.641972	0.594244
O14	O	0.595186	-0.141972	1.094244
Cu15	Cu	0.078143	-0.564571	0.542409
Cu16	Cu	0.578143	-0.064571	1.042409
Cu17	Cu	0.041102	-0.601606	0.505468
Cu18	Cu	0.541102	-0.101606	1.005468
O19	O	0.000781	-0.547645	0.594325
O20	O	0.500781	-0.047645	1.094325
N21	N	0.104196	-0.538525	0.568394
N22	N	0.604196	-0.038525	1.068394
N23	N	0.015054	-0.627656	0.479483
N24	N	0.515054	-0.127656	0.979483
C25	C	0.143783	-0.499167	0.850823
C26	C	0.643783	0.000833	1.350823
C27	C	0.386758	-0.499111	0.607645
C28	C	0.886758	0.000889	1.107645
C29	C	0.143618	-0.499136	0.607763
C30	C	0.643618	0.000864	1.107763
C31	C	0.143598	-0.256029	0.607770
C32	C	0.643598	0.243971	1.107770
C33	C	0.182748	-0.373362	0.646852
C34	C	0.682748	0.126638	1.146852
C35	C	0.182758	-0.460025	0.646847
C36	C	0.682758	0.039975	1.146847
C37	C	0.204440	-0.438361	0.668500
C38	C	0.704440	0.061639	1.168500
C39	C	0.298958	-0.422064	0.618723
C40	C	0.798958	0.077936	1.118723
C41	C	0.358043	-0.441753	0.599006
C42	C	0.858043	0.058247	1.099006
C43	C	0.358069	-0.537354	0.635461
C44	C	0.858069	-0.037354	1.135461
C45	C	0.298985	-0.517664	0.655180
C46	C	0.798985	-0.017664	1.155180
C47	C	0.196983	-0.343808	0.588767
C48	C	0.696983	0.156192	1.088767
C49	C	0.177262	-0.284720	0.569090
C50	C	0.677262	0.215280	1.069090
C51	C	0.129075	-0.284743	0.665586
C52	C	0.629075	0.215257	1.165586
C53	C	0.148797	-0.343831	0.685263
C54	C	0.648797	0.156169	1.185263
C55	C	0.124666	-0.445760	0.661149
C56	C	0.624666	0.054240	1.161149
C57	C	0.104961	-0.465454	0.641458
C58	C	0.604961	0.034546	1.141458
C59	C	0.201435	-0.513678	0.593176
C60	C	0.701435	-0.013678	1.093176
C61	C	0.221143	-0.493984	0.612860
C62	C	0.721143	0.006016	1.112860
C63	C	0.124738	-0.445777	0.763064
C64	C	0.624738	0.054223	1.263064
C65	C	0.105085	-0.465488	0.822151
C66	C	0.605085	0.034512	1.322151
C67	C	0.201594	-0.513722	0.822097
C68	C	0.701594	-0.013722	1.322097
C69	C	0.221247	-0.494012	0.763009
C70	C	0.721247	0.005988	1.263009
C71	C	0.182817	-0.460038	0.733494
C72	C	0.682817	0.039962	1.233494
C73	C	0.269432	-0.460018	0.646809
C74	C	0.769432	0.039982	1.146809
C75	C	0.121399	-0.520450	0.915812
C76	C	0.621399	-0.020450	1.415812
C77	C	0.451745	-0.520012	0.585655
C78	C	0.951745	-0.020012	1.085655
C79	C	0.121177	-0.520429	0.586502
C80	C	0.621177	-0.020429	1.086502
C81	C	0.121544	-0.191035	0.586883
C82	C	0.621544	0.308965	1.086883
C83	C	-0.110592	-0.666601	0.440035
C84	C	0.389408	-0.166601	0.940035
C85	C	-0.023978	-0.666709	0.440231
C86	C	0.476022	-0.166709	0.940231
C87	C	-0.045598	-0.688342	0.418486
C88	C	0.454402	-0.188342	0.918486
C89	C	-0.061967	-0.782825	0.468184
C90	C	0.438033	-0.282825	0.968184
C91	C	-0.042323	-0.841914	0.487907
C92	C	0.457677	-0.341914	0.987907
C93	C	0.053280	-0.842025	0.451623
C94	C	0.553280	-0.342025	0.951623
C95	C	0.033634	-0.782937	0.431899
C96	C	0.533634	-0.282937	0.931899
C97	C	-0.140218	-0.680832	0.498102
C98	C	0.359782	-0.180832	0.998102
C99	C	-0.199302	-0.661065	0.517690
C100	C	0.300698	-0.161065	1.017690
C101	C	-0.199129	-0.612843	0.421140
C102	C	0.300871	-0.112843	0.921140
C103	C	-0.140045	-0.632610	0.401552
C104	C	0.359955	-0.132610	0.901552
C105	C	-0.038209	-0.608622	0.425941
C106	C	0.461791	-0.108622	0.925941
C107	C	-0.018555	-0.588961	0.445716
C108	C	0.481445	-0.088961	0.945716
C109	C	0.029562	-0.685470	0.494059
C110	C	0.529562	-0.185470	0.994059
C111	C	0.009908	-0.705133	0.474291
C112	C	0.509908	-0.205133	0.974291
C113	C	-0.038037	-0.608631	0.323917
C114	C	0.461963	-0.108631	0.823917
C115	C	-0.018247	-0.588973	0.264830
C116	C	0.481753	-0.088973	0.764830
C117	C	0.029955	-0.685489	0.264893
C118	C	0.529955	-0.185489	0.764893
C119	C	0.010165	-0.705145	0.323981
C120	C	0.510165	-0.205145	0.823981
C121	C	-0.023833	-0.666715	0.353492
C122	C	0.476167	-0.166715	0.853492
C123	C	-0.023990	-0.753339	0.440182
C124	C	0.476010	-0.253339	0.940182
N125	N	0.504925	-0.538487	0.568205
N126	N	1.004925	-0.038487	1.068205
O127	O	0.685342	-0.543679	0.433426
O128	O	1.185342	-0.043679	0.933426
O129	O	0.685533	-0.653395	0.582361
O130	O	1.185533	-0.153395	1.082361
O131	O	0.685457	-0.653145	0.487904
O132	O	1.185457	-0.153145	0.987904
O133	O	0.685418	-0.543929	0.527882
O134	O	1.185418	-0.043929	1.027882
O135	O	0.591592	-0.621921	0.519268
O136	O	1.091592	-0.121921	1.019268
O137	O	0.591667	-0.622171	0.613725
O138	O	1.091667	-0.122171	1.113725
O139	O	0.591477	-0.512455	0.464790
O140	O	1.091477	-0.012455	0.964790
Cu141	Cu	0.583001	-0.564462	0.542121
Cu142	Cu	1.083001	-0.064462	1.042121
Cu143	Cu	0.694008	-0.601388	0.505029
Cu144	Cu	1.194008	-0.101388	1.005029
O145	O	0.591553	-0.512705	0.559246
O146	O	1.091553	-0.012705	1.059246
N147	N	0.772084	-0.627363	0.478939
N148	N	1.272084	-0.127363	0.978939
N149	N	0.104168	-0.137853	0.568408
N150	N	0.604168	0.362147	1.068408
O151	O	-0.030538	0.042663	0.563097
O152	O	0.469462	0.542663	1.063097
O153	O	0.118403	0.042683	0.453379
O154	O	0.618403	0.542683	0.953379
O155	O	0.023918	0.042657	0.453664
O156	O	0.523918	0.542657	0.953664
O157	O	0.063947	0.042689	0.562813
O158	O	0.563947	0.542689	1.062813
O159	O	0.055242	-0.051215	0.484950
O160	O	0.555242	0.448785	0.984950
O161	O	0.149727	-0.051189	0.484666
O162	O	0.649727	0.448811	0.984666
O163	O	0.000787	-0.051210	0.594384
O164	O	0.500787	0.448790	1.094384
Cu165	Cu	0.078117	-0.059771	0.542381
Cu166	Cu	0.578117	0.440229	1.042381
Cu167	Cu	0.041072	0.051244	0.505382
Cu168	Cu	0.541072	0.551244	1.005382
O169	O	0.095272	-0.051184	0.594099
O170	O	0.595272	0.448816	1.094099
N171	N	0.015015	0.129326	0.479356
N172	N	0.515015	0.629326	0.979356
N173	N	0.104469	-0.538576	0.968995
N174	N	0.604469	-0.038576	1.468995
O175	O	0.099171	-0.673268	1.149499
O176	O	0.599171	-0.173268	1.649499
O177	O	-0.010519	-0.524279	1.149527
O178	O	0.489481	-0.024279	1.649527
O179	O	-0.010265	-0.618748	1.149494
O180	O	0.489735	-0.118748	1.649494
O181	O	0.098916	-0.578799	1.149533
O182	O	0.598916	-0.078799	1.649533
O183	O	0.021008	-0.587443	1.055625
O184	O	0.521008	-0.087443	1.555625
O185	O	0.020753	-0.492974	1.055659
O186	O	0.520753	0.007026	1.555659
O187	O	0.130444	-0.641963	1.055630
O188	O	0.630444	-0.141963	1.555630
Cu189	Cu	0.078454	-0.564610	1.047074
Cu190	Cu	0.578454	-0.064610	1.547074
Cu191	Cu	0.041470	-0.601632	1.158084
Cu192	Cu	0.541470	-0.101632	1.658084
O193	O	0.130189	-0.547494	1.055664
O194	O	0.630189	-0.047494	1.555664
N195	N	0.015455	-0.627672	1.236163
N196	N	0.515455	-0.127672	1.736163
C197	C	0.035988	-0.489761	0.454182
C198	C	0.535988	0.010239	0.954182
C199	C	0.152897	-0.606574	0.454082
C200	C	0.652897	-0.106574	0.954082
C201	C	0.083257	-0.676417	0.593694
C202	C	0.583257	-0.176417	1.093694
C203	C	-0.033653	-0.559604	0.593794
C204	C	0.466347	-0.059604	1.093794
C205	C	0.638623	-0.652892	0.616806
C206	C	1.138623	-0.152892	1.116806
C207	C	0.638531	-0.652583	0.499833
C208	C	1.138531	-0.152583	0.999833
C209	C	0.638384	-0.512957	0.430345
C210	C	1.138384	-0.012957	0.930345
C211	C	0.638480	-0.513267	0.547317
C212	C	1.138480	-0.013267	1.047317
C213	C	0.152789	-0.004135	0.453875
C214	C	0.652789	0.495865	0.953875
C215	C	0.035820	-0.004282	0.454266
C216	C	0.535820	0.495718	0.954266
C217	C	-0.033639	-0.004275	0.593849
C218	C	0.466361	0.495725	1.093849
C219	C	0.083370	-0.004245	0.593498
C220	C	0.583370	0.495755	1.093498
C221	C	-0.009989	-0.489856	1.102597
C222	C	0.490011	0.010144	1.602597
C223	C	-0.009667	-0.606839	1.102536
C224	C	0.490333	-0.106839	1.602536
C225	C	0.129914	-0.676386	1.102561
C226	C	0.629914	-0.176386	1.602561
C227	C	0.129599	-0.559396	1.102601
C228	C	0.629599	-0.059396	1.602601
H229	H	0.093440	-0.418108	0.739036
H230	H	0.593440	0.081892	1.239036
O231	O	0.270390	-0.554607	0.682428
O232	O	0.770390	-0.054607	1.182428
C233	C	0.309146	-0.609710	0.685596
C234	C	0.809146	-0.109710	1.185596
H235	H	0.351249	-0.607457	0.650685
H236	H	0.851249	-0.107457	1.150685
H237	H	0.315461	-0.632268	0.728407
H238	H	0.815461	-0.132268	1.228407
C239	C	0.234367	-0.645239	0.721260
C240	C	0.734367	-0.145239	1.221260
C241	C	0.286077	-0.642472	0.678379
C242	C	0.786077	-0.142472	1.178379
H243	H	0.220136	-0.665450	0.716811
H244	H	0.720136	-0.165450	1.216811
H245	H	0.208255	-0.608116	0.719128
H246	H	0.708255	-0.108116	1.219128
H247	H	0.239636	-0.664036	0.756932
H248	H	0.739636	-0.164036	1.256932
H249	H	0.280805	-0.623669	0.642709
H250	H	0.780805	-0.123669	1.142709
H251	H	0.312187	-0.679593	0.680505
H252	H	0.812187	-0.179593	1.180505
O253	O	0.203691	-0.003850	0.412626
O254	O	0.703691	0.496150	0.912626
C255	C	0.203612	-0.003741	0.364019
C256	C	0.703612	0.496259	0.864019
H257	H	0.170332	-0.021698	0.376540
H258	H	0.670332	0.478302	0.876540
H259	H	0.193510	0.041347	0.333489
H260	H	0.693510	0.541347	0.833489
C261	C	0.303004	-0.018218	0.319873
C262	C	0.803004	0.481782	0.819873
C263	C	0.262132	-0.040277	0.335252
C264	C	0.762132	0.459723	0.835252
H265	H	0.339102	-0.040753	0.302126
H266	H	0.839102	0.459247	0.802126
H267	H	0.303057	-0.018289	0.352619
H268	H	0.803057	0.481711	0.852619
H269	H	0.294578	0.019355	0.294434
H270	H	0.794578	0.519355	0.794434
H271	H	0.270554	-0.077847	0.360696
H272	H	0.770554	0.422153	0.860696
H273	H	0.262081	-0.040213	0.302509
H274	H	0.762081	0.459787	0.802509
O275	O	0.638572	-0.693587	0.489716
O276	O	1.138572	-0.193587	0.989716
C277	C	0.638626	-0.742301	0.538173
C278	C	1.138626	-0.242301	1.038173
H279	H	0.656420	-0.741811	0.565108
H280	H	1.156420	-0.241811	1.065108
H281	H	0.593612	-0.743008	0.563675
H282	H	1.093612	-0.243008	1.063675
C283	C	0.653602	-0.795824	0.487189
C284	C	1.153602	-0.295824	0.987189
C285	C	0.675461	-0.795224	0.520269
C286	C	1.175461	-0.295224	1.020269
H287	H	0.676321	-0.828470	0.476146
H288	H	1.176321	-0.328470	0.976146
H289	H	0.653563	-0.763004	0.454543
H290	H	1.153563	-0.263004	0.954543
H291	H	0.616090	-0.796411	0.508445
H292	H	1.116090	-0.296411	1.008445
H293	H	0.712969	-0.794629	0.499011
H294	H	1.212969	-0.294629	0.999011
H295	H	0.675507	-0.828045	0.552911
H296	H	1.175507	-0.328045	1.052911
O297	O	0.093311	-0.727467	0.634748
O298	O	0.593311	-0.227467	1.134748
C299	C	0.044814	-0.727608	0.683413
C300	C	0.544814	-0.227608	1.183413
H301	H	0.017897	-0.682371	0.682862
H302	H	0.517897	-0.182371	1.182862
H303	H	0.019317	-0.747827	0.684107
H304	H	0.519317	-0.247827	1.184107
C305	C	0.095699	-0.817116	0.737059
C306	C	0.595699	-0.317116	1.237059
C307	C	0.062642	-0.761555	0.736384
C308	C	0.562642	-0.261555	1.236384
H309	H	0.106695	-0.838058	0.769733
H310	H	0.606695	-0.338058	1.269733
H311	H	0.128372	-0.817022	0.704271
H312	H	0.628372	-0.317022	1.204271
H313	H	0.074446	-0.833958	0.737634
H314	H	0.574446	-0.333958	1.237634
H315	H	0.083896	-0.744711	0.735801
H316	H	0.583896	-0.244711	1.235801
H317	H	0.029973	-0.761646	0.769172
H318	H	0.529973	-0.261646	1.269172
H319	H	-0.076413	-0.004282	0.628294
H320	H	0.423587	0.495718	1.128294
O321	O	0.025520	-0.004333	0.413431
O322	O	0.525520	0.495667	0.913431
C323	C	-0.029961	-0.004338	0.434001
C324	C	0.470039	0.495662	0.934001
H325	H	-0.044794	-0.022092	0.482077
H326	H	0.455206	0.477908	0.982077
H327	H	-0.059176	0.040689	0.419718
H328	H	0.440824	0.540689	0.919718
C329	C	-0.012845	-0.019379	0.351775
C330	C	0.487155	0.480621	0.851775
C331	C	-0.031061	-0.041190	0.410823
C332	C	0.468939	0.458810	0.910823
H333	H	-0.013525	-0.042109	0.337476
H334	H	0.486475	0.457891	0.837476
H335	H	0.024533	-0.019374	0.337915
H336	H	0.524533	0.480626	0.837915
H337	H	-0.037193	0.018143	0.339880
H338	H	0.462807	0.518143	0.839880
H339	H	-0.006709	-0.078709	0.422716
H340	H	0.493291	0.421291	0.922716
H341	H	-0.068435	-0.041202	0.424684
H342	H	0.431565	0.458798	0.924684
O343	O	0.203953	-0.616539	0.413024
O344	O	0.703953	-0.116539	0.913024
C345	C	0.228986	-0.577789	0.397837
C346	C	0.728986	-0.077789	0.897837
H347	H	0.194786	-0.538738	0.409205
H348	H	0.694786	-0.038738	0.909205
H349	H	0.259765	-0.598234	0.421556
H350	H	0.759765	-0.098234	0.921556
C351	C	0.302957	-0.608559	0.319888
C352	C	0.802957	-0.108559	0.819888
C353	C	0.260951	-0.560594	0.333847
C354	C	0.760951	-0.060594	0.833847
H355	H	0.322677	-0.597953	0.280417
H356	H	0.822677	-0.097953	0.780417
H357	H	0.286094	-0.634667	0.330121
H358	H	0.786094	-0.134667	0.830121
H359	H	0.328600	-0.625591	0.339659
H360	H	0.828600	-0.125591	0.839659
H361	H	0.235305	-0.543566	0.314082
H362	H	0.735305	-0.043566	0.814082
H363	H	0.277811	-0.534482	0.323609
H364	H	0.777811	-0.034482	0.823609
O365	O	0.093696	-0.004271	0.634358
O366	O	0.593696	0.495729	1.134358
C367	C	0.149171	-0.004249	0.613782
C368	C	0.649171	0.495751	1.113782
H369	H	0.175857	-0.022013	0.577546
H370	H	0.675857	0.477987	1.077546
H371	H	0.148331	0.040788	0.598042
H372	H	0.648331	0.540788	1.098042
C373	C	0.142079	-0.019248	0.706022
C374	C	0.642079	0.480752	1.206022
C375	C	0.174857	-0.041071	0.661520
C376	C	0.674857	0.458929	1.161520
H377	H	0.157923	-0.041959	0.735469
H378	H	0.657923	0.458041	1.235469
H379	H	0.104704	-0.019260	0.719884
H380	H	0.604704	0.480740	1.219884
H381	H	0.141382	0.018282	0.692898
H382	H	0.641382	0.518282	1.192898
H383	H	0.175548	-0.078598	0.674642
H384	H	0.675548	0.421402	1.174642
H385	H	0.212233	-0.041066	0.647660
H386	H	0.712233	0.458934	1.147660
H387	H	-0.044426	-0.447066	1.102605
H388	H	0.455574	0.052934	1.602605
O389	O	-0.084730	-0.549445	0.634779
O390	O	0.415270	-0.049445	1.134779
C391	C	-0.119809	-0.493990	0.614373
C392	C	0.380191	0.006010	1.114373
H393	H	-0.092633	-0.467187	0.578123
H394	H	0.407367	0.032813	1.078123
H395	H	-0.148317	-0.494850	0.598704
H396	H	0.351683	0.005150	1.098704
C397	C	-0.189710	-0.501381	0.706740
C398	C	0.310290	-0.001381	1.206740
C399	C	-0.156331	-0.468460	0.662220
C400	C	0.343669	0.031540	1.162220
H401	H	-0.212240	-0.485633	0.736254
H402	H	0.287760	0.014367	1.236254
H403	H	-0.166077	-0.538743	0.720488
H404	H	0.333923	-0.038743	1.220488
H405	H	-0.213461	-0.502095	0.693675
H406	H	0.286539	-0.002095	1.193675
H407	H	-0.132576	-0.467752	0.675284
H408	H	0.367424	0.032248	1.175284
H409	H	-0.179960	-0.431097	0.648475
H410	H	0.320040	0.068903	1.148475
H411	H	0.638671	-0.687334	0.659583
H412	H	1.138671	-0.187334	1.159583
O413	O	-0.050501	-0.617098	1.102450
O414	O	0.449499	-0.117098	1.602450
C415	C	-0.029942	-0.672580	1.102433
C416	C	0.470058	-0.172580	1.602433
H417	H	0.018133	-0.687446	1.084693
H418	H	0.518133	-0.187446	1.584693
H419	H	-0.044234	-0.701786	1.147453
H420	H	0.455766	-0.201786	1.647453
C421	C	-0.112165	-0.655397	1.087352
C422	C	0.387835	-0.155397	1.587352
C423	C	-0.053119	-0.673652	1.065559
C424	C	0.446881	-0.173652	1.565559
H425	H	-0.126463	-0.656059	1.064608
H426	H	0.373537	-0.156059	1.564608
H427	H	-0.126017	-0.618018	1.087365
H428	H	0.373983	-0.118018	1.587365
H429	H	-0.124067	-0.679737	1.124868
H430	H	0.375933	-0.179737	1.624868
H431	H	-0.041217	-0.649308	1.028046
H432	H	0.458783	-0.149308	1.528046
H433	H	-0.039265	-0.711028	1.065538
H434	H	0.460735	-0.211028	1.565538
H435	H	0.638322	-0.478510	0.387573
H436	H	1.138322	0.021490	0.887573
O437	O	0.170537	-0.549143	1.102506
O438	O	0.670537	-0.049143	1.602506
C439	C	0.183476	-0.503426	1.053906
C440	C	0.683476	-0.003426	1.553906
H441	H	0.171072	-0.498977	1.019923
H442	H	0.671072	0.001023	1.519923
H443	H	0.159123	-0.462957	1.064908
H444	H	0.659123	0.037043	1.564908
C445	C	0.262498	-0.519629	1.073598
C446	C	0.762498	-0.019629	1.573598
C447	C	0.247267	-0.514168	1.031859
C448	C	0.747267	-0.014168	1.531859
H449	H	0.301847	-0.526252	1.060000
H450	H	0.801847	-0.026252	1.560000
H451	H	0.253780	-0.550427	1.106343
H452	H	0.753780	-0.050427	1.606343
H453	H	0.242199	-0.485903	1.082763
H454	H	0.742199	0.014097	1.582763
H455	H	0.267561	-0.547895	1.022700
H456	H	0.767561	-0.047895	1.522700
H457	H	0.255990	-0.483375	0.999112
H458	H	0.755990	0.016625	1.499112
O459	O	0.170931	-0.727471	1.102574
O460	O	0.670931	-0.227471	1.602574
C461	C	0.150622	-0.762585	1.102539
C462	C	0.650622	-0.262585	1.602539
H463	H	0.102547	-0.747297	1.120311
H464	H	0.602547	-0.247297	1.620311
H465	H	0.164962	-0.761050	1.057500
H466	H	0.664962	-0.261050	1.557500
C467	C	0.233054	-0.842444	1.117509
C468	C	0.733054	-0.342444	1.617509
C469	C	0.174008	-0.823670	1.139341
C470	C	0.674008	-0.323670	1.639341
H471	H	0.247481	-0.880125	1.140208
H472	H	0.747481	-0.380125	1.640208
H473	H	0.246738	-0.818787	1.117530
H474	H	0.746738	-0.318787	1.617530
H475	H	0.244996	-0.841161	1.079976
H476	H	0.744996	-0.341161	1.579976
H477	H	0.162066	-0.824947	1.176870
H478	H	0.662066	-0.324947	1.676870
H479	H	0.160323	-0.847329	1.139327
H480	H	0.660323	-0.347329	1.639327
O481	O	0.638540	-0.472404	0.557561
O482	O	1.138540	0.027596	1.057561
C483	C	0.687188	-0.491816	0.570790
C484	C	1.187188	0.008184	1.070790
H485	H	0.703439	-0.539929	0.586977
H486	H	1.203439	-0.039929	1.086977
H487	H	0.721189	-0.475703	0.531339
H488	H	1.221189	0.024297	1.031339
C489	C	0.652488	-0.410699	0.596788
C490	C	1.152488	0.089301	1.096788
C491	C	0.672445	-0.469793	0.616674
C492	C	1.172445	0.030207	1.116674
H493	H	0.643395	-0.397113	0.625089
H494	H	1.143395	0.102887	1.125089
H495	H	0.619713	-0.397620	0.587873
H496	H	1.119713	0.102380	1.087873
H497	H	0.680825	-0.397279	0.563912
H498	H	1.180825	0.102721	1.063912
H499	H	0.644105	-0.483211	0.649545
H500	H	1.144105	0.016789	1.149545
H501	H	0.705214	-0.482874	0.625595
H502	H	1.205214	0.017126	1.125595
O503	O	0.048644	-0.451551	0.850782
O504	O	0.548644	0.048449	1.350782
C505	C	0.018945	-0.417349	0.812058
C506	C	0.518945	0.082651	1.312058
H507	H	0.047104	-0.395865	0.769932
H508	H	0.547104	0.104135	1.269932
H509	H	0.006195	-0.444604	0.805781
H510	H	0.506195	0.055396	1.305781
C511	C	-0.068898	-0.398580	0.886880
C512	C	0.431102	0.101420	1.386880
C513	C	-0.034314	-0.372189	0.835142
C514	C	0.465686	0.127811	1.335142
H515	H	-0.101752	-0.370725	0.901119
H516	H	0.398248	0.129275	1.401119
H517	H	-0.048889	-0.421624	0.912970
H518	H	0.451111	0.078376	1.412970
H519	H	-0.079516	-0.421292	0.881642
H520	H	0.420484	0.078708	1.381642
H521	H	-0.023690	-0.349484	0.840381
H522	H	0.476310	0.150516	1.340381
H523	H	-0.054322	-0.349140	0.809053
H524	H	0.445678	0.150860	1.309053
H525	H	0.268542	-0.505632	0.738936
H526	H	0.768542	-0.005632	1.238936
O527	O	0.238948	-0.546794	0.850738
O528	O	0.738948	-0.046794	1.350738
C529	C	0.273125	-0.596337	0.836269
C530	C	0.773125	-0.096337	1.336269
H531	H	0.250298	-0.604559	0.820044
H532	H	0.750298	-0.104559	1.320044
H533	H	0.314616	-0.590953	0.801952
H534	H	0.814616	-0.090953	1.301952
C535	C	0.313282	-0.636520	0.908663
C536	C	0.813282	-0.136520	1.408663
C537	C	0.285243	-0.646622	0.888740
C538	C	0.785243	-0.146622	1.388740
H539	H	0.320760	-0.667539	0.941029
H540	H	0.820760	-0.167539	1.441029
H541	H	0.290258	-0.603142	0.918410
H542	H	0.790258	-0.103142	1.418410
H543	H	0.347855	-0.632033	0.880061
H544	H	0.847855	-0.132033	1.380061
H545	H	0.250668	-0.651102	0.917340
H546	H	0.750668	-0.151102	1.417340
H547	H	0.308261	-0.680003	0.878999
H548	H	0.808261	-0.180003	1.378999
O549	O	0.048526	-0.451672	0.655447
O550	O	0.548526	0.048328	1.155447
C551	C	0.024028	-0.471887	0.714630
C552	C	0.524028	0.028113	1.214630
H553	H	0.057695	-0.508326	0.733652
H554	H	0.557695	-0.008326	1.233652
H555	H	0.005375	-0.436445	0.732143
H556	H	0.505375	0.063555	1.232143
C557	C	-0.064365	-0.447865	0.706565
C558	C	0.435635	0.052135	1.206565
C559	C	-0.023015	-0.492624	0.729927
C560	C	0.476985	0.007376	1.229927
H561	H	-0.093385	-0.460655	0.716002
H562	H	0.406615	0.039345	1.216002
H563	H	-0.047861	-0.434244	0.666692
H564	H	0.452139	0.065756	1.166692
H565	H	-0.079903	-0.418335	0.721161
H566	H	0.420097	0.081665	1.221161
H567	H	-0.007473	-0.522150	0.715326
H568	H	0.492527	-0.022150	1.215326
H569	H	-0.039517	-0.506251	0.769799
H570	H	0.460483	-0.006251	1.269799
O571	O	0.238800	-0.546642	0.560152
O572	O	0.738800	-0.046642	1.060152
C573	C	0.294297	-0.555021	0.551769
C574	C	0.794297	-0.055021	1.051769
H575	H	0.294191	-0.519399	0.558374
H576	H	0.794191	-0.019399	1.058374
H577	H	0.311251	-0.597116	0.583204
H578	H	0.811251	-0.097116	1.083204
C579	C	0.332291	-0.599178	0.483117
C580	C	0.832291	-0.099178	0.983117
C581	C	0.332161	-0.555424	0.491224
C582	C	0.832161	-0.055424	0.991224
H583	H	0.355648	-0.599430	0.445771
H584	H	0.855648	-0.099430	0.945771
H585	H	0.294902	-0.593536	0.488765
H586	H	0.794902	-0.093536	0.988765
H587	H	0.346418	-0.634254	0.509316
H588	H	0.846418	-0.134254	1.009316
H589	H	0.318028	-0.520350	0.465030
H590	H	0.818028	-0.020350	0.965030
H591	H	0.369549	-0.561061	0.485569
H592	H	0.869549	-0.061061	0.985569
H593	H	0.268446	-0.505593	0.601208
H594	H	0.768446	-0.005593	1.101208
O595	O	0.386808	-0.593334	0.643487
O596	O	0.886808	-0.093334	1.143487
C597	C	0.420968	-0.601356	0.590741
C598	C	0.920968	-0.101356	1.090741
H599	H	0.403133	-0.563948	0.556684
H600	H	0.903133	-0.063948	1.056684
H601	H	0.465748	-0.604840	0.580492
H602	H	0.965748	-0.104840	1.080492
C603	C	0.443791	-0.701892	0.634801
C604	C	0.943791	-0.201892	1.134801
C605	C	0.421883	-0.655948	0.592973
C606	C	0.921883	-0.155948	1.092973
H607	H	0.444358	-0.735568	0.636178
H608	H	0.944358	-0.235568	1.136178
H609	H	0.420778	-0.696487	0.670338
H610	H	0.920778	-0.196487	1.170338
H611	H	0.481106	-0.704787	0.626255
H612	H	0.981106	-0.204787	1.126255
H613	H	0.384567	-0.653050	0.601523
H614	H	0.884567	-0.153050	1.101523
H615	H	0.444889	-0.661354	0.557438
H616	H	0.944889	-0.161354	1.057438
H617	H	0.093408	-0.418110	0.688821
H618	H	0.593408	0.081890	1.188821
H619	H	0.027485	-0.446933	0.419832
H620	H	0.527485	0.053067	0.919832
H621	H	0.382082	-0.410845	0.576135
H622	H	0.882082	0.089155	1.076135
H623	H	0.224626	-0.367851	0.557490
H624	H	0.724626	0.132149	1.057490
O625	O	0.270315	-0.366045	0.610493
O626	O	0.770315	0.133955	1.110493
C627	C	0.284706	-0.335557	0.552155
C628	C	0.784706	0.164443	1.052155
H629	H	0.327599	-0.361372	0.528876
H630	H	0.827599	0.138628	1.028876
H631	H	0.251435	-0.326743	0.536068
H632	H	0.751435	0.173257	1.036068
C633	C	0.234749	-0.247581	0.570197
C634	C	0.734749	0.252419	1.070197
C635	C	0.287433	-0.279285	0.541606
C636	C	0.787433	0.220715	1.041606
H637	H	0.236428	-0.212869	0.563689
H638	H	0.736428	0.287131	1.063689
H639	H	0.225051	-0.268121	0.609500
H640	H	0.725051	0.231879	1.109500
H641	H	0.207028	-0.240242	0.556788
H642	H	0.707028	0.259758	1.056788
H643	H	0.315151	-0.286630	0.555019
H644	H	0.815151	0.213370	1.055019
H645	H	0.297135	-0.258745	0.502304
H646	H	0.797135	0.241255	1.002304
O647	O	0.191062	-0.256069	0.512650
O648	O	0.691062	0.243931	1.012650
C649	C	0.170824	-0.270493	0.488126
C650	C	0.670824	0.229507	0.988126
H651	H	0.165057	-0.313400	0.516136
H652	H	0.665057	0.186600	1.016136
H653	H	0.128586	-0.237242	0.483754
H654	H	0.628586	0.262758	0.983754
C655	C	0.220650	-0.220502	0.395002
C656	C	0.720650	0.279498	0.895002
C657	C	0.213571	-0.273205	0.429402
C658	C	0.713571	0.226795	0.929402
H659	H	0.247016	-0.222173	0.358777
H660	H	0.747016	0.277827	0.858777
H661	H	0.234283	-0.210783	0.411524
H662	H	0.734283	0.289217	0.911524
H663	H	0.185448	-0.192799	0.391365
H664	H	0.685448	0.307201	0.891365
H665	H	0.248771	-0.300906	0.433044
H666	H	0.748771	0.199094	0.933044
H667	H	0.199945	-0.282929	0.412879
H668	H	0.699945	0.217071	0.912879
O669	O	0.096163	-0.256111	0.702947
O670	O	0.596163	0.243889	1.202947
C671	C	0.126033	-0.270530	0.737072
C672	C	0.626033	0.229470	1.237072
H673	H	0.160437	-0.313427	0.737639
H674	H	0.660437	0.186573	1.237639
H675	H	0.146073	-0.237265	0.719286
H676	H	0.646073	0.262735	1.219286
C677	C	0.042858	-0.220581	0.796914
C678	C	0.542858	0.279419	1.296914
C679	C	0.085112	-0.273270	0.797614
C680	C	0.585112	0.226730	1.297614
H681	H	0.017616	-0.222269	0.834258
H682	H	0.517616	0.277731	1.334258
H683	H	0.022734	-0.210865	0.773922
H684	H	0.522734	0.289135	1.273922
H685	H	0.059565	-0.192866	0.782089
H686	H	0.559565	0.307134	1.282089
H687	H	0.068405	-0.300983	0.812432
H688	H	0.568405	0.199017	1.312432
H689	H	0.105232	-0.282991	0.820610
H690	H	0.605232	0.217009	1.320610
O691	O	-0.032154	-0.532541	0.236133
O692	O	0.467846	-0.032541	0.736133
C693	C	-0.091325	-0.507947	0.250479
C694	C	0.408675	-0.007947	0.750479
H695	H	-0.110385	-0.541559	0.266676
H696	H	0.389615	-0.041559	0.766676
H697	H	-0.108872	-0.489281	0.284778
H698	H	0.391128	0.010719	0.784778
C699	C	-0.083102	-0.419610	0.178042
C700	C	0.416898	0.080390	0.678042
C701	C	-0.106511	-0.460892	0.197931
C702	C	0.393489	0.039108	0.697931
H703	H	-0.092470	-0.390582	0.145629
H704	H	0.407530	0.109418	0.645629
H705	H	-0.043237	-0.436178	0.168378
H706	H	0.456763	0.063822	0.668378
H707	H	-0.097726	-0.404061	0.206630
H708	H	0.402274	0.095939	0.706630
H709	H	-0.091881	-0.476444	0.169346
H710	H	0.408119	0.023556	0.669346
H711	H	-0.146374	-0.444325	0.207589
H712	H	0.353626	0.055675	0.707589
O713	O	0.023996	-0.761590	0.352621
O714	O	0.523996	-0.261590	0.852621
C715	C	0.058254	-0.791290	0.313902
C716	C	0.558254	-0.291290	0.813902
H717	H	0.050793	-0.763111	0.271742
H718	H	0.550793	-0.263111	0.771742
H719	H	0.104519	-0.804085	0.307712
H720	H	0.604519	-0.304085	0.807712
C721	C	0.052420	-0.879126	0.388704
C722	C	0.552420	-0.379126	0.888704
C723	C	0.043253	-0.844517	0.336923
C724	C	0.543253	-0.344517	0.836923
H725	H	0.043169	-0.911960	0.402905
H726	H	0.543169	-0.411960	0.902905
H727	H	0.029342	-0.859117	0.414790
H728	H	0.529342	-0.359117	0.914790
H729	H	0.090974	-0.889782	0.383539
H730	H	0.590974	-0.389782	0.883539
H731	H	0.004698	-0.833856	0.342090
H732	H	0.504698	-0.333856	0.842090
H733	H	0.066324	-0.864526	0.310838
H734	H	0.566324	-0.364526	0.810838
O735	O	-0.071209	-0.571271	0.392945
O736	O	0.428791	-0.071271	0.892945
C737	C	-0.120775	-0.537054	0.422713
C738	C	0.379225	-0.037054	0.922713
H739	H	-0.129068	-0.559853	0.469997
H740	H	0.370932	-0.059853	0.969997
H741	H	-0.115383	-0.495565	0.410160
H742	H	0.384617	0.004435	0.910160
C743	C	-0.160814	-0.496922	0.350238
C744	C	0.339186	0.003078	0.850238
C745	C	-0.171002	-0.524927	0.408313
C746	C	0.328998	-0.024927	0.908313
H747	H	-0.191796	-0.489439	0.341354
H748	H	0.308204	0.010561	0.841354
H749	H	-0.127420	-0.519973	0.330181
H750	H	0.372580	-0.019973	0.830181
H751	H	-0.156319	-0.462351	0.339784
H752	H	0.343681	0.037649	0.839784
H753	H	-0.175489	-0.559500	0.418764
H754	H	0.324511	-0.059500	0.918764
H755	H	-0.204398	-0.501881	0.428371
H756	H	0.295602	-0.001881	0.928371
O757	O	-0.032443	-0.532539	0.431926
O758	O	0.467557	-0.032539	0.931926
C759	C	-0.062245	-0.518216	0.481551
C760	C	0.437755	-0.018216	0.981551
H761	H	-0.082296	-0.551484	0.517021
H762	H	0.417704	-0.051484	1.017021
H763	H	-0.031902	-0.516285	0.494066
H764	H	0.468098	-0.016285	0.994066
C765	C	-0.084075	-0.419377	0.427373
C766	C	0.415925	0.080623	0.927373
C767	C	-0.108706	-0.460236	0.470937
C768	C	0.391294	0.039764	0.970937
H769	H	-0.112733	-0.383611	0.420826
H770	H	0.387267	0.116389	0.920826
H771	H	-0.063995	-0.429026	0.393940
H772	H	0.436005	0.070974	0.893940
H773	H	-0.058790	-0.417775	0.437808
H774	H	0.441210	0.082225	0.937808
H775	H	-0.133985	-0.461842	0.460498
H776	H	0.366015	0.038158	0.960498
H777	H	-0.128791	-0.450585	0.504368
H778	H	0.371209	0.049415	1.004368
O779	O	0.062455	-0.722873	0.527154
O780	O	0.562455	-0.222873	1.027154
C781	C	0.070812	-0.778357	0.535508
C782	C	0.570812	-0.278357	1.035508
H783	H	0.035221	-0.778207	0.528818
H784	H	0.535221	-0.278207	1.028818
H785	H	0.112931	-0.795331	0.504116
H786	H	0.612931	-0.295331	1.004116
C787	C	0.114838	-0.816424	0.604293
C788	C	0.614838	-0.316424	1.104293
C789	C	0.071121	-0.816239	0.596081
C790	C	0.571121	-0.316239	1.096081
H791	H	0.115031	-0.839792	0.641657
H792	H	0.615031	-0.339792	1.141657
H793	H	0.109209	-0.779044	0.598664
H794	H	0.609209	-0.279044	1.098664
H795	H	0.149932	-0.830567	0.578129
H796	H	0.649932	-0.330567	1.078129
H797	H	0.036027	-0.802090	0.622240
H798	H	0.536027	-0.302090	1.122240
H799	H	0.076744	-0.853618	0.601717
H800	H	0.576744	-0.353618	1.101717
H801	H	-0.065723	-0.577332	0.347941
H802	H	0.434277	-0.077332	0.847941
O803	O	0.070600	-0.754381	0.404731
O804	O	0.570600	-0.254381	0.904731
C805	C	0.125674	-0.793178	0.401642
C806	C	0.625674	-0.293178	0.901642
H807	H	0.123367	-0.835278	0.436543
H808	H	0.623367	-0.335278	0.936543
H809	H	0.148283	-0.799490	0.358829
H810	H	0.648283	-0.299490	0.858829
C811	C	0.161243	-0.718455	0.366089
C812	C	0.661243	-0.218455	0.866089
C813	C	0.158410	-0.770161	0.408959
C814	C	0.658410	-0.270161	0.908959
H815	H	0.181437	-0.704256	0.370600
H816	H	0.681437	-0.204256	0.870600
H817	H	0.124139	-0.692316	0.368168
H818	H	0.624139	-0.192316	0.868168
H819	H	0.180083	-0.723722	0.330416
H820	H	0.680083	-0.223722	0.830416
H821	H	0.139564	-0.764892	0.444630
H822	H	0.639564	-0.264892	0.944630
H823	H	0.195511	-0.796299	0.406886
H824	H	0.695511	-0.296299	0.906886
H825	H	0.057627	-0.716785	0.240872
H826	H	0.557627	-0.216785	0.740872
O827	O	0.109239	-0.870805	0.443682
O828	O	0.609239	-0.370805	0.943682
C829	C	0.117178	-0.904990	0.496466
C830	C	0.617178	-0.404990	0.996466
H831	H	0.079740	-0.887145	0.530496
H832	H	0.579740	-0.387145	1.030496
H833	H	0.120645	-0.949758	0.506688
H834	H	0.620645	-0.449758	1.006688
C835	C	0.217722	-0.927879	0.452553
C836	C	0.717722	-0.427879	0.952553
C837	C	0.171741	-0.905959	0.494348
C838	C	0.671741	-0.405959	0.994348
H839	H	0.251380	-0.928479	0.451246
H840	H	0.751380	-0.428479	0.951246
H841	H	0.212374	-0.904850	0.416991
H842	H	0.712374	-0.404850	0.916991
H843	H	0.220603	-0.965184	0.461076
H844	H	0.720603	-0.465184	0.961076
H845	H	0.168856	-0.868652	0.485821
H846	H	0.668856	-0.368652	0.985821
H847	H	0.177090	-0.928982	0.529909
H848	H	0.677090	-0.428982	1.029909
H849	H	0.137197	-0.367895	0.732563
H850	H	0.637197	0.132105	1.232563
H851	H	0.021495	-0.752433	0.485928
H852	H	0.521495	-0.252433	0.985928
H853	H	-0.073247	-0.865920	0.510699
H854	H	0.426753	-0.365920	1.010699
H855	H	-0.108889	-0.758731	0.474933
H856	H	0.391111	-0.258731	0.974933
H857	H	-0.116238	-0.708516	0.529438
H858	H	0.383762	-0.208516	1.029438
H859	H	-0.223425	-0.672650	0.564976
H860	H	0.276575	-0.172650	1.064976
H861	H	-0.115923	-0.621016	0.354266
H862	H	0.384077	-0.121016	0.854266
O863	O	-0.227657	-0.579815	0.383683
O864	O	0.272343	-0.079815	0.883683
C865	C	-0.188838	-0.571516	0.328229
C866	C	0.311162	-0.071516	0.828229
H867	H	-0.146741	-0.578167	0.328420
H868	H	0.353259	-0.078167	0.828420
H869	H	-0.182539	-0.602968	0.311292
H870	H	0.317461	-0.102968	0.811292
C871	C	-0.263512	-0.502815	0.290039
C872	C	0.236488	-0.002815	0.790039
C873	C	-0.211810	-0.510978	0.290273
C874	C	0.288190	-0.010978	0.790273
H875	H	-0.277682	-0.465473	0.266625
H876	H	0.222318	0.034527	0.766625
H877	H	-0.289666	-0.508407	0.327400
H878	H	0.210334	-0.008407	0.827400
H879	H	-0.258256	-0.529028	0.275926
H880	H	0.241744	-0.029028	0.775926
H881	H	-0.217068	-0.484770	0.304392
H882	H	0.282932	0.015230	0.804392
H883	H	-0.185657	-0.505379	0.252913
H884	H	0.314343	-0.005379	0.752913
