data_functionalizedCrystal
_audit_creation_method	'MofGen! by Chris Wilmer'
_symmetry_space_group_name_H-M	'P1'
_symmetry_Int_Tables_number	1
_symmetry_cell_setting	triclinic
loop_
_symmetry_equiv_pos_as_xyz
  x,y,z
_cell_length_a	19.121063
_cell_length_b	14.908795
_cell_length_c	14.908308
_cell_angle_alpha	89.788666
_cell_angle_beta	95.554627
_cell_angle_gamma	95.893289
loop_
_atom_site_label
_atom_site_type_symbol
_atom_site_fract_x
_atom_site_fract_y
_atom_site_fract_z
Zn1	Zn	-0.246874	1.331013	-0.600507
Zn2	Zn	0.253126	1.831013	-0.100507
Zn3	Zn	-0.357738	1.333172	-0.455839
Zn4	Zn	0.142262	1.833172	0.044161
Zn5	Zn	-0.246109	1.189371	-0.441439
Zn6	Zn	0.253891	1.689371	0.058561
Zn7	Zn	-0.371252	1.173415	-0.598155
Zn8	Zn	0.128748	1.673415	-0.098155
O9	O	-0.305493	1.256743	-0.523985
O10	O	0.194507	1.756743	-0.023985
O11	O	-0.256245	1.457436	-0.588328
O12	O	0.243755	1.957436	-0.088328
O13	O	-0.336954	1.321678	-0.327799
O14	O	0.163046	1.821678	0.172201
O15	O	-0.147441	1.213934	-0.457498
O16	O	0.352559	1.713934	0.042502
O17	O	-0.337696	1.459022	-0.482041
O18	O	0.162304	1.959022	0.017959
O19	O	-0.148002	1.317998	-0.574364
O20	O	0.351998	1.817998	-0.074364
O21	O	-0.254941	1.216027	-0.317219
O22	O	0.245059	1.716027	0.182781
O23	O	-0.268045	1.061118	-0.455216
O24	O	0.231955	1.561118	0.044784
O25	O	-0.360729	1.186740	-0.724597
O26	O	0.139271	1.686740	-0.224597
O27	O	-0.359987	1.049395	-0.570355
O28	O	0.140013	1.549395	-0.070355
O29	O	-0.269349	1.302526	-0.726325
O30	O	0.230651	1.802526	-0.226325
O31	O	-0.458301	1.306206	-0.479760
O32	O	0.041699	1.806206	0.020240
O33	O	-0.468230	1.188833	-0.584318
O34	O	0.031770	1.688833	-0.084318
C35	C	-0.315400	1.022550	-0.510968
C36	C	0.184600	1.522550	-0.010968
C37	C	-0.319657	0.922360	-0.505422
C38	C	0.180343	1.422360	-0.005422
C39	C	-0.367984	0.781982	-0.442174
C40	C	0.132016	1.281982	0.057826
C41	C	-0.363987	0.876120	-0.447385
C42	C	0.136013	1.376120	0.052615
C43	C	-0.279318	0.874454	-0.558250
C44	C	0.220682	1.374454	-0.058250
C45	C	-0.283314	0.780316	-0.553039
C46	C	0.216686	1.280316	-0.053039
C47	C	-0.327649	0.734083	-0.495000
C48	C	0.172351	1.234083	0.005000
C49	C	-0.331649	0.639943	-0.489794
C50	C	0.168351	1.139943	0.010206
C51	C	-0.246976	0.638279	-0.600654
C52	C	0.253024	1.138279	-0.100654
C53	C	-0.242980	0.732417	-0.605865
C54	C	0.257020	1.232417	-0.105865
C55	C	-0.488875	1.246045	-0.533368
C56	C	0.011125	1.746045	-0.033368
C57	C	-0.567324	1.241550	-0.537416
C58	C	-0.067324	1.741550	-0.037416
C59	C	-0.598988	1.300589	-0.484930
C60	C	-0.098988	1.800589	0.015070
C61	C	-0.672700	1.296366	-0.488744
C62	C	-0.172700	1.796366	0.011256
C63	C	-0.714747	1.233099	-0.545038
C64	C	-0.214747	1.733099	-0.045038
C65	C	-0.683079	1.174056	-0.597530
C66	C	-0.183079	1.674056	-0.097530
C67	C	-0.609368	1.178284	-0.593721
C68	C	-0.109368	1.678284	-0.093721
C69	C	-0.937565	1.217277	-0.559265
C70	C	-0.437565	1.717277	-0.059265
C71	C	-1.011281	1.213052	-0.563068
C72	C	-0.511281	1.713052	-0.063068
C73	C	-1.000896	1.335363	-0.454282
C74	C	-0.500896	1.835363	0.045718
C75	C	-0.927185	1.339582	-0.450474
C76	C	-0.427185	1.839582	0.049526
C77	C	-0.895523	1.280543	-0.502969
C78	C	-0.395523	1.780543	-0.002969
C79	C	-0.790093	1.228778	-0.548935
C80	C	-0.290093	1.728778	-0.048935
C81	C	-0.820179	1.284868	-0.499076
C82	C	-0.320179	1.784868	0.000924
C83	C	-0.121395	1.267505	-0.514587
C84	C	0.378605	1.767505	-0.014587
C85	C	-0.042944	1.272091	-0.510582
C86	C	0.457056	1.772091	-0.010582
C87	C	-0.316632	1.242612	-0.759079
C88	C	0.183368	1.742612	-0.259079
C89	C	-0.321378	1.236591	-0.859263
C90	C	0.178622	1.736591	-0.359263
C91	C	-0.295548	1.491849	-0.537053
C92	C	0.204452	1.991849	-0.037053
C93	C	-0.291310	1.592038	-0.542622
C94	C	0.208690	2.092038	-0.042622
C95	C	-0.235127	1.345842	-1.049318
C96	C	0.264873	1.845842	-0.549318
C97	C	-0.239584	1.340188	-1.143449
C98	C	0.260416	1.840188	-0.643449
C99	C	-0.334746	1.219622	-1.141657
C100	C	0.165254	1.719622	-0.641657
C101	C	-0.330289	1.225277	-1.047526
C102	C	0.169711	1.725277	-0.547526
C103	C	-0.280478	1.288390	-1.001360
C104	C	0.219522	1.788390	-0.501360
C105	C	-0.276025	1.294049	-0.907228
C106	C	0.223975	1.794049	-0.407228
C107	C	-0.371183	1.173480	-0.905437
C108	C	0.128817	1.673480	-0.405437
C109	C	-0.375640	1.167825	-0.999568
C110	C	0.124360	1.667825	-0.499568
C111	C	-0.294345	1.270873	-0.289805
C112	C	0.205655	1.770873	0.210195
C113	C	-0.289393	1.277081	-0.189622
C114	C	0.210607	1.777081	0.310378
H115	H	-0.396831	0.915116	-0.404368
H116	H	0.103169	1.415116	0.095632
H117	H	-0.408113	1.126700	-0.866380
H118	H	0.091887	1.626700	-0.366380
H119	H	-0.206882	0.770073	-0.653116
H120	H	0.293118	1.270073	-0.153116
H121	H	-0.785942	1.336384	-0.453245
H122	H	-0.285942	1.836384	0.046755
H123	H	-0.194572	1.397236	-1.011729
H124	H	0.305428	1.897236	-0.511729
H125	H	-0.564757	1.352105	-0.439085
H126	H	-0.064757	1.852105	0.060915
H127	H	-0.416193	1.116439	-1.037169
H128	H	0.083807	1.616439	-0.537169
H129	H	-0.404089	0.744338	-0.394924
H130	H	0.095911	1.244338	0.105076
H131	H	-0.235467	1.345440	-0.869641
H132	H	0.264533	1.845440	-0.369641
H133	H	-0.375299	1.168239	-1.179262
H134	H	0.124701	1.668239	-0.679262
H135	H	-0.243218	0.912114	-0.605497
H136	H	0.256782	1.412114	-0.105497
H137	H	-0.367751	0.602302	-0.442539
H138	H	0.132249	1.102302	0.057461
H139	H	-0.214134	0.599270	-0.643670
H140	H	0.285866	1.099270	-0.143670
H141	H	-0.698476	1.344442	-0.446003
H142	H	-0.198476	1.844442	0.053997
H143	H	-0.911792	1.169204	-0.602007
H144	H	-0.411792	1.669204	-0.102007
H145	H	-0.824336	1.177264	-0.594769
H146	H	-0.324336	1.677264	-0.094769
H147	H	-0.202652	1.386969	-1.182493
H148	H	0.297348	1.886969	-0.682493
H149	H	-0.892951	1.391100	-0.404634
H150	H	-0.392951	1.891100	0.095366
H151	H	-1.026683	1.383431	-0.411545
H152	H	-0.526683	1.883431	0.088455
H153	H	-1.045514	1.161541	-0.608926
H154	H	-0.545514	1.661541	-0.108926
H155	H	-0.717320	1.122546	-0.643371
H156	H	-0.217320	1.622546	-0.143371
H157	H	-0.583589	1.130209	-0.636462
H158	H	-0.083589	1.630209	-0.136462
