data_functionalizedCrystal
_audit_creation_method	'MofGen! by Chris Wilmer'
_symmetry_space_group_name_H-M	'P1'
_symmetry_Int_Tables_number	1
_symmetry_cell_setting	triclinic
loop_
_symmetry_equiv_pos_as_xyz
  x,y,z
_cell_length_a	33.428889
_cell_length_b	33.428139
_cell_length_c	33.424847
_cell_angle_alpha	60.004234
_cell_angle_beta	60.008465
_cell_angle_gamma	59.994972
loop_
_atom_site_label
_atom_site_type_symbol
_atom_site_fract_x
_atom_site_fract_y
_atom_site_fract_z
O1	O	0.055565	-0.584504	0.488714
O2	O	0.020982	-0.455083	0.393778
O3	O	0.102943	-0.536959	0.393689
O4	O	-0.026396	-0.502628	0.488803
O5	O	0.130140	-0.509767	0.420792
O6	O	0.048179	-0.427891	0.420881
O7	O	0.082762	-0.557312	0.515817
Cu8	Cu	0.067954	-0.490119	0.470823
Cu9	Cu	0.035790	-0.522276	0.438771
O10	O	0.000801	-0.475436	0.515906
N11	N	0.090577	-0.467504	0.493370
N12	N	0.013171	-0.544895	0.416225
C13	C	0.143377	-0.280390	0.546067
C14	C	0.143515	-0.414755	0.680369
C15	C	0.143392	-0.414735	0.546069
C16	C	0.277766	-0.414702	0.545966
C17	C	0.158177	-0.324719	0.560828
C18	C	0.158255	-0.399967	0.636038
C19	C	0.233434	-0.399936	0.560773
C20	C	0.158186	-0.399955	0.560829
C21	C	0.124540	-0.223964	0.527278
C22	C	0.124565	-0.433545	0.527281
C23	C	0.177014	-0.381145	0.579617
C24	C	0.359814	-0.400540	0.502735
C25	C	0.411105	-0.417624	0.485606
C26	C	0.411136	-0.500620	0.517255
C27	C	0.359845	-0.483534	0.534385
C28	C	0.136887	-0.198305	0.476855
C29	C	0.119761	-0.147011	0.459777
C30	C	0.077945	-0.147038	0.543547
C31	C	0.095072	-0.198332	0.560625
C32	C	0.074134	-0.421169	0.539710
C33	C	0.057023	-0.438269	0.522625
C34	C	0.140770	-0.480120	0.480694
C35	C	0.157883	-0.463020	0.497773
C36	C	0.074339	-0.421208	0.762475
C37	C	0.057288	-0.438323	0.813768
C38	C	0.141075	-0.480183	0.813699
C39	C	0.158125	-0.463069	0.762404
C40	C	0.124756	-0.433580	0.736794
C41	C	0.334186	-0.433494	0.527123
C42	C	-0.173769	-0.597444	0.363037
C43	C	-0.039302	-0.597595	0.228856
C44	C	-0.039496	-0.597587	0.363300
C45	C	-0.039512	-0.731889	0.363237
C46	C	-0.129442	-0.612265	0.348329
C47	C	-0.054138	-0.612351	0.273187
C48	C	-0.054257	-0.687554	0.348440
C49	C	-0.054247	-0.612346	0.348477
C50	C	-0.230191	-0.578579	0.381758
C51	C	-0.020722	-0.578803	0.382168
C52	C	-0.073020	-0.631130	0.329609
C53	C	-0.053713	-0.813916	0.406386
C54	C	-0.036654	-0.865210	0.423504
C55	C	0.046338	-0.865293	0.391984
C56	C	0.029278	-0.813999	0.374865
C57	C	-0.255900	-0.590938	0.432169
C58	C	-0.307191	-0.573786	0.449185
C59	C	-0.307060	-0.531922	0.365377
C60	C	-0.255769	-0.549074	0.348360
C61	C	-0.033081	-0.528377	0.369764
C62	C	-0.016014	-0.511306	0.386922
C63	C	0.025770	-0.595083	0.428877
C64	C	0.008703	-0.612156	0.411725
C65	C	-0.032755	-0.528393	0.146761
C66	C	-0.015585	-0.511324	0.095468
C67	C	0.026262	-0.595106	0.095516
C68	C	0.009094	-0.612174	0.146811
C69	C	-0.020417	-0.578816	0.172432
C70	C	-0.020748	-0.788312	0.382068
N71	N	0.436037	-0.467415	0.493101
O72	O	0.592642	-0.471896	0.376066
O73	O	0.592838	-0.567146	0.505347
O74	O	0.592754	-0.566928	0.423360
O75	O	0.592727	-0.472113	0.458053
O76	O	0.511269	-0.539835	0.450606
O77	O	0.511353	-0.540052	0.532594
O78	O	0.511157	-0.444802	0.403312
Cu79	Cu	0.503815	-0.489954	0.470441
Cu80	Cu	0.600180	-0.521995	0.438219
O81	O	0.511242	-0.445020	0.485300
N82	N	0.667959	-0.544533	0.415554
N83	N	0.090544	-0.122107	0.493359
O84	O	-0.026406	0.034587	0.488773
O85	O	0.102877	0.034627	0.393499
O86	O	0.020848	0.034591	0.393771
O87	O	0.055623	0.034623	0.488500
O88	O	0.048051	-0.046899	0.420925
O89	O	0.130080	-0.046864	0.420653
O90	O	0.000796	-0.046903	0.515927
Cu91	Cu	0.067922	-0.054324	0.470769
Cu92	Cu	0.035752	0.042048	0.438656
O93	O	0.082825	-0.046867	0.515655
N94	N	0.013123	0.109830	0.416068
N95	N	0.090892	-0.467554	0.838649
O96	O	0.086330	-0.584488	0.995334
O97	O	-0.008902	-0.455160	0.995379
O98	O	-0.008679	-0.537172	0.995355
O99	O	0.086107	-0.502475	0.995358
O100	O	0.018452	-0.509990	0.913868
O101	O	0.018230	-0.427978	0.913891
O102	O	0.113461	-0.557306	0.913847
Cu103	Cu	0.068323	-0.490160	0.906429
Cu104	Cu	0.036237	-0.522306	1.002797
O105	O	0.113239	-0.475293	0.913870
N106	N	0.013667	-0.544916	1.070577
C107	C	0.031339	-0.425179	0.394250
C108	C	0.132837	-0.526572	0.394139
C109	C	0.072405	-0.587216	0.515344
C110	C	-0.029093	-0.485823	0.515455
C111	C	0.552119	-0.566716	0.535258
C112	C	0.552016	-0.566447	0.433726
C113	C	0.551873	-0.445232	0.373402
C114	C	0.551980	-0.445502	0.474933
C115	C	0.132731	-0.006013	0.393923
C116	C	0.031182	-0.006158	0.394293
C117	C	-0.029092	-0.006163	0.515469
C118	C	0.072491	-0.006119	0.515133
C119	C	-0.008451	-0.425276	0.954641
C120	C	-0.008170	-0.526833	0.954596
C121	C	0.113010	-0.587190	0.954585
C122	C	0.112735	-0.485627	0.954611
H123	H	0.016234	-0.428240	0.834672
H124	H	-0.038348	-0.388133	0.954654
H125	H	0.169984	-0.533889	0.364272
C126	C	0.194400	-0.630986	0.912671
C127	C	0.153375	-0.637329	0.954565
H128	H	0.219318	-0.661941	0.912658
H129	H	0.206225	-0.610402	0.912680
H130	H	0.185480	-0.616322	0.884261
H131	H	0.162294	-0.651989	0.982975
H132	H	0.141549	-0.657921	0.954560
H133	H	-0.327887	-0.507903	0.338181
C134	C	-0.079244	-0.006170	0.597753
C135	C	-0.079212	-0.006177	0.555849
H136	H	-0.110185	-0.006182	0.622682
H137	H	-0.073274	0.022253	0.590032
H138	H	-0.054298	-0.034582	0.608969
H139	H	-0.104156	0.022237	0.544631
H140	H	-0.085187	-0.034603	0.563570
H141	H	-0.037935	-0.534246	0.954563
H142	H	0.552029	-0.596233	0.426301
C143	C	0.551762	-0.362925	0.323223
C144	C	0.551791	-0.404858	0.323282
H145	H	0.551708	-0.338000	0.292281
H146	H	0.580191	-0.370612	0.329166
H147	H	0.523360	-0.351721	0.348177
H148	H	0.580195	-0.416064	0.298330
H149	H	0.523359	-0.397171	0.317333
C150	C	0.054714	-0.353304	0.340820
C151	C	0.021366	-0.374991	0.353994
H152	H	0.048554	-0.322319	0.315970
H153	H	0.087142	-0.373818	0.328889
H154	H	0.051057	-0.349059	0.368668
H155	H	0.025025	-0.379239	0.326147
H156	H	-0.011070	-0.354472	0.365924
H157	H	0.142514	-0.478200	0.954606
C158	C	0.071256	-0.131262	0.609662
C159	C	0.045559	-0.118864	0.580205
H160	H	0.051259	-0.113872	0.632296
H161	H	0.100239	-0.122837	0.589630
H162	H	0.079689	-0.165484	0.627045
H163	H	0.037129	-0.084641	0.562819
H164	H	0.016566	-0.127285	0.600239
H165	H	0.551974	-0.415718	0.482355
H166	H	0.047163	-0.397193	0.741627
H167	H	0.023733	-0.006162	0.364531
C168	C	0.225610	-0.519844	0.808478
C169	C	0.177756	-0.512597	0.841851
H170	H	0.248253	-0.539861	0.825858
H171	H	0.230517	-0.489098	0.788478
H172	H	0.230515	-0.535496	0.788468
H173	H	0.172850	-0.496941	0.861857
H174	H	0.172847	-0.543349	0.861858
H175	H	0.552170	-0.596617	0.572390
H176	H	0.169783	-0.005775	0.363939
C177	C	0.225916	-0.502318	0.704686
C178	C	0.213548	-0.476672	0.734178
H179	H	0.260132	-0.510718	0.687265
H180	H	0.208489	-0.482309	0.682093
H181	H	0.217523	-0.531326	0.724703
H182	H	0.221938	-0.447662	0.714161
H183	H	0.230981	-0.496683	0.756775
C184	C	-0.010368	-0.381510	0.579433
C185	C	0.037510	-0.388765	0.572139
H186	H	-0.032977	-0.361502	0.599451
H187	H	-0.015279	-0.412255	0.595094
H188	H	-0.015318	-0.365844	0.548697
H189	H	0.042462	-0.404434	0.602874
H190	H	0.042424	-0.358015	0.556478
C191	C	0.121954	-0.048003	0.566528
C192	C	0.082540	-0.006118	0.555319
H193	H	0.128154	-0.048004	0.591340
H194	H	0.150253	-0.047988	0.538005
H195	H	0.114180	-0.076422	0.577847
H196	H	0.090315	0.022301	0.543995
H197	H	0.054235	-0.006128	0.583847
C198	C	-0.010847	-0.399004	0.493552
C199	C	0.001588	-0.424667	0.536285
H200	H	-0.045071	-0.390603	0.501987
H201	H	0.006543	-0.419003	0.473537
H202	H	-0.002453	-0.369995	0.476156
H203	H	-0.006803	-0.453677	0.553680
H204	H	-0.015808	-0.404667	0.556309
H205	H	0.198948	-0.473094	0.487648
C206	C	0.206854	-0.486843	0.405501
C207	C	0.177400	-0.512521	0.448258
H208	H	0.229465	-0.506843	0.385475
H209	H	0.224257	-0.478433	0.413901
H210	H	0.186815	-0.457841	0.388124
H211	H	0.197439	-0.541520	0.465636
H212	H	0.159995	-0.520938	0.439858
C213	C	0.365036	-0.567289	0.563943
C214	C	0.331677	-0.519761	0.561192
H215	H	0.347645	-0.589653	0.580490
H216	H	0.385061	-0.575864	0.581401
H217	H	0.385019	-0.568583	0.531801
H218	H	0.311696	-0.518465	0.593334
H219	H	0.311644	-0.511183	0.543735
C220	C	0.093807	-0.674106	0.538970
C221	C	0.082374	-0.637405	0.555600
H222	H	0.099958	-0.705089	0.563824
H223	H	0.122134	-0.673963	0.510476
H224	H	0.067078	-0.668158	0.531341
H225	H	0.109106	-0.643351	0.563226
H226	H	0.054044	-0.637548	0.584103
C227	C	0.426841	-0.346786	0.416794
C228	C	0.439280	-0.381401	0.458792
H229	H	0.444239	-0.324426	0.400238
H230	H	0.392627	-0.329449	0.425959
H231	H	0.435231	-0.363007	0.395698
H232	H	0.430887	-0.365180	0.479890
H233	H	0.473503	-0.398739	0.449628
C234	C	0.281174	-0.337492	0.514934
C235	C	0.331607	-0.345533	0.494753
H236	H	0.263763	-0.303533	0.510002
H237	H	0.272798	-0.355376	0.549038
H238	H	0.272759	-0.348106	0.499441
H239	H	0.340023	-0.334922	0.510249
H240	H	0.339987	-0.327642	0.460643
C241	C	0.143582	-0.214085	0.410741
C242	C	0.169276	-0.226479	0.440199
H243	H	0.163577	-0.231483	0.388114
H244	H	0.135152	-0.179868	0.393355
H245	H	0.114593	-0.222508	0.430776
H246	H	0.198263	-0.218053	0.420163
H247	H	0.177712	-0.260704	0.457586
C248	C	0.102802	-0.276973	0.624003
C249	C	0.081535	-0.226537	0.616052
H250	H	0.094451	-0.294384	0.658223
H251	H	0.137399	-0.285348	0.609548
H252	H	0.090973	-0.285391	0.609638
H253	H	0.093368	-0.218117	0.630414
H254	H	0.046931	-0.218158	0.630514
C255	C	-0.058692	-0.430226	0.100579
C256	C	-0.029160	-0.455895	0.067255
H257	H	-0.067073	-0.396006	0.083161
H258	H	-0.041329	-0.438646	0.120630
H259	H	-0.087706	-0.438611	0.120542
H260	H	-0.000145	-0.447513	0.047295
H261	H	-0.046523	-0.447471	0.047196
H262	H	0.432025	-0.541365	0.523165
H263	H	0.129813	-0.126117	0.418717
C264	C	-0.077662	-0.517351	0.225364
C265	C	-0.065196	-0.491724	0.174922
H266	H	-0.097690	-0.494712	0.242749
H267	H	-0.048690	-0.537378	0.233824
H268	H	-0.095068	-0.537335	0.233730
H269	H	-0.047786	-0.471741	0.166556
H270	H	-0.094173	-0.471687	0.166459
C271	C	0.065893	-0.679638	0.100717
C272	C	0.058691	-0.631774	0.067354
H273	H	0.085918	-0.702273	0.083330
H274	H	0.035136	-0.684525	0.120675
H275	H	0.081519	-0.684577	0.120769
H276	H	0.043062	-0.626834	0.047304
H277	H	0.089454	-0.626885	0.047387
C278	C	-0.020127	-0.679936	0.204455
C279	C	0.022655	-0.667603	0.175029
H280	H	-0.011755	-0.714154	0.221877
H281	H	-0.037485	-0.671511	0.184397
H282	H	-0.040153	-0.662510	0.227053
H283	H	0.042678	-0.685026	0.152428
H284	H	0.040020	-0.676033	0.195088
H285	H	-0.057039	-0.501216	0.345698
C286	C	-0.088010	-0.436581	0.567069
C287	C	-0.079238	-0.475954	0.555779
H288	H	-0.118966	-0.430492	0.591967
H289	H	-0.087937	-0.408222	0.538602
H290	H	-0.063078	-0.444333	0.578304
H291	H	-0.104169	-0.468201	0.544541
H292	H	-0.079315	-0.504319	0.584252
C293	C	-0.012102	-0.434691	0.322271
C294	C	-0.029580	-0.455878	0.373283
H295	H	-0.020471	-0.400474	0.313851
H296	H	-0.026484	-0.440076	0.307827
H297	H	0.022503	-0.449150	0.310543
H298	H	-0.064186	-0.441422	0.385011
H299	H	-0.015200	-0.450490	0.387733
C300	C	0.100881	-0.661277	0.435754
C301	C	0.058120	-0.631749	0.461363
H302	H	0.120850	-0.683913	0.455811
H303	H	0.118314	-0.641291	0.406776
H304	H	0.092479	-0.678658	0.427314
H305	H	0.066522	-0.614365	0.469799
H306	H	0.040684	-0.651738	0.490349
C307	C	0.004829	-0.688789	0.476365
C308	C	0.022288	-0.667586	0.425354
H309	H	0.013220	-0.723009	0.484776
H310	H	-0.029774	-0.674352	0.488104
H311	H	0.019208	-0.683393	0.490808
H312	H	0.007907	-0.672979	0.410911
H313	H	0.056898	-0.682028	0.413609
H314	H	0.087072	-0.886205	0.386121
C315	C	0.113026	-0.819241	0.345437
C316	C	0.065516	-0.785858	0.348137
H317	H	0.135397	-0.801867	0.328939
H318	H	0.121622	-0.839248	0.327952
H319	H	0.114280	-0.839244	0.377591
H320	H	0.064261	-0.765858	0.315982
H321	H	0.056917	-0.765842	0.365622
H322	H	-0.063498	-0.886058	0.443304
C323	C	-0.134029	-0.818988	0.439231
C324	C	-0.108701	-0.785679	0.414282
H325	H	-0.167975	-0.801556	0.444099
H326	H	-0.129332	-0.838984	0.470075
H327	H	-0.121961	-0.839009	0.420434
H328	H	-0.120767	-0.765661	0.433081
H329	H	-0.113401	-0.765675	0.383433
H330	H	-0.328125	-0.583847	0.490235
C331	C	-0.240235	-0.666087	0.498357
C332	C	-0.227787	-0.623369	0.468882
H333	H	-0.222881	-0.686107	0.521024
H334	H	-0.231805	-0.683491	0.478341
H335	H	-0.274463	-0.657632	0.515702
H336	H	-0.193560	-0.631823	0.451535
H337	H	-0.236215	-0.605962	0.488900
C338	C	-0.260796	-0.505969	0.267230
C339	C	-0.227511	-0.535490	0.292947
H340	H	-0.243349	-0.497584	0.233019
H341	H	-0.280799	-0.476959	0.275623
H342	H	-0.280809	-0.523348	0.275602
H343	H	-0.207500	-0.518109	0.284578
H344	H	-0.207500	-0.564504	0.284550
