data_functionalizedCrystal
_audit_creation_method	'MofGen! by Chris Wilmer'
_symmetry_space_group_name_H-M	'P1'
_symmetry_Int_Tables_number	1
_symmetry_cell_setting	triclinic
loop_
_symmetry_equiv_pos_as_xyz
  x,y,z
_cell_length_a	16.974800
_cell_length_b	19.188930
_cell_length_c	16.053802
_cell_angle_alpha	92.551696
_cell_angle_beta	91.074188
_cell_angle_gamma	83.267966
loop_
_atom_site_label
_atom_site_type_symbol
_atom_site_fract_x
_atom_site_fract_y
_atom_site_fract_z
O1	O	1.048771	0.089000	0.001451
O2	O	0.819273	0.099688	-0.014064
O3	O	0.940644	-0.007281	-0.005843
O4	O	0.927400	0.195969	-0.006771
O5	O	0.933963	-0.001417	0.132564
O6	O	0.812592	0.105551	0.124342
O7	O	1.042090	0.094863	0.139857
Zn8	Zn	0.926281	0.101138	0.154075
Zn9	Zn	0.935082	0.093413	-0.028282
O10	O	0.920719	0.201832	0.131636
C11	C	0.786571	0.102106	0.053154
C12	C	0.699084	0.100566	0.047240
C13	C	0.654345	0.103037	0.119909
C14	C	0.572143	0.101580	0.114355
C15	C	0.534680	0.097656	0.036131
C16	C	0.579425	0.095182	-0.036544
C17	C	0.661626	0.096635	-0.030988
C18	C	0.289226	0.092964	0.011426
C19	C	0.207018	0.091513	0.005877
C20	C	0.199742	0.097910	0.156776
C21	C	0.281944	0.099366	0.162324
C22	C	0.326683	0.096889	0.089650
N23	N	0.450656	0.096168	0.030451
N24	N	0.410706	0.098372	0.095330
C25	C	0.936874	-0.030362	0.063334
C26	C	0.935587	-0.107872	0.063254
C27	C	1.006803	-0.152471	0.068073
C28	C	1.005594	-0.225301	0.067978
C29	C	0.933164	-0.253528	0.063080
C30	C	0.861937	-0.208919	0.058256
C31	C	0.863149	-0.136091	0.058343
N32	N	0.875525	-0.359790	0.106440
N33	N	0.874379	-0.428974	0.106359
C34	C	0.929509	-0.472954	0.062816
N35	N	0.985840	-0.445138	0.019368
N36	N	0.986988	-0.375947	0.019453
C37	C	0.931842	-0.332497	0.062985
C38	C	0.999420	-0.596524	0.067531
C39	C	0.998208	-0.669355	0.067431
C40	C	0.854549	-0.652971	0.057717
C41	C	0.855763	-0.580142	0.057810
C42	C	0.928201	-0.551923	0.062721
C43	C	1.074792	0.092445	0.072637
C44	C	1.162280	0.093985	0.078546
C45	C	0.924489	0.224913	0.062457
C46	C	0.925777	0.302423	0.062532
N47	N	0.920279	0.106410	0.278529
N48	N	0.941090	0.088135	-0.152735
C49	C	0.971942	0.060911	0.325722
C50	C	0.967751	0.064606	0.412845
C51	C	0.911901	0.113803	0.452773
C52	C	0.860233	0.159304	0.405573
C53	C	0.864421	0.155606	0.318451
C54	C	0.893610	0.129938	0.712944
C55	C	0.889428	0.133634	0.800072
C56	C	0.996945	0.038935	0.807337
C57	C	1.001130	0.035243	0.720214
C58	C	0.949460	0.080742	0.673022
N59	N	0.907618	0.117582	0.541827
N60	N	0.953740	0.076959	0.583969
H61	H	0.176519	0.088320	-0.057826
Br62	Br	1.037862	0.002854	0.476896
Br63	Br	1.094869	-0.729886	0.073962
H64	H	0.325642	0.090944	-0.047750
H65	H	0.684840	0.106238	0.183608
Br66	Br	1.067064	-0.022812	0.871387
H67	H	0.163307	0.099925	0.215943
H68	H	0.843946	0.173700	0.832576
H69	H	1.017424	0.020852	0.293219
Br70	Br	0.759106	-0.519611	0.051271
H71	H	0.795574	-0.675953	0.053726
H72	H	1.046608	-0.004817	0.687707
Br73	Br	1.102253	-0.285841	0.074514
Br74	Br	0.511427	0.104945	0.212982
H75	H	0.548917	0.091982	-0.100235
Br76	Br	0.823489	0.191685	0.648901
Br77	Br	0.784429	0.226069	0.459757
H78	H	0.698052	0.094624	-0.090163
H79	H	0.312441	0.102558	0.226022
Br80	Br	1.105112	-0.114178	0.074714
H81	H	0.802964	-0.231906	0.054267
H82	H	0.805154	-0.099778	0.054419
H83	H	1.058403	-0.573547	0.071526
Br84	Br	0.794299	0.217353	0.254402
