data_functionalizedCrystal
_audit_creation_method	'MofGen! by Chris Wilmer'
_symmetry_space_group_name_H-M	'P1'
_symmetry_Int_Tables_number	1
_symmetry_cell_setting	triclinic
loop_
_symmetry_equiv_pos_as_xyz
  x,y,z
_cell_length_a	19.288840
_cell_length_b	10.489716
_cell_length_c	18.366186
_cell_angle_alpha	89.997846
_cell_angle_beta	89.983729
_cell_angle_gamma	83.827576
loop_
_atom_site_label
_atom_site_type_symbol
_atom_site_fract_x
_atom_site_fract_y
_atom_site_fract_z
O1	O	0.922422	0.158959	-0.060665
O2	O	0.720302	0.180456	-0.060639
O3	O	0.825970	-0.015997	-0.060655
O4	O	0.816754	0.355413	-0.060649
O5	O	0.825952	-0.016007	0.060444
O6	O	0.720284	0.180447	0.060460
O7	O	0.922404	0.158950	0.060434
Zn8	Zn	0.821341	0.169697	0.079674
Zn9	Zn	0.821365	0.169709	-0.079879
O10	O	0.816736	0.355403	0.060451
C11	C	0.694412	0.179765	-0.000086
C12	C	0.617294	0.177705	-0.000076
C13	C	0.581093	0.176720	-0.066090
C14	C	0.508633	0.174770	-0.066099
C15	C	0.472378	0.173779	-0.000091
C16	C	0.508587	0.174771	0.065931
C17	C	0.581044	0.176734	0.065938
C18	C	0.362525	0.095957	0.050469
C19	C	0.290069	0.093986	0.050460
C20	C	0.248894	0.167730	-0.000110
C21	C	0.280185	0.243428	-0.050681
C22	C	0.352643	0.245391	-0.050674
C23	C	0.393810	0.171651	-0.000091
C24	C	0.134125	0.164633	-0.066137
C25	C	0.061663	0.162690	-0.066143
C26	C	0.061618	0.162678	0.065888
C27	C	0.134078	0.164633	0.065893
C28	C	0.170327	0.165604	-0.000122
C29	C	0.825269	-0.063518	-0.000108
C30	C	0.823197	-0.205102	-0.000114
C31	C	0.887996	-0.304252	-0.000116
C32	C	0.853764	-0.380828	-0.059818
C33	C	0.853731	-0.380801	0.059577
C34	C	0.788992	-0.279813	-0.059865
C35	C	0.788968	-0.279781	0.059583
C36	C	0.754689	-0.356307	-0.000134
C37	C	0.948294	0.159641	-0.000120
C38	C	1.025413	0.161701	-0.000135
C39	C	0.817438	0.402924	-0.000099
C40	C	0.819509	0.544508	-0.000097
N41	N	0.821330	0.169687	0.188566
N42	N	0.821382	0.169709	-0.188770
C43	C	0.868135	0.082740	0.226659
C44	C	0.868140	0.082735	0.302887
C45	C	0.821345	0.169698	0.341018
C46	C	0.774531	0.256651	0.302916
C47	C	0.774523	0.256646	0.226690
C48	C	0.812821	0.285914	0.461781
C49	C	0.812833	0.285921	0.538006
C50	C	0.821365	0.169714	0.576126
C51	C	0.829899	0.053495	0.538011
C52	C	0.829891	0.053490	0.461785
C53	C	0.821348	0.169713	0.423673
C54	C	0.868178	0.082753	0.696874
C55	C	0.868177	0.082746	0.773103
C56	C	0.774572	0.256674	0.773131
C57	C	0.774569	0.256670	0.696903
C58	C	0.821376	0.169711	0.658779
H59	H	0.479063	0.173967	0.119675
Br60	Br	0.183211	0.165966	0.155487
Br61	Br	0.801260	0.443643	0.589726
Br62	Br	0.743438	-0.206603	-0.144087
H63	H	0.836846	-0.041132	0.569046
Br64	Br	0.247608	-0.008714	0.119106
Br65	Br	0.418398	-0.004127	0.119108
Br66	Br	0.660675	-0.394890	-0.000170
Br67	Br	0.630177	0.178073	0.155535
Br68	Br	0.012531	0.161370	-0.155741
H69	H	0.736459	0.327476	0.665886
Br70	Br	0.981938	-0.265258	-0.000224
Br71	Br	0.012422	0.161352	0.155473
H72	H	0.881125	-0.424942	-0.110300
H73	H	0.761631	-0.235644	0.110067
H74	H	0.906246	0.011930	0.195621
Br75	Br	0.183324	0.165959	-0.155726
Br76	Br	0.899331	-0.454305	0.143701
Br77	Br	0.931666	-0.035277	0.354594
Br78	Br	0.801311	0.443641	0.410055
H79	H	0.836838	-0.041140	0.430755
Br80	Br	0.931698	-0.035265	0.645132
Br81	Br	0.931698	-0.035274	0.824806
Br82	Br	0.711057	0.374683	0.824875
H83	H	0.736429	0.327456	0.333967
H84	H	0.736408	0.327450	0.195673
Br85	Br	0.630285	0.178041	-0.155680
H86	H	0.378117	0.307030	-0.091850
Br87	Br	0.459493	0.173437	-0.155694
Br88	Br	0.224314	0.343520	-0.119315
