data_functionalizedCrystal
_audit_creation_method	'MofGen! by Chris Wilmer'
_symmetry_space_group_name_H-M	'P1'
_symmetry_Int_Tables_number	1
_symmetry_cell_setting	triclinic
loop_
_symmetry_equiv_pos_as_xyz
  x,y,z
_cell_length_a	12.594517
_cell_length_b	25.639239
_cell_length_c	12.594509
_cell_angle_alpha	89.965872
_cell_angle_beta	89.978673
_cell_angle_gamma	90.038486
loop_
_atom_site_label
_atom_site_type_symbol
_atom_site_fract_x
_atom_site_fract_y
_atom_site_fract_z
Zn1	Zn	1.627100	-0.208138	-0.601816
Zn2	Zn	1.626920	-0.295580	-0.423819
Zn3	Zn	1.449103	-0.208160	-0.423845
Zn4	Zn	1.449015	-0.295544	-0.601750
O5	O	1.538035	-0.251855	-0.512808
O6	O	1.776022	-0.219743	-0.578222
O7	O	1.603294	-0.284008	-0.274877
O8	O	1.472827	-0.134992	-0.447492
O9	O	1.775890	-0.283987	-0.447448
O10	O	1.603600	-0.134976	-0.578247
O11	O	1.472653	-0.219781	-0.274896
O12	O	1.300146	-0.219746	-0.447427
O13	O	1.472677	-0.283925	-0.750704
O14	O	1.300081	-0.283946	-0.578133
O15	O	1.603515	-0.219708	-0.750753
O16	O	1.603209	-0.368740	-0.447384
O17	O	1.472503	-0.368714	-0.578108
C18	C	1.261494	-0.251845	-0.512776
C19	C	1.143188	-0.251853	-0.512788
C20	C	1.073939	-0.216887	-0.441833
C21	C	1.003090	-0.264579	-0.415643
C22	C	1.003239	-0.204184	-0.538996
C23	C	1.073897	-0.299570	-0.486547
C24	C	1.074052	-0.239144	-0.609946
C25	C	1.003234	-0.286869	-0.583793
C26	C	1.537856	-0.387698	-0.512759
C27	C	1.537876	-0.445812	-0.512774
C28	C	1.606271	-0.806176	-0.444855
C29	C	1.606312	-0.860781	-0.444870
O30	O	1.664278	-0.889019	-0.387070
N31	N	1.538222	-0.888094	-0.512878
C32	C	1.470093	-0.860801	-0.580885
O33	O	1.412182	-0.889048	-0.638733
C34	C	1.470058	-0.806198	-0.580875
C35	C	1.538145	-0.778887	-0.512854
C36	C	1.674353	-0.778865	-0.376841
C37	C	1.674310	-0.724265	-0.376826
C38	C	1.606185	-0.696975	-0.444825
C39	C	1.538102	-0.724286	-0.512839
C40	C	1.401936	-0.778905	-0.648886
C41	C	1.401907	-0.724298	-0.648871
C42	C	1.469994	-0.696987	-0.580850
C43	C	1.469934	-0.642396	-0.580822
N44	N	1.538024	-0.615083	-0.512814
C45	C	1.606150	-0.642372	-0.444815
C46	C	1.470174	-0.975472	-0.580901
C47	C	1.470202	-1.030074	-0.580906
C48	C	1.606423	-1.030050	-0.444892
C49	C	1.606388	-0.975447	-0.444883
C50	C	1.538264	-0.948158	-0.512892
C51	C	1.606054	-0.527707	-0.444787
C52	C	1.606002	-0.473102	-0.444775
C53	C	1.469786	-0.473131	-0.580792
C54	C	1.469833	-0.527731	-0.580801
C55	C	1.537976	-0.555018	-0.512795
O56	O	1.412001	-0.614124	-0.638596
O57	O	1.664062	-0.614119	-0.386986
C58	C	1.815655	-0.251866	-0.512840
C59	C	1.933961	-0.251871	-0.512853
C60	C	1.538106	-0.251810	-0.790429
C61	C	1.538136	-0.251790	-0.908734
C62	C	1.538243	-0.115482	-0.512880
C63	C	1.538332	-0.057368	-0.512911
C64	C	1.466996	-0.286698	-0.977961
C65	C	1.564106	-0.299473	-1.048748
C66	C	1.441102	-0.238984	-1.048746
C67	C	1.635297	-0.264590	-0.977964
C68	C	1.512227	-0.204079	-0.977955
C69	C	1.609405	-0.216836	-1.048711
C70	C	1.538025	-0.251863	-0.236267
C71	C	1.538201	-0.251736	-0.117962
H72	H	0.972144	-0.163870	-0.561099
Cl73	Cl	1.121611	-0.361840	-0.452217
H74	H	1.414316	-0.450903	-0.636153
Cl75	Cl	0.955599	-0.332584	-0.676479
Cl76	Cl	1.122211	-0.222508	-0.736724
H77	H	1.359014	-0.228175	-1.079838
Cl78	Cl	1.374185	-0.332343	-0.929994
H79	H	1.490250	-0.163765	-0.946835
H80	H	1.717409	-0.275445	-0.947002
Cl81	Cl	1.121876	-0.171278	-0.349082
Cl82	Cl	0.954966	-0.281194	-0.288833
Cl83	Cl	1.691718	-0.562002	-0.359291
Cl84	Cl	1.691604	-0.438771	-0.359257
Cl85	Cl	1.702434	-0.171223	-1.096378
Cl86	Cl	1.759927	-0.689939	-0.291326
Cl87	Cl	1.760009	-0.813162	-0.291345
Cl88	Cl	1.691987	-0.941119	-0.359370
H89	H	1.414690	-0.953256	-0.636280
Cl90	Cl	1.692065	-1.064367	-0.359405
H91	H	1.414749	-1.052306	-0.636285
Cl92	Cl	1.316347	-0.813226	-0.734416
H93	H	1.586055	-0.339798	-1.079845
H94	H	1.346434	-0.702083	-0.704256
H95	H	1.414395	-0.549969	-0.636192
