data_functionalizedCrystal
_audit_creation_method	'MofGen! by Chris Wilmer'
_symmetry_space_group_name_H-M	'P1'
_symmetry_Int_Tables_number	1
_symmetry_cell_setting	triclinic
loop_
_symmetry_equiv_pos_as_xyz
  x,y,z
_cell_length_a	19.188931
_cell_length_b	8.559649
_cell_length_c	7.088929
_cell_angle_alpha	95.344185
_cell_angle_beta	96.184053
_cell_angle_gamma	103.538277
loop_
_atom_site_label
_atom_site_type_symbol
_atom_site_fract_x
_atom_site_fract_y
_atom_site_fract_z
O1	O	0.907663	-0.216033	-0.158911
O2	O	0.702946	-0.242899	-0.158929
O3	O	0.823341	0.003262	-0.158917
O4	O	0.787269	-0.462195	-0.158924
O5	O	0.839434	0.036233	0.159060
O6	O	0.719040	-0.209928	0.159048
O7	O	0.923757	-0.183062	0.159065
Cu8	Cu	0.822868	-0.193485	0.188090
Cu9	Cu	0.803835	-0.232477	-0.187954
O10	O	0.803363	-0.429223	0.159053
C11	C	0.685028	-0.225544	0.000057
C12	C	0.607659	-0.222933	0.000050
C13	C	0.834121	0.079296	0.000068
C14	C	0.842257	0.256732	0.000058
C15	C	0.941675	-0.200418	0.000075
C16	C	1.019043	-0.203030	0.000070
C17	C	1.071518	-0.058593	0.000055
C18	C	1.144215	-0.061045	0.000067
C19	C	1.164430	-0.207947	0.000054
C20	C	1.111944	-0.352402	0.000079
C21	C	1.039251	-0.349943	0.000087
N22	N	1.261075	-0.331458	-0.108193
N23	N	1.330131	-0.333784	-0.108204
C24	C	1.383450	-0.215362	0.000035
N25	N	1.365105	-0.094504	0.108262
N26	N	1.296042	-0.092174	0.108265
C27	C	1.243252	-0.210628	0.000047
C28	C	1.514752	-0.073573	0.000036
C29	C	1.587449	-0.076031	0.000059
C30	C	1.555176	-0.367393	0.000052
C31	C	1.482481	-0.364930	0.000048
C32	C	1.462274	-0.218017	0.000031
C33	C	0.792582	-0.505258	0.000064
C34	C	0.784445	-0.682695	0.000061
N35	N	0.836259	-0.166058	0.452580
N36	N	0.790450	-0.259890	-0.452443
H37	H	1.055072	0.061036	0.000048
H38	H	0.883742	-0.068827	0.534241
Br39	Br	1.215444	0.134990	0.000047
Br40	Br	1.411259	-0.560965	0.000052
Br41	Br	1.139377	-0.551768	0.000078
Br42	Br	0.968029	-0.545981	0.000107
H43	H	0.897982	0.340630	0.000079
Br44	Br	0.711320	-0.421967	0.411470
Br45	Br	1.658671	0.120013	0.000070
Br46	Br	1.582604	-0.566760	0.000077
Br47	Br	1.487324	0.125807	0.000051
H48	H	0.728725	0.233419	0.000062
