data_functionalizedCrystal
_audit_creation_method	'MofGen! by Chris Wilmer'
_symmetry_space_group_name_H-M	'P1'
_symmetry_Int_Tables_number	1
_symmetry_cell_setting	triclinic
loop_
_symmetry_equiv_pos_as_xyz
  x,y,z
_cell_length_a	19.188925
_cell_length_b	19.188930
_cell_length_c	9.016244
_cell_angle_alpha	89.992636
_cell_angle_beta	89.991721
_cell_angle_gamma	83.143665
loop_
_atom_site_label
_atom_site_type_symbol
_atom_site_fract_x
_atom_site_fract_y
_atom_site_fract_z
O1	O	0.926150	0.087147	-0.123389
O2	O	1.426150	0.587147	0.376611
O3	O	0.722839	0.098885	-0.123387
O4	O	1.222839	0.598885	0.376613
O5	O	0.830362	-0.008640	-0.123359
O6	O	1.330362	0.491360	0.376641
O7	O	0.818627	0.194671	-0.123417
O8	O	1.318627	0.694671	0.376583
O9	O	0.830346	-0.008638	0.123322
O10	O	1.330346	0.491362	0.623322
O11	O	0.722823	0.098887	0.123294
O12	O	1.222823	0.598887	0.623294
O13	O	0.926135	0.087149	0.123292
O14	O	1.426135	0.587149	0.623292
Cu15	Cu	0.824477	0.093018	0.145817
Cu16	Cu	1.324477	0.593018	0.645817
Cu17	Cu	0.824496	0.093015	-0.145912
Cu18	Cu	1.324496	0.593015	0.354088
O19	O	0.818612	0.194674	0.123264
O20	O	1.318612	0.694674	0.623264
C21	C	0.696820	0.098507	-0.000046
C22	C	1.196820	0.598507	0.499954
C23	C	0.619315	0.097367	-0.000044
C24	C	1.119315	0.597367	0.499956
C25	C	0.057545	0.152831	-0.000063
C26	C	0.557545	0.652831	0.499937
C27	C	0.130368	0.153908	-0.000072
C28	C	0.630368	0.653908	0.499928
C29	C	0.175302	0.090816	-0.000051
C30	C	0.675302	0.590816	0.499949
C31	C	0.147408	0.026642	-0.000060
C32	C	0.647408	0.526642	0.499940
C33	C	0.074586	0.025568	-0.000067
C34	C	0.574586	0.525568	0.499933
N35	N	0.295974	0.045140	0.083934
N36	N	0.795974	0.545140	0.583934
N37	N	0.365152	0.046166	0.083943
N38	N	0.865152	0.546166	0.583943
C39	C	0.394712	0.094050	-0.000034
C40	C	0.894712	0.594050	0.499966
N41	N	0.352480	0.140881	-0.084003
N42	N	0.852480	0.640881	0.415997
N43	N	0.283296	0.139857	-0.084006
N44	N	0.783296	0.639857	0.415994
C45	C	0.254267	0.091974	-0.000045
C46	C	0.754267	0.591974	0.499955
C47	C	0.501561	0.159386	-0.000045
C48	C	1.001561	0.659386	0.499955
C49	C	0.574385	0.160460	-0.000062
C50	C	1.074385	0.660460	0.499938
C51	C	0.591425	0.033193	-0.000036
C52	C	1.091425	0.533193	0.499964
C53	C	0.518601	0.032121	-0.000033
C54	C	1.018601	0.532121	0.499967
C55	C	0.473673	0.095220	-0.000031
C56	C	0.973673	0.595220	0.499969
C57	C	0.829974	-0.034650	-0.000014
C58	C	1.329974	0.465350	0.499986
C59	C	0.828833	-0.112154	-0.000002
C60	C	1.328833	0.387846	0.499998
C61	C	0.891924	-0.157079	0.000005
C62	C	1.391924	0.342921	0.500005
C63	C	0.890852	-0.229903	-0.000019
C64	C	1.390852	0.270097	0.499981
C65	C	0.826686	-0.257799	-0.000019
C66	C	1.326686	0.242201	0.499981
C67	C	0.763587	-0.212864	-0.000034
C68	C	1.263587	0.287136	0.499966
C69	C	0.764660	-0.140041	-0.000025
C70	C	1.264660	0.359959	0.499975
N71	N	0.777633	-0.365802	0.083931
N72	N	1.277633	0.134198	0.583931
N73	N	0.776618	-0.434980	0.083926
N74	N	1.276618	0.065020	0.583926
C75	C	0.823448	-0.477207	-0.000049
C76	C	1.323448	0.022793	0.499951
N77	N	0.871343	-0.447643	-0.084001
N78	N	1.371343	0.052357	0.415999
N79	N	0.872360	-0.378459	-0.083989
N80	N	1.372360	0.121541	0.416011
C81	C	0.825515	-0.336761	-0.000030
C82	C	1.325515	0.163239	0.499970
C83	C	0.885381	-0.601097	-0.000071
C84	C	1.385381	-0.101097	0.499929
C85	C	0.884307	-0.673922	-0.000104
C86	C	1.384307	-0.173922	0.499896
C87	C	0.757040	-0.656880	-0.000104
C88	C	1.257040	-0.156880	0.499896
C89	C	0.758116	-0.584057	-0.000086
C90	C	1.258116	-0.084057	0.499914
C91	C	0.822289	-0.556170	-0.000062
C92	C	1.322289	-0.056170	0.499938
C93	C	0.952154	0.087527	-0.000052
C94	C	1.452154	0.587527	0.499948
C95	C	1.029658	0.088666	-0.000064
C96	C	1.529658	0.588666	0.499936
C97	C	0.819000	0.220684	-0.000084
C98	C	1.319000	0.720684	0.499916
C99	C	0.820140	0.298188	-0.000106
C100	C	1.320140	0.798188	0.499894
N101	N	0.824469	0.093020	0.351003
N102	N	1.324469	0.593020	0.851003
N103	N	0.824509	0.093008	-0.351098
N104	N	1.324509	0.593008	0.148902
C105	C	0.766780	0.150350	0.586021
C106	C	1.266780	0.650350	1.086021
C107	C	0.766903	0.150561	0.414129
C108	C	1.266903	0.650561	0.914129
C109	C	0.897274	0.108709	0.413335
C110	C	1.397274	0.608709	0.913335
C111	C	0.896958	0.109114	0.585280
C112	C	1.396958	0.609114	1.085280
C113	C	0.810082	0.019807	0.585568
C114	C	1.310082	0.519807	1.085568
C115	C	0.808401	0.020302	0.413613
C116	C	1.308401	0.520302	0.913613
H117	H	0.464978	0.210765	-0.000045
H118	H	0.964978	0.710765	0.499955
F119	F	0.960223	-0.127404	-0.000002
F120	F	1.460223	0.372596	0.499998
H121	H	0.754846	0.008391	0.372876
H122	H	1.254846	0.508391	0.872876
H123	H	0.712484	0.141191	0.627418
H124	H	1.212484	0.641191	1.127418
F125	F	0.742207	0.000025	0.642321
F126	F	1.242207	0.500025	1.142321
H127	H	0.020968	0.204211	-0.000068
H128	H	0.520968	0.704211	0.499932
H129	H	0.909706	0.162493	0.625353
H130	H	1.409706	0.662493	1.125353
H131	H	0.183999	-0.024728	-0.000048
H132	H	0.683999	0.475272	0.499952
F133	F	0.954729	0.056531	0.639650
F134	F	1.454729	0.556531	1.139650
F135	F	0.859812	-0.038062	0.357472
F136	F	1.359812	0.461938	0.857472
H137	H	0.597088	0.212713	-0.000074
H138	H	1.097088	0.712713	0.499926
F139	F	0.690965	-0.536242	-0.000087
F140	F	1.190965	-0.036242	0.499913
H141	H	0.942230	-0.266488	-0.000019
H142	H	1.442230	0.233512	0.499981
H143	H	0.711342	-0.235581	-0.000038
H144	H	1.211342	0.264419	0.499962
F145	F	0.865111	-0.035966	0.638717
F146	F	1.365111	0.464034	1.138717
H147	H	0.713282	-0.103462	-0.000030
H148	H	1.213282	0.396538	0.499970
F149	F	0.953679	-0.571415	-0.000038
F150	F	1.453679	-0.071415	0.499962
F151	F	0.160054	0.222204	-0.000068
F152	F	0.660054	0.722204	0.499932
H153	H	0.712779	0.141246	0.371989
H154	H	1.212779	0.641246	0.871989
F155	F	0.044907	-0.042728	-0.000072
F156	F	0.544907	0.457272	0.499928
H157	H	0.935686	-0.710500	-0.000106
H158	H	1.435686	-0.210500	0.499894
H159	H	0.628010	-0.018178	-0.000030
H160	H	1.128010	0.481822	0.499970
F161	F	0.778630	0.220962	0.642431
F162	F	1.278630	0.720962	1.142431
H163	H	0.941246	0.068047	0.372441
H164	H	1.441246	0.568047	0.872441
H165	H	0.910328	0.161479	0.370242
H166	H	1.410328	0.661479	0.870242
F167	F	0.688749	-0.686564	-0.000112
F168	F	1.188749	-0.186564	0.499888
F169	F	0.488921	-0.036173	-0.000038
F170	F	0.988921	0.463827	0.499962
H171	H	0.776089	0.204888	0.372967
H172	H	1.276089	0.704888	0.872967
