data_functionalizedCrystal
_audit_creation_method	'MofGen! by Chris Wilmer'
_symmetry_space_group_name_H-M	'P1'
_symmetry_Int_Tables_number	1
_symmetry_cell_setting	triclinic
loop_
_symmetry_equiv_pos_as_xyz
  x,y,z
_cell_length_a	14.971486
_cell_length_b	19.188930
_cell_length_c	13.448316
_cell_angle_alpha	90.012380
_cell_angle_beta	89.996448
_cell_angle_gamma	83.379455
loop_
_atom_site_label
_atom_site_type_symbol
_atom_site_fract_x
_atom_site_fract_y
_atom_site_fract_z
O1	O	1.186460	0.090989	0.082589
O2	O	1.686460	0.590989	0.582589
O3	O	0.926002	0.101885	0.082618
O4	O	1.426002	0.601885	0.582618
O5	O	1.063747	-0.005194	0.082583
O6	O	1.563747	0.494806	0.582583
O7	O	1.048715	0.198069	0.082624
O8	O	1.548715	0.698069	0.582624
O9	O	1.063744	-0.005203	-0.082801
O10	O	1.563744	0.494797	0.417199
O11	O	0.925999	0.101876	-0.082766
O12	O	1.425999	0.601876	0.417234
O13	O	1.186457	0.090980	-0.082795
O14	O	1.686457	0.590980	0.417205
Cu15	Cu	1.056228	0.096427	-0.097881
Cu16	Cu	1.556228	0.596427	0.402119
Cu17	Cu	1.056231	0.096438	0.097704
Cu18	Cu	1.556231	0.596438	0.597704
O19	O	1.048712	0.198060	-0.082760
O20	O	1.548712	0.698060	0.417240
C21	C	0.892678	0.101393	-0.000071
C22	C	1.392678	0.601393	0.499929
C23	C	0.793389	0.099933	-0.000061
C24	C	1.293389	0.599933	0.499939
C25	C	0.735831	0.162839	-0.000050
C26	C	1.235831	0.662839	0.499950
C27	C	0.642539	0.161463	-0.000065
C28	C	1.142539	0.661463	0.499935
C29	C	0.606806	0.097180	-0.000084
C30	C	1.106806	0.597180	0.499916
C31	C	0.664371	0.034269	-0.000098
C32	C	1.164371	0.534269	0.499902
C33	C	0.757662	0.035646	-0.000090
C34	C	1.257662	0.535646	0.499910
C35	C	0.469924	0.031403	-0.000112
C36	C	0.969924	0.531403	0.499888
C37	C	0.376627	0.030026	-0.000119
C38	C	0.876627	0.530026	0.499881
C39	C	0.354801	0.157221	-0.000087
C40	C	0.854801	0.657221	0.499913
C41	C	0.448092	0.158598	-0.000079
C42	C	0.948092	0.658598	0.499921
C43	C	0.505650	0.095686	-0.000091
C44	C	1.005650	0.595686	0.499909
C45	C	1.063259	-0.031211	-0.000112
C46	C	1.563259	0.468789	0.499888
C47	C	1.061797	-0.108721	-0.000120
C48	C	1.561797	0.391279	0.499880
C49	C	1.142622	-0.153384	-0.000134
C50	C	1.642622	0.346616	0.499866
C51	C	1.141249	-0.226213	-0.000118
C52	C	1.641249	0.273787	0.499882
C53	C	1.059047	-0.254374	-0.000108
C54	C	1.559047	0.245626	0.499892
C55	C	0.978212	-0.209700	-0.000089
C56	C	1.478212	0.290300	0.499911
C57	C	0.979587	-0.136874	-0.000095
C58	C	1.479587	0.363126	0.499905
N59	N	0.996213	-0.362584	-0.056384
N60	N	1.496213	0.137416	0.443616
N61	N	0.994912	-0.431767	-0.056381
N62	N	1.494912	0.068233	0.443619
C63	C	1.054899	-0.473796	-0.000087
C64	C	1.554899	0.026204	0.499913
N65	N	1.116249	-0.444030	0.056190
N66	N	1.616249	0.055970	0.556190
N67	N	1.117553	-0.374841	0.056182
N68	N	1.617553	0.125159	0.556182
C69	C	1.057547	-0.333341	-0.000101
C70	C	1.557547	0.166659	0.499899
C71	C	1.134240	-0.597429	-0.000082
C72	C	1.634240	-0.097429	0.499918
C73	C	1.132864	-0.670258	-0.000060
C74	C	1.632864	-0.170258	0.499940
C75	C	0.969825	-0.653744	-0.000041
C76	C	1.469825	-0.153744	0.499959
C77	C	0.971203	-0.580916	-0.000053
C78	C	1.471203	-0.080916	0.499947
C79	C	1.053413	-0.552763	-0.000078
C80	C	1.553413	-0.052763	0.499922
C81	C	1.219780	0.091472	-0.000104
C82	C	1.719780	0.591472	0.499896
C83	C	1.319070	0.092932	-0.000107
C84	C	1.819070	0.592932	0.499893
C85	C	1.049200	0.224077	-0.000063
C86	C	1.549200	0.724077	0.499937
C87	C	1.050661	0.301586	-0.000048
C88	C	1.550661	0.801586	0.499952
N89	N	1.056234	0.096441	0.235268
N90	N	1.556234	0.596441	0.735268
N91	N	1.056232	0.096419	-0.235446
N92	N	1.556232	0.596419	0.264554
C93	C	1.117341	0.049119	0.287294
C94	C	1.617341	0.549119	0.787294
C95	C	1.117344	0.049117	0.391397
C96	C	1.617344	0.549117	0.891397
C97	C	1.056237	0.096434	0.443473
C98	C	1.556237	0.596434	0.943473
C99	C	0.995127	0.143760	0.391441
C100	C	1.495127	0.643760	0.891441
C101	C	0.995128	0.143765	0.287339
C102	C	1.495128	0.643765	0.787339
C103	C	0.995128	0.143746	0.608421
C104	C	1.495128	0.643746	1.108421
C105	C	0.995125	0.143740	0.712529
C106	C	1.495125	0.643740	1.212529
C107	C	1.117344	0.049098	0.712478
C108	C	1.617344	0.549098	1.212478
C109	C	1.117345	0.049103	0.608377
C110	C	1.617345	0.549103	1.108377
C111	C	1.056234	0.096429	0.556352
C112	C	1.556234	0.596429	1.056352
H113	H	0.635271	-0.018072	-0.000128
H114	H	1.135271	0.481928	0.499872
H115	H	1.209564	-0.130467	-0.000151
H116	H	1.709564	0.369533	0.499849
H117	H	0.595679	0.212688	-0.000055
H118	H	1.095679	0.712688	0.499945
C119	C	1.221775	-0.719389	-0.000076
C120	C	1.721775	-0.219389	0.499924
H121	H	1.270929	-0.692188	-0.000102
H122	H	1.770929	-0.192188	0.499898
H123	H	1.224637	-0.748131	0.057599
H124	H	1.724637	-0.248131	0.557599
H125	H	1.224618	-0.748152	-0.057755
H126	H	1.724618	-0.248152	0.442245
C127	C	0.487397	0.229307	-0.000060
C128	C	0.987397	0.729307	0.499940
H129	H	0.439758	0.266578	-0.000064
H130	H	0.939758	0.766578	0.499936
H131	H	0.523331	0.232491	0.057614
H132	H	1.023331	0.732491	0.557614
H133	H	0.523341	0.232480	-0.057739
H134	H	1.023341	0.732480	0.442261
C135	C	0.879404	-0.684712	-0.000027
C136	C	1.379404	-0.184712	0.499973
H137	H	0.890160	-0.734483	-0.000030
H138	H	1.390160	-0.234483	0.499970
H139	H	0.846137	-0.669372	0.057648
H140	H	1.346137	-0.169372	0.557648
H141	H	0.846136	-0.669398	-0.057705
H142	H	1.346136	-0.169398	0.442295
H143	H	0.913768	-0.100507	-0.000084
H144	H	1.413768	0.399493	0.499916
C145	C	1.184595	-0.002935	0.769701
C146	C	1.684595	0.497065	1.269701
H147	H	1.175860	0.003850	0.839158
H148	H	1.675860	0.503850	1.339158
H149	H	1.175208	-0.049577	0.752641
H150	H	1.675208	0.450423	1.252641
H151	H	1.244217	0.004840	0.752620
H152	H	1.744217	0.504840	1.252620
H153	H	0.905387	-0.544550	-0.000048
H154	H	1.405387	-0.044550	0.499952
C155	C	1.224665	-0.566457	-0.000098
C156	C	1.724665	-0.066457	0.499902
H157	H	1.272607	-0.603491	-0.000090
H158	H	1.772607	-0.103491	0.499910
H159	H	1.228591	-0.538404	-0.057776
H160	H	1.728591	-0.038404	0.442224
H161	H	1.228590	-0.538378	0.057577
H162	H	1.728590	-0.038378	0.557577
C163	C	0.887793	-0.240674	-0.000082
C164	C	1.387793	0.259326	0.499918
H165	H	0.898549	-0.290445	-0.000090
H166	H	1.398549	0.209555	0.499910
H167	H	0.854524	-0.225338	0.057595
H168	H	1.354524	0.274662	0.557595
H169	H	0.854525	-0.225356	-0.057759
H170	H	1.354525	0.274644	0.442241
C171	C	0.337322	-0.040684	-0.000145
C172	C	0.837322	0.459316	0.499855
H173	H	0.384961	-0.077954	-0.000165
H174	H	0.884961	0.422046	0.499835
H175	H	0.301377	-0.043864	0.057524
H176	H	0.801377	0.456136	0.557524
H177	H	0.301389	-0.043860	-0.057829
H178	H	0.801389	0.456140	0.442171
C179	C	0.820979	-0.033549	-0.000101
C180	C	1.320979	0.466451	0.499899
H181	H	0.881657	-0.023523	-0.000104
H182	H	1.381657	0.476477	0.499896
H183	H	0.810171	-0.059905	0.057563
H184	H	1.310171	0.440095	0.557563
H185	H	0.810180	-0.059904	-0.057791
H186	H	1.310180	0.440096	0.442209
H187	H	1.167098	0.010586	0.244900
H188	H	1.667098	0.510586	0.744900
C189	C	1.230159	-0.275352	-0.000140
C190	C	1.730159	0.224648	0.499860
H191	H	1.279316	-0.248154	-0.000161
H192	H	1.779316	0.251846	0.499839
H193	H	1.233018	-0.304097	0.057532
H194	H	1.733018	0.195903	0.557532
H195	H	1.232999	-0.304111	-0.057821
H196	H	1.732999	0.195889	0.442179
H197	H	1.167102	0.010585	0.433755
H198	H	1.667102	0.510585	0.933755
H199	H	0.945375	0.182290	0.433847
H200	H	1.445375	0.682290	0.933847
C201	C	1.184563	-0.002942	0.551094
C202	C	1.684563	0.497058	1.051094
H203	H	1.220964	-0.031124	0.596986
H204	H	1.720964	0.468876	1.096986
H205	H	1.152584	-0.032098	0.510471
H206	H	1.652584	0.467902	1.010471
H207	H	1.221626	0.022293	0.510497
H208	H	1.721626	0.522293	1.010497
C209	C	0.927917	0.195794	0.769812
C210	C	1.427917	0.695794	1.269812
H211	H	0.891532	0.223988	0.723920
H212	H	1.391532	0.723988	1.223920
H213	H	0.890851	0.170572	0.810415
H214	H	1.390851	0.670572	1.310415
H215	H	0.959914	0.224947	0.810430
H216	H	1.459914	0.724947	1.310430
C217	C	0.927879	0.195781	0.551195
C218	C	1.427879	0.695781	1.051195
H219	H	0.891470	0.223949	0.597117
H220	H	1.391470	0.723949	1.097117
H221	H	0.959829	0.224952	0.510576
H222	H	1.459829	0.724952	1.010576
H223	H	0.890827	0.170530	0.510596
H224	H	1.390827	0.670530	1.010596
C225	C	0.291491	0.226422	-0.000077
C226	C	0.791491	0.726422	0.499923
H227	H	0.230813	0.216397	-0.000095
H228	H	0.730813	0.716397	0.499905
H229	H	0.302287	0.252778	0.057606
H230	H	0.802287	0.752778	0.557606
H231	H	0.302305	0.252777	-0.057747
H232	H	0.802305	0.752777	0.442253
H233	H	0.516787	-0.019826	-0.000124
H234	H	1.016787	0.480174	0.499876
C235	C	0.927913	0.195817	0.230107
C236	C	1.427913	0.695817	0.730107
H237	H	0.936671	0.189048	0.160650
H238	H	1.436671	0.689048	0.660650
H239	H	0.868281	0.188070	0.247165
H240	H	1.368281	0.688070	0.747165
H241	H	0.937335	0.242452	0.247188
H242	H	1.437335	0.742452	0.747188
C243	C	0.775129	0.233552	-0.000028
C244	C	1.275129	0.733552	0.499972
H245	H	0.727485	0.270819	-0.000033
H246	H	1.227485	0.770819	0.499967
H247	H	0.811061	0.236738	0.057648
H248	H	1.311061	0.736738	0.557648
H249	H	0.811074	0.236729	-0.057705
H250	H	1.311074	0.736729	0.442295
