data_functionalizedCrystal
_audit_creation_method	'MofGen! by Chris Wilmer'
_symmetry_space_group_name_H-M	'P1'
_symmetry_Int_Tables_number	1
_symmetry_cell_setting	triclinic
loop_
_symmetry_equiv_pos_as_xyz
  x,y,z
_cell_length_a	20.875641
_cell_length_b	18.426585
_cell_length_c	20.875641
_cell_angle_alpha	90.001073
_cell_angle_beta	60.089808
_cell_angle_gamma	62.441129
loop_
_atom_site_label
_atom_site_type_symbol
_atom_site_fract_x
_atom_site_fract_y
_atom_site_fract_z
Zr1	Zr	0.694373	0.732332	-0.105787
O2	O	0.820610	0.625982	-0.209049
O3	O	0.563119	0.760955	-0.070856
O4	O	0.687143	0.771643	-0.204329
O5	O	0.704039	0.611391	0.025983
O6	O	0.687147	0.891069	-0.204332
O7	O	0.696586	0.615295	-0.075577
O8	O	0.465291	0.871951	0.034426
O9	O	0.925895	0.630508	-0.212775
O10	O	0.618967	0.867097	-0.059918
O11	O	0.624526	0.775057	0.015876
O12	O	0.770548	0.787640	-0.141270
O13	O	0.776107	0.695600	-0.065476
Zr14	Zr	0.706267	0.916577	0.056184
Zr15	Zr	0.694380	0.922803	-0.105792
Zr16	Zr	0.706260	0.726106	0.056188
Zr17	Zr	0.862291	0.739552	-0.111730
Zr18	Zr	0.538349	0.909358	0.062126
O19	O	0.837521	0.887954	0.021253
O20	O	0.820619	0.896807	-0.209055
O21	O	0.837512	0.617129	0.021259
O22	O	0.580031	1.022927	0.159445
O23	O	0.563129	1.031781	-0.070863
O24	O	0.580021	0.752102	0.159451
O25	O	0.696601	1.037519	-0.075586
O26	O	0.713498	0.877267	0.154725
O27	O	0.713493	0.757841	0.154728
O28	O	0.704054	1.033615	0.025973
O29	O	0.925900	0.781907	-0.212779
O30	O	0.474740	0.867002	0.163175
O31	O	0.474745	1.018401	0.163171
O32	O	0.465297	1.023350	0.034423
O33	O	0.935344	0.625559	-0.084026
O34	O	0.935349	0.776958	-0.084030
O35	O	0.630092	0.861270	0.091667
O36	O	0.624533	0.953310	0.015872
O37	O	0.776114	0.873853	-0.065480
O38	O	0.781673	0.781813	0.010315
C39	C	0.490280	0.815425	-0.017368
C40	C	0.418995	0.812360	-0.014846
C41	C	0.700312	0.586205	-0.024796
C42	C	0.700309	0.505345	-0.024795
C43	C	0.382603	0.858962	-0.053224
C44	C	0.315618	0.856084	-0.050847
C45	C	0.285031	0.806599	-0.010094
C46	C	0.321426	0.759996	0.028289
C47	C	0.388405	0.762879	0.025916
C48	C	0.085020	0.792829	0.001252
C49	C	0.018037	0.789948	0.003621
C50	C	0.012233	0.886037	-0.075515
C51	C	0.079217	0.888912	-0.077888
C52	C	0.115603	0.842312	-0.039502
N53	N	0.216564	0.803654	-0.007665
N54	N	0.184065	0.845263	-0.041927
C55	C	0.700335	0.209232	-0.024809
C56	C	0.700331	0.291617	-0.024807
C57	C	0.700322	0.357285	-0.024802
C58	C	0.700318	0.439677	-0.024799
C59	C	0.910360	0.833485	-0.032235
C60	C	0.981645	0.836549	-0.034758
C61	C	0.685451	0.832243	-0.227408
C62	C	0.680405	0.834886	-0.296171
C63	C	0.700329	1.062705	-0.024807
C64	C	0.700332	1.143565	-0.024809
C65	C	0.757156	0.794654	-0.370941
C66	C	0.752409	0.797149	-0.435548
C67	C	0.670910	0.839871	-0.425384
C68	C	0.594154	0.880109	-0.350606
C69	C	0.598901	0.877619	-0.286001
C70	C	0.648227	0.851771	-0.614050
C71	C	0.643485	0.854256	-0.678663
C72	C	0.801740	0.771296	-0.763601
C73	C	0.806481	0.768806	-0.698990
C74	C	0.729724	0.809047	-0.624218
N75	N	0.666056	0.842420	-0.491421
N76	N	0.734579	0.806503	-0.558182
C77	C	0.715189	0.816666	0.177804
C78	C	0.720236	0.814023	0.246567
C79	C	0.490289	1.053675	-0.017374
C80	C	0.419006	1.131470	-0.014853
C81	C	0.505149	0.807636	0.185238
C82	C	0.438910	0.801928	0.256523
C83	C	0.505158	1.045887	0.185232
C84	C	0.438922	1.121039	0.256516
C85	C	0.895482	0.603023	-0.234836
C86	C	0.961719	0.527871	-0.306120
C87	C	0.910351	0.595235	-0.032230
C88	C	0.981634	0.517439	-0.034751
C89	C	0.895491	0.841273	-0.234842
C90	C	0.961730	0.846981	-0.306127
C91	C	0.382626	1.123002	-0.053238
C92	C	0.315656	1.196092	-0.050884
C93	C	0.285064	1.277650	-0.010141
C94	C	0.321452	1.286117	0.028244
C95	C	0.388424	1.213028	0.025886
C96	C	0.410709	0.844250	0.329569
C97	C	0.348480	0.838883	0.396555
C98	C	0.314449	0.791200	0.390494
C99	C	0.342656	0.748874	0.317441
C100	C	0.404888	0.754235	0.250457
C101	C	0.404915	1.204383	0.250428
C102	C	0.342687	1.275004	0.317400
C103	C	0.314464	1.262279	0.390460
C104	C	0.348478	1.178926	0.396546
C105	C	0.410708	1.108307	0.329575
C106	C	0.995734	0.444527	-0.300032
C107	C	1.057982	0.373907	-0.367005
C108	C	1.086209	0.386632	-0.440065
C109	C	1.052191	0.469985	-0.446151
C110	C	0.989949	0.540603	-0.379179
C111	C	1.018021	0.525908	0.003627
C112	C	1.085008	0.452819	0.001255
C113	C	1.115602	0.371262	-0.039490
C114	C	1.079211	0.362794	-0.077873
C115	C	1.012230	0.435883	-0.075505
C116	C	0.995742	0.894672	-0.300042
C117	C	1.057972	0.900052	-0.367016
C118	C	1.086194	0.857735	-0.440074
C119	C	1.052176	0.810043	-0.446158
C120	C	0.989942	0.804669	-0.379185
H121	H	0.285988	0.894031	-0.082097
O122	O	0.432192	1.216906	0.179524
C123	C	0.388774	1.305615	0.188529
H124	H	0.365485	1.342734	0.247123
H125	H	0.435571	1.320149	0.140363
H126	H	0.330159	1.325694	0.185384
H127	H	0.962253	0.608464	-0.384145
O128	O	0.291858	1.365333	0.067728
C129	C	0.361187	1.379281	0.036141
H130	H	0.413706	1.335946	-0.026179
H131	H	0.335630	1.449250	0.037153
H132	H	0.390284	1.363928	0.071905
H133	H	0.314938	0.710050	0.312519
H134	H	0.438389	1.040447	0.334543
H135	H	0.585726	0.884539	-0.553176
O136	O	0.432148	0.713109	0.179563
C137	C	0.388774	0.669862	0.188588
H138	H	0.325128	0.701220	0.248653
H139	H	0.373811	0.673656	0.142673
H140	H	0.432310	0.599741	0.181737
H141	H	1.170143	0.311755	-0.041412
H142	H	1.085664	0.938886	-0.362047
O143	O	0.885595	0.727425	-0.708762
C144	C	0.893093	0.786011	-0.673946
H145	H	0.825106	0.842498	-0.627400
H146	H	0.929907	0.752643	-0.646480
H147	H	0.930327	0.810265	-0.719802
H148	H	0.536403	0.910380	-0.225120
O149	O	0.309750	1.355984	0.311506
C150	C	0.328688	1.402077	0.345925
H151	H	0.387598	1.355186	0.346843
H152	H	0.343939	1.446141	0.311013
H153	H	0.269842	1.442176	0.407751
O154	O	0.876212	0.732292	-0.836285
C155	C	0.854551	0.743630	-0.891131
H156	H	0.785900	0.802465	-0.863456
H157	H	0.903282	0.753131	-0.942806
H158	H	0.856956	0.684463	-0.911481
O159	O	0.515055	0.921542	-0.340865
C160	C	0.527315	0.915080	-0.413918
H161	H	0.594658	0.856901	-0.459226
H162	H	0.474960	0.907479	-0.411318
H163	H	0.522241	0.975635	-0.430282
H164	H	0.286037	1.189181	-0.082143
O165	O	1.109007	0.283500	-0.117383
C166	C	1.175939	0.220818	-0.111248
H167	H	1.168856	0.247920	-0.057428
H168	H	1.170839	0.161819	-0.106510
H169	H	1.242244	0.202027	-0.164846
O170	O	0.321195	1.166538	0.467500
C171	C	0.393269	1.122409	0.473263
H172	H	0.447213	1.132743	0.430329
H173	H	0.372147	1.147871	0.534600
H174	H	0.418728	1.050931	0.459520
O175	O	0.564240	0.895832	-0.668648
C176	C	0.497513	0.930797	-0.588799
H177	H	0.524094	0.939716	-0.555196
H178	H	0.440805	0.995568	-0.577767
H179	H	0.473681	0.885384	-0.568865
H180	H	0.296513	0.719709	0.061475
O181	O	-0.011710	0.741987	0.043392
C182	C	0.034722	0.701525	0.076813
H183	H	0.063023	0.738830	0.083527
H184	H	-0.011387	0.699860	0.136135
H185	H	0.090076	0.633168	0.037803
O186	O	0.412259	1.043848	-0.092883
C187	C	0.365764	1.052063	-0.126238
H188	H	0.337596	1.118976	-0.133095
H189	H	0.411792	1.001944	-0.185487
H190	H	0.310310	1.041913	-0.087106
H191	H	0.972755	0.434150	-0.240549
H192	H	1.085669	0.306044	-0.362034
H193	H	1.114626	0.459730	0.032514
O194	O	0.976803	0.427594	-0.112678
C195	C	0.940230	0.377912	-0.082219
H196	H	0.924552	0.381081	-0.021202
H197	H	0.877678	0.404066	-0.080107
H198	H	0.988884	0.308418	-0.120716
H199	H	1.136891	0.329122	-0.494591
O200	O	1.079677	0.482185	-0.517183
C201	C	1.141919	0.401977	-0.574980
H202	H	1.132761	0.350187	-0.549394
H203	H	1.132832	0.404474	-0.624614
H204	H	1.210491	0.386413	-0.597670
H205	H	0.263791	1.319789	0.444986
O206	O	0.220032	1.348736	-0.007797
C207	C	0.200805	1.422542	0.036415
H208	H	0.259759	1.407537	0.037312
H209	H	0.184870	1.476646	0.009507
H210	H	0.142241	1.443123	0.098173
H211	H	0.962256	0.765830	-0.384150
H212	H	0.993117	0.592310	0.036811
H213	H	0.972774	0.929131	-0.240560
O214	O	1.146684	0.863016	-0.505052
C215	C	1.170631	0.914202	-0.484004
H216	H	1.156546	0.914603	-0.423712
H217	H	1.243337	0.886821	-0.527493
H218	H	1.131378	0.982572	-0.483787
H219	H	0.438411	0.883079	0.334518
H220	H	0.114634	0.754888	0.032512
O221	O	1.079583	0.769066	-0.517170
C222	C	1.060286	0.829623	-0.556324
H223	H	1.053737	0.889558	-0.531340
H224	H	1.115229	0.800830	-0.620602
H225	H	0.996291	0.847446	-0.548690
O226	O	0.412305	0.907092	-0.092701
C227	C	0.399648	0.969747	-0.041329
H228	H	0.395136	0.947832	0.011039
H229	H	0.457033	0.979044	-0.072138
H230	H	0.336543	1.033028	-0.021348
H231	H	0.418038	1.219935	0.057148
H232	H	0.104120	0.929206	-0.111072
O233	O	0.836375	0.753028	-0.380916
C234	C	0.883341	0.665888	-0.422525
H235	H	0.857393	0.658650	-0.457356
H236	H	0.955565	0.642090	-0.463589
H237	H	0.875045	0.626462	-0.380279
O238	O	-0.023240	0.931285	-0.112725
C239	C	-0.088902	0.918116	-0.101909
H240	H	-0.114272	0.897667	-0.047439
H241	H	-0.144918	0.980275	-0.095382
H242	H	-0.060615	0.865759	-0.154161
O243	O	0.321169	0.879869	0.467525
C244	C	0.340441	0.819331	0.506700
H245	H	0.396063	0.753369	0.462707
H246	H	0.360810	0.838897	0.541784
H247	H	0.280035	0.816774	0.547288
O248	O	0.423839	0.717473	0.063093
C249	C	0.460429	0.629443	0.032648
H250	H	0.476107	0.616152	-0.028367
H251	H	0.522983	0.590045	0.030536
H252	H	0.411786	0.610946	0.071155
H253	H	0.263776	0.786841	0.445044
O254	O	0.827027	0.758127	-0.508139
C255	C	0.876322	0.794805	-0.518193
H256	H	0.857266	0.825634	-0.459207
H257	H	0.948868	0.742712	-0.554829
H258	H	0.862692	0.845726	-0.548670
