data_functionalizedCrystal
_audit_creation_method	'MofGen! by Chris Wilmer'
_symmetry_space_group_name_H-M	'P1'
_symmetry_Int_Tables_number	1
_symmetry_cell_setting	triclinic
loop_
_symmetry_equiv_pos_as_xyz
  x,y,z
_cell_length_a	12.811457
_cell_length_b	12.784890
_cell_length_c	17.766277
_cell_angle_alpha	89.993425
_cell_angle_beta	95.422597
_cell_angle_gamma	78.600178
loop_
_atom_site_label
_atom_site_type_symbol
_atom_site_fract_x
_atom_site_fract_y
_atom_site_fract_z
O1	O	1.379594	0.143094	0.031582
O2	O	1.879594	0.643094	0.531582
O3	O	1.072595	0.158658	0.010624
O4	O	1.572595	0.658658	0.510624
O5	O	1.248561	-0.003753	0.022640
O6	O	1.748561	0.496247	0.522640
O7	O	1.203628	0.305504	0.019565
O8	O	1.703628	0.805504	0.519565
O9	O	1.248534	-0.003762	0.147827
O10	O	1.748534	0.496238	0.647827
O11	O	1.072568	0.158649	0.135810
O12	O	1.572568	0.658649	0.635810
O13	O	1.379567	0.143085	0.156768
O14	O	1.879567	0.643085	0.656768
Cu15	Cu	1.226065	0.150866	0.157720
Cu16	Cu	1.726065	0.650866	0.657720
Cu17	Cu	1.226097	0.150876	0.009672
Cu18	Cu	1.726097	0.650876	0.509672
O19	O	1.203601	0.305496	0.144752
O20	O	1.703601	0.805496	0.644752
C21	C	1.033558	0.157782	0.070553
C22	C	1.533558	0.657782	0.570553
C23	C	0.917280	0.155172	0.062615
C24	C	1.417280	0.655172	0.562615
C25	C	1.251470	-0.043344	0.085432
C26	C	1.751470	0.456656	0.585432
C27	C	1.260165	-0.161300	0.086024
C28	C	1.760165	0.338700	0.586024
C29	C	0.698756	0.150238	0.184193
C30	C	1.198756	0.650238	0.684193
C31	C	0.589503	0.147785	0.176738
C32	C	1.089503	0.647785	0.676738
C33	C	0.589522	0.147806	0.040252
C34	C	1.089522	0.647806	0.540252
C35	C	0.698774	0.150259	0.047707
C36	C	1.198774	0.650259	0.547707
C37	C	0.753387	0.151476	0.119679
C38	C	1.253387	0.651476	0.619679
C39	C	0.862640	0.153937	0.127133
C40	C	1.362640	0.653937	0.627133
C41	C	0.862659	0.153950	-0.009352
C42	C	1.362659	0.653950	0.490648
C43	C	0.753406	0.151497	-0.016807
C44	C	1.253406	0.651497	0.483193
C45	C	1.369142	-0.339795	0.093463
C46	C	1.869142	0.160205	0.593463
C47	C	1.360979	-0.228966	0.092907
C48	C	1.860979	0.271034	0.592907
C49	C	1.167508	-0.204469	0.079699
C50	C	1.667508	0.295531	0.579699
C51	C	1.175671	-0.315298	0.080255
C52	C	1.675671	0.184702	0.580255
C53	C	1.276492	-0.382958	0.087136
C54	C	1.776492	0.117042	0.587136
C55	C	1.284654	-0.493788	0.087686
C56	C	1.784654	0.006212	0.587686
C57	C	1.091184	-0.469289	0.074484
C58	C	1.591184	0.030711	0.574484
C59	C	1.083021	-0.358460	0.073928
C60	C	1.583021	0.141540	0.573928
C61	C	1.418604	0.143961	0.096837
C62	C	1.918604	0.643961	0.596837
C63	C	1.534882	0.146571	0.104770
C64	C	2.034882	0.646571	0.604770
C65	C	1.200692	0.345087	0.081958
C66	C	1.700692	0.845087	0.581958
C67	C	1.191997	0.463042	0.081361
C68	C	1.691997	0.963042	0.581361
N69	N	1.226049	0.150859	0.261849
N70	N	1.726049	0.650859	0.761849
N71	N	1.226122	0.150876	-0.094457
N72	N	1.726122	0.650876	0.405543
C73	C	1.303987	0.078979	0.306558
C74	C	1.803987	0.578979	0.806558
C75	C	1.303994	0.078974	0.385361
C76	C	1.803994	0.578974	0.885361
C77	C	1.226071	0.150867	0.419451
C78	C	1.726071	0.650867	0.919451
C79	C	1.148119	0.222753	0.374731
C80	C	1.648119	0.722753	0.874731
C81	C	1.148109	0.222748	0.295930
C82	C	1.648109	0.722748	0.795930
C83	C	1.203493	0.247570	0.542745
C84	C	1.703493	0.747570	1.042745
C85	C	1.203510	0.247576	0.621545
C86	C	1.703510	0.747576	1.121545
C87	C	1.226098	0.150880	0.662499
C88	C	1.726098	0.650880	1.162499
C89	C	1.248690	0.054175	0.624645
C90	C	1.748690	0.554175	1.124645
C91	C	1.248679	0.054171	0.545844
C92	C	1.748679	0.554171	1.045844
C93	C	1.226073	0.150880	0.504897
C94	C	1.726073	0.650880	1.004897
C95	C	1.304047	0.078989	0.792655
C96	C	1.804047	0.578989	1.292655
C97	C	1.304046	0.078983	0.871458
C98	C	1.804046	0.578983	1.371458
C99	C	1.148176	0.222771	0.860828
C100	C	1.648176	0.722771	1.360828
C101	C	1.148173	0.222768	0.782026
C102	C	1.648173	0.722768	1.282026
C103	C	1.226113	0.150878	0.747945
C104	C	1.726113	0.650878	1.247945
H105	H	0.907103	0.154934	0.185737
H106	H	1.407103	0.654934	0.685737
H107	H	1.451234	-0.394885	0.099055
H108	H	1.951234	0.105115	0.599055
N109	N	0.974284	-0.285483	0.066527
N110	N	1.474284	0.214517	0.566527
H111	H	0.983169	-0.208723	0.067141
H112	H	1.483169	0.291277	0.567141
H113	H	0.933465	-0.299487	0.017334
H114	H	1.433465	0.200513	0.517334
H115	H	1.367449	0.020440	0.278812
H116	H	1.867449	0.520440	0.778812
H117	H	1.367510	0.020444	0.907862
H118	H	1.867510	0.520444	1.407862
N119	N	0.530579	0.146445	0.246321
N120	N	1.030579	0.646445	0.746321
H121	H	0.581918	0.146858	0.293052
H122	H	1.081918	0.646858	0.793052
H123	H	0.471192	0.211585	0.245468
H124	H	0.971192	0.711585	0.745468
N125	N	1.388055	0.001441	0.433596
N126	N	1.888055	0.501441	0.933596
H127	H	1.437426	-0.044102	0.400048
H128	H	1.937426	0.455898	0.900048
H129	H	1.430715	0.042360	0.469189
H130	H	1.930715	0.542360	0.969189
N131	N	0.757664	0.151568	0.261814
N132	N	1.257664	0.651568	0.761814
H133	H	0.706475	0.150418	0.301554
H134	H	1.206475	0.650418	0.801554
H135	H	0.817508	0.086801	0.268874
H136	H	1.317508	0.586801	0.768874
H137	H	1.436424	-0.193829	0.098060
H138	H	1.936424	0.306171	0.598060
H139	H	1.267071	-0.024570	0.515026
H140	H	1.767071	0.475430	1.015026
N141	N	0.694503	0.150194	-0.094433
N142	N	1.194503	0.650194	0.405567
H143	H	0.728035	0.084844	-0.121983
H144	H	1.228035	0.584844	0.378017
H145	H	0.617011	0.148492	-0.089308
H146	H	1.117011	0.648492	0.410692
N147	N	0.991245	-0.515840	0.067652
N148	N	1.491245	-0.015840	0.567652
H149	H	1.011711	-0.596317	0.069045
H150	H	1.511711	-0.096317	0.569045
H151	H	0.947562	-0.491130	0.111078
H152	H	1.447562	0.008870	0.611078
H153	H	1.267082	-0.024563	0.657988
H154	H	1.767082	0.475437	1.157988
H155	H	1.366747	-0.548876	0.093285
H156	H	1.866747	-0.048876	0.593285
H157	H	0.545041	0.146797	-0.018344
H158	H	1.045041	0.646797	0.481656
H159	H	1.367508	0.020449	0.764905
H160	H	1.867508	0.520449	1.264905
N161	N	0.921579	0.155296	-0.078941
N162	N	1.421579	0.655296	0.421059
H163	H	0.999077	0.157039	-0.063300
H164	H	1.499077	0.657039	0.436700
H165	H	0.917004	0.089088	-0.109058
H166	H	1.417004	0.589088	0.390942
N167	N	1.058774	-0.131485	0.072318
N168	N	1.558774	0.368515	0.572318
H169	H	1.067667	-0.054728	0.072940
H170	H	1.567667	0.445272	0.572940
H171	H	1.017933	-0.145472	0.023131
H172	H	1.517933	0.354528	0.523131
H173	H	1.084726	0.281304	0.888584
H174	H	1.584726	0.781304	1.388584
H175	H	1.185121	0.326318	0.652361
H176	H	1.685121	0.826318	1.152361
N177	N	1.064110	0.300295	0.733798
N178	N	1.564110	0.800295	1.233798
H179	H	1.014745	0.345839	0.767349
H180	H	1.514745	0.845839	1.267349
H181	H	1.099973	0.347468	0.703537
H182	H	1.599973	0.847468	1.203537
H183	H	1.185081	0.326316	0.509406
H184	H	1.685081	0.826316	1.009406
H185	H	1.084672	0.281288	0.402492
H186	H	1.584672	0.781288	0.902492
N187	N	1.064041	0.300275	0.247702
N188	N	1.564041	0.800275	0.747702
H189	H	1.014673	0.345817	0.281252
H190	H	1.514673	0.845817	0.781252
H191	H	1.099906	0.347449	0.217444
H192	H	1.599906	0.847449	0.717444
