data_functionalizedCrystal
_audit_creation_method	'MofGen! by Chris Wilmer'
_symmetry_space_group_name_H-M	'P1'
_symmetry_Int_Tables_number	1
_symmetry_cell_setting	triclinic
loop_
_symmetry_equiv_pos_as_xyz
  x,y,z
_cell_length_a	21.395362
_cell_length_b	12.759399
_cell_length_c	21.395355
_cell_angle_alpha	89.989355
_cell_angle_beta	90.043940
_cell_angle_gamma	89.968588
loop_
_atom_site_label
_atom_site_type_symbol
_atom_site_fract_x
_atom_site_fract_y
_atom_site_fract_z
Zn1	Zn	0.957926	0.417943	0.354620
Zn2	Zn	1.457926	0.917943	0.854620
Zn3	Zn	0.957856	0.593607	0.249857
Zn4	Zn	1.457856	1.093607	0.749857
Zn5	Zn	0.853140	0.417992	0.249821
Zn6	Zn	1.353140	0.917992	0.749821
Zn7	Zn	0.853137	0.593629	0.354562
Zn8	Zn	1.353137	1.093629	0.854562
O9	O	0.905515	0.505793	0.302215
O10	O	1.405515	1.005793	0.802215
O11	O	1.045594	0.441215	0.340762
O12	O	1.545594	0.941215	0.840762
O13	O	0.943937	0.570323	0.162174
O14	O	1.443937	1.070323	0.662174
O15	O	0.867071	0.270964	0.263732
O16	O	1.367071	0.770964	0.763732
O17	O	1.045543	0.570275	0.263793
O18	O	1.545543	1.070275	0.763793
O19	O	0.944056	0.270928	0.340728
O20	O	1.444056	0.770928	0.840728
O21	O	0.867003	0.441299	0.162148
O22	O	1.367003	0.941299	0.662148
O23	O	0.765462	0.441320	0.263676
O24	O	1.265462	0.941320	0.763676
O25	O	0.867066	0.570312	0.442247
O26	O	1.367066	1.070312	0.942247
O27	O	0.765460	0.570360	0.340628
O28	O	1.265460	1.070360	0.840628
O29	O	0.944053	0.441236	0.442290
O30	O	1.444053	0.941236	0.942290
O31	O	0.943934	0.740631	0.263737
O32	O	1.443934	1.240631	0.763737
O33	O	0.866998	0.740647	0.340663
O34	O	1.366998	1.240647	0.840663
C35	C	0.742727	0.505848	0.302142
C36	C	1.242727	1.005848	0.802142
C37	C	0.673086	0.505897	0.302126
C38	C	1.173086	1.005897	0.802126
C39	C	0.905475	0.778760	0.302211
C40	C	1.405475	1.278760	0.802211
C41	C	0.905516	0.895537	0.302230
C42	C	1.405516	1.395537	0.802230
C43	C	0.640388	0.573177	0.342135
C44	C	1.140388	1.073177	0.842135
C45	C	0.574953	0.573152	0.342163
C46	C	1.074953	1.073152	0.842163
C47	C	0.542218	0.505857	0.302171
C48	C	1.042218	1.005857	0.802171
C49	C	0.574923	0.438564	0.262159
C50	C	1.074923	0.938564	0.762159
C51	C	0.640357	0.438584	0.262136
C52	C	1.140357	0.938584	0.762136
C53	C	0.438492	0.497393	0.245765
C54	C	0.938492	0.997393	0.745765
C55	C	0.373059	0.497380	0.245786
C56	C	0.873059	0.997380	0.745786
C57	C	0.340397	0.505788	0.302240
C58	C	0.840397	1.005788	0.802240
C59	C	0.373176	0.514231	0.358674
C60	C	0.873176	1.014231	0.858674
C61	C	0.438610	0.514251	0.358652
C62	C	0.938610	1.014251	0.858652
C63	C	0.471265	0.505827	0.302191
C64	C	0.971265	1.005827	0.802191
C65	C	0.236746	0.573044	0.342282
C66	C	0.736746	1.073044	0.842282
C67	C	0.171310	0.573011	0.342311
C68	C	0.671310	1.073011	0.842311
C69	C	0.171282	0.438428	0.262302
C70	C	0.671282	0.938428	0.762302
C71	C	0.236717	0.438456	0.262278
C72	C	0.736717	0.938456	0.762278
C73	C	0.269446	0.505769	0.302268
C74	C	0.769446	1.005769	0.802268
C75	C	0.945620	0.950355	0.262221
C76	C	1.445620	1.450355	0.762221
C77	C	0.945658	1.060079	0.262244
C78	C	1.445658	1.560079	0.762244
C79	C	0.865481	1.060156	0.342287
C80	C	1.365481	1.560156	0.842287
C81	C	0.865447	0.950434	0.342267
C82	C	1.365447	1.450434	0.842267
C83	C	0.985689	0.895458	0.222184
C84	C	1.485689	1.395458	0.722184
C85	C	1.025796	0.950277	0.182171
C86	C	1.525796	1.450277	0.682171
C87	C	1.025834	1.060001	0.182194
C88	C	1.525834	1.560001	0.682194
C89	C	0.985764	1.114906	0.222230
C90	C	1.485764	1.614906	0.722230
C91	C	1.068938	0.505738	0.302288
C92	C	1.568938	1.005738	0.802288
C93	C	1.138579	0.505714	0.302319
C94	C	1.638579	1.005714	0.802319
C95	C	0.905567	0.505771	0.465638
C96	C	1.405567	1.005771	0.965638
C97	C	0.905589	0.505762	0.535279
C98	C	1.405589	1.005762	1.035279
C99	C	0.905569	1.231759	0.302241
C100	C	1.405569	1.731759	0.802241
C101	C	0.905587	1.114983	0.302273
C102	C	1.405587	1.614983	0.802273
C103	C	0.905499	0.505738	0.139427
C104	C	1.405499	1.005738	0.639427
C105	C	0.905598	0.505451	0.069786
C106	C	1.405598	1.005451	0.569786
C107	C	0.945675	0.438550	0.568016
C108	C	1.445675	0.938550	1.068016
C109	C	0.945674	0.438504	0.633451
C110	C	1.445674	0.938504	1.133451
C111	C	0.905594	0.505691	0.666148
C112	C	1.405594	1.005691	1.166148
C113	C	0.865500	0.572908	0.633404
C114	C	1.365500	1.072908	1.133404
C115	C	0.865498	0.572944	0.567969
C116	C	1.365498	1.072944	1.067969
C117	C	0.900633	0.600292	0.769819
C118	C	1.400633	1.100292	1.269819
C119	C	0.900640	0.600258	0.835252
C120	C	1.400640	1.100258	1.335252
C121	C	0.905598	0.505580	0.867969
C122	C	1.405598	1.005580	1.367969
C123	C	0.910562	0.410932	0.835244
C124	C	1.410562	0.910932	1.335244
C125	C	0.910560	0.410968	0.769810
C126	C	1.410560	0.910968	1.269810
C127	C	0.905592	0.505659	0.737100
C128	C	1.405592	1.005659	1.237100
C129	C	0.945685	0.438312	0.971658
C130	C	1.445685	0.938312	1.471658
C131	C	0.945679	0.438265	1.037094
C132	C	1.445679	0.938265	1.537094
C133	C	0.865509	0.572678	1.037045
C134	C	1.365509	1.072678	1.537045
C135	C	0.865511	0.572716	0.971610
C136	C	1.365511	1.072716	1.471610
C137	C	0.905602	0.505534	0.938920
C138	C	1.405602	1.005534	1.438920
H139	H	0.667031	0.627988	0.374699
H140	H	1.167031	1.127988	0.874699
H141	H	0.832873	0.627454	0.944956
H142	H	1.332873	1.127454	1.444956
H143	H	0.832790	0.905800	0.374847
H144	H	1.332790	1.405800	0.874847
O145	O	0.337709	0.488268	0.184920
O146	O	0.837709	0.988268	0.684920
H147	H	0.350211	0.554988	0.154079
H148	H	0.850211	1.054988	0.654079
H149	H	0.263340	0.383674	0.229695
H150	H	0.763340	0.883674	0.729695
O151	O	0.985641	0.777114	0.222163
O152	O	1.485641	1.277114	0.722163
H153	H	1.032880	0.748072	0.234880
H154	H	1.532880	1.248072	0.734880
O155	O	0.675632	0.366020	0.218980
O156	O	1.175632	0.866020	0.718980
H157	H	0.705389	0.412982	0.187052
H158	H	1.205389	0.912982	0.687052
O159	O	0.473713	0.488321	0.184869
O160	O	0.973713	0.988321	0.684869
H161	H	0.524720	0.489742	0.194333
H162	H	1.024720	0.989742	0.694333
H163	H	0.548266	0.383770	0.229598
H164	H	1.048266	0.883770	0.729598
O165	O	1.069025	0.891068	0.139002
O166	O	1.569025	1.391068	0.639002
H167	H	1.062262	0.805561	0.145706
H168	H	1.562262	1.305561	0.645706
H169	H	0.896428	0.677371	0.743187
H170	H	1.396428	1.177371	1.243187
H171	H	0.978321	0.383527	1.063747
H172	H	1.478321	0.883527	1.563747
O173	O	0.985806	1.233252	0.222258
O174	O	1.485806	1.733252	0.722258
H175	H	0.938563	1.262280	0.209546
H176	H	1.438563	1.762280	0.709546
O177	O	1.069089	1.119133	0.139041
O178	O	1.569089	1.619133	0.639041
H179	H	1.096940	1.062522	0.111196
H180	H	1.596940	1.562522	0.611196
H181	H	0.832869	0.627372	1.063666
H182	H	1.332869	1.127372	1.563666
H183	H	0.832857	1.104869	0.374882
H184	H	1.332857	1.604869	0.874882
H185	H	0.144688	0.627796	0.374895
H186	H	0.644688	1.127796	0.874895
H187	H	0.978319	0.383844	0.541404
H188	H	1.478319	0.883844	1.041404
O189	O	0.988915	0.366018	0.668773
O190	O	1.488915	0.866018	1.168773
H191	H	1.016795	0.319315	0.635048
H192	H	1.516795	0.819315	1.135048
O193	O	0.915911	0.308895	0.734511
O194	O	1.415911	0.808895	1.234511
H195	H	0.919356	0.243048	0.768248
H196	H	1.419356	0.743048	1.268248
O197	O	0.915893	0.308800	0.870519
O198	O	1.415893	0.808800	1.370519
H199	H	0.915048	0.324669	0.921517
H200	H	1.415048	0.824669	1.421517
O201	O	0.822268	0.645373	0.668663
O202	O	1.322268	1.145373	1.168663
H203	H	0.829008	0.634064	0.719664
H204	H	1.329008	1.134064	1.219664
O205	O	0.337963	0.523283	0.419574
O206	O	0.837963	1.023283	0.919574
H207	H	0.308110	0.594434	0.418528
H208	H	0.808110	1.094434	0.918528
O209	O	0.272054	0.645627	0.385419
O210	O	0.772054	1.145627	0.885419
H211	H	0.238321	0.692395	0.413254
H212	H	0.738321	1.192395	0.913254
O213	O	0.988915	0.365846	0.936392
O214	O	1.488915	0.865846	1.436392
H215	H	1.016782	0.319086	0.970152
H216	H	1.516782	0.819086	1.470152
O217	O	0.895279	0.702333	0.870548
O218	O	1.395279	1.202333	1.370548
H219	H	0.891815	0.768173	0.836807
H220	H	1.391815	1.268173	1.336807
O221	O	0.539673	0.645761	0.385292
O222	O	1.039673	1.145761	0.885292
H223	H	0.573424	0.692587	0.413085
H224	H	1.073424	1.192587	0.913085
O225	O	0.822246	0.645426	0.532663
O226	O	1.322246	1.145426	1.032663
H227	H	0.832963	0.727879	0.545231
H228	H	1.332963	1.227879	1.045231
O229	O	0.473968	0.523335	0.419515
O230	O	0.973968	1.023335	0.919515
H231	H	0.440269	0.529169	0.458778
H232	H	0.940269	1.029169	0.958778
O233	O	0.135986	0.365851	0.219159
O234	O	0.635986	0.865851	0.719159
H235	H	0.084991	0.377146	0.225891
H236	H	0.584991	0.877146	0.725891
