data_functionalizedCrystal
_audit_creation_method	'MofGen! by Chris Wilmer'
_symmetry_space_group_name_H-M	'P1'
_symmetry_Int_Tables_number	1
_symmetry_cell_setting	triclinic
loop_
_symmetry_equiv_pos_as_xyz
  x,y,z
_cell_length_a	10.723024
_cell_length_b	19.288865
_cell_length_c	9.798715
_cell_angle_alpha	89.991393
_cell_angle_beta	90.003154
_cell_angle_gamma	96.197942
loop_
_atom_site_label
_atom_site_type_symbol
_atom_site_fract_x
_atom_site_fract_y
_atom_site_fract_z
O1	O	1.655141	-0.097416	0.113500
O2	O	2.155141	0.402584	0.613500
O3	O	1.291793	-0.106740	0.113506
O4	O	1.791793	0.393260	0.613506
O5	O	1.483966	-0.001016	0.113476
O6	O	1.983966	0.498984	0.613476
O7	O	1.462968	-0.203140	0.113530
O8	O	1.962968	0.296860	0.613530
O9	O	1.483953	-0.001015	-0.113507
O10	O	1.983953	0.498985	0.386493
O11	O	1.291780	-0.106739	-0.113476
O12	O	1.791780	0.393261	0.386524
O13	O	1.655128	-0.097415	-0.113482
O14	O	2.155128	0.402585	0.386518
Zn15	Zn	1.473452	-0.102077	-0.149518
Zn16	Zn	1.973452	0.397923	0.350482
Zn17	Zn	1.473469	-0.102078	0.149541
Zn18	Zn	1.973469	0.397922	0.649541
O19	O	1.462955	-0.203139	-0.113452
O20	O	1.962955	0.296861	0.386548
C21	C	1.245301	-0.106061	0.000015
C22	C	1.745301	0.393939	0.500015
C23	C	1.106789	-0.104031	0.000017
C24	C	1.606789	0.395969	0.500017
C25	C	1.483284	0.024865	-0.000019
C26	C	1.983284	0.524865	0.499981
C27	C	1.481256	0.101982	-0.000031
C28	C	1.981256	0.601982	0.499969
N29	N	1.473449	-0.102076	-0.353617
N30	N	1.973449	0.397924	0.146383
C31	C	1.030564	-0.163189	0.000033
C32	C	1.530564	0.336811	0.500033
C33	C	0.887405	-0.161092	0.000035
C34	C	1.387405	0.338908	0.500035
C35	C	1.701620	-0.098094	0.000011
C36	C	2.201620	0.401906	0.500011
C37	C	1.840131	-0.100124	0.000019
C38	C	2.340131	0.399876	0.500019
C39	C	1.463637	-0.229020	0.000046
C40	C	1.963637	0.270980	0.500046
C41	C	1.465665	-0.306137	0.000067
C42	C	1.965665	0.193863	0.500067
C43	C	1.594014	0.145945	-0.000040
C44	C	2.094014	0.645945	0.499960
C45	C	1.592109	0.218404	-0.000018
C46	C	2.092109	0.718404	0.499982
C47	C	1.477438	0.246898	-0.000016
C48	C	1.977438	0.746898	0.499984
C49	C	1.364665	0.202925	0.000001
C50	C	1.864665	0.702925	0.500001
C51	C	1.366574	0.130468	-0.000007
C52	C	1.866574	0.630468	0.499993
C53	C	1.387289	0.355772	-0.079521
C54	C	1.887289	0.855772	0.420479
C55	C	1.385385	0.428229	-0.079521
C56	C	1.885385	0.928229	0.420479
C57	C	1.471547	0.470382	0.000015
C58	C	1.971547	0.970382	0.500015
C59	C	1.559633	0.440070	0.079534
C60	C	2.059633	0.940070	0.579534
C61	C	1.561542	0.367612	0.079526
C62	C	2.061542	0.867612	0.579526
C63	C	1.475356	0.325465	-0.000006
C64	C	1.975356	0.825465	0.499994
C65	C	1.582247	0.592914	0.000032
C66	C	2.082247	1.092914	0.500032
C67	C	1.580336	0.665374	0.000062
C68	C	2.080336	1.165374	0.500062
C69	C	1.352890	0.649894	0.000067
C70	C	1.852890	1.149894	0.500067
C71	C	1.354803	0.577435	0.000051
C72	C	1.854803	1.077435	0.500051
C73	C	1.469485	0.548949	0.000027
C74	C	1.969485	1.048949	0.500027
C75	C	1.554337	-0.057589	-0.578562
C76	C	2.054337	0.442411	-0.078562
C77	C	1.554320	-0.057590	-0.421399
C78	C	2.054320	0.442410	0.078601
N79	N	1.473482	-0.102074	0.353641
N80	N	1.973482	0.397926	0.853641
H81	H	1.071290	-0.215388	0.000040
H82	H	1.571290	0.284612	0.500040
F83	F	1.382957	-0.151856	-0.429811
F84	F	1.882957	0.348144	0.070189
H85	H	1.623577	-0.019505	-0.636867
H86	H	2.123577	0.480495	-0.136867
H87	H	1.623538	-0.019502	-0.363096
H88	H	2.123538	0.480498	0.136904
F89	F	1.295580	0.310916	-0.164183
F90	F	1.795580	0.810916	0.335817
H91	H	1.629793	0.474390	0.144301
H92	H	2.129793	0.974390	0.644301
F93	F	1.382989	-0.151860	-0.570153
F94	F	1.882989	0.348140	-0.070153
H95	H	0.821909	-0.211735	0.000055
H96	H	1.321909	0.288265	0.500055
F97	F	0.925728	-0.033924	0.000010
F98	F	1.425728	0.466076	0.500010
F99	F	1.700356	0.712163	0.000061
F100	F	2.200356	1.212163	0.500061
F101	F	1.053565	-0.035800	-0.000011
F102	F	1.553565	0.464200	0.499989
F103	F	1.230848	0.680214	0.000077
F104	F	1.730848	1.180214	0.500077
F105	F	1.716069	0.115633	-0.000036
F106	F	2.216069	0.615633	0.499964
H107	H	1.675628	0.569720	0.000018
H108	H	2.175628	1.069720	0.500018
F109	F	1.246555	0.083677	0.000003
F110	F	1.746555	0.583677	0.500003
F111	F	1.712126	0.265201	-0.000026
F112	F	2.212126	0.765201	0.499974
H113	H	1.633262	0.342936	0.144276
H114	H	2.133262	0.842936	0.644276
H115	H	1.262983	0.541639	0.000050
H116	H	1.762983	1.041639	0.500050
H117	H	1.313655	0.452902	-0.144263
H118	H	1.813655	0.952902	0.355737
H119	H	1.271299	0.226130	0.000006
H120	H	1.771299	0.726130	0.500006
