data_functionalizedCrystal
_audit_creation_method	'MofGen! by Chris Wilmer'
_symmetry_space_group_name_H-M	'P1'
_symmetry_Int_Tables_number	1
_symmetry_cell_setting	triclinic
loop_
_symmetry_equiv_pos_as_xyz
  x,y,z
_cell_length_a	18.215407
_cell_length_b	12.594516
_cell_length_c	18.215399
_cell_angle_alpha	89.977894
_cell_angle_beta	89.980167
_cell_angle_gamma	90.016501
loop_
_atom_site_label
_atom_site_type_symbol
_atom_site_fract_x
_atom_site_fract_y
_atom_site_fract_z
Zn1	Zn	1.125117	-0.423740	-0.416146
Zn2	Zn	1.125045	-0.601738	-0.293092
Zn3	Zn	1.002050	-0.423775	-0.293093
Zn4	Zn	1.002035	-0.601679	-0.416117
O5	O	1.063561	-0.512733	-0.354612
O6	O	1.228092	-0.447362	-0.399834
O7	O	1.108705	-0.578170	-0.190108
O8	O	1.018412	-0.274825	-0.309429
O9	O	1.228038	-0.578136	-0.309427
O10	O	1.108829	-0.274799	-0.399835
O11	O	1.018341	-0.447422	-0.190109
O12	O	0.899063	-0.447364	-0.309401
O13	O	1.018386	-0.578035	-0.519105
O14	O	0.899052	-0.578069	-0.399786
O15	O	1.108814	-0.447305	-0.519126
O16	O	1.108690	-0.750676	-0.309399
O17	O	1.018315	-0.750632	-0.399785
C18	C	0.872355	-0.512715	-0.354591
C19	C	0.790556	-0.512733	-0.354599
C20	C	1.063513	-0.789274	-0.354605
C21	C	1.063560	-0.907579	-0.354626
C22	C	0.602376	-0.580898	-0.401604
C23	C	0.525517	-0.580901	-0.401613
C24	C	0.525499	-0.444588	-0.307636
C25	C	0.602356	-0.444580	-0.307631
C26	C	0.640793	-0.512741	-0.354614
C27	C	0.487077	-0.512752	-0.354628
C28	C	0.403743	-0.512755	-0.354638
C29	C	0.724132	-0.512737	-0.354606
C30	C	1.014400	-0.976847	-0.403753
C31	C	0.996471	-1.047706	-0.336600
C32	C	1.081556	-1.047520	-0.421791
C33	C	1.045595	-0.976880	-0.287438
C34	C	1.130712	-0.976687	-0.372674
C35	C	1.112808	-1.047514	-0.305475
C36	C	1.255514	-0.512752	-0.354634
C37	C	1.337313	-0.512760	-0.354643
C38	C	1.063606	-0.512660	-0.546565
C39	C	1.063625	-0.512628	-0.628364
C40	C	1.063630	-0.235112	-0.354635
C41	C	1.063659	-0.116807	-0.354645
C42	C	1.110728	-0.444493	-0.816570
C43	C	1.110737	-0.444462	-0.893429
C44	C	1.016575	-0.580599	-0.893396
C45	C	1.016563	-0.580624	-0.816538
C46	C	1.063644	-0.512572	-0.778127
C47	C	1.063664	-0.512517	-0.931844
C48	C	1.063674	-0.512483	-1.015177
C49	C	1.063634	-0.512604	-0.694788
C50	C	1.063559	-0.512729	-0.163406
C51	C	1.063683	-0.512461	-0.081607
H52	H	0.633668	-0.636396	-0.439862
O53	O	0.488313	-0.647211	-0.447281
C54	C	0.538722	-0.707345	-0.488759
H55	H	0.593494	-0.710970	-0.458605
H56	H	0.546928	-0.668470	-0.544695
C57	C	0.441441	-0.816195	-0.536275
C58	C	0.508711	-0.820656	-0.499236
H59	H	0.422928	-0.886090	-0.542741
H60	H	0.407479	-0.775680	-0.508333
H61	H	0.448289	-0.783795	-0.582885
H62	H	0.501861	-0.853043	-0.452624
H63	H	0.542672	-0.861179	-0.527171
O64	O	0.488239	-0.378439	-0.261894
C65	C	0.506972	-0.401582	-0.188518
H66	H	0.562770	-0.442486	-0.186941
H67	H	0.463699	-0.456267	-0.163672
C68	C	0.441984	-0.247498	-0.145992
C69	C	0.510519	-0.297729	-0.144056
H70	H	0.444170	-0.183439	-0.118565
H71	H	0.429361	-0.231908	-0.195427
H72	H	0.405930	-0.293080	-0.125289
H73	H	0.546570	-0.252153	-0.164767
H74	H	0.523149	-0.313310	-0.094624
H75	H	0.633636	-0.389071	-0.269367
H76	H	1.187442	-0.945472	-0.387956
H77	H	0.972753	-0.945818	-0.445237
O78	O	0.928731	-1.084876	-0.318512
C79	C	0.877011	-1.048857	-0.370421
H80	H	0.906236	-1.028913	-0.424033
H81	H	0.848421	-0.974855	-0.348501
C82	C	0.783760	-1.160914	-0.318464
C83	C	0.819655	-1.136427	-0.384314
H84	H	0.748378	-1.214928	-0.327033
H85	H	0.818603	-1.185178	-0.283490
H86	H	0.759942	-1.099238	-0.300205
H87	H	0.843480	-1.198098	-0.402568
H88	H	0.784814	-1.112175	-0.419292
O89	O	1.027382	-0.939846	-0.219717
C90	C	1.027537	-0.827904	-0.220528
H91	H	1.019305	-0.798570	-0.279163
H92	H	1.082309	-0.797536	-0.198718
C93	C	0.974948	-0.822298	-0.099653
C94	C	0.964831	-0.786270	-0.171669
H95	H	0.936270	-0.796614	-0.069512
H96	H	0.974846	-0.897716	-0.099105
H97	H	1.020594	-0.796989	-0.081488
H98	H	0.919190	-0.811590	-0.189836
H99	H	0.964923	-0.710855	-0.172219
O100	O	1.099586	-1.084413	-0.489597
C101	C	1.047548	-1.048429	-0.541198
H102	H	1.019491	-0.973957	-0.519360
H103	H	1.004713	-1.112960	-0.550790
C104	C	1.120924	-1.114019	-0.640929
C105	C	1.086470	-1.022546	-0.614110
H106	H	1.144932	-1.098057	-0.685906
H107	H	1.155983	-1.138266	-0.606165
H108	H	1.085223	-1.167786	-0.648917
H109	H	1.122173	-0.968786	-0.606114
H110	H	1.051418	-0.998289	-0.648874
O111	O	1.156429	-0.378480	-0.779144
C112	C	1.146311	-0.393076	-0.703063
H113	H	1.122195	-0.475224	-0.692549
H114	H	1.107125	-0.329953	-0.681255
C115	C	1.250386	-0.282428	-0.676531
C116	C	1.220773	-0.383326	-0.663618
H117	H	1.296316	-0.276409	-0.652198
H118	H	1.257202	-0.272590	-0.727788
H119	H	1.217724	-0.229837	-0.658357
H120	H	1.253430	-0.435915	-0.681800
H121	H	1.213964	-0.393173	-0.612363
H122	H	1.154423	-1.078347	-0.263891
H123	H	1.149077	-0.389024	-0.924726
H124	H	0.978244	-0.636006	-0.924679
O125	O	0.970800	-0.646862	-0.779304
C126	C	0.929239	-0.706909	-0.829685
H127	H	0.959388	-0.710582	-0.884478
H128	H	0.873356	-0.667927	-0.837852
C129	C	0.881574	-0.815686	-0.732372
C130	C	0.918607	-0.820205	-0.799668
H131	H	0.875012	-0.885571	-0.713856
H132	H	0.909571	-0.775229	-0.698429
H133	H	0.835009	-0.783196	-0.739187
H134	H	0.965174	-0.852682	-0.792851
H135	H	0.890616	-0.860670	-0.833610
