data_functionalizedCrystal
_audit_creation_method	'MofGen! by Chris Wilmer'
_symmetry_space_group_name_H-M	'P1'
_symmetry_Int_Tables_number	1
_symmetry_cell_setting	triclinic
loop_
_symmetry_equiv_pos_as_xyz
  x,y,z
_cell_length_a	13.930277
_cell_length_b	12.837943
_cell_length_c	12.837942
_cell_angle_alpha	85.171060
_cell_angle_beta	90.003658
_cell_angle_gamma	89.993941
loop_
_atom_site_label
_atom_site_type_symbol
_atom_site_fract_x
_atom_site_fract_y
_atom_site_fract_z
O1	O	0.079813	-1.402340	0.272140
O2	O	0.079819	-1.099206	0.258697
O3	O	0.079810	-1.244052	0.113852
O4	O	0.079821	-1.257495	0.416985
O5	O	-0.079852	-1.244029	0.113846
O6	O	-0.079843	-1.099184	0.258691
O7	O	-0.079849	-1.402317	0.272134
Zn8	Zn	-0.105196	-1.250747	0.265412
Zn9	Zn	0.105165	-1.250777	0.265419
O10	O	-0.079840	-1.257472	0.416980
C11	C	-0.000012	-1.060126	0.254153
C12	C	-0.000010	-0.943711	0.240608
N13	N	-0.248762	-1.250734	0.265407
C14	C	-0.000020	-1.239499	0.074780
C15	C	-0.000019	-1.225954	-0.041635
C16	C	-0.701027	-1.186634	0.329528
C17	C	-0.701004	-1.314948	0.201305
C18	C	-0.600509	-1.314935	0.201300
C19	C	-0.550268	-1.250772	0.265412
C20	C	-0.600522	-1.186621	0.329528
C21	C	-0.550247	-1.379092	0.137193
C22	C	-0.449745	-1.379083	0.137187
C23	C	-0.399502	-1.314913	0.201294
C24	C	-0.449763	-1.250759	0.265412
C25	C	-0.399522	-1.186596	0.329523
C26	C	-0.449781	-1.122436	0.393637
C27	C	-0.550280	-1.122452	0.393635
C28	C	-0.299003	-1.314897	0.201295
C29	C	-0.299017	-1.186584	0.329523
N30	N	0.248732	-1.250797	0.265417
C31	C	-0.000017	-1.441398	0.276679
C32	C	-0.000012	-1.557813	0.290223
C33	C	-0.000017	-0.718837	0.403437
C34	C	-0.000016	-0.609454	0.390716
C35	C	-0.000013	-0.615562	0.202445
C36	C	-0.000014	-0.724944	0.215166
C37	C	-0.000015	-0.776578	0.315666
C38	C	-0.000009	-0.885962	0.328386
C39	C	-0.000013	-0.892067	0.140116
C40	C	-0.000012	-0.782685	0.127395
C41	C	-0.000002	-1.388784	-0.266510
C42	C	0.000000	-1.376062	-0.375892
C43	C	-0.000006	-1.187791	-0.369785
C44	C	-0.000008	-1.200513	-0.260402
C45	C	-0.000007	-1.301012	-0.208769
C46	C	-0.000016	-1.313732	-0.099384
C47	C	-0.000015	-1.125462	-0.093279
C48	C	-0.000014	-1.112741	-0.202661
C49	C	-0.000008	-1.262025	0.456052
C50	C	-0.000003	-1.275569	0.572467
H51	H	-0.258116	-1.134330	0.381727
H52	H	0.000003	-1.105969	-0.411844
H53	H	-0.000028	-1.053992	-0.046254
H54	H	-0.000020	-0.562446	0.462189
O55	O	0.000167	-1.486423	-0.216392
C56	C	0.082854	-1.651261	-0.188175
C57	C	0.082792	-1.540706	-0.244980
H58	H	0.149638	-1.695188	-0.211285
H59	H	0.082915	-1.645335	-0.100068
H60	H	0.016005	-1.695131	-0.211176
H61	H	0.149629	-1.496773	-0.222066
H62	H	0.082680	-1.546707	-0.333075
O63	O	-0.000054	-0.935957	0.426080
C64	C	-0.000007	-0.918349	0.611476
C65	C	0.000025	-0.861602	0.500895
H66	H	0.000077	-0.858259	0.671994
H67	H	-0.066841	-0.969367	0.622198
H68	H	0.066795	-0.969445	0.622096
H69	H	-0.066732	-0.810452	0.490199
H70	H	0.066904	-0.810649	0.490225
H71	H	-0.000092	-0.573502	0.120623
O72	O	-0.599210	-1.060082	0.455766
C73	C	-0.712677	-0.919302	0.463842
C74	C	-0.657335	-0.989876	0.393359
H75	H	-0.759669	-0.862508	0.413412
H76	H	-0.759777	-0.969618	0.520606
H77	H	-0.659494	-0.873484	0.509692
H78	H	-0.710448	-1.035706	0.347441
H79	H	-0.610221	-0.939503	0.336660
O80	O	-0.400824	-1.060141	0.455818
C81	C	-0.245997	-1.003326	0.512690
C82	C	-0.301325	-1.073903	0.442203
H83	H	-0.165543	-1.014445	0.501722
H84	H	-0.265691	-0.918109	0.490714
H85	H	-0.265807	-1.025231	0.597881
H86	H	-0.281545	-1.052092	0.356991
H87	H	-0.281626	-1.159103	0.464267
O88	O	-0.401077	-1.441427	0.074807
C89	C	-0.411669	-1.568742	-0.052333
C90	C	-0.466906	-1.498174	0.018246
H91	H	-0.464868	-1.614657	-0.098065
H92	H	-0.364662	-1.518420	-0.109190
H93	H	-0.364572	-1.625448	-0.001930
H94	H	-0.514055	-1.441457	-0.032074
H95	H	-0.513852	-1.548562	0.075108
O96	O	-0.749704	-1.377205	0.138878
C97	C	-0.780517	-1.420502	-0.037066
C98	C	-0.725280	-1.349948	0.033521
H99	H	-0.760806	-1.398476	-0.122263
H100	H	-0.760728	-1.505712	-0.015196
H101	H	-0.860973	-1.409504	-0.025993
H102	H	-0.644811	-1.360854	0.022484
H103	H	-0.745149	-1.264765	0.011633
H104	H	-0.258087	-1.367141	0.149100
H105	H	-0.741951	-1.134392	0.381726
H106	H	-0.591156	-1.431337	0.085000
O107	O	0.000115	-0.768884	0.501108
C108	C	0.082870	-0.797201	0.665893
C109	C	0.082828	-0.740439	0.555319
H110	H	0.149746	-0.774241	0.709746
H111	H	0.016101	-0.774159	0.709882
H112	H	0.082823	-0.885293	0.659879
H113	H	0.082909	-0.652336	0.561236
H114	H	0.149592	-0.763567	0.511371
O115	O	0.000158	-0.948110	0.054814
C116	C	0.082852	-0.986749	-0.102234
C117	C	0.082784	-0.923237	-0.005665
H118	H	0.149638	-0.966646	-0.151169
H119	H	0.082916	-1.073813	-0.075945
H120	H	0.016004	-0.966752	-0.151118
H121	H	0.149620	-0.943145	0.043260
H122	H	0.082670	-0.836191	-0.032026
H123	H	-0.000022	-0.740630	0.045571
H124	H	-0.000019	-1.395564	-0.057346
H125	H	0.000008	-1.447536	-0.422901
H126	H	-0.000011	-1.030917	-0.244717
