data_functionalizedCrystal
_audit_creation_method	'MofGen! by Chris Wilmer'
_symmetry_space_group_name_H-M	'P1'
_symmetry_Int_Tables_number	1
_symmetry_cell_setting	triclinic
loop_
_symmetry_equiv_pos_as_xyz
  x,y,z
_cell_length_a	16.625548
_cell_length_b	29.839131
_cell_length_c	16.625539
_cell_angle_alpha	89.960252
_cell_angle_beta	89.979432
_cell_angle_gamma	90.036296
loop_
_atom_site_label
_atom_site_type_symbol
_atom_site_fract_x
_atom_site_fract_y
_atom_site_fract_z
Zn1	Zn	1.232609	-0.178840	-0.455845
Zn2	Zn	1.232482	-0.253971	-0.320985
Zn3	Zn	1.097771	-0.178857	-0.321026
Zn4	Zn	1.097711	-0.253945	-0.455775
O5	O	1.165143	-0.216403	-0.388408
O6	O	1.345425	-0.188810	-0.437968
O7	O	1.214584	-0.244025	-0.208158
O8	O	1.115735	-0.115987	-0.338956
O9	O	1.345331	-0.244008	-0.338887
O10	O	1.214800	-0.115975	-0.438007
O11	O	1.115612	-0.188839	-0.208188
O12	O	0.984930	-0.188814	-0.338888
O13	O	1.115634	-0.243964	-0.568617
O14	O	0.984887	-0.243981	-0.437888
O15	O	1.214743	-0.188785	-0.568668
O16	O	1.214526	-0.316834	-0.338820
O17	O	1.115511	-0.316815	-0.437849
C18	C	0.955652	-0.216397	-0.388385
C19	C	0.866031	-0.216405	-0.388395
C20	C	0.537856	-0.216408	-0.388429
C21	C	0.629164	-0.216406	-0.388417
C22	C	0.701941	-0.216406	-0.388411
C23	C	0.793255	-0.216404	-0.388401
C24	C	1.165020	-0.333126	-0.388340
C25	C	1.165041	-0.383060	-0.388338
C26	C	1.216715	-0.692662	-0.440057
C27	C	1.216803	-0.880335	-0.440106
O28	O	1.260617	-0.904565	-0.484029
N29	N	1.165280	-0.903845	-0.388497
C30	C	1.113728	-0.880434	-0.336877
O31	O	1.069901	-0.904737	-0.292988
C32	C	1.113637	-0.692762	-0.336833
C33	C	1.165169	-0.669254	-0.388439
C34	C	1.268242	-0.669154	-0.491660
C35	C	1.268223	-0.622239	-0.491644
C36	C	1.216677	-0.598831	-0.440026
C37	C	1.165150	-0.622339	-0.388423
C38	C	1.062082	-0.669352	-0.285217
C39	C	1.062063	-0.622431	-0.285212
C40	C	1.113594	-0.598923	-0.336818
C41	C	1.113584	-0.552016	-0.336790
N42	N	1.165107	-0.528505	-0.388398
C43	C	1.216653	-0.551913	-0.440016
C44	C	1.113781	-0.978965	-0.336902
C45	C	1.113805	-1.025882	-0.336912
C46	C	1.216878	-1.025780	-0.440142
C47	C	1.216858	-0.978861	-0.440128
C48	C	1.165303	-0.955455	-0.388511
C49	C	1.216609	-0.453387	-0.439979
C50	C	1.216588	-0.406468	-0.439956
C51	C	1.113511	-0.406574	-0.336729
C52	C	1.113536	-0.453490	-0.336749
C53	C	1.165087	-0.476895	-0.388380
O54	O	1.069787	-0.527757	-0.292896
O55	O	1.260461	-0.527602	-0.483911
C56	C	1.216734	-0.739577	-0.440073
C57	C	1.165208	-0.763085	-0.388471
C58	C	1.113662	-0.739677	-0.336852
C59	C	1.165231	-0.810003	-0.388480
C60	C	1.216777	-0.833411	-0.440099
C61	C	1.268300	-0.809901	-0.491707
C62	C	1.268281	-0.762985	-0.491691
C63	C	1.062139	-0.763187	-0.285244
C64	C	1.062163	-0.810103	-0.285263
C65	C	1.113709	-0.833511	-0.336882
C66	C	1.375452	-0.216410	-0.388431
C67	C	1.465073	-0.216413	-0.388441
C68	C	1.165196	-0.216370	-0.598717
C69	C	1.165218	-0.216355	-0.688338
C70	C	1.165289	-0.099225	-0.388494
C71	C	1.165351	-0.049290	-0.388530
C72	C	1.165255	-0.216305	-1.016514
C73	C	1.165243	-0.216320	-0.925205
C74	C	1.165237	-0.216330	-0.852429
C75	C	1.165224	-0.216345	-0.761115
C76	C	1.165137	-0.216404	-0.178917
C77	C	1.165271	-0.216292	-0.089297
H78	H	1.258554	-0.387329	-0.481980
O79	O	1.063466	-0.383762	-0.286667
C80	C	1.074517	-0.337311	-0.297715
H81	H	1.100894	-0.330866	-0.359961
H82	H	1.014118	-0.319509	-0.292195
H83	H	1.117473	-0.323997	-0.249922
O84	O	1.063448	-0.476378	-0.286726
C85	C	1.011338	-0.503509	-0.332593
H86	H	1.039742	-0.510493	-0.393728
H87	H	1.000564	-0.536524	-0.299754
H88	H	0.951574	-0.485451	-0.341387
O89	O	1.318327	-0.832596	-0.541965
C90	C	1.300634	-0.821112	-0.622308
H91	H	1.269636	-0.787058	-0.623943
H92	H	1.358800	-0.819471	-0.658526
H93	H	1.259162	-0.847522	-0.649424
H94	H	1.071798	-0.959910	-0.294868
H95	H	1.258582	-0.472439	-0.482027
O96	O	1.318222	-0.740104	-0.541866
C97	C	1.272277	-0.712973	-0.593913
H98	H	1.211188	-0.705981	-0.565416
H99	H	1.305105	-0.679962	-0.604750
H100	H	1.263387	-0.731035	-0.653657
H101	H	1.258819	-0.959724	-0.482150
H102	H	1.020201	-0.829239	-0.243232
H103	H	1.020078	-0.603375	-0.243180
H104	H	1.071851	-1.045018	-0.294881
H105	H	1.310182	-0.603102	-0.533669
O106	O	1.318360	-0.691938	-0.541692
C107	C	1.370496	-0.719060	-0.495841
H108	H	1.342093	-0.726138	-0.434715
H109	H	1.381314	-0.752029	-0.528707
H110	H	1.430237	-0.700946	-0.487023
O111	O	1.266832	-1.048543	-0.490375
C112	C	1.220896	-1.075689	-0.542391
H113	H	1.157384	-1.061575	-0.547302
H114	H	1.250013	-1.076183	-0.604475
H115	H	1.218145	-1.111258	-0.517461
O116	O	1.011944	-0.692110	-0.235064
C117	C	0.966460	-0.661380	-0.189500
H118	H	0.963650	-0.627923	-0.222522
H119	H	0.902938	-0.674964	-0.180850
H120	H	0.996013	-0.656403	-0.128285
H121	H	1.020163	-0.744132	-0.243211
