data_functionalizedCrystal
_audit_creation_method	'MofGen! by Chris Wilmer'
_symmetry_space_group_name_H-M	'P1'
_symmetry_Int_Tables_number	1
_symmetry_cell_setting	triclinic
loop_
_symmetry_equiv_pos_as_xyz
  x,y,z
_cell_length_a	16.120484
_cell_length_b	19.805407
_cell_length_c	19.805399
_cell_angle_alpha	89.980427
_cell_angle_beta	87.128957
_cell_angle_gamma	87.074392
loop_
_atom_site_label
_atom_site_type_symbol
_atom_site_fract_x
_atom_site_fract_y
_atom_site_fract_z
Zn1	Zn	-0.331927	-1.021075	0.396377
Zn2	Zn	-0.471346	-1.015252	0.288925
Zn3	Zn	-0.331950	-0.907889	0.283203
Zn4	Zn	-0.471302	-0.902117	0.402070
O5	O	-0.401631	-0.961584	0.342644
O6	O	-0.350431	-1.115019	0.382136
O7	O	-0.452883	-1.000989	0.193451
O8	O	-0.215281	-0.927756	0.293438
O9	O	-0.452861	-1.110741	0.303191
O10	O	-0.215264	-1.010913	0.376587
O11	O	-0.350470	-0.922109	0.189246
O12	O	-0.350427	-0.812407	0.298958
O13	O	-0.452785	-0.917919	0.496030
O14	O	-0.452807	-0.808167	0.386290
O15	O	-0.350388	-1.005317	0.491848
O16	O	-0.588006	-0.995392	0.308712
O17	O	-0.587974	-0.912273	0.391839
C18	C	-0.401615	-0.785728	0.342621
C19	C	-0.401629	-0.710496	0.342628
C20	C	-0.618240	-0.952593	0.351529
C21	C	-0.710906	-0.948809	0.355353
C22	C	-0.401579	-0.961624	0.519184
C23	C	-0.401556	-0.961641	0.594416
C24	C	-0.880568	-0.941903	0.362347
C25	C	-0.921854	-0.981385	0.322951
C26	C	-1.016260	-0.977543	0.326843
C27	C	-0.786154	-0.945745	0.358456
C28	C	-0.184177	-0.970628	0.333739
C29	C	-0.091511	-0.974482	0.329944
C30	C	-0.401648	-1.138126	0.342667
C31	C	-0.401655	-1.213357	0.342677
C32	C	-0.455019	-0.672958	0.388035
C33	C	-0.455020	-0.602269	0.388045
C34	C	-0.401635	-0.569120	0.342644
C35	C	-0.348239	-0.606663	0.297235
C36	C	-0.348234	-0.677350	0.297229
C37	C	-0.348258	-0.321589	0.297258
C38	C	-0.348269	-0.250896	0.297266
C39	C	-0.455043	-0.246508	0.388074
C40	C	-0.455038	-0.317195	0.388068
C41	C	-0.401640	-0.354732	0.342662
C42	C	-0.401638	-0.431381	0.342653
C43	C	-0.401641	-0.492472	0.342649
C44	C	-0.401623	-0.961585	0.166787
C45	C	-0.401411	-0.961709	0.091547
C46	C	-0.348235	-1.007150	0.627583
C47	C	-0.348211	-1.007158	0.698270
C48	C	-0.401513	-0.961659	0.735789
C49	C	-0.454836	-0.916145	0.702617
C50	C	-0.454856	-0.916135	0.631931
C51	C	-0.454759	-0.916187	0.987688
C52	C	-0.454737	-0.916202	1.058379
C53	C	-0.348114	-1.007210	1.054027
C54	C	-0.348133	-1.007199	0.983340
C55	C	-0.401453	-0.961683	0.950174
C56	C	-0.401478	-0.961674	0.873527
C57	C	-0.401493	-0.961671	0.812436
H58	H	-0.916121	-0.905219	0.398995
H59	H	-0.304791	-0.223908	0.260295
H60	H	-0.304754	-0.707913	0.260258
N61	N	-0.509563	-0.706805	0.434411
N62	N	-0.557229	-0.673278	0.474949
H63	H	-0.595753	-0.697180	0.507704
H64	H	-0.498496	-0.571709	0.425019
N65	N	-0.877263	-1.027408	0.276967
N66	N	-0.886823	-1.089482	0.281888
H67	H	-0.855325	-1.121982	0.249410
N68	N	-0.509581	-0.351045	0.434444
N69	N	-0.557247	-0.317521	0.474984
H70	H	-0.595768	-0.341426	0.507740
N71	N	-0.293715	-0.359915	0.250870
N72	N	-0.246060	-0.330306	0.210335
H73	H	-0.207538	-0.357375	0.177569
H74	H	-0.304733	-1.044251	0.952796
H75	H	-0.498520	-0.215937	0.425048
N76	N	-0.293798	-1.053626	0.589251
N77	N	-0.323145	-1.095531	0.551016
H78	H	-0.284696	-1.128355	0.523945
N79	N	-0.293706	-0.572793	0.250868
N80	N	-0.293717	-0.509680	0.250878
H81	H	-0.255203	-0.485759	0.218129
N82	N	-0.293652	-1.053700	1.087917
N83	N	-0.293638	-1.053707	1.151029
H84	H	-0.255178	-1.086541	1.174964
H85	H	-0.304794	-1.044217	0.725272
H86	H	-0.498187	-0.879134	0.960693
N87	N	-0.509311	-0.869640	0.598048
N88	N	-0.503766	-0.807416	0.605704
H89	H	-0.542223	-0.774575	0.581774
N90	N	-0.509188	-0.869717	1.096695
N91	N	-0.556788	-0.829079	1.067075
H92	H	-0.595242	-0.796250	1.094135
H93	H	-0.498232	-0.879097	0.733171
