data_functionalizedCrystal
_audit_creation_method	'MofGen! by Chris Wilmer'
_symmetry_space_group_name_H-M	'P1'
_symmetry_Int_Tables_number	1
_symmetry_cell_setting	triclinic
loop_
_symmetry_equiv_pos_as_xyz
  x,y,z
_cell_length_a	15.538191
_cell_length_b	17.699083
_cell_length_c	16.176319
_cell_angle_alpha	90.001389
_cell_angle_beta	89.995479
_cell_angle_gamma	114.722446
loop_
_atom_site_label
_atom_site_type_symbol
_atom_site_fract_x
_atom_site_fract_y
_atom_site_fract_z
O1	O	0.119201	-0.971508	-0.068626
O2	O	0.134709	-0.746892	-0.068653
O3	O	-0.010274	-0.902923	-0.068638
O4	O	0.264185	-0.815476	-0.068641
O5	O	-0.010284	-0.902910	0.068855
O6	O	0.134700	-0.746878	0.068840
O7	O	0.119192	-0.971494	0.068867
Cu8	Cu	0.126945	-0.859185	0.081408
Cu9	Cu	0.126956	-0.859201	-0.081194
O10	O	0.264175	-0.815463	0.068852
C11	C	0.134149	-0.718840	0.000090
C12	C	0.132482	-0.635277	0.000080
C13	C	-0.045395	-0.912066	0.000107
C14	C	-0.150032	-0.939318	0.000102
N15	N	0.126937	-0.859180	0.195773
C16	C	-0.437202	-0.668571	0.000087
C17	C	-0.535527	-0.694198	0.000092
C18	C	-0.558300	-0.838344	0.000109
C19	C	-0.459975	-0.812729	0.000100
C20	C	-0.399434	-0.727842	0.000090
C21	C	-0.422207	-0.872000	0.000103
C22	C	-0.323891	-0.846387	0.000098
C23	C	-0.263343	-0.761503	0.000091
C24	C	-0.301118	-0.702229	0.000085
C25	C	-0.482750	-0.956887	0.000118
C26	C	-0.444981	-1.016158	0.000121
C27	C	-0.346663	-0.990545	0.000111
C28	C	-0.286116	-0.905661	0.000103
C29	C	-0.308889	-1.049819	0.000116
C30	C	-0.210573	-1.024206	0.000111
C31	C	-0.187800	-0.880048	0.000099
C32	C	0.299297	-0.806321	0.000106
C33	C	0.403933	-0.779068	0.000105
C34	C	0.119752	-0.999546	0.000122
C35	C	0.121419	-1.083109	0.000127
C36	C	0.217584	-0.563403	0.000079
C37	C	0.216012	-0.484889	0.000090
C38	C	0.129337	-0.478252	0.000095
C39	C	0.044228	-0.550134	0.000098
C40	C	0.045801	-0.628646	0.000094
C41	C	0.037882	-0.233505	0.000119
C42	C	0.036316	-0.154985	0.000121
C43	C	0.208094	-0.089748	0.000115
C44	C	0.209667	-0.168260	0.000111
C45	C	0.124558	-0.240135	0.000118
C46	C	0.126264	-0.325269	0.000108
C47	C	0.127630	-0.393120	0.000100
N48	N	0.126957	-0.859215	-0.195559
C49	C	0.062764	-0.928279	0.239044
C50	C	0.062763	-0.928283	0.325591
C51	C	0.126940	-0.859189	0.368866
C52	C	0.191116	-0.790084	0.325589
C53	C	0.191111	-0.790078	0.239043
C54	C	0.191133	-0.790105	0.674617
C55	C	0.191135	-0.790117	0.761169
C56	C	0.062785	-0.928310	0.761164
C57	C	0.062781	-0.928304	0.674619
C58	C	0.126953	-0.859197	0.631350
C59	C	0.126952	-0.859193	0.537506
C60	C	0.126946	-0.859195	0.462708
H61	H	-0.183289	-0.740650	0.000092
H62	H	-0.251821	-0.633105	0.000071
H63	H	-0.494287	-1.085273	0.000132
N64	N	-0.371880	-0.577017	0.000074
H65	H	-0.383999	-0.549962	-0.050898
H66	H	-0.384034	-0.550020	0.051074
H67	H	0.280246	-0.173657	0.000103
H68	H	-0.566272	-0.645927	0.000102
N69	N	-0.623599	-0.929898	0.000128
H70	H	-0.691614	-0.937132	0.000133
H71	H	-0.611389	-0.956902	-0.050841
H72	H	0.243366	-0.733810	0.203813
N73	N	0.260347	-0.715589	0.807849
H74	H	0.327238	-0.705913	0.792781
H75	H	0.249480	-0.664886	0.792780
N76	N	0.307828	-0.407393	0.000158
H77	H	0.345694	-0.406770	-0.050793
H78	H	0.293652	-0.356666	0.000220
H79	H	-0.031418	-0.292019	0.000126
H80	H	-0.026345	-0.544725	0.000115
N81	N	0.299901	-0.012231	0.000120
H82	H	0.303089	0.021807	-0.050844
H83	H	0.303029	0.021730	0.051127
N84	N	-0.045987	-0.706172	0.000101
H85	H	-0.101135	-0.690056	0.000104
H86	H	-0.049077	-0.740170	-0.050870
H87	H	-0.562804	-0.977738	0.000115
H88	H	-0.358196	-1.118934	0.000132
N89	N	-0.169828	-1.088129	0.000119
H90	H	-0.223098	-1.145790	0.000124
H91	H	-0.129529	-1.080644	-0.050852
H92	H	0.010530	-0.984579	0.796403
H93	H	0.243367	-0.733824	0.360828
H94	H	0.010508	-0.984544	0.203815
H95	H	0.243386	-0.733837	0.639394
H96	H	0.010509	-0.984548	0.360821
H97	H	-0.034270	-0.149589	0.000127
N98	N	-0.006435	-1.002821	0.627938
H99	H	0.004333	-1.053580	0.642988
H100	H	-0.073291	-1.012409	0.643024
N101	N	-0.122495	-0.788490	0.000112
H102	H	-0.054482	-0.781261	0.000118
H103	H	-0.134690	-0.761479	-0.050855
N104	N	0.311071	-0.570559	0.000064
H105	H	0.364743	-0.513110	0.000066
H106	H	0.315465	-0.601716	0.051031
