data_functionalizedCrystal
_audit_creation_method	'MofGen! by Chris Wilmer'
_symmetry_space_group_name_H-M	'P1'
_symmetry_Int_Tables_number	1
_symmetry_cell_setting	triclinic
loop_
_symmetry_equiv_pos_as_xyz
  x,y,z
_cell_length_a	18.215407
_cell_length_b	19.077068
_cell_length_c	19.077237
_cell_angle_alpha	85.344389
_cell_angle_beta	92.312792
_cell_angle_gamma	92.327501
loop_
_atom_site_label
_atom_site_type_symbol
_atom_site_fract_x
_atom_site_fract_y
_atom_site_fract_z
Zn1	Zn	1.129762	-0.296659	0.409854
Zn2	Zn	1.629762	0.203341	0.909854
Zn3	Zn	1.120172	-0.409817	0.296698
Zn4	Zn	1.620172	0.090183	0.796698
Zn5	Zn	1.001956	-0.291949	0.291983
Zn6	Zn	1.501956	0.208051	0.791983
Zn7	Zn	1.001900	-0.414510	0.414542
Zn8	Zn	1.501900	0.085490	0.914542
O9	O	1.063448	-0.353234	0.353269
O10	O	1.563448	0.146766	0.853269
O11	O	1.231474	-0.311677	0.394855
O12	O	1.731474	0.188323	0.894855
O13	O	1.100500	-0.390246	0.197425
O14	O	1.600500	0.109754	0.697425
O15	O	1.022946	-0.193925	0.303684
O16	O	1.522946	0.306075	0.803684
O17	O	1.224429	-0.394814	0.311720
O18	O	1.724429	0.105186	0.811720
O19	O	1.116845	-0.197385	0.390283
O20	O	1.616845	0.302615	0.890283
O21	O	1.013647	-0.303649	0.193961
O22	O	1.513647	0.196351	0.693961
O23	O	0.898964	-0.308200	0.308229
O24	O	1.398964	0.191800	0.808229
O25	O	1.022852	-0.402813	0.512567
O26	O	1.522852	0.097187	1.012567
O27	O	0.898923	-0.398245	0.398273
O28	O	1.398923	0.101755	0.898273
O29	O	1.116791	-0.316228	0.509123
O30	O	1.616791	0.183772	1.009123
O31	O	1.100447	-0.509089	0.316266
O32	O	1.600447	-0.009089	0.816266
O33	O	1.013553	-0.512537	0.402845
O34	O	1.513553	-0.012537	0.902845
C35	C	0.872241	-0.353221	0.353249
C36	C	1.372241	0.146779	0.853249
C37	C	0.790442	-0.353233	0.353257
C38	C	1.290442	0.146767	0.853257
C39	C	0.602241	-0.400188	0.400089
C40	C	1.102241	0.099812	0.900089
C41	C	0.525382	-0.400191	0.400098
C42	C	1.025382	0.099809	0.900098
C43	C	0.525406	-0.306293	0.306466
C44	C	1.025406	0.193707	0.806466
C45	C	0.602264	-0.306287	0.306461
C46	C	1.102264	0.193713	0.806461
C47	C	0.640679	-0.353239	0.353271
C48	C	1.140679	0.146761	0.853271
C49	C	0.486963	-0.353247	0.353285
C50	C	0.986963	0.146753	0.853285
C51	C	0.403630	-0.353250	0.353295
C52	C	0.903630	0.146750	0.853295
C53	C	0.724018	-0.353236	0.353263
C54	C	1.224018	0.146764	0.853263
C55	C	1.055974	-0.536392	0.360591
C56	C	1.555974	-0.036392	0.860591
C57	C	1.052845	-0.614749	0.363747
C58	C	1.552845	-0.114749	0.863747
C59	C	1.096653	-0.649744	0.320189
C60	C	1.596653	-0.149744	0.820189
C61	C	1.093715	-0.723369	0.323162
C62	C	1.593715	-0.223369	0.823162
C63	C	1.046963	-0.761997	0.369688
C64	C	1.546963	-0.261997	0.869688
C65	C	1.003153	-0.726997	0.413250
C66	C	1.503153	-0.226997	0.913250
C67	C	1.006096	-0.653374	0.410281
C68	C	1.506096	-0.153374	0.910281
C69	C	1.033310	-0.982382	0.383402
C70	C	1.533310	-0.482382	0.883402
C71	C	1.030369	-1.056011	0.386366
C72	C	1.530369	-0.556011	0.886366
C73	C	1.120932	-1.052377	0.296278
C74	C	1.620932	-0.552377	0.796278
C75	C	1.123868	-0.978753	0.293310
C76	C	1.623868	-0.478753	0.793310
C77	C	1.080060	-0.943759	0.336875
C78	C	1.580060	-0.443759	0.836875
N79	N	1.043957	-0.837253	0.372726
N80	N	1.543957	-0.337253	0.872726
N81	N	1.083071	-0.868504	0.333840
N82	N	1.583071	-0.368504	0.833840
C83	C	1.255401	-0.353247	0.353291
C84	C	1.755401	0.146753	0.853291
C85	C	1.337200	-0.353253	0.353300
C86	C	1.837200	0.146747	0.853300
C87	C	1.070885	-0.360569	0.537139
C88	C	1.570885	0.139431	1.037139
C89	C	1.074054	-0.363695	0.615493
C90	C	1.574054	0.136305	1.115493
C91	C	1.070971	-0.169361	0.345935
C92	C	1.570971	0.330639	0.845935
C93	C	1.074177	-0.091006	0.342809
C94	C	1.574177	0.408994	0.842809
C95	C	1.056083	-0.345876	0.170113
C96	C	1.556083	0.154124	0.670113
C97	C	1.053065	-0.342552	0.091752
C98	C	1.553065	0.157448	0.591752
C99	C	1.096789	-0.386167	1.056738
C100	C	1.596789	0.113833	1.556738
C101	C	1.093800	-0.383225	0.983116
C102	C	1.593800	0.116775	1.483116
C103	C	1.047091	-0.336665	0.944509
C104	C	1.547091	0.163335	1.444509
C105	C	1.003362	-0.293048	0.979528
C106	C	1.503362	0.206952	1.479528
C107	C	1.006347	-0.295993	1.053149
C108	C	1.506347	0.204007	1.553149
C109	C	1.033310	-0.323024	0.724133
C110	C	1.533310	0.176976	1.224133
C111	C	1.030330	-0.320080	0.650507
C112	C	1.530330	0.179920	1.150507
C113	C	1.120768	-0.410259	0.654100
C114	C	1.620768	0.089741	1.154100
C115	C	1.123753	-0.413197	0.727722
C116	C	1.623753	0.086803	1.227722
C117	C	1.080021	-0.369583	0.762735
C118	C	1.580021	0.130417	1.262735
N119	N	1.044037	-0.333655	0.869255
N120	N	1.544037	0.166345	1.369255
N121	N	1.083071	-0.372597	0.837987
N122	N	1.583071	0.127403	1.337987
H123	H	1.134720	-0.618297	0.282300
H124	H	1.634720	-0.118297	0.782300
O125	O	1.136454	-0.757347	0.281001
O126	O	1.636454	-0.257347	0.781001
C127	C	1.183870	-0.801420	0.322972
C128	C	1.683870	-0.301420	0.822972
H129	H	1.191350	-0.781420	0.377612
H130	H	1.691350	-0.281420	0.877612
H131	H	1.239528	-0.801109	0.297659
H132	H	1.739528	-0.301109	0.797659
H133	H	1.159078	-0.857369	0.327584
H134	H	1.659078	-0.357369	0.827584
H135	H	1.156371	-0.445768	0.625584
H136	H	1.656371	0.054232	1.125584
H137	H	0.633561	-0.268051	0.268336
H138	H	1.133561	0.231949	0.768336
H139	H	0.494119	-0.268068	0.268353
H140	H	0.994119	0.231932	0.768353
H141	H	0.970743	-0.260477	1.081656
H142	H	1.470743	0.239523	1.581656
O143	O	1.136169	-0.425666	0.949078
O144	O	1.636169	0.074334	1.449078
C145	C	1.090684	-0.469483	0.908291
C146	C	1.590684	0.030517	1.408291
H147	H	1.033442	-0.474721	0.930648
H148	H	1.533442	0.025279	1.430648
H149	H	1.115049	-0.523703	0.909621
H150	H	1.615049	-0.023703	1.409621
H151	H	1.086780	-0.445460	0.851627
H152	H	1.586780	0.054540	1.351627
O153	O	0.990936	-0.280634	0.758221
O154	O	1.490936	0.219366	1.258221
C155	C	1.036417	-0.236800	0.798992
C156	C	1.536417	0.263200	1.298992
H157	H	1.091622	-0.262101	0.811009
H158	H	1.591622	0.237899	1.311009
H159	H	1.008922	-0.229435	0.850387
H160	H	1.508922	0.270565	1.350387
H161	H	1.045485	-0.183418	0.768551
H162	H	1.545485	0.316582	1.268551
O163	O	1.169354	-0.941340	0.248102
O164	O	1.669354	-0.441340	0.748102
C165	C	1.207380	-0.988015	0.210283
C166	C	1.707380	-0.488015	0.710283
H167	H	1.208971	-1.041635	0.241273
H168	H	1.708971	-0.541635	0.741273
H169	H	1.265921	-0.966403	0.201962
H170	H	1.765921	-0.466403	0.701962
H171	H	1.178000	-0.993749	0.157035
H172	H	1.678000	-0.493749	0.657035
H173	H	1.156599	-1.080877	0.260812
H174	H	1.656599	-0.580877	0.760812
H175	H	0.494090	-0.438421	0.438222
H176	H	0.994090	0.061579	0.938222
H177	H	0.992307	-1.087460	0.424266
H178	H	1.492307	-0.587460	0.924266
H179	H	0.997638	-0.953896	0.418872
H180	H	1.497638	-0.453896	0.918872
O181	O	0.957754	-0.764624	0.458384
O182	O	1.457754	-0.264624	0.958384
C183	C	0.964561	-0.837111	0.451677
C184	C	1.464561	-0.337111	0.951677
H185	H	0.986108	-0.845002	0.397702
H186	H	1.486108	-0.345002	0.897702
H187	H	0.908503	-0.865321	0.457539
H188	H	1.408503	-0.365321	0.957539
H189	H	1.004575	-0.859627	0.494366
H190	H	1.504575	-0.359627	0.994366
O191	O	0.963469	-0.619487	0.452621
O192	O	1.463469	-0.119487	0.952621
C193	C	0.921588	-0.669367	0.494338
C194	C	1.421588	-0.169367	0.994338
H195	H	0.915791	-0.720710	0.467576
H196	H	1.415791	-0.220710	0.967576
H197	H	0.864752	-0.648433	0.500958
H198	H	1.364752	-0.148433	1.000958
H199	H	0.950354	-0.679294	0.548211
H200	H	1.450354	-0.179294	1.048211
O201	O	1.142064	-0.431432	1.094317
O202	O	1.642064	0.068568	1.594317
C203	C	1.100026	-0.478674	1.138701
C204	C	1.600026	0.021326	1.638701
H205	H	1.045721	-0.454246	1.148742
H206	H	1.545721	0.045754	1.648742
H207	H	1.131715	-0.490195	1.190848
H208	H	1.631715	0.009805	1.690848
H209	H	1.088649	-0.529779	1.112407
H210	H	1.588649	-0.029779	1.612407
O211	O	1.169140	-0.458492	0.765116
O212	O	1.669140	0.041508	1.265116
C213	C	1.207105	-0.496346	0.718424
C214	C	1.707105	0.003654	1.218424
H215	H	1.174735	-0.496684	0.666040
H216	H	1.674735	0.003316	1.166040
H217	H	1.213541	-0.552740	0.741906
H218	H	1.713541	-0.052740	1.241906
H219	H	1.263739	-0.470225	0.709569
H220	H	1.763739	0.029775	1.209569
O221	O	0.957944	-0.247915	0.941952
O222	O	1.457944	0.252085	1.441952
C223	C	0.907031	-0.286342	0.900974
C224	C	1.407031	0.213658	1.400974
H225	H	0.930350	-0.339327	0.892071
H226	H	1.430350	0.160673	1.392071
H227	H	0.896248	-0.255555	0.848060
H228	H	1.396248	0.244445	1.348060
H229	H	0.853325	-0.295215	0.929651
H230	H	1.353325	0.204785	1.429651
H231	H	0.992295	-0.282160	0.619074
H232	H	1.492295	0.217840	1.119074
H233	H	0.633516	-0.438418	0.438207
H234	H	1.133516	0.061582	0.938207
