data_functionalizedCrystal
_audit_creation_method	'MofGen! by Chris Wilmer'
_symmetry_space_group_name_H-M	'P1'
_symmetry_Int_Tables_number	1
_symmetry_cell_setting	triclinic
loop_
_symmetry_equiv_pos_as_xyz
  x,y,z
_cell_length_a	10.654550
_cell_length_b	10.540539
_cell_length_c	9.730223
_cell_angle_alpha	90.000775
_cell_angle_beta	89.996251
_cell_angle_gamma	84.505197
loop_
_atom_site_label
_atom_site_type_symbol
_atom_site_fract_x
_atom_site_fract_y
_atom_site_fract_z
O1	O	1.667897	0.178295	-0.114396
O2	O	1.302424	0.195282	-0.114373
O3	O	1.493499	0.002079	-0.114383
O4	O	1.476822	0.371498	-0.114386
O5	O	1.493496	0.002084	0.114197
O6	O	1.302422	0.195287	0.114207
O7	O	1.667895	0.178300	0.114184
Zn8	Zn	1.485158	0.186794	0.150487
Zn9	Zn	1.485161	0.186788	-0.150677
O10	O	1.476820	0.371503	0.114194
C11	C	1.255625	0.194038	-0.000080
C12	C	1.116180	0.190306	-0.000072
C13	C	1.492247	-0.045221	-0.000096
C14	C	1.488505	-0.186168	-0.000103
C15	C	1.036734	0.304061	-0.000093
C16	C	0.905712	0.300547	-0.000116
C17	C	0.933595	0.069513	-0.000104
C18	C	1.064614	0.073028	-0.000071
C19	C	1.020636	0.437446	-0.000106
C20	C	0.889614	0.433932	-0.000129
C21	C	1.345134	-0.369543	-0.000607
C22	C	1.348927	-0.222926	-0.000093
C23	C	1.555675	-0.247847	0.130423
C24	C	1.550912	-0.394389	0.130533
C25	C	1.553753	-0.394914	-0.129405
C26	C	1.555039	-0.247933	-0.131131
C27	C	1.714694	0.179545	-0.000112
C28	C	1.854139	0.183276	-0.000129
C29	C	1.478072	0.418803	-0.000096
C30	C	1.481813	0.559750	-0.000098
N31	N	1.485165	0.186798	0.356024
N32	N	1.485164	0.186774	-0.356213
C33	C	1.569795	0.101277	0.427945
C34	C	1.569791	0.101261	0.571828
C35	C	1.400525	0.272299	0.571855
C36	C	1.400523	0.272308	0.427975
C37	C	1.667523	0.002533	0.427931
C38	C	1.667520	0.002518	0.571814
H39	H	1.129295	-0.019602	-0.000034
N40	N	1.057490	0.502871	0.119902
N41	N	1.171187	0.516828	0.140239
H42	H	1.197219	0.563030	0.224994
N43	N	0.832354	0.484526	0.123667
N44	N	0.843379	0.597359	0.157347
H45	H	0.802943	0.633091	0.244778
H46	H	1.331611	0.341918	0.630454
N47	N	1.497068	-0.434450	-0.253516
N48	N	1.453798	-0.353129	-0.338932
H49	H	1.413750	-0.381049	-0.426579
H50	H	1.331600	0.341935	0.369418
N51	N	1.640561	-0.119851	0.378904
N52	N	1.635998	-0.140558	0.252598
H53	H	1.616953	-0.226989	0.217969
N54	N	1.065378	0.490722	-0.123913
N55	N	0.989319	0.527681	-0.216655
H56	H	1.020918	0.565304	-0.304098
N57	N	0.880897	-0.050266	-0.000094
N58	N	0.763915	-0.053392	-0.000113
H59	H	0.726697	-0.137988	-0.000105
N60	N	0.837283	0.496926	-0.120169
N61	N	0.870486	0.456949	-0.236821
H62	H	0.833524	0.501423	-0.321603
N63	N	1.275975	-0.405422	-0.118028
N64	N	1.256957	-0.519459	-0.135804
H65	H	1.208115	-0.544809	-0.218739
H66	H	1.758718	0.033451	0.383299
H67	H	1.296074	-0.180306	-0.093659
N68	N	1.629192	-0.113152	0.627778
N69	N	1.600495	-0.199763	0.549371
H70	H	1.573422	-0.281452	0.588896
H71	H	1.764039	0.024268	0.610858
N72	N	1.276253	-0.407419	0.116167
N73	N	1.327387	-0.486261	0.199762
H74	H	1.278744	-0.513016	0.282237
H75	H	1.295701	-0.181149	0.093636
N76	N	1.488637	-0.429774	0.252931
N77	N	1.545296	-0.504751	0.336723
H78	H	1.501311	-0.529738	0.423167
H79	H	1.651295	-0.442394	0.136449
N80	N	1.684255	-0.219822	0.136502
N81	N	1.709875	-0.106672	0.142254
H82	H	1.800684	-0.086874	0.146543
H83	H	1.509014	-0.205228	0.227563
H84	H	1.505891	-0.207059	-0.227690
H85	H	1.656802	-0.223748	-0.139019
H86	H	1.654570	-0.442176	-0.130289
