data_functionalizedCrystal
_audit_creation_method	'MofGen! by Chris Wilmer'
_symmetry_space_group_name_H-M	'P1'
_symmetry_Int_Tables_number	1
_symmetry_cell_setting	triclinic
loop_
_symmetry_equiv_pos_as_xyz
  x,y,z
_cell_length_a	18.050591
_cell_length_b	18.050589
_cell_length_c	18.050583
_cell_angle_alpha	90.031910
_cell_angle_beta	90.022021
_cell_angle_gamma	90.024227
loop_
_atom_site_label
_atom_site_type_symbol
_atom_site_fract_x
_atom_site_fract_y
_atom_site_fract_z
Zn1	Zn	1.135301	-0.295685	0.420054
Zn2	Zn	1.135209	-0.419898	0.295873
Zn3	Zn	1.011117	-0.295718	0.295865
Zn4	Zn	1.011068	-0.419829	0.420009
O5	O	1.073174	-0.357783	0.357950
O6	O	1.239213	-0.312178	0.403604
O7	O	1.118730	-0.403468	0.191948
O8	O	1.027650	-0.191789	0.312354
O9	O	1.239146	-0.403436	0.312369
O10	O	1.118887	-0.191765	0.403595
O11	O	1.027561	-0.312233	0.191942
O12	O	0.907186	-0.312166	0.312311
O13	O	1.027565	-0.403319	0.523940
O14	O	0.907150	-0.403350	0.403519
O15	O	1.118838	-0.312111	0.523973
O16	O	1.118682	-0.523814	0.312325
O17	O	1.027476	-0.523763	0.403527
C18	C	0.880222	-0.357755	0.357909
C19	C	0.797676	-0.357761	0.357909
C20	C	0.598223	-0.308118	0.308425
C21	C	0.548803	-0.375858	0.290154
C22	C	0.646545	-0.357784	0.357943
C23	C	0.548884	-0.290067	0.376212
C24	C	0.500560	-0.357799	0.357974
C25	C	0.598213	-0.425559	0.339637
C26	C	0.598297	-0.339723	0.425726
C27	C	0.548900	-0.407510	0.407481
C28	C	0.730644	-0.357774	0.357923
C29	C	0.416464	-0.357817	0.357994
C30	C	1.073084	-0.550735	0.357938
C31	C	1.073114	-0.633281	0.357958
C32	C	1.023565	-0.832731	0.407536
C33	C	1.005465	-0.882180	0.339767
C34	C	1.073187	-0.784411	0.357967
C35	C	1.091322	-0.882044	0.425744
C36	C	1.073256	-0.930396	0.357983
C37	C	1.055052	-0.832773	0.290162
C38	C	1.140940	-0.832632	0.376186
C39	C	1.122867	-0.882059	0.308370
C40	C	1.073145	-0.700313	0.357959
C41	C	1.073297	-1.014493	0.357983
C42	C	1.266879	-0.357811	0.357992
C43	C	1.349425	-0.357823	0.358010
C44	C	1.073207	-0.357703	0.551656
C45	C	1.073221	-0.357670	0.634202
C46	C	1.073284	-0.164077	0.357979
C47	C	1.073331	-0.081531	0.357991
C48	C	1.073184	-0.357808	0.164998
C49	C	1.073314	-0.357633	0.082453
C50	C	1.122905	-0.308047	0.833671
C51	C	1.055171	-0.289866	0.883057
C52	C	1.073250	-0.357657	0.785332
C53	C	1.141011	-0.375791	0.883028
C54	C	1.073285	-0.357643	0.931317
C55	C	1.005481	-0.339441	0.833631
C56	C	1.091367	-0.425397	0.833598
C57	C	1.023586	-0.407242	0.882962
C58	C	1.073231	-0.357663	0.701234
C59	C	1.073296	-0.357637	1.015414
H60	H	0.527176	-0.232801	0.391625
C61	C	0.627418	-0.319210	0.502052
C62	C	0.671196	-0.255387	0.496712
C63	C	0.698044	-0.236464	0.567006
H64	H	0.586956	-0.310051	0.534413
H65	H	0.656411	-0.358828	0.520992
H66	H	0.642204	-0.215778	0.477782
H67	H	0.711668	-0.264529	0.464365
H68	H	0.727036	-0.276082	0.585946
H69	H	0.657578	-0.227308	0.599361
H70	H	0.727755	-0.193163	0.563391
C71	C	1.217304	-0.803548	0.396601
C72	C	1.245165	-0.760941	0.338103
C73	C	1.315514	-0.734145	0.356888
H74	H	1.213813	-0.773772	0.439865
H75	H	1.249623	-0.844054	0.405749
H76	H	1.212854	-0.720441	0.328964
H77	H	1.248674	-0.790701	0.294834
H78	H	1.347833	-0.774651	0.366036
H79	H	1.312016	-0.704372	0.400152
H80	H	1.334429	-0.705239	0.317198
C81	C	0.967415	-0.803883	0.463253
C82	C	0.896613	-0.828978	0.443835
C83	C	0.844869	-0.802409	0.495134
H84	H	0.979702	-0.821461	0.511301
H85	H	0.968047	-0.751254	0.463164
H86	H	0.895984	-0.881596	0.443932
H87	H	0.884303	-0.811402	0.395795
H88	H	0.845500	-0.749780	0.495046
H89	H	0.857162	-0.819989	0.543180
H90	H	0.796823	-0.819426	0.481963
H91	H	0.619880	-0.266162	0.266503
H92	H	0.619791	-0.482850	0.324134
C93	C	0.967438	-0.463077	0.911607
C94	C	0.896657	-0.443741	0.886457
C95	C	0.844912	-0.495149	0.912839
H96	H	0.979785	-0.511087	0.893939
H97	H	0.967994	-0.463046	0.964237
H98	H	0.896103	-0.443780	0.833837
H99	H	0.884287	-0.395739	0.904122
H100	H	0.845469	-0.495118	0.965470
H101	H	0.857266	-0.543156	0.895170
H102	H	0.796881	-0.482032	0.895785
H103	H	1.198301	-0.391133	0.904728
H104	H	0.948201	-0.903959	0.324371
C105	C	1.111896	-0.910860	0.502137
C106	C	1.182321	-0.884695	0.521512
C107	C	1.201296	-0.911230	0.591876
H108	H	1.076641	-0.893987	0.537363
H109	H	1.112262	-0.963488	0.501494
H110	H	1.181950	-0.832078	0.522161
H111	H	1.217591	-0.901565	0.486305
H112	H	1.201662	-0.963858	0.591233
H113	H	1.166036	-0.894356	0.627096
H114	H	1.249083	-0.893486	0.605028
C115	C	1.111657	-0.501793	0.804561
C116	C	1.053109	-0.529631	0.761918
C117	C	1.071779	-0.600009	0.735164
H118	H	1.154922	-0.498351	0.774819
H119	H	1.120760	-0.534098	0.845087
H120	H	1.044016	-0.497334	0.721398
H121	H	1.009839	-0.533091	0.791644
H122	H	1.080882	-0.632313	0.775690
H123	H	1.115045	-0.596560	0.705425
H124	H	1.032055	-0.618908	0.706234
C125	C	1.178707	-0.251958	0.804842
C126	C	1.159405	-0.181126	0.829890
C127	C	1.210782	-0.129437	0.803339
H128	H	1.226738	-0.264272	0.822463
H129	H	1.178609	-0.252620	0.752213
H130	H	1.159511	-0.180466	0.882509
H131	H	1.111382	-0.168789	0.812271
H132	H	1.210685	-0.130099	0.750710
H133	H	1.258811	-0.141758	0.820962
H134	H	1.197690	-0.081371	0.820324
C135	C	1.178751	-0.910870	0.252369
C136	C	1.142268	-0.954595	0.199652
C137	C	1.193721	-0.981157	0.148057
H138	H	1.202101	-0.870276	0.228380
H139	H	1.215048	-0.939836	0.277123
H140	H	1.105984	-0.925630	0.174901
H141	H	1.118922	-0.995199	0.223620
H142	H	1.230019	-1.010123	0.172810
H143	H	1.217068	-0.940560	0.124073
H144	H	1.168977	-1.010833	0.112287
H145	H	0.527065	-0.391146	0.232844
C146	C	1.034520	-0.803895	0.213782
C147	C	1.034674	-0.726333	0.214678
C148	C	1.015751	-0.699705	0.144336
H149	H	1.069542	-0.821100	0.178484
H150	H	0.986545	-0.821232	0.200760
H151	H	1.082641	-0.709004	0.227691
H152	H	0.999651	-0.709109	0.249960
H153	H	0.967776	-0.717041	0.131314
H154	H	1.050775	-0.716915	0.109044
H155	H	1.015846	-0.647077	0.144936
C156	C	0.520236	-0.463700	0.463237
C157	C	0.545350	-0.534461	0.443783
C158	C	0.518950	-0.586245	0.495119
H159	H	0.537915	-0.451375	0.511261
H160	H	0.467606	-0.463162	0.463223
H161	H	0.597969	-0.534997	0.443806
H162	H	0.527673	-0.546810	0.395768
H163	H	0.466320	-0.585706	0.495104
H164	H	0.536631	-0.573912	0.543140
H165	H	0.535981	-0.634262	0.481923
H166	H	0.948174	-0.324031	0.812025
H167	H	1.039859	-0.232573	0.904782
