data_functionalizedCrystal
_audit_creation_method	'MofGen! by Chris Wilmer'
_symmetry_space_group_name_H-M	'P1'
_symmetry_Int_Tables_number	1
_symmetry_cell_setting	triclinic
loop_
_symmetry_equiv_pos_as_xyz
  x,y,z
_cell_length_a	10.686220
_cell_length_b	10.686285
_cell_length_c	10.686551
_cell_angle_alpha	80.915481
_cell_angle_beta	90.308082
_cell_angle_gamma	90.345431
loop_
_atom_site_label
_atom_site_type_symbol
_atom_site_fract_x
_atom_site_fract_y
_atom_site_fract_z
Zn1	Zn	1.994012	-0.307898	-0.537149
Zn2	Zn	1.993911	-0.536485	-0.308653
Zn3	Zn	1.770410	-0.340205	-0.340818
Zn4	Zn	1.800161	-0.533926	-0.534641
O5	O	1.889623	-0.429629	-0.430315
O6	O	2.168662	-0.325771	-0.494427
O7	O	1.951770	-0.525040	-0.136178
O8	O	1.787663	-0.159182	-0.381372
O9	O	2.168588	-0.493713	-0.326552
O10	O	1.951942	-0.135446	-0.525615
O11	O	1.787565	-0.380834	-0.159810
O12	O	1.599693	-0.378352	-0.378940
O13	O	1.838368	-0.489351	-0.711715
O14	O	1.621551	-0.520678	-0.521341
O15	O	1.980790	-0.323289	-0.713557
O16	O	1.980618	-0.712883	-0.324121
O17	O	1.838270	-0.711003	-0.490153
C18	C	1.565334	-0.452744	-0.453360
C19	C	1.426605	-0.462661	-0.463246
C20	C	1.912697	-0.757764	-0.403399
C21	C	1.922686	-0.898130	-0.391919
C22	C	2.215179	-0.406424	-0.407181
C23	C	2.353912	-0.396535	-0.397323
C24	C	1.912909	-0.402431	-0.759745
C25	C	1.922832	-0.390841	-0.900128
C26	C	1.866495	-0.100207	-0.457361
C27	C	1.856639	0.040173	-0.468887
C28	C	1.866493	-0.456624	-0.102170
C29	C	1.856787	-0.467841	0.038201
H30	H	1.382704	-0.526872	-0.527245
O31	O	1.780427	-0.557238	-0.896701
C32	C	1.818776	-0.678542	-0.916598
H33	H	1.921473	-0.674838	-0.945342
H34	H	1.806352	-0.748789	-0.825428
H35	H	1.759514	-0.710091	-0.995109
O36	O	1.999168	-0.301480	-0.965338
C37	C	1.927714	-0.218766	-1.053413
H38	H	1.826078	-0.221227	-1.021212
H39	H	1.966142	-0.118218	-1.059805
H40	H	1.933145	-0.249965	-1.150440
O41	O	1.780155	-0.894860	-0.558151
C42	C	1.818510	-0.914576	-0.679528
H43	H	1.873404	-1.006694	-0.671030
H44	H	1.732696	-0.920768	-0.742137
H45	H	1.880440	-0.832211	-0.723567
H46	H	1.397808	-0.332337	-0.333320
O47	O	1.999282	-0.963403	-0.302952
C48	C	1.992548	-1.093722	-0.310909
H49	H	1.959682	-1.106486	-0.409792
H50	H	2.088990	-1.137867	-0.291785
H51	H	1.923530	-1.142191	-0.237585
