data_functionalizedCrystal
_audit_creation_method	'MofGen! by Chris Wilmer'
_symmetry_space_group_name_H-M	'P1'
_symmetry_Int_Tables_number	1
_symmetry_cell_setting	triclinic
loop_
_symmetry_equiv_pos_as_xyz
  x,y,z
_cell_length_a	12.759401
_cell_length_b	12.759399
_cell_length_c	12.759393
_cell_angle_alpha	89.972548
_cell_angle_beta	89.978780
_cell_angle_gamma	90.012978
loop_
_atom_site_label
_atom_site_type_symbol
_atom_site_fract_x
_atom_site_fract_y
_atom_site_fract_z
Zn1	Zn	-1.606234	0.418288	0.594121
Zn2	Zn	-1.606130	0.594004	0.418450
Zn3	Zn	-1.430540	0.418332	0.418447
Zn4	Zn	-1.430522	0.593918	0.594079
O5	O	-1.518357	0.506135	0.506274
O6	O	-1.753241	0.441615	0.570836
O7	O	-1.582802	0.570755	0.271429
O8	O	-1.453898	0.271305	0.441767
O9	O	-1.753165	0.570713	0.441772
O10	O	-1.582979	0.271273	0.570833
O11	O	-1.453797	0.441689	0.271427
O12	O	-1.283517	0.441605	0.441727
O13	O	-1.453866	0.570566	0.741106
O14	O	-1.283503	0.570608	0.570762
O15	O	-1.582961	0.441531	0.741136
O16	O	-1.582784	0.741014	0.441732
O17	O	-1.453765	0.740950	0.570765
C18	C	-1.245389	0.506103	0.506240
C19	C	-1.128613	0.506114	0.506251
C20	C	-1.073727	0.438852	0.439182
C21	C	-0.964003	0.438874	0.439190
C22	C	-0.964060	0.573422	0.573343
C23	C	-1.073782	0.573405	0.573330
C24	C	-1.073693	0.361169	0.361733
C25	C	-0.963969	0.361191	0.361741
C26	C	-1.518290	0.779103	0.506267
C27	C	-1.518357	0.895879	0.506299
C28	C	-1.585611	0.950739	0.439189
C29	C	-1.585674	1.060463	0.439227
C30	C	-1.451220	1.060457	0.573490
C31	C	-1.451164	0.950735	0.573456
C32	C	-1.663234	0.950744	0.361670
C33	C	-1.663296	1.060468	0.361709
C34	C	-0.792390	0.506161	0.506296
C35	C	-0.909166	0.506153	0.506272
C36	C	-1.518448	1.232102	0.506318
C37	C	-1.518477	1.115325	0.506372
C38	C	-1.518423	0.506034	0.780308
C39	C	-1.518452	0.505991	0.897084
C40	C	-1.518351	0.506160	0.233307
C41	C	-1.518526	0.505908	0.116531
C42	C	-1.585675	0.573123	1.061669
C43	C	-1.585635	0.573168	0.951944
C44	C	-1.451295	0.438772	0.951954
C45	C	-1.451330	0.438734	1.061677
C46	C	-1.663238	0.650712	1.061662
C47	C	-1.663199	0.650757	0.951938
H48	H	-1.396410	0.906069	0.628112
H49	H	-1.396640	0.384012	1.106341
C50	C	-1.846178	0.694510	0.948320
C51	C	-1.773035	0.621354	0.911735
H52	H	-1.913983	0.676352	0.923503
H53	H	-1.827975	0.762308	0.923500
H54	H	-1.846194	0.694469	1.022770
H55	H	-1.773014	0.621401	0.837283
H56	H	-1.791243	0.553539	0.936549
H57	H	-1.107745	0.283907	0.391008
H58	H	-1.740599	1.094417	0.390928
C59	C	-1.839691	0.995728	0.409122
C60	C	-1.773037	0.910432	0.391182
H61	H	-1.907475	0.970838	0.427347
H62	H	-1.844171	1.037125	0.347399
H63	H	-1.812639	1.037056	0.464801
H64	H	-1.800085	0.869107	0.335497
H65	H	-1.768561	0.869017	0.452912
H66	H	-0.929899	0.390246	0.284397
C67	C	-1.616073	1.015497	0.185193
C68	C	-1.633944	1.100788	0.251856
H69	H	-1.597945	1.040392	0.117381
H70	H	-1.677792	0.974100	0.180803
H71	H	-1.560347	0.974166	0.212177
H72	H	-1.689675	1.142116	0.224875
H73	H	-1.572218	1.142203	0.256242
H74	H	-1.396587	0.384082	0.907279
H75	H	-1.634111	0.916794	0.284340
C76	C	-1.062813	0.706407	0.705925
C77	C	-1.134113	0.647348	0.647046
H78	H	-1.100061	0.752054	0.751439
H79	H	-1.019994	0.746538	0.660084
H80	H	-1.020039	0.660680	0.746199
H81	H	-1.176882	0.693075	0.606766
H82	H	-1.176951	0.607214	0.692893
C83	C	-0.795888	0.633192	0.632931
C84	C	-0.903786	0.647378	0.647081
H85	H	-0.758682	0.678846	0.678461
H86	H	-0.777879	0.648489	0.562325
H87	H	-0.777928	0.562620	0.648429
H88	H	-0.921748	0.717949	0.631576
H89	H	-0.921803	0.632088	0.717703
H90	H	-0.934206	0.279850	0.383671
H91	H	-1.641429	0.732070	1.091426
C92	C	-1.318320	1.049430	0.706205
C93	C	-1.377362	1.120758	0.647305
H94	H	-1.272728	1.086657	0.751780
H95	H	-1.278133	1.006708	0.660380
H96	H	-1.364063	1.006562	0.746414
H97	H	-1.331620	1.163621	0.607090
H98	H	-1.417552	1.163498	0.693136
H99	H	-1.103427	0.382857	0.280322
C100	C	-1.812406	0.690218	1.169386
C101	C	-1.767606	0.611366	1.107626
H102	H	-1.876835	0.665920	1.197767
H103	H	-1.824859	0.750478	1.127472
H104	H	-1.765913	0.707718	1.224816
H105	H	-1.814096	0.593871	1.052191
H106	H	-1.755158	0.551087	1.149543
C107	C	-1.597905	0.823580	0.987695
C108	C	-1.623757	0.755095	0.905973
H109	H	-1.573544	0.887986	0.959314
H110	H	-1.544466	0.793121	1.029608
H111	H	-1.658183	0.836091	1.029576
H112	H	-1.563477	0.742577	0.864096
H113	H	-1.677201	0.785560	0.864042
