data_functionalizedCrystal
_audit_creation_method	'MofGen! by Chris Wilmer'
_symmetry_space_group_name_H-M	'P1'
_symmetry_Int_Tables_number	1
_symmetry_cell_setting	triclinic
loop_
_symmetry_equiv_pos_as_xyz
  x,y,z
_cell_length_a	19.188933
_cell_length_b	19.188930
_cell_length_c	14.048226
_cell_angle_alpha	90.007371
_cell_angle_beta	90.006708
_cell_angle_gamma	83.145175
loop_
_atom_site_label
_atom_site_type_symbol
_atom_site_fract_x
_atom_site_fract_y
_atom_site_fract_z
O1	O	0.926148	0.087171	0.079140
O2	O	1.259481	0.420504	0.412473
O3	O	1.592815	0.753838	0.745806
O4	O	0.722837	0.098904	0.079150
O5	O	1.056170	0.432237	0.412483
O6	O	1.389503	0.765571	0.745816
O7	O	0.830360	-0.008618	0.079126
O8	O	1.163693	0.324715	0.412459
O9	O	1.497026	0.658049	0.745792
O10	O	0.818625	0.194693	0.079164
O11	O	1.151959	0.528026	0.412497
O12	O	1.485292	0.861360	0.745830
O13	O	0.830342	-0.008615	-0.079196
O14	O	1.163676	0.324718	0.254138
O15	O	1.497009	0.658051	0.587471
O16	O	0.722820	0.098907	-0.079171
O17	O	1.056153	0.432240	0.254162
O18	O	1.389486	0.765573	0.587495
O19	O	0.926131	0.087174	-0.079182
O20	O	1.259464	0.420507	0.254152
O21	O	1.592797	0.753840	0.587485
Zn22	Zn	0.824472	0.093041	-0.104314
Zn23	Zn	1.157806	0.426374	0.229020
Zn24	Zn	1.491139	0.759707	0.562353
Zn25	Zn	0.824495	0.093037	0.104282
Zn26	Zn	1.157828	0.426370	0.437615
Zn27	Zn	1.491162	0.759704	0.770948
O28	O	0.818608	0.194696	-0.079158
O29	O	1.151941	0.528029	0.254176
O30	O	1.485275	0.861362	0.587509
C31	C	0.696817	0.098525	-0.000010
C32	C	1.030151	0.431858	0.333324
C33	C	1.363484	0.765192	0.666657
C34	C	0.619313	0.097384	-0.000007
C35	C	0.952646	0.430717	0.333327
C36	C	1.285979	0.764050	0.666660
C37	C	0.829971	-0.034628	-0.000038
C38	C	1.163304	0.298706	0.333296
C39	C	1.496638	0.632039	0.666629
C40	C	0.828830	-0.112132	-0.000046
C41	C	1.162163	0.221201	0.333288
C42	C	1.495497	0.554534	0.666621
C43	C	0.066067	0.089237	0.086283
C44	C	0.399400	0.422570	0.419616
C45	C	0.732733	0.755904	0.752949
C46	C	0.138891	0.090305	0.086286
C47	C	0.472224	0.423639	0.419620
C48	C	0.805558	0.756972	0.752953
C49	C	0.175299	0.090844	-0.000014
C50	C	0.508632	0.424177	0.333319
C51	C	0.841965	0.757511	0.666653
C52	C	0.138878	0.090297	-0.086325
C53	C	0.472212	0.423630	0.247008
C54	C	0.805545	0.756963	0.580342
C55	C	0.066056	0.089222	-0.086326
C56	C	0.399390	0.422555	0.247007
C57	C	0.732723	0.755888	0.580340
N58	N	0.284312	0.132264	-0.064244
N59	N	0.617645	0.465597	0.269089
N60	N	0.950978	0.798930	0.602423
N61	N	0.353489	0.133286	-0.064237
N62	N	0.686823	0.466620	0.269097
N63	N	1.020156	0.799953	0.602430
C64	C	0.394707	0.094082	-0.000015
C65	C	0.728041	0.427415	0.333318
C66	C	1.061374	0.760749	0.666652
N67	N	0.364133	0.053825	0.064214
N68	N	0.697467	0.387158	0.397547
N69	N	1.030800	0.720491	0.730880
N70	N	0.294949	0.052805	0.064209
N71	N	0.628282	0.386138	0.397542
N72	N	0.961615	0.719472	0.730876
C73	C	0.254262	0.092009	-0.000022
C74	C	0.587595	0.425343	0.333311
C75	C	0.920929	0.758676	0.666644
C76	C	0.510084	0.095782	0.086294
C77	C	0.843417	0.429116	0.419628
C78	C	1.176751	0.762449	0.752961
C79	C	0.582910	0.096846	0.086295
C80	C	0.916243	0.430180	0.419628
C81	C	1.249577	0.763513	0.752961
C82	C	0.582895	0.096845	-0.086319
C83	C	0.916228	0.430178	0.247014
C84	C	1.249562	0.763511	0.580347
C85	C	0.510071	0.095774	-0.086317
C86	C	0.843404	0.429107	0.247016
C87	C	1.176738	0.762441	0.580350
C88	C	0.473669	0.095246	-0.000007
C89	C	0.807003	0.428579	0.333326
C90	C	1.140336	0.761913	0.666659
C91	C	0.891921	-0.157056	-0.000053
C92	C	1.225254	0.176278	0.333280
C93	C	1.558588	0.509611	0.666613
C94	C	0.890849	-0.229880	-0.000038
C95	C	1.224183	0.103454	0.333295
C96	C	1.557516	0.436787	0.666629
C97	C	0.826683	-0.257777	-0.000034
C98	C	1.160017	0.075557	0.333299
C99	C	1.493350	0.408890	0.666632
C100	C	0.763584	-0.212843	-0.000021
C101	C	1.096917	0.120490	0.333312
C102	C	1.430251	0.453823	0.666646
C103	C	0.764658	-0.140021	-0.000027
C104	C	1.097991	0.193312	0.333306
C105	C	1.431324	0.526646	0.666640
N106	N	0.777630	-0.365781	-0.053912
N107	N	1.110963	-0.032448	0.279422
N108	N	1.444297	0.300886	0.612755
N109	N	0.776615	-0.434960	-0.053908
N110	N	1.109948	-0.101626	0.279425
N111	N	1.443281	0.231707	0.612759
C112	C	0.823445	-0.477185	-0.000015
C113	C	1.156778	-0.143852	0.333319
C114	C	1.490112	0.189481	0.666652
N115	N	0.871340	-0.447620	0.053863
N116	N	1.204673	-0.114287	0.387196
N117	N	1.538007	0.219046	0.720530
N118	N	0.872358	-0.378436	0.053855
N119	N	1.205691	-0.045102	0.387189
N120	N	1.539024	0.288231	0.720522
C121	C	0.825512	-0.336739	-0.000027
C122	C	1.158845	-0.003406	0.333306
C123	C	1.492179	0.329927	0.666639
C124	C	0.885378	-0.601073	-0.000005
C125	C	1.218712	-0.267740	0.333329
C126	C	1.552045	0.065593	0.666662
C127	C	0.884304	-0.673898	0.000017
C128	C	1.217637	-0.340565	0.333350
C129	C	1.550971	-0.007231	0.666683
C130	C	0.757037	-0.656860	0.000024
C131	C	1.090370	-0.323527	0.333357
C132	C	1.423704	0.009807	0.666691
C133	C	0.758113	-0.584037	0.000012
C134	C	1.091446	-0.250704	0.333346
C135	C	1.424780	0.082630	0.666679
C136	C	0.822286	-0.556148	-0.000006
C137	C	1.155619	-0.222815	0.333327
C138	C	1.488952	0.110518	0.666660
C139	C	0.952150	0.087553	-0.000020
C140	C	1.285484	0.420886	0.333313
C141	C	1.618817	0.754219	0.666647
C142	C	1.029655	0.088694	-0.000017
C143	C	1.362988	0.422027	0.333316
C144	C	1.696321	0.755360	0.666650
C145	C	0.818997	0.220705	0.000008
C146	C	1.152330	0.554039	0.333341
C147	C	1.485663	0.887372	0.666674
C148	C	0.820137	0.298210	0.000022
C149	C	1.153471	0.631543	0.333355
C150	C	1.486804	0.964877	0.666689
N151	N	0.824462	0.093043	-0.246674
N152	N	1.157795	0.426376	0.086659
N153	N	1.491129	0.759709	0.419992
C154	C	0.872129	0.045438	-0.703524
C155	C	1.205462	0.378771	-0.370191
C156	C	1.538795	0.712105	-0.036858
C157	C	0.872122	0.045443	-0.603867
C158	C	1.205456	0.378776	-0.270533
C159	C	1.538789	0.712110	0.062800
C160	C	0.824495	0.093036	-0.554044
C161	C	1.157828	0.426370	-0.220711
C162	C	1.491161	0.759703	0.112622
C163	C	0.776875	0.140633	-0.603885
C164	C	1.110208	0.473966	-0.270551
C165	C	1.443541	0.807299	0.062782
C166	C	0.776885	0.140631	-0.703540
C167	C	1.110218	0.473964	-0.370207
C168	C	1.443552	0.807297	-0.036874
C169	C	0.776856	0.140633	-0.396170
C170	C	1.110189	0.473966	-0.062837
C171	C	1.443522	0.807299	0.270496
C172	C	0.776844	0.140634	-0.296508
C173	C	1.110178	0.473967	0.036826
C174	C	1.443511	0.807301	0.370159
C175	C	0.872093	0.045445	-0.296497
C176	C	1.205426	0.378778	0.036837
C177	C	1.538760	0.712111	0.370170
C178	C	0.872103	0.045443	-0.396152
C179	C	1.205437	0.378776	-0.062819
C180	C	1.538770	0.712109	0.270514
C181	C	0.824482	0.093038	-0.445986
C182	C	1.157816	0.426372	-0.112653
C183	C	1.491149	0.759705	0.220681
N184	N	0.824511	0.093029	0.246642
N185	N	1.157844	0.426363	0.579976
N186	N	1.491178	0.759696	0.913309
H187	H	0.036433	0.088805	0.156563
H188	H	0.369767	0.422138	0.489896
H189	H	0.703100	0.755471	0.823229
H190	H	0.168526	0.090734	-0.156592
H191	H	0.501859	0.424067	0.176742
H192	H	0.835193	0.757401	0.510075
F193	F	0.471341	0.095217	0.178151
F194	F	0.804674	0.428550	0.511484
F195	F	1.138007	0.761883	0.844818
F196	F	0.697505	-0.092208	-0.000018
F197	F	1.030838	0.241125	0.333315
F198	F	1.364171	0.574459	0.666648
H199	H	0.480424	0.095334	-0.156591
H200	H	0.813757	0.428667	0.176742
H201	H	1.147090	0.762001	0.510075
F202	F	0.958002	-0.277699	-0.000045
F203	F	1.291335	0.055634	0.333288
F204	F	1.624668	0.388967	0.666622
F205	F	0.953675	-0.571389	-0.000029
F206	F	1.287009	-0.238056	0.333304
F207	F	1.620342	0.095277	0.666637
H208	H	0.036410	0.088782	-0.156604
H209	H	0.369743	0.422115	0.176729
H210	H	0.703076	0.755448	0.510063
F211	F	0.726205	0.191286	-0.756575
F212	F	1.059539	0.524620	-0.423242
F213	F	1.392872	0.857953	-0.089909
H214	H	0.910910	0.006679	-0.744083
H215	H	1.244243	0.340013	-0.410750
H216	H	1.577576	0.673346	-0.077417
H217	H	0.910897	0.006691	-0.563293
H218	H	1.244230	0.340024	-0.229959
H219	H	1.577563	0.673358	0.103374
H220	H	0.935682	-0.710475	0.000016
H221	H	1.269016	-0.377142	0.333349
H222	H	1.602349	-0.043808	0.666682
F223	F	0.922773	-0.005210	-0.243456
F224	F	1.256107	0.328123	0.089877
F225	F	1.589440	0.661456	0.423210
F226	F	0.922789	-0.005215	-0.449178
F227	F	1.256123	0.328119	-0.115844
F228	F	1.589456	0.661452	0.217489
H229	H	0.738080	0.179392	-0.436741
H230	H	1.071413	0.512726	-0.103408
H231	H	1.404746	0.846059	0.229925
F232	F	0.177651	0.090885	0.178142
F233	F	0.510985	0.424218	0.511475
F234	F	0.844318	0.757551	0.844808
H235	H	0.738098	0.179388	-0.563313
H236	H	1.071431	0.512721	-0.229980
H237	H	1.404764	0.846054	0.103353
H238	H	0.612556	0.097283	0.156573
H239	H	0.945890	0.430617	0.489906
H240	H	1.279223	0.763950	0.823240
H241	H	0.944175	-0.134354	-0.000066
H242	H	1.277509	0.198979	0.333268
H243	H	1.610842	0.532313	0.666601
H244	H	0.612538	0.097281	-0.156587
H245	H	0.945871	0.430614	0.176747
H246	H	1.279204	0.763947	0.510080
F247	F	0.695294	-0.242534	-0.000011
F248	F	1.028627	0.090799	0.333323
F249	F	1.361961	0.424132	0.666656
H250	H	0.706738	-0.547459	0.000013
H251	H	1.040071	-0.214126	0.333347
H252	H	1.373404	0.119208	0.666680
F253	F	0.688746	-0.686545	0.000033
F254	F	1.022079	-0.353212	0.333366
F255	F	1.355413	-0.019879	0.666700
H256	H	0.738062	0.179390	-0.255947
H257	H	1.071395	0.512724	0.077386
H258	H	1.404728	0.846057	0.410719
