data_functionalizedCrystal
_audit_creation_method	'MofGen! by Chris Wilmer'
_symmetry_space_group_name_H-M	'P1'
_symmetry_Int_Tables_number	1
_symmetry_cell_setting	triclinic
loop_
_symmetry_equiv_pos_as_xyz
  x,y,z
_cell_length_a	11.792241
_cell_length_b	10.654541
_cell_length_c	10.868271
_cell_angle_alpha	89.995097
_cell_angle_beta	89.999893
_cell_angle_gamma	84.338672
loop_
_atom_site_label
_atom_site_type_symbol
_atom_site_fract_x
_atom_site_fract_y
_atom_site_fract_z
O1	O	-1.507305	-0.172136	0.102202
O2	O	-1.177004	-0.189877	0.102231
O3	O	-1.349750	0.001754	0.102208
O4	O	-1.334559	-0.363768	0.102225
O5	O	-1.349736	0.001762	-0.102436
O6	O	-1.176990	-0.189869	-0.102414
O7	O	-1.507290	-0.172129	-0.102443
Zn8	Zn	-1.342138	-0.180998	-0.134920
Zn9	Zn	-1.342157	-0.181008	0.134708
O10	O	-1.334545	-0.363760	-0.102420
C11	C	-1.134704	-0.188759	-0.000088
C12	C	-1.008682	-0.185423	-0.000077
C13	C	-1.549591	-0.173247	-0.000121
C14	C	-1.675612	-0.176582	-0.000124
C15	C	-0.777956	-0.179290	-0.000113
C16	C	-0.906349	-0.182698	-0.000093
C17	C	-1.348628	0.048553	-0.000113
C18	C	-1.345293	0.187987	-0.000111
C19	C	-1.335667	-0.410559	-0.000096
C20	C	-1.339002	-0.549993	-0.000090
N21	N	-1.342133	-0.180990	-0.318934
C22	C	-1.551857	0.216542	-0.000144
C23	C	-1.653568	0.296324	-0.000163
C24	C	-1.650427	0.427333	-0.000159
C25	C	-1.545564	0.478562	-0.000132
C26	C	-1.443853	0.398780	-0.000113
C27	C	-1.447006	0.267770	-0.000121
C28	C	-1.237292	0.370225	-0.000071
C29	C	-1.240430	0.239216	-0.000084
C30	C	-1.132429	0.421454	-0.000044
C31	C	-1.030716	0.341672	-0.000034
C32	C	-1.033861	0.210655	-0.000039
C33	C	-1.138720	0.159434	-0.000065
C34	C	-1.342151	-0.181005	-0.569940
C35	C	-1.342137	-0.181001	-0.430263
N36	N	-1.342170	-0.181005	0.318722
H37	H	-1.554425	0.109869	-0.000164
H38	H	-1.141291	0.052761	-0.000077
H39	H	-1.129879	0.528129	-0.000033
F40	F	-1.765165	0.241794	-0.000186
H41	H	-1.733248	0.492293	-0.000165
F42	F	-0.919126	0.396201	0.000008
H43	H	-1.543016	0.585238	-0.000114
F44	F	-0.925604	0.125754	-0.000010
