data_functionalizedCrystal
_audit_creation_method	'MofGen! by Chris Wilmer'
_symmetry_space_group_name_H-M	'P1'
_symmetry_Int_Tables_number	1
_symmetry_cell_setting	triclinic
loop_
_symmetry_equiv_pos_as_xyz
  x,y,z
_cell_length_a	6.817900
_cell_length_b	12.908943
_cell_length_c	11.102193
_cell_angle_alpha	94.412660
_cell_angle_beta	108.603963
_cell_angle_gamma	100.860631
loop_
_atom_site_label
_atom_site_type_symbol
_atom_site_fract_x
_atom_site_fract_y
_atom_site_fract_z
V1	V	-4.022080	-0.328682	-0.174252
O2	O	-3.982824	-0.322425	0.010006
O3	O	-3.999459	-0.326433	-0.347083
O4	O	-3.959852	-0.472031	-0.170856
O5	O	-4.022706	-0.175819	-0.167441
V6	V	-4.504159	-0.310398	-0.152298
O7	O	-4.286505	-0.368788	-0.222412
O8	O	-4.689931	-0.270292	-0.104138
O9	O	-4.303573	-0.312646	0.020533
O10	O	-4.660811	-0.316654	-0.336556
O11	O	-4.620930	-0.463260	-0.159109
O12	O	-4.343180	-0.167049	-0.155694
C13	C	-3.851179	-0.321248	-0.389238
C14	C	-3.913879	-0.320365	-0.530525
C15	C	-3.760763	-0.314697	-0.590459
C16	C	-3.819689	-0.313870	-0.723214
C17	C	-4.184858	-0.324383	-0.736089
C18	C	-4.125929	-0.325203	-0.603336
C19	C	-3.549937	-0.308632	-0.583027
C20	C	-3.608863	-0.307805	-0.715782
C21	C	-3.800655	-0.506971	-0.164441
C22	C	-3.831232	-0.624160	-0.162807
C23	C	-4.253820	-0.855107	-0.172350
C24	C	-4.282559	-0.965217	-0.170815
C25	C	-3.917446	-0.954491	-0.158195
C26	C	-3.888708	-0.844381	-0.159730
C27	C	-4.056903	-0.794693	-0.166809
C28	C	-4.028166	-0.684582	-0.168352
C29	C	-3.663052	-0.673857	-0.155723
C30	C	-3.691791	-0.783967	-0.154189
C31	C	-4.115196	-0.317829	0.062681
C32	C	-4.031734	-0.318718	0.203967
C33	C	-4.165720	-0.132103	-0.162113
C34	C	-4.114381	-0.014913	-0.163740
H35	H	-3.534862	-0.229195	-0.740648
H36	H	-4.165124	-0.644129	-0.174122
H37	H	-3.554856	-0.824437	-0.148421
H38	H	-3.502707	-0.624657	-0.151216
H39	H	-4.390779	-0.814652	-0.178127
O40	O	-4.473829	-1.024041	-0.176370
C41	C	-4.771522	-1.168852	-0.292556
C42	C	-4.554902	-1.102333	-0.286407
H43	H	-4.837155	-1.232152	-0.381528
H44	H	-4.751130	-1.209193	-0.202916
H45	H	-4.886724	-1.114394	-0.297816
H46	H	-4.439587	-1.156717	-0.281189
H47	H	-4.575462	-1.061980	-0.376045
O48	O	-4.274516	-0.330838	-0.544992
C49	C	-4.452228	-0.429637	-0.419437
C50	C	-4.283853	-0.423376	-0.485431
H51	H	-4.459863	-0.504460	-0.371289
H52	H	-4.407731	-0.356217	-0.343964
H53	H	-4.613864	-0.432903	-0.494294
H54	H	-4.122156	-0.420144	-0.410668
H55	H	-4.328531	-0.496795	-0.560929
H56	H	-3.493101	-0.383473	-0.553544
H57	H	-4.357509	-0.328318	-0.795387
H58	H	-3.780515	-0.994964	-0.152423
H59	H	-3.569930	-0.379365	-0.762526
O60	O	-3.403335	-0.217622	-0.520645
C61	C	-3.195213	-0.051036	-0.540365
C62	C	-3.361278	-0.154044	-0.611172
H63	H	-3.161126	0.000385	-0.613525
H64	H	-3.259047	-0.005020	-0.475099
H65	H	-3.042401	-0.072256	-0.480037
H66	H	-3.514141	-0.132918	-0.671569
H67	H	-3.297271	-0.200032	-0.676359
