data_functionalizedCrystal
_audit_creation_method	'MofGen! by Chris Wilmer'
_symmetry_space_group_name_H-M	'P1'
_symmetry_Int_Tables_number	1
_symmetry_cell_setting	triclinic
loop_
_symmetry_equiv_pos_as_xyz
  x,y,z
_cell_length_a	12.594517
_cell_length_b	12.594516
_cell_length_c	21.395355
_cell_angle_alpha	90.011407
_cell_angle_beta	90.024858
_cell_angle_gamma	90.015853
loop_
_atom_site_label
_atom_site_type_symbol
_atom_site_fract_x
_atom_site_fract_y
_atom_site_fract_z
Zn1	Zn	1.627304	-0.423871	0.354298
Zn2	Zn	1.627184	-0.601835	0.249533
Zn3	Zn	1.449297	-0.423871	0.249534
Zn4	Zn	1.449290	-0.601807	0.354273
O5	O	1.538269	-0.512846	0.301909
O6	O	1.776234	-0.447490	0.340410
O7	O	1.603539	-0.578240	0.161855
O8	O	1.472963	-0.274925	0.263441
O9	O	1.776146	-0.578240	0.263440
O10	O	1.603744	-0.274925	0.340411
O11	O	1.472847	-0.447490	0.161856
O12	O	1.300350	-0.447462	0.263417
O13	O	1.472951	-0.578192	0.441954
O14	O	1.300345	-0.578192	0.340369
O15	O	1.603737	-0.447463	0.441972
O16	O	1.603533	-0.750777	0.263416
O17	O	1.472835	-0.750757	0.340368
C18	C	1.261728	-0.512825	0.301891
C19	C	1.143422	-0.512841	0.301898
C20	C	1.538199	-0.789387	0.301903
C21	C	1.538267	-0.907693	0.301921
C22	C	1.074141	-0.441641	0.260124
C23	C	1.003328	-0.538723	0.244715
C24	C	1.003436	-0.415807	0.317317
C25	C	1.074168	-0.609974	0.286459
C26	C	1.074282	-0.486993	0.359088
C27	C	1.003501	-0.584142	0.343701
C28	C	1.467173	-0.976973	0.343746
C29	C	1.441234	-1.047813	0.286574
C30	C	1.564303	-1.047651	0.359103
C31	C	1.512276	-0.976975	0.244719
C32	C	1.635390	-0.976806	0.317287
C33	C	1.609488	-1.047614	0.260075
C34	C	1.815890	-0.512868	0.301928
C35	C	1.934195	-0.512878	0.301936
C36	C	1.538357	-0.512825	0.465333
C37	C	1.538395	-0.512815	0.534974
C38	C	1.538368	-0.235225	0.301929
C39	C	1.538410	-0.116920	0.301938
C40	C	1.538242	-0.512791	0.139122
C41	C	1.538411	-0.512500	0.069481
C42	C	1.606492	-0.444742	0.567697
C43	C	1.606491	-0.444696	0.633133
C44	C	1.538403	-0.512743	0.665842
C45	C	1.470292	-0.580821	0.633111
C46	C	1.470288	-0.580857	0.567677
C47	C	1.529974	-0.608580	0.769515
C48	C	1.529986	-0.608546	0.834948
C49	C	1.538410	-0.512630	0.867663
C50	C	1.546844	-0.416747	0.834937
C51	C	1.546840	-0.416783	0.769503
C52	C	1.538399	-0.512711	0.736795
C53	C	1.606509	-0.444502	0.971339
C54	C	1.606500	-0.444454	1.036776
C55	C	1.470307	-0.580588	1.036752
C56	C	1.470311	-0.580626	0.971317
C57	C	1.538417	-0.512585	0.938614
H58	H	1.105158	-0.381487	0.224753
H59	H	1.105108	-0.692075	0.273379
O60	O	1.679949	-0.371107	0.936059
H61	H	1.727290	-0.323748	0.969811
H62	H	1.661952	-0.389014	1.063418
O63	O	1.520896	-0.711962	0.870239
H64	H	1.522330	-0.695826	0.921235
H65	H	1.717440	-0.945596	0.330298
O66	O	1.483055	-0.936024	0.180654
H67	H	1.541798	-0.964976	0.145956
O68	O	0.962645	-0.664004	0.390513
H69	H	0.991121	-0.744453	0.377580
H70	H	1.414858	-0.635983	1.063384
H71	H	1.414830	-0.636290	0.541033
O72	O	1.396855	-0.654214	0.668388
H73	H	1.313325	-0.635946	0.655813
O74	O	1.520875	-0.712036	0.734230
H75	H	1.515023	-0.778702	0.767977
H76	H	1.669670	-1.078437	0.224672
H77	H	1.586267	-1.078696	0.407455
O78	O	0.962033	-0.567717	0.180677
H79	H	0.990313	-0.508487	0.146067
O80	O	1.115612	-0.457971	0.423110
H81	H	1.087339	-0.377334	0.435789
H82	H	0.972310	-0.333742	0.330322
H83	H	1.406944	-0.945954	0.379064
H84	H	1.661949	-0.389336	0.541075
H85	H	1.661941	-0.389257	0.659782
H86	H	1.359165	-1.079026	0.273591
H87	H	1.553704	-0.338711	0.742861
H88	H	1.553705	-0.338643	0.861573
H89	H	1.414865	-0.636066	0.944673
