data_functionalizedCrystal
_audit_creation_method	'MofGen! by Chris Wilmer'
_symmetry_space_group_name_H-M	'P1'
_symmetry_Int_Tables_number	1
_symmetry_cell_setting	triclinic
loop_
_symmetry_equiv_pos_as_xyz
  x,y,z
_cell_length_a	10.654550
_cell_length_b	10.268362
_cell_length_c	10.654551
_cell_angle_alpha	90.002449
_cell_angle_beta	84.485132
_cell_angle_gamma	90.008099
loop_
_atom_site_label
_atom_site_type_symbol
_atom_site_fract_x
_atom_site_fract_y
_atom_site_fract_z
O1	O	1.667842	0.108399	0.176400
O2	O	2.167842	0.608399	0.676400
O3	O	1.302364	0.108377	0.193206
O4	O	1.802364	0.608377	0.693206
O5	O	1.493505	0.108389	0.002063
O6	O	1.993505	0.608389	0.502063
O7	O	1.476700	0.108386	0.367542
O8	O	1.976700	0.608386	0.867542
O9	O	1.493488	-0.108212	0.002055
O10	O	1.993488	0.391788	0.502055
O11	O	1.302347	-0.108224	0.193198
O12	O	1.802347	0.391776	0.693198
O13	O	1.667825	-0.108202	0.176391
O14	O	2.167825	0.391798	0.676391
Cu15	Cu	1.485084	-0.127990	0.184794
Cu16	Cu	1.985084	0.372010	0.684794
Cu17	Cu	1.485104	0.128165	0.184803
Cu18	Cu	1.985104	0.628165	0.684803
O19	O	1.476684	-0.108214	0.367534
O20	O	1.976684	0.391786	0.867534
C21	C	1.255557	0.000074	0.191968
C22	C	1.755557	0.500074	0.691968
C23	C	1.116114	0.000066	0.188276
C24	C	1.616114	0.500066	0.688276
N25	N	1.485080	-0.308156	0.184786
N26	N	1.985080	0.191844	0.684786
C27	C	1.036629	0.000084	0.300817
C28	C	1.536629	0.500084	0.800817
C29	C	0.905608	0.000107	0.297341
C30	C	1.405608	0.500107	0.797341
C31	C	0.933570	0.000098	0.068771
C32	C	1.433570	0.500098	0.568771
C33	C	1.064589	0.000066	0.072249
C34	C	1.564589	0.500066	0.572249
C35	C	1.020484	0.000095	0.432780
C36	C	1.520484	0.500095	0.932780
C37	C	0.889463	0.000117	0.429304
C38	C	1.389463	0.500117	0.929304
C39	C	1.485098	-0.573827	0.184801
C40	C	1.985098	-0.073827	0.684801
C41	C	1.485084	-0.425989	0.184796
C42	C	1.985084	0.074011	0.684796
C43	C	1.714632	0.000104	0.177629
C44	C	2.214632	0.500104	0.677629
C45	C	1.854075	0.000120	0.181321
C46	C	2.354075	0.500120	0.681321
C47	C	1.492263	0.000091	-0.044739
C48	C	1.992263	0.500091	0.455261
C49	C	1.488570	0.000100	-0.184182
C50	C	1.988570	0.500100	0.315818
N51	N	1.485119	0.308331	0.184801
N52	N	1.985119	0.808331	0.684801
C53	C	1.486847	0.118167	-0.249689
C54	C	1.986847	0.618167	0.250311
C55	C	1.483367	0.118160	-0.380710
C56	C	1.983367	0.618160	0.119290
C57	C	1.483338	-0.117990	-0.380704
C58	C	1.983338	0.382010	0.119296
C59	C	1.486809	-0.117982	-0.249685
C60	C	1.986809	0.382018	0.250315
C61	C	1.486869	0.254506	-0.249694
C62	C	1.986869	0.754506	0.250306
C63	C	1.483389	0.254500	-0.380715
C64	C	1.983389	0.754500	0.119285
C65	C	1.477926	0.000086	0.414336
C66	C	1.977926	0.500086	0.914336
C67	C	1.481619	0.000086	0.553779
C68	C	1.981619	0.500086	1.053779
H69	H	1.129302	0.000033	-0.019393
H70	H	1.629302	0.500033	0.480607
H71	H	1.400084	0.306855	-0.203412
H72	H	1.900084	0.806855	0.296588
H73	H	1.481902	-0.214128	-0.434052
H74	H	1.981902	0.285872	0.065948
Br75	Br	1.639540	0.325023	-0.200399
Br76	Br	2.139540	0.825023	0.299601
Br77	Br	1.330729	0.325008	-0.430007
Br78	Br	1.830729	0.825008	0.069993
Br79	Br	0.863635	0.000094	-0.088686
Br80	Br	1.363635	0.500094	0.411314
Br81	Br	0.819906	0.151204	0.512179
Br82	Br	1.319906	0.651204	1.012179
Br83	Br	1.628050	0.341746	-0.457879
Br84	Br	2.128050	0.841746	0.042121
H85	H	1.488205	-0.214123	-0.196353
H86	H	1.988205	0.285877	0.303647
Br87	Br	1.079938	0.155958	0.502814
Br88	Br	1.579938	0.655958	1.002814
Br89	Br	1.069371	-0.150987	0.518803
Br90	Br	1.569371	0.349013	1.018803
H91	H	0.843784	-0.093395	0.469181
H92	H	1.343784	0.406605	0.969181
