data_functionalizedCrystal
_audit_creation_method	'MofGen! by Chris Wilmer'
_symmetry_space_group_name_H-M	'P1'
_symmetry_Int_Tables_number	1
_symmetry_cell_setting	triclinic
loop_
_symmetry_equiv_pos_as_xyz
  x,y,z
_cell_length_a	14.519709
_cell_length_b	15.538191
_cell_length_c	14.185569
_cell_angle_alpha	82.127072
_cell_angle_beta	103.184626
_cell_angle_gamma	65.476119
loop_
_atom_site_label
_atom_site_type_symbol
_atom_site_fract_x
_atom_site_fract_y
_atom_site_fract_z
O1	O	1.154348	0.144690	-0.083283
O2	O	0.880973	0.159231	-0.083313
O3	O	1.070874	0.014921	-0.083297
O4	O	0.964447	0.289001	-0.083299
O5	O	1.126970	-0.027706	0.083542
O6	O	0.937069	0.116605	0.083526
O7	O	1.210445	0.102064	0.083556
Cu8	Cu	1.078879	0.105442	0.098775
Cu9	Cu	1.012538	0.155853	-0.098532
O10	O	1.020544	0.246375	0.083540
C11	C	1.110056	-0.041469	0.000120
C12	C	1.143221	-0.145985	0.000114
C13	C	0.874888	0.137242	0.000102
C14	C	0.773185	0.135215	0.000091
C15	C	0.813708	-0.434327	0.000099
C16	C	0.844899	-0.532542	0.000105
C17	C	1.020336	-0.554694	0.000124
C18	C	0.989158	-0.456478	0.000113
C19	C	0.885843	-0.396302	0.000102
C20	C	1.061293	-0.418453	0.000116
C21	C	1.030119	-0.320246	0.000111
C22	C	0.926810	-0.260065	0.000103
C23	C	0.854669	-0.298096	0.000097
C24	C	1.164610	-0.478632	0.000134
C25	C	1.236745	-0.440607	0.000137
C26	C	1.205569	-0.342397	0.000125
C27	C	1.102260	-0.282216	0.000117
C28	C	1.277710	-0.304367	0.000130
C29	C	1.246536	-0.206161	0.000125
C30	C	1.071086	-0.184010	0.000111
C31	C	0.400818	0.127731	0.000136
C32	C	0.504424	0.129810	0.000123
C33	C	0.586998	0.131473	0.000113
C34	C	0.690611	0.133552	0.000102
C35	C	1.216529	0.124054	0.000138
C36	C	1.318229	0.126082	0.000143
C37	C	0.981361	0.302764	0.000120
C38	C	0.948193	0.407282	0.000120
N39	N	1.125547	0.069986	0.237550
N40	N	0.965880	0.191302	-0.237307
C41	C	0.828785	0.295432	0.605174
C42	C	0.864139	0.268580	0.710199
C43	C	1.032306	0.140841	0.710174
C44	C	0.996963	0.167678	0.605148
C45	C	0.895202	0.244975	0.552656
C46	C	1.063381	0.117222	0.552629
C47	C	1.028044	0.144061	0.447612
C48	C	0.926288	0.221357	0.395113
C49	C	0.859865	0.271814	0.447638
C50	C	1.165145	0.039930	0.605123
C51	C	1.231563	-0.010527	0.552604
C52	C	1.196222	0.016308	0.447585
C53	C	1.094467	0.093603	0.395086
C54	C	1.262646	-0.034150	0.395059
C55	C	1.227308	-0.007311	0.290041
C56	C	1.059129	0.120443	0.290068
H57	H	0.901432	-0.180101	0.000104
O58	O	1.120619	-0.613145	-0.000045
C59	C	1.228567	-0.714848	-0.086439
C60	C	1.114940	-0.648659	-0.086380
H61	H	1.224013	-0.743596	-0.156222
H62	H	1.274799	-0.670829	-0.086506
H63	H	1.271012	-0.779179	-0.016581
H64	H	1.072404	-0.584318	-0.156225
H65	H	1.068787	-0.692748	-0.086261
H66	H	1.115162	0.077907	0.752925
H67	H	1.361832	-0.353379	0.000149
O68	O	0.754379	-0.239572	0.000214
C69	C	0.646414	-0.137961	0.086657
C70	C	0.760043	-0.204195	0.086637
H71	H	0.650955	-0.109357	0.156533
H72	H	0.603945	-0.073540	0.016880
H73	H	0.600213	-0.182013	0.086601
H74	H	0.806333	-0.160227	0.086729
H75	H	0.802431	-0.268618	0.156408
H76	H	1.189985	-0.558595	0.000130
H77	H	0.776997	0.334750	0.404898
O78	O	0.713317	-0.376007	0.000122
C79	C	0.542550	-0.364364	0.000020
C80	C	0.656210	-0.430525	0.000021
H81	H	0.496339	-0.408410	-0.000083
H82	H	0.546986	-0.335687	0.069853
H83	H	0.500157	-0.299985	-0.069791
H84	H	0.698669	-0.494952	0.069784
H85	H	0.651700	-0.459127	-0.069859
H86	H	1.320866	-0.489616	0.000150
H87	H	0.897519	0.243211	0.309601
O88	O	0.799456	0.317665	0.761061
C89	C	0.628932	0.447238	0.750001
C90	C	0.702064	0.391722	0.692276
H91	H	0.550183	0.507139	0.694413
H92	H	0.612965	0.393969	0.799139
H93	H	0.669548	0.481749	0.799196
H94	H	0.661511	0.357208	0.643026
H95	H	0.718031	0.445034	0.643200
H96	H	0.986955	-0.135009	0.000095
H97	H	1.305277	-0.175201	0.000129
H98	H	0.786155	-0.563500	0.000117
H99	H	0.976261	0.183379	0.247328
H100	H	0.745916	0.358368	0.562434
H101	H	1.281393	-0.048397	0.247280
O102	O	1.330360	-0.085615	0.603754
C103	C	1.459360	-0.183545	0.765527
C104	C	1.347440	-0.098500	0.707729
H105	H	1.473213	-0.193976	0.849600
H106	H	1.465676	-0.253742	0.744953
H107	H	1.522082	-0.165829	0.744805
H108	H	1.284651	-0.116122	0.728419
H109	H	1.341214	-0.028328	0.728307
H110	H	1.193915	0.018084	0.690635
H111	H	1.345504	-0.097080	0.437811
