data_functionalizedCrystal
_audit_creation_method	'MofGen! by Chris Wilmer'
_symmetry_space_group_name_H-M	'P1'
_symmetry_Int_Tables_number	1
_symmetry_cell_setting	triclinic
loop_
_symmetry_equiv_pos_as_xyz
  x,y,z
_cell_length_a	16.120530
_cell_length_b	19.121063
_cell_length_c	16.120297
_cell_angle_alpha	95.179432
_cell_angle_beta	90.128140
_cell_angle_gamma	89.687057
loop_
_atom_site_label
_atom_site_type_symbol
_atom_site_fract_x
_atom_site_fract_y
_atom_site_fract_z
Zn1	Zn	1.228532	-0.355748	-0.551587
Zn2	Zn	1.229542	-0.467532	-0.417878
Zn3	Zn	1.097153	-0.343883	-0.404937
Zn4	Zn	1.083532	-0.466885	-0.549816
O5	O	1.159690	-0.408512	-0.481054
O6	O	1.344754	-0.375813	-0.540007
O7	O	1.218103	-0.446434	-0.299571
O8	O	1.119859	-0.247198	-0.419716
O9	O	1.345496	-0.457940	-0.441771
O10	O	1.216382	-0.255916	-0.527458
O11	O	1.120838	-0.355590	-0.290063
O12	O	0.979258	-0.354963	-0.417999
O13	O	1.096644	-0.456838	-0.666641
O14	O	0.969251	-0.445332	-0.524441
O15	O	1.203175	-0.375186	-0.667942
O16	O	1.204895	-0.565705	-0.440054
O17	O	1.097623	-0.565230	-0.536989
C18	C	0.944155	-0.398790	-0.469624
C19	C	0.851946	-0.394649	-0.464754
C20	C	0.683119	-0.387072	-0.455870
C21	C	0.637096	-0.430006	-0.506302
C22	C	0.543155	-0.425790	-0.501358
C23	C	0.777068	-0.391287	-0.460812
C24	C	1.149912	-0.590946	-0.489753
C25	C	1.145804	-0.668997	-0.493506
C26	C	1.199763	-0.705893	-0.444847
C27	C	1.195904	-0.779230	-0.448382
C28	C	1.138080	-0.815670	-0.500573
C29	C	1.084118	-0.778769	-0.549237
C30	C	1.087982	-0.705433	-0.545706
C31	C	1.123621	-1.037085	-0.513761
C32	C	1.119760	-1.110426	-0.517287
C33	C	1.231547	-1.110882	-0.416433
C34	C	1.235403	-1.037545	-0.412903
C35	C	1.181443	-1.000650	-0.461570
C36	C	1.134132	-0.890632	-0.504185
C37	C	1.185396	-0.925690	-0.457962
C38	C	1.376067	-0.418272	-0.492530
C39	C	1.468274	-0.422431	-0.497420
C40	C	1.148278	-0.417263	-0.698367
C41	C	1.143414	-0.420993	-0.790973
C42	C	1.169527	-0.225367	-0.472341
C43	C	1.173720	-0.147322	-0.468628
C44	C	1.134506	-0.427785	-0.960523
C45	C	1.185049	-0.389036	-1.002436
C46	C	1.180092	-0.392815	-1.096780
C47	C	1.139461	-0.424006	-0.866171
C48	C	1.171108	-0.399746	-0.264587
C49	C	1.176143	-0.395826	-0.171981
H50	H	0.668246	-0.469929	-0.553190
C51	C	0.641746	-0.333774	-0.393320
C52	C	0.702667	-0.294977	-0.347769
C53	C	0.664574	-0.245870	-0.290146
H54	H	0.608408	-0.357560	-0.356428
H55	H	0.607927	-0.302981	-0.422027
H56	H	0.736471	-0.325765	-0.319063
H57	H	0.736008	-0.271176	-0.384638
H58	H	0.630755	-0.215078	-0.318854
H59	H	0.631238	-0.269663	-0.253261
H60	H	0.705903	-0.219537	-0.259239
C61	C	1.247583	-0.340958	-0.955707
C62	C	1.205600	-0.291881	-0.901092
C63	C	1.263174	-0.247584	-0.858023
H64	H	1.278664	-0.317076	-0.994322
H65	H	1.284030	-0.368086	-0.924910
H66	H	1.169167	-0.264756	-0.931887
H67	H	1.174522	-0.315743	-0.862460
H68	H	1.299621	-0.274712	-0.827226
H69	H	1.294253	-0.223707	-0.896645
H70	H	1.234698	-0.214284	-0.820957
C71	C	1.262629	-0.666463	-0.388159
C72	C	1.309072	-0.714477	-0.346319
C73	C	1.367001	-0.678182	-0.294100
H74	H	1.234434	-0.634998	-0.348705
H75	H	1.298628	-0.640745	-0.420579
H76	H	1.273078	-0.740183	-0.313901
H77	H	1.337285	-0.745943	-0.385753
H78	H	1.403000	-0.652465	-0.326520
H79	H	1.338799	-0.646719	-0.254651
H80	H	1.398525	-0.710754	-0.265711
C81	C	1.254713	-0.819282	-0.395773
C82	C	1.303165	-0.865538	-0.447928
C83	C	1.357420	-0.902414	-0.399529
H84	H	1.223635	-0.845144	-0.359079
H85	H	1.289742	-0.787053	-0.364266
H86	H	1.268141	-0.897763	-0.479421
H87	H	1.334261	-0.839695	-0.484623
H88	H	1.392449	-0.870185	-0.368022
H89	H	1.326335	-0.928272	-0.362836
H90	H	1.390306	-0.933798	-0.434909
C91	C	1.071936	-0.475788	-1.007299
C92	C	1.079424	-0.470056	-1.092931
C93	C	1.021810	-0.514274	-1.136059
H94	H	1.017437	-0.462492	-0.989738
H95	H	1.082284	-0.522973	-0.996036
H96	H	1.069070	-0.422881	-1.104188
H97	H	1.133911	-0.483357	-1.110516
H98	H	1.032158	-0.561459	-1.124796
H99	H	0.967315	-0.500975	-1.118491
H100	H	1.026888	-0.510396	-1.194165
H101	H	1.275479	-1.140930	-0.376812
C102	C	1.056952	-1.149866	-0.574044
C103	C	1.010540	-1.101862	-0.615929
C104	C	0.952686	-1.138170	-0.668226
H105	H	1.020917	-1.175603	-0.541700
H106	H	1.085232	-1.181317	-0.613466
H107	H	0.982263	-1.070424	-0.576513
H108	H	1.046553	-1.076124	-0.648290
H109	H	0.980965	-1.169621	-0.707647
H110	H	0.916657	-1.163905	-0.635875
H111	H	0.921194	-1.105605	-0.696657
H112	H	1.037040	-0.808444	-0.591735
C113	C	1.065164	-0.997011	-0.566702
C114	C	1.111497	-0.959139	-0.620625
C115	C	1.057669	-0.922221	-0.669416
H116	H	1.032204	-0.965474	-0.531606
H117	H	1.030187	-1.029202	-0.598332
H118	H	1.146459	-0.926951	-0.588998
H119	H	1.144455	-0.990659	-0.655738
H120	H	1.022692	-0.954412	-0.701045
H121	H	1.024712	-0.890687	-0.634313
H122	H	1.089098	-0.896525	-0.706013
C123	C	1.029301	-0.665496	-0.598573
C124	C	0.977820	-0.713101	-0.645020
C125	C	0.923749	-0.676337	-0.693729
H126	H	1.060516	-0.639743	-0.635269
H127	H	0.996313	-0.634023	-0.563403
H128	H	1.010804	-0.744561	-0.680187
H129	H	0.946587	-0.738856	-0.608345
H130	H	0.890761	-0.644865	-0.658559
H131	H	0.954971	-0.650586	-0.730420
H132	H	0.888808	-0.708631	-0.725243
H133	H	1.232479	-0.896019	-0.415471
H134	H	1.087051	-0.920309	-0.546677
H135	H	1.282487	-1.007877	-0.370405
