data_functionalizedCrystal
_audit_creation_method	'MofGen! by Chris Wilmer'
_symmetry_space_group_name_H-M	'P1'
_symmetry_Int_Tables_number	1
_symmetry_cell_setting	triclinic
loop_
_symmetry_equiv_pos_as_xyz
  x,y,z
_cell_length_a	11.026607
_cell_length_b	10.065875
_cell_length_c	11.026607
_cell_angle_alpha	100.731764
_cell_angle_beta	71.413983
_cell_angle_gamma	100.697662
loop_
_atom_site_label
_atom_site_type_symbol
_atom_site_fract_x
_atom_site_fract_y
_atom_site_fract_z
O1	O	1.741286	0.113490	-0.518966
O2	O	1.374706	0.113493	-0.458202
O3	O	1.527614	0.113487	-0.305294
O4	O	1.588379	0.113496	-0.671873
O5	O	1.498489	-0.113501	-0.334601
O6	O	1.345582	-0.113495	-0.487509
O7	O	1.712161	-0.113497	-0.548273
Zn8	Zn	1.524247	-0.149535	-0.522544
Zn9	Zn	1.562620	0.149531	-0.483931
O10	O	1.559254	-0.113491	-0.701180
C11	C	1.312485	-0.000001	-0.461645
C12	C	1.170471	-0.000000	-0.428228
N13	N	1.498068	-0.353640	-0.548898
C14	C	1.116822	0.000003	-0.520498
C15	C	0.970043	0.000004	-0.485962
C16	C	1.553502	-0.421421	-0.493090
C17	C	1.533366	-0.578587	-0.513385
C18	C	1.774384	-0.000001	-0.544829
C19	C	1.916399	0.000007	-0.578244
C20	C	1.501842	-0.000005	-0.272288
C21	C	1.468426	-0.000000	-0.130273
N22	N	1.588808	0.353635	-0.457569
C23	C	1.585026	0.000004	-0.734186
C24	C	1.618444	0.000008	-0.876199
C25	C	1.560695	0.000001	-0.076624
C26	C	1.526160	0.000006	0.070155
H27	H	1.179554	-0.000002	-0.625061
H28	H	1.665257	-0.000008	-0.139358
C29	C	1.386740	0.000293	0.153759
C30	C	1.341276	0.117090	0.142626
C31	C	1.212857	0.117410	0.219637
H32	H	1.335199	-0.078770	0.126002
H33	H	1.382015	0.000371	0.241322
H34	H	1.345992	0.116999	0.055082
H35	H	1.392781	0.196172	0.170393
H36	H	1.208132	0.117489	0.307200
H37	H	1.161328	0.038342	0.191873
H38	H	1.181997	0.196661	0.212103
C39	C	0.886595	0.000216	-0.346445
C40	C	0.927827	0.116978	-0.270903
C41	C	0.850997	0.117211	-0.142375
H42	H	0.799033	0.000286	-0.341574
H43	H	0.894091	-0.078899	-0.315365
H44	H	0.920319	0.196072	-0.301974
H45	H	1.015379	0.116932	-0.275735
H46	H	0.858493	0.038096	-0.111295
H47	H	0.763438	0.117278	-0.137518
H48	H	0.878969	0.196425	-0.091102
H49	H	0.979125	0.000001	-0.682816
H50	H	1.435696	-0.411964	-0.611696
H51	H	1.723027	0.000110	0.061086
C52	C	1.329012	0.000287	-0.046665
C53	C	1.283548	0.117083	-0.057798
C54	C	1.155130	0.117404	0.019213
H55	H	1.277471	-0.078777	-0.074423
H56	H	1.324287	0.000365	0.040898
H57	H	1.288264	0.116992	-0.145343
H58	H	1.335053	0.196165	-0.030031
H59	H	1.150404	0.117482	0.106775
H60	H	1.103600	0.038335	-0.008552
H61	H	1.124270	0.196654	0.011678
H62	H	1.107742	0.000032	-0.323661
H63	H	1.615864	-0.363099	-0.430280
H64	H	1.651173	-0.588046	-0.394755
C65	C	1.449969	-0.656267	-0.596931
C66	C	1.324609	-0.621659	-0.544707
C67	C	1.247746	-0.693205	-0.621621
H68	H	1.485419	-0.632974	-0.682026
H69	H	1.447398	-0.751579	-0.599416
H70	H	1.327185	-0.526368	-0.542236
H71	H	1.289122	-0.644955	-0.459621
H72	H	1.245175	-0.788517	-0.624106
H73	H	1.283207	-0.669907	-0.706713
H74	H	1.162679	-0.669743	-0.586192
