data_functionalizedCrystal
_audit_creation_method	'MofGen! by Chris Wilmer'
_symmetry_space_group_name_H-M	'P1'
_symmetry_Int_Tables_number	1
_symmetry_cell_setting	triclinic
loop_
_symmetry_equiv_pos_as_xyz
  x,y,z
_cell_length_a	11.169417
_cell_length_b	17.077402
_cell_length_c	17.077396
_cell_angle_alpha	90.029784
_cell_angle_beta	89.983750
_cell_angle_gamma	89.976238
loop_
_atom_site_label
_atom_site_type_symbol
_atom_site_fract_x
_atom_site_fract_y
_atom_site_fract_z
Zn1	Zn	1.834815	0.312490	-0.443768
Zn2	Zn	1.834673	0.443765	-0.312499
Zn3	Zn	1.634114	0.312519	-0.312523
Zn4	Zn	1.634065	0.443720	-0.443730
O5	O	1.734417	0.378123	-0.378130
O6	O	2.002746	0.329910	-0.426360
O7	O	1.808030	0.426386	-0.202655
O8	O	1.660817	0.202668	-0.329959
O9	O	2.002642	0.426357	-0.329917
O10	O	1.808272	0.202647	-0.426384
O11	O	1.660679	0.329960	-0.202673
O12	O	1.466158	0.329916	-0.329922
O13	O	1.660734	0.426281	-0.553582
O14	O	1.466122	0.426309	-0.426319
O15	O	1.808224	0.329867	-0.553609
O16	O	1.807982	0.553606	-0.329881
O17	O	1.660596	0.553572	-0.426295
C18	C	1.422592	0.378111	-0.378120
C19	C	1.289192	0.378125	-0.378134
C20	C	1.734301	0.582071	-0.378098
C21	C	1.734361	0.669321	-0.378111
C22	C	1.734489	0.378065	-0.582874
C23	C	1.734520	0.378041	-0.670124
C24	C	2.047459	0.378136	-0.378140
C25	C	2.180859	0.378141	-0.378145
C26	C	1.734566	0.173379	-0.378178
C27	C	1.734629	0.086129	-0.378199
C28	C	1.811184	0.710302	-0.327962
C29	C	1.811242	0.792283	-0.327982
C30	C	1.734472	0.833280	-0.378148
C31	C	1.657646	0.792293	-0.428303
C32	C	1.657594	0.710314	-0.428286
C33	C	1.657757	0.963163	-0.428332
C34	C	1.657807	1.045148	-0.428348
C35	C	1.811405	1.045132	-0.328028
C36	C	1.811353	0.963153	-0.328012
C37	C	1.734526	0.922171	-0.378166
C38	C	1.811321	0.327834	-0.711130
C39	C	1.811336	0.327808	-0.793110
C40	C	1.734554	0.377993	-0.834083
C41	C	1.657745	0.428202	-0.793072
C42	C	1.657725	0.428224	-0.711093
C43	C	1.657793	0.428155	-0.963942
C44	C	1.657814	0.428135	-1.045926
C45	C	1.811404	0.327739	-1.045959
C46	C	1.811384	0.327760	-0.963980
C47	C	1.734576	0.377971	-0.922974
C48	C	1.734414	0.378124	-0.174182
C49	C	1.734615	0.377928	-0.086932
H50	H	1.873694	0.676927	-0.287108
H51	H	1.873913	0.286900	-0.930622
H52	H	1.873798	0.825646	-0.287145
H53	H	1.595200	0.929799	-0.469176
N54	N	1.575011	1.089366	-0.482460
H55	H	1.623782	1.123329	-0.518863
H56	H	1.519455	1.123384	-0.450479
N57	N	1.894147	0.273641	-0.837339
H58	H	1.942783	0.241851	-0.798943
H59	H	1.949678	0.305573	-0.871359
N60	N	1.574972	0.482228	-1.090138
H61	H	1.623705	0.518602	-1.124156
H62	H	1.526298	0.513984	-1.051687
N63	N	1.894158	0.918930	-0.273909
H64	H	1.875586	0.933244	-0.217814
H65	H	1.979874	0.933160	-0.286224
N66	N	1.574835	0.836510	-0.482405
H67	H	1.526161	0.798107	-0.514173
H68	H	1.623674	0.870474	-0.518766
N69	N	1.574740	0.666109	-0.482378
H70	H	1.526112	0.704519	-0.514160
H71	H	1.519205	0.632146	-0.450389
H72	H	1.873850	0.286969	-0.677775
H73	H	1.873965	1.078503	-0.287194
N74	N	1.894253	0.273584	-1.090181
H75	H	1.882614	0.281181	-1.148332
H76	H	1.875618	0.217525	-1.075862
N77	N	1.574946	0.482305	-0.919711
H78	H	1.526310	0.514096	-0.958105
H79	H	1.623766	0.518642	-0.885692
H80	H	1.595224	0.469061	-0.826438
H81	H	1.595174	0.469099	-0.677707
