data_functionalizedCrystal
_audit_creation_method	'MofGen! by Chris Wilmer'
_symmetry_space_group_name_H-M	'P1'
_symmetry_Int_Tables_number	1
_symmetry_cell_setting	triclinic
loop_
_symmetry_equiv_pos_as_xyz
  x,y,z
_cell_length_a	12.827893
_cell_length_b	12.759401
_cell_length_c	12.759393
_cell_angle_alpha	90.020938
_cell_angle_beta	89.974952
_cell_angle_gamma	89.994966
loop_
_atom_site_label
_atom_site_type_symbol
_atom_site_fract_x
_atom_site_fract_y
_atom_site_fract_z
Zn1	Zn	0.415940	1.606348	0.594060
Zn2	Zn	0.590717	1.606273	0.418397
Zn3	Zn	0.415995	1.430647	0.418395
Zn4	Zn	0.590644	1.430673	0.594034
O5	O	0.503324	1.518485	0.506221
O6	O	0.439132	1.753359	0.570769
O7	O	0.567594	1.582934	0.271375
O8	O	0.269752	1.453974	0.441708
O9	O	0.567540	1.753304	0.441710
O10	O	0.269711	1.583061	0.570768
O11	O	0.439227	1.453902	0.271374
O12	O	0.439156	1.283629	0.441682
O13	O	0.567415	1.454019	0.741059
O14	O	0.567469	1.283648	0.570724
O15	O	0.439061	1.583087	0.741078
O16	O	0.736944	1.582959	0.441685
O17	O	0.736890	1.453947	0.570725
C18	C	0.503311	1.245518	0.506201
C19	C	0.503331	1.128741	0.506217
C20	C	0.230754	1.518523	0.506240
C21	C	0.114601	1.518539	0.506248
C22	C	0.570246	1.073917	0.573303
C23	C	0.570250	0.964193	0.573323
C24	C	0.436422	0.964127	0.439163
C25	C	0.436413	1.073849	0.439148
C26	C	0.607747	0.814304	0.697187
C27	C	0.674678	0.759476	0.764264
C28	C	0.776661	0.795094	0.780222
C29	C	0.811735	0.885538	0.729087
C30	C	0.744809	0.940361	0.662003
C31	C	0.642811	0.904744	0.646065
C32	C	0.398927	1.223740	0.315283
C33	C	0.332006	1.278564	0.248192
C34	C	0.230021	1.242949	0.232224
C35	C	0.194951	1.152501	0.283340
C36	C	0.261872	1.097677	0.350431
C37	C	0.363856	1.133300	0.366401
C38	C	0.062836	1.454677	0.442396
C39	C	-0.057214	1.454692	0.442403
C40	C	0.774834	1.518476	0.506225
C41	C	0.890987	1.518568	0.506262
C42	C	0.503224	1.518564	0.780255
C43	C	0.503181	1.518597	0.897032
C44	C	0.503338	1.792519	0.506243
C45	C	0.503344	1.909295	0.506252
C46	C	0.503349	1.518467	0.233254
C47	C	0.503097	1.518637	0.116478
C48	C	0.436336	1.585808	0.951905
C49	C	0.436291	1.585826	1.061629
C50	C	0.569945	1.451419	1.061597
C51	C	0.569984	1.451397	0.951875
C52	C	0.312997	1.623414	1.211596
C53	C	0.246161	1.690641	1.266473
C54	C	0.230136	1.793150	1.230880
C55	C	0.280963	1.828454	1.140412
C56	C	0.347806	1.761232	1.085540
C57	C	0.363811	1.658708	1.121131
C58	C	0.693280	1.413820	0.801906
C59	C	0.760129	1.346603	0.747033
C60	C	0.776165	1.244092	0.782623
C61	C	0.725357	1.208792	0.873095
C62	C	0.658507	1.276009	0.927969
C63	C	0.642470	1.378519	0.892371
H64	H	0.624732	1.118607	0.627916
H65	H	0.381938	1.640524	0.907255
H66	H	-0.101729	1.400020	0.387731
O67	O	0.841239	1.178937	0.729312
C68	C	0.942150	1.222646	0.726691
H69	H	0.936799	1.311080	0.738260
H70	H	0.979902	1.205165	0.647695
H71	H	0.991347	1.187038	0.791996
O72	O	0.196738	1.656530	1.354392
C73	C	0.134296	1.737841	1.395180
H74	H	0.165365	1.816610	1.366882
H75	H	0.136476	1.735286	1.484461
H76	H	0.050555	1.727376	1.367183
H77	H	0.107396	1.399987	0.387728
O78	O	0.634805	1.386249	1.115036
C79	C	0.620422	1.400661	1.223647
H80	H	0.586199	1.481750	1.238649
H81	H	0.698683	1.393530	1.265339
H82	H	0.564756	1.338360	1.254779
O83	O	0.608981	1.241793	1.015787
C84	C	0.500242	1.248139	1.001034
H85	H	0.482312	1.308570	0.937773
H86	H	0.461399	1.272627	1.077600
H87	H	0.469086	1.168353	0.975802
O88	O	0.397059	1.795666	0.997657
C89	C	0.368612	1.900574	0.978024
H90	H	0.290633	1.917927	1.017250
H91	H	0.361392	1.913436	0.889915
H92	H	0.430807	1.955191	1.011030
O93	O	0.328448	1.523762	1.246022
C94	C	0.297057	1.452378	1.167788
H95	H	0.238534	1.491904	1.113433
H96	H	0.259257	1.381148	1.206044
H97	H	0.367994	1.426359	1.120626
O98	O	0.779024	1.028210	0.612438
C99	C	0.883407	1.047870	0.640869
H100	H	0.900741	1.008709	0.719239
H101	H	0.896229	1.135986	0.648106
H102	H	0.937658	1.014815	0.578254
H103	H	0.070043	1.573222	0.560925
H104	H	-0.064503	1.573250	0.560928
H105	H	0.175716	1.847887	1.275569
O106	O	0.910825	0.920013	0.744734
C107	C	0.962382	0.852217	0.814888
H108	H	0.902338	0.808949	0.864555
H109	H	1.015806	0.899827	0.868088
H110	H	1.010694	0.793056	0.768751
H111	H	0.481969	1.252754	0.328288
O112	O	0.265252	1.928056	1.105961
C113	C	0.195377	1.979825	1.173806
H114	H	0.146060	1.919412	1.217093
H115	H	0.142389	2.033474	1.126236
H116	H	0.241179	2.028451	1.232948
O117	O	0.640427	0.671672	0.813895
C118	C	0.536060	0.651981	0.785422
H119	H	0.498153	0.727924	0.757840
H120	H	0.491699	0.620256	0.856049
H121	H	0.533934	0.591840	0.719357
H122	H	0.738417	1.125320	0.902077
H123	H	0.680221	1.497291	0.772914
O124	O	0.841528	0.741740	0.845452
C125	C	0.788716	0.654262	0.887135
H126	H	0.701054	0.668549	0.883825
H127	H	0.813547	0.641947	0.972019
H128	H	0.808841	0.581554	0.839270
O129	O	0.371521	0.910641	0.374049
C130	C	0.385856	0.802040	0.388464
H131	H	0.466548	0.787069	0.422736
H132	H	0.378670	0.760300	0.309787
H133	H	0.323944	0.770934	0.444524
O134	O	0.508606	0.779857	0.681803
C135	C	0.437650	0.858102	0.713493
H136	H	0.477037	0.912494	0.772279
H137	H	0.366834	0.819860	0.751601
H138	H	0.411703	0.905220	0.642228
O139	O	0.227625	1.009863	0.400046
C140	C	0.123267	0.990163	0.371548
H141	H	0.085359	1.066103	0.343960
H142	H	0.078892	0.958431	0.442163
H143	H	0.121162	0.930025	0.305480
O144	O	0.809539	1.381050	0.659239
C145	C	0.872835	1.467767	0.684549
H146	H	0.842369	1.506451	0.759062
H147	H	0.870931	1.526710	0.617454
H148	H	0.956385	1.440263	0.697598
H149	H	0.111913	1.123490	0.270322
H150	H	0.175538	1.287592	0.177584
H151	H	0.360569	1.352211	0.206570
