data_functionalizedCrystal
_audit_creation_method	'MofGen! by Chris Wilmer'
_symmetry_space_group_name_H-M	'P1'
_symmetry_Int_Tables_number	1
_symmetry_cell_setting	triclinic
loop_
_symmetry_equiv_pos_as_xyz
  x,y,z
_cell_length_a	14.044220
_cell_length_b	10.654550
_cell_length_c	9.130313
_cell_angle_alpha	90.004369
_cell_angle_beta	90.001436
_cell_angle_gamma	91.163096
loop_
_atom_site_label
_atom_site_type_symbol
_atom_site_fract_x
_atom_site_fract_y
_atom_site_fract_z
O1	O	1.259697	-0.302986	-0.121643
O2	O	0.983656	-0.292053	-0.121680
O3	O	1.128023	-0.115418	-0.121651
O4	O	1.115330	-0.479621	-0.121672
O5	O	1.128013	-0.115411	0.121947
O6	O	0.983646	-0.292046	0.121919
O7	O	1.259687	-0.302979	0.121956
Cu8	Cu	1.121666	-0.297512	0.144180
Cu9	Cu	1.121678	-0.297520	-0.143904
O10	O	1.115320	-0.479614	0.121927
C11	C	0.948305	-0.287263	0.000115
C12	C	0.842986	-0.272988	0.000101
C13	C	0.650153	-0.246889	0.000131
C14	C	0.593185	-0.348137	0.000132
C15	C	0.485886	-0.333615	0.000149
C16	C	0.757462	-0.261409	0.000114
C17	C	1.127086	-0.068523	0.000147
C18	C	1.124298	0.071201	0.000144
C19	C	1.295038	-0.307769	0.000158
C20	C	1.400358	-0.322044	0.000162
C21	C	1.116257	-0.526509	0.000126
C22	C	1.119045	-0.666233	0.000119
N23	N	1.121664	-0.297507	0.346803
C24	C	1.209299	0.142144	0.000155
C25	C	1.206673	0.273429	0.000137
C26	C	1.034038	0.262814	0.000103
C27	C	1.036665	0.131532	0.000111
N28	N	1.121686	-0.297516	-0.346527
C29	C	1.185612	-0.219331	0.423467
C30	C	1.185621	-0.219332	0.576804
C31	C	1.057732	-0.375695	0.576798
C32	C	1.057719	-0.375687	0.423464
H33	H	0.624998	-0.445725	0.000119
O34	O	1.294399	0.083481	0.000431
C35	C	1.301075	0.007848	0.126578
H36	H	1.251299	0.044405	0.214753
H37	H	1.377446	0.011061	0.168932
H38	H	1.279880	-0.093078	0.098058
H39	H	0.618342	-0.149310	0.000145
O40	O	0.948834	0.321223	0.000015
C41	C	0.874373	0.230449	0.000040
H42	H	0.901553	0.138418	-0.046069
H43	H	0.813249	0.264662	-0.070698
H44	H	0.848103	0.214867	0.116902
O45	O	1.289333	0.342154	0.000217
C46	C	1.367237	0.260747	0.000209
H47	H	1.343799	0.165616	0.046332
H48	H	1.426843	0.302398	0.070942
H49	H	1.394067	0.248399	-0.116650
H50	H	0.967442	0.073767	0.000098
H51	H	1.237679	-0.155670	0.361053
H52	H	1.237692	-0.155673	0.639220
O53	O	0.995585	-0.451466	0.651435
C54	C	0.936623	-0.377561	0.740128
H55	H	0.973762	-0.283481	0.763106
H56	H	0.921972	-0.428330	0.847948
H57	H	0.866457	-0.361110	0.681053
O58	O	0.995562	-0.451750	0.349209
C59	C	0.939115	-0.520741	0.449749
H60	H	0.978020	-0.526562	0.559045
H61	H	0.925293	-0.619469	0.405424
H62	H	0.868388	-0.471982	0.466076
