data_functionalizedCrystal
_audit_creation_method	'MofGen! by Chris Wilmer'
_symmetry_space_group_name_H-M	'P1'
_symmetry_Int_Tables_number	1
_symmetry_cell_setting	triclinic
loop_
_symmetry_equiv_pos_as_xyz
  x,y,z
_cell_length_a	14.853566
_cell_length_b	15.712078
_cell_length_c	13.330367
_cell_angle_alpha	89.998477
_cell_angle_beta	89.995295
_cell_angle_gamma	101.607781
loop_
_atom_site_label
_atom_site_type_symbol
_atom_site_fract_x
_atom_site_fract_y
_atom_site_fract_z
O1	O	1.233446	0.112890	-0.083354
O2	O	0.975404	0.126340	-0.083370
O3	O	1.070096	-0.006254	-0.083359
O4	O	1.138753	0.245484	-0.083365
O5	O	1.070075	-0.006257	0.083488
O6	O	0.975383	0.126337	0.083477
O7	O	1.233425	0.112887	0.083494
Cu8	Cu	1.104402	0.119612	0.098720
Cu9	Cu	1.104427	0.119615	-0.098596
O10	O	1.138732	0.245481	0.083483
C11	C	0.941604	0.125729	0.000052
C12	C	0.840921	0.123903	0.000046
C13	C	0.415212	0.116183	-0.090885
C14	C	0.415210	0.116181	0.091018
C15	C	0.509807	0.117895	0.091015
C16	C	0.557111	0.118755	0.000061
C17	C	0.509818	0.117900	-0.090891
C18	C	0.557109	0.118758	0.181965
C19	C	0.651712	0.120474	0.181965
C20	C	0.699017	0.121327	0.091010
C21	C	0.651717	0.120472	0.000055
C22	C	0.699021	0.121332	-0.090900
C23	C	0.651723	0.120470	-0.181856
C24	C	0.557122	0.118754	-0.181847
C25	C	0.793617	0.123044	0.091000
C26	C	0.793628	0.123049	-0.090906
C27	C	1.058870	-0.038472	0.000063
C28	C	1.025438	-0.134467	0.000059
C29	C	1.309280	-0.501224	0.000067
C30	C	1.277845	-0.591423	0.000065
C31	C	1.120333	-0.570996	0.000055
C32	C	1.151755	-0.480793	0.000061
C33	C	1.246229	-0.445914	0.000066
C34	C	1.088704	-0.425483	0.000061
C35	C	1.120124	-0.335288	0.000062
C36	C	1.214594	-0.300403	0.000064
C37	C	1.277649	-0.355719	0.000067
C38	C	0.994231	-0.460363	0.000049
C39	C	0.931180	-0.405054	0.000048
C40	C	0.962599	-0.314857	0.000056
C41	C	1.057069	-0.279972	0.000058
C42	C	0.899544	-0.259540	0.000053
C43	C	0.930964	-0.169345	0.000054
C44	C	1.088489	-0.189777	0.000059
C45	C	1.267224	0.113498	0.000070
C46	C	1.367908	0.115323	0.000070
C47	C	1.149959	0.277699	0.000058
C48	C	1.183390	0.373694	0.000056
N49	N	1.104391	0.119609	0.237501
N50	N	1.104443	0.119611	-0.237378
C51	C	1.062487	0.178305	0.710120
C52	C	1.146389	0.060919	0.710097
C53	C	1.146378	0.060916	0.605079
C54	C	1.104422	0.119610	0.552576
C55	C	1.062477	0.178305	0.605091
C56	C	1.188330	0.002227	0.552556
C57	C	1.188322	0.002223	0.447531
C58	C	1.146359	0.060913	0.395026
C59	C	1.104412	0.119610	0.447548
C60	C	1.062456	0.178304	0.395045
C61	C	1.020502	0.236998	0.447565
C62	C	1.020514	0.236995	0.552587
C63	C	1.146347	0.060915	0.290004
C64	C	1.062446	0.178305	0.290017
H65	H	0.832135	0.123746	-0.164973
C66	C	1.192539	-0.003640	0.767854
N67	N	1.227297	-0.052270	0.811361
C68	C	1.413207	-0.462853	0.000076
N69	N	1.491481	-0.433952	0.000081
C70	C	1.192494	-0.003644	0.232237
N71	N	1.227252	-0.052275	0.188728
H72	H	1.222496	-0.045555	0.595307
C73	C	0.703769	0.121416	-0.281903
N74	N	0.742974	0.122128	-0.357256
H75	H	0.854258	-0.433464	0.000040
C76	C	0.703730	0.121412	0.282018
N77	N	0.742910	0.122115	0.357379
C78	C	0.861605	-0.108502	0.000061
N79	N	0.809362	-0.062674	0.000065
C80	C	1.347214	-0.652262	0.000066
N81	N	1.399462	-0.698086	0.000065
H82	H	0.376691	0.115486	0.165069
C83	C	0.505088	0.117812	-0.281889
N84	N	0.465892	0.117105	-0.357241
C85	C	0.974352	0.301559	0.389798
N86	N	0.939593	0.350184	0.346284
C87	C	1.249156	-0.201185	0.000066
N88	N	1.275189	-0.126454	0.000071
C89	C	1.016331	0.242859	0.767891
N90	N	0.981565	0.291481	0.811407
H91	H	0.822623	-0.287952	0.000039
H92	H	0.986358	0.284783	0.595355
C93	C	0.505071	0.117817	0.282008
N94	N	0.465870	0.117105	0.357364
C95	C	0.363183	0.115235	-0.190932
N96	N	0.323994	0.114521	-0.266288
C97	C	0.845641	0.123992	0.191046
N98	N	0.884825	0.124704	0.266405
C99	C	1.381576	-0.317349	0.000077
N100	N	1.459850	-0.288447	0.000081
C101	C	1.016414	-0.609373	0.000061
N102	N	0.938140	-0.638277	0.000073
C103	C	1.016319	0.242895	0.232272
N104	N	0.981589	0.291554	0.188779
C105	C	1.234462	-0.062348	0.389769
N106	N	1.269212	-0.110986	0.346261
H107	H	1.165419	-0.161377	0.000074
H108	H	0.968652	-0.533807	0.000042
