data_functionalizedCrystal
_audit_creation_method	'MofGen! by Chris Wilmer'
_symmetry_space_group_name_H-M	'P1'
_symmetry_Int_Tables_number	1
_symmetry_cell_setting	triclinic
loop_
_symmetry_equiv_pos_as_xyz
  x,y,z
_cell_length_a	29.839125
_cell_length_b	16.959455
_cell_length_c	16.959454
_cell_angle_alpha	89.982978
_cell_angle_beta	89.989471
_cell_angle_gamma	90.011127
loop_
_atom_site_label
_atom_site_type_symbol
_atom_site_fract_x
_atom_site_fract_y
_atom_site_fract_z
Zn1	Zn	-0.254017	-1.208359	-0.314857
Zn2	Zn	0.245983	-0.708359	0.185143
Zn3	Zn	-0.178897	-1.208289	-0.447012
Zn4	Zn	0.321103	-0.708289	0.052988
Zn5	Zn	-0.178901	-1.076195	-0.314844
Zn6	Zn	0.321099	-0.576195	0.185156
Zn7	Zn	-0.253999	-1.076152	-0.446990
Zn8	Zn	0.246001	-0.576152	0.053010
O9	O	-0.216454	-1.142249	-0.380926
O10	O	0.283546	-0.642249	0.119074
O11	O	-0.244058	-1.318960	-0.332402
O12	O	0.255942	-0.818960	0.167598
O13	O	-0.116030	-1.190755	-0.429483
O14	O	0.383970	-0.690755	0.070517
O15	O	-0.188875	-1.093774	-0.204235
O16	O	0.311125	-0.593774	0.295765
O17	O	-0.188867	-1.318909	-0.429496
O18	O	0.311133	-0.818909	0.070504
O19	O	-0.244062	-1.190874	-0.204244
O20	O	0.255938	-0.690874	0.295756
O21	O	-0.116033	-1.093706	-0.332380
O22	O	0.383967	-0.593706	0.167620
O23	O	-0.188857	-0.965578	-0.332359
O24	O	0.311143	-0.465578	0.167641
O25	O	-0.316869	-1.093701	-0.429459
O26	O	0.183131	-0.593701	0.070541
O27	O	-0.244032	-0.965547	-0.429446
O28	O	0.255968	-0.465547	0.070554
O29	O	-0.316882	-1.190833	-0.332381
O30	O	0.183118	-0.690833	0.167619
O31	O	-0.188850	-1.190713	-0.557620
O32	O	0.311150	-0.690713	-0.057620
O33	O	-0.244027	-1.093633	-0.557604
O34	O	0.255973	-0.593633	-0.057604
C35	C	-0.216443	-0.936882	-0.380900
C36	C	0.283557	-0.436882	0.119100
C37	C	-0.216450	-0.849026	-0.380908
C38	C	0.283550	-0.349026	0.119092
C39	C	-0.333632	-1.142270	-0.380919
C40	C	0.166368	-0.642270	0.119081
C41	C	-0.383566	-1.142279	-0.380916
C42	C	0.116434	-0.642279	0.119084
C43	C	-0.216446	-1.142182	-0.586292
C44	C	0.283554	-0.642182	-0.086292
C45	C	-0.216458	-1.142226	-0.674149
C46	C	0.283542	-0.642226	-0.174149
C47	C	-0.693220	-1.192909	-0.330235
C48	C	-0.193220	-0.692909	0.169765
C49	C	-0.880893	-1.192948	-0.330167
C50	C	-0.380893	-0.692948	0.169833
O51	O	-0.905166	-1.235936	-0.287152
O52	O	-0.405166	-0.735936	0.212848
N53	N	-0.904352	-1.142384	-0.380704
N54	N	-0.404352	-0.642384	0.119296
C55	C	-0.880889	-1.091803	-0.431257
C56	C	-0.380889	-0.591803	0.068743
O57	O	-0.905149	-1.048790	-0.474234
O58	O	-0.405149	-0.548790	0.025766
C59	C	-0.693217	-1.091760	-0.431320
C60	C	-0.193217	-0.591760	0.068680
C61	C	-0.669761	-1.142333	-0.380786
C62	C	-0.169761	-0.642333	0.119214
C63	C	-0.669764	-1.243477	-0.279704
C64	C	-0.169764	-0.743477	0.220296
C65	C	-0.622848	-1.243470	-0.279725
C66	C	-0.122848	-0.743470	0.220275
C67	C	-0.599389	-1.192894	-0.330276
C68	C	-0.099389	-0.692894	0.169724
C69	C	-0.622845	-1.142326	-0.380806
C70	C	-0.122845	-0.642326	0.119194
C71	C	-0.669756	-1.041175	-0.481869
C72	C	-0.169756	-0.541175	0.018131
C73	C	-0.622835	-1.041168	-0.481879
C74	C	-0.122835	-0.541168	0.018121
C75	C	-0.599378	-1.091741	-0.431344
C76	C	-0.099378	-0.591741	0.068656
C77	C	-0.552471	-1.091743	-0.431378
C78	C	-0.052471	-0.591743	0.068622
N79	N	-0.529012	-1.142307	-0.380841
N80	N	-0.029012	-0.642307	0.119159
C81	C	-0.552471	-1.192883	-0.330290
C82	C	-0.052471	-0.692883	0.169710
C83	C	-0.979420	-1.091830	-0.431222
C84	C	-0.479420	-0.591830	0.068778
C85	C	-1.026338	-1.091841	-0.431207
C86	C	-0.526338	-0.591841	0.068793
C87	C	-1.026338	-1.192986	-0.330116
C88	C	-0.526338	-0.692986	0.169884
C89	C	-0.979420	-1.192978	-0.330135
C90	C	-0.479420	-0.692978	0.169865
C91	C	-0.955961	-1.142394	-0.380685
C92	C	-0.455961	-0.642394	0.119315
C93	C	-0.453945	-1.192864	-0.330337
C94	C	0.046055	-0.692864	0.169663
C95	C	-0.407026	-1.192855	-0.330365
C96	C	0.092974	-0.692855	0.169635
C97	C	-0.407029	-1.091708	-0.431452
C98	C	0.092971	-0.591708	0.068548
C99	C	-0.453945	-1.091720	-0.431428
C100	C	0.046055	-0.591720	0.068572
C101	C	-0.477402	-1.142300	-0.380864
C102	C	0.022598	-0.642300	0.119136
O103	O	-0.528169	-1.048771	-0.474365
O104	O	-0.028169	-0.548771	0.025635
O105	O	-0.528204	-1.235877	-0.287307
O106	O	-0.028204	-0.735877	0.212693
C107	C	-0.740135	-1.192916	-0.330214
C108	C	-0.240135	-0.692916	0.169786
C109	C	-0.763592	-1.142348	-0.380745
C110	C	-0.263592	-0.642348	0.119255
C111	C	-0.740133	-1.091772	-0.431296
C112	C	-0.240133	-0.591772	0.068704
C113	C	-0.810510	-1.142359	-0.380731
C114	C	-0.310510	-0.642359	0.119269
C115	C	-0.833969	-1.192935	-0.330179
C116	C	-0.333969	-0.692935	0.169821
C117	C	-0.810510	-1.243499	-0.279643
C118	C	-0.310510	-0.743499	0.220357
C119	C	-0.763594	-1.243492	-0.279663
C120	C	-0.263594	-0.743492	0.220337
C121	C	-0.763591	-1.041208	-0.481833
C122	C	-0.263591	-0.541208	0.018167
C123	C	-0.810507	-1.041220	-0.481809
C124	C	-0.310507	-0.541220	0.018191
C125	C	-0.833966	-1.091796	-0.431258
C126	C	-0.333966	-0.591796	0.068742
C127	C	-0.099731	-1.142273	-0.380876
C128	C	0.400269	-0.642273	0.119124
C129	C	-0.049797	-1.142417	-0.380656
C130	C	0.450203	-0.642417	0.119344
C131	C	-0.216464	-1.348417	-0.380952
C132	C	0.283536	-0.848417	0.119048
C133	C	-0.216469	-1.436273	-0.380964
C134	C	0.283531	-0.936273	0.119036
C135	C	-0.187784	-0.477542	-0.330331
C136	C	0.312216	0.022458	0.169669
C137	C	-0.245149	-0.477558	-0.431585
C138	C	0.254851	0.022442	0.068415
C139	C	-0.245146	-0.560104	-0.431574
C140	C	0.254854	-0.060104	0.068426
C141	C	-0.216462	-0.601373	-0.380941
C142	C	0.283538	-0.101373	0.119059
C143	C	-0.187780	-0.560096	-0.330320
C144	C	0.312220	-0.060096	0.169680
C145	C	-0.273824	-0.601387	-0.482200
C146	C	0.226176	-0.101387	0.017800
C147	C	-0.273822	-0.683938	-0.482191
C148	C	0.226178	-0.183938	0.017809
C149	C	-0.245139	-0.725209	-0.431554
C150	C	0.254861	-0.225209	0.068446
C151	C	-0.216457	-0.683926	-0.380930
C152	C	0.283543	-0.183926	0.119070
C153	C	-0.187773	-0.725195	-0.330297
C154	C	0.312227	-0.225195	0.169703
C155	C	-0.159092	-0.683914	-0.279669
C156	C	0.340908	-0.183914	0.220331
C157	C	-0.159097	-0.601366	-0.279683
C158	C	0.340903	-0.101366	0.220317
C159	C	-0.245134	-0.807757	-0.431540
C160	C	0.254866	-0.307757	0.068460
C161	C	-0.187768	-0.807748	-0.330286
C162	C	0.312232	-0.307748	0.169714
C163	C	-0.245182	-1.091772	-1.045646
C164	C	0.254818	-0.591772	-0.545646
C165	C	-0.187772	-1.192945	-1.045602
C166	C	0.312228	-0.692945	-0.545602
C167	C	-0.187767	-1.192917	-0.963057
C168	C	0.312233	-0.692917	-0.463057
C169	C	-0.216470	-1.142316	-0.921801
C170	C	0.283530	-0.642316	-0.421801
C171	C	-0.245177	-1.091741	-0.963092
C172	C	0.254823	-0.591741	-0.463092
C173	C	-0.159058	-1.243485	-0.921760
C174	C	0.340942	-0.743485	-0.421760
C175	C	-0.159052	-1.243459	-0.839209
C176	C	0.340948	-0.743459	-0.339209
C177	C	-0.187758	-1.192860	-0.797952
C178	C	0.312242	-0.692860	-0.297952
C179	C	-0.216466	-1.142285	-0.839248
C180	C	0.283534	-0.642285	-0.339248
C181	C	-0.245169	-1.091683	-0.797993
C182	C	0.254831	-0.591683	-0.297993
C183	C	-0.273880	-1.041111	-0.839287
C184	C	0.226120	-0.541111	-0.339287
C185	C	-0.273883	-1.041143	-0.921836
C186	C	0.226117	-0.541143	-0.421836
C187	C	-0.187755	-1.192828	-0.715404
C188	C	0.312245	-0.692828	-0.215404
C189	C	-0.245165	-1.091652	-0.715439
C190	C	0.254835	-0.591652	-0.215439
C191	C	-0.216471	-1.142337	-0.174757
C192	C	0.283529	-0.642337	0.325243
C193	C	-0.216479	-1.142374	-0.086901
C194	C	0.283521	-0.642374	0.413099
H195	H	-0.387930	-1.234040	-0.289213
H196	H	0.112070	-0.734040	0.210787
H197	H	-0.297248	-0.999906	-0.805688
H198	H	0.202752	-0.499906	-0.305688
C199	C	-0.127466	-1.299072	-0.793788
C200	C	0.372534	-0.799072	-0.293788
H201	H	-0.131570	-1.291801	-0.738717
H202	H	0.368430	-0.791801	-0.238717
H203	H	-0.134060	-1.352182	-0.807273
H204	H	0.365940	-0.852182	-0.307273
H205	H	-0.097277	-1.287526	-0.807345
H206	H	0.402723	-0.787526	-0.307345
C207	C	-0.953622	-1.036185	-0.486832
C208	C	-0.453622	-0.536185	0.013168
H209	H	-0.974316	-1.006082	-0.516927
H210	H	-0.474316	-0.506082	-0.016927
H211	H	-0.935318	-1.001750	-0.456601
H212	H	-0.435318	-0.501750	0.043399
H213	H	-0.935320	-1.066403	-0.521289
H214	H	-0.435320	-0.566403	-0.021289
C215	C	-1.052147	-1.248616	-0.274507
C216	C	-0.552147	-0.748616	0.225493
H217	H	-1.031460	-1.278735	-0.244409
H218	H	-0.531460	-0.778735	0.255591
H219	H	-1.070449	-1.218391	-0.240064
H220	H	-0.570449	-0.718391	0.259936
H221	H	-1.070451	-1.283051	-0.304746
H222	H	-0.570451	-0.783051	0.195254
H223	H	-0.297174	-0.567780	-0.523428
H224	H	0.202826	-0.067780	-0.023428
H225	H	-0.164377	-1.234000	-0.681786
H226	H	0.335623	-0.734000	-0.181786
C227	C	-0.479741	-1.248508	-0.274725
C228	C	0.020259	-0.748508	0.225275
H229	H	-0.459046	-1.278625	-0.244643
H230	H	0.040954	-0.778625	0.255357
H231	H	-0.498043	-1.218299	-0.240267
H232	H	0.001957	-0.718299	0.259733
H233	H	-0.498044	-1.282943	-0.304965
H234	H	0.001956	-0.782943	0.195035
H235	H	-0.297176	-0.717542	-0.523416
H236	H	0.202824	-0.217542	-0.023416
H237	H	-0.135747	-0.567748	-0.238464
H238	H	0.364253	-0.067748	0.261536
C239	C	-0.597052	-1.299093	-0.224129
C240	C	-0.097052	-0.799093	0.275871
H241	H	-0.617748	-1.329205	-0.194018
H242	H	-0.117748	-0.829205	0.305982
H243	H	-0.578750	-1.333522	-0.254367
H244	H	-0.078750	-0.833522	0.245633
H245	H	-0.578750	-1.268862	-0.189686
H246	H	-0.078750	-0.768862	0.310314
C247	C	-0.156237	-0.432138	-0.274646
C248	C	0.343763	0.067862	0.225354
H249	H	-0.160345	-0.377064	-0.281904
H250	H	0.339655	0.122936	0.218096
H251	H	-0.162861	-0.445682	-0.221554
H252	H	0.337139	0.054318	0.278446
H253	H	-0.126039	-0.445650	-0.286140
H254	H	0.373961	0.054350	0.213860
C255	C	-0.276699	-0.432165	-0.487276
C256	C	0.223301	0.067835	0.012724
H257	H	-0.272595	-0.377090	-0.480030
H258	H	0.227405	0.122910	0.019970
H259	H	-0.270075	-0.445682	-0.540366
H260	H	0.229925	0.054318	-0.040366
H261	H	-0.306896	-0.445708	-0.475778
H262	H	0.193104	0.054292	0.024222
H263	H	-0.164412	-0.841344	-0.289049
H264	H	0.335588	-0.341344	0.210951
H265	H	-0.268540	-1.050449	-0.681854
H266	H	0.231460	-0.550449	-0.181854
H267	H	-0.688846	-0.999993	-0.523019
H268	H	-0.188846	-0.499993	-0.023019
C269	C	-0.156204	-1.248606	-1.090981
C270	C	0.343796	-0.748606	-0.590981
H271	H	-0.160320	-1.241385	-1.146058
H272	H	0.339680	-0.741385	-0.646058
H273	H	-0.126011	-1.237080	-1.077476
H274	H	0.373989	-0.737080	-0.577476
H275	H	-0.162812	-1.301703	-1.077414
H276	H	0.337188	-0.801703	-0.577414
H277	H	-0.688859	-1.284662	-0.238535
H278	H	-0.188859	-0.784662	0.261465
H279	H	-0.960325	-1.234157	-0.288985
H280	H	-0.460325	-0.734157	0.211015
H281	H	-0.297257	-0.999969	-0.955465
H282	H	0.202743	-0.499969	-0.455465
C283	C	-1.052135	-1.036216	-0.486800
C284	C	-0.552135	-0.536216	0.013200
H285	H	-1.031440	-1.006091	-0.516900
H286	H	-0.531440	-0.506091	-0.016900
H287	H	-1.070440	-1.066436	-0.521241
H288	H	-0.570440	-0.566436	-0.021241
H289	H	-1.070434	-1.001788	-0.456548
H290	H	-0.570434	-0.501788	0.043452
H291	H	-0.387920	-1.050533	-0.472612
H292	H	0.112080	-0.550533	0.027388
C293	C	-0.597033	-0.985544	-0.537505
C294	C	-0.097033	-0.485544	-0.037505
H295	H	-0.617725	-0.955439	-0.567604
H296	H	-0.117725	-0.455439	-0.067604
H297	H	-0.578722	-0.951108	-0.507289
H298	H	-0.078722	-0.451108	-0.007289
H299	H	-0.578740	-1.015781	-0.571957
H300	H	-0.078740	-0.515781	-0.071957
C301	C	-0.276760	-1.036145	-1.091064
C302	C	0.223240	-0.536145	-0.591064
H303	H	-0.272652	-1.043404	-1.146136
H304	H	0.227348	-0.543404	-0.646136
H305	H	-0.306950	-1.047667	-1.077510
H306	H	0.193050	-0.547667	-0.577510
H307	H	-0.270153	-0.983037	-1.077575
H308	H	0.229847	-0.483037	-0.577575
H309	H	-0.135686	-1.284677	-0.955356
H310	H	0.364314	-0.784677	-0.455356
C311	C	-0.276678	-0.853162	-0.487224
C312	C	0.223322	-0.353162	0.012776
H313	H	-0.293763	-0.816761	-0.517379
H314	H	0.206237	-0.316761	-0.017379
H315	H	-0.259458	-0.885354	-0.521610
H316	H	0.240542	-0.385354	-0.021610
H317	H	-0.296284	-0.885376	-0.457031
H318	H	0.203716	-0.385376	0.042969
H319	H	-0.473044	-1.050546	-0.472585
H320	H	0.026956	-0.550546	0.027415
C321	C	-0.737798	-1.299116	-0.224069
C322	C	-0.237798	-0.799116	0.275931
H323	H	-0.758495	-1.329228	-0.193959
H324	H	-0.258495	-0.829228	0.306041
H325	H	-0.719496	-1.333544	-0.254308
H326	H	-0.219496	-0.833544	0.245692
H327	H	-0.719496	-1.268886	-0.189625
H328	H	-0.219496	-0.768886	0.310375
C329	C	-0.836321	-1.299131	-0.224039
C330	C	-0.336321	-0.799131	0.275961
H331	H	-0.867622	-1.291884	-0.231267
H332	H	-0.367622	-0.791884	0.268733
H333	H	-0.828638	-1.352236	-0.235613
H334	H	-0.328638	-0.852236	0.264387
H335	H	-0.828633	-1.287580	-0.170928
H336	H	-0.328633	-0.787580	0.329072
H337	H	-0.744496	-1.000023	-0.522999
H338	H	-0.244496	-0.500023	-0.022999
C339	C	-0.836304	-0.985584	-0.537399
C340	C	-0.336304	-0.485584	-0.037399
H341	H	-0.815609	-0.955459	-0.567499
H342	H	-0.315609	-0.455459	-0.067499
H343	H	-0.854612	-1.015798	-0.571840
H344	H	-0.354612	-0.515798	-0.071840
H345	H	-0.854600	-0.951156	-0.507141
H346	H	-0.354600	-0.451156	-0.007141
H347	H	-0.135735	-0.717526	-0.238447
H348	H	0.364265	-0.217526	0.261553
