data_functionalizedCrystal
_audit_creation_method	'MofGen! by Chris Wilmer'
_symmetry_space_group_name_H-M	'P1'
_symmetry_Int_Tables_number	1
_symmetry_cell_setting	triclinic
loop_
_symmetry_equiv_pos_as_xyz
  x,y,z
_cell_length_a	12.759401
_cell_length_b	19.121063
_cell_length_c	12.759393
_cell_angle_alpha	92.402917
_cell_angle_beta	89.981504
_cell_angle_gamma	92.469017
loop_
_atom_site_label
_atom_site_type_symbol
_atom_site_fract_x
_atom_site_fract_y
_atom_site_fract_z
Zn1	Zn	1.588321	-0.279568	-0.611771
Zn2	Zn	1.580680	-0.397037	-0.443567
Zn3	Zn	1.412621	-0.279605	-0.436113
Zn4	Zn	1.405080	-0.396983	-0.619205
O5	O	1.496676	-0.338298	-0.527664
O6	O	1.734328	-0.295158	-0.589467
O7	O	1.558345	-0.381497	-0.295559
O8	O	1.442282	-0.181316	-0.453184
O9	O	1.728714	-0.381462	-0.465888
O10	O	1.571368	-0.181289	-0.582240
O11	O	1.434872	-0.295221	-0.290083
O12	O	1.264600	-0.295168	-0.460392
O13	O	1.429429	-0.381370	-0.765237
O14	O	1.259060	-0.381405	-0.594909
O15	O	1.564056	-0.295106	-0.759776
O16	O	1.551032	-0.495314	-0.473095
O17	O	1.422020	-0.495274	-0.602136
C18	C	1.223709	-0.338285	-0.527649
C19	C	1.106932	-0.338297	-0.527668
C20	C	1.049208	-0.383272	-0.597605
C21	C	0.939483	-0.383281	-0.597616
C22	C	0.945216	-0.293337	-0.457747
C23	C	1.054939	-0.293325	-0.457741
C24	C	1.101200	-0.428244	-0.667532
C25	C	1.043476	-0.473224	-0.737473
C26	C	0.933751	-0.473233	-0.737485
C27	C	0.881751	-0.428262	-0.667556
C28	C	1.484907	-0.520778	-0.539254
C29	C	1.479969	-0.598844	-0.544247
C30	C	1.544871	-0.635516	-0.479464
C31	C	1.540233	-0.708867	-0.484167
C32	C	1.470686	-0.745544	-0.553648
C33	C	1.405781	-0.708866	-0.618438
C34	C	1.410426	-0.635517	-0.613740
C35	C	1.453305	-0.967013	-0.571195
C36	C	1.448663	-1.040368	-0.575886
C37	C	1.583116	-1.040364	-0.441616
C38	C	1.587750	-0.967013	-0.436920
C39	C	1.522849	-0.930341	-0.501714
C40	C	1.465941	-0.820521	-0.558454
C41	C	1.527600	-0.855366	-0.496912
C42	C	1.770708	-0.338312	-0.527680
C43	C	1.887484	-0.338318	-0.527686
C44	C	1.496754	-0.338227	-0.801693
C45	C	1.496787	-0.338197	-0.918468
C46	C	1.508518	-0.155106	-0.516052
C47	C	1.513565	-0.077040	-0.511103
C48	C	1.566897	-0.293275	-0.970488
C49	C	1.566923	-0.293250	-1.080210
C50	C	1.426727	-0.383075	-1.085884
C51	C	1.426696	-0.383096	-0.976163
C52	C	1.636987	-0.248377	-0.912792
C53	C	1.707103	-0.203452	-0.964812
C54	C	1.707130	-0.203426	-1.074535
C55	C	1.637040	-0.248326	-1.132237
C56	C	1.496661	-0.338318	-0.254698
C57	C	1.496844	-0.338151	-0.137911
H58	H	0.886755	-0.509852	-0.794441
O59	O	1.595006	-0.819710	-0.429306
C60	C	1.614435	-0.736924	-0.282223
C61	C	1.537986	-0.777282	-0.358707
H62	H	1.568367	-0.702600	-0.225138
H63	H	1.660012	-0.775699	-0.236638
H64	H	1.671541	-0.702558	-0.328327
H65	H	1.480817	-0.811649	-0.312684
H66	H	1.492486	-0.738469	-0.404292
O67	O	1.093862	-0.517001	-0.805356
C68	C	1.119811	-0.636510	-0.863609
C69	C	1.062664	-0.587011	-0.786683
H70	H	1.094626	-0.693124	-0.848524
H71	H	1.099037	-0.624302	-0.947599
H72	H	1.208146	-0.628743	-0.851605
H73	H	0.974317	-0.594750	-0.798592
H74	H	1.083524	-0.599232	-0.702722
H75	H	1.400458	-0.937161	-0.623951
H76	H	1.392042	-1.070228	-0.632484
H77	H	0.792406	-0.428267	-0.667580
O78	O	0.894539	-0.249729	-0.389850
C79	C	0.728045	-0.209869	-0.327900
C80	C	0.785300	-0.259298	-0.404840
H81	H	0.639717	-0.217577	-0.340008
H82	H	0.748723	-0.222139	-0.243912
H83	H	0.753321	-0.153253	-0.342873
H84	H	0.760055	-0.315930	-0.389963
H85	H	0.764621	-0.246967	-0.488803
O86	O	1.612371	-0.599968	-0.411827
C87	C	1.664843	-0.577566	-0.231720
C88	C	1.588343	-0.617878	-0.308204
H89	H	1.645430	-0.592020	-0.147923
H90	H	1.748656	-0.591945	-0.251078
H91	H	1.657031	-0.518845	-0.239541
H92	H	1.596061	-0.676608	-0.300424
H93	H	1.504561	-0.603441	-0.288824
H94	H	1.101940	-0.256697	-0.400800
H95	H	1.636976	-0.248394	-0.823451
O96	O	1.358634	-0.426668	-0.925457
C97	C	1.296503	-0.466535	-0.758938
C98	C	1.373627	-0.417145	-0.816228
H99	H	1.308613	-0.458863	-0.670617
H100	H	1.212567	-0.454191	-0.779645
H101	H	1.311282	-0.523158	-0.784152
H102	H	1.358943	-0.360505	-0.791044
H103	H	1.457537	-0.429549	-0.795519
H104	H	1.593082	-0.738723	-0.431413
H105	H	1.369663	-0.419629	-1.132874
O106	O	1.775140	-0.159900	-0.908607
C107	C	1.837182	-0.120092	-0.737060
C108	C	1.760094	-0.169464	-0.800581
H109	H	1.825029	-0.127796	-0.649709
H110	H	1.921131	-0.132424	-0.759342
H111	H	1.822407	-0.063461	-0.755112
H112	H	1.774773	-0.226111	-0.782563
H113	H	1.676171	-0.157071	-0.778291
O114	O	1.775333	-0.159764	-1.124904
C115	C	1.914346	-0.070646	-1.107689
C116	C	1.837172	-0.120067	-1.050517
H117	H	1.964347	-0.038527	-1.047571
H118	H	1.967280	-0.102851	-1.161072
H119	H	1.868484	-0.033935	-1.156759
H120	H	1.882949	-0.156788	-1.001390
H121	H	1.784238	-0.087818	-0.997197
H122	H	1.357577	-0.605658	-0.666494
O123	O	1.655410	-0.931495	-0.369408
C124	C	1.788249	-0.939235	-0.236698
C125	C	1.711690	-0.979545	-0.313124
H126	H	1.833757	-0.978065	-0.191155
H127	H	1.845402	-0.904859	-0.282737
H128	H	1.742204	-0.904929	-0.179567
H129	H	1.757648	-1.013888	-0.370271
H130	H	1.654538	-1.013876	-0.267017
O131	O	1.338250	-0.744601	-0.685840
C132	C	1.271545	-0.857599	-0.752623
C133	C	1.348058	-0.817220	-0.676228
H134	H	1.279464	-0.916318	-0.744894
H135	H	1.187722	-0.843284	-0.733182
H136	H	1.290856	-0.843079	-0.836415
H137	H	1.328843	-0.831717	-0.592410
H138	H	1.431858	-0.831538	-0.695760
H139	H	1.409314	-0.850391	-0.615023
H140	H	1.635956	-1.070229	-0.388866
H141	H	1.190543	-0.428243	-0.667528
H142	H	1.637056	-0.248293	-1.221580
