data_functionalizedCrystal
_audit_creation_method	'MofGen! by Chris Wilmer'
_symmetry_space_group_name_H-M	'P1'
_symmetry_Int_Tables_number	1
_symmetry_cell_setting	triclinic
loop_
_symmetry_equiv_pos_as_xyz
  x,y,z
_cell_length_a	11.026660
_cell_length_b	10.908878
_cell_length_c	16.176319
_cell_angle_alpha	89.992977
_cell_angle_beta	89.993645
_cell_angle_gamma	84.334813
loop_
_atom_site_label
_atom_site_type_symbol
_atom_site_fract_x
_atom_site_fract_y
_atom_site_fract_z
O1	O	1.506482	0.513749	-0.068748
O2	O	2.006482	1.013749	0.431252
O3	O	1.164983	0.455251	-0.068749
O4	O	1.664983	0.955251	0.431251
O5	O	1.381002	0.308032	-0.068745
O6	O	1.881002	0.808032	0.431255
O7	O	1.290462	0.660968	-0.068751
O8	O	1.790462	1.160968	0.431249
O9	O	1.380980	0.308014	0.068748
O10	O	1.880980	0.808014	0.568748
O11	O	1.164961	0.455233	0.068745
O12	O	1.664961	0.955233	0.568745
O13	O	1.506459	0.513731	0.068745
O14	O	2.006459	1.013731	0.568745
Cu15	Cu	1.335708	0.484480	0.081299
Cu16	Cu	1.835708	0.984480	0.581299
Cu17	Cu	1.335734	0.484501	-0.081303
Cu18	Cu	1.835734	0.984501	0.418697
O19	O	1.290440	0.660950	0.068742
O20	O	1.790440	1.160950	0.568742
C21	C	1.121939	0.444450	-0.000002
C22	C	1.621939	0.944450	0.499998
C23	C	0.993718	0.412278	-0.000002
C24	C	1.493718	0.912278	0.499998
C25	C	1.389452	0.262137	0.000001
C26	C	1.889452	0.762137	0.500001
C27	C	1.414651	0.125409	-0.000002
C28	C	1.914651	0.625409	0.499998
C29	C	0.769459	0.467871	-0.000006
C30	C	1.269459	0.967871	0.499994
C31	C	0.901982	0.501124	-0.000005
C32	C	1.401982	1.001124	0.499995
C33	C	1.322707	0.055148	-0.000004
C34	C	1.822707	0.555148	0.499996
C35	C	1.348748	-0.086168	-0.000007
C36	C	1.848748	0.413832	0.499993
C37	C	1.549503	0.524532	-0.000003
C38	C	2.049503	1.024532	0.499997
C39	C	1.677724	0.556704	-0.000008
C40	C	2.177724	1.056704	0.499992
C41	C	1.281990	0.706844	-0.000006
C42	C	1.781990	1.206844	0.499994
C43	C	1.256791	0.843572	-0.000008
C44	C	1.756791	1.343572	0.499992
N45	N	1.335698	0.484467	0.195664
N46	N	1.835698	0.984467	0.695664
N47	N	1.335755	0.484507	-0.195668
N48	N	1.835755	0.984507	0.304332
C49	C	1.431368	0.419318	0.238930
C50	C	1.931368	0.919318	0.738930
C51	C	1.431375	0.419318	0.325477
C52	C	1.931375	0.919318	0.825477
C53	C	1.335714	0.484475	0.368757
C54	C	1.835714	0.984475	0.868757
C55	C	1.240034	0.549626	0.325485
C56	C	1.740034	1.049626	0.825485
C57	C	1.240025	0.549618	0.238940
C58	C	1.740025	1.049618	0.738940
C59	C	1.240069	0.549658	0.674513
C60	C	1.740069	1.049658	1.174513
C61	C	1.240088	0.549664	0.761065
C62	C	1.740088	1.049664	1.261065
C63	C	1.431419	0.419358	0.761051
C64	C	1.931419	0.919358	1.261051
C65	C	1.431410	0.419350	0.674505
C66	C	1.931410	0.919350	1.174505
C67	C	1.335728	0.484495	0.631241
C68	C	1.835728	0.984495	1.131241
C69	C	1.335721	0.484493	0.537397
C70	C	1.835721	0.984493	1.037397
C71	C	1.335724	0.484486	0.462600
C72	C	1.835724	0.984486	0.962600
H73	H	0.921547	0.601802	-0.000001
H74	H	1.421547	1.101802	0.499999
H75	H	1.162120	0.602667	0.203713
H76	H	1.662120	1.102667	0.703713
N77	N	1.136862	0.619902	0.372169
N78	N	1.636862	1.119902	0.872169
H79	H	1.132632	0.710072	0.357095
H80	H	1.632632	1.210072	0.857095
H81	H	1.057497	0.586601	0.357108
H82	H	1.557497	1.086601	0.857108
H83	H	1.446751	-0.130629	-0.000004
H84	H	1.946751	0.369371	0.499996
H85	H	1.158788	-0.111968	-0.000001
H86	H	1.658788	0.388032	0.499999
N87	N	1.192895	0.114032	0.000022
N88	N	1.692895	0.614032	0.500022
H89	H	1.192692	0.206636	0.000031
H90	H	1.692692	0.706636	0.500031
H91	H	1.149567	0.087383	-0.050943
H92	H	1.649567	0.587383	0.449057
H93	H	1.162185	0.602724	0.796302
H94	H	1.662185	1.102724	1.296302
H95	H	1.512647	0.080943	0.000001
H96	H	2.012647	0.580943	0.500001
H97	H	1.509270	0.366266	0.203697
H98	H	2.009270	0.866266	0.703697
H99	H	0.974155	0.311599	-0.000056
H100	H	1.474155	0.811599	0.499944
H101	H	1.509276	0.366268	0.360704
H102	H	2.009276	0.866268	0.860704
N103	N	1.136870	0.619910	0.627856
N104	N	1.636870	1.119910	1.127856
H105	H	1.076275	0.661187	0.668409
H106	H	1.576275	1.161187	1.168409
H107	H	1.170283	0.684436	0.591930
H108	H	1.670283	1.184436	1.091930
N109	N	0.703631	0.690059	-0.000004
N110	N	1.203631	1.190059	0.499996
H111	H	0.794628	0.694911	-0.000002
H112	H	1.294628	1.194911	0.499998
H113	H	0.666747	0.732238	-0.050975
H114	H	1.166747	1.232238	0.449025
H115	H	0.749888	0.367199	0.000008
H116	H	1.249888	0.867199	0.500008
H117	H	1.509308	0.366299	0.639270
H118	H	2.009308	0.866299	1.139270
N119	N	1.534622	0.349089	0.807714
N120	N	2.034622	0.849089	1.307714
H121	H	1.520117	0.358974	0.869108
H122	H	2.020117	0.858974	1.369108
H123	H	1.538805	0.258947	0.792595
H124	H	2.038805	0.758947	1.292595
