data_functionalizedCrystal
_audit_creation_method	'MofGen! by Chris Wilmer'
_symmetry_space_group_name_H-M	'P1'
_symmetry_Int_Tables_number	1
_symmetry_cell_setting	triclinic
loop_
_symmetry_equiv_pos_as_xyz
  x,y,z
_cell_length_a	14.519731
_cell_length_b	17.699083
_cell_length_c	16.776229
_cell_angle_alpha	89.995692
_cell_angle_beta	89.993130
_cell_angle_gamma	83.485934
loop_
_atom_site_label
_atom_site_type_symbol
_atom_site_fract_x
_atom_site_fract_y
_atom_site_fract_z
O1	O	-1.223435	-0.099289	0.066310
O2	O	-0.954911	-0.110956	0.066308
O3	O	-1.096760	0.005045	0.066302
O4	O	-1.081587	-0.215289	0.066316
O5	O	-1.096744	0.005045	-0.066274
O6	O	-0.954895	-0.110955	-0.066269
O7	O	-1.223419	-0.099288	-0.066266
Zn8	Zn	-1.089155	-0.105122	-0.087317
Zn9	Zn	-1.089176	-0.105122	0.087358
O10	O	-1.081571	-0.215289	-0.066261
C11	C	-0.920546	-0.110409	0.000019
C12	C	-0.818173	-0.108771	0.000018
C13	C	-0.735035	-0.107440	0.000020
C14	C	-0.630733	-0.105776	0.000018
C15	C	-0.547599	-0.104456	0.000017
C16	C	-0.443291	-0.102793	0.000017
N17	N	-1.089147	-0.105121	-0.206528
C18	C	-0.257784	-0.099835	0.000020
C19	C	-0.360158	-0.101473	0.000015
C20	C	-1.096208	0.033244	0.000014
C21	C	-1.094577	0.117266	0.000013
C22	C	-1.082123	-0.243488	0.000030
C23	C	-1.083754	-0.327510	0.000035
C24	C	-1.177839	0.165644	0.000013
C25	C	-1.176301	0.244592	0.000020
C26	C	-1.091500	0.275161	0.000022
C27	C	-1.008232	0.226777	0.000024
C28	C	-1.009771	0.147831	0.000023
C29	C	-1.002023	0.545158	0.000031
C30	C	-1.000491	0.624111	0.000030
C31	C	-1.168554	0.641919	0.000028
C32	C	-1.170093	0.562973	0.000026
C33	C	-1.086825	0.514596	0.000033
C34	C	-1.088493	0.428992	0.000027
C35	C	-1.089830	0.360763	0.000022
C36	C	-1.144971	-0.151133	-0.248238
C37	C	-1.144981	-0.151130	-0.331690
C38	C	-1.089162	-0.105119	-0.373431
C39	C	-1.033336	-0.059102	-0.331715
C40	C	-1.033331	-0.059101	-0.248265
C41	C	-1.033354	-0.059103	-0.668262
C42	C	-1.033361	-0.059109	-0.751719
C43	C	-1.145005	-0.151132	-0.751688
C44	C	-1.145000	-0.151131	-0.668237
C45	C	-1.089178	-0.105111	-0.626529
C46	C	-1.089169	-0.105114	-0.536041
C47	C	-1.089166	-0.105120	-0.463918
N48	N	-1.089191	-0.105117	0.206570
H49	H	-1.244102	0.283978	0.000018
N50	N	-1.261559	0.530008	0.000020
H51	H	-1.298035	0.547636	0.049167
H52	H	-1.249825	0.472660	-0.000012
H53	H	-0.987901	-0.021630	-0.634313
N54	N	-1.258368	0.694097	0.000020
H55	H	-1.244531	0.748748	0.000024
H56	H	-1.295345	0.684182	0.049165
H57	H	-0.941970	0.108442	0.000023
H58	H	-0.931431	0.648996	0.000029
H59	H	-0.934221	0.505779	0.000036
N60	N	-0.916766	0.259743	0.000031
H61	H	-0.928423	0.317096	0.000029
H62	H	-0.880332	0.242056	-0.049116
H63	H	-1.190420	-0.188605	-0.214259
N64	N	-0.973131	-0.009478	-0.376739
H65	H	-0.906001	-0.024280	-0.362223
H66	H	-0.991526	0.045540	-0.362205
H67	H	-1.190441	-0.188596	-0.365647
H68	H	-1.190450	-0.188601	-0.634256
H69	H	-0.987904	-0.021638	-0.785702
N70	N	-1.205228	-0.200766	-0.796665
H71	H	-1.165000	-0.237736	-0.831294
H72	H	-1.250442	-0.167849	-0.831236
N73	N	-1.269304	0.132676	0.000004
H74	H	-1.321816	0.175305	0.000006
H75	H	-1.273611	0.100304	0.049150
N76	N	-0.973126	-0.009470	-0.203273
H77	H	-0.937764	0.019677	-0.242377
H78	H	-0.927967	-0.042382	-0.168650
