data_functionalizedCrystal
_audit_creation_method	'MofGen! by Chris Wilmer'
_symmetry_space_group_name_H-M	'P1'
_symmetry_Int_Tables_number	1
_symmetry_cell_setting	triclinic
loop_
_symmetry_equiv_pos_as_xyz
  x,y,z
_cell_length_a	16.994747
_cell_length_b	19.805407
_cell_length_c	19.805399
_cell_angle_alpha	89.980427
_cell_angle_beta	89.985434
_cell_angle_gamma	90.009360
loop_
_atom_site_label
_atom_site_type_symbol
_atom_site_fract_x
_atom_site_fract_y
_atom_site_fract_z
Zn1	Zn	0.314046	-1.034816	0.382781
Zn2	Zn	0.445954	-1.034764	0.269618
Zn3	Zn	0.314068	-0.921631	0.269605
Zn4	Zn	0.445912	-0.921628	0.382765
O5	O	0.379995	-0.978210	0.326192
O6	O	0.331553	-1.129526	0.367782
O7	O	0.428486	-1.019737	0.174900
O8	O	0.203684	-0.936668	0.284620
O9	O	0.428465	-1.129488	0.284642
O10	O	0.203668	-1.019824	0.367769
O11	O	0.331590	-0.936618	0.174891
O12	O	0.331549	-0.826914	0.284604
O13	O	0.428393	-0.936663	0.477484
O14	O	0.428414	-0.826912	0.367742
O15	O	0.331512	-1.019822	0.477495
O16	O	0.556330	-1.019734	0.284626
O17	O	0.556299	-0.936613	0.367755
C18	C	0.379980	-0.802354	0.326171
C19	C	0.379993	-0.727122	0.326177
C20	C	0.084935	-0.978274	0.326187
C21	C	0.174257	-0.978257	0.326192
Zn22	Zn	-0.185951	-1.034738	0.269551
Zn23	Zn	-0.054014	-0.921611	0.269633
Zn24	Zn	-0.185934	-0.921688	0.382785
Zn25	Zn	-0.054120	-1.034884	0.382721
O26	O	-0.120005	-0.978230	0.326173
O27	O	-0.168412	-1.019638	0.174845
O28	O	-0.071462	-0.826905	0.284704
O29	O	-0.296318	-0.936656	0.367756
O30	O	-0.071478	-0.936524	0.174906
O31	O	-0.296330	-1.019712	0.284564
O32	O	-0.168383	-0.826961	0.367836
O33	O	-0.168486	-0.936797	0.477493
O34	O	-0.071659	-1.129581	0.367648
O35	O	-0.071643	-1.019961	0.477446
O36	O	-0.168515	-1.129473	0.284502
O37	O	0.056353	-0.936666	0.284642
O38	O	0.056275	-1.019887	0.367728
C39	C	0.584935	-0.978176	0.326188
C40	C	0.674257	-0.978183	0.326171
C41	C	0.379945	-0.978248	0.502735
C42	C	0.379924	-0.978264	0.577967
C43	C	0.380011	-1.154752	0.326215
C44	C	0.380018	-1.229984	0.326224
C45	C	0.430506	-0.691794	0.369397
C46	C	0.430508	-0.621106	0.369407
C47	C	0.379999	-0.585746	0.326192
C48	C	0.329479	-0.621079	0.282971
C49	C	0.329475	-0.691766	0.282965
C50	C	0.329497	-0.336005	0.282993
C51	C	0.329507	-0.265313	0.283001
C52	C	0.430530	-0.265345	0.369435
C53	C	0.430525	-0.336032	0.369429
C54	C	0.380003	-0.371359	0.326210
C55	C	0.380001	-0.448007	0.326201
C56	C	0.380004	-0.509099	0.326197
C57	C	0.379988	-0.978211	0.150336
C58	C	0.379787	-0.978326	0.075105
C59	C	0.329476	-1.021566	0.613319
C60	C	0.329453	-1.021573	0.684007
C61	C	0.379883	-0.978281	0.719343
C62	C	0.430334	-0.934974	0.683987
C63	C	0.430352	-0.934964	0.613299
C64	C	0.430260	-0.935012	0.969060
C65	C	0.430240	-0.935027	1.039752
C66	C	0.329361	-1.021621	1.039768
C67	C	0.329379	-1.021611	0.969080
C68	C	0.379827	-0.978302	0.933730
C69	C	0.379850	-0.978294	0.857082
C70	C	0.379865	-0.978291	0.795990
C71	C	-0.120073	-0.978404	0.502029
C72	C	-0.120083	-0.978493	0.577261
C73	C	-0.120101	-1.154773	0.326059
C74	C	-0.120142	-1.230005	0.326010
C75	C	-0.119935	-0.978056	0.149630
C76	C	-0.119906	-0.977982	0.074398
C77	C	-0.119965	-0.802374	0.326248
C78	C	-0.120144	-0.727142	0.326167
C79	C	-0.069588	-1.021773	0.612551
C80	C	-0.069597	-1.021871	0.683239
C81	C	-0.120098	-0.978685	0.718636
C82	C	-0.170598	-0.935404	0.683341
C83	C	-0.170592	-0.935310	0.612654
C84	C	-0.170595	-1.265282	0.282698
C85	C	-0.170650	-1.335971	0.282653
C86	C	-0.120247	-1.371380	0.325917
C87	C	-0.069791	-1.336098	0.369234
C88	C	-0.069741	-1.265410	0.369282
C89	C	-0.170360	-1.021225	0.039033
C90	C	-0.170332	-1.021169	-0.031656
C91	C	-0.119853	-0.977866	-0.066978
C92	C	-0.069393	-0.934621	-0.031608
C93	C	-0.069418	-0.934681	0.039079
C94	C	-0.170329	-0.691872	0.369725
C95	C	-0.170513	-0.621184	0.369649
C96	C	-0.120508	-0.585767	0.326018
C97	C	-0.070321	-0.621043	0.282455
C98	C	-0.070142	-0.691730	0.282528
H99	H	0.471639	-0.720579	0.404585
C100	C	-0.013924	-0.887102	0.077973
H101	H	0.016134	-0.861302	0.046808
H102	H	0.020427	-0.913016	0.105541
H103	H	-0.044100	-0.857623	0.105557
H104	H	0.288372	-0.236525	0.247810
H105	H	0.288337	-0.720528	0.247775
H106	H	0.471642	-0.592345	0.404600
H107	H	-0.120296	-1.428938	0.325871
C108	C	-0.014346	-1.375051	0.416818
H109	H	0.015711	-1.343922	0.442627
H110	H	0.020006	-1.402611	0.390902
H111	H	-0.044554	-1.402647	0.446289
H112	H	-0.120095	-0.978769	0.776194
C113	C	-0.226147	-1.374772	0.234999
H114	H	-0.218971	-1.421943	0.241168
H115	H	-0.214571	-1.363143	0.189533
H116	H	-0.279144	-1.363172	0.244910
C117	C	-0.120705	-0.508013	0.325950
H118	H	-0.157751	-0.492084	0.358148
H119	H	-0.134735	-0.492069	0.282344
H120	H	-0.069747	-0.491916	0.337333
C121	C	-0.225342	-0.730817	0.417719
H122	H	-0.255259	-0.699679	0.443640
H123	H	-0.194872	-0.758313	0.447058
H124	H	-0.259853	-0.758476	0.392062
C125	C	-0.119839	-0.977801	-0.144732
H126	H	-0.157127	-1.009754	-0.160731
H127	H	-0.068942	-0.989503	-0.160737
H128	H	-0.133461	-0.934103	-0.160698
C129	C	-0.013878	-0.886986	-0.070469
H130	H	-0.021103	-0.893143	-0.117631
H131	H	0.039116	-0.896905	-0.058896
H132	H	-0.025413	-0.841514	-0.058862
H133	H	-0.211472	-1.056487	0.067783
H134	H	-0.028652	-1.236693	0.404551
C135	C	0.273930	-0.374859	0.235453
H136	H	0.281151	-0.422022	0.241641
H137	H	0.285404	-0.363254	0.189961
H138	H	0.220947	-0.363279	0.245437
H139	H	-0.211426	-1.056384	-0.060444
H140	H	-0.211381	-0.592472	0.405125
H141	H	0.471657	-0.364819	0.404616
C142	C	-0.015314	-0.582078	0.234471
H143	H	-0.022608	-0.534929	0.240677
H144	H	-0.027185	-0.593710	0.189074
H145	H	0.037794	-0.593549	0.244072
H146	H	-0.029271	-0.720441	0.247060
H147	H	0.288374	-1.056835	0.712787
H148	H	-0.028469	-1.056947	0.583740
H149	H	0.471392	-0.899723	0.712763
C150	C	0.486096	-0.226485	0.416982
H151	H	0.478861	-0.179322	0.410805
H152	H	0.539078	-0.238059	0.407004
H153	H	0.474616	-0.238093	0.462476
C154	C	0.273923	-0.582185	0.235434
H155	H	0.281166	-0.535026	0.241621
H156	H	0.220938	-0.593776	0.245407
H157	H	0.285405	-0.593752	0.189939
C158	C	0.485713	-0.887404	1.078624
H159	H	0.478482	-0.893621	1.125785
H160	H	0.474168	-0.841927	1.067036
H161	H	0.538719	-0.897299	1.067039
H162	H	0.288412	-1.056821	0.584553
H163	H	-0.028470	-1.057116	0.711967
H164	H	0.288316	-1.056866	0.940313
C165	C	0.273863	-1.069256	1.078654
H166	H	0.281066	-1.063059	1.125814
H167	H	0.285417	-1.114728	1.067078
H168	H	0.220864	-1.059357	1.067067
C169	C	0.485734	-0.887361	0.930184
H170	H	0.515764	-0.861581	0.961354
H171	H	0.455547	-0.857876	0.902614
H172	H	0.520123	-0.913227	0.902604
H173	H	0.471425	-0.899697	0.584517
C174	C	-0.226141	-0.887902	0.722284
H175	H	-0.218900	-0.894156	0.769436
H176	H	-0.279129	-0.897841	0.710705
H177	H	-0.214644	-0.842395	0.710745
H178	H	-0.211710	-0.900063	0.583926
H179	H	-0.211644	-1.236461	0.247468
