data_functionalizedCrystal
_audit_creation_method	'MofGen! by Chris Wilmer'
_symmetry_space_group_name_H-M	'P1'
_symmetry_Int_Tables_number	1
_symmetry_cell_setting	triclinic
loop_
_symmetry_equiv_pos_as_xyz
  x,y,z
_cell_length_a	17.019282
_cell_length_b	17.038272
_cell_length_c	15.500227
_cell_angle_alpha	93.033254
_cell_angle_beta	91.034464
_cell_angle_gamma	87.241387
loop_
_atom_site_label
_atom_site_type_symbol
_atom_site_fract_x
_atom_site_fract_y
_atom_site_fract_z
O1	O	1.053050	0.099876	0.006537
O2	O	1.553050	0.599876	0.506537
O3	O	0.825047	0.111730	-0.010458
O4	O	1.325047	0.611730	0.489542
O5	O	0.937693	-0.008016	-0.002055
O6	O	1.437693	0.491984	0.497945
O7	O	0.940404	0.219622	-0.001866
O8	O	1.440404	0.719622	0.498134
O9	O	0.930855	-0.000778	0.141324
O10	O	1.430855	0.499222	0.641324
O11	O	0.818209	0.118968	0.132921
O12	O	1.318209	0.618968	0.632921
O13	O	1.046212	0.107114	0.149916
O14	O	1.546212	0.607114	0.649916
Cu15	Cu	0.931587	0.113702	0.154510
Cu16	Cu	1.431587	0.613702	0.654510
Cu17	Cu	0.939673	0.105142	-0.015052
Cu18	Cu	1.439673	0.605142	0.484948
O19	O	0.933566	0.226860	0.141512
O20	O	1.433566	0.726860	0.641512
C21	C	0.792311	0.114759	0.059047
C22	C	1.292311	0.614759	0.559047
C23	C	0.704954	0.112990	0.052535
C24	C	1.204954	0.612990	0.552535
C25	C	0.660191	0.116103	0.127634
C26	C	1.160191	0.616103	0.627634
C27	C	0.578110	0.114429	0.121519
C28	C	1.078110	0.614429	0.621519
C29	C	0.540794	0.109648	0.040304
C30	C	1.040794	0.609648	0.540304
C31	C	0.585563	0.106532	-0.034801
C32	C	1.085563	0.606532	0.465199
C33	C	0.667643	0.108201	-0.028684
C34	C	1.167643	0.608201	0.471316
C35	C	0.293154	0.104407	0.017927
C36	C	0.793154	0.604407	0.517927
C37	C	0.211069	0.102741	0.011816
C38	C	0.711069	0.602741	0.511816
C39	C	0.203622	0.110636	0.168136
C40	C	0.703622	0.610636	0.668136
C41	C	0.285702	0.112309	0.174245
C42	C	0.785702	0.612309	0.674245
C43	C	0.330465	0.109189	0.099141
C44	C	0.830465	0.609189	0.599141
C45	C	0.456895	0.107939	0.034051
C46	C	0.956895	0.607939	0.534051
C47	C	0.414363	0.110893	0.105395
C48	C	0.914363	0.610893	0.605395
C49	C	0.931809	-0.033532	0.069451
C50	C	1.431809	0.466468	0.569451
C51	C	0.924455	-0.120346	0.068903
C52	C	1.424455	0.379654	0.568903
C53	C	0.991975	-0.170268	0.073936
C54	C	1.491975	0.329732	0.573936
C55	C	0.985061	-0.251838	0.073413
C56	C	1.485061	0.248162	0.573413
C57	C	0.910625	-0.283485	0.067861
C58	C	1.410625	0.216515	0.567861
C59	C	0.843100	-0.233557	0.062825
C60	C	1.343100	0.266443	0.562825
C61	C	0.850016	-0.151989	0.063342
C62	C	1.350016	0.348011	0.563342
C63	C	0.886195	-0.529314	0.066029
C64	C	1.386195	-0.029314	0.566029
C65	C	0.879284	-0.610889	0.065514
C66	C	1.379284	-0.110889	0.565514
C67	C	1.021246	-0.629164	0.076100
C68	C	1.521246	-0.129164	0.576100
C69	C	1.028155	-0.547592	0.076622
C70	C	1.528155	-0.047592	0.576622
C71	C	0.960630	-0.497672	0.071581
C72	C	1.460630	0.002328	0.571581
C73	C	0.903556	-0.366863	0.067329
C74	C	1.403556	0.133137	0.567329
C75	C	0.967700	-0.414296	0.072108
C76	C	1.467700	0.085704	0.572108
C77	C	1.078949	0.104085	0.080409
C78	C	1.578949	0.604085	0.580409
C79	C	1.166306	0.105854	0.086915
C80	C	1.666306	0.605854	0.586915
C81	C	0.939450	0.252376	0.070005
C82	C	1.439450	0.752376	0.570005
C83	C	0.946805	0.339190	0.070548
C84	C	1.446805	0.839190	0.570548
N85	N	0.925905	0.119722	0.273771
N86	N	1.425905	0.619722	0.773771
N87	N	0.945360	0.099116	-0.134313
N88	N	1.445360	0.599116	0.365687
C89	C	0.973656	0.069000	0.322610
C90	C	1.473656	0.569000	0.822610
C91	C	0.969367	0.073560	0.412863
C92	C	1.469367	0.573560	0.912863
C93	C	0.917330	0.128846	0.454275
C94	C	1.417330	0.628846	0.954275
C95	C	0.869573	0.179570	0.405430
C96	C	1.369573	0.679570	0.905430
C97	C	0.873859	0.175006	0.315178
C98	C	1.373859	0.675006	0.815178
C99	C	0.901890	0.145276	0.726590
C100	C	1.401890	0.645276	1.226590
C101	C	0.897609	0.149838	0.816849
C102	C	1.397609	0.649838	1.316849
C103	C	0.997402	0.043826	0.824275
C104	C	1.497402	0.543826	1.324275
C105	C	1.001686	0.039270	0.734022
C106	C	1.501686	0.539270	1.234022
C107	C	0.953927	0.089991	0.685184
C108	C	1.453927	0.589991	1.185184
C109	C	0.912946	0.133510	0.546528
C110	C	1.412946	0.633510	1.046528
C111	C	0.958307	0.085323	0.592932
C112	C	1.458307	0.585323	1.092932
H113	H	0.444750	0.114782	0.171520
H114	H	0.944750	0.614782	0.671520
N115	N	1.072260	-0.136137	0.079926
N116	N	1.572260	0.363863	0.579926
H117	H	1.075758	-0.100025	0.133529
H118	H	1.575758	0.399975	0.633529
H119	H	1.113936	-0.180188	0.082998
H120	H	1.613936	0.319812	0.582998
N121	N	1.108445	-0.513474	0.082608
N122	N	1.608445	-0.013474	0.582608
H123	H	1.140805	-0.534347	0.031680
H124	H	1.640805	-0.034347	0.531680
H125	H	1.102522	-0.454228	0.082202
H126	H	1.602522	0.045772	0.582202
H127	H	1.040043	-0.292482	0.077513
H128	H	1.540043	0.207518	0.577513
N129	N	0.170817	0.097590	-0.075784
N130	N	0.670817	0.597590	0.424216
H131	H	0.211628	0.095867	-0.122435
H132	H	0.711628	0.595867	0.377565
H133	H	0.140055	0.048300	-0.081487
H134	H	0.640055	0.548300	0.418513
H135	H	0.831211	-0.488677	0.061924
H136	H	1.331211	0.011323	0.561924
N137	N	0.777182	-0.098151	0.057927
N138	N	1.277182	0.401849	0.557927
H139	H	0.774354	-0.061223	0.111059
H140	H	1.274354	0.438777	0.611059
H141	H	0.779456	-0.066629	0.004725
H142	H	1.279456	0.433371	0.504725
H143	H	1.076221	-0.669818	0.080203
H144	H	1.576221	-0.169818	0.580203
N145	N	0.798997	-0.645025	0.059525
N146	N	1.298997	-0.145025	0.559525
H147	H	0.757269	-0.601024	0.056408
H148	H	1.257269	-0.101024	0.556408
H149	H	0.795578	-0.681153	0.005930
H150	H	1.295578	-0.181153	0.505930
N151	N	1.048905	-0.010884	0.876947
N152	N	1.548905	0.489116	1.376947
H153	H	1.106036	-0.002495	0.865426
H154	H	1.606036	0.497505	1.365426
H155	H	1.038231	0.000421	0.940385
H156	H	1.538231	0.500421	1.440385
H157	H	0.690567	0.120003	0.193768
H158	H	1.190567	0.620003	0.693768
N159	N	0.762815	-0.267687	0.056832
N160	N	1.262815	0.232313	0.556832
H161	H	0.768678	-0.326935	0.057271
H162	H	1.268678	0.173065	0.557271
H163	H	0.730493	-0.246756	0.107763
H164	H	1.230493	0.253244	0.607763
H165	H	0.555174	0.102634	-0.100928
H166	H	1.055174	0.602634	0.399072
N167	N	0.715927	0.104838	-0.109683
N168	N	1.215927	0.604838	0.390317
H169	H	0.679835	0.101556	-0.162061
H170	H	1.179835	0.601556	0.337939
H171	H	0.747012	0.153786	-0.110790
H172	H	1.247012	0.653786	0.389210
N173	N	0.341428	0.101036	-0.063075
N174	N	0.841428	0.601036	0.436925
H175	H	0.305331	0.097755	-0.115450
H176	H	0.805331	0.597755	0.384550
H177	H	0.372515	0.149982	-0.064187
H178	H	0.872515	0.649982	0.435813
H179	H	1.028306	-0.388526	0.076608
H180	H	1.528306	0.111474	0.576608
H181	H	0.855232	0.194862	0.850562
H182	H	1.355232	0.694862	1.350562
N183	N	0.823271	-0.400994	0.061349
N184	N	1.323271	0.099006	0.561349
H185	H	0.819773	-0.437109	0.007748
H186	H	1.319773	0.062891	0.507748
H187	H	0.814758	-0.431711	0.114089
H188	H	1.314758	0.068289	0.614089
H189	H	0.426503	0.104045	-0.032075
H190	H	0.926503	0.604045	0.467925
H191	H	0.541668	0.116950	0.182672
H192	H	1.041668	0.616950	0.682672
H193	H	0.316080	0.116199	0.240379
H194	H	0.816080	0.616199	0.740379
N195	N	0.813449	0.239206	0.450088
N196	N	1.313449	0.739206	0.950088
H197	H	0.757809	0.229229	0.430196
H198	H	1.257809	0.729229	0.930196
H199	H	0.818047	0.234378	0.514663
H200	H	1.318047	0.734378	1.014663
H201	H	1.016033	0.023983	0.288898
H202	H	1.516033	0.523983	0.788898
N203	N	0.822353	0.229708	0.262497
N204	N	1.322353	0.729708	0.762497
H205	H	0.788737	0.265425	0.302425
H206	H	1.288737	0.765425	0.802425
H207	H	0.856527	0.262482	0.227449
H208	H	1.356527	0.762482	0.727449
H209	H	1.000673	0.040306	0.559211
H210	H	1.500673	0.540306	1.059211
H211	H	1.044059	-0.005748	0.700306
H212	H	1.544059	0.494252	1.200306
N213	N	1.020898	0.018880	0.465542
N214	N	1.520898	0.518880	0.965542
H215	H	1.054527	-0.016823	0.425613
H216	H	1.554527	0.483177	0.925613
H217	H	1.055854	0.050854	0.505694
H218	H	1.555854	0.550854	1.005694
N219	N	0.155343	0.113999	0.249137
N220	N	0.655343	0.613999	0.749137
H221	H	0.097623	0.113295	0.232943
H222	H	0.597623	0.613295	0.732943
H223	H	0.170447	0.067010	0.284000
H224	H	0.670447	0.567010	0.784000
N225	N	0.850383	0.199993	0.673935
N226	N	1.350383	0.699993	1.173935
H227	H	0.884507	0.232820	0.638885
H228	H	1.384507	0.732820	1.138885
H229	H	0.815364	0.168060	0.633813
H230	H	1.315364	0.668060	1.133813
N231	N	0.856833	0.193144	0.591207
N232	N	1.356833	0.693144	1.091207
H233	H	0.870343	0.247880	0.576444
H234	H	1.370343	0.747880	1.076444
H235	H	0.801211	0.183107	0.571304
H236	H	1.301211	0.683107	1.071304
