data_functionalizedCrystal
_audit_creation_method	'MofGen! by Chris Wilmer'
_symmetry_space_group_name_H-M	'P1'
_symmetry_Int_Tables_number	1
_symmetry_cell_setting	triclinic
loop_
_symmetry_equiv_pos_as_xyz
  x,y,z
_cell_length_a	16.109318
_cell_length_b	14.853559
_cell_length_c	14.586319
_cell_angle_alpha	89.998399
_cell_angle_beta	90.000075
_cell_angle_gamma	83.550009
loop_
_atom_site_label
_atom_site_type_symbol
_atom_site_fract_x
_atom_site_fract_y
_atom_site_fract_z
O1	O	1.103281	0.115956	-0.076160
O2	O	0.861241	0.130360	-0.076178
O3	O	0.988730	-0.008083	-0.076167
O4	O	0.975792	0.254399	-0.076170
O5	O	0.988721	-0.008085	0.076314
O6	O	0.861232	0.130358	0.076303
O7	O	1.103273	0.115954	0.076321
Cu8	Cu	0.982252	0.123156	0.090235
Cu9	Cu	0.982262	0.123158	-0.090091
O10	O	0.975784	0.254396	0.076311
C11	C	0.830261	0.129773	0.000060
C12	C	0.737964	0.128016	0.000053
C13	C	0.438888	0.122340	-0.083048
C14	C	0.525611	0.123986	-0.083053
C15	C	0.525620	0.123971	0.083190
C16	C	0.438899	0.122319	0.083194
C17	C	0.395535	0.121508	0.000073
C18	C	0.568979	0.124806	0.000063
C19	C	0.663009	0.126590	0.000057
C20	C	0.301499	0.119722	0.000078
C21	C	0.988141	-0.041671	0.000072
C22	C	0.986388	-0.141753	0.000066
C23	C	0.978956	-0.564915	-0.083052
C24	C	0.978947	-0.564912	0.083189
C25	C	0.980601	-0.470881	0.083190
C26	C	0.981431	-0.423863	0.000069
C27	C	0.980608	-0.470875	-0.083053
C28	C	0.981415	-0.423861	0.166310
C29	C	0.983068	-0.329824	0.166314
C30	C	0.983905	-0.282805	0.083192
C31	C	0.983083	-0.329823	0.000067
C32	C	0.983913	-0.282805	-0.083054
C33	C	0.983097	-0.329822	-0.166180
C34	C	0.981445	-0.423856	-0.166175
C35	C	0.985557	-0.188771	0.083187
C36	C	0.985565	-0.188765	-0.083056
C37	C	1.134252	0.116541	0.000081
C38	C	1.226549	0.118298	0.000082
C39	C	0.976373	0.287985	0.000070
C40	C	0.978126	0.388067	0.000069
N41	N	0.982250	0.123154	0.217067
N42	N	0.982270	0.123153	-0.216923
C43	C	1.038721	0.061872	0.452078
C44	C	1.038724	0.061869	0.548059
C45	C	0.925793	0.184438	0.548059
C46	C	0.925787	0.184435	0.452080
C47	C	0.982256	0.123153	0.404091
C48	C	0.982264	0.123154	0.596052
C49	C	0.982266	0.123152	0.700119
C50	C	0.982253	0.123154	0.300018
H51	H	0.403600	0.121641	0.150885
C52	C	1.088804	0.007382	0.304948
C53	C	1.100745	-0.005537	0.399327
H54	H	1.127087	-0.034246	0.272386
H55	H	1.033297	-0.002386	0.289252
H56	H	1.097943	0.067538	0.289198
H57	H	1.091599	-0.065692	0.415078
H58	H	1.156264	0.004224	0.415029
C59	C	0.988043	-0.044610	-0.156879
C60	C	0.986440	-0.137079	-0.174426
H61	H	0.988577	-0.012703	-0.213288
H62	H	0.939880	-0.022336	-0.122712
H63	H	1.036769	-0.036080	-0.122748
H64	H	0.937710	-0.145610	-0.208552
H65	H	1.034608	-0.159360	-0.208608
H66	H	1.084702	0.011967	0.587127
C67	C	0.877137	0.340493	0.577594
C68	C	0.863725	0.251803	0.600806
H69	H	0.838814	0.382081	0.610152
H70	H	0.932625	0.350302	0.593327
H71	H	0.869054	0.349246	0.513562
H72	H	0.871815	0.243047	0.664837
H73	H	0.808224	0.241990	0.585080
C74	C	0.447593	0.122514	-0.247371
C75	C	0.391222	0.121440	-0.174413
H76	H	0.418167	0.121951	-0.303776
H77	H	0.475136	0.175695	-0.243913
H78	H	0.487700	0.070612	-0.243909
H79	H	0.351118	0.173345	-0.177871
H80	H	0.363665	0.068253	-0.177873
C81	C	0.613876	0.203304	-0.179491
C82	C	0.573267	0.124904	-0.174421
H83	H	0.643300	0.203865	-0.235899
H84	H	0.573767	0.255192	-0.176032
H85	H	0.652113	0.204014	-0.129987
H86	H	0.535025	0.124197	-0.223921
H87	H	0.613380	0.073003	-0.177889
H88	H	0.978295	-0.603201	-0.150731
H89	H	0.879803	0.234339	0.413007
H90	H	0.560938	0.124633	0.150864
H91	H	0.986203	-0.150491	0.150867
H92	H	0.983767	-0.291527	-0.233857
H93	H	0.980779	-0.462146	-0.233852
H94	H	0.978265	-0.603199	0.150862
H95	H	0.983736	-0.291551	0.234001
C96	C	0.978931	-0.568015	0.240117
C97	C	0.980532	-0.475547	0.257672
H98	H	0.978400	-0.599927	0.296523
H99	H	0.930213	-0.576545	0.205986
H100	H	1.027103	-0.590287	0.205947
H101	H	0.932356	-0.453274	0.291836
H102	H	1.029254	-0.467012	0.291818
