data_functionalizedCrystal
_audit_creation_method	'MofGen! by Chris Wilmer'
_symmetry_space_group_name_H-M	'P1'
_symmetry_Int_Tables_number	1
_symmetry_cell_setting	triclinic
loop_
_symmetry_equiv_pos_as_xyz
  x,y,z
_cell_length_a	12.811457
_cell_length_b	11.792241
_cell_length_c	10.868271
_cell_angle_alpha	90.005281
_cell_angle_beta	84.572363
_cell_angle_gamma	84.118185
loop_
_atom_site_label
_atom_site_type_symbol
_atom_site_fract_x
_atom_site_fract_y
_atom_site_fract_z
O1	O	1.393528	0.152863	-0.053179
O2	O	1.893528	0.652863	0.446821
O3	O	1.088042	0.169489	-0.019088
O4	O	1.588042	0.669489	0.480912
O5	O	1.248199	-0.004009	-0.036969
O6	O	1.748199	0.495991	0.463031
O7	O	1.233372	0.326361	-0.035297
O8	O	1.733372	0.826361	0.464703
O9	O	1.248185	-0.004016	-0.241613
O10	O	1.748185	0.495984	0.258387
O11	O	1.088029	0.169482	-0.223731
O12	O	1.588029	0.669482	0.276269
O13	O	1.393515	0.152856	-0.257822
O14	O	1.893515	0.652856	0.242178
Zn15	Zn	1.240770	0.161168	-0.273268
Zn16	Zn	1.740770	0.661168	0.226732
Zn17	Zn	1.240787	0.161177	-0.003642
Zn18	Zn	1.740787	0.661177	0.496358
O19	O	1.233359	0.326354	-0.239941
O20	O	1.733359	0.826354	0.260059
C21	C	1.048927	0.168554	-0.117045
C22	C	1.548927	0.668554	0.382955
C23	C	0.932394	0.165766	-0.104041
C24	C	1.432394	0.665766	0.395959
C25	C	0.713404	0.160498	-0.302731
C26	C	1.213404	0.660498	0.197269
C27	C	0.603911	0.157878	-0.290518
C28	C	1.103911	0.657878	0.209482
C29	C	0.603916	0.157897	-0.067404
C30	C	1.103916	0.657897	0.432596
C31	C	0.713408	0.160518	-0.079617
C32	C	1.213408	0.660518	0.420383
C33	C	0.768148	0.161819	-0.197284
C34	C	1.268148	0.661819	0.302716
C35	C	0.877642	0.164448	-0.209495
C36	C	1.377642	0.664448	0.290505
C37	C	0.877645	0.164459	0.013618
C38	C	1.377645	0.664459	0.513618
C39	C	0.768152	0.161839	0.025831
C40	C	1.268152	0.661839	0.525831
C41	C	1.247261	-0.046301	-0.139187
C42	C	1.747261	0.453699	0.360813
C43	C	1.244473	-0.172310	-0.138874
C44	C	1.744473	0.327690	0.361126
C45	C	1.239347	-0.403012	-0.138282
C46	C	1.739347	0.096988	0.361718
C47	C	1.242195	-0.274632	-0.138611
C48	C	1.742195	0.225368	0.361389
C49	C	1.432631	0.153791	-0.159862
C50	C	1.932631	0.653791	0.340138
C51	C	1.549163	0.156579	-0.172859
C52	C	2.049163	0.656579	0.327141
C53	C	1.234297	0.368647	-0.137721
C54	C	1.734297	0.868647	0.362279
C55	C	1.237084	0.494655	-0.138025
C56	C	1.737084	0.994655	0.361975
N57	N	1.240766	0.161161	-0.457282
N58	N	1.740766	0.661161	0.042718
C59	C	1.240782	0.161175	-0.708290
C60	C	1.740782	0.661175	-0.208290
C61	C	1.240769	0.161171	-0.568611
C62	C	1.740769	0.661171	-0.068611
N63	N	1.240800	0.161175	0.180371
N64	N	1.740800	0.661175	0.680371
H65	H	0.559342	0.156808	-0.376384
H66	H	1.059342	0.656808	0.123616
H67	H	0.922229	0.165542	0.099481
H68	H	1.422229	0.665542	0.599481
H69	H	0.559329	0.156818	0.028395
H70	H	1.059329	0.656818	0.528395
N71	N	0.712234	0.160488	0.146017
N72	N	1.212234	0.660488	0.646017
N73	N	0.660362	0.079114	0.176696
N74	N	1.160362	0.579114	0.676696
H75	H	0.620870	0.078160	0.261581
H76	H	1.120870	0.578160	0.761581
N77	N	0.933541	0.165801	-0.329692
N78	N	1.433541	0.665801	0.170308
N79	N	0.884643	0.164629	-0.423831
N80	N	1.384643	0.664629	0.076169
H81	H	0.924118	0.165587	-0.508724
H82	H	1.424118	0.665587	-0.008724
H83	H	0.757972	0.161573	-0.398540
H84	H	1.257972	0.661573	0.101460
