data_functionalizedCrystal
_audit_creation_method	'MofGen! by Chris Wilmer'
_symmetry_space_group_name_H-M	'P1'
_symmetry_Int_Tables_number	1
_symmetry_cell_setting	triclinic
loop_
_symmetry_equiv_pos_as_xyz
  x,y,z
_cell_length_a	10.489741
_cell_length_b	15.995350
_cell_length_c	14.472310
_cell_angle_alpha	90.003052
_cell_angle_beta	90.010370
_cell_angle_gamma	95.984226
loop_
_atom_site_label
_atom_site_type_symbol
_atom_site_fract_x
_atom_site_fract_y
_atom_site_fract_z
O1	O	-1.692417	0.118125	-0.076774
O2	O	-1.321067	0.129214	-0.076788
O3	O	-1.516893	0.001843	-0.076784
O4	O	-1.496591	0.245496	-0.076778
O5	O	-1.516843	0.001850	0.076898
O6	O	-1.321016	0.129221	0.076894
O7	O	-1.692367	0.118133	0.076908
Cu8	Cu	-1.506687	0.123677	0.090933
Cu9	Cu	-1.506747	0.123669	-0.090814
O10	O	-1.496540	0.245503	0.076904
C11	C	-1.273521	0.128380	0.000051
C12	C	-1.131927	0.125874	0.000046
C13	C	-1.516029	-0.029353	0.000054
C14	C	-1.513512	-0.122319	0.000045
C15	C	-1.739912	0.118966	0.000066
C16	C	-1.881507	0.121472	0.000066
C17	C	-1.064921	0.044832	0.000052
C18	C	-0.972283	0.083112	-0.075718
C19	C	-0.972267	0.083138	0.075800
C20	C	-1.041154	0.164188	-0.075787
C21	C	-1.041148	0.164203	0.075799
C22	C	-0.948537	0.202542	0.000010
C23	C	-1.497405	0.276699	0.000064
C24	C	-1.499921	0.369665	0.000066
N25	N	-1.506654	0.123683	0.218764
C26	C	-1.508958	0.707467	0.000053
C27	C	-1.648422	0.660874	-0.000285
C28	C	-1.645905	0.564168	0.000066
C29	C	-1.504476	0.539879	0.000059
C30	C	-1.435658	0.580551	0.087813
C31	C	-1.439162	0.677208	0.087882
C32	C	-1.436338	0.677530	-0.086884
C33	C	-1.436371	0.580585	-0.088039
C34	C	-1.501935	0.445167	0.000066
C35	C	-1.511495	0.802180	0.000052
N36	N	-1.506789	0.123657	-0.218645
C37	C	-1.506745	0.123666	0.592855
C38	C	-1.401611	0.191586	0.553687
C39	C	-1.401853	0.191838	0.446599
C40	C	-1.506699	0.123674	0.407264
C41	C	-1.639784	0.143558	0.446107
C42	C	-1.639193	0.144042	0.553228
C43	C	-1.479981	0.035665	0.553381
C44	C	-1.476929	0.036232	0.446253
C45	C	-1.506681	0.123677	0.302376
C46	C	-1.506771	0.123664	0.697743
H47	H	-1.115543	-0.021790	-0.000044
H48	H	-1.719887	0.095438	0.420625
H49	H	-1.302928	0.179872	0.420339
H50	H	-1.483425	0.552473	0.153125
H51	H	-0.941748	0.048836	0.139858
H52	H	-1.418465	0.256505	0.580599
H53	H	-1.071524	0.198449	-0.139917
H54	H	-1.700005	0.536065	-0.062836
H55	H	-1.333239	0.564596	-0.093346
H56	H	-1.486621	0.553582	-0.152958
H57	H	-0.941770	0.048818	-0.139779
H58	H	-0.898180	0.269234	-0.000029
H59	H	-1.331752	0.565800	0.091071
H60	H	-1.719870	0.096566	0.579136
H61	H	-1.071694	0.198468	0.139863
H62	H	-1.704178	0.679725	-0.063226
H63	H	-1.703947	0.680886	0.062237
H64	H	-1.700316	0.536639	0.063087
H65	H	-1.333504	0.708658	-0.087471
H66	H	-1.379030	0.021160	0.420867
H67	H	-1.489304	0.695819	0.153485
H68	H	-1.336769	0.708839	0.091866
H69	H	-1.481953	0.698342	-0.153399
H70	H	-1.663933	0.207034	0.419272
H71	H	-1.302365	0.179806	0.579471
H72	H	-1.548530	-0.016742	0.419481
H73	H	-1.556651	-0.014889	0.578709
H74	H	-1.418944	0.257125	0.420968
H75	H	-1.662778	0.208245	0.578207
H76	H	-1.385043	0.016744	0.580445
