data_functionalizedCrystal
_audit_creation_method	'MofGen! by Chris Wilmer'
_symmetry_space_group_name_H-M	'P1'
_symmetry_Int_Tables_number	1
_symmetry_cell_setting	triclinic
loop_
_symmetry_equiv_pos_as_xyz
  x,y,z
_cell_length_a	13.897449
_cell_length_b	15.297327
_cell_length_c	15.296720
_cell_angle_alpha	72.680778
_cell_angle_beta	80.337801
_cell_angle_gamma	99.707995
loop_
_atom_site_label
_atom_site_type_symbol
_atom_site_fract_x
_atom_site_fract_y
_atom_site_fract_z
Zn1	Zn	1.280070	-0.461193	0.589805
Zn2	Zn	1.780070	0.038807	1.089805
Zn3	Zn	1.279960	-0.589814	0.461199
Zn4	Zn	1.779960	-0.089814	0.961199
Zn5	Zn	1.152528	-0.434324	0.434325
Zn6	Zn	1.652528	0.065676	0.934325
Zn7	Zn	1.084978	-0.616662	0.616648
Zn8	Zn	1.584978	-0.116662	1.116648
O9	O	1.199384	-0.525498	0.525494
O10	O	1.699384	-0.025498	1.025494
O11	O	1.415033	-0.478264	0.572758
O12	O	1.915033	0.021736	1.072758
O13	O	1.291280	-0.546708	0.327509
O14	O	1.791280	-0.046708	0.827509
O15	O	1.197762	-0.307751	0.432469
O16	O	1.697762	0.192249	0.932469
O17	O	1.414952	-0.572762	0.478272
O18	O	1.914952	-0.072762	0.978272
O19	O	1.291467	-0.327491	0.546699
O20	O	1.791467	0.172509	1.046699
O21	O	1.197656	-0.432470	0.307765
O22	O	1.697656	0.067530	0.807765
O23	O	1.008589	-0.458502	0.458498
O24	O	1.508589	0.041498	0.958498
O25	O	1.082634	-0.618519	0.743211
O26	O	1.582634	-0.118519	1.243211
O27	O	0.958961	-0.592465	0.592449
O28	O	1.458961	-0.092465	1.092449
O29	O	1.225967	-0.504296	0.723490
O30	O	1.725967	-0.004296	1.223490
O31	O	1.225780	-0.723513	0.504300
O32	O	1.725780	-0.223513	1.004300
O33	O	1.082528	-0.743238	0.618508
O34	O	1.582528	-0.243238	1.118508
C35	C	1.146834	-0.767122	0.567253
C36	C	1.646834	-0.267122	1.067253
C37	C	1.124434	-0.870495	0.585149
C38	C	1.624434	-0.370495	1.085149
C39	C	0.948777	-0.525482	0.525471
C40	C	1.448777	-0.025482	1.025471
C41	C	0.841557	-0.525501	0.525487
C42	C	1.341557	-0.025501	1.025487
C43	C	1.359807	-1.120712	0.397908
C44	C	1.859807	-0.620712	0.897908
C45	C	1.380853	-1.023587	0.381089
C46	C	1.880853	-0.523587	0.881089
C47	C	1.316751	-0.985309	0.432103
C48	C	1.816751	-0.485309	0.932103
C49	C	1.231597	-1.044166	0.499938
C50	C	1.731597	-0.544166	0.999938
C51	C	1.210545	-1.141300	0.516753
C52	C	1.710545	-0.641300	1.016753
C53	C	1.167488	-1.005897	0.550948
C54	C	1.667488	-0.505897	1.050948
C55	C	1.082335	-1.064754	0.618783
C56	C	1.582335	-0.564754	1.118783
C57	C	1.061287	-1.161878	0.635595
C58	C	1.561287	-0.661878	1.135595
C59	C	1.125390	-1.200156	0.584582
C60	C	1.625390	-0.700156	1.084582
C61	C	1.188541	-0.908763	0.534132
C62	C	1.688541	-0.408763	1.034132
C63	C	1.039279	-0.929352	0.652978
C64	C	1.539279	-0.429352	1.152978
C65	C	1.018232	-1.026477	0.669796
C66	C	1.518232	-0.526477	1.169796
C67	C	0.645255	-0.525509	0.525512
C68	C	1.145255	-0.025509	1.025512
C69	C	0.754492	-0.525502	0.525495
C70	C	1.254492	-0.025502	1.025495
C71	C	1.450969	-0.525515	0.525518
C72	C	1.950969	-0.025515	1.025518
C73	C	1.558180	-0.525522	0.525528
C74	C	2.058180	-0.025522	1.025528
C75	C	1.146778	-0.567399	0.768034
C76	C	1.646778	-0.067399	1.268034
C77	C	1.124360	-0.585255	0.871390
C78	C	1.624360	-0.085255	1.371390
C79	C	1.252161	-0.282934	0.483592
C80	C	1.752161	0.217066	0.983592
C81	C	1.274652	-0.179568	0.465736
C82	C	1.774652	0.320432	0.965736
C83	C	1.251856	-0.483693	0.283886
C84	C	1.751856	0.016307	0.783886
C85	C	1.274517	-0.465575	0.180485
C86	C	1.774517	0.034425	0.680485
C87	C	1.359678	-0.397717	1.121663
C88	C	1.859678	0.102283	1.621663
C89	C	1.380746	-0.380942	1.024556
C90	C	1.880746	0.119058	1.524556
C91	C	1.316651	-0.432019	0.986259
C92	C	1.816651	0.067981	1.486259
C93	C	1.231485	-0.499874	1.045081
C94	C	1.731485	0.000126	1.545081
C95	C	1.210419	-0.516655	1.142199
C96	C	1.710419	-0.016655	1.642199
C97	C	1.167392	-0.550957	1.006795
C98	C	1.667392	-0.050957	1.506795
C99	C	1.082226	-0.618812	1.065616
C100	C	1.582226	-0.118812	1.565616
C101	C	1.061163	-0.635590	1.162724
C102	C	1.561163	-0.135590	1.662724
C103	C	1.125258	-0.584513	1.201021
C104	C	1.625258	-0.084513	1.701021
C105	C	1.188458	-0.534175	0.909676
C106	C	1.688458	-0.034175	1.409676
C107	C	1.039199	-0.653113	0.930212
C108	C	1.539199	-0.153113	1.430212
C109	C	1.018131	-0.669888	1.027320
C110	C	1.518131	-0.169888	1.527320
H111	H	1.257873	-0.860850	0.478901
H112	H	1.757873	-0.360850	0.978901
H113	H	1.257801	-0.478926	0.861793
H114	H	1.757801	0.021074	1.361793
H115	H	1.411986	-1.151886	0.356374
H116	H	1.911986	-0.651886	0.856374
H117	H	0.991821	-0.690849	1.210616
H118	H	1.491821	-0.190849	1.710616
H119	H	0.987009	-0.694706	0.899032
H120	H	1.487009	-0.194706	1.399032
H121	H	0.948787	-0.725136	1.075225
H122	H	1.448787	-0.225136	1.575225
H123	H	1.450184	-0.975669	0.325858
H124	H	1.950184	-0.475669	0.825858
H125	H	1.450091	-0.325697	0.976670
H126	H	1.950091	0.174303	1.476670
H127	H	1.108260	-1.279243	0.598274
H128	H	1.608260	-0.779243	1.098274
H129	H	1.333811	-0.418357	0.907189
H130	H	1.833811	0.081643	1.407189
H131	H	0.991941	-1.209796	0.690820
H132	H	1.491941	-0.709796	1.190820
H133	H	0.987079	-0.898187	0.694516
H134	H	1.487079	-0.398187	1.194516
H135	H	1.333891	-0.906225	0.418404
H136	H	1.833891	-0.406225	0.918404
H137	H	0.948900	-1.074411	0.725028
H138	H	1.448900	-0.574411	1.225028
H139	H	1.411859	-0.356143	1.152855
H140	H	1.911859	0.143857	1.652855
H141	H	1.108109	-0.598168	1.280093
H142	H	1.608109	-0.098168	1.780093
