data_functionalizedCrystal
_audit_creation_method	'MofGen! by Chris Wilmer'
_symmetry_space_group_name_H-M	'P1'
_symmetry_Int_Tables_number	1
_symmetry_cell_setting	triclinic
loop_
_symmetry_equiv_pos_as_xyz
  x,y,z
_cell_length_a	21.295418
_cell_length_b	15.297327
_cell_length_c	15.296720
_cell_angle_alpha	107.319222
_cell_angle_beta	99.635200
_cell_angle_gamma	99.728848
loop_
_atom_site_label
_atom_site_type_symbol
_atom_site_fract_x
_atom_site_fract_y
_atom_site_fract_z
Zn1	Zn	-0.835355	0.460919	0.590269
Zn2	Zn	-0.335355	0.960919	1.090269
Zn3	Zn	-0.835283	0.589541	0.461663
Zn4	Zn	-0.335283	1.089541	0.961663
Zn5	Zn	-0.752122	0.434078	0.434743
Zn6	Zn	-0.252122	0.934078	0.934743
Zn7	Zn	-0.708041	0.616430	0.617041
Zn8	Zn	-0.208041	1.116430	1.117041
O9	O	-0.782700	0.525242	0.525929
O10	O	-0.282700	1.025242	1.025929
O11	O	-0.923429	0.477961	0.573271
O12	O	-0.423429	0.977961	1.073271
O13	O	-0.842670	0.546432	0.327978
O14	O	-0.342670	1.046432	0.827978
O15	O	-0.781641	0.307495	0.432904
O16	O	-0.281641	0.807495	0.932904
O17	O	-0.923377	0.572459	0.478785
O18	O	-0.423377	1.072459	0.978785
O19	O	-0.842792	0.327215	0.547168
O20	O	-0.342792	0.827215	1.047168
O21	O	-0.781572	0.432214	0.308200
O22	O	-0.281572	0.932214	0.808200
O23	O	-0.658190	0.458287	0.458863
O24	O	-0.158190	0.958287	0.958863
O25	O	-0.706511	0.618287	0.743604
O26	O	-0.206511	1.118287	1.243604
O27	O	-0.625804	0.592260	0.592797
O28	O	-0.125804	1.092260	1.092797
O29	O	-0.800048	0.504034	0.723935
O30	O	-0.300048	1.004034	1.223935
O31	O	-0.799926	0.723251	0.504744
O32	O	-0.299926	1.223251	1.004744
O33	O	-0.706441	0.743006	0.618900
O34	O	-0.206441	1.243006	1.118900
C35	C	-0.619158	0.525279	0.525815
C36	C	-0.119158	1.025279	1.025815
C37	C	-0.549187	0.525322	0.525792
C38	C	-0.049187	1.025322	1.025792
C39	C	-0.748407	0.766877	0.567669
C40	C	-0.248407	1.266877	1.067669
C41	C	-0.733789	0.870255	0.585556
C42	C	-0.233789	1.370255	1.085556
C43	C	-0.748370	0.567154	0.768450
C44	C	-0.248370	1.067154	1.268450
C45	C	-0.733741	0.585015	0.871798
C46	C	-0.233741	1.085015	1.371798
C47	C	-0.499475	0.595146	0.595453
C48	C	0.000525	1.095146	1.095453
C49	C	-0.433730	0.595133	0.595484
C50	C	0.066270	1.095133	1.095484
C51	C	-0.417701	0.525303	0.525840
C52	C	0.082299	1.025303	1.025840
C53	C	-0.467424	0.455466	0.456173
C54	C	0.032576	0.955466	0.956173
C55	C	-0.533167	0.455475	0.456149
C56	C	-0.033167	0.955475	0.956149
N57	N	-0.326987	0.503967	0.443246
N58	N	0.173013	1.003967	0.943246
N59	N	-0.264533	0.503964	0.443272
N60	N	0.235467	1.003964	0.943272
C61	C	-0.219622	0.525269	0.525909
C62	C	0.280378	1.025269	1.025909
N63	N	-0.239522	0.546596	0.608524
N64	N	0.260478	1.046596	1.108524
N65	N	-0.301982	0.546604	0.608497
N66	N	0.198018	1.046604	1.108497
C67	C	-0.346416	0.525284	0.525859
C68	C	0.153584	1.025284	1.025859
C69	C	-0.098621	0.595084	0.595610
C70	C	0.401379	1.095084	1.095610
C71	C	-0.032876	0.595065	0.595642
C72	C	0.467124	1.095065	1.095642
C73	C	-0.066571	0.455401	0.456323
C74	C	0.433429	0.955401	0.956323
C75	C	-0.132314	0.455416	0.456299
C76	C	0.367686	0.955416	0.956299
C77	C	-0.148335	0.525263	0.525942
C78	C	0.351665	1.025263	1.025942
C79	C	0.053117	0.525216	0.526020
C80	C	0.553117	1.025216	1.026020
C81	C	-0.016851	0.525233	0.525998
C82	C	0.483149	1.025233	1.025998
C83	C	-0.817142	0.282666	0.484046
C84	C	-0.317142	0.782666	0.984046
C85	C	-0.831819	0.179295	0.466199
C86	C	-0.331819	0.679295	0.966199
C87	C	-0.887390	1.120421	0.398401
C88	C	-0.387390	1.620421	0.898401
C89	C	-0.901124	1.023291	0.381590
C90	C	-0.401124	1.523291	0.881590
C91	C	-0.859292	0.985027	0.432580
C92	C	-0.359292	1.485027	0.932580
C93	C	-0.803722	1.043903	0.500384
C94	C	-0.303722	1.543903	1.000384
C95	C	-0.789984	1.141041	0.517192
C96	C	-0.289984	1.641041	1.017192
C97	C	-0.761886	1.005647	0.551371
C98	C	-0.261886	1.505647	1.051371
C99	C	-0.706316	1.064523	0.619175
C100	C	-0.206316	1.564523	1.119175
C101	C	-0.692580	1.161651	0.635980
C102	C	-0.192580	1.661651	1.135980
C103	C	-0.734412	1.199915	0.584990
C104	C	-0.234412	1.699915	1.084990
C105	C	-0.775624	0.908509	0.534563
C106	C	-0.275624	1.408509	1.034563
C107	C	-0.678218	0.929129	0.653354
C108	C	-0.178218	1.429129	1.153354
C109	C	-0.664483	1.026259	0.670165
C110	C	-0.164483	1.526259	1.170165
C111	C	-0.816942	0.483425	0.284340
C112	C	-0.316942	0.983425	0.784340
C113	C	-0.831731	0.465303	0.180947
C114	C	-0.331731	0.965303	0.680947
C115	C	-0.887306	0.397426	1.122156
C116	C	-0.387306	0.897426	1.622156
C117	C	-0.901054	0.380647	1.025056
C118	C	-0.401054	0.880647	1.525056
C119	C	-0.859227	0.431737	0.986737
C120	C	-0.359227	0.931737	1.486737
C121	C	-0.803649	0.499610	1.045527
C122	C	-0.303649	0.999610	1.545527
C123	C	-0.789901	0.516396	1.142638
C124	C	-0.289901	1.016396	1.642638
C125	C	-0.761823	0.550707	1.007218
C126	C	-0.261823	1.050707	1.507218
C127	C	-0.706244	0.618580	1.066008
C128	C	-0.206244	1.118580	1.566008
C129	C	-0.692499	0.635363	1.163109
C130	C	-0.192499	1.135363	1.663109
C131	C	-0.734326	0.584273	1.201429
C132	C	-0.234326	1.084273	1.701429
C133	C	-0.775570	0.533921	0.910107
C134	C	-0.275570	1.033921	1.410107
C135	C	-0.678166	0.652891	0.930589
C136	C	-0.178166	1.152891	1.430589
C137	C	-0.664417	0.669671	1.027689
C138	C	-0.164417	1.169671	1.527689
H139	H	-0.512514	0.652020	0.652162
H140	H	-0.012514	1.152020	1.152162
H141	H	-0.820869	0.860581	0.479357
H142	H	-0.320869	1.360581	0.979357
Br143	Br	-0.944153	1.172354	0.329203
Br144	Br	-0.444153	1.672354	0.829203
Br145	Br	-0.588991	0.761780	1.107486
Br146	Br	-0.088991	1.261780	1.607486
H147	H	-0.723234	1.279006	0.598676
H148	H	-0.223234	1.779006	1.098676
H149	H	-0.820822	0.478657	0.862249
H150	H	-0.320822	0.978657	1.362249
Br151	Br	-0.366252	0.689901	0.690032
Br152	Br	0.133748	1.189901	1.190032
H153	H	-0.946368	0.975359	0.326383
H154	H	-0.446368	1.475359	0.826383
Br155	Br	-0.120368	0.689869	0.690126
Br156	Br	0.379632	1.189869	1.190126
Br157	Br	-0.621437	0.877207	0.722551
Br158	Br	-0.121437	1.377207	1.222551
Br159	Br	-0.199785	0.360649	0.361753
Br160	Br	0.300215	0.860649	0.861753
Br161	Br	-0.044825	0.360621	0.361811
Br162	Br	0.455175	0.860621	0.861811
Br163	Br	-0.878082	0.853255	0.410046
Br164	Br	-0.378082	1.353255	0.910046
H165	H	-0.647326	1.209584	0.691180
H166	H	-0.147326	1.709584	1.191180
H167	H	-0.723135	0.597931	1.280495
H168	H	-0.223135	1.097931	1.780495
Br169	Br	-0.877886	0.408963	0.854955
Br170	Br	-0.377886	0.908963	1.354955
H171	H	0.007602	0.651924	0.652373
H172	H	0.507602	1.151924	1.152373
H173	H	-0.619238	1.074209	0.725372
H174	H	-0.119238	1.574209	1.225372
Br175	Br	-0.976480	0.288540	0.945276
Br176	Br	-0.476480	0.788540	1.445276
H177	H	-0.647248	0.690637	1.210976
H178	H	-0.147248	1.190637	1.710976
H179	H	-0.921358	0.355841	1.153367
H180	H	-0.421358	0.855841	1.653367
H181	H	-0.454369	0.398608	0.399470
H182	H	0.045631	0.898608	0.899470
Br183	Br	-0.600638	0.360704	0.361603
Br184	Br	-0.100638	0.860704	0.861603
H185	H	-0.644107	0.694495	0.899390
H186	H	-0.144107	1.194495	1.399390
