data_functionalizedCrystal
_audit_creation_method	'MofGen! by Chris Wilmer'
_symmetry_space_group_name_H-M	'P1'
_symmetry_Int_Tables_number	1
_symmetry_cell_setting	triclinic
loop_
_symmetry_equiv_pos_as_xyz
  x,y,z
_cell_length_a	10.654550
_cell_length_b	10.654548
_cell_length_c	9.730223
_cell_angle_alpha	90.000884
_cell_angle_beta	89.997197
_cell_angle_gamma	84.484652
loop_
_atom_site_label
_atom_site_type_symbol
_atom_site_fract_x
_atom_site_fract_y
_atom_site_fract_z
O1	O	-1.667833	-0.176400	-0.114173
O2	O	-1.167833	0.323600	0.385827
O3	O	-1.302354	-0.193207	-0.114197
O4	O	-0.802354	0.306793	0.385803
O5	O	-1.493497	-0.002064	-0.114190
O6	O	-0.993497	0.497936	0.385810
O7	O	-1.476690	-0.367543	-0.114180
O8	O	-0.976690	0.132457	0.385820
O9	O	-1.493496	-0.002055	0.114390
O10	O	-0.993496	0.497945	0.614390
O11	O	-1.302353	-0.193198	0.114383
O12	O	-0.802353	0.306802	0.614383
O13	O	-1.667831	-0.176392	0.114407
O14	O	-1.167831	0.323608	0.614407
Zn15	Zn	-1.485092	-0.184793	0.150687
Zn16	Zn	-0.985092	0.315207	0.650687
Zn17	Zn	-1.485094	-0.184805	-0.150477
Zn18	Zn	-0.985094	0.315195	0.349523
O19	O	-1.476688	-0.367534	0.114400
O20	O	-0.976688	0.132466	0.614400
C21	C	-1.255555	-0.191968	0.000090
C22	C	-0.755555	0.308032	0.500090
C23	C	-1.116112	-0.188276	0.000080
C24	C	-0.616112	0.311724	0.500080
C25	C	-1.714630	-0.177630	0.000117
C26	C	-1.214630	0.322370	0.500117
C27	C	-1.854073	-0.181322	0.000118
C28	C	-1.354073	0.318678	0.500118
C29	C	-1.492263	0.044738	0.000095
C30	C	-0.992263	0.544738	0.500095
C31	C	-1.488572	0.184182	0.000082
C32	C	-0.988572	0.684182	0.500082
N33	N	-1.485096	-0.184804	-0.356014
N34	N	-0.985096	0.315196	0.143986
C35	C	-1.036626	-0.300818	0.000087
C36	C	-0.536626	0.199182	0.500087
C37	C	-0.905605	-0.297341	0.000111
C38	C	-0.405605	0.202659	0.500111
C39	C	-0.933570	-0.068772	0.000115
C40	C	-0.433570	0.431228	0.500115
C41	C	-1.064588	-0.072250	0.000101
C42	C	-0.564588	0.427750	0.500101
C43	C	-1.483357	0.380717	-0.124511
C44	C	-0.983357	0.880717	0.375489
C45	C	-1.486838	0.249697	-0.124516
C46	C	-0.986838	0.749697	0.375484
C47	C	-1.486837	0.249695	0.124694
C48	C	-0.986837	0.749695	0.624694
C49	C	-1.483365	0.380714	0.124698
C50	C	-0.983365	0.880714	0.624698
C51	C	-1.477924	0.585664	0.000105
C52	C	-0.977924	1.085664	0.500105
C53	C	-1.481619	0.446221	0.000091
C54	C	-0.981619	0.946221	0.500091
C55	C	-1.569895	-0.100334	-0.427936
C56	C	-1.069895	0.399666	0.072064
C57	C	-1.569900	-0.100327	-0.571819
C58	C	-1.069900	0.399673	-0.071819
C59	C	-1.400297	-0.269264	-0.571844
C60	C	-0.900297	0.230736	-0.071844
C61	C	-1.400298	-0.269276	-0.427964
C62	C	-0.900298	0.230724	0.072036
N63	N	-1.485099	-0.184785	0.356223
N64	N	-0.985099	0.315215	0.856223
H65	H	-0.840892	-0.388984	0.000119
H66	H	-0.340892	0.111016	0.500119
O67	O	-0.877988	0.056363	0.000131
O68	O	-0.377988	0.556363	0.500131
H69	H	-0.955275	0.134037	0.000139
H70	H	-0.455275	0.634037	0.500139
H71	H	-1.129309	0.019401	0.000099
H72	H	-0.629309	0.519401	0.500099
H73	H	-1.331254	-0.338038	-0.630440
H74	H	-0.831254	0.161962	-0.130440
O75	O	-1.481466	0.451377	-0.258901
O76	O	-0.981466	0.951377	0.241099
H77	H	-1.483264	0.383812	-0.345544
H78	H	-0.983264	0.883812	0.154456
H79	H	-1.488255	0.196370	-0.225980
H80	H	-0.988255	0.696370	0.274020
H81	H	-1.331245	-0.338068	-0.369400
H82	H	-0.831245	0.161932	0.130600
H83	H	-1.481953	0.434048	0.226170
H84	H	-0.981953	0.934048	0.726170
O85	O	-1.092206	-0.425954	0.000093
O86	O	-0.592206	0.074046	0.500093
H87	H	-1.014917	-0.503626	0.000120
H88	H	-0.514917	-0.003626	0.500120
O89	O	-1.488710	0.179041	0.259089
O90	O	-0.988710	0.679041	0.759089
H91	H	-1.491404	0.076929	0.238156
H92	H	-0.991404	0.576929	0.738156
H93	H	-1.638944	-0.031553	-0.369358
H94	H	-1.138944	0.468447	0.130642
O95	O	-1.661352	-0.009212	-0.649399
O96	O	-1.161352	0.490788	-0.149399
H97	H	-1.720305	0.049528	-0.575190
H98	H	-1.220305	0.549528	-0.075190
