data_functionalizedCrystal
_audit_creation_method	'MofGen! by Chris Wilmer'
_symmetry_space_group_name_H-M	'P1'
_symmetry_Int_Tables_number	1
_symmetry_cell_setting	triclinic
loop_
_symmetry_equiv_pos_as_xyz
  x,y,z
_cell_length_a	14.519709
_cell_length_b	12.996460
_cell_length_c	10.654550
_cell_angle_alpha	89.994020
_cell_angle_beta	95.917462
_cell_angle_gamma	89.999966
loop_
_atom_site_label
_atom_site_type_symbol
_atom_site_fract_x
_atom_site_fract_y
_atom_site_fract_z
O1	O	1.224722	0.085432	-0.164625
O2	O	0.956346	0.085464	-0.184012
O3	O	1.096705	0.085441	0.008480
O4	O	1.084364	0.085455	-0.357117
O5	O	1.096690	-0.085693	0.008491
O6	O	0.956331	-0.085670	-0.184001
O7	O	1.224708	-0.085701	-0.164615
Cu8	Cu	1.090518	-0.101311	-0.174307
Cu9	Cu	1.090535	0.101074	-0.174320
O10	O	1.084349	-0.085678	-0.357107
C11	C	0.921974	-0.000099	-0.183103
C12	C	0.819579	-0.000087	-0.180396
C13	C	0.444631	-0.000134	-0.170428
C14	C	0.548954	-0.000121	-0.173196
C15	C	0.632102	-0.000110	-0.175412
C16	C	0.736431	-0.000098	-0.178180
N17	N	1.090512	-0.243659	-0.174297
C18	C	1.090534	-0.663473	-0.174321
C19	C	1.090525	-0.546668	-0.174319
C20	C	1.090524	-0.453569	-0.174310
C21	C	1.090514	-0.336757	-0.174306
C22	C	1.259079	-0.000136	-0.165524
C23	C	1.361475	-0.000141	-0.168231
C24	C	1.095791	-0.000125	0.055275
C25	C	1.093080	-0.000123	0.194692
N26	N	1.090548	0.243421	-0.174319
C27	C	1.085262	-0.000110	-0.403901
C28	C	1.087973	-0.000105	-0.543318
C29	C	1.175721	-0.000133	0.274972
C30	C	1.173168	-0.000120	0.405968
C31	C	1.005326	-0.000093	0.376391
C32	C	1.007880	-0.000098	0.245397
C33	C	1.270505	0.059830	0.602745
C34	C	1.353150	0.059803	0.683031
C35	C	1.428065	-0.000177	0.653583
C36	C	1.420338	-0.060156	0.543852
C37	C	1.337692	-0.060139	0.463573
C38	C	1.262780	-0.000134	0.493020
C39	C	0.910549	-0.060057	0.048619
C40	C	0.827902	-0.060046	-0.031662
C41	C	0.752979	-0.000072	-0.002218
C42	C	0.760696	0.059891	0.107515
C43	C	0.843344	0.059881	0.187796
C44	C	0.918267	-0.000092	0.158343
H45	H	1.245096	-0.000151	0.233692
H46	H	1.481341	-0.109006	0.519894
H47	H	0.685678	-0.000082	-0.067587
H48	H	1.495357	-0.000198	0.718961
H49	H	1.359436	0.108646	0.772372
H50	H	1.331399	-0.108976	0.374236
F51	F	1.190780	0.123689	0.634083
F52	F	0.914655	-0.000065	0.430368
H53	H	0.849628	0.108722	0.277138
H54	H	0.699680	0.108707	0.131506
F55	F	0.819682	-0.123888	-0.148435
H56	H	0.971564	-0.108874	0.024616
