data_functionalizedCrystal
_audit_creation_method	'MofGen! by Chris Wilmer'
_symmetry_space_group_name_H-M	'P1'
_symmetry_Int_Tables_number	1
_symmetry_cell_setting	triclinic
loop_
_symmetry_equiv_pos_as_xyz
  x,y,z
_cell_length_a	14.853568
_cell_length_b	14.853569
_cell_length_c	13.930277
_cell_angle_alpha	89.999469
_cell_angle_beta	90.004411
_cell_angle_gamma	96.364624
loop_
_atom_site_label
_atom_site_type_symbol
_atom_site_fract_x
_atom_site_fract_y
_atom_site_fract_z
O1	O	-1.196369	0.117706	-0.079760
O2	O	-0.933909	0.131727	-0.079774
O3	O	-1.072149	-0.006513	-0.079770
O4	O	-1.058129	0.255946	-0.079764
O5	O	-1.072130	-0.006516	0.079892
O6	O	-0.933890	0.131724	0.079888
O7	O	-1.196349	0.117703	0.079902
Zn8	Zn	-1.065117	0.124713	0.105245
Zn9	Zn	-1.065142	0.124717	-0.105117
O10	O	-1.058110	0.255943	0.079898
C11	C	-0.900311	0.131090	0.000055
C12	C	-0.800227	0.129186	0.000049
C13	C	-1.071504	-0.040103	0.000058
C14	C	-1.069599	-0.140187	0.000049
N15	N	-1.065106	0.124710	0.248811
C16	C	-0.387693	0.039019	0.000069
C17	C	-0.366413	0.203252	0.000072
C18	C	-0.460447	0.205042	0.000069
C19	C	-0.518108	0.123820	0.000064
C20	C	-0.481736	0.040807	0.000063
C21	C	-0.496826	0.288054	0.000061
C22	C	-0.590865	0.289847	0.000056
C23	C	-0.648529	0.208624	0.000058
C24	C	-0.612151	0.125608	0.000058
C25	C	-0.669812	0.044385	0.000054
C26	C	-0.633436	-0.038632	0.000060
C27	C	-0.539399	-0.040416	0.000066
C28	C	-0.742566	0.210408	0.000053
C29	C	-0.763855	0.046173	0.000048
C30	C	-0.229948	0.118339	0.000072
C31	C	-0.330032	0.120242	0.000074
C32	C	-1.058755	0.289533	0.000068
C33	C	-1.060659	0.389617	0.000071
C34	C	-1.143670	0.425994	0.000078
C35	C	-0.979438	0.447283	0.000058
C36	C	-0.981224	0.541317	0.000055
C37	C	-1.064235	0.577694	0.000063
C38	C	-1.145459	0.520036	0.000072
C39	C	-0.900001	0.598981	0.000036
C40	C	-0.901785	0.693022	0.000032
C41	C	-0.984796	0.729400	0.000046
C42	C	-1.066024	0.671736	0.000057
C43	C	-1.149035	0.708113	0.000064
C44	C	-1.230263	0.650451	0.000082
C45	C	-1.228471	0.556415	0.000087
C46	C	-0.986589	0.823436	0.000042
C47	C	-1.150824	0.802156	0.000059
N48	N	-1.065160	0.124713	-0.248683
C49	C	-1.003927	0.185906	0.701078
C50	C	-1.126382	0.063521	0.701051
C51	C	-1.126371	0.063519	0.600556
C52	C	-1.065138	0.124711	0.550317
C53	C	-1.003916	0.185906	0.600573
C54	C	-1.187598	0.002330	0.550291
C55	C	-1.187590	0.002326	0.449790
C56	C	-1.126353	0.063515	0.399549
C57	C	-1.065128	0.124712	0.449812
C58	C	-1.003895	0.185904	0.399572
C59	C	-0.942665	0.247098	0.449833
C60	C	-0.942679	0.247095	0.550332
C61	C	-1.126339	0.063517	0.299050
C62	C	-1.003884	0.185905	0.299067
H63	H	-0.810798	-0.019969	0.000048
H64	H	-0.772179	0.277999	0.000050
Br65	Br	-0.418570	0.398277	0.000046
H66	H	-0.832418	0.569356	0.000022
H67	H	-0.911854	0.417659	0.000045
Br68	Br	-1.263488	0.851516	0.000080
H69	H	-1.297851	0.680081	0.000070
Br70	Br	-0.640225	0.402510	0.000047
H71	H	-0.892828	0.296918	0.591261
H72	H	-1.294603	0.509458	0.000101
H73	H	-0.680397	-0.104763	0.000050
Br74	Br	-0.920826	0.268945	0.769282
H75	H	-1.209804	0.379041	0.000096
H76	H	-0.509773	-0.108004	0.000094
Br77	Br	-0.791549	0.771269	0.000006
H78	H	-0.358072	-0.028571	0.000079
H79	H	-0.920454	0.870380	0.000023
Br80	Br	-0.288159	0.313477	0.000061
H81	H	-0.954017	0.235733	0.258169
Br82	Br	-0.859574	0.330151	0.381641
H83	H	-1.176240	0.013704	0.741959
Br84	Br	-1.270706	-0.080706	0.618469
H85	H	-1.176195	0.013698	0.258132
Br86	Br	-1.270684	-0.080721	0.381584
