data_functionalizedCrystal
_audit_creation_method	'MofGen! by Chris Wilmer'
_symmetry_space_group_name_H-M	'P1'
_symmetry_Int_Tables_number	1
_symmetry_cell_setting	triclinic
loop_
_symmetry_equiv_pos_as_xyz
  x,y,z
_cell_length_a	10.540539
_cell_length_b	23.532357
_cell_length_c	9.616153
_cell_angle_alpha	89.992198
_cell_angle_beta	89.995174
_cell_angle_gamma	83.676892
loop_
_atom_site_label
_atom_site_type_symbol
_atom_site_fract_x
_atom_site_fract_y
_atom_site_fract_z
O1	O	1.683226	0.080253	-0.115599
O2	O	1.313562	0.087815	-0.115618
O3	O	1.509575	0.001174	-0.115579
O4	O	1.487214	0.166894	-0.115638
O5	O	1.509548	0.001176	0.115712
O6	O	1.313536	0.087816	0.115673
O7	O	1.683200	0.080255	0.115692
Zn8	Zn	1.498363	0.084036	0.152405
Zn9	Zn	1.498399	0.084033	-0.152331
O10	O	1.487187	0.166895	0.115654
C11	C	1.266265	0.087248	0.000026
C12	C	1.125373	0.085552	0.000020
C13	C	1.509002	-0.020045	0.000071
C14	C	1.507320	-0.083275	0.000084
C15	C	0.944106	0.020542	0.000582
C16	C	1.090667	0.022261	0.000046
C17	C	1.062704	0.116009	-0.132065
C18	C	0.916231	0.113849	-0.132160
C19	C	0.915670	0.115138	0.130861
C20	C	1.062632	0.115721	0.132592
C21	C	1.496778	-0.475357	-0.126069
C22	C	1.495180	-0.534767	-0.126077
O23	O	1.494322	-0.565490	-0.233301
N24	N	1.494372	-0.564483	-0.000002
C25	C	1.495151	-0.534784	0.126090
O26	O	1.494316	-0.565515	0.233326
C27	C	1.496740	-0.475375	0.126096
C28	C	1.497560	-0.445663	0.000013
C29	C	1.497597	-0.445645	-0.252142
C30	C	1.499198	-0.386240	-0.252134
C31	C	1.499980	-0.356546	-0.126052
C32	C	1.499161	-0.386257	0.000021
C33	C	1.497509	-0.445677	0.252186
C34	C	1.499098	-0.386264	0.252182
C35	C	1.499918	-0.356552	0.126098
C36	C	1.501544	-0.297158	0.126112
N37	N	1.502351	-0.267442	0.000036
C38	C	1.501569	-0.297136	-0.126045
C39	C	1.491811	-0.659548	0.126066
C40	C	1.490231	-0.718957	0.126061
C41	C	1.490257	-0.718935	-0.126106
C42	C	1.491846	-0.659526	-0.126099
C43	C	1.492618	-0.629832	-0.000009
C44	C	1.504932	-0.172380	-0.126018
C45	C	1.506538	-0.112969	-0.125998
C46	C	1.506505	-0.112995	0.126168
C47	C	1.504905	-0.172401	0.126149
C48	C	1.504115	-0.202092	0.000045
O49	O	1.502397	-0.266397	0.233280
O50	O	1.502387	-0.266398	-0.233263
C51	C	1.730497	0.080821	0.000046
C52	C	1.871389	0.082517	0.000042
C53	C	1.487760	0.188115	0.000001
C54	C	1.489442	0.251344	-0.000022
N55	N	1.498349	0.084037	0.360380
N56	N	1.498423	0.084028	-0.360306
C57	C	1.393185	0.130229	0.580729
C58	C	1.393407	0.130402	0.419562
C59	C	1.630623	0.097555	0.418830
C60	C	1.630048	0.097882	0.580048
C61	C	1.472565	0.024176	0.580311
C62	C	1.469506	0.024564	0.419084
H63	H	1.134066	-0.001703	0.094731
H64	H	1.489582	-0.743144	0.228731
H65	H	1.504249	-0.196594	0.228817
H66	H	1.654087	0.140728	0.378426
H67	H	1.083514	0.162488	-0.136995
H68	H	0.916340	-0.004461	0.095309
H69	H	0.914736	-0.004357	-0.093599
H70	H	1.294526	0.122220	0.619539
H71	H	1.133225	-0.001874	-0.094785
H72	H	1.378255	0.011311	0.621048
H73	H	0.888780	0.091337	-0.230879
H74	H	1.106007	0.094850	-0.230349
H75	H	1.504282	-0.196547	-0.228704
H76	H	1.507148	-0.088808	0.228821
H77	H	0.866751	0.159366	-0.138171
H78	H	0.884792	0.094657	0.230979
H79	H	1.507209	-0.088781	-0.228675
H80	H	1.499861	-0.362053	-0.354804
H81	H	1.372207	0.014318	0.380883
H82	H	1.104322	0.093471	0.230308
H83	H	0.866924	0.160853	0.131737
H84	H	1.085325	0.161864	0.140550
H85	H	1.496955	-0.469816	-0.354819
H86	H	1.652952	0.141548	0.617622
H87	H	1.541229	-0.011468	0.378805
H88	H	1.492512	-0.635339	-0.228768
H89	H	1.489616	-0.743123	-0.228769
H90	H	1.549319	-0.010211	0.618442
H91	H	1.492443	-0.635375	0.228751
H92	H	1.496844	-0.469858	0.354857
H93	H	1.499707	-0.362089	0.354862
H94	H	1.295061	0.122268	0.380045
H95	H	1.710763	0.065587	0.619051
H96	H	1.409385	0.174382	0.621213
H97	H	1.409831	0.174806	0.380967
H98	H	1.710765	0.064823	0.380493
