data_functionalizedCrystal
_audit_creation_method	'MofGen! by Chris Wilmer'
_symmetry_space_group_name_H-M	'P1'
_symmetry_Int_Tables_number	1
_symmetry_cell_setting	triclinic
loop_
_symmetry_equiv_pos_as_xyz
  x,y,z
_cell_length_a	8.497365
_cell_length_b	13.033748
_cell_length_c	13.032721
_cell_angle_alpha	76.638162
_cell_angle_beta	82.869671
_cell_angle_gamma	97.144113
loop_
_atom_site_label
_atom_site_type_symbol
_atom_site_fract_x
_atom_site_fract_y
_atom_site_fract_z
Zn1	Zn	-0.632764	1.570221	0.216132
Zn2	Zn	-0.407373	1.547493	0.393855
Zn3	Zn	-0.407354	1.392551	0.238833
Zn4	Zn	-0.709376	1.370031	0.416276
O5	O	-0.539217	1.470074	0.316274
O6	O	-0.570811	1.715830	0.220824
O7	O	-0.186647	1.526853	0.373408
O8	O	-0.405185	1.435056	0.087183
O9	O	-0.405217	1.699132	0.351396
O10	O	-0.570793	1.565589	0.070505
O11	O	-0.186633	1.413018	0.259514
O12	O	-0.479473	1.240940	0.281254
O13	O	-0.919936	1.396673	0.389609
O14	O	-0.701366	1.224394	0.411621
O15	O	-0.863650	1.543752	0.242564
O16	O	-0.479504	1.505016	0.545467
O17	O	-0.701384	1.374635	0.561940
C18	C	-0.598732	1.194130	0.351335
C19	C	-0.624236	1.076077	0.366360
C20	C	-0.525951	1.031616	0.308459
C21	C	-0.552308	0.909602	0.323986
C22	C	-0.598788	1.434944	0.592240
C23	C	-0.624305	1.420013	0.710287
C24	C	-0.129378	1.469982	0.316399
C25	C	0.049345	1.470162	0.316162
C26	C	-0.479470	1.747095	0.281077
C27	C	-0.454010	1.865145	0.266078
C28	C	-0.479441	1.505370	0.039226
C29	C	-0.453968	1.520411	-0.078835
C30	C	-0.525958	1.477923	0.754724
C31	C	-0.552328	1.462492	0.876732
H32	H	-0.727890	1.023810	0.427429
O33	O	-0.689722	1.381677	0.945979
H34	H	-0.805063	1.402545	0.922342
H35	H	-0.350339	0.917406	0.205010
O36	O	-0.761705	1.339205	0.779526
H37	H	-0.747991	1.258511	0.768978
O38	O	-0.388638	1.100834	0.227563
H39	H	-0.389492	1.185807	0.228056
O40	O	-0.316572	1.601232	0.851930
H41	H	-0.235664	1.560053	0.807541
O42	O	-0.689635	0.840389	0.404881
H43	H	-0.688796	0.755417	0.404377
O44	O	-0.388589	1.558756	0.685483
H45	H	-0.389442	1.558198	0.600518
