data_functionalizedCrystal
_audit_creation_method	'MofGen! by Chris Wilmer'
_symmetry_space_group_name_H-M	'P1'
_symmetry_Int_Tables_number	1
_symmetry_cell_setting	triclinic
loop_
_symmetry_equiv_pos_as_xyz
  x,y,z
_cell_length_a	14.519709
_cell_length_b	14.853558
_cell_length_c	13.930277
_cell_angle_alpha	89.993309
_cell_angle_beta	89.998355
_cell_angle_gamma	96.344361
loop_
_atom_site_label
_atom_site_type_symbol
_atom_site_fract_x
_atom_site_fract_y
_atom_site_fract_z
O1	O	-0.120364	1.196420	-0.079806
O2	O	0.379636	1.696420	0.420194
O3	O	-0.134716	0.933965	-0.079808
O4	O	0.365284	1.433965	0.420192
O5	O	0.006702	1.072151	-0.079816
O6	O	0.506702	1.572151	0.420184
O7	O	-0.261781	1.058234	-0.079798
O8	O	0.238219	1.558234	0.420202
O9	O	0.006705	1.072132	0.079846
O10	O	0.506705	1.572132	0.579846
O11	O	-0.134713	0.933946	0.079853
O12	O	0.365287	1.433946	0.579853
O13	O	-0.120361	1.196401	0.079856
O14	O	0.379639	1.696401	0.579856
Zn15	Zn	-0.127536	1.065170	0.105205
Zn16	Zn	0.372464	1.565170	0.605205
Zn17	Zn	-0.127540	1.065196	-0.105157
Zn18	Zn	0.372460	1.565196	0.394843
O19	O	-0.261778	1.058215	0.079863
O20	O	0.238222	1.558215	0.579863
C21	C	-0.134066	0.900366	0.000022
C22	C	0.365934	1.400366	0.500022
C23	C	-0.132122	0.800282	0.000020
C24	C	0.367878	1.300282	0.500020
C25	C	-0.131211	0.753272	-0.087015
C26	C	0.368789	1.253272	0.412985
C27	C	-0.131197	0.753249	0.087054
C28	C	0.368803	1.253249	0.587054
C29	C	-0.129366	0.659215	0.087056
C30	C	0.370634	1.159215	0.587056
C31	C	-0.128456	0.612204	0.000020
C32	C	0.371544	1.112204	0.500020
C33	C	-0.129377	0.659229	-0.087017
C34	C	0.370623	1.159229	0.412983
C35	C	-0.128435	0.612184	0.174091
C36	C	0.371565	1.112184	0.674091
C37	C	-0.126602	0.518144	0.174096
C38	C	0.373398	1.018144	0.674096
C39	C	-0.125699	0.471132	0.087059
C40	C	0.374301	0.971132	0.587059
C41	C	-0.126621	0.518162	0.000019
C42	C	0.373379	1.018162	0.500019
C43	C	-0.125711	0.471152	-0.087016
C44	C	0.374289	0.971152	0.412984
C45	C	-0.126640	0.518179	-0.174058
C46	C	0.373360	1.018179	0.325942
C47	C	-0.128474	0.612216	-0.174053
C48	C	0.371526	1.112216	0.325947
C49	C	-0.123865	0.377095	0.087055
C50	C	0.376135	0.877095	0.587055
C51	C	-0.123877	0.377109	-0.087018
C52	C	0.376123	0.877109	0.412982
C53	C	-0.296139	1.058873	0.000035
C54	C	0.203861	1.558873	0.500035
C55	C	-0.398520	1.060817	0.000041
C56	C	0.101480	1.560817	0.500041
C57	C	-0.773412	1.067972	0.000003
C58	C	-0.273412	1.567972	0.500003
C59	C	-0.669105	1.065985	0.000014
C60	C	-0.169105	1.565985	0.500014
C61	C	-0.585969	1.064395	0.000023
C62	C	-0.085969	1.564395	0.500023
C63	C	-0.481656	1.062407	0.000032
C64	C	0.018344	1.562407	0.500032
C65	C	0.041063	1.071493	0.000011
C66	C	0.541063	1.571493	0.500011
C67	C	0.143443	1.069550	-0.000002
C68	C	0.643443	1.569550	0.499998
C69	C	-0.121011	1.230000	0.000024
C70	C	0.378989	1.730000	0.500024
C71	C	-0.122955	1.330085	0.000019
C72	C	0.377045	1.830085	0.500019
N73	N	-0.127533	1.065160	0.248771
N74	N	0.372467	1.565160	0.748771
N75	N	-0.127536	1.065214	-0.248723
N76	N	0.372464	1.565214	0.251277
C77	C	-0.190135	1.004005	0.701043
C78	C	0.309865	1.504005	1.201043
C79	C	-0.064938	1.126412	0.701006
C80	C	0.435062	1.626412	1.201006
C81	C	-0.064935	1.126401	0.600510
C82	C	0.435065	1.626401	1.100510
C83	C	-0.127534	1.065192	0.550276
C84	C	0.372466	1.565192	1.050276
C85	C	-0.190136	1.003994	0.600538
C86	C	0.309864	1.503994	1.100538
C87	C	-0.002341	1.187604	0.550241
C88	C	0.497659	1.687604	1.050241
C89	C	-0.002336	1.187597	0.449739
C90	C	0.497664	1.687597	0.949739
C91	C	-0.064931	1.126383	0.399503
C92	C	0.435069	1.626383	0.899503
C93	C	-0.127535	1.065181	0.449771
C94	C	0.372465	1.565181	0.949771
C95	C	-0.190134	1.003972	0.399537
C96	C	0.309866	1.503972	0.899537
C97	C	-0.252734	0.942766	0.449803
C98	C	0.247266	1.442766	0.949803
C99	C	-0.252732	0.942780	0.550302
C100	C	0.247268	1.442780	1.050302
C101	C	-0.064934	1.126369	0.299005
C102	C	0.435066	1.626369	0.799005
C103	C	-0.190135	1.003961	0.299032
C104	C	0.309865	1.503961	0.799032
H105	H	-0.123117	0.338808	0.157922
H106	H	0.376883	0.838808	0.657922
O107	O	-0.257656	0.937945	0.244851
O108	O	0.242344	1.437945	0.744851
H109	H	-0.301186	0.895395	0.296690
H110	H	0.198814	1.395395	0.796690
O111	O	0.002593	1.192351	0.244779
O112	O	0.502593	1.692351	0.744779
H113	H	-0.036295	1.236225	0.198970
H114	H	0.463705	1.736225	0.698970
H115	H	0.048637	1.237433	0.408819
H116	H	0.548637	1.737433	0.908819
H117	H	-0.129229	0.650514	-0.244917
H118	H	0.370771	1.150514	0.255083
H119	H	-0.131972	0.791565	-0.157882
H120	H	0.368028	1.291565	0.342118
H121	H	-0.131931	0.791531	0.157914
H122	H	0.368069	1.291531	0.657914
H123	H	-0.125844	0.479863	0.244970
H124	H	0.374156	0.979863	0.744970
O125	O	-0.320234	0.876740	0.395608
O126	O	0.179766	1.376740	0.895608
H127	H	-0.365123	0.914750	0.349803
H128	H	0.134877	1.414750	0.849803
H129	H	-0.303699	0.892948	0.591235
H130	H	0.196301	1.392948	1.091235
O131	O	-0.257658	0.937994	0.755248
O132	O	0.242342	1.437994	1.255248
H133	H	-0.247149	0.948284	0.833571
H134	H	0.252851	1.448284	1.333571
O135	O	0.002577	1.192430	0.755179
O136	O	0.502577	1.692430	1.255179
H137	H	-0.007937	1.182153	0.833507
H138	H	0.492063	1.682153	1.333507
O139	O	-0.129421	0.662882	0.267961
O140	O	0.370579	1.162882	0.767961
H141	H	-0.130867	0.736171	0.253337
H142	H	0.369133	1.236171	0.753337
O143	O	-0.122899	0.326412	-0.180897
O144	O	0.377101	0.826412	0.319103
H145	H	-0.121472	0.253120	-0.166279
H146	H	0.378528	0.753120	0.333721
O147	O	0.065173	1.253622	0.604417
O148	O	0.565173	1.753622	1.104417
H149	H	0.054662	1.243338	0.682744
H150	H	0.554662	1.743338	1.182744
H151	H	-0.125894	0.479892	-0.244922
H152	H	0.374106	0.979892	0.255078
