data_functionalizedCrystal
_audit_creation_method	'MofGen! by Chris Wilmer'
_symmetry_space_group_name_H-M	'P1'
_symmetry_Int_Tables_number	1
_symmetry_cell_setting	triclinic
loop_
_symmetry_equiv_pos_as_xyz
  x,y,z
_cell_length_a	19.805407
_cell_length_b	14.908178
_cell_length_c	19.805399
_cell_angle_alpha	86.674164
_cell_angle_beta	89.982278
_cell_angle_gamma	93.315719
loop_
_atom_site_label
_atom_site_type_symbol
_atom_site_fract_x
_atom_site_fract_y
_atom_site_fract_z
Zn1	Zn	1.019210	-0.359149	-0.367183
Zn2	Zn	1.519210	0.140851	0.132817
Zn3	Zn	1.012615	-0.510030	-0.247461
Zn4	Zn	1.512615	-0.010030	0.252539
Zn5	Zn	0.906029	-0.359183	-0.254004
Zn6	Zn	1.406029	0.140817	0.245996
Zn7	Zn	0.899475	-0.509983	-0.360608
Zn8	Zn	1.399475	-0.009983	0.139392
O9	O	0.959332	-0.434586	-0.307314
O10	O	1.459332	0.065414	0.192686
O11	O	1.113052	-0.379169	-0.351314
O12	O	1.613052	0.120831	0.148686
O13	O	0.998459	-0.490053	-0.153611
O14	O	1.498459	0.009947	0.346389
O15	O	0.926545	-0.232924	-0.274507
O16	O	1.426545	0.267076	0.225493
O17	O	1.108207	-0.490021	-0.263355
O18	O	1.608207	0.009979	0.236645
O19	O	1.009699	-0.232899	-0.357659
O20	O	1.509699	0.267101	0.142341
O21	O	0.920150	-0.379227	-0.158418
O22	O	1.420150	0.120773	0.341582
O23	O	0.810443	-0.379181	-0.268132
O24	O	1.310443	0.120819	0.231868
O25	O	0.915376	-0.489941	-0.456198
O26	O	1.415376	0.010059	0.043802
O27	O	0.805628	-0.489974	-0.346453
O28	O	1.305628	0.010026	0.153547
O29	O	1.003344	-0.379124	-0.461028
O30	O	1.503344	0.120876	0.038972
O31	O	0.992105	-0.636278	-0.256980
O32	O	1.492105	-0.136278	0.243020
O33	O	0.908981	-0.636244	-0.340109
O34	O	1.408981	-0.136244	0.159891
C35	C	0.783477	-0.434577	-0.307290
C36	C	1.283477	0.065423	0.192710
C37	C	0.708244	-0.434595	-0.307295
C38	C	1.208244	0.065405	0.192705
C39	C	0.248975	-0.376974	-0.353202
C40	C	0.748975	0.123026	0.146798
C41	C	0.319663	-0.376975	-0.353197
C42	C	0.819663	0.123025	0.146803
C43	C	0.352482	-0.434600	-0.307335
C44	C	0.852482	0.065400	0.192665
C45	C	0.314608	-0.492233	-0.261480
C46	C	0.814608	0.007767	0.238520
C47	C	0.243921	-0.492235	-0.261488
C48	C	0.743921	0.007765	0.238512
C49	C	0.599682	-0.492226	-0.261444
C50	C	1.099682	0.007774	0.238556
C51	C	0.670374	-0.492218	-0.261438
C52	C	1.170374	0.007782	0.238562
C53	C	0.675424	-0.376966	-0.353153
C54	C	1.175424	0.123034	0.146847
C55	C	0.604737	-0.376969	-0.353161
C56	C	1.104737	0.123031	0.146839
C57	C	0.566869	-0.434605	-0.307309
C58	C	1.066869	0.065395	0.192691
C59	C	0.490221	-0.434603	-0.307316
C60	C	0.990221	0.065397	0.192684
C61	C	0.429129	-0.434597	-0.307324
C62	C	0.929129	0.065403	0.192676
C63	C	0.949135	-0.668998	-0.297136
C64	C	1.449135	-0.168998	0.202864
C65	C	0.944834	-0.769280	-0.292804
C66	C	1.444834	-0.269280	0.207196
C67	C	1.023275	-0.957545	-0.371343
C68	C	1.523275	-0.457545	0.128657
C69	C	1.019237	-1.051769	-0.367275
C70	C	1.519237	-0.551769	0.132725
C71	C	0.932715	-1.051954	-0.280605
C72	C	1.432715	-0.551954	0.219395
C73	C	0.936754	-0.957730	-0.284672
C74	C	1.436754	-0.457730	0.215328
C75	C	0.982036	-0.910529	-0.330042
C76	C	1.482036	-0.410529	0.169958
C77	C	0.986078	-0.816303	-0.334106
C78	C	1.486078	-0.316303	0.165894
C79	C	0.899553	-0.816489	-0.247439
C80	C	1.399553	-0.316489	0.252561
C81	C	0.895515	-0.910714	-0.243372
C82	C	1.395515	-0.410714	0.256628
C83	C	1.135875	-0.434596	-0.307338
C84	C	1.635875	0.065404	0.192662
C85	C	1.211107	-0.434601	-0.307349
C86	C	1.711107	0.065399	0.192651
C87	C	0.959365	-0.434524	-0.483859
C88	C	1.459365	0.065476	0.016141
C89	C	0.959379	-0.434497	-0.559092
C90	C	1.459379	0.065503	-0.059092
C91	C	0.969588	-0.199259	-0.317547
C92	C	1.469588	0.300741	0.182453
C93	C	0.973959	-0.098977	-0.321907
C94	C	1.473959	0.401023	0.178093
C95	C	0.918616	-0.376784	-0.596940
C96	C	1.418616	0.123216	-0.096940
C97	C	0.918626	-0.376767	-0.667629
C98	C	1.418626	0.123233	-0.167629
C99	C	0.959403	-0.434458	-0.700470
C100	C	1.459403	0.065542	-0.200470
C101	C	1.000167	-0.492177	-0.662617
C102	C	1.500167	0.007823	-0.162617
C103	C	1.000153	-0.492199	-0.591929
C104	C	1.500153	0.007801	-0.091929
C105	C	1.000225	-0.492093	-0.947695
C106	C	1.500225	0.007907	-0.447695
C107	C	1.000237	-0.492065	-1.018388
C108	C	1.500237	0.007935	-0.518388
C109	C	0.918697	-0.376661	-1.023394
C110	C	1.418697	0.123339	-0.523394
C111	C	0.918683	-0.376682	-0.952706
C112	C	1.418683	0.123318	-0.452706
C113	C	0.959445	-0.434404	-0.914860
C114	C	1.459445	0.065596	-0.414860
C115	C	0.959432	-0.434424	-0.838210
C116	C	1.459432	0.065576	-0.338210
C117	C	0.959419	-0.434435	-0.777118
C118	C	1.459419	0.065565	-0.277118
C119	C	0.959342	-0.434584	-0.131458
C120	C	1.459342	0.065416	0.368542
C121	C	0.959470	-0.434356	-0.056236
C122	C	1.459470	0.065644	0.443764
H123	H	0.697093	-0.539146	-0.224090
H124	H	1.197093	-0.039146	0.275910
H125	H	1.060150	-0.919114	-0.408280
H126	H	1.560150	-0.419114	0.091720
H127	H	0.885481	-0.329701	-0.925971
H128	H	1.385481	0.170299	-0.425971
C129	C	0.873853	-0.313171	-1.065031
C130	C	1.373853	0.186829	-0.565031
N131	N	0.840078	-0.265351	-1.096391
N132	N	1.340078	0.234649	-0.596391
H133	H	0.865976	-0.778198	-0.213808
H134	H	1.365976	-0.278198	0.286192
C135	C	1.045093	-0.555539	-1.054511
C136	C	1.545093	-0.055539	-0.554511
N137	N	1.078876	-0.603346	-1.081719
N138	N	1.578876	-0.103346	-0.581719
C139	C	0.202266	-0.555627	-0.211045
C140	C	0.702266	-0.055627	0.288955
N141	N	0.170892	-0.603377	-0.173050
N142	N	0.670892	-0.103377	0.326950
H143	H	1.022950	-0.777873	-0.371047
H144	H	1.522950	-0.277873	0.128953
C145	C	0.873757	-0.313318	-0.560821
C146	C	1.373757	0.186682	-0.060821
N147	N	0.839965	-0.265516	-0.533619
N148	N	1.339965	0.234484	-0.033619
H149	H	1.033407	-0.539104	-0.916888
H150	H	1.533407	-0.039104	-0.416888
H151	H	1.052814	-1.090047	-0.400910
H152	H	1.552814	-0.590047	0.099090
H153	H	0.222260	-0.330044	-0.390544
H154	H	0.722260	0.169956	0.109456
C155	C	0.873791	-0.313268	-0.709258
C156	C	1.373791	0.186732	-0.209258
N157	N	0.840021	-0.265436	-0.740613
N158	N	1.340021	0.234564	-0.240613
H159	H	1.033365	-0.539155	-0.689362
H160	H	1.533365	-0.039155	-0.189362
C161	C	0.882989	-1.103891	-0.230622
C162	C	1.382989	-0.603891	0.269378
N163	N	0.845566	-1.143012	-0.192944
N164	N	1.345566	-0.643012	0.307056
C165	C	0.845750	-0.962645	-0.193425
C166	C	1.345750	-0.462645	0.306575
N167	N	0.808282	-1.001760	-0.155787
N168	N	1.308282	-0.501760	0.344213
H169	H	0.350493	-0.330053	-0.390537
H170	H	0.850493	0.169947	0.109463
C171	C	0.568641	-0.313579	-0.403614
C172	C	1.068641	0.186421	0.096386
N173	N	0.541454	-0.265835	-0.441618
N174	N	1.041454	0.234165	0.058382
H175	H	0.706265	-0.330039	-0.390490
H176	H	1.206265	0.169961	0.109510
C177	C	0.558037	-0.555612	-0.210994
C178	C	1.058037	-0.055612	0.289006
N179	N	0.526668	-0.603353	-0.172989
N180	N	1.026668	-0.103353	0.327011
C181	C	1.044999	-0.555683	-0.550298
C182	C	1.544999	-0.055683	-0.050298
N183	N	1.078777	-0.603503	-0.518942
N184	N	1.578777	-0.103503	-0.018942
H185	H	0.341335	-0.539155	-0.224141
H186	H	0.841335	-0.039155	0.275859
