data_functionalizedCrystal
_audit_creation_method	'MofGen! by Chris Wilmer'
_symmetry_space_group_name_H-M	'P1'
_symmetry_Int_Tables_number	1
_symmetry_cell_setting	triclinic
loop_
_symmetry_equiv_pos_as_xyz
  x,y,z
_cell_length_a	15.537862
_cell_length_b	14.421503
_cell_length_c	15.625429
_cell_angle_alpha	108.072852
_cell_angle_beta	66.734075
_cell_angle_gamma	90.003437
loop_
_atom_site_label
_atom_site_type_symbol
_atom_site_fract_x
_atom_site_fract_y
_atom_site_fract_z
O1	O	1.249595	-0.021371	-0.292772
O2	O	0.975460	0.013630	-0.188706
O3	O	1.119848	-0.048802	-0.374365
O4	O	1.105207	0.041061	-0.107114
O5	O	1.119824	-0.203016	-0.374337
O6	O	0.975436	-0.140584	-0.188678
O7	O	1.249571	-0.175585	-0.292744
Cu8	Cu	1.112501	-0.172165	-0.240708
Cu9	Cu	1.112530	0.010210	-0.240742
O10	O	1.105183	-0.113153	-0.107085
C11	C	0.940365	-0.059815	-0.177804
C12	C	0.835829	-0.048906	-0.145370
N13	N	1.112488	-0.300440	-0.240687
C14	C	0.677374	-0.004696	-0.013904
C15	C	0.775603	-0.014950	-0.044390
C16	C	0.797842	-0.072626	-0.215905
C17	C	0.699613	-0.062382	-0.185433
C18	C	0.639386	-0.028415	-0.084431
C19	C	0.661625	-0.086101	-0.255960
C20	C	0.563404	-0.075852	-0.225490
C21	C	0.503172	-0.041885	-0.124493
C22	C	0.541166	-0.018167	-0.053961
C23	C	0.721853	-0.120061	-0.356961
C24	C	0.683865	-0.143780	-0.427489
C25	C	0.585643	-0.133538	-0.397020
C26	C	0.525410	-0.099570	-0.296022
C27	C	0.547649	-0.157256	-0.467552
C28	C	0.449429	-0.147007	-0.437082
C29	C	0.427190	-0.089322	-0.265553
C30	C	1.045711	-0.521233	-0.154864
C31	C	1.130821	-0.586521	-0.165221
C32	C	1.112511	-0.489611	-0.240716
C33	C	1.027423	-0.608412	-0.230345
C34	C	1.112526	-0.672340	-0.240740
C35	C	1.197664	-0.553529	-0.251047
C36	C	1.094210	-0.575420	-0.316189
C37	C	1.179381	-0.640699	-0.326601
C38	C	1.112501	-0.384344	-0.240700
C39	C	1.112545	-0.777606	-0.240760
C40	C	1.284666	-0.102138	-0.303647
C41	C	1.389202	-0.113041	-0.336080
C42	C	1.119172	-0.137127	-0.407719
C43	C	1.117182	-0.170552	-0.507143
N44	N	1.112550	0.138481	-0.240772
C45	C	1.110675	0.139796	-0.834204
C46	C	1.108801	0.108360	-0.927625
C47	C	1.108775	-0.059753	-0.927581
C48	C	1.110654	-0.028332	-0.834160
C49	C	1.111603	0.071444	-0.787478
C50	C	1.111582	-0.096684	-0.787433
C51	C	1.113456	-0.065264	-0.694018
C52	C	1.114402	0.034508	-0.647329
C53	C	1.113477	0.102864	-0.694062
C54	C	1.110626	-0.196458	-0.834114
C55	C	1.111554	-0.264811	-0.787388
C56	C	1.113434	-0.233392	-0.693974
C57	C	1.114381	-0.133620	-0.647284
C58	C	1.114359	-0.301748	-0.647240
C59	C	1.116233	-0.270328	-0.553824
C60	C	1.116254	-0.102200	-0.553869
C61	C	1.105859	-0.024826	-0.073731
C62	C	1.107849	0.008605	0.025693
H63	H	0.378149	-0.061676	-0.183307
H64	H	0.801830	-0.128386	-0.381767
H65	H	1.111457	0.221042	-0.796197
H66	H	0.423195	-0.033538	-0.099687
H67	H	1.113577	-0.382984	-0.685258
H68	H	0.492125	0.009479	0.028284
H69	H	0.955459	-0.632628	-0.221566
H70	H	0.989278	-0.469713	-0.082236
F71	F	1.151074	-0.593994	-0.081816
F72	F	1.073925	-0.567905	-0.399556
F73	F	1.291749	-0.522000	-0.262424
F74	F	1.114499	0.209055	-0.644381
F75	F	1.110537	-0.370995	-0.837076
F76	F	0.816027	0.010299	0.030684
F77	F	0.613270	0.031438	0.093595
H78	H	1.116968	-0.325984	-0.515770
F79	F	0.861948	-0.108774	-0.323395
H80	H	0.732915	-0.171432	-0.509725
H81	H	0.596700	-0.184902	-0.549787
H82	H	1.235940	-0.692052	-0.399237
H83	H	0.418499	-0.166321	-0.494513
F84	F	1.117277	0.003992	-0.504187
F85	F	1.108629	-0.229896	-0.933535
H86	H	1.108037	0.164030	-0.965662
F87	F	1.116398	0.067948	-0.547907
F88	F	1.107758	-0.165938	-0.977269
