data_functionalizedCrystal
_audit_creation_method	'MofGen! by Chris Wilmer'
_symmetry_space_group_name_H-M	'P1'
_symmetry_Int_Tables_number	1
_symmetry_cell_setting	triclinic
loop_
_symmetry_equiv_pos_as_xyz
  x,y,z
_cell_length_a	13.339070
_cell_length_b	9.065215
_cell_length_c	7.540329
_cell_angle_alpha	89.997574
_cell_angle_beta	89.998761
_cell_angle_gamma	100.321996
loop_
_atom_site_label
_atom_site_type_symbol
_atom_site_fract_x
_atom_site_fract_y
_atom_site_fract_z
O1	O	0.148874	2.018450	-0.147455
O2	O	0.161089	1.593927	-0.147462
O3	O	0.007272	1.757467	-0.147454
O4	O	0.302691	1.854910	-0.147463
O5	O	0.007270	1.757453	0.147511
O6	O	0.161087	1.593913	0.147503
O7	O	0.148872	2.018435	0.147510
Cu8	Cu	0.154979	1.806173	0.174439
Cu9	Cu	0.154982	1.806190	-0.174391
O10	O	0.302689	1.854896	0.147502
C11	C	0.159915	1.538476	0.000020
C12	C	0.156407	1.373265	0.000017
C13	C	-0.030569	1.741000	0.000026
C14	C	-0.143320	1.691936	0.000018
C15	C	-0.504620	2.073427	0.000026
C16	C	-0.398685	2.119529	0.000043
C17	C	-0.334839	2.012635	0.000036
C18	C	-0.376937	1.859631	0.000013
C19	C	-0.482883	1.813524	0.000009
C20	C	-0.313101	1.752732	0.000020
C21	C	-0.355200	1.599727	-0.000003
C22	C	-0.461135	1.553629	-0.000008
C23	C	-0.524981	1.660523	-0.000001
C24	C	-0.207156	1.798839	0.000024
C25	C	-0.185419	1.538935	0.000007
C26	C	-0.291353	1.492833	-0.000010
C27	C	0.340530	1.871363	0.000019
C28	C	0.453281	1.920426	0.000015
C29	C	0.150046	2.073887	0.000025
C30	C	0.153554	2.239098	0.000016
N31	N	0.154977	1.806171	0.419788
N32	N	0.154976	1.806199	-0.419739
H33	H	-0.172890	1.923415	0.000043
H34	H	-0.364416	2.244105	0.000065
Cl35	Cl	-0.658163	1.602571	-0.000234
Cl36	Cl	-0.584887	2.207789	0.000067
Cl37	Cl	-0.514056	1.361280	-0.000012
H38	H	-0.248583	2.050181	0.000051
Cl39	Cl	-0.105162	1.404545	0.000011
H40	H	-0.325645	1.368254	-0.000028
