data_functionalizedCrystal
_audit_creation_method	'MofGen! by Chris Wilmer'
_symmetry_space_group_name_H-M	'P1'
_symmetry_Int_Tables_number	1
_symmetry_cell_setting	triclinic
loop_
_symmetry_equiv_pos_as_xyz
  x,y,z
_cell_length_a	14.628931
_cell_length_b	12.970454
_cell_length_c	12.970454
_cell_angle_alpha	59.999776
_cell_angle_beta	89.999753
_cell_angle_gamma	59.999998
loop_
_atom_site_label
_atom_site_type_symbol
_atom_site_fract_x
_atom_site_fract_y
_atom_site_fract_z
Zr1	Zr	0.880620	1.128517	-0.135304
O2	O	0.734660	1.343608	-0.299929
O3	O	0.925365	0.913427	-0.084836
O4	O	0.925366	1.128516	-0.299927
O5	O	0.734658	1.128519	0.084829
O6	O	1.075798	1.128516	-0.299927
O7	O	0.734659	1.128518	-0.084838
O8	O	1.075796	0.743760	0.084831
O9	O	0.734660	1.513275	-0.299930
O10	O	1.056713	1.001896	-0.063313
O11	O	0.944447	1.001897	0.063307
O12	O	0.944448	1.255138	-0.189935
O13	O	0.832182	1.255139	-0.063315
Zr14	Zr	1.120540	1.128518	0.135295
Zr15	Zr	1.120542	1.128517	-0.135303
Zr16	Zr	0.880618	1.128519	0.135295
Zr17	Zr	0.880620	1.399117	-0.135305
Zr18	Zr	1.120540	0.857918	0.135297
O19	O	1.075796	1.343609	0.084828
O20	O	1.075798	1.343607	-0.299928
O21	O	0.734658	1.343610	0.084828
O22	O	1.266500	0.913428	0.299920
O23	O	1.266503	0.913425	-0.084836
O24	O	0.925362	0.913429	0.299920
O25	O	1.266503	1.128516	-0.084837
O26	O	1.075794	1.128519	0.299919
O27	O	0.925362	1.128519	0.299919
O28	O	1.266502	1.128517	0.084830
O29	O	0.925366	1.513275	-0.299929
O30	O	1.075794	0.743761	0.299921
O31	O	1.266500	0.743760	0.299921
O32	O	1.266501	0.743759	0.084832
O33	O	0.734659	1.513276	-0.084840
O34	O	0.925365	1.513276	-0.084839
O35	O	1.056712	1.001898	0.189927
O36	O	1.168978	1.001897	0.063307
O37	O	1.056713	1.255138	-0.063315
O38	O	0.944447	1.255139	0.063305
C39	C	1.000580	0.790038	-0.000002
C40	C	1.000580	0.675162	-0.000002
C41	C	0.700474	1.128519	-0.000005
C42	C	0.598621	1.128519	-0.000005
C43	C	0.608903	1.002894	0.062808
C44	C	0.503634	1.002892	0.062809
C45	C	1.300686	1.128517	-0.000004
C46	C	1.402539	1.128516	-0.000003
C47	C	1.000582	1.128516	-0.338482
C48	C	1.000583	1.128515	-0.453358
C49	C	1.000580	1.466997	-0.000006
C50	C	1.000580	1.581874	-0.000006
C51	C	1.000578	1.128519	0.338473
C52	C	1.000577	1.128520	0.453350
C53	C	1.300686	0.790037	-0.000002
C54	C	1.402539	0.675160	-0.000001
C55	C	1.000578	0.790040	0.338475
C56	C	1.000577	0.675164	0.453352
C57	C	1.300684	0.790039	0.338476
C58	C	1.402536	0.675163	0.453353
C59	C	0.700477	1.466996	-0.338484
C60	C	0.598624	1.581873	-0.453361
C61	C	0.700475	1.466998	-0.000006
C62	C	0.598621	1.581875	-0.000007
C63	C	1.000582	1.466995	-0.338483
C64	C	1.000583	1.581871	-0.453360
C65	C	1.450371	0.527728	0.093475
C66	C	1.546063	0.419773	0.093480
C67	C	1.593926	0.459255	0.000013
C68	C	1.546086	0.606702	-0.093473
C69	C	1.450391	0.714653	-0.093482
C70	C	1.450375	0.527730	0.507299
C71	C	1.546087	0.419775	0.615226
C72	C	1.593953	0.459255	0.669210
C73	C	1.546110	0.606702	0.615253
C74	C	1.450405	0.714654	0.507323
C75	C	0.550794	1.729305	-0.507317
C76	C	0.455103	1.837260	-0.615268
C77	C	0.407240	1.797780	-0.669255
C78	C	0.455079	1.650332	-0.615293
C79	C	0.550773	1.542380	-0.507350
C80	C	0.550788	1.542348	0.093477
C81	C	0.455096	1.650272	0.093502
C82	C	0.407234	1.797723	0.000037
C83	C	0.455076	1.837249	-0.093452
C84	C	0.550771	1.729326	-0.093471
H85	H	0.695639	0.895344	0.116589
H86	H	0.589748	1.761479	-0.463372
N87	N	1.597677	0.260753	0.673409
H88	H	1.552819	0.252136	0.622834
H89	H	1.597540	0.211884	0.763146
H90	H	0.416164	1.957310	-0.659187
H91	H	1.411457	0.834699	-0.169601
H92	H	1.411458	0.834699	0.463411
H93	H	1.671845	0.371339	0.000032
H94	H	1.671882	0.371339	0.757094
H95	H	0.416093	1.957317	-0.169548
H96	H	1.411414	0.495557	0.463361
N97	N	0.304015	1.914221	-0.785667
H98	H	0.280979	2.013608	-0.811642
H99	H	0.241182	1.903395	-0.766625
H100	H	1.585098	0.638827	0.659222
N101	N	0.602339	1.383365	-0.449146
H102	H	0.670223	1.320954	-0.372569
H103	H	0.625462	1.361411	-0.512963
N104	N	0.602393	1.383319	0.194286
H105	H	0.557560	1.374677	0.253504
H106	H	0.681956	1.334456	0.243305
N107	N	1.398780	0.485105	0.194313
H108	H	1.398949	0.525705	0.243436
H109	H	1.443659	0.375314	0.253430
H110	H	0.416155	1.618061	0.169632
N111	N	0.403434	1.607767	-0.673518
H112	H	0.448246	1.497986	-0.622963
H113	H	0.403578	1.648483	-0.763253
H114	H	0.329312	1.885586	0.000066
N115	N	0.602353	1.771961	-0.194313
H116	H	0.625547	1.831618	-0.190238
H117	H	0.545781	1.831557	-0.280064
N118	N	0.515078	0.860417	0.134033
H119	H	0.438256	0.880610	0.123933
H120	H	0.557365	0.802649	0.226483
N121	N	0.391094	1.270992	-0.071251
H122	H	0.428227	1.276809	-0.010594
H123	H	0.309141	1.354744	-0.113167
N124	N	0.483732	1.270983	-0.071238
H125	H	0.474701	1.328813	-0.163719
H126	H	0.474774	1.328696	-0.036485
N127	N	1.597618	0.260760	0.194312
H128	H	1.620814	0.238681	0.280126
H129	H	1.665458	0.198434	0.180042
N130	N	1.597718	0.649286	-0.194274
H131	H	1.541225	0.708938	-0.280098
H132	H	1.665610	0.558457	-0.179961
