data_functionalizedCrystal
_audit_creation_method	'MofGen! by Chris Wilmer'
_symmetry_space_group_name_H-M	'P1'
_symmetry_Int_Tables_number	1
_symmetry_cell_setting	triclinic
loop_
_symmetry_equiv_pos_as_xyz
  x,y,z
_cell_length_a	12.811445
_cell_length_b	16.776229
_cell_length_c	17.699083
_cell_angle_alpha	90.005210
_cell_angle_beta	83.665952
_cell_angle_gamma	84.564939
loop_
_atom_site_label
_atom_site_type_symbol
_atom_site_fract_x
_atom_site_fract_y
_atom_site_fract_z
O1	O	1.392415	-0.166940	0.101936
O2	O	1.086803	-0.144851	0.113020
O3	O	1.248244	-0.156512	-0.002672
O4	O	1.230975	-0.155278	0.217629
O5	O	1.248229	-0.023935	-0.002652
O6	O	1.086788	-0.012273	0.113040
O7	O	1.392401	-0.034362	0.101957
Zn8	Zn	1.239592	-0.002268	0.107502
Zn9	Zn	1.239612	-0.176945	0.107475
O10	O	1.230960	-0.022701	0.217649
C11	C	1.047693	-0.075735	0.112409
C12	C	0.931180	-0.067314	0.110548
C13	C	1.247617	-0.090179	-0.030862
C14	C	1.245761	-0.090044	-0.114888
C15	C	0.712251	-0.196039	0.107044
C16	C	0.602776	-0.188130	0.105297
C17	C	0.602753	-0.043586	0.105310
C18	C	0.712228	-0.051496	0.107058
C19	C	0.766973	-0.127725	0.107924
C20	C	0.876450	-0.135634	0.109666
C21	C	0.876424	0.008910	0.109685
C22	C	0.766950	0.016819	0.107937
C23	C	1.431511	-0.103479	0.102568
C24	C	1.548024	-0.111906	0.104428
N25	N	1.239586	0.116944	0.107519
N26	N	1.239626	-0.296157	0.107451
C27	C	1.176087	0.666708	0.061326
C28	C	1.176085	0.583256	0.061332
C29	C	1.239616	0.536941	0.107468
C30	C	1.303162	0.574081	0.153596
C31	C	1.303169	0.657531	0.153585
C32	C	1.303134	0.237536	0.153640
C33	C	1.303120	0.154080	0.153649
C34	C	1.176050	0.163261	0.061388
C35	C	1.176057	0.246711	0.061377
C36	C	1.239607	0.283844	0.107501
C37	C	1.239610	0.374332	0.107492
C38	C	1.239608	0.446455	0.107482
C39	C	1.340523	-0.096892	-0.163085
C40	C	1.338773	-0.096773	-0.242036
C41	C	1.242259	-0.089799	-0.272789
C42	C	1.147489	-0.082953	-0.224587
C43	C	1.149241	-0.083078	-0.145637
C44	C	1.140423	-0.082449	-0.542981
C45	C	1.138679	-0.082322	-0.621937
C46	C	1.329955	-0.096143	-0.639380
C47	C	1.331707	-0.096269	-0.560431
C48	C	1.236938	-0.089427	-0.512235
C49	C	1.238837	-0.089558	-0.426627
C50	C	1.240359	-0.089662	-0.358395
C51	C	1.231586	-0.089036	0.245838
C52	C	1.233442	-0.089176	0.329865
H53	H	0.921022	-0.197703	0.110371
H54	H	0.722361	0.078883	0.107235
C55	C	1.034938	0.770764	0.056077
C56	C	1.106249	0.717612	0.010610
H57	H	0.991821	0.802184	0.024763
H58	H	1.072778	0.804824	0.083538
H59	H	0.991841	0.741328	0.090756
H60	H	1.149352	0.747049	-0.024066
H61	H	1.068406	0.683548	-0.016864
C62	C	1.044230	0.060972	0.112364
C63	C	0.936578	0.084008	0.110650
H64	H	1.081364	0.107334	0.112961
H65	H	1.070280	0.029398	0.068568
H66	H	1.054054	0.030571	0.156734
H67	H	0.926753	0.114404	0.066276
H68	H	0.910520	0.115596	0.154450
H69	H	1.419116	-0.102566	-0.138052
C70	C	1.528021	-0.110428	-0.251349
C71	C	1.442939	-0.104291	-0.295014
H72	H	1.592330	-0.115065	-0.284056
H73	H	1.524739	-0.156420	-0.220199
H74	H	1.524703	-0.063952	-0.220186
H75	H	1.446253	-0.150770	-0.326173
H76	H	1.446223	-0.058295	-0.326177
C77	C	1.031415	-0.142730	-0.444099
C78	C	1.036251	-0.074924	-0.490015
H79	H	0.967095	-0.138085	-0.411403
H80	H	1.089131	-0.146896	-0.414481
H81	H	1.034722	-0.189194	-0.475276
H82	H	1.032952	-0.028460	-0.458839
H83	H	0.978520	-0.070750	-0.519636
C84	C	0.959991	-0.069398	-0.136319
C85	C	1.045075	-0.075548	-0.092656
H86	H	0.895683	-0.064748	-0.103610
H87	H	0.963293	-0.115866	-0.167479
H88	H	0.963286	-0.023400	-0.167472
H89	H	1.041785	-0.121550	-0.061507
H90	H	1.041771	-0.029076	-0.061483
C91	C	1.428754	0.153381	0.244839
C92	C	1.372967	0.103168	0.204360
H93	H	1.471875	0.121948	0.276140
H94	H	1.380384	0.189437	0.275680
H95	H	1.471851	0.182804	0.210147
H96	H	1.329863	0.073749	0.239053
H97	H	1.421343	0.067097	0.173517
H98	H	0.558159	0.018476	0.104612
H99	H	1.060081	-0.076641	-0.646973
C100	C	1.050433	0.180720	-0.029811
C101	C	1.106200	0.122443	0.010680
H102	H	1.007305	0.155521	-0.061109
H103	H	1.098815	0.209759	-0.060656
H104	H	1.007343	0.216396	0.004874
H105	H	1.149296	0.086770	-0.024005
H106	H	1.057811	0.093391	0.041527
H107	H	0.756826	-0.258108	0.107746
H108	H	1.410298	-0.101943	-0.535396
C109	C	0.613800	-0.331798	0.105455
C110	C	0.542625	-0.263224	0.104327
H111	H	0.576664	-0.378159	0.104853
H112	H	0.648381	-0.331290	0.150217
H113	H	0.664618	-0.332458	0.062051
H114	H	0.491812	-0.262561	0.147733
H115	H	0.508028	-0.263732	0.059560
C116	C	1.050465	0.600714	-0.029857
C117	C	1.106235	0.542438	0.010634
H118	H	1.007337	0.575513	-0.061154
H119	H	1.098846	0.629753	-0.060703
H120	H	1.007375	0.636390	0.004829
H121	H	1.149331	0.506766	-0.024052
H122	H	1.057849	0.513386	0.041482
H123	H	1.124320	0.284417	0.023810
H124	H	1.407121	-0.101718	-0.678631
H125	H	1.354879	0.267759	0.191198
C126	C	1.359568	0.442084	0.194585
C127	C	1.372996	0.523173	0.204311
H128	H	1.402677	0.410658	0.225901
H129	H	1.379205	0.426977	0.142877
H130	H	1.287716	0.433621	0.208395
H131	H	1.444848	0.531637	0.190496
H132	H	1.353366	0.538284	0.256030
C133	C	1.059870	-0.076615	-0.337863
C134	C	1.041398	-0.075285	-0.258389
H135	H	0.994370	-0.071873	-0.358728
H136	H	1.098875	-0.125664	-0.354387
H137	H	1.098877	-0.033199	-0.354373
H138	H	1.002398	-0.118705	-0.241878
H139	H	1.002376	-0.026230	-0.241858
H140	H	1.354909	0.687765	0.191144
