data_functionalizedCrystal
_audit_creation_method	'MofGen! by Chris Wilmer'
_symmetry_space_group_name_H-M	'P1'
_symmetry_Int_Tables_number	1
_symmetry_cell_setting	triclinic
loop_
_symmetry_equiv_pos_as_xyz
  x,y,z
_cell_length_a	13.897449
_cell_length_b	12.645330
_cell_length_c	13.897441
_cell_angle_alpha	90.027301
_cell_angle_beta	90.020733
_cell_angle_gamma	90.018972
loop_
_atom_site_label
_atom_site_type_symbol
_atom_site_fract_x
_atom_site_fract_y
_atom_site_fract_z
Zn1	Zn	1.474703	-0.421969	0.545403
Zn2	Zn	1.808036	-0.088636	0.878737
Zn3	Zn	2.141369	0.244697	1.212070
Zn4	Zn	1.474597	-0.599265	0.384114
Zn5	Zn	1.807930	-0.265932	0.717447
Zn6	Zn	2.141263	0.067402	1.050781
Zn7	Zn	1.313392	-0.422020	0.384122
Zn8	Zn	1.646725	-0.088686	0.717455
Zn9	Zn	1.980058	0.244647	1.050788
Zn10	Zn	1.313373	-0.599195	0.545367
Zn11	Zn	1.646707	-0.265862	0.878700
Zn12	Zn	1.980040	0.067471	1.212033
O13	O	1.394016	-0.510612	0.464751
O14	O	1.727349	-0.177279	0.798085
O15	O	2.060683	0.156054	1.131418
O16	O	1.609670	-0.445496	0.524020
O17	O	1.943003	-0.112163	0.857353
O18	O	2.276337	0.221171	1.190687
O19	O	1.453176	-0.575803	0.249133
O20	O	1.786509	-0.242470	0.582467
O21	O	2.119842	0.090863	0.915800
O22	O	1.334842	-0.273666	0.405535
O23	O	1.668175	0.059667	0.738868
O24	O	2.001509	0.393001	1.072201
O25	O	1.609592	-0.575754	0.405521
O26	O	1.942926	-0.242421	0.738855
O27	O	2.276259	0.090912	1.072188
O28	O	1.453356	-0.273629	0.524028
O29	O	1.786690	0.059705	0.857361
O30	O	2.120023	0.393038	1.190694
O31	O	1.334739	-0.445582	0.249139
O32	O	1.668073	-0.112249	0.582472
O33	O	2.001406	0.221085	0.915806
O34	O	1.178408	-0.445514	0.405499
O35	O	1.511741	-0.112181	0.738832
O36	O	1.845074	0.221152	1.072166
O37	O	1.334811	-0.575636	0.680353
O38	O	1.668144	-0.242302	1.013686
O39	O	2.001478	0.091031	1.347020
O40	O	1.178394	-0.575684	0.523965
O41	O	1.511728	-0.242351	0.857298
O42	O	1.845061	0.090982	1.190632
O43	O	1.453339	-0.445428	0.680380
O44	O	1.786672	-0.112095	1.013713
O45	O	2.120005	0.221238	1.347047
O46	O	1.453158	-0.747603	0.405486
O47	O	1.786491	-0.414270	0.738819
O48	O	2.119825	-0.080936	1.072153
O49	O	1.334708	-0.747552	0.523957
O50	O	1.668041	-0.414218	0.857291
O51	O	2.001375	-0.080885	1.190624
C52	C	1.143402	-0.510598	0.464729
C53	C	1.476735	-0.177265	0.798063
C54	C	1.810068	0.156069	1.131396
C55	C	1.036188	-0.510618	0.464743
C56	C	1.369521	-0.177284	0.798076
C57	C	1.702855	0.156049	1.131410
C58	C	0.839893	-0.510621	0.464768
C59	C	1.173226	-0.177288	0.798101
C60	C	1.506559	0.156045	1.131435
C61	C	0.949125	-0.510616	0.464751
C62	C	1.282459	-0.177283	0.798085
C63	C	1.615792	0.156051	1.131418
C64	C	1.393946	-0.786042	0.464738
C65	C	1.727279	-0.452709	0.798071
C66	C	2.060612	-0.119375	1.131405
C67	C	1.394004	-0.903872	0.464764
C68	C	1.727337	-0.570539	0.798098
C69	C	2.060671	-0.237205	1.131431
C70	C	1.319794	-1.071448	0.539525
C71	C	1.653128	-0.738115	0.872858
C72	C	1.986461	-0.404781	1.206191
C73	C	1.319415	-0.948889	0.539284
C74	C	1.652748	-0.615555	0.872618
C75	C	1.986081	-0.282222	1.205951
C76	C	1.366485	-0.948472	0.363109
C77	C	1.699818	-0.615138	0.696442
C78	C	2.033151	-0.281805	1.029775
C79	C	1.366032	-1.071070	0.363563
C80	C	1.699365	-0.737737	0.696896
C81	C	2.032698	-0.404403	1.030229
C82	C	1.496187	-1.070958	0.490835
C83	C	1.829520	-0.737624	0.824169
C84	C	2.162853	-0.404291	1.157502
C85	C	1.495561	-0.948351	0.493058
C86	C	1.828894	-0.615017	0.826391
C87	C	2.162227	-0.281684	1.159725
C88	C	1.645609	-0.510627	0.464774
C89	C	1.978942	-0.177294	0.798107
C90	C	2.312276	0.156039	1.131441
C91	C	1.752823	-0.510634	0.464784
C92	C	2.086156	-0.177300	0.798117
C93	C	2.419490	0.156033	1.131450
C94	C	1.394085	-0.510519	0.716344
C95	C	1.727418	-0.177185	1.049678
C96	C	2.060751	0.156148	1.383011
C97	C	1.394114	-0.510479	0.823558
C98	C	1.727447	-0.177145	1.156892
C99	C	2.060780	0.156188	1.490225
C100	C	1.394113	-0.234107	0.464786
C101	C	1.727446	0.099226	0.798119
C102	C	2.060780	0.432560	1.131453
C103	C	1.394154	-0.116277	0.464801
C104	C	1.727488	0.217056	0.798134
C105	C	2.060821	0.550390	1.131467
C106	C	1.394003	-0.510629	0.214137
C107	C	1.727337	-0.177296	0.547470
C108	C	2.060670	0.156038	0.880804
C109	C	1.394161	-0.510370	0.106924
C110	C	1.727495	-0.177037	0.440257
C111	C	2.060828	0.156296	0.773590
C112	C	1.394140	-0.510407	1.019854
C113	C	1.727473	-0.177074	1.353187
C114	C	2.060807	0.156260	1.686520
C115	C	1.394122	-0.510450	0.910621
C116	C	1.727456	-0.177116	1.243954
C117	C	2.060789	0.156217	1.577288
H118	H	1.336854	-1.100856	0.615149
H119	H	1.670187	-0.767523	0.948482
H120	H	2.003521	-0.434189	1.281816
C121	C	1.478071	-1.024668	0.239057
C122	C	1.811404	-0.691334	0.572390
C123	C	2.144737	-0.358001	0.905723
C124	C	1.435957	-1.111117	0.285831
C125	C	1.769290	-0.777784	0.619164
C126	C	2.102624	-0.444450	0.952498
H127	H	1.521229	-1.049390	0.191062
H128	H	1.854563	-0.716057	0.524396
H129	H	2.187896	-0.382724	0.857729
H130	H	1.512269	-0.982986	0.284517
H131	H	1.845603	-0.649653	0.617851
H132	H	2.178936	-0.316319	0.951184
H133	H	1.429271	-0.983008	0.209854
H134	H	1.762605	-0.649675	0.543188
H135	H	2.095938	-0.316341	0.876521
H136	H	1.484756	-1.152773	0.315040
H137	H	1.818089	-0.819439	0.648373
H138	H	2.151422	-0.486106	0.981706
H139	H	1.401757	-1.152816	0.240363
H140	H	1.735091	-0.819483	0.573696
H141	H	2.068424	-0.486150	0.907029
C142	C	1.574357	-1.220750	0.419011
C143	C	1.907690	-0.887417	0.752345
C144	C	2.241024	-0.554084	1.085678
C145	C	1.570986	-1.110097	0.417379
C146	C	1.904319	-0.776764	0.750713
C147	C	2.237652	-0.443431	1.084046
H148	H	1.620535	-1.244916	0.373666
H149	H	1.953868	-0.911582	0.707000
H150	H	2.287201	-0.578249	1.040333
H151	H	1.512861	-1.248379	0.402903
H152	H	1.846195	-0.915045	0.736237
H153	H	2.179528	-0.581712	1.069570
H154	H	1.591978	-1.243998	0.481570
H155	H	1.925311	-0.910665	0.814903
H156	H	2.258645	-0.577332	1.148237
H157	H	1.553358	-1.086850	0.354822
H158	H	1.886691	-0.753516	0.688155
H159	H	2.220025	-0.420183	1.021489
H160	H	1.632495	-1.082459	0.433481
H161	H	1.965828	-0.749125	0.766815
H162	H	2.299162	-0.415792	1.100148
C163	C	1.642837	-0.850434	0.477982
C164	C	1.976170	-0.517101	0.811316
C165	C	2.309503	-0.183767	1.144649
C166	C	1.574298	-0.906987	0.424938
C167	C	1.907631	-0.573654	0.758271
C168	C	2.240965	-0.240320	1.091605
H169	H	1.691440	-0.824896	0.435919
H170	H	2.024774	-0.491563	0.769253
H171	H	2.358107	-0.158229	1.102586
H172	H	1.670956	-0.895584	0.524790
H173	H	2.004289	-0.562251	0.858123
H174	H	2.337622	-0.228918	1.191457
H175	H	1.612595	-0.792456	0.509200
H176	H	1.945928	-0.459122	0.842533
H177	H	2.279262	-0.125789	1.175866
H178	H	1.604538	-0.964970	0.393726
H179	H	1.937872	-0.631637	0.727060
H180	H	2.271205	-0.298303	1.060393
H181	H	1.546177	-0.861834	0.378113
H182	H	1.879510	-0.528500	0.711447
H183	H	2.212843	-0.195167	1.044780
H184	H	1.516314	-0.919196	0.567871
H185	H	1.849647	-0.585863	0.901204
H186	H	2.182980	-0.252530	1.234538
C187	C	1.357019	-0.994209	0.702775
C188	C	1.690353	-0.660876	1.036108
C189	C	2.023686	-0.327543	1.369441
C190	C	1.342635	-0.908168	0.641044
C191	C	1.675969	-0.574835	0.974377
C192	C	2.009302	-0.241501	1.307710
H193	H	1.371342	-0.969072	0.765602
H194	H	1.704675	-0.635738	1.098935
H195	H	2.038008	-0.302405	1.432268
H196	H	1.409130	-1.035752	0.679855
H197	H	1.742464	-0.702418	1.013188
H198	H	2.075797	-0.369085	1.346522
H199	H	1.300331	-1.036148	0.704744
H200	H	1.633665	-0.702814	1.038077
H201	H	1.966998	-0.369481	1.371411
H202	H	1.399326	-0.866234	0.639069
H203	H	1.732659	-0.532900	0.972402
H204	H	2.065992	-0.199567	1.305736
H205	H	1.290520	-0.866608	0.663969
H206	H	1.623853	-0.533275	0.997303
H207	H	1.957186	-0.199941	1.330636
H208	H	1.418928	-0.919315	0.305912
H209	H	1.752261	-0.585981	0.639246
H210	H	2.085594	-0.252648	0.972579
H211	H	1.244625	-1.102351	0.522497
H212	H	1.577958	-0.769018	0.855830
H213	H	1.911292	-0.435685	1.189164
H214	H	1.291445	-1.099764	0.341508
H215	H	1.624779	-0.766431	0.674841
H216	H	1.958112	-0.433097	1.008175
C217	C	1.156236	-0.996206	0.502183
C218	C	1.489569	-0.662873	0.835516
C219	C	1.822903	-0.329540	1.168850
C220	C	1.217306	-0.909416	0.515984
C221	C	1.550639	-0.576082	0.849318
C222	C	1.883973	-0.242749	1.182651
H223	H	1.093198	-0.971835	0.487788
H224	H	1.426532	-0.638502	0.821122
H225	H	1.759865	-0.305169	1.154455
H226	H	1.154664	-1.037707	0.559109
H227	H	1.487998	-0.704374	0.892442
H228	H	1.821331	-0.371041	1.225775
H229	H	1.179422	-1.037927	0.450279
H230	H	1.512756	-0.704593	0.783613
H231	H	1.846089	-0.371260	1.116946
H232	H	1.194123	-0.867699	0.567893
H233	H	1.527457	-0.534366	0.901226
H234	H	1.860790	-0.201032	1.234560
H235	H	1.218874	-0.867897	0.459052
H236	H	1.552207	-0.534564	0.792385
H237	H	1.885540	-0.201231	1.125719
C238	C	1.204517	-0.992752	0.318359
C239	C	1.537850	-0.659419	0.651692
C240	C	1.871184	-0.326085	0.985025
C241	C	1.266841	-0.907170	0.332792
C242	C	1.600174	-0.573837	0.666126
C243	C	1.933507	-0.240503	0.999459
H244	H	1.143002	-0.967254	0.299641
H245	H	1.476335	-0.633920	0.632974
H246	H	1.809669	-0.300587	0.966308
H247	H	1.198755	-1.031863	0.376404
H248	H	1.532089	-0.698529	0.709738
H249	H	1.865422	-0.365196	1.043071
H250	H	1.229522	-1.037171	0.269228
H251	H	1.562855	-0.703837	0.602561
H252	H	1.896188	-0.370504	0.935894
H253	H	1.241839	-0.862755	0.381929
H254	H	1.575173	-0.529421	0.715262
H255	H	1.908506	-0.196088	1.048595
H256	H	1.272599	-0.868042	0.274739
H257	H	1.605933	-0.534709	0.608072
H258	H	1.939266	-0.201375	0.941406
H259	H	1.521290	-1.101797	0.563702
H260	H	1.854623	-0.768464	0.897036
H261	H	2.187957	-0.435131	1.230369
