data_functionalizedCrystal
_audit_creation_method	'MofGen! by Chris Wilmer'
_symmetry_space_group_name_H-M	'P1'
_symmetry_Int_Tables_number	1
_symmetry_cell_setting	triclinic
loop_
_symmetry_equiv_pos_as_xyz
  x,y,z
_cell_length_a	19.288864
_cell_length_b	16.992695
_cell_length_c	17.766277
_cell_angle_alpha	89.993690
_cell_angle_beta	89.976791
_cell_angle_gamma	86.902234
loop_
_atom_site_label
_atom_site_type_symbol
_atom_site_fract_x
_atom_site_fract_y
_atom_site_fract_z
O1	O	0.927053	0.097795	-0.062838
O2	O	1.427053	0.597795	0.437162
O3	O	0.725561	0.110988	-0.062787
O4	O	1.225561	0.610988	0.437213
O5	O	0.825499	-0.009748	-0.062806
O6	O	1.325499	0.490252	0.437194
O7	O	0.827114	0.218531	-0.062819
O8	O	1.327114	0.718531	0.437181
O9	O	0.825480	-0.009754	0.062382
O10	O	1.325480	0.490246	0.562382
O11	O	0.725542	0.110982	0.062402
O12	O	1.225542	0.610982	0.562402
O13	O	0.927034	0.097789	0.062351
O14	O	1.427034	0.597789	0.562351
Cu15	Cu	0.826286	0.104385	0.073807
Cu16	Cu	1.326286	0.604385	0.573807
Cu17	Cu	0.826308	0.104392	-0.074243
Cu18	Cu	1.326308	0.604392	0.425757
O19	O	0.827095	0.218525	0.062370
O20	O	1.327095	0.718525	0.562370
C21	C	0.699650	0.110560	-0.000186
C22	C	1.199650	0.610560	0.499814
C23	C	0.622472	0.109286	-0.000166
C24	C	1.122472	0.609286	0.499834
C25	C	0.581905	0.180128	-0.000182
C26	C	1.081905	0.680128	0.499818
C27	C	0.509388	0.178931	-0.000190
C28	C	1.009388	0.678931	0.499810
C29	C	0.477442	0.106888	-0.000198
C30	C	0.977442	0.606888	0.499802
C31	C	0.518018	0.036036	-0.000178
C32	C	1.018018	0.536036	0.499822
C33	C	0.590534	0.037235	-0.000162
C34	C	1.090534	0.537235	0.499838
C35	C	0.365886	0.050256	-0.044079
C36	C	0.865886	0.550256	0.455921
C37	C	0.293371	0.049059	-0.044099
C38	C	0.793371	0.549059	0.455901
C39	C	0.253780	0.103186	-0.000243
C40	C	0.753780	0.603186	0.499757
C41	C	0.286711	0.158522	0.043624
C42	C	0.786711	0.658522	0.543624
C43	C	0.359227	0.159722	0.043640
C44	C	0.859227	0.659722	0.543640
C45	C	0.398811	0.105579	-0.000214
C46	C	0.898811	0.605579	0.499786
C47	C	0.134581	0.172735	-0.000267
C48	C	0.634581	0.672735	0.499733
C49	C	0.062063	0.171535	-0.000270
C50	C	0.562063	0.671535	0.499730
C51	C	0.070695	0.028638	-0.000266
C52	C	0.570695	0.528638	0.499734
C53	C	0.143212	0.029840	-0.000254
C54	C	0.643212	0.529840	0.499746
C55	C	0.175150	0.101891	-0.000259
C56	C	0.675150	0.601891	0.499741
C57	C	0.823411	-0.038957	-0.000211
C58	C	1.323411	0.461043	0.499789
C59	C	0.817211	-0.125979	-0.000210
C60	C	1.317211	0.374021	0.499790
C61	C	0.877039	-0.176431	-0.000224
C62	C	1.377039	0.323569	0.499776
C63	C	0.871208	-0.258197	-0.000230
C64	C	1.371208	0.241803	0.499770
C65	C	0.805549	-0.289509	-0.000216
C66	C	1.305549	0.210491	0.499784
C67	C	0.745717	-0.239051	-0.000204
C68	C	1.245717	0.260949	0.499796
C69	C	0.751548	-0.157287	-0.000204
C70	C	1.251548	0.342713	0.499796
C71	C	0.781382	-0.533022	-0.000220
C72	C	1.281382	-0.033022	0.499780
C73	C	0.775556	-0.614793	-0.000218
C74	C	1.275556	-0.114793	0.499782
C75	C	0.901048	-0.633933	-0.000246
C76	C	1.401048	-0.133933	0.499754
C77	C	0.906873	-0.552166	-0.000241
C78	C	1.406873	-0.052166	0.499759
C79	C	0.847041	-0.501715	-0.000233
C80	C	1.347041	-0.001715	0.499767
N81	N	0.799588	-0.373087	-0.000219
N82	N	1.299588	0.126913	0.499781
N83	N	0.853002	-0.418138	-0.000235
N84	N	1.353002	0.081862	0.499765
C85	C	0.952944	0.098217	-0.000252
C86	C	1.452944	0.598217	0.499748
C87	C	1.030122	0.099491	-0.000277
C88	C	1.530122	0.599491	0.499723
C89	C	0.829183	0.247733	-0.000226
C90	C	1.329183	0.747733	0.499774
C91	C	0.835384	0.334756	-0.000233
C92	C	1.335384	0.834756	0.499767
N93	N	0.826275	0.104379	0.177937
N94	N	1.326275	0.604379	0.677937
N95	N	0.826324	0.104391	-0.178373
N96	N	1.326324	0.604391	0.321627
C97	C	0.870544	0.050944	0.217316
C98	C	1.370544	0.550944	0.717316
C99	C	0.870548	0.050940	0.296117
C100	C	1.370548	0.550940	0.796117
C101	C	0.826290	0.104385	0.335538
C102	C	1.326290	0.604385	0.835538
C103	C	0.782012	0.157825	0.296150
C104	C	1.282012	0.657825	0.796150
C105	C	0.782005	0.157822	0.217350
C106	C	1.282005	0.657822	0.717350
C107	C	0.821154	0.175815	0.460373
C108	C	1.321154	0.675815	0.960373
C109	C	0.821167	0.175819	0.539172
C110	C	1.321167	0.675819	1.039172
C111	C	0.826309	0.104395	0.578584
C112	C	1.326309	0.604395	1.078584
C113	C	0.831454	0.032964	0.539188
C114	C	1.331454	0.532964	1.039188
C115	C	0.831446	0.032961	0.460387
C116	C	1.331446	0.532961	0.960387
C117	C	0.826293	0.104394	0.420983
C118	C	1.326293	0.604394	0.920983
C119	C	0.870585	0.050951	0.703408
C120	C	1.370585	0.550951	1.203408
C121	C	0.870584	0.050946	0.782212
C122	C	1.370584	0.550946	1.282212
C123	C	0.782051	0.157838	0.782243
C124	C	1.282051	0.657838	1.282243
C125	C	0.782049	0.157836	0.703441
C126	C	1.282049	0.657836	1.203441
C127	C	0.826319	0.104393	0.664029
C128	C	1.326319	0.604393	1.164029
H129	H	0.266564	0.004004	-0.079822
H130	H	0.766564	0.504004	0.420178
Br131	Br	0.930663	-0.021581	0.649918
Br132	Br	1.430663	0.478419	1.149918
H133	H	0.398115	0.006177	-0.079797
H134	H	0.898115	0.506177	0.420203
Br135	Br	0.656606	-0.281546	-0.000197
Br136	Br	1.156606	0.218454	0.499803
Br137	Br	0.995985	-0.509676	-0.000284
Br138	Br	1.495985	-0.009676	0.499716
Br139	Br	0.474665	-0.061738	-0.000181
Br140	Br	0.974665	0.438262	0.499819
Br141	Br	0.982245	-0.702405	-0.000257
Br142	Br	1.482245	-0.202405	0.499743
Br143	Br	0.930662	-0.021586	0.835658
Br144	Br	1.430662	0.478414	1.335658
Br145	Br	0.721978	0.230364	0.835735
Br146	Br	1.221978	0.730364	1.335735
H147	H	0.254478	0.202597	0.079337
H148	H	0.754478	0.702597	0.579337
H149	H	0.746003	0.201352	0.671377
H150	H	1.246003	0.701352	1.171377
Br151	Br	0.930621	-0.021587	0.163827
Br152	Br	1.430621	0.478413	0.663827
Br153	Br	0.952408	-0.326665	-0.000250
Br154	Br	1.452408	0.173335	0.499750
H155	H	0.176243	-0.027848	-0.000246
H156	H	0.676243	0.472152	0.499754
H157	H	0.745975	0.201340	0.328250
H158	H	1.245975	0.701340	0.828250
H159	H	0.732662	-0.491954	-0.000213
H160	H	1.232662	0.008046	0.499787
H161	H	0.722085	-0.640283	-0.000195
H162	H	1.222085	-0.140283	0.499805
Br163	Br	0.838442	-0.063976	0.592665
Br164	Br	1.338442	0.436024	1.092665
Br165	Br	0.645594	-0.058916	-0.000139
Br166	Br	1.145594	0.441084	0.499861
Br167	Br	0.930632	-0.021587	0.349569
Br168	Br	1.430632	0.478413	0.849569
H169	H	0.745954	0.201337	0.185287
H170	H	1.245954	0.701337	0.685287
H171	H	0.816982	0.233982	0.571243
H172	H	1.316982	0.733982	1.071243
H173	H	0.816955	0.233980	0.428291
H174	H	1.316955	0.733980	0.928291
H175	H	0.702829	-0.116209	-0.000192
H176	H	1.202829	0.383791	0.499808
Br177	Br	0.966152	-0.133944	-0.000233
Br178	Br	1.466152	0.366056	0.499767
Br179	Br	0.838422	-0.063976	0.406922
Br180	Br	1.338422	0.436024	0.906922
H181	H	0.607904	0.238798	-0.000187
H182	H	1.107904	0.738798	0.499813
H183	H	0.160587	0.231403	-0.000259
H184	H	0.660587	0.731403	0.499741
Br185	Br	0.027348	-0.069138	-0.000263
Br186	Br	0.527348	0.430862	0.499737
H187	H	0.386036	0.204776	0.079360
H188	H	0.886036	0.704776	0.579360
H189	H	0.476351	0.236621	-0.000201
H190	H	0.976351	0.736621	0.499799
H191	H	0.029034	0.229226	-0.000279
H192	H	0.529034	0.729226	0.499721
