data_functionalizedCrystal
_audit_creation_method	'MofGen! by Chris Wilmer'
_symmetry_space_group_name_H-M	'P1'
_symmetry_Int_Tables_number	1
_symmetry_cell_setting	triclinic
loop_
_symmetry_equiv_pos_as_xyz
  x,y,z
_cell_length_a	12.759401
_cell_length_b	17.640280
_cell_length_c	12.759393
_cell_angle_alpha	78.770266
_cell_angle_beta	89.980186
_cell_angle_gamma	78.802151
loop_
_atom_site_label
_atom_site_type_symbol
_atom_site_fract_x
_atom_site_fract_y
_atom_site_fract_z
Zn1	Zn	1.690810	-0.314605	-0.509560
Zn2	Zn	1.726233	-0.446795	-0.298392
Zn3	Zn	1.515123	-0.314644	-0.333885
Zn4	Zn	1.550615	-0.446742	-0.474043
O5	O	1.620695	-0.380696	-0.403970
O6	O	1.842532	-0.332145	-0.481558
O7	O	1.698200	-0.429303	-0.156069
O8	O	1.508750	-0.204033	-0.386906
O9	O	1.868557	-0.429265	-0.326414
O10	O	1.637827	-0.204004	-0.515974
O11	O	1.543098	-0.332213	-0.182145
O12	O	1.372809	-0.332162	-0.352467
O13	O	1.569241	-0.429175	-0.625786
O14	O	1.398885	-0.429213	-0.455441
O15	O	1.672242	-0.332094	-0.651880
O16	O	1.732615	-0.557393	-0.291975
O17	O	1.603590	-0.557355	-0.421025
C18	C	1.347726	-0.380687	-0.403952
C19	C	1.230953	-0.380702	-0.403964
C20	C	1.189717	-0.431313	-0.457456
C21	C	1.079994	-0.431316	-0.457476
C22	C	1.052752	-0.330094	-0.350503
C23	C	1.162472	-0.330087	-0.350490
C24	C	0.937718	-0.459679	-0.573722
C25	C	0.896482	-0.510303	-0.627201
C26	C	0.952811	-0.587439	-0.622441
C27	C	1.050378	-0.613966	-0.564182
C28	C	1.091610	-0.563346	-0.510693
C29	C	1.035280	-0.486199	-0.515477
C30	C	1.304751	-0.301733	-0.234240
C31	C	1.345986	-0.251116	-0.180745
C32	C	1.289659	-0.173979	-0.185495
C33	C	1.192089	-0.147455	-0.243735
C34	C	1.150854	-0.198072	-0.297230
C35	C	1.207188	-0.275208	-0.292482
C36	C	1.675826	-0.586053	-0.348817
C37	C	1.699508	-0.673905	-0.325258
C38	C	1.441222	-0.962877	-0.583331
C39	C	1.463477	-1.045428	-0.561159
C40	C	1.597915	-1.045403	-0.426915
C41	C	1.575675	-0.962850	-0.449079
C42	C	1.497327	-0.921594	-0.527287
C43	C	1.631780	-0.921567	-0.393035
C44	C	1.609538	-0.839022	-0.415193
C45	C	1.531192	-0.797760	-0.493395
C46	C	1.475085	-0.839049	-0.549445
C47	C	1.710122	-0.962825	-0.314822
C48	C	1.766227	-0.921542	-0.258778
C49	C	1.743991	-0.838995	-0.280941
C50	C	1.665645	-0.797733	-0.359143
C51	C	1.800097	-0.797706	-0.224892
C52	C	1.777856	-0.715161	-0.247050
C53	C	1.643403	-0.715188	-0.381302
C54	C	1.894731	-0.380707	-0.403989
C55	C	2.011509	-0.380711	-0.403997
C56	C	1.620749	-0.380624	-0.678023
C57	C	1.620772	-0.380594	-0.794808
C58	C	1.565378	-0.174538	-0.459361
C59	C	1.541805	-0.086686	-0.482965
C60	C	1.701531	-0.431126	-0.836102
C61	C	1.701551	-0.431087	-0.945836
C62	C	1.540044	-0.329981	-0.972974
C63	C	1.540029	-0.330017	-0.863242
C64	C	1.833056	-0.459285	-1.088228
C65	C	1.913809	-0.509830	-1.129523
C66	C	1.950627	-0.586965	-1.073197
C67	C	1.906680	-0.613571	-0.975576
C68	C	1.825921	-0.563030	-0.934286
C69	C	1.789120	-0.485884	-0.990612
C70	C	1.408525	-0.301827	-0.720846
C71	C	1.327760	-0.251289	-0.679553
C72	C	1.290932	-0.174153	-0.735877
C73	C	1.334860	-0.147550	-0.833501
C74	C	1.415625	-0.198087	-0.874794
C75	C	1.452455	-0.275223	-0.818463
C76	C	1.620687	-0.380711	-0.130999
C77	C	1.620808	-0.380519	-0.014274
H78	H	1.096231	-0.676780	-0.560300
H79	H	1.513076	-0.730546	-0.511427
C80	C	1.344433	-0.847356	-0.679955
C81	C	1.388978	-0.793692	-0.635428
H82	H	1.291275	-0.819353	-0.733032
H83	H	1.398853	-0.879510	-0.711540
H84	H	1.312944	-0.879593	-0.625488
H85	H	1.420474	-0.761459	-0.689894
H86	H	1.334548	-0.761524	-0.603843
H87	H	1.245471	-0.472525	-0.501001
C88	C	1.467475	-0.384544	-0.271627
C89	C	1.366670	-0.386527	-0.229021
H90	H	1.505700	-0.436893	-0.268395
H91	H	1.459109	-0.357209	-0.343947
H92	H	1.505986	-0.358197	-0.231421
H93	H	1.328156	-0.412870	-0.269232
H94	H	1.375032	-0.413873	-0.156689
C95	C	1.432513	-0.157908	-0.074551
C96	C	1.334983	-0.118341	-0.126686
H97	H	1.460491	-0.123556	-0.038254
H98	H	1.421584	-0.202831	-0.024406
H99	H	1.481614	-0.174161	-0.125642
H100	H	1.285879	-0.102093	-0.075594
H101	H	1.345907	-0.073404	-0.176835
C102	C	1.179105	-0.045277	-0.760550
C103	C	1.202147	-0.118601	-0.690492
H104	H	1.124292	-0.010984	-0.732536
H105	H	1.241563	-0.023194	-0.768331
H106	H	1.155817	-0.051927	-0.828294
H107	H	1.225443	-0.111952	-0.622750
H108	H	1.139676	-0.140689	-0.682698
C109	C	1.585288	-0.689723	-0.566006
C110	C	1.557294	-0.669827	-0.467282
H111	H	1.532130	-0.661720	-0.619082
H112	H	1.652210	-0.676150	-0.585066
H113	H	1.590493	-0.744792	-0.560823
H114	H	1.552097	-0.614759	-0.472462
H115	H	1.490355	-0.683395	-0.448218
C116	C	0.872461	-0.285158	-0.303025
C117	C	0.977474	-0.274463	-0.291722
H118	H	0.825992	-0.250816	-0.266729
H119	H	0.851432	-0.273657	-0.376724
H120	H	0.868738	-0.338252	-0.273269
H121	H	0.981199	-0.221370	-0.321485
H122	H	0.998509	-0.285958	-0.218008
H123	H	1.728232	-1.030038	-0.296786
H124	H	1.425435	-0.272719	-0.133321
H125	H	1.830015	-0.955144	-0.195098
H126	H	1.377431	-0.929285	-0.647023
C127	C	1.233625	-0.345332	-0.579804
C128	C	1.279459	-0.280530	-0.572247
H129	H	1.203810	-0.363383	-0.513558
H130	H	1.178981	-0.330101	-0.634637
H131	H	1.287008	-0.386465	-0.596327
H132	H	1.226075	-0.239394	-0.555733
H133	H	1.334109	-0.295758	-0.517398
C134	C	1.419042	-1.070806	-0.732210
C135	C	1.401810	-1.090811	-0.622774
H136	H	1.380977	-1.098830	-0.770243
H137	H	1.394577	-1.015748	-0.756591
H138	H	1.493260	-1.084288	-0.744016
H139	H	1.327592	-1.077325	-0.610967
H140	H	1.426269	-1.145882	-0.598385
H141	H	1.438514	-0.364637	-0.674973
C142	C	0.809960	-0.603513	-0.733370
C143	C	0.907488	-0.643084	-0.681233
H144	H	0.781984	-0.637863	-0.769674
H145	H	0.760864	-0.587261	-0.682289
H146	H	0.820897	-0.558586	-0.783520
H147	H	0.896551	-0.688008	-0.631076
H148	H	0.956595	-0.659348	-0.732319
H149	H	1.863881	-0.831310	-0.161208
H150	H	1.936655	-0.676386	-0.929728
H151	H	1.823541	-0.681548	-0.201412
H152	H	1.304872	-0.084739	-0.879363
C153	C	1.691689	-1.171927	-0.333315
C154	C	1.684020	-1.090756	-0.340938
H155	H	1.744849	-1.199924	-0.280236
H156	H	1.624766	-1.185492	-0.314241
H157	H	1.710672	-1.185417	-0.400297
H158	H	1.665029	-1.077266	-0.273958
H159	H	1.750957	-1.077186	-0.360006
H160	H	1.171048	-0.584943	-0.463259
H161	H	1.790137	-0.584693	-0.854807
C162	C	2.070187	-0.602885	-1.216161
C163	C	2.039394	-0.642524	-1.118585
H164	H	2.124994	-0.637182	-1.244179
H165	H	2.010356	-0.586661	-1.265215
H166	H	2.096114	-0.557935	-1.205258
H167	H	2.013460	-0.687471	-1.129490
H168	H	2.099237	-0.658760	-1.069521
H169	H	1.949590	-0.488160	-1.209008
C170	C	1.051220	-0.104166	-0.442025
C171	C	1.043606	-0.168919	-0.361260
H172	H	0.985013	-0.086174	-0.481556
H173	H	1.067705	-0.062988	-0.410844
H174	H	1.106097	-0.119430	-0.488458
H175	H	0.988735	-0.153654	-0.314822
H176	H	1.027108	-0.210106	-0.392442
H177	H	0.817040	-0.488698	-0.674639
C178	C	1.751050	-0.376471	-1.250916
C179	C	1.792593	-0.374492	-1.150141
H180	H	1.726064	-0.324122	-1.289138
H181	H	1.805431	-0.402762	-1.289469
H182	H	1.693468	-0.403861	-1.242482
H183	H	1.850180	-0.347107	-1.158575
H184	H	1.738207	-0.348189	-1.111580
H185	H	0.891851	-0.396867	-0.577617
H186	H	1.767285	-0.472303	-0.780386
H187	H	1.146214	-0.084649	-0.247586
H188	H	1.451405	-0.176417	-0.954278
H189	H	1.474305	-0.288804	-1.028706
