data_functionalizedCrystal
_audit_creation_method	'MofGen! by Chris Wilmer'
_symmetry_space_group_name_H-M	'P1'
_symmetry_Int_Tables_number	1
_symmetry_cell_setting	triclinic
loop_
_symmetry_equiv_pos_as_xyz
  x,y,z
_cell_length_a	27.731988
_cell_length_b	26.210047
_cell_length_c	15.995350
_cell_angle_alpha	90.003919
_cell_angle_beta	96.944628
_cell_angle_gamma	89.981104
loop_
_atom_site_label
_atom_site_type_symbol
_atom_site_fract_x
_atom_site_fract_y
_atom_site_fract_z
O1	O	-0.641389	0.042360	0.099389
O2	O	-0.141389	0.542360	0.599389
O3	O	-0.500657	0.042376	0.114590
O4	O	-0.000657	0.542376	0.614590
O5	O	-0.574870	0.042367	-0.014949
O6	O	-0.074870	0.542367	0.485051
O7	O	-0.567176	0.042369	0.228928
O8	O	-0.067176	0.542369	0.728928
O9	O	-0.574835	-0.042491	-0.014951
O10	O	-0.074835	0.457509	0.485049
O11	O	-0.500622	-0.042482	0.114588
O12	O	-0.000622	0.457518	0.614588
O13	O	-0.641354	-0.042498	0.099388
O14	O	-0.141354	0.457502	0.599388
Cu15	Cu	-0.570985	-0.050238	0.106988
Cu16	Cu	-0.070985	0.449762	0.606988
Cu17	Cu	-0.571026	0.050116	0.106990
Cu18	Cu	-0.071026	0.550116	0.606990
O19	O	-0.567141	-0.042489	0.228927
O20	O	-0.067141	0.457511	0.728927
C21	C	-0.482631	-0.000051	0.114278
C22	C	0.017369	0.499949	0.614278
C23	C	-0.428970	-0.000046	0.113340
C24	C	0.071030	0.499954	0.613340
C25	C	-0.096207	-0.046325	0.107434
C26	C	0.403793	0.453675	0.607434
C27	C	0.105468	-0.046333	0.103869
C28	C	0.605468	0.453667	0.603869
O29	O	0.131558	-0.085672	0.103372
O30	O	0.631558	0.414328	0.603372
N31	N	0.130666	-0.000077	0.103427
N32	N	0.630666	0.499923	0.603427
C33	C	0.105442	0.046184	0.103871
C34	C	0.605442	0.546184	0.603871
O35	O	0.131501	0.085528	0.103405
O36	O	0.631501	0.585528	0.603405
C37	C	-0.096232	0.046192	0.107430
C38	C	0.403768	0.546192	0.607430
C39	C	-0.121427	-0.000067	0.107880
C40	C	0.378573	0.499933	0.607880
C41	C	-0.121401	-0.092580	0.107883
C42	C	0.378599	0.407420	0.607883
C43	C	-0.171817	-0.092577	0.108779
C44	C	0.328183	0.407423	0.608779
C45	C	-0.197037	-0.046320	0.109225
C46	C	0.302963	0.453680	0.609225
C47	C	-0.171842	-0.000065	0.108776
C48	C	0.328158	0.499935	0.608776
C49	C	-0.121456	0.092452	0.107867
C50	C	0.378544	0.592452	0.607867
C51	C	-0.171877	0.092450	0.108755
C52	C	0.328123	0.592450	0.608755
C53	C	-0.197072	0.046191	0.109205
C54	C	0.302928	0.546191	0.609205
C55	C	-0.247477	0.046195	0.110117
C56	C	0.252523	0.546195	0.610117
N57	N	-0.272675	-0.000061	0.110559
N58	N	0.227325	0.499939	0.610559
C59	C	-0.247455	-0.046318	0.110113
C60	C	0.252545	0.453682	0.610113
C61	C	0.211323	0.046177	0.102005
C62	C	0.711323	0.546177	0.602005
C63	C	0.261741	0.046176	0.101117
C64	C	0.761741	0.546176	0.601117
C65	C	0.261764	-0.046342	0.101113
C66	C	0.761764	0.453658	0.601113
C67	C	0.211345	-0.046339	0.102007
C68	C	0.711345	0.453661	0.602007
C69	C	0.186125	-0.000079	0.102447
C70	C	0.686125	0.499921	0.602447
C71	C	-0.353330	-0.046310	0.111995
C72	C	0.146670	0.453690	0.611995
C73	C	-0.403750	-0.046303	0.112894
C74	C	0.096250	0.453697	0.612894
C75	C	-0.403768	0.046214	0.112893
C76	C	0.096232	0.546214	0.612893
C77	C	-0.353353	0.046208	0.111998
C78	C	0.146647	0.546208	0.611998
C79	C	-0.328136	-0.000058	0.111546
C80	C	0.171864	0.499942	0.611546
O81	O	-0.273600	0.085514	0.110606
O82	O	0.226400	0.585514	0.610606
O83	O	-0.273525	-0.085656	0.110561
O84	O	0.226475	0.414344	0.610561
C85	C	-0.045791	-0.046327	0.106538
C86	C	0.454209	0.453673	0.606538
C87	C	-0.020597	-0.000072	0.106089
C88	C	0.479403	0.499928	0.606089
C89	C	-0.045817	0.046185	0.106535
C90	C	0.454183	0.546185	0.606535
C91	C	0.029822	-0.000074	0.105201
C92	C	0.529822	0.499926	0.605201
C93	C	0.055042	-0.046331	0.104754
C94	C	0.555042	0.453669	0.604754
C95	C	0.029844	-0.092587	0.105196
C96	C	0.529844	0.407413	0.605196
C97	C	-0.020571	-0.092585	0.106092
C98	C	0.479429	0.407415	0.606092
C99	C	-0.020619	0.092441	0.106093
C100	C	0.479381	0.592441	0.606093
C101	C	0.029796	0.092435	0.105198
C102	C	0.529796	0.592435	0.605198
C103	C	0.055017	0.046178	0.104752
C104	C	0.555017	0.546178	0.604752
C105	C	0.340620	-0.000072	0.099708
C106	C	0.840620	0.499928	0.599708
C107	C	0.286962	-0.000082	0.100670
C108	C	0.786962	0.499918	0.600670
N109	N	-0.570960	-0.120822	0.106986
N110	N	-0.070960	0.379178	0.606986
C111	C	-0.574534	-0.000061	-0.046141
C112	C	-0.074534	0.499939	0.453859
C113	C	-0.573581	-0.000058	-0.139078
C114	C	-0.073581	0.499942	0.360922
C115	C	-0.538133	-0.526786	0.164322
C116	C	-0.038133	-0.026786	0.664322
C117	C	-0.538109	-0.313127	0.164323
C118	C	-0.038109	0.186873	0.664323
O119	O	-0.510141	-0.285505	0.213064
O120	O	-0.010141	0.214495	0.713064
N121	N	-0.570975	-0.286406	0.106983
N122	N	-0.070975	0.213594	0.606983
C123	C	-0.603847	-0.313102	0.049636
C124	C	-0.103847	0.186898	0.549636
O125	O	-0.631798	-0.285472	0.000859
O126	O	-0.131798	0.214528	0.500859
C127	C	-0.603868	-0.526760	0.049632
C128	C	-0.103868	-0.026760	0.549632
C129	C	-0.571003	-0.553479	0.106981
C130	C	-0.071003	-0.053479	0.606981
C131	C	-0.505270	-0.553504	0.221666
C132	C	-0.005270	-0.053504	0.721666
C133	C	-0.505278	-0.606916	0.221669
C134	C	-0.005278	-0.106916	0.721669
C135	C	-0.538148	-0.633609	0.164327
C136	C	-0.038148	-0.133609	0.664327
C137	C	-0.571011	-0.606890	0.106983
C138	C	-0.071011	-0.106890	0.606983
C139	C	-0.636737	-0.553456	-0.007719
C140	C	-0.136737	-0.053456	0.492281
C141	C	-0.636738	-0.606873	-0.007716
C142	C	-0.136738	-0.106873	0.492284
C143	C	-0.603874	-0.633592	0.049633
C144	C	-0.103874	-0.133592	0.549633
C145	C	-0.603889	-0.686994	0.049644
C146	C	-0.103889	-0.186994	0.549644
N147	N	-0.571023	-0.713716	0.106984
N148	N	-0.071023	-0.213716	0.606984
C149	C	-0.538153	-0.687023	0.164325
C150	C	-0.038153	-0.187023	0.664325
C151	C	-0.603835	-0.200929	0.049643
C152	C	-0.103835	0.299071	0.549643
C153	C	-0.603830	-0.147515	0.049645
C154	C	-0.103830	0.352485	0.549645
C155	C	-0.538092	-0.147543	0.164331
C156	C	-0.038092	0.352457	0.664331
C157	C	-0.538099	-0.200959	0.164333
C158	C	-0.038099	0.299041	0.664333
C159	C	-0.570969	-0.227650	0.106983
C160	C	-0.070969	0.272350	0.606983
C161	C	-0.538172	-0.799191	0.164326
C162	C	-0.038172	-0.299191	0.664326
C163	C	-0.538184	-0.852607	0.164326
C164	C	-0.038184	-0.352607	0.664326
C165	C	-0.603921	-0.852574	0.049637
C166	C	-0.103921	-0.352574	0.549637
C167	C	-0.603911	-0.799162	0.049640
C168	C	-0.103911	-0.299162	0.549640
C169	C	-0.571032	-0.772472	0.106988
C170	C	-0.071032	-0.272472	0.606988
O171	O	-0.631839	-0.714649	0.000922
O172	O	-0.131839	-0.214649	0.500922
O173	O	-0.510199	-0.714663	0.213082
O174	O	-0.010199	-0.214663	0.713082
C175	C	-0.538125	-0.473374	0.164320
C176	C	-0.038125	0.026626	0.664320
C177	C	-0.570987	-0.446656	0.106976
C178	C	-0.070987	0.053344	0.606976
C179	C	-0.603858	-0.473349	0.049635
C180	C	-0.103858	0.026651	0.549635
C181	C	-0.570983	-0.393242	0.106978
C182	C	-0.070983	0.106758	0.606978
C183	C	-0.538112	-0.366549	0.164320
C184	C	-0.038112	0.133451	0.664320
C185	C	-0.505246	-0.393270	0.221659
C186	C	-0.005246	0.106730	0.721659
C187	C	-0.505254	-0.446682	0.221662
C188	C	-0.005254	0.053318	0.721662
C189	C	-0.636723	-0.446627	-0.007705
C190	C	-0.136723	0.053373	0.492295
C191	C	-0.636713	-0.393216	-0.007702
C192	C	-0.136713	0.106784	0.492298
C193	C	-0.603843	-0.366523	0.049640
C194	C	-0.103843	0.133477	0.549640
N195	N	-0.571055	0.120700	0.106985
N196	N	-0.071055	0.620700	0.606985
C197	C	-0.570156	-0.000059	-0.476780
C198	C	-0.070156	0.499941	0.023220
C199	C	-0.517303	0.000137	-0.428643
C200	C	-0.017303	0.500137	0.071357
C201	C	-0.518257	-0.000055	-0.331965
C202	C	-0.018257	0.499945	0.168035
C203	C	-0.571855	-0.000058	-0.309242
C204	C	-0.071855	0.499942	0.190758
C205	C	-0.597904	-0.048518	-0.350668
C206	C	-0.097904	0.451482	0.149332
C207	C	-0.596576	-0.048559	-0.447286
C208	C	-0.096576	0.451441	0.052714
C209	C	-0.597707	0.047941	-0.447657
C210	C	-0.097707	0.547941	0.052343
C211	C	-0.597695	0.048581	-0.350711
C212	C	-0.097695	0.548581	0.149289
C213	C	-0.572818	-0.000059	-0.214558
C214	C	-0.072818	0.499941	0.285442
C215	C	-0.569195	-0.000061	-0.571465
C216	C	-0.069195	0.499939	-0.071465
C217	C	-0.567477	-0.000060	0.260118
C218	C	-0.067477	0.499940	0.760118
C219	C	-0.568430	-0.000060	0.353056
C220	C	-0.068430	0.499940	0.853056
H221	H	-0.192409	0.130122	0.109113
H222	H	0.307591	0.630122	0.609113
Br223	Br	-0.460650	-0.482935	0.299497
Br224	Br	0.039350	0.017065	0.799497
Br225	Br	-0.493482	-0.111307	0.242151
Br226	Br	0.006518	0.388693	0.742151
Br227	Br	-0.493495	-0.237214	0.242166
Br228	Br	0.006505	0.262786	0.742166
Br229	Br	-0.054756	-0.155368	0.106705
Br230	Br	0.445244	0.344632	0.606705
Br231	Br	-0.484126	0.057845	-0.284133
Br232	Br	0.015874	0.557845	0.215867
Br233	Br	-0.566218	0.108343	-0.304336
Br234	Br	-0.066218	0.608343	0.195664
H235	H	-0.636782	0.051504	-0.335869
H236	H	-0.136782	0.551504	0.164131
H237	H	-0.332837	0.083875	0.111645
H238	H	0.167163	0.583875	0.611645
Br239	Br	-0.482124	-0.057279	-0.461232
Br240	Br	0.017876	0.442721	0.038768
H241	H	-0.478484	-0.371528	0.268352
H242	H	0.021516	0.128472	0.768352
Br243	Br	-0.648521	-0.762903	-0.028182
Br244	Br	-0.148521	-0.262903	0.471818
H245	H	-0.635380	-0.050760	-0.480050
H246	H	-0.135380	0.449240	0.019950
Br247	Br	-0.648442	-0.111260	-0.028175
Br248	Br	-0.148442	0.388740	0.471825
Br249	Br	-0.648449	-0.237148	-0.028194
Br250	Br	-0.148449	0.262852	0.471806
Br251	Br	0.296001	-0.109119	0.100507
Br252	Br	0.796001	0.390881	0.600507
H253	H	-0.663498	-0.531709	-0.054418
H254	H	-0.163498	-0.031709	0.445582
H255	H	-0.580442	0.084670	-0.467966
H256	H	-0.080442	0.584670	0.032034
Br257	Br	-0.438006	0.108989	0.113495
Br258	Br	0.061994	0.608989	0.613495
Br259	Br	0.064082	-0.155365	0.104597
Br260	Br	0.564082	0.344635	0.604597
Br261	Br	-0.567703	-0.108622	-0.302967
Br262	Br	-0.067703	0.391378	0.197033
H263	H	-0.636676	0.048264	-0.479936
H264	H	-0.136676	0.548264	0.020064
Br265	Br	-0.648531	-0.888808	-0.028179
Br266	Br	-0.148531	-0.388808	0.471821
Br267	Br	0.063984	0.155221	0.104595
Br268	Br	0.563984	0.655221	0.604595
H269	H	-0.663480	-0.371465	-0.054401
H270	H	-0.163480	0.128535	0.445599
Br271	Br	-0.681337	-0.482847	-0.085533
Br272	Br	-0.181337	0.017153	0.414467
H273	H	-0.497613	-0.034848	-0.303827
H274	H	0.002387	0.465152	0.196173
Br275	Br	-0.437939	-0.109087	0.113511
Br276	Br	0.062061	0.390913	0.613511
H277	H	-0.637280	-0.050323	-0.337066
H278	H	-0.137280	0.449677	0.162934
H279	H	-0.663505	-0.628604	-0.054420
H280	H	-0.163505	-0.128604	0.445580
Br281	Br	-0.564866	-0.108930	-0.477373
Br282	Br	-0.064866	0.391070	0.022627
H283	H	-0.496192	0.034889	-0.446893
H284	H	0.003808	0.534889	0.053107
Br285	Br	0.295930	0.108958	0.100526
Br286	Br	0.795930	0.608958	0.600526
H287	H	0.190794	0.083850	0.102362
H288	H	0.690794	0.583850	0.602362
H289	H	-0.332804	-0.083984	0.111634
H290	H	0.167196	0.416016	0.611634
Br291	Br	0.177158	-0.109121	0.102618
Br292	Br	0.677158	0.390879	0.602618
H293	H	-0.100873	-0.130250	0.107518
H294	H	0.399127	0.369750	0.607518
Br295	Br	-0.206002	-0.155361	0.109386
Br296	Br	0.293998	0.344639	0.609386
H297	H	-0.100951	0.130121	0.107499
H298	H	0.399049	0.630121	0.607499
Br299	Br	-0.054839	0.155226	0.106696
Br300	Br	0.445161	0.655226	0.606696
H301	H	-0.511422	-0.874360	0.211029
H302	H	-0.011422	-0.374360	0.711029
Br303	Br	-0.493551	-0.762977	0.242156
Br304	Br	0.006449	-0.262977	0.742156
H305	H	-0.478515	-0.628667	0.268365
H306	H	0.021485	-0.128667	0.768365
H307	H	-0.478501	-0.531776	0.268360
H308	H	0.021499	-0.031776	0.768360
