data_functionalizedCrystal
_audit_creation_method	'MofGen! by Chris Wilmer'
_symmetry_space_group_name_H-M	'P1'
_symmetry_Int_Tables_number	1
_symmetry_cell_setting	triclinic
loop_
_symmetry_equiv_pos_as_xyz
  x,y,z
_cell_length_a	16.992694
_cell_length_b	10.540539
_cell_length_c	16.053802
_cell_angle_alpha	92.593658
_cell_angle_beta	87.249047
_cell_angle_gamma	87.596857
loop_
_atom_site_label
_atom_site_type_symbol
_atom_site_fract_x
_atom_site_fract_y
_atom_site_fract_z
O1	O	1.045174	0.264306	-0.069318
O2	O	0.816873	0.261349	-0.069343
O3	O	0.936232	0.078573	-0.069329
O4	O	0.925815	0.447082	-0.069332
O5	O	0.929662	0.088589	0.069529
O6	O	0.810303	0.271366	0.069516
O7	O	1.038604	0.274322	0.069540
Zn8	Zn	0.923410	0.274434	0.091575
Zn9	Zn	0.932067	0.261237	-0.091377
O10	O	0.919245	0.457098	0.069526
C11	C	0.784355	0.262556	0.000083
C12	C	0.697247	0.251215	0.000074
C13	C	0.647620	0.360635	0.000073
C14	C	0.565773	0.349973	0.000085
C15	C	0.533555	0.229889	0.000091
C16	C	0.583189	0.120461	0.000094
C17	C	0.665034	0.131125	0.000088
C18	C	0.289709	0.185691	0.000114
C19	C	0.207858	0.175036	0.000117
C20	C	0.190447	0.404549	0.000110
C21	C	0.272294	0.415202	0.000099
C22	C	0.321921	0.305774	0.000106
N23	N	0.449895	0.218988	0.000100
N24	N	0.405579	0.316677	0.000103
C25	C	0.932166	0.036210	0.000099
C26	C	0.929829	-0.104941	0.000094
C27	C	0.840283	-0.296162	-0.000227
C28	C	0.842638	-0.149316	0.000086
C29	C	0.968037	-0.157237	0.079393
C30	C	0.965058	-0.304035	0.079460
C31	C	0.974303	-0.315790	-0.078448
C32	C	0.975156	-0.168814	-0.079496
C33	C	1.071123	0.273115	0.000112
C34	C	1.158230	0.284456	0.000117
C35	C	0.923311	0.499461	0.000097
C36	C	0.925649	0.640612	0.000096
N37	N	0.917508	0.283440	0.216434
N38	N	0.937975	0.252222	-0.216237
C39	C	0.968315	0.205700	0.260134
C40	C	0.964193	0.212013	0.347540
C41	C	0.909269	0.296073	0.391245
C42	C	0.858458	0.373817	0.347539
C43	C	0.862576	0.367497	0.260134
C44	C	0.891281	0.323645	0.652653
C45	C	0.887169	0.329962	0.740063
C46	C	0.992904	0.168156	0.740059
C47	C	0.997020	0.161848	0.652652
C48	C	0.946206	0.239587	0.608954
N49	N	0.905057	0.302531	0.480588
N50	N	0.950415	0.233122	0.519612
H51	H	0.150032	0.493638	0.000105
H52	H	0.936097	-0.112911	0.138399
H53	H	0.842440	0.398419	0.775644
H54	H	1.005563	0.148710	0.383120
C55	C	1.048790	0.082638	0.788134
N56	N	1.090882	0.018218	0.824344
H57	H	1.031928	-0.129114	0.082349
H58	H	1.027595	-0.346303	0.083064
C59	C	1.057437	0.069369	0.604583
N60	N	1.102944	-0.000288	0.568378
H61	H	0.931243	-0.330650	0.138731
C62	C	0.940019	-0.367575	-0.159645
N63	N	0.914187	-0.406578	-0.220799
C64	C	0.798033	0.466272	0.395618
N65	N	0.752519	0.535910	0.431830
C66	C	0.790335	-0.335440	0.076175
N67	N	0.752720	-0.365012	0.133729
C68	C	0.172422	0.042928	0.000123
N69	N	0.145731	-0.056570	0.000125
C70	C	1.028736	0.113226	0.212067
N71	N	1.074244	0.043567	0.175865
C72	C	0.794085	-0.091250	0.077002
N73	N	0.757513	-0.047515	0.134939
H74	H	0.330106	0.096587	0.000120
H75	H	1.037306	-0.357589	-0.078974
H76	H	0.821203	0.430799	0.224555
C77	C	0.937468	-0.122856	-0.158751
N78	N	0.909075	-0.088244	-0.218445
C79	C	0.719625	0.010754	0.000086
N80	N	0.760742	-0.079914	0.000086
C81	C	0.683050	0.492738	0.000068
N82	N	0.709734	0.592242	0.000068
H83	H	0.525369	0.439075	0.000084
C84	C	1.061344	-0.129116	-0.085953
N85	N	1.126265	-0.099220	-0.090809
C86	C	0.307726	0.547304	0.000106
N87	N	0.334413	0.646806	0.000113
H88	H	0.556951	0.022687	0.000111
C89	C	0.801661	-0.101167	-0.076706
N90	N	0.770791	-0.064906	-0.134546
C91	C	0.835486	0.409335	0.604596
N92	N	0.793495	0.473944	0.568397
H93	H	0.808532	-0.331853	-0.057095
