data_functionalizedCrystal
_audit_creation_method	'MofGen! by Chris Wilmer'
_symmetry_space_group_name_H-M	'P1'
_symmetry_Int_Tables_number	1
_symmetry_cell_setting	triclinic
loop_
_symmetry_equiv_pos_as_xyz
  x,y,z
_cell_length_a	9.065218
_cell_length_b	17.699104
_cell_length_c	7.540329
_cell_angle_alpha	89.995477
_cell_angle_beta	89.996962
_cell_angle_gamma	84.153701
loop_
_atom_site_label
_atom_site_type_symbol
_atom_site_fract_x
_atom_site_fract_y
_atom_site_fract_z
O1	O	1.957126	0.110972	-0.147491
O2	O	1.527573	0.120074	-0.147494
O3	O	1.754469	0.005429	-0.147477
O4	O	1.730229	0.225617	-0.147509
O5	O	1.754456	0.005428	0.147488
O6	O	1.527559	0.120073	0.147471
O7	O	1.957112	0.110970	0.147474
Cu8	Cu	1.742335	0.115521	0.174405
Cu9	Cu	1.742350	0.115523	-0.174426
O10	O	1.730216	0.225615	0.147456
C11	C	1.472605	0.119199	-0.000012
C12	C	1.308839	0.116583	-0.000013
C13	C	1.753589	-0.022775	0.000006
C14	C	1.750967	-0.106813	0.000007
C15	C	1.869367	-0.630760	-0.000043
C16	C	1.871822	-0.551797	-0.000027
C17	C	1.738625	-0.504218	-0.000024
C18	C	1.602965	-0.535606	-0.000019
C19	C	1.600512	-0.614568	-0.000022
C20	C	1.612853	-0.217163	-0.000004
C21	C	1.615316	-0.138197	-0.000006
C22	C	1.884163	-0.154393	-0.000009
C23	C	1.881710	-0.233354	-0.000012
C24	C	1.746051	-0.264735	0.000002
C25	C	1.743391	-0.350356	-0.000011
C26	C	1.741283	-0.418599	-0.000023
C27	C	2.012080	0.111846	-0.000013
C28	C	2.175846	0.114462	-0.000024
C29	C	1.731096	0.253819	-0.000030
C30	C	1.733718	0.337857	-0.000043
N31	N	1.742334	0.115520	0.419753
N32	N	1.742363	0.115519	-0.419774
H33	H	1.977832	-0.669494	-0.000060
C34	C	2.114080	-0.143874	-0.151655
C35	C	2.033284	-0.119895	-0.000013
H36	H	2.206133	-0.122573	-0.151665
H37	H	2.131676	-0.197702	-0.151647
H38	H	2.059230	-0.127596	-0.254497
H39	H	2.088130	-0.136177	0.102829
H40	H	2.015692	-0.066055	-0.000005
H41	H	1.490052	-0.640118	-0.000007
C42	C	1.374568	-0.497493	-0.151648
C43	C	1.456549	-0.483310	-0.000020
H44	H	1.284172	-0.465211	-0.151644
H45	H	1.430209	-0.487873	-0.254488
H46	H	1.353704	-0.549013	-0.151625
H47	H	1.477422	-0.431791	-0.000049
H48	H	1.400896	-0.492924	0.102847
C49	C	2.137324	-0.575738	-0.000047
C50	C	2.020932	-0.517302	-0.000029
H51	H	2.229381	-0.554440	-0.000055
H52	H	2.130772	-0.606204	0.102801
H53	H	2.130766	-0.606192	-0.102922
H54	H	2.027484	-0.486850	0.102853
H55	H	2.027488	-0.486823	-0.102888
H56	H	1.990173	-0.272090	-0.000024
C57	C	1.347353	-0.193211	-0.000013
C58	C	1.463739	-0.251650	-0.000003
H59	H	1.255293	-0.214506	-0.000024
H60	H	1.353901	-0.162755	0.102839
H61	H	1.353922	-0.162748	-0.102883
H62	H	1.457176	-0.282111	0.102874
H63	H	1.457187	-0.282120	-0.102867
H64	H	1.506844	-0.099459	0.000001
