data_functionalizedCrystal
_audit_creation_method	'MofGen! by Chris Wilmer'
_symmetry_space_group_name_H-M	'P1'
_symmetry_Int_Tables_number	1
_symmetry_cell_setting	triclinic
loop_
_symmetry_equiv_pos_as_xyz
  x,y,z
_cell_length_a	10.654550
_cell_length_b	17.699083
_cell_length_c	9.130313
_cell_angle_alpha	89.997869
_cell_angle_beta	89.996220
_cell_angle_gamma	83.883958
loop_
_atom_site_label
_atom_site_type_symbol
_atom_site_fract_x
_atom_site_fract_y
_atom_site_fract_z
O1	O	1.665973	0.106299	-0.121923
O2	O	1.300318	0.116427	-0.121900
O3	O	1.493476	0.001240	-0.121899
O4	O	1.472815	0.221487	-0.121924
O5	O	1.493474	0.001243	0.121700
O6	O	1.300315	0.116430	0.121699
O7	O	1.665971	0.106302	0.121676
Cu8	Cu	1.483143	0.111366	0.143930
Cu9	Cu	1.483146	0.111363	-0.144154
O10	O	1.472812	0.221490	0.121675
C11	C	1.253531	0.115685	-0.000097
C12	C	1.114127	0.113460	-0.000088
C13	C	1.033454	0.181281	-0.000117
C14	C	0.902470	0.179185	-0.000142
C15	C	0.932845	0.041443	-0.000115
C16	C	1.063826	0.043539	-0.000080
C17	C	1.015917	0.260805	-0.000139
C18	C	0.884933	0.258710	-0.000164
C19	C	1.492735	-0.026961	-0.000099
C20	C	1.490514	-0.110993	-0.000099
C21	C	1.603894	-0.158893	-0.000104
C22	C	1.601799	-0.237850	-0.000117
C23	C	1.486324	-0.268905	-0.000114
C24	C	1.372935	-0.220998	-0.000113
C25	C	1.375031	-0.142043	-0.000111
C26	C	1.364481	-0.539415	-0.000124
C27	C	1.362394	-0.618376	-0.000122
C28	C	1.591249	-0.635222	-0.000130
C29	C	1.593345	-0.556266	-0.000128
C30	C	1.479957	-0.508367	-0.000135
C31	C	1.482229	-0.422753	-0.000124
C32	C	1.484050	-0.354517	-0.000114
C33	C	1.712757	0.107044	-0.000130
C34	C	1.852161	0.109269	-0.000149
C35	C	1.473554	0.249690	-0.000128
C36	C	1.475775	0.333722	-0.000138
N37	N	1.483150	0.111369	0.346553
N38	N	1.483149	0.111355	-0.346777
C39	C	1.568702	0.060381	0.423205
C40	C	1.568699	0.060372	0.576542
C41	C	1.397587	0.162345	0.576561
C42	C	1.397585	0.162349	0.423226
C43	C	1.667496	0.001510	0.423195
C44	C	1.667493	0.001501	0.576532
H45	H	0.842677	0.288672	-0.102121
H46	H	1.683575	-0.674231	-0.000132
H47	H	0.891873	-0.015484	-0.000131
H48	H	1.697927	-0.133615	-0.000097
H49	H	1.694125	-0.276847	-0.000118
H50	H	1.637942	-0.053472	0.624087
O51	O	1.142138	-0.022363	-0.000296
C52	C	1.208150	-0.139483	-0.126392
C53	C	1.119413	-0.064866	-0.126350
H54	H	1.189790	-0.173875	-0.228280
H55	H	1.310434	-0.126024	-0.126458
H56	H	1.189860	-0.173814	-0.024393
H57	H	1.137589	-0.030498	-0.228331
H58	H	1.017158	-0.078378	-0.126207
H59	H	1.044703	0.291908	0.101809
H60	H	1.051130	0.286125	-0.105313
H61	H	1.763777	0.014469	0.618141
H62	H	1.687377	-0.530986	-0.000123
O63	O	0.830128	0.287437	0.125355
C64	C	0.861342	0.343461	0.361335
C65	C	0.923569	0.310968	0.219250
H66	H	0.936863	0.362480	0.437301
H67	H	0.789972	0.394141	0.334014
H68	H	0.811118	0.297761	0.417921
H69	H	0.973860	0.356613	0.162594
H70	H	0.994870	0.260271	0.246666
H71	H	1.278912	-0.246289	-0.000120
H72	H	1.647071	-0.056663	0.381583
O73	O	1.254224	-0.493001	-0.000047
C74	C	1.027002	-0.484632	-0.000100
C75	C	1.151779	-0.537287	-0.000161
H76	H	0.944143	-0.520415	-0.000224
H77	H	1.022175	-0.447264	0.101872
H78	H	1.022320	-0.447226	-0.102020
H79	H	1.156545	-0.574740	0.101689
H80	H	1.156554	-0.574603	-0.102201
H81	H	1.282705	-0.103043	-0.000107
H82	H	1.268354	-0.643658	-0.000117
O83	O	1.314424	0.211946	0.348993
C84	C	1.144637	0.313047	0.365199
C85	C	1.238774	0.256931	0.449450
H86	H	1.083432	0.349421	0.446382
H87	H	1.198655	0.351221	0.293447
H88	H	1.082073	0.279999	0.293378
H89	H	1.301362	0.289916	0.521351
H90	H	1.184679	0.218757	0.521110
O91	O	1.775991	0.023481	0.366677
C92	C	1.979793	0.064870	0.417549
C93	C	1.857001	0.039982	0.481752
H94	H	2.045312	0.078234	0.510555
H95	H	2.028321	0.017118	0.347319
H96	H	1.956605	0.117740	0.347223
H97	H	1.880080	-0.012870	0.552143
H98	H	1.808507	0.087780	0.551898
H99	H	1.327922	0.203851	0.639005
