data_functionalizedCrystal
_audit_creation_method	'MofGen! by Chris Wilmer'
_symmetry_space_group_name_H-M	'P1'
_symmetry_Int_Tables_number	1
_symmetry_cell_setting	triclinic
loop_
_symmetry_equiv_pos_as_xyz
  x,y,z
_cell_length_a	10.723024
_cell_length_b	8.559649
_cell_length_c	7.681187
_cell_angle_alpha	94.913731
_cell_angle_beta	95.795927
_cell_angle_gamma	102.876733
loop_
_atom_site_label
_atom_site_type_symbol
_atom_site_fract_x
_atom_site_fract_y
_atom_site_fract_z
O1	O	0.029038	2.104699	-0.146429
O2	O	-0.035338	1.640201	-0.146431
O3	O	0.179525	1.883165	-0.146428
O4	O	-0.185825	1.861735	-0.146433
O5	O	0.206029	1.913075	0.146443
O6	O	-0.008833	1.670111	0.146440
O7	O	0.055542	2.134610	0.146442
Zn8	Zn	0.027563	1.907109	0.192940
Zn9	Zn	-0.007358	1.867701	-0.192930
O10	O	-0.159320	1.891646	0.146438
C11	C	-0.026964	1.595680	0.000004
C12	C	-0.041486	1.418459	0.000003
C13	C	-0.218912	1.878250	0.000002
C14	C	-0.356989	1.882915	-0.000000
C15	C	-0.445909	1.746966	-0.000002
C16	C	-0.588619	1.751784	-0.000004
C17	C	0.239117	1.896560	0.000005
C18	C	0.377192	1.891894	-0.000005
C19	C	0.047168	2.179131	0.000003
C20	C	0.061689	2.356350	-0.000008
N21	N	-0.031182	1.840807	-0.456276
N22	N	0.051397	1.934016	0.456286
H23	H	-0.664982	1.635402	0.000006
O24	O	-0.531741	2.030828	0.000306
C25	C	-0.428919	2.293240	0.151973
C26	C	-0.532089	2.135968	0.151863
H27	H	-0.429184	2.378302	0.274475
H28	H	-0.330011	2.264720	0.152089
H29	H	-0.451246	2.353173	0.029349
H30	H	-0.509883	2.075957	0.274467
H31	H	-0.630965	2.164591	0.151656
O32	O	0.180334	1.454562	-0.000308
C33	C	0.368018	1.520661	-0.151974
C34	C	0.233663	1.409348	-0.151873
H35	H	0.411186	1.484125	-0.274482
H36	H	0.359059	1.650890	-0.152070
H37	H	0.433317	1.509304	-0.029356
H38	H	0.168292	1.420564	-0.274470
H39	H	0.242723	1.279164	-0.151685
H40	H	-0.416387	1.627006	-0.000012
O41	O	-0.392375	2.025911	-0.000237
C42	C	-0.519316	2.183751	-0.152026
C43	C	-0.479378	2.021714	-0.151955
H44	H	-0.589642	2.180423	-0.274695
H45	H	-0.567640	2.205498	-0.029547
H46	H	-0.430145	2.285344	-0.151938
H47	H	-0.568483	1.920021	-0.152106
H48	H	-0.431007	2.000107	-0.274424
H49	H	-0.115446	1.745688	-0.531514
H50	H	-0.140930	1.336050	-0.000016
H51	H	0.135659	2.029153	-0.468467
