data_functionalizedCrystal
_audit_creation_method	'MofGen! by Chris Wilmer'
_symmetry_space_group_name_H-M	'P1'
_symmetry_Int_Tables_number	1
_symmetry_cell_setting	triclinic
loop_
_symmetry_equiv_pos_as_xyz
  x,y,z
_cell_length_a	10.654545
_cell_length_b	14.853569
_cell_length_c	9.130313
_cell_angle_alpha	89.994310
_cell_angle_beta	89.996934
_cell_angle_gamma	84.059322
loop_
_atom_site_label
_atom_site_type_symbol
_atom_site_fract_x
_atom_site_fract_y
_atom_site_fract_z
O1	O	1.666528	0.126607	-0.121789
O2	O	1.300924	0.138675	-0.121796
O3	O	1.493491	0.001463	-0.121778
O4	O	1.473961	0.263818	-0.121806
O5	O	1.493478	0.001459	0.121821
O6	O	1.300911	0.138671	0.121803
O7	O	1.666515	0.126603	0.121810
Cu8	Cu	1.483712	0.132636	0.144049
Cu9	Cu	1.483727	0.132641	-0.144035
O10	O	1.473948	0.263814	0.121792
C11	C	1.254128	0.137788	0.000003
C12	C	1.114712	0.135139	0.000001
C13	C	1.049214	0.133890	0.132788
C14	C	0.918220	0.131386	0.132788
C15	C	0.918235	0.131385	-0.132797
C16	C	1.049227	0.133882	-0.132795
C17	C	1.492599	-0.032132	0.000022
C18	C	1.489946	-0.132230	0.000023
C19	C	1.374313	-0.169224	0.000024
C20	C	1.603088	-0.189292	0.000012
C21	C	1.600599	-0.283339	0.000006
C22	C	1.484966	-0.320333	0.000006
C23	C	1.371821	-0.263280	0.000013
C24	C	1.713742	-0.340399	-0.000016
C25	C	1.711258	-0.434453	-0.000024
C26	C	1.595623	-0.471449	-0.000013
C27	C	1.482473	-0.414389	-0.000005
C28	C	1.366840	-0.451384	-0.000004
C29	C	1.253689	-0.394326	0.000015
C30	C	1.256185	-0.300276	0.000024
C31	C	1.593126	-0.565498	-0.000022
C32	C	1.364348	-0.545439	-0.000015
C33	C	1.713311	0.127490	0.000008
C34	C	1.852727	0.130138	0.000000
C35	C	1.474840	0.297410	-0.000011
C36	C	1.477493	0.397507	-0.000022
N37	N	1.483710	0.132632	0.346672
N38	N	1.483739	0.132638	-0.346657
C39	C	1.569007	0.071901	0.423331
C40	C	1.569019	0.071901	0.576668
C41	C	1.398433	0.193372	0.576672
C42	C	1.398416	0.193367	0.423338
H43	H	1.102558	0.134896	-0.240933
Cl44	Cl	1.676252	-0.004452	0.673036
Cl45	Cl	1.291215	0.269724	0.673060
H46	H	1.102528	0.134914	0.240919
H47	H	1.807885	-0.310271	0.000074
H48	H	0.864897	0.130370	0.240916
H49	H	1.270184	-0.575552	-0.000001
Cl50	Cl	1.291171	0.269717	0.326957
H51	H	0.864901	0.130362	-0.240915
Cl52	Cl	1.108327	-0.440844	-0.000002
H53	H	1.164064	-0.253812	0.000036
H54	H	1.803393	-0.480902	-0.000037
H55	H	1.697232	-0.159165	0.000040
Cl56	Cl	1.232073	-0.097499	0.000052
H57	H	1.685252	-0.611950	-0.000052
Cl58	Cl	1.676230	-0.004455	0.326957
