data_functionalizedCrystal
_audit_creation_method	'MofGen! by Chris Wilmer'
_symmetry_space_group_name_H-M	'P1'
_symmetry_Int_Tables_number	1
_symmetry_cell_setting	triclinic
loop_
_symmetry_equiv_pos_as_xyz
  x,y,z
_cell_length_a	12.811434
_cell_length_b	16.109301
_cell_length_c	15.186229
_cell_angle_alpha	89.999362
_cell_angle_beta	84.569910
_cell_angle_gamma	96.247067
loop_
_atom_site_label
_atom_site_type_symbol
_atom_site_fract_x
_atom_site_fract_y
_atom_site_fract_z
O1	O	0.134911	-1.103624	0.062395
O2	O	0.151701	-0.861624	0.061068
O3	O	-0.009488	-0.988715	0.073932
O4	O	0.296099	-0.976534	0.049531
O5	O	-0.009490	-0.988706	-0.072525
O6	O	0.151698	-0.861615	-0.085389
O7	O	0.134909	-1.103616	-0.084062
Zn8	Zn	0.143303	-0.982614	-0.107979
Zn9	Zn	0.143306	-0.982625	0.084985
O10	O	0.296097	-0.976525	-0.096926
C11	C	0.151020	-0.830642	-0.012105
C12	C	0.148981	-0.738339	-0.011937
N13	N	0.143301	-0.982613	-0.239671
C14	C	-0.048592	-0.988029	0.003827
C15	C	-0.165109	-0.985987	0.013137
C16	C	-0.329332	-0.983110	0.106079
C17	C	-0.219855	-0.985032	0.097341
C18	C	-0.219849	-0.985023	-0.062335
C19	C	-0.329326	-0.983102	-0.053598
C20	C	-0.384063	-0.982144	0.030612
C21	C	-0.493542	-0.980217	0.039349
C22	C	-0.493535	-0.980214	-0.120327
C23	C	-0.384057	-0.982135	-0.129064
C24	C	0.335202	-0.977211	-0.026820
C25	C	0.451719	-0.979253	-0.036123
C26	C	0.135590	-1.134597	-0.010888
C27	C	0.137629	-1.226900	-0.011050
C28	C	0.239885	-0.516400	-0.019205
C29	C	0.237961	-0.429672	-0.019057
C30	C	0.046717	-0.448847	-0.003783
C31	C	0.048642	-0.535572	-0.003938
C32	C	0.145229	-0.569346	-0.011644
C33	C	0.141380	-0.395893	-0.011342
C34	C	0.139293	-0.301860	-0.011182
C35	C	0.147317	-0.663386	-0.011807
C36	C	0.071951	-1.038908	-0.459700
C37	C	0.071948	-1.038910	-0.551889
C38	C	0.214654	-0.926332	-0.563287
C39	C	0.214651	-0.926326	-0.471099
C40	C	0.143300	-0.982619	-0.419308
C41	C	0.143301	-0.982627	-0.603686
C42	C	0.143299	-0.982630	-0.703642
C43	C	0.143301	-0.982616	-0.319345
N44	N	0.143301	-0.982634	0.216678
H45	H	-0.538106	-0.979431	0.107917
C46	C	-0.006545	-1.100824	-0.402732
N47	N	-0.065675	-1.147459	-0.359826
C48	C	-0.006551	-1.100826	-0.596315
N49	N	-0.065684	-1.147461	-0.629776
H50	H	0.318533	-0.543895	-0.025487
H51	H	0.272748	-0.880502	-0.605465
C52	C	0.293193	-0.864439	-0.426669
N53	N	0.352364	-0.817840	-0.393206
H54	H	-0.373898	-0.982318	0.174645
H55	H	-0.175264	-0.985812	-0.130895
C56	C	-0.159653	-0.986092	0.180361
N57	N	-0.114310	-0.986890	0.242895
H58	H	-0.031921	-0.421337	0.002486
C59	C	-0.323833	-0.983182	-0.221690
N60	N	-0.278471	-0.983965	-0.291458
H61	H	-0.538108	-0.979421	-0.181777
H62	H	0.315040	-0.386566	-0.025216
C63	C	-0.055492	-0.593818	0.004380
N64	N	-0.133923	-0.637688	0.010643
