data_functionalizedCrystal
_audit_creation_method	'MofGen! by Chris Wilmer'
_symmetry_space_group_name_H-M	'P1'
_symmetry_Int_Tables_number	1
_symmetry_cell_setting	triclinic
loop_
_symmetry_equiv_pos_as_xyz
  x,y,z
_cell_length_a	9.065215
_cell_length_b	17.038272
_cell_length_c	7.540329
_cell_angle_alpha	90.003911
_cell_angle_beta	90.002426
_cell_angle_gamma	88.063127
loop_
_atom_site_label
_atom_site_type_symbol
_atom_site_fract_x
_atom_site_fract_y
_atom_site_fract_z
O1	O	1.971910	0.114731	0.147464
O2	O	1.543569	0.124145	0.147472
O3	O	1.755194	0.005604	0.147454
O4	O	1.760285	0.233272	0.147482
O5	O	1.755180	0.005603	-0.147511
O6	O	1.543555	0.124143	-0.147493
O7	O	1.971896	0.114729	-0.147501
Cu8	Cu	1.757724	0.119436	-0.174429
Cu9	Cu	1.757741	0.119438	0.174401
O10	O	1.760271	0.233270	-0.147483
C11	C	1.488485	0.123240	-0.000009
C12	C	1.324370	0.120536	-0.000006
C13	C	1.750556	-0.023558	-0.000028
C14	C	1.736740	-0.110451	-0.000027
C15	C	1.863588	-0.159650	-0.000031
C16	C	1.850597	-0.241294	-0.000014
C17	C	1.710758	-0.273738	-0.000006
C18	C	1.583900	-0.224532	0.000004
C19	C	1.596892	-0.142890	-0.000000
C20	C	1.664860	-0.519827	0.000019
C21	C	1.651877	-0.601476	0.000019
C22	C	1.918576	-0.618232	0.000004
C23	C	1.931556	-0.536587	-0.000011
C24	C	1.804698	-0.487389	0.000007
C25	C	1.697476	-0.357191	0.000006
C26	C	1.817981	-0.403937	0.000008
C27	C	2.026980	0.115634	-0.000015
C28	C	2.191095	0.118338	-0.000006
C29	C	1.764909	0.262433	0.000003
C30	C	1.778725	0.349325	0.000014
N31	N	1.757724	0.119435	-0.419778
N32	N	1.757752	0.119434	0.419749
H33	H	1.977460	-0.133241	-0.000049
Br34	Br	2.121345	-0.492562	0.000034
Br35	Br	2.090730	-0.685004	-0.000022
Br36	Br	2.022757	-0.308062	-0.000020
H37	H	1.537997	-0.627888	-0.000003
H38	H	1.470039	-0.250954	0.000022
H39	H	1.561562	-0.479779	0.000034
H40	H	1.493598	-0.102832	0.000003
Br41	Br	1.507697	-0.401229	0.000035
H42	H	1.931838	-0.377518	0.000040
