data_functionalizedCrystal
_audit_creation_method	'MofGen! by Chris Wilmer'
_symmetry_space_group_name_H-M	'P1'
_symmetry_Int_Tables_number	1
_symmetry_cell_setting	triclinic
loop_
_symmetry_equiv_pos_as_xyz
  x,y,z
_cell_length_a	35.277640
_cell_length_b	35.282854
_cell_length_c	35.277682
_cell_angle_alpha	89.993894
_cell_angle_beta	120.001489
_cell_angle_gamma	60.014654
loop_
_atom_site_label
_atom_site_type_symbol
_atom_site_fract_x
_atom_site_fract_y
_atom_site_fract_z
O1	O	0.271410	0.322992	0.011277
O2	O	0.193771	0.267885	-0.011223
O3	O	0.271393	0.267883	0.066398
O4	O	0.193789	0.322994	-0.066344
O5	O	0.334419	0.204856	0.066395
O6	O	0.256797	0.204858	-0.011226
O7	O	0.334436	0.259965	0.011274
Cu8	Cu	0.301372	0.226657	0.000024
Cu9	Cu	0.226836	0.301193	0.000027
O10	O	0.256815	0.259967	-0.066347
C11	C	0.466030	0.431891	0.034184
C12	C	0.443448	0.477497	0.034507
C13	C	0.534674	0.431891	0.034186
C14	C	0.511988	0.477497	0.034509
C15	C	0.466054	0.500512	0.034189
C16	C	0.511964	0.408980	0.034504
C17	C	0.411648	0.320739	0.021747
C18	C	0.386521	0.298988	0.018231
C19	C	0.339557	0.322436	0.016468
C20	C	0.312305	0.298858	0.012647
C21	C	0.317724	0.367635	0.018224
C22	C	0.342855	0.389380	0.021746
C23	C	0.389819	0.365930	0.023508
C24	C	0.342492	0.665992	0.021770
C25	C	0.317236	0.712855	0.018259
C26	C	0.338932	0.736365	0.016496
C27	C	0.311549	0.787176	0.012682
C28	C	0.385892	0.713006	0.018249
C29	C	0.411152	0.666144	0.021768
C30	C	0.389444	0.642640	0.023526
C31	C	0.687743	0.320737	0.021754
C32	C	0.731095	0.298988	0.018234
C33	C	0.752855	0.322436	0.016472
C34	C	0.799859	0.298858	0.012653
C35	C	0.731259	0.367633	0.018226
C36	C	0.687907	0.389380	0.021745
C37	C	0.666154	0.365926	0.023512
C38	C	0.417064	0.389514	0.027323
C39	C	0.438782	0.408311	0.030365
C40	C	0.581678	0.408310	0.030369
C41	C	0.619147	0.389513	0.027327
C42	C	0.438666	0.551324	0.030375
C43	C	0.416836	0.591826	0.027337
C44	C	0.139992	0.094810	-0.023513
C45	C	0.166591	0.044821	-0.020288
C46	C	0.162595	0.117826	-0.023837
C47	C	0.071365	0.163436	-0.023521
C48	C	0.024587	0.186822	-0.020304
C49	C	0.094072	0.186348	-0.023844
C50	C	0.140007	0.163435	-0.023521
C51	C	0.166623	0.186821	-0.020305
C52	C	0.094056	0.117827	-0.023836
C53	C	0.188126	0.205713	-0.017706
C54	C	0.188081	0.004435	-0.017682
C55	C	-0.013204	0.205715	-0.017704
C56	C	0.215103	0.229416	-0.014446
C57	C	0.215040	-0.046230	-0.014413
C58	C	-0.060615	0.229418	-0.014444
C59	C	0.061995	0.431894	-0.438500
C60	C	0.016068	0.477501	-0.461417
C61	C	0.061994	0.431895	-0.369857
C62	C	0.016068	0.477501	-0.392879
C63	C	-0.006627	0.500517	-0.438498
C64	C	0.084585	0.408983	-0.392880
C65	C	0.185577	0.320739	-0.480418
C66	C	0.210842	0.298988	-0.502023
C67	C	0.189158	0.322436	-0.547230
C68	C	0.216555	0.298857	-0.570656
C69	C	0.142205	0.367635	-0.570831
C70	C	0.116940	0.389381	-0.549227
C71	C	0.138628	0.365931	-0.504019
C72	C	-0.159679	0.665998	-0.549682
C73	C	-0.203027	0.712860	-0.571439
C74	C	-0.224772	0.736371	-0.547985
C75	C	-0.271767	0.787183	-0.571567
C76	C	-0.203168	0.713013	-0.502772
C77	C	-0.159827	0.666150	-0.481020
C78	C	-0.138083	0.642646	-0.504480
C79	C	0.185575	0.320741	-0.204328
C80	C	0.210843	0.298992	-0.157450
C81	C	0.189159	0.322441	-0.133934
C82	C	0.216555	0.298862	-0.083105
C83	C	0.142210	0.367638	-0.157296
C84	C	0.116945	0.389385	-0.204172
C85	C	0.138630	0.365931	-0.227687
C86	C	0.111230	0.389516	-0.480595
C87	C	0.089392	0.408313	-0.461924
C88	C	0.089391	0.408314	-0.319030
C89	C	0.111229	0.389517	-0.278516
C90	C	-0.053622	0.551329	-0.462085
C91	C	-0.091083	0.591831	-0.480887
O92	O	0.925461	0.204861	-0.011224
O93	O	0.815240	0.259963	0.011285
O94	O	0.815227	0.259970	-0.066340
O95	O	0.925474	0.204853	0.066401
O96	O	0.815248	0.322997	-0.066335
O97	O	0.815262	0.322989	0.011290
O98	O	0.925483	0.267887	-0.011219
Cu99	Cu	0.870374	0.301193	0.000036
Cu100	Cu	0.870348	0.226657	0.000030
O101	O	0.925496	0.267879	0.066406
O102	O	0.256737	0.936638	-0.011192
O103	O	0.334322	0.803933	0.011308
O104	O	0.256719	0.881523	-0.066313
O105	O	0.334340	0.859048	0.066429
O106	O	0.193678	0.881521	-0.066305
O107	O	0.271281	0.803931	0.011317
O108	O	0.193696	0.936636	-0.011184
Cu109	Cu	0.226732	0.870283	0.000067
Cu110	Cu	0.301286	0.870286	0.000057
O111	O	0.271299	0.859046	0.066438
O112	O	-0.397360	0.936643	-0.602549
O113	O	-0.287152	0.803940	-0.547426
O114	O	-0.287126	0.881534	-0.547422
O115	O	-0.397386	0.859049	-0.602553
O116	O	-0.287124	0.881532	-0.610468
O117	O	-0.287151	0.803938	-0.610472
O118	O	-0.397359	0.936641	-0.665595
Cu119	Cu	-0.342255	0.870290	-0.643790
Cu120	Cu	-0.342256	0.870291	-0.569231
O121	O	-0.397385	0.859047	-0.665599
O122	O	0.271393	0.267883	-0.665312
O123	O	0.193792	0.322990	-0.610186
O124	O	0.271412	0.322990	-0.610183
O125	O	0.193773	0.267883	-0.665315
O126	O	0.334439	0.259962	-0.547139
O127	O	0.256819	0.259963	-0.547141
O128	O	0.334420	0.204855	-0.602268
Cu129	Cu	0.301375	0.226654	-0.568948
Cu130	Cu	0.226838	0.301191	-0.643505
O131	O	0.256800	0.204856	-0.602270
C132	C	0.456766	0.094815	0.293251
C133	C	0.503533	0.044828	0.316641
C134	C	0.434072	0.117830	0.316171
C135	C	0.388145	0.163437	0.224611
C136	C	0.361541	0.186822	0.174609
C137	C	0.365554	0.186348	0.247634
C138	C	0.388145	0.163437	0.293254
C139	C	0.361542	0.186821	0.316646
C140	C	0.434071	0.117831	0.247632
C141	C	0.340049	0.205713	0.335544
C142	C	0.541315	0.004444	0.335537
C143	C	0.340048	0.205713	0.134213
C144	C	0.313085	0.229414	0.359253
C145	C	0.588716	-0.046220	0.359244
C146	C	0.313084	0.229414	0.083534
C147	C	1.140055	0.163411	0.293250
C148	C	1.166676	0.186794	0.316643
C149	C	1.162642	0.117803	0.316164
C150	C	1.071400	0.163418	0.224610
C151	C	1.024615	0.186807	0.174611
C152	C	1.094092	0.117809	0.247628
C153	C	1.140033	0.094789	0.293244
C154	C	1.166632	0.044801	0.316630
C155	C	1.094113	0.186327	0.247634
C156	C	1.188121	0.004415	0.335522
C157	C	1.188184	0.205684	0.335541
C158	C	0.986819	0.205703	0.134217
C159	C	1.215080	-0.046251	0.359224
C160	C	1.215166	0.229383	0.359250
C161	C	0.939401	0.229409	0.083541
C162	C	0.388091	0.846763	0.293293
C163	C	0.361486	0.849982	0.316688
C164	C	0.434031	0.846446	0.316207
C165	C	0.388085	0.846758	0.224647
C166	C	0.361473	0.849972	0.174646
C167	C	0.434025	0.846441	0.247665
C168	C	0.456729	0.846765	0.293285
C169	C	0.503511	0.849987	0.316671
C170	C	0.365491	0.846438	0.247673
C171	C	0.541305	0.852591	0.335565
C172	C	0.339990	0.852584	0.335589
C173	C	0.339973	0.852569	0.134250
C174	C	0.588721	0.855856	0.359268
C175	C	0.313024	0.855847	0.359301
C176	C	0.313000	0.855826	0.083571
C177	C	0.465974	0.500262	-0.438469
C178	C	0.443363	0.477250	-0.461388
C179	C	0.534605	0.431635	-0.369834
C180	C	0.511890	0.408727	-0.392857
C181	C	0.465948	0.431643	-0.438474
C182	C	0.511916	0.477242	-0.392852
C183	C	0.411687	0.665743	-0.480369
C184	C	0.386581	0.712606	-0.501970
C185	C	0.339610	0.736119	-0.547173
C186	C	0.312381	0.786935	-0.570593
C187	C	0.317748	0.712765	-0.570776
C188	C	0.342857	0.665903	-0.549177
C189	C	0.389829	0.642392	-0.503972
C190	C	0.342295	0.389754	-0.549658
C191	C	0.317011	0.368158	-0.571415
C192	C	0.338687	0.322965	-0.547965
C193	C	0.311273	0.299548	-0.571549
C194	C	0.385654	0.299366	-0.502756
C195	C	0.410942	0.320957	-0.481002
C196	C	0.389254	0.366156	-0.504458
C197	C	0.687729	0.389713	-0.204310
C198	C	0.731090	0.368111	-0.157434
C199	C	0.752830	0.322916	-0.133922
C200	C	0.799843	0.299492	-0.083095
C201	C	0.731204	0.299327	-0.157286
C202	C	0.687843	0.320931	-0.204160
C203	C	0.666112	0.366124	-0.227670
C204	C	0.417049	0.591579	-0.480554
C205	C	0.438749	0.551076	-0.461887
C206	C	0.581618	0.408213	-0.319009
C207	C	0.619094	0.389543	-0.278497
C208	C	0.438530	0.408230	-0.462061
C209	C	0.416676	0.389567	-0.480865
O210	O	1.271319	-0.196090	0.389758
O211	O	1.193727	-0.063381	0.334657
O212	O	1.271310	-0.140962	0.334629
O213	O	1.193736	-0.118509	0.389786
O214	O	1.334367	-0.140968	0.397674
O215	O	1.256784	-0.063387	0.397701
O216	O	1.334376	-0.196095	0.452802
Cu217	Cu	1.301338	-0.129742	0.431008
Cu218	Cu	1.226765	-0.129735	0.356451
O219	O	1.256793	-0.118515	0.452830
C220	C	-0.006508	0.904374	-0.438458
C221	C	0.016191	0.904694	-0.461380
C222	C	0.062136	0.904382	-0.369820
C223	C	0.084730	0.904701	-0.392846
C224	C	0.062130	0.904376	-0.438466
C225	C	0.016196	0.904699	-0.392839
C226	C	-0.159608	0.891942	-0.480358
C227	C	-0.202970	0.888426	-0.501959
C228	C	-0.224724	0.886659	-0.547166
C229	C	-0.271735	0.882838	-0.570586
C230	C	-0.203116	0.888411	-0.570771
C231	C	-0.159761	0.891933	-0.549172
C232	C	-0.138007	0.893698	-0.503963
C233	C	0.116459	0.891945	-0.549663
C234	C	0.141574	0.888432	-0.571424
C235	C	0.188543	0.886670	-0.547974
C236	C	0.215782	0.882853	-0.571561
C237	C	0.210393	0.888427	-0.502762
C238	C	0.185274	0.891949	-0.481005
C239	C	0.138305	0.893705	-0.504460
C240	C	0.116485	0.891972	-0.204287
C241	C	0.141609	0.888458	-0.157408
C242	C	0.188579	0.886698	-0.133897
C243	C	0.215824	0.882885	-0.083068
C244	C	0.210424	0.888448	-0.157264
C245	C	0.185300	0.891960	-0.204140
C246	C	0.138326	0.893726	-0.227650
C247	C	-0.090992	0.897513	-0.480544
C248	C	-0.053518	0.900556	-0.461877
C249	C	0.089377	0.900571	-0.318993
C250	C	0.111089	0.897535	-0.278479
C251	C	0.089366	0.900560	-0.462057
C252	C	0.111074	0.897519	-0.480863
H253	H	0.406485	0.495974	0.035022
H254	H	0.279506	0.731912	-0.607581
H255	H	0.078710	0.426180	-0.568447
C256	C	1.212582	0.092833	0.366795
H257	H	1.222835	0.062319	0.377203
H258	H	1.241131	0.091250	0.368560
H259	H	1.204583	0.109522	0.385860
H260	H	-0.002930	0.495974	-0.498903
H261	H	0.449387	0.647129	0.023197
H262	H	0.530948	0.371509	0.035015
C263	C	0.318809	0.640218	-0.575137
H264	H	0.287236	0.660932	-0.605149
H265	H	0.344149	0.614827	-0.578016
H266	H	0.310193	0.629055	-0.558261
H267	H	0.075077	0.223822	-0.024367
C268	C	0.315552	0.845741	0.222707
H269	H	0.305283	0.845601	0.242963
H270	H	0.287011	0.872511	0.195736
H271	H	0.323559	0.818675	0.214026
C272	C	0.410623	0.738294	-0.476006
H273	H	0.442189	0.717581	-0.445989
H274	H	0.419238	0.749465	-0.492874
H275	H	0.385275	0.763681	-0.473127
H276	H	0.670326	0.426181	0.023174
H277	H	0.453068	0.099351	0.353654
C278	C	0.318840	0.439094	0.023676
H279	H	0.287269	0.449947	0.022118
H280	H	0.344195	0.439139	0.051904
H281	H	0.310228	0.458871	-0.001813
H282	H	1.075125	0.223800	0.229155
C283	C	0.459699	0.845726	0.222699
H284	H	0.439589	0.845576	0.192177
H285	H	0.459906	0.872493	0.221114
H286	H	0.495444	0.818657	0.239404
C287	C	0.212557	0.092850	-0.024487
H288	H	0.222834	0.062326	-0.024607
H289	H	0.204591	0.109519	-0.051544
H290	H	0.241084	0.091285	0.002309
C291	C	0.134505	0.358362	-0.367912
H292	H	0.144772	0.347952	-0.388167
H293	H	0.163055	0.356590	-0.340939
H294	H	0.126479	0.339313	-0.359234
H295	H	-0.142243	0.647135	-0.444210
C296	C	0.537657	0.502462	0.035205
H297	H	0.517552	0.532977	0.035349
H298	H	0.573410	0.485770	0.062269
H299	H	0.537834	0.504050	0.008416
C300	C	0.068382	0.092866	-0.024532
H301	H	0.088486	0.062349	-0.024672
H302	H	0.068186	0.091293	0.002246
H303	H	0.032632	0.109557	-0.051607
H304	H	0.453026	0.845940	0.353688
H305	H	0.203230	0.301637	-0.223473
H306	H	0.324816	0.646857	0.023205
C307	C	0.537540	0.358106	-0.367894
H308	H	0.568210	0.347693	-0.337371
H309	H	0.512341	0.356336	-0.366311
H310	H	0.547902	0.339057	-0.384598
C311	C	0.262104	0.886489	-0.131397
H312	H	0.273942	0.884143	-0.100132
H313	H	0.289090	0.860208	-0.131941
H314	H	0.255162	0.913907	-0.146158
C315	C	-0.009461	0.905395	-0.367862
H316	H	0.010655	0.905541	-0.337339
H317	H	-0.045212	0.932450	-0.384559
H318	H	-0.009645	0.878614	-0.366270
C319	C	-0.135768	0.640143	-0.575489
H320	H	-0.154845	0.660762	-0.605531
H321	H	-0.099112	0.628970	-0.558560
H322	H	-0.138604	0.614746	-0.578302
H323	H	-0.002924	0.495978	-0.374393
H324	H	0.406397	0.495733	-0.498870
C325	C	0.463308	0.294943	0.023689
H326	H	0.475145	0.314369	0.026032
H327	H	0.490306	0.267409	0.049970
H328	H	0.456337	0.287146	-0.003746
H329	H	0.249071	0.262191	-0.138431
C330	C	0.118353	0.393433	-0.131432
H331	H	0.140119	0.374008	-0.100169
H332	H	0.117100	0.420968	-0.131966
H333	H	0.083122	0.401229	-0.146201
C334	C	0.315637	0.236971	0.222670
H335	H	0.305371	0.247381	0.192146
H336	H	0.287085	0.238746	0.221090
H337	H	0.323666	0.256017	0.239373
H338	H	0.203066	0.893382	-0.444195
C339	C	0.754836	0.249280	0.016287
H340	H	0.735670	0.238430	0.017842
H341	H	0.751997	0.249249	-0.011945
H342	H	0.791488	0.229494	0.041770
C343	C	0.410509	0.249289	0.016260
H344	H	0.388812	0.239699	0.013904
H345	H	0.411758	0.248649	-0.010028
H346	H	0.445751	0.228860	0.043686
C347	C	0.265347	0.394119	-0.621136
H348	H	0.256052	0.424130	-0.631985
H349	H	0.271024	0.377264	-0.640931
H350	H	0.237084	0.396988	-0.621162
H351	H	0.203240	0.301640	-0.443608
H352	H	0.530917	0.495723	-0.374366
H353	H	0.249070	0.262187	-0.482804
C354	C	0.459727	0.092870	0.222660
H355	H	0.490385	0.062354	0.242913
H356	H	0.434523	0.091294	0.195688
H357	H	0.470109	0.109562	0.213979
C358	C	0.117545	0.886494	-0.621150
H359	H	0.139229	0.884150	-0.630750
H360	H	0.116271	0.860222	-0.621815
H361	H	0.082309	0.913921	-0.641565
C362	C	0.266068	0.393425	0.016284
H363	H	0.254224	0.374003	0.013931
H364	H	0.273034	0.401224	0.043715
H365	H	0.239069	0.420960	-0.010001
H366	H	0.449933	0.646604	-0.443562
H367	H	1.075084	0.099333	0.229140
H368	H	0.124551	0.386722	-0.607639
C369	C	0.754874	0.394060	-0.131736
H370	H	0.735722	0.424067	-0.152452
H371	H	0.752053	0.396929	-0.106333
H372	H	0.791522	0.377193	-0.120575
C373	C	-0.135991	0.893854	-0.575133
H374	H	-0.155151	0.892292	-0.605147
H375	H	-0.138809	0.922072	-0.578009
H376	H	-0.099344	0.868372	-0.558260
C377	C	0.462599	0.295003	-0.431278
H378	H	0.474553	0.314337	-0.421683
H379	H	0.455582	0.287196	-0.410861
H380	H	0.489537	0.267466	-0.430615
H381	H	-0.220613	0.731874	-0.608250
H382	H	0.748977	0.386727	0.016790
H383	H	0.670030	0.301639	0.023188
C384	C	-0.227081	0.738871	-0.476970
H385	H	-0.255984	0.770127	-0.496397
H386	H	-0.239753	0.724114	-0.469167
H387	H	-0.200256	0.738333	-0.449427
C388	C	0.663825	0.439423	-0.230169
H389	H	0.682909	0.450380	-0.209541
H390	H	0.666644	0.439411	-0.255577
H391	H	0.627171	0.459148	-0.241339
H392	H	0.078717	0.426186	-0.223192
H393	H	0.324634	0.426554	-0.568759
H394	H	0.403308	0.262565	-0.483665
C395	C	0.664062	0.294981	-0.229860
H396	H	0.683222	0.264970	-0.209146
H397	H	0.627416	0.311843	-0.241023
H398	H	0.666887	0.292113	-0.255262
C399	C	0.755116	0.249613	-0.131426
H400	H	0.784040	0.240122	-0.100165
H401	H	0.728301	0.248887	-0.131957
H402	H	0.767769	0.229158	-0.146201
H403	H	0.121697	0.905220	-0.374364
H404	H	-0.002813	0.905207	-0.498863
H405	H	0.123826	0.887021	-0.138383
H406	H	0.078239	0.893408	-0.223426
C407	C	-0.135686	0.893890	-0.430634
H408	H	-0.154768	0.892348	-0.419672
H409	H	-0.099034	0.868416	-0.410904
H410	H	-0.138507	0.922115	-0.430652
H411	H	0.279001	0.731869	0.016829
C412	C	0.409763	0.738862	0.016313
H413	H	0.387994	0.770118	0.013964
H414	H	0.444990	0.724101	0.043743
H415	H	0.411020	0.738327	-0.009973
H416	H	-0.220559	0.886998	-0.482736
H417	H	-0.220834	0.886974	-0.607578
H418	H	0.078213	0.893379	-0.568765
H419	H	0.248634	0.886999	-0.483671
H420	H	0.203089	0.893386	-0.223163
