data_functionalizedCrystal
_audit_creation_method	'MofGen! by Chris Wilmer'
_symmetry_space_group_name_H-M	'P1'
_symmetry_Int_Tables_number	1
_symmetry_cell_setting	triclinic
loop_
_symmetry_equiv_pos_as_xyz
  x,y,z
_cell_length_a	15.995292
_cell_length_b	15.072220
_cell_length_c	14.971494
_cell_angle_alpha	89.999404
_cell_angle_beta	83.543087
_cell_angle_gamma	90.013670
loop_
_atom_site_label
_atom_site_type_symbol
_atom_site_fract_x
_atom_site_fract_y
_atom_site_fract_z
O1	O	1.111145	0.073803	0.115039
O2	O	1.611145	0.573803	0.615039
O3	O	0.867377	0.073799	0.129331
O4	O	1.367377	0.573799	0.629331
O5	O	0.995791	0.073799	-0.008023
O6	O	1.495791	0.573799	0.491977
O7	O	0.982731	0.073803	0.252394
O8	O	1.482731	0.573803	0.752394
O9	O	0.995759	-0.073766	-0.008016
O10	O	1.495759	0.426234	0.491984
O11	O	0.867346	-0.073766	0.129339
O12	O	1.367346	0.426234	0.629339
O13	O	1.111113	-0.073762	0.115047
O14	O	1.611113	0.426238	0.615047
Zn15	Zn	0.989224	-0.097193	0.122194
Zn16	Zn	1.489224	0.402807	0.622194
Zn17	Zn	0.989266	0.097230	0.122184
Zn18	Zn	1.489266	0.597230	0.622184
O19	O	0.982699	-0.073762	0.252401
O20	O	1.482699	0.426238	0.752401
C21	C	0.836165	0.000016	0.128753
C22	C	1.336165	0.500016	0.628753
C23	C	0.743211	0.000015	0.127009
C24	C	1.243211	0.500015	0.627009
C25	C	0.405466	0.000025	0.120598
C26	C	0.905466	0.500025	0.620598
C27	C	0.428880	0.000356	0.219737
C28	C	0.928880	0.500356	0.719737
C29	C	0.525557	0.000019	0.221621
C30	C	1.025557	0.500019	0.721621
C31	C	0.573025	0.000020	0.123780
C32	C	1.073025	0.500020	0.623780
C33	C	0.543854	-0.084244	0.074219
C34	C	1.043854	0.415756	0.574219
C35	C	0.447062	-0.084311	0.073026
C36	C	0.947062	0.415689	0.573026
C37	C	0.447241	0.083498	0.070993
C38	C	0.947241	0.583498	0.570993
C39	C	0.543737	0.084608	0.074666
C40	C	1.043737	0.584608	0.574666
C41	C	0.667723	0.000015	0.125572
C42	C	1.167723	0.500015	0.625572
C43	C	0.310768	0.000024	0.118803
C44	C	0.810768	0.500024	0.618803
N45	N	0.989202	-0.229882	0.122200
N46	N	1.489202	0.270118	0.622200
C47	C	0.989264	-0.589083	0.122180
C48	C	1.489264	-0.089083	0.622180
C49	C	0.920322	-0.551477	0.195430
C50	C	1.420322	-0.051477	0.695430
C51	C	0.920480	-0.448651	0.195697
C52	C	1.420480	0.051349	0.695697
C53	C	0.989233	-0.410879	0.122190
C54	C	1.489233	0.089121	0.622190
C55	C	1.076621	-0.448169	0.142555
C56	C	1.576621	0.051831	0.642555
C57	C	1.076234	-0.551027	0.143076
C58	C	1.576234	-0.051027	0.643076
C59	C	0.971598	-0.551185	0.028349
C60	C	1.471598	-0.051185	0.528349
C61	C	0.969594	-0.448322	0.028976
C62	C	1.469594	0.051678	0.528976
C63	C	0.989220	-0.310166	0.122194
C64	C	1.489220	0.189834	0.622194
C65	C	0.989283	-0.689797	0.122179
C66	C	1.489283	-0.189797	0.622179
C67	C	1.142325	0.000023	0.115625
C68	C	1.642325	0.500023	0.615625
C69	C	1.235280	0.000030	0.117369
C70	C	1.735280	0.500030	0.617369
C71	C	0.995190	0.000018	-0.041343
C72	C	1.495190	0.500018	0.458657
C73	C	0.993436	0.000022	-0.140638
C74	C	1.493436	0.500022	0.359362
N75	N	0.989295	0.229919	0.122171
N76	N	1.489295	0.729919	0.622171
C77	C	0.992631	0.080461	-0.187285
C78	C	1.492631	0.580461	0.312715
C79	C	0.990977	0.080462	-0.280582
C80	C	1.490977	0.580462	0.219418
C81	C	0.990135	0.000023	-0.327230
C82	C	1.490135	0.500023	0.172770
C83	C	0.990937	-0.080422	-0.280576
C84	C	1.490937	0.419578	0.219424
C85	C	0.992585	-0.080422	-0.187280
C86	C	1.492585	0.419578	0.312720
C87	C	0.987505	-0.080416	-0.475034
C88	C	1.487505	0.419584	0.024966
C89	C	0.985859	-0.080416	-0.568337
C90	C	1.485859	0.419584	-0.068337
C91	C	0.985898	0.080468	-0.568336
C92	C	1.485898	0.580468	-0.068336
C93	C	0.987546	0.080468	-0.475041
C94	C	1.487546	0.580468	0.024959
C95	C	0.988349	0.000023	-0.428393
C96	C	1.488349	0.500023	0.071607
C97	C	0.983300	0.000021	0.285721
C98	C	1.483300	0.500021	0.785721
C99	C	0.985055	0.000023	0.385016
C100	C	1.485055	0.500023	0.885016
H101	H	0.420267	-0.147301	0.107356
H102	H	0.920267	0.352699	0.607356
C103	C	0.568899	0.168827	0.123409
C104	C	1.068899	0.668827	0.623409
N105	N	0.587859	0.232259	0.160122
N106	N	1.087859	0.732259	0.660122
H107	H	0.988238	0.145968	-0.437063
H108	H	1.488238	0.645968	0.062937
C109	C	0.935739	-0.415393	0.289764
C110	C	1.435739	0.084607	0.789764
N111	N	0.947237	-0.390344	0.360619
N112	N	1.447237	0.109656	0.860619
H113	H	0.988142	-0.145923	-0.437054
H114	H	1.488142	0.354077	0.062946
H115	H	0.563935	-0.146955	0.108642
H116	H	1.063935	0.353045	0.608642
H117	H	0.993228	-0.145923	-0.149299
H118	H	1.493228	0.354077	0.350701
H119	H	0.432436	-0.088138	0.000337
H120	H	0.932436	0.411862	0.500337
H121	H	1.129153	-0.423700	0.090623
H122	H	1.629153	0.076300	0.590623
C123	C	0.588171	0.091480	-0.021818
C124	C	1.088171	0.591480	0.478182
N125	N	0.621637	0.096647	-0.094495
N126	N	1.121637	0.596647	0.405505
H127	H	0.990326	0.145963	-0.318559
H128	H	1.490326	0.645963	0.181441
C129	C	0.993558	0.168951	-0.135981
C130	C	1.493558	0.668951	0.364019
N131	N	0.994252	0.235605	-0.097340
N132	N	1.494252	0.735605	0.402660
H133	H	1.021873	-0.575504	-0.026160
H134	H	1.521873	-0.075504	0.473840
H135	H	1.091788	-0.575007	0.211505
H136	H	1.591788	-0.075007	0.711505
H137	H	0.990246	-0.145916	-0.318563
H138	H	1.490246	0.354084	0.181437
H139	H	0.400936	0.060786	0.257946
H140	H	0.900936	0.560786	0.757946
C141	C	0.551341	0.081655	0.274004
C142	C	1.051341	0.581655	0.774004
N143	N	0.570758	0.143156	0.313444
N144	N	1.070758	0.643156	0.813444
H145	H	0.399887	-0.059734	0.257741
H146	H	0.899887	0.440266	0.757741
H147	H	0.985242	0.145970	-0.606322
H148	H	1.485242	0.645970	-0.106322
H149	H	0.543988	-0.060487	0.260676
H150	H	1.043988	0.439513	0.760676
H151	H	1.016539	-0.422614	-0.028085
H152	H	1.516539	0.077386	0.471915
C153	C	0.586833	-0.088500	-0.023035
C154	C	1.086833	0.411500	0.476965
N155	N	0.619216	-0.091711	-0.096284
N156	N	1.119216	0.408289	0.403716
C157	C	0.984926	-0.168902	-0.619647
C158	C	1.484926	0.331098	-0.119647
N159	N	0.984222	-0.235552	-0.658294
N160	N	1.484222	0.264448	-0.158294
C161	C	1.098127	-0.413367	0.233953
C162	C	1.598127	0.086633	0.733953
N163	N	1.114319	-0.387158	0.302799
N164	N	1.614319	0.112842	0.802799
C165	C	0.832725	-0.414591	0.179325
C166	C	1.332725	0.085409	0.679325
N167	N	0.766623	-0.388942	0.167000
N168	N	1.266623	0.111058	0.667000
C169	C	0.935364	-0.586380	0.288970
C170	C	1.435364	-0.086380	0.788970
N171	N	0.946697	-0.612670	0.359424
N172	N	1.446697	-0.112670	0.859424
C173	C	0.409137	0.169783	0.112952
C174	C	0.909137	0.669783	0.612952
N175	N	0.380438	0.234770	0.144568
N176	N	0.880438	0.734770	0.644568
H177	H	0.433172	0.084068	-0.001980
H178	H	0.933172	0.584068	0.498020
H179	H	1.129144	-0.575901	0.091827
H180	H	1.629144	-0.075901	0.591827
H181	H	0.855158	-0.576239	0.183499
H182	H	1.355158	-0.076239	0.683499
H183	H	0.909253	-0.577177	0.008762
H184	H	1.409253	-0.077177	0.508762
C185	C	0.882745	-0.415404	0.008097
C186	C	1.382745	0.084596	0.508097
N187	N	0.817330	-0.390607	-0.007625
N188	N	1.317330	0.109393	0.492375
