data_functionalizedCrystal
_audit_creation_method	'MofGen! by Chris Wilmer'
_symmetry_space_group_name_H-M	'P1'
_symmetry_Int_Tables_number	1
_symmetry_cell_setting	triclinic
loop_
_symmetry_equiv_pos_as_xyz
  x,y,z
_cell_length_a	17.077404
_cell_length_b	25.639239
_cell_length_c	17.077396
_cell_angle_alpha	89.968371
_cell_angle_beta	89.981638
_cell_angle_gamma	90.037254
loop_
_atom_site_label
_atom_site_type_symbol
_atom_site_fract_x
_atom_site_fract_y
_atom_site_fract_z
Zn1	Zn	1.199965	-0.208179	-0.443802
Zn2	Zn	1.199835	-0.295617	-0.312528
Zn3	Zn	1.068697	-0.208194	-0.312552
Zn4	Zn	1.068627	-0.295582	-0.443755
O5	O	1.134281	-0.251893	-0.378159
O6	O	1.309795	-0.219786	-0.426398
O7	O	1.182413	-0.284041	-0.202685
O8	O	1.086194	-0.135027	-0.329992
O9	O	1.309699	-0.284026	-0.329952
O10	O	1.182636	-0.135016	-0.426421
O11	O	1.086067	-0.219812	-0.202702
O12	O	0.958841	-0.219778	-0.329947
O13	O	1.086075	-0.283967	-0.553608
O14	O	0.958790	-0.283982	-0.426341
O15	O	1.182568	-0.219753	-0.553642
O16	O	1.182346	-0.368777	-0.329906
O17	O	1.085949	-0.368752	-0.426318
C18	C	0.930333	-0.251878	-0.378142
C19	C	0.843083	-0.251884	-0.378153
C20	C	0.802144	-0.218494	-0.428449
C21	C	0.720163	-0.218498	-0.428452
C22	C	0.679124	-0.251894	-0.378163
C23	C	0.720069	-0.285286	-0.327862
C24	C	0.802048	-0.285280	-0.327855
C25	C	0.549199	-0.285298	-0.327881
C26	C	0.467215	-0.285305	-0.327889
C27	C	0.467314	-0.218516	-0.428479
C28	C	0.549293	-0.218509	-0.428472
C29	C	0.590233	-0.251902	-0.378171
C30	C	1.134147	-0.387736	-0.378121
C31	C	1.134161	-0.445850	-0.378131
C32	C	1.084077	-0.697042	-0.428345
C33	C	1.084048	-0.642438	-0.428335
O34	O	1.041336	-0.614201	-0.471002
N35	N	1.134260	-0.615124	-0.378172
C36	C	1.184510	-0.642416	-0.328021
O37	O	1.227217	-0.614169	-0.285353
C38	C	1.184542	-0.697019	-0.328034
C39	C	1.134322	-0.724331	-0.378195
C40	C	1.033861	-0.724354	-0.478502
C41	C	1.033890	-0.778955	-0.478510
C42	C	1.084134	-0.806243	-0.428360
C43	C	1.134350	-0.778932	-0.378203
C44	C	1.234795	-0.724311	-0.277887
C45	C	1.234824	-0.778918	-0.277906
C46	C	1.184603	-0.806230	-0.328066
C47	C	1.184622	-0.860821	-0.328061
N48	N	1.134411	-0.888135	-0.378225
C49	C	1.084166	-0.860847	-0.428374
C50	C	1.184439	-0.527746	-0.327997
C51	C	1.184403	-0.473143	-0.327979
C52	C	1.083942	-0.473169	-0.428295
C53	C	1.083975	-0.527772	-0.428308
C54	C	1.134227	-0.555060	-0.378160
C55	C	1.084229	-0.975512	-0.428386
C56	C	1.084259	-1.030117	-0.428387
C57	C	1.184723	-1.030087	-0.328075
C58	C	1.184690	-0.975486	-0.328070
C59	C	1.134440	-0.948200	-0.378232
O60	O	1.227315	-0.889093	-0.285419
O61	O	1.041474	-0.889100	-0.471042
C62	C	1.339025	-0.251908	-0.378177
C63	C	1.426275	-0.251915	-0.378185
C64	C	1.134329	-0.251855	-0.582904
C65	C	1.134349	-0.251838	-0.670153
C66	C	1.134437	-0.115520	-0.378214
C67	C	1.134504	-0.057406	-0.378238
C68	C	1.184595	-0.218399	-0.711163
C69	C	1.184604	-0.218381	-0.793143
C70	C	1.134371	-0.251806	-0.834113
C71	C	1.084120	-0.285247	-0.793098
C72	C	1.084107	-0.285262	-0.711119
C73	C	1.084151	-0.285216	-0.963968
C74	C	1.084165	-0.285202	-1.045953
C75	C	1.184649	-0.218335	-1.045993
C76	C	1.184636	-0.218350	-0.964014
C77	C	1.134385	-0.251792	-0.923004
C78	C	1.134279	-0.251894	-0.174211
C79	C	1.134411	-0.251763	-0.086962
H80	H	0.582705	-0.191318	-0.469426
H81	H	1.043085	-0.550006	-0.469158
O82	O	0.985086	-0.697908	-0.527328
C83	C	1.002213	-0.711196	-0.605583
H84	H	1.032423	-0.750816	-0.607243
H85	H	0.945539	-0.713098	-0.640725
H86	H	1.042525	-0.680421	-0.632061
O87	O	1.283548	-0.697848	-0.229056
C88	C	1.266443	-0.711232	-0.150806
H89	H	1.236277	-0.750895	-0.149162
H90	H	1.323123	-0.713090	-0.115670
H91	H	1.226100	-0.680536	-0.124311
H92	H	1.225289	-0.450910	-0.287124
O93	O	1.283752	-0.805364	-0.229227
C94	C	1.361967	-0.791965	-0.246472
H95	H	1.363545	-0.752307	-0.276649
H96	H	1.397202	-0.790091	-0.189855
H97	H	1.388402	-0.822662	-0.286856
H98	H	1.225563	-0.191105	-1.079386
O99	O	0.842092	-0.186027	-0.477193
C100	C	0.889506	-0.152206	-0.432591
H101	H	0.901752	-0.170595	-0.373052
H102	H	0.947171	-0.145221	-0.464581
H103	H	0.857939	-0.113456	-0.424074
O104	O	0.427466	-0.186149	-0.477379
C105	C	0.380056	-0.215964	-0.528012
H106	H	0.367726	-0.255562	-0.500214
H107	H	0.322432	-0.194679	-0.538600
H108	H	0.411670	-0.221760	-0.586164
H109	H	1.043312	-0.953302	-0.469234
H110	H	1.043184	-0.312486	-0.677730
H111	H	1.225503	-0.191182	-0.677811
H112	H	0.686834	-0.191309	-0.469410
H113	H	0.992994	-0.801187	-0.519355
O114	O	0.588935	-0.317812	-0.279106
C115	C	0.568853	-0.369936	-0.296114
H116	H	0.546336	-0.372627	-0.358817
H117	H	0.622742	-0.395757	-0.289283
H118	H	0.521242	-0.383573	-0.253994
O119	O	1.233537	-0.949033	-0.279311
C120	C	1.277869	-0.984831	-0.235030
H121	H	1.280589	-1.023738	-0.267190
H122	H	1.339713	-0.969019	-0.226703
H123	H	1.249155	-0.990682	-0.175391
H124	H	0.835380	-0.312469	-0.286898
O125	O	0.427309	-0.317797	-0.279147
C126	C	0.379865	-0.351601	-0.323745
H127	H	0.404598	-0.354890	-0.385554
H128	H	0.378881	-0.391810	-0.295233
H129	H	0.317752	-0.335438	-0.326509
H130	H	1.043259	-0.312419	-1.079308
H131	H	0.686648	-0.312476	-0.286912
H132	H	1.043216	-0.312460	-0.826462
O133	O	1.035326	-0.317759	-0.924251
C134	C	0.990986	-0.347255	-0.977989
H135	H	1.023138	-0.349045	-1.036436
H136	H	0.982586	-0.388456	-0.954290
H137	H	0.931381	-0.328115	-0.986694
H138	H	1.225627	-1.052315	-0.287241
O139	O	1.035250	-0.446632	-0.477101
C140	C	1.079903	-0.414985	-0.527815
H141	H	1.141731	-0.431400	-0.532719
H142	H	1.051482	-0.414352	-0.588201
H143	H	1.082603	-0.373613	-0.503534
O144	O	1.035449	-1.056566	-0.477192
C145	C	0.991087	-1.020767	-0.521440
H146	H	1.023220	-0.981822	-0.524177
H147	H	0.982686	-1.036520	-0.583284
H148	H	0.931483	-1.015011	-0.492641
O149	O	1.233274	-0.554170	-0.279197
C150	C	1.277593	-0.518348	-0.234937
H151	H	1.245414	-0.479450	-0.232191
H152	H	1.286010	-0.534142	-0.173097
H153	H	1.337192	-0.512484	-0.263732
H154	H	1.225521	-0.191153	-0.826530
H155	H	1.225544	-0.191135	-0.930658
