data_functionalizedCrystal
_audit_creation_method	'MofGen! by Chris Wilmer'
_symmetry_space_group_name_H-M	'P1'
_symmetry_Int_Tables_number	1
_symmetry_cell_setting	triclinic
loop_
_symmetry_equiv_pos_as_xyz
  x,y,z
_cell_length_a	14.044220
_cell_length_b	8.559649
_cell_length_c	7.681481
_cell_angle_alpha	94.913240
_cell_angle_beta	96.267166
_cell_angle_gamma	98.516229
loop_
_atom_site_label
_atom_site_type_symbol
_atom_site_fract_x
_atom_site_fract_y
_atom_site_fract_z
O1	O	-0.021858	-2.101908	0.146399
O2	O	0.026593	-1.643608	0.146411
O3	O	-0.135117	-1.865881	0.146388
O4	O	0.139853	-1.879635	0.146422
O5	O	-0.155061	-1.893233	-0.146473
O6	O	0.006649	-1.670961	-0.146449
O7	O	-0.041802	-2.129260	-0.146461
Zn8	Zn	-0.020743	-1.904453	-0.192953
Zn9	Zn	0.005534	-1.868415	0.192903
O10	O	0.119909	-1.906988	-0.146438
C11	C	-0.179966	-1.873534	-0.000043
C12	C	-0.283884	-1.855571	-0.000045
C13	C	0.020293	-1.598278	-0.000018
C14	C	0.031222	-1.422455	-0.000014
C15	C	-0.035501	-2.174590	-0.000029
C16	C	-0.046430	-2.350412	-0.000021
C17	C	-0.474153	-1.822727	-0.000018
C18	C	-0.541060	-1.950133	-0.000016
C19	C	-0.646933	-1.931858	-0.000002
C20	C	-0.368270	-1.840999	-0.000033
C21	C	0.164757	-1.899334	-0.000003
C22	C	0.268676	-1.917296	0.000010
N23	N	-0.038678	-1.929059	-0.456290
N24	N	0.023461	-1.843820	0.456240
H25	H	-0.496383	-1.699936	-0.000011
C26	C	0.163896	-1.651166	-0.561907
C27	C	0.109084	-1.726347	-0.442247
H28	H	0.216761	-1.578650	-0.499225
H29	H	0.124169	-1.595296	-0.633823
H30	H	0.187946	-1.728569	-0.633806
H31	H	0.085028	-1.648945	-0.370356
H32	H	0.148818	-1.782219	-0.370300
C33	C	-0.593461	-2.230186	-0.000046
C34	C	-0.511060	-2.115917	-0.000045
H35	H	-0.574933	-2.332527	-0.000059
H36	H	-0.637623	-2.227300	-0.102158
H37	H	-0.623699	-2.208236	0.102097
H38	H	-0.480825	-2.137859	-0.102196
H39	H	-0.466881	-2.118807	0.102077
H40	H	0.106070	-1.349615	0.000005
H41	H	-0.102101	-2.016090	-0.531505
C42	C	-0.217105	-1.347347	-0.000029
C43	C	-0.147470	-1.448717	-0.000028
H44	H	-0.279482	-1.408046	-0.000021
H45	H	-0.216494	-1.292177	-0.102150
H46	H	-0.202572	-1.273086	0.102105
H47	H	-0.161999	-1.522971	-0.102169
H48	H	-0.148084	-1.503914	0.102103
