data_functionalizedCrystal
_audit_creation_method	'MofGen! by Chris Wilmer'
_symmetry_space_group_name_H-M	'P1'
_symmetry_Int_Tables_number	1
_symmetry_cell_setting	triclinic
loop_
_symmetry_equiv_pos_as_xyz
  x,y,z
_cell_length_a	16.120490
_cell_length_b	12.645330
_cell_length_c	16.120256
_cell_angle_alpha	92.878509
_cell_angle_beta	90.129807
_cell_angle_gamma	87.110278
loop_
_atom_site_label
_atom_site_type_symbol
_atom_site_fract_x
_atom_site_fract_y
_atom_site_fract_z
Zn1	Zn	1.247488	-0.537188	-0.534567
Zn2	Zn	1.254452	-0.705945	-0.395519
Zn3	Zn	1.115476	-0.519259	-0.388487
Zn4	Zn	1.108407	-0.704963	-0.527492
O5	O	1.181456	-0.616839	-0.461516
O6	O	1.364779	-0.567488	-0.522026
O7	O	1.241889	-0.674088	-0.278219
O8	O	1.133032	-0.373294	-0.407883
O9	O	1.369895	-0.691472	-0.419868
O10	O	1.230020	-0.386466	-0.515208
O11	O	1.139784	-0.536931	-0.273053
O12	O	0.998171	-0.535979	-0.401022
O13	O	1.120984	-0.689800	-0.644797
O14	O	0.992977	-0.672415	-0.503149
O15	O	1.223166	-0.566536	-0.649995
O16	O	1.235035	-0.854158	-0.413007
O17	O	1.127736	-0.853437	-0.509967
C18	C	0.965401	-0.602146	-0.450555
C19	C	0.872971	-0.595887	-0.445886
C20	C	0.660014	-0.649296	-0.485739
C21	C	0.703746	-0.584470	-0.437359
C22	C	0.797912	-0.590825	-0.442105
C23	C	0.565839	-0.642943	-0.480994
C24	C	1.181396	-0.892264	-0.461501
C25	C	1.181445	-1.010098	-0.461527
C26	C	1.114198	-1.177283	-0.522736
C27	C	1.113881	-1.054689	-0.522512
C28	C	1.162167	-1.047709	-0.372690
C29	C	1.161756	-1.170304	-0.373062
C30	C	1.268396	-1.184548	-0.488463
C31	C	1.267759	-1.062021	-0.490352
C32	C	1.398354	-0.631589	-0.472520
C33	C	1.490783	-0.637875	-0.477210
C34	C	1.170509	-0.630059	-0.678412
C35	C	1.165845	-0.635692	-0.770840
C36	C	1.181538	-0.340341	-0.461550
C37	C	1.181573	-0.222514	-0.461565
C38	C	1.205780	-0.587433	-0.983821
C39	C	1.157300	-0.645932	-0.940061
C40	C	1.162056	-0.640233	-0.845898
C41	C	1.201026	-0.593131	-1.077992
C42	C	1.192407	-0.603597	-0.245466
C43	C	1.197233	-0.597676	-0.153047
H44	H	1.125597	-1.211691	-0.588675
O45	O	0.664071	-0.512439	-0.383778
C46	C	0.684307	-0.409320	-0.403099
H47	H	0.704919	-0.409703	-0.470718
H48	H	0.736878	-0.382132	-0.361028
C49	C	0.582238	-0.332417	-0.306642
C50	C	0.607548	-0.332885	-0.389695
H51	H	0.534891	-0.285266	-0.298371
H52	H	0.568606	-0.401889	-0.293622
H53	H	0.626054	-0.309763	-0.271592
H54	H	0.563736	-0.355552	-0.424743
H55	H	0.621171	-0.263414	-0.402721
O56	O	0.699842	-0.721172	-0.539323
C57	C	0.786356	-0.711581	-0.532193
H58	H	0.801334	-0.673592	-0.468648
H59	H	0.808534	-0.659875	-0.582814
C60	C	0.812272	-0.868925	-0.619912
C61	C	0.830669	-0.822275	-0.541861
H62	H	0.839607	-0.937205	-0.625879
H63	H	0.753985	-0.875386	-0.624719
H64	H	0.830754	-0.825827	-0.662088
H65	H	0.812177	-0.865367	-0.499688
H66	H	0.888954	-0.815824	-0.537048
O67	O	1.103607	-0.710783	-0.979861
C68	C	1.110751	-0.702108	-1.066381
H69	H	1.174347	-0.672428	-1.081400
H70	H	1.060212	-0.643785	-1.088529
C71	C	1.022806	-0.847964	-1.092236
C72	C	1.100919	-0.811519	-1.110684
H73	H	1.016737	-0.915452	-1.119565
H74	H	1.017990	-0.853807	-1.033945
H75	H	0.980699	-0.799352	-1.110693
H76	H	1.143024	-0.860124	-1.092217
H77	H	1.105741	-0.805687	-1.168972
H78	H	1.125428	-1.029527	-0.588245
H79	H	1.250853	-0.533076	-0.950567
O80	O	1.330425	-1.026252	-0.441608
C81	C	1.387521	-0.976235	-0.490782
H82	H	1.355252	-0.948743	-0.549485
H83	H	1.441521	-1.034627	-0.508499
C84	C	1.460171	-0.913628	-0.369164
C85	C	1.420535	-0.879853	-0.441261
H86	H	1.480539	-0.854177	-0.338617
H87	H	1.421706	-0.947328	-0.336034
H88	H	1.505166	-0.962288	-0.383939
H89	H	1.375535	-0.831204	-0.426484
H90	H	1.458993	-0.846142	-0.474387
H91	H	1.050139	-1.202883	-0.504775
O92	O	1.219055	-1.013144	-0.316499
C93	C	1.199902	-1.048290	-0.237480
H94	H	1.161050	-1.121038	-0.244920
H95	H	1.163301	-0.982487	-0.200414
C96	C	1.328621	-0.987952	-0.182044
C97	C	1.280908	-1.077308	-0.191183
H98	H	1.378588	-1.005847	-0.153484
H99	H	1.341524	-0.964269	-0.235280
H100	H	1.298111	-0.933124	-0.151159
H101	H	1.311414	-1.132128	-0.222077
H102	H	1.268012	-1.101000	-0.137951
H103	H	1.318537	-1.213902	-0.443964
H104	H	1.049425	-1.020114	-0.504341
H105	H	1.098420	-1.193464	-0.350792
H106	H	1.286851	-1.220712	-0.552376
O107	O	1.217949	-1.205820	-0.316513
C108	C	1.177027	-1.261127	-0.256181
H109	H	1.116510	-1.290817	-0.283094
H110	H	1.162890	-1.205808	-0.199399
C111	C	1.307500	-1.319695	-0.197573
C112	C	1.233175	-1.356169	-0.230630
H113	H	1.342135	-1.378319	-0.181808
H114	H	1.335071	-1.282431	-0.238217
H115	H	1.295708	-1.273596	-0.150258
H116	H	1.244967	-1.402257	-0.277949
H117	H	1.205607	-1.393444	-0.189993
H118	H	1.099518	-1.011590	-0.350111
H119	H	1.282378	-1.038040	-0.555753
