data_functionalizedCrystal
_audit_creation_method	'MofGen! by Chris Wilmer'
_symmetry_space_group_name_H-M	'P1'
_symmetry_Int_Tables_number	1
_symmetry_cell_setting	triclinic
loop_
_symmetry_equiv_pos_as_xyz
  x,y,z
_cell_length_a	27.731993
_cell_length_b	19.188924
_cell_length_c	17.666332
_cell_angle_alpha	89.991448
_cell_angle_beta	90.002180
_cell_angle_gamma	82.881179
loop_
_atom_site_label
_atom_site_type_symbol
_atom_site_fract_x
_atom_site_fract_y
_atom_site_fract_z
O1	O	0.641200	0.082898	-0.062748
O2	O	0.500441	0.095570	-0.062795
O3	O	0.574884	-0.012449	-0.062761
O4	O	0.566757	0.190917	-0.062782
O5	O	0.574871	-0.012455	0.063136
O6	O	0.500428	0.095564	0.063102
O7	O	0.641187	0.082892	0.063149
Cu8	Cu	0.570806	0.089228	0.074621
Cu9	Cu	0.570822	0.089234	-0.074267
O10	O	0.566744	0.190911	0.063115
C11	C	0.482426	0.095307	0.000148
C12	C	0.428768	0.094524	0.000130
C13	C	0.574615	-0.038461	0.000188
C14	C	0.573827	-0.115961	0.000190
C15	C	0.045597	0.088849	-0.068459
C16	C	0.247264	0.091835	-0.068480
O17	O	0.273344	0.092196	-0.126845
N18	N	0.272478	0.092205	0.000145
C19	C	0.247273	0.091825	0.068780
O20	O	0.273348	0.092201	0.127149
C21	C	0.045608	0.088834	0.068800
C22	C	0.020396	0.088471	0.000171
C23	C	0.020385	0.088485	-0.137082
C24	C	-0.030029	0.087743	-0.137077
C25	C	-0.055231	0.087364	-0.068447
C26	C	-0.030018	0.087728	0.000177
C27	C	0.020405	0.088449	0.137434
C28	C	-0.030015	0.087699	0.137433
C29	C	-0.055227	0.087336	0.068804
C30	C	-0.105634	0.086607	0.068812
N31	N	-0.130848	0.086237	0.000187
C32	C	-0.105647	0.086615	-0.068442
C33	C	0.353150	0.093396	0.068765
C34	C	0.403566	0.094145	0.068760
C35	C	0.403553	0.094154	-0.068500
C36	C	0.353136	0.093410	-0.068494
C37	C	0.327936	0.093026	0.000140
C38	C	-0.211520	0.085057	-0.068425
C39	C	-0.261938	0.084317	-0.068413
C40	C	-0.261921	0.084305	0.068847
C41	C	-0.211507	0.085048	0.068835
C42	C	-0.186307	0.085422	0.000193
O43	O	-0.131744	0.086239	0.127147
O44	O	-0.131728	0.086223	-0.126803
C45	C	0.096011	0.089592	-0.068465
C46	C	0.121224	0.089956	0.000159
C47	C	0.096022	0.089578	0.068788
C48	C	0.171640	0.090705	0.000154
C49	C	0.196841	0.091083	-0.068475
C50	C	0.171627	0.090713	-0.137100
C51	C	0.121213	0.089970	-0.137094
C52	C	0.121236	0.089948	0.137413
C53	C	0.171650	0.090691	0.137402
C54	C	0.196852	0.091070	0.068772
C55	C	0.659201	0.083155	0.000204
C56	C	0.712860	0.083938	0.000217
C57	C	0.573466	-0.152354	-0.068437
C58	C	0.572718	-0.225172	-0.068443
C59	C	0.572341	-0.261595	0.000181
C60	C	0.572699	-0.225193	0.068817
C61	C	0.573442	-0.152375	0.068821
N62	N	0.598677	-0.381436	0.051266
N63	N	0.597973	-0.450610	0.051257
C64	C	0.570102	-0.480990	0.000173
N65	N	0.542968	-0.439584	-0.050913
N66	N	0.543675	-0.370404	-0.050907
C67	C	0.571535	-0.340553	0.000185
C68	C	0.568930	-0.596340	-0.068464
C69	C	0.568179	-0.669159	-0.068468
C70	C	0.568165	-0.669179	0.068795
C71	C	0.568911	-0.596361	0.068796
C72	C	0.569295	-0.559946	0.000164
C73	C	0.567013	0.216924	0.000164
C74	C	0.567801	0.294423	0.000158
N75	N	0.570799	0.089223	0.179340
N76	N	0.570833	0.089234	-0.178986
C77	C	0.603773	0.041415	0.218965
C78	C	0.603776	0.041412	0.298212
C79	C	0.570809	0.089228	0.337832
C80	C	0.537829	0.137039	0.298198
C81	C	0.537824	0.137037	0.218952
N82	N	0.564524	0.151077	0.462243
N83	N	0.564532	0.151078	0.537524
C84	C	0.570822	0.089238	0.576596
N85	N	0.577113	0.027395	0.537544
N86	N	0.577108	0.027396	0.462257
C87	C	0.570811	0.089236	0.423761
C88	C	0.603801	0.041422	0.702150
C89	C	0.603800	0.041418	0.781399
C90	C	0.537856	0.137052	0.781383
C91	C	0.537854	0.137050	0.702136
C92	C	0.570829	0.089236	0.662524
H93	H	-0.282464	0.084023	-0.124301
C94	C	-0.183808	0.085472	-0.143934
N95	N	-0.162936	0.085790	-0.200808
H96	H	0.040924	0.088742	0.193319
C97	C	0.325435	0.092989	0.144273
N98	N	0.304561	0.092689	0.201147
C99	C	0.199359	0.091126	-0.212593
N100	N	0.220249	0.091433	-0.269451
C101	C	0.501592	0.189651	0.824961
N102	N	0.474277	0.229270	0.857787
H103	H	-0.050552	0.087444	-0.192962
C104	C	0.048099	0.088900	-0.212587
N105	N	0.068969	0.089217	-0.269462
C106	C	0.093520	0.089544	0.212915
N107	N	0.072646	0.089248	0.269789
H108	H	0.511005	0.175982	0.669871
C109	C	0.567750	-0.709241	0.144283
N110	N	0.567437	-0.739418	0.201143
C111	C	0.325408	0.093003	-0.143991
N112	N	0.304526	0.092693	-0.200859
C113	C	0.569345	-0.556280	-0.143960
N114	N	0.569657	-0.526109	-0.200824
C115	C	0.573884	-0.112302	-0.143934
N116	N	0.574198	-0.082132	-0.200799
H117	H	0.192173	0.090993	0.193292
H118	H	0.510986	0.175971	0.330461
H119	H	0.567883	-0.698788	-0.124354
C120	C	0.640069	-0.011180	0.658574
N121	N	0.667386	-0.050802	0.625755
H122	H	0.569209	-0.566730	0.124679
C123	C	0.640068	-0.011189	0.824986
N124	N	0.667384	-0.050817	0.857816
H125	H	0.630622	0.002481	0.186715
H126	H	-0.282449	0.083999	0.124723
H127	H	0.630628	0.002479	0.330481
C128	C	0.501569	0.189661	0.175364
N129	N	0.474269	0.229311	0.142532
C130	C	0.572283	-0.265260	0.144304
N131	N	0.571968	-0.295438	0.201164
C132	C	0.431285	0.094565	-0.143993
N133	N	0.452175	0.094868	-0.200851
C134	C	-0.183773	0.085453	0.144330
N135	N	-0.162886	0.085751	0.201195
C136	C	0.431293	0.094553	0.144257
N137	N	0.452176	0.094855	0.201125
H138	H	0.100689	0.089674	-0.192979
C139	C	-0.057732	0.087281	0.212938
N140	N	-0.078608	0.086969	0.269809
H141	H	0.572421	-0.254809	-0.124329
C142	C	0.573842	-0.112342	0.144319
N143	N	0.574145	-0.082188	0.201185
