data_functionalizedCrystal
_audit_creation_method	'MofGen! by Chris Wilmer'
_symmetry_space_group_name_H-M	'P1'
_symmetry_Int_Tables_number	1
_symmetry_cell_setting	triclinic
loop_
_symmetry_equiv_pos_as_xyz
  x,y,z
_cell_length_a	13.185408
_cell_length_b	14.472310
_cell_length_c	13.339070
_cell_angle_alpha	90.004068
_cell_angle_beta	96.198603
_cell_angle_gamma	90.009241
loop_
_atom_site_label
_atom_site_type_symbol
_atom_site_fract_x
_atom_site_fract_y
_atom_site_fract_z
O1	O	1.373306	0.076777	0.243496
O2	O	1.084474	0.076791	0.148759
O3	O	1.195741	0.076783	0.334366
O4	O	1.262039	0.076785	0.057889
O5	O	1.195704	-0.076899	0.334347
O6	O	1.084437	-0.076891	0.148740
O7	O	1.373269	-0.076905	0.243477
Cu8	Cu	1.228849	-0.090930	0.196107
Cu9	Cu	1.228893	0.090817	0.196129
O10	O	1.262001	-0.076897	0.057870
C11	C	1.046733	-0.000048	0.139145
C12	C	0.934328	-0.000042	0.110538
C13	C	0.895277	-0.000039	0.008684
C14	C	0.789668	-0.000048	-0.018197
C15	C	0.723099	-0.000051	0.056774
C16	C	0.762150	-0.000047	0.158631
C17	C	0.867770	-0.000046	0.185514
C18	C	0.695592	-0.000058	0.233605
C19	C	0.734643	-0.000054	0.335461
C20	C	0.840253	-0.000053	0.362340
C21	C	0.906821	-0.000049	0.287369
C22	C	0.589973	-0.000059	0.206722
C23	C	0.562466	-0.000066	0.383552
C24	C	0.668075	-0.000058	0.410432
N25	N	1.228825	-0.218761	0.196093
C26	C	1.228891	-0.592852	0.196133
C27	C	1.168998	-0.553682	0.097000
C28	C	1.169274	-0.446594	0.096773
C29	C	1.228858	-0.407261	0.196113
C30	C	1.340428	-0.446103	0.203434
C31	C	1.340126	-0.553225	0.202762
C32	C	1.178083	-0.553381	0.288427
C33	C	1.175869	-0.446254	0.287117
C34	C	1.228845	-0.302373	0.196105
C35	C	1.228911	-0.697740	0.196140
C36	C	1.411010	-0.000064	0.253091
C37	C	1.523415	-0.000063	0.281698
C38	C	1.184524	-0.000056	0.368997
C39	C	1.151143	-0.000051	0.472211
N40	N	1.228923	0.218648	0.196152
C41	C	1.273219	-0.000055	0.023239
C42	C	1.306600	-0.000055	-0.079975
C43	C	1.410697	-0.000064	0.907668
C44	C	1.442064	-0.000074	0.810695
C45	C	1.369336	-0.000068	0.726069
C46	C	1.265237	-0.000052	0.738426
C47	C	1.233867	-0.000049	0.835408
C48	C	1.192506	-0.000053	0.653810
C49	C	1.088406	-0.000037	0.666166
C50	C	1.057042	-0.000034	0.763140
C51	C	1.129770	-0.000040	0.847766
C52	C	1.223876	-0.000056	0.556827
C53	C	1.047045	-0.000041	0.484568
C54	C	1.015679	-0.000031	0.581541
H55	H	0.949485	-0.000043	-0.052346
C56	C	1.095271	-0.000040	0.954446
N57	N	1.069290	-0.000044	1.034800
H58	H	0.558188	-0.000064	0.123789
C59	C	1.068381	-0.589909	0.288488
N60	N	0.985752	-0.617422	0.288522
C61	C	0.746719	-0.000065	-0.130235
N62	N	0.714370	-0.000082	-0.214629
H63	H	1.214390	-0.419483	0.362128
H64	H	0.699886	-0.000055	0.493365
H65	H	1.387286	-0.420623	0.274913
C66	C	1.057994	-0.588536	0.085010
N67	N	0.974385	-0.614801	0.075976
H68	H	1.469901	-0.000077	0.976575
C69	C	1.023000	-0.000049	0.316932
N70	N	1.110507	-0.000054	0.339197
H71	H	1.526821	-0.000088	0.800642
H72	H	0.972278	-0.000028	0.773195
C73	C	0.489244	-0.000068	0.466026
N74	N	0.434088	-0.000070	0.528140
H75	H	1.308634	-0.000069	0.546778
C76	C	1.395091	-0.409861	0.114939
N77	N	1.436257	-0.382568	0.048279
C78	C	1.058521	-0.411116	0.085158
N79	N	0.975096	-0.384399	0.076403
H80	H	0.930919	-0.000019	0.591616
C81	C	1.216558	-0.590034	0.004150
N82	N	1.252382	-0.617416	-0.065782
H83	H	1.221414	-0.578711	0.361861
H84	H	1.204790	-0.420960	0.027687
C85	C	1.394505	-0.586969	0.113000
N86	N	1.435458	-0.612380	0.045383
H87	H	0.637108	-0.000059	0.034882
H88	H	1.093647	-0.420867	0.282228
H89	H	1.394881	-0.000077	0.647111
H90	H	0.987824	-0.000041	0.415664
H91	H	1.387654	-0.579134	0.273651
H92	H	0.872044	-0.000061	0.445278
