data_functionalizedCrystal
_audit_creation_method	'MofGen! by Chris Wilmer'
_symmetry_space_group_name_H-M	'P1'
_symmetry_Int_Tables_number	1
_symmetry_cell_setting	triclinic
loop_
_symmetry_equiv_pos_as_xyz
  x,y,z
_cell_length_a	13.032831
_cell_length_b	17.077402
_cell_length_c	17.077396
_cell_angle_alpha	90.029784
_cell_angle_beta	82.809156
_cell_angle_gamma	97.172756
loop_
_atom_site_label
_atom_site_type_symbol
_atom_site_fract_x
_atom_site_fract_y
_atom_site_fract_z
Zn1	Zn	1.597631	0.465146	-0.595967
Zn2	Zn	1.597508	0.596409	-0.464687
Zn3	Zn	1.422874	0.448477	-0.448074
Zn4	Zn	1.422832	0.579673	-0.579277
O5	O	1.510211	0.522426	-0.522001
O6	O	1.743854	0.496538	-0.592490
O7	O	1.574308	0.576813	-0.352633
O8	O	1.446126	0.340848	-0.467725
O9	O	1.743763	0.592977	-0.496039
O10	O	1.574519	0.353094	-0.576382
O11	O	1.446006	0.468128	-0.340428
O12	O	1.276629	0.451900	-0.451541
O13	O	1.446053	0.564453	-0.691341
O14	O	1.276598	0.548290	-0.547935
O15	O	1.574478	0.480310	-0.703604
O16	O	1.574267	0.704029	-0.479855
O17	O	1.445933	0.691734	-0.564044
C18	C	1.510110	0.726365	-0.521960
C19	C	1.510163	0.813619	-0.521978
C20	C	1.238696	0.496471	-0.496125
C21	C	1.122540	0.485386	-0.485074
C22	C	1.510274	0.522374	-0.726752
C23	C	1.510301	0.522352	-0.814004
C24	C	1.070766	0.528212	-0.527769
C25	C	0.950714	0.516756	-0.516348
C26	C	1.782787	0.548484	-0.547979
C27	C	1.898943	0.559588	-0.559049
C28	C	1.510341	0.317694	-0.522062
C29	C	1.510396	0.230450	-0.522088
C30	C	1.577054	0.860992	-0.478201
C31	C	1.577106	0.942978	-0.478226
C32	C	1.510259	0.977588	-0.522024
C33	C	1.443364	0.930209	-0.565806
C34	C	1.443319	0.848226	-0.565785
C35	C	1.443461	1.101088	-0.565845
C36	C	1.443505	1.183077	-0.565865
C37	C	1.577247	1.195840	-0.478286
C38	C	1.577202	1.113857	-0.478265
C39	C	1.510306	1.066483	-0.522046
C40	C	1.577175	0.478535	-0.861381
C41	C	1.577187	0.478510	-0.943363
C42	C	1.510331	0.522307	-0.977966
C43	C	1.443451	0.566126	-0.930583
C44	C	1.443433	0.566146	-0.848603
C45	C	1.443493	0.566083	-1.101457
C46	C	1.443511	0.566064	-1.183444
C47	C	1.577246	0.478447	-1.196217
C48	C	1.577229	0.478467	-1.114237
C49	C	1.510350	0.522287	-1.066859
C50	C	1.510208	0.522427	-0.318053
C51	C	1.510384	0.522247	-0.230821
H52	H	0.906164	0.471603	-0.471340
H53	H	1.388968	0.601818	-0.810028
H54	H	0.943490	0.604733	-0.604066
O55	O	1.069358	0.431637	-0.431282
C56	C	1.006161	0.470283	-0.374547
H57	H	1.039096	0.535222	-0.372711
H58	H	0.923490	0.465179	-0.390998
C59	C	0.963866	0.351907	-0.295088
C60	C	1.004321	0.431666	-0.292828
H61	H	0.962726	0.328085	-0.244679
H62	H	1.006439	0.325870	-0.333312
H63	H	0.894977	0.347665	-0.308800
H64	H	1.073213	0.435906	-0.279126
H65	H	0.961759	0.457703	-0.254599
H66	H	1.389068	0.601726	-1.211615
H67	H	1.631484	0.832818	-0.442532
O68	O	1.642114	0.988877	-0.435628
C69	C	1.701117	0.940750	-0.396978
H70	H	1.658279	0.878249	-0.390141
H71	H	1.780461	0.939540	-0.433327
C72	C	1.768869	1.051007	-0.323288
C73	C	1.716251	0.974243	-0.314885
H74	H	1.778209	1.071668	-0.272650
H75	H	1.729121	1.083432	-0.349329
H76	H	1.834983	1.049988	-0.353582
H77	H	1.650133	0.975265	-0.284600
H78	H	1.755988	0.941819	-0.288837
H79	H	1.115320	0.573355	-0.572780
H80	H	1.388851	0.809655	-0.601434
H81	H	1.389092	1.211256	-0.601546
H82	H	1.631720	1.234416	-0.442641
H83	H	1.631628	1.085677	-0.442598
H84	H	1.388991	1.062519	-0.601500
H85	H	1.388941	0.958395	-0.601471
H86	H	1.631675	0.442809	-1.086065
H87	H	1.631620	0.442873	-0.833213
H88	H	1.631644	0.442832	-0.981934
H89	H	1.631700	0.442766	-1.234796
O90	O	1.378655	0.608781	-1.055475
C91	C	1.401453	0.689186	-1.077679
H92	H	1.484936	0.701107	-1.108188
H93	H	1.345416	0.704346	-1.119906
C94	C	1.286748	0.725789	-0.966206
C95	C	1.389286	0.740433	-1.003672
H96	H	1.279239	0.757402	-0.920557
H97	H	1.271385	0.671619	-0.951248
H98	H	1.240062	0.738423	-1.001403
H99	H	1.435969	0.727790	-0.968479
H100	H	1.404657	0.794602	-1.018623
H101	H	1.389011	0.601783	-0.958764
