data_functionalizedCrystal
_audit_creation_method	'MofGen! by Chris Wilmer'
_symmetry_space_group_name_H-M	'P1'
_symmetry_Int_Tables_number	1
_symmetry_cell_setting	triclinic
loop_
_symmetry_equiv_pos_as_xyz
  x,y,z
_cell_length_a	10.654554
_cell_length_b	10.654551
_cell_length_c	9.730223
_cell_angle_alpha	90.000766
_cell_angle_beta	89.994845
_cell_angle_gamma	84.486053
loop_
_atom_site_label
_atom_site_type_symbol
_atom_site_fract_x
_atom_site_fract_y
_atom_site_fract_z
O1	O	1.667843	0.176420	-0.114238
O2	O	1.302365	0.193220	-0.114249
O3	O	1.493506	0.002081	-0.114244
O4	O	1.476702	0.367559	-0.114243
O5	O	1.493481	0.002086	0.114336
O6	O	1.302340	0.193225	0.114331
O7	O	1.667818	0.176425	0.114342
Zn8	Zn	1.485075	0.184825	0.150628
Zn9	Zn	1.485108	0.184820	-0.150535
O10	O	1.476677	0.367564	0.114337
C11	C	1.255555	0.191988	0.000039
C12	C	1.116112	0.188294	0.000035
C13	C	0.905604	0.297367	0.000048
C14	C	1.036625	0.300839	0.000037
C15	C	1.064571	0.072269	0.000029
C16	C	0.933552	0.068799	0.000030
C17	C	0.826123	0.409919	0.000064
C18	C	0.877654	0.525944	0.000066
C19	C	1.008676	0.529416	0.000056
C20	C	1.088166	0.416863	0.000042
C21	C	1.492260	-0.044714	0.000043
C22	C	1.488567	-0.184158	0.000034
C23	C	1.486849	-0.249672	-0.124563
C24	C	1.483368	-0.380693	-0.124557
C25	C	1.483331	-0.380673	0.124654
C26	C	1.486802	-0.249654	0.124646
C27	C	1.488614	-0.184176	-0.249175
C28	C	1.486897	-0.249690	-0.373782
C29	C	1.483417	-0.380711	-0.373776
C30	C	1.481653	-0.446217	-0.249163
C31	C	1.714628	0.177657	0.000051
C32	C	1.854071	0.181351	0.000046
C33	C	1.477923	0.414360	0.000047
C34	C	1.481616	0.553803	0.000047
N35	N	1.485061	0.184829	0.356165
C36	C	1.561932	0.261702	0.571969
C37	C	1.561902	0.261710	0.428086
C38	C	1.408237	0.107944	0.428134
C39	C	1.408262	0.107944	0.572014
C40	C	1.638787	0.338578	0.643884
C41	C	1.715610	0.415465	0.571925
C42	C	1.715579	0.415473	0.428042
C43	C	1.638726	0.338594	0.356118
N44	N	1.485117	0.184821	0.643928
H45	H	1.194851	0.419699	0.000005
H46	H	1.638696	0.338619	0.238958
O47	O	1.492438	-0.042871	-0.249050
H48	H	1.578823	-0.018913	-0.195209
O49	O	1.150297	-0.049123	0.000041
H50	H	1.250060	-0.027218	0.000058
H51	H	1.481896	-0.434018	0.226107
O52	O	1.798420	0.498406	0.350422
H53	H	1.898566	0.472004	0.377992
H54	H	1.488174	-0.196308	0.226103
O55	O	0.877955	-0.056328	0.000042
H56	H	0.955232	-0.134010	0.000055
H57	H	1.482005	-0.434048	-0.475236
H58	H	1.478801	-0.552900	-0.249168
H59	H	1.488320	-0.196346	-0.475237
H60	H	1.638823	0.338577	0.761040
H61	H	1.345668	0.045353	0.369562
O62	O	1.798494	0.498375	0.649504
H63	H	1.772028	0.598507	0.621918
O64	O	0.684808	0.406170	0.000074
H65	H	0.638195	0.503922	0.000077
O66	O	0.791931	0.647338	0.000088
H67	H	0.692167	0.625436	0.000112
H68	H	1.345709	0.045344	0.630604
H69	H	1.050629	0.623888	0.000046
