data_functionalizedCrystal
_audit_creation_method	'MofGen! by Chris Wilmer'
_symmetry_space_group_name_H-M	'P1'
_symmetry_Int_Tables_number	1
_symmetry_cell_setting	triclinic
loop_
_symmetry_equiv_pos_as_xyz
  x,y,z
_cell_length_a	18.426585
_cell_length_b	14.560438
_cell_length_c	14.560438
_cell_angle_alpha	59.996306
_cell_angle_beta	90.002442
_cell_angle_gamma	60.001220
loop_
_atom_site_label
_atom_site_type_symbol
_atom_site_fract_x
_atom_site_fract_y
_atom_site_fract_z
Zr1	Zr	0.699145	1.005279	-0.120540
O2	O	0.583263	1.196896	-0.267210
O3	O	0.734668	0.813668	-0.075570
O4	O	0.734667	1.005279	-0.267186
O5	O	0.583266	1.005281	0.075548
O6	O	0.854098	1.005273	-0.267178
O7	O	0.583264	1.005284	-0.075593
O8	O	0.854100	0.662515	0.075590
O9	O	0.583264	1.348039	-0.267219
O10	O	0.838949	0.892473	-0.056394
O11	O	0.749821	0.892476	0.056394
O12	O	0.749819	1.118074	-0.169210
O13	O	0.660690	1.118076	-0.056421
Zr14	Zr	0.889626	1.005264	0.120526
Zr15	Zr	0.889623	1.005268	-0.120526
Zr16	Zr	0.699148	1.005274	0.120512
Zr17	Zr	0.699146	1.246335	-0.120556
Zr18	Zr	0.889625	0.764207	0.120541
O19	O	0.854103	1.196875	0.075555
O20	O	0.854099	1.196881	-0.267190
O21	O	0.583267	1.196889	0.075536
O22	O	1.005508	0.813647	0.267195
O23	O	1.005504	0.813653	-0.075550
O24	O	0.734672	0.813661	0.267176
O25	O	1.005505	1.005261	-0.075562
O26	O	0.854104	1.005263	0.267172
O27	O	0.734673	1.005270	0.267163
O28	O	1.005507	1.005259	0.075579
O29	O	0.734669	1.348031	-0.267208
O30	O	0.854102	0.662511	0.267194
O31	O	1.005507	0.662503	0.267205
O32	O	1.005505	0.662507	0.075601
O33	O	0.583266	1.348036	-0.075615
O34	O	0.734671	1.348028	-0.075604
O35	O	0.838952	0.892469	0.169195
O36	O	0.928080	0.892466	0.056407
O37	O	0.838950	1.118067	-0.056409
O38	O	0.749822	1.118070	0.056380
C39	C	0.794384	0.703746	0.000012
C40	C	0.794383	0.601411	0.000019
C41	C	0.728585	0.636630	-0.083268
C42	C	0.728589	0.540490	-0.083297
C43	C	0.860193	0.373913	0.083259
C44	C	0.860192	0.470052	0.083282
C45	C	0.556126	1.005284	-0.000024
C46	C	0.475263	1.005288	-0.000030
C47	C	0.409592	1.005293	-0.000030
C48	C	0.327210	1.005288	-0.000020
C49	C	0.261553	1.005274	-0.000006
C50	C	0.179166	1.005268	0.000002
C51	C	1.032645	1.005258	0.000010
C52	C	1.113508	1.005254	0.000016
C53	C	0.794382	1.005277	-0.301527
C54	C	0.794380	1.005279	-0.403860
C55	C	0.794387	1.306797	-0.000027
C56	C	0.794388	1.409132	-0.000033
C57	C	0.747863	1.123030	-0.606979
C58	C	0.747855	1.123038	-0.510831
C59	C	0.840909	0.887503	-0.393038
C60	C	0.840912	0.887497	-0.489184
C61	C	0.794389	1.005266	0.301512
C62	C	0.794391	1.005264	0.403845
C63	C	1.032643	0.703733	0.000029
C64	C	1.113506	0.601394	0.000042
C65	C	0.794387	0.703740	0.301532
C66	C	0.794388	0.601403	0.403871
C67	C	1.032647	0.703727	0.301549
C68	C	1.113511	0.601386	0.403895
C69	C	0.556124	1.306815	-0.301563
C70	C	0.475260	1.409156	-0.403909
C71	C	0.556128	1.306809	-0.000044
C72	C	0.475265	1.409149	-0.000056
C73	C	0.794383	1.306802	-0.301546
C74	C	0.794383	1.409139	-0.403886
C75	C	1.104954	0.553338	-0.058843
C76	C	1.180926	0.457192	-0.058854
C77	C	1.265448	0.409098	0.000027
C78	C	1.273998	0.457164	0.058914
C79	C	1.198028	0.553314	0.058918
C80	C	1.198018	0.553324	0.393083
C81	C	1.274005	0.457177	0.489238
C82	C	1.265484	0.409087	0.596204
C83	C	1.180968	0.457159	0.607013
C84	C	1.104983	0.553311	0.510859
C85	C	0.390753	1.457230	-0.393097
C86	C	0.314766	1.553407	-0.489252
C87	C	0.323287	1.601502	-0.596218
C88	C	0.407803	1.553424	-0.607028
C89	C	0.483788	1.457255	-0.510874
C90	C	0.483817	1.457215	0.058819
C91	C	0.407845	1.553387	0.058803
C92	C	0.323323	1.601484	-0.000082
C93	C	0.314773	1.553414	-0.058964
C94	C	0.390743	1.457251	-0.058955
C95	C	0.840913	0.553320	0.510832
C96	C	0.840904	0.457172	0.606987
C97	C	0.747843	0.457197	0.489207
C98	C	0.747848	0.553349	0.393055
H99	H	0.913777	0.441364	0.151106
N100	N	0.574934	1.405404	-0.522543
H101	H	0.568793	1.450469	-0.604898
H102	H	0.608479	1.308882	-0.485220
H103	H	0.261408	1.679808	-0.674504
H104	H	0.709980	1.218924	-0.694075
H105	H	0.709966	1.218935	-0.519655
N106	N	0.891097	0.760488	-0.277665
H107	H	0.884042	0.778360	-0.218397
H108	H	0.956159	0.709073	-0.268764
N109	N	1.347385	0.305395	0.000016
H110	H	1.329133	0.282255	-0.046223
H111	H	1.383924	0.225665	0.079794
H112	H	1.327363	0.330794	0.674490
H113	H	1.036138	0.592495	-0.106806
H114	H	0.709953	0.418058	0.480414
H115	H	1.342827	0.417991	0.106854
N116	N	0.657619	0.778305	-0.173084
H117	H	0.667599	0.833869	-0.160434
H118	H	0.597244	0.797861	-0.169419
N119	N	0.891106	0.760469	-0.477510
H120	H	0.884045	0.778337	-0.554651
H121	H	0.866678	0.709043	-0.434989
N122	N	0.381539	1.405385	-0.277740
H123	H	0.410994	1.422109	-0.235220
H124	H	0.410965	1.308880	-0.235301
H125	H	1.173947	0.418069	-0.106807
N126	N	0.657626	0.578475	-0.173134
H127	H	0.615941	0.676277	-0.225875
H128	H	0.623121	0.542199	-0.136737
H129	H	1.205003	0.592429	0.106876
N130	N	0.223619	1.605222	-0.477574
H131	H	0.176769	1.673446	-0.554712
H132	H	0.216588	1.645020	-0.435039
N133	N	1.207221	0.605170	0.277720
H134	H	1.272291	0.560123	0.285478
H135	H	1.177720	0.701697	0.235245
H136	H	0.709957	0.592502	0.305957
H137	H	0.414730	1.592596	-0.694131
H138	H	1.342814	0.418047	0.480416
H139	H	0.552633	1.418061	0.106778
N140	N	0.241382	1.705197	-0.000086
H141	H	0.241354	1.784980	-0.033595
H142	H	0.241407	1.671608	0.079688
H143	H	0.913771	0.266952	0.151049
H144	H	0.245944	1.592590	-0.106907
H145	H	1.036176	0.592430	0.519678
H146	H	1.174043	0.417990	0.694118
H147	H	0.414824	1.592509	0.106757
H148	H	0.383768	1.418118	-0.106895
H149	H	0.878806	0.592447	0.519645
N150	N	0.891083	0.405311	0.722352
H151	H	0.920565	0.450347	0.714608
H152	H	0.937851	0.308783	0.764820
