data_functionalizedCrystal
_audit_creation_method	'MofGen! by Chris Wilmer'
_symmetry_space_group_name_H-M	'P1'
_symmetry_Int_Tables_number	1
_symmetry_cell_setting	triclinic
loop_
_symmetry_equiv_pos_as_xyz
  x,y,z
_cell_length_a	31.640172
_cell_length_b	31.640172
_cell_length_c	31.640172
_cell_angle_alpha	60.005009
_cell_angle_beta	90.008445
_cell_angle_gamma	60.004780
loop_
_atom_site_label
_atom_site_type_symbol
_atom_site_fract_x
_atom_site_fract_y
_atom_site_fract_z
Zr1	Zr	0.407245	0.462528	-0.055401
O2	O	0.339766	0.550695	-0.122890
O3	O	0.427922	0.374361	-0.034713
O4	O	0.427933	0.462517	-0.122880
O5	O	0.339756	0.462548	0.034825
O6	O	0.497490	0.462508	-0.122870
O7	O	0.339755	0.462539	-0.034724
O8	O	0.497471	0.304814	0.034844
O9	O	0.339776	0.620242	-0.122890
O10	O	0.488661	0.410619	-0.025882
O11	O	0.436752	0.410632	0.026014
O12	O	0.436764	0.514424	-0.077791
O13	O	0.384856	0.514437	-0.025894
Zr14	Zr	0.518182	0.462528	0.055535
Zr15	Zr	0.518180	0.462514	-0.055386
Zr16	Zr	0.407246	0.462542	0.055520
Zr17	Zr	0.407260	0.573448	-0.055400
Zr18	Zr	0.518166	0.351608	0.055534
O19	O	0.497504	0.550695	0.034847
O20	O	0.497502	0.550675	-0.122869
O21	O	0.339768	0.550715	0.034826
O22	O	0.585660	0.374361	0.123024
O23	O	0.585658	0.374341	-0.034692
O24	O	0.427924	0.374381	0.123003
O25	O	0.585670	0.462508	-0.034691
O26	O	0.497493	0.462539	0.123013
O27	O	0.427936	0.462548	0.123004
O28	O	0.585671	0.462517	0.034857
O29	O	0.427955	0.620231	-0.122878
O30	O	0.497472	0.304825	0.123012
O31	O	0.585651	0.304814	0.123023
O32	O	0.585649	0.304803	0.034856
O33	O	0.339777	0.620253	-0.034722
O34	O	0.427956	0.620242	-0.034710
O35	O	0.488662	0.410632	0.077924
O36	O	0.540571	0.410619	0.026028
O37	O	0.488675	0.514424	-0.025881
O38	O	0.436766	0.514437	0.026016
C39	C	0.462694	0.323784	0.000065
C40	C	0.462688	0.276695	0.000065
C41	C	0.489820	-0.015354	-0.027018
C42	C	0.489830	-0.192349	-0.027017
O43	O	0.512893	-0.215260	-0.050037
N44	N	0.462734	-0.214472	0.000071
C45	C	0.435635	-0.192345	0.027164
O46	O	0.412593	-0.215227	0.050208
C47	C	0.435628	-0.015353	0.027166
C48	C	0.462722	0.006771	0.000072
C49	C	0.516912	0.006770	-0.054109
C50	C	0.516907	0.051019	-0.054111
C51	C	0.489809	0.073143	-0.027022
C52	C	0.462717	0.051020	0.000070
C53	C	0.408533	0.006770	0.054262
C54	C	0.408535	0.051019	0.054261
C55	C	0.435629	0.073144	0.027167
C56	C	0.435614	0.117393	0.027157
N57	N	0.462711	0.139515	0.000069
C58	C	0.489808	0.117390	-0.027021
C59	C	0.435640	-0.285268	0.027160
C60	C	0.435641	-0.329515	0.027158
C61	C	0.489837	-0.329517	-0.027022
C62	C	0.489833	-0.285266	-0.027023
C63	C	0.462737	-0.263145	0.000072
C64	C	0.489795	0.210316	-0.027023
C65	C	0.489785	0.254570	-0.027025
C66	C	0.435592	0.254566	0.027158
C67	C	0.435599	0.210318	0.027157
C68	C	0.462704	0.188193	0.000066
O69	O	0.412568	0.140326	0.050170
O70	O	0.512857	0.140271	-0.050052
C71	C	0.489825	-0.059602	-0.027016
C72	C	0.462732	-0.081726	0.000076
C73	C	0.435635	-0.059601	0.027166
C74	C	0.462733	-0.125973	0.000075
C75	C	0.489831	-0.148098	-0.027015
C76	C	0.516928	-0.125976	-0.054103
C77	C	0.516922	-0.081727	-0.054105
C78	C	0.408538	-0.081724	0.054254
C79	C	0.408545	-0.125972	0.054253
C80	C	0.435643	-0.148097	0.027164
C81	C	0.323950	0.462545	0.000048
C82	C	0.276855	0.462551	0.000042
C83	C	0.011938	0.408337	0.027173
C84	C	-0.165047	0.408327	0.027183
O85	O	-0.164894	0.362244	0.050246
N86	N	-0.214266	0.462511	0.000087
C87	C	-0.219238	0.516703	-0.027011
O88	O	-0.265163	0.562790	-0.050054
C89	C	-0.042253	0.516712	-0.027018
C90	C	0.006965	0.462524	0.000076
C91	C	0.061154	0.354153	0.054266
C92	C	0.105398	0.354156	0.054260
C93	C	0.100425	0.408343	0.027163
C94	C	0.051208	0.462527	0.000071
C95	C	-0.047226	0.570903	-0.054113
C96	C	-0.002974	0.570901	-0.054111
C97	C	0.046244	0.516712	-0.027017
C98	C	0.090479	0.516717	-0.027032
N99	N	0.139698	0.462533	0.000065
C100	C	0.144671	0.408346	0.027162
C101	C	-0.312155	0.516694	-0.027007
C102	C	-0.356401	0.516691	-0.027006
C103	C	-0.302207	0.408315	0.027190
C104	C	-0.257961	0.408318	0.027186
C105	C	-0.262936	0.462509	0.000090
C106	C	0.237583	0.408356	0.027149
C107	C	0.281828	0.408364	0.027140
C108	C	0.227630	0.516740	-0.027054
C109	C	0.183389	0.516732	-0.027047
C110	C	0.188369	0.462536	0.000058
O111	O	0.090366	0.562776	-0.050078
O112	O	0.190600	0.362265	0.050211
C113	C	-0.032305	0.408334	0.027178
C114	C	-0.081522	0.462518	0.000086
C115	C	-0.086494	0.516705	-0.027011
C116	C	-0.125768	0.462516	0.000087
C117	C	-0.120795	0.408329	0.027184
C118	C	-0.071576	0.354144	0.054281
C119	C	-0.027332	0.354147	0.054276
C120	C	-0.135713	0.570890	-0.054108
C121	C	-0.179955	0.570882	-0.054101
C122	C	-0.174982	0.516695	-0.027004
C123	C	0.601477	0.462510	0.000085
C124	C	0.648572	0.462504	0.000092
C125	C	0.462711	0.462510	-0.138679
C126	C	0.462711	0.462504	-0.185768
C127	C	0.462732	0.601272	0.000068
C128	C	0.462739	0.648361	0.000069
C129	C	0.435629	0.516719	-0.504899
C130	C	0.435629	0.516729	-0.681894
O131	O	0.412610	0.562812	-0.727825
N132	N	0.462718	0.462544	-0.676929
C133	C	0.489810	0.408353	-0.627709
O134	O	0.512855	0.362266	-0.627547
C135	C	0.489812	0.408343	-0.450715
C136	C	0.462718	0.462532	-0.455685
C137	C	0.408537	0.570903	-0.509867
C138	C	0.408535	0.570899	-0.465620
C139	C	0.435624	0.516712	-0.416406
C140	C	0.462716	0.462528	-0.411438
C141	C	0.516908	0.354153	-0.401497
C142	C	0.516907	0.354155	-0.357248
C143	C	0.489813	0.408343	-0.362218
C144	C	0.489803	0.408338	-0.317978
N145	N	0.462715	0.462523	-0.322944
C146	C	0.435626	0.516710	-0.372158
C147	C	0.489806	0.408362	-0.720636
C148	C	0.489805	0.408364	-0.764884
C149	C	0.435625	0.516740	-0.819066
C150	C	0.435623	0.516738	-0.774817
C151	C	0.462718	0.462547	-0.725602
C152	C	0.435623	0.516699	-0.279235
C153	C	0.435621	0.516691	-0.234982
C154	C	0.489804	0.408316	-0.180804
C155	C	0.489803	0.408323	-0.225053
C156	C	0.462712	0.462520	-0.274270
O157	O	0.512816	0.362280	-0.272033
O158	O	0.412594	0.562790	-0.372309
C159	C	0.435631	0.516722	-0.549145
C160	C	0.462722	0.462538	-0.544178
C161	C	0.489812	0.408351	-0.494964
C162	C	0.462721	0.462540	-0.588426
C163	C	0.435632	0.516727	-0.637640
C164	C	0.408544	0.570912	-0.642606
C165	C	0.408541	0.570909	-0.598360
C166	C	0.516900	0.354166	-0.489998
C167	C	0.516900	0.354174	-0.534247
C168	C	0.489810	0.408361	-0.583461
C169	C	0.462715	0.462545	0.138813
C170	C	0.462716	0.462551	0.185902
C171	C	0.601457	0.323766	0.000084
C172	C	0.648546	0.276672	0.000090
C173	C	0.462696	0.323801	0.138811
C174	C	0.462690	0.276718	0.185900
C175	C	0.601459	0.323784	0.138830
C176	C	0.648549	0.276695	0.185924
C177	C	0.323967	0.601272	-0.138696
C178	C	0.276878	0.648361	-0.185791
C179	C	0.323969	0.601290	0.000050
C180	C	0.276880	0.648384	0.000044
C181	C	0.462730	0.601255	-0.138677
C182	C	0.462736	0.648337	-0.185766
C183	C	0.643563	0.254556	-0.027009
C184	C	0.687803	0.210311	-0.027014
C185	C	0.737026	0.188181	0.000083
C186	C	0.742009	0.210302	0.027182
C187	C	0.697769	0.254548	0.027184
C188	C	0.489784	0.254608	0.235114
C189	C	0.489777	0.210375	0.279363
C190	C	0.462678	0.188250	0.274396
C191	C	0.435581	0.210365	0.225177
C192	C	0.435586	0.254600	0.180929
C193	C	0.697763	0.254575	0.180951
C194	C	0.742012	0.210336	0.225198
C195	C	0.737047	0.188216	0.274417
C196	C	0.687827	0.210340	0.279389
C197	C	0.643579	0.254581	0.235143
C198	C	0.227664	0.670486	-0.180818
C199	C	0.183414	0.714738	-0.225064
C200	C	0.188380	0.736861	-0.274283
C201	C	0.237599	0.714734	-0.279255
C202	C	0.281848	0.670486	-0.235009
C203	C	0.281864	0.670505	0.027138
C204	C	0.237623	0.714761	0.027131
C205	C	0.188400	0.736893	0.000032
C206	C	0.183418	0.714770	-0.027065
C207	C	0.227658	0.670518	-0.027060
C208	C	0.489840	0.670448	-0.180783
C209	C	0.489856	0.714681	-0.225023
C210	C	0.462764	0.736806	-0.274246
C211	C	0.435659	0.714691	-0.279229
C212	C	0.435647	0.670455	-0.234989
H213	H	0.538980	-0.011241	-0.076168
H214	H	0.413524	0.272597	0.140858
H215	H	0.462679	0.152231	0.310430
H216	H	0.701834	0.272549	0.049254
H217	H	0.782085	0.192327	0.221140
H218	H	0.413518	0.192345	0.221141
H219	H	0.413555	0.560820	-0.239035
H220	H	0.511901	0.652441	-0.140707
H221	H	0.683736	0.192306	-0.049081
H222	H	0.321904	0.364236	0.049204
H223	H	0.511927	0.732682	-0.220956
H224	H	0.241636	0.732752	-0.319334
H225	H	-0.067533	0.310023	0.076341
H226	H	0.321919	0.652471	-0.239064
H227	H	0.773081	0.152192	0.310440
H228	H	0.152381	0.772926	0.000033
H229	H	0.143334	0.732797	-0.049128
H230	H	0.683792	0.192323	0.319469
H231	H	0.511851	0.272617	0.239168
H232	H	0.511844	0.192374	0.319435
H233	H	0.511861	0.364239	-0.760831
H234	H	0.241690	0.732766	0.049198
H235	H	0.511872	0.364231	-0.680564
H236	H	0.773045	0.152152	0.000078
H237	H	0.223593	0.652508	-0.049122
H238	H	0.701816	0.272579	0.140879
H239	H	0.462778	0.772825	-0.310265
H240	H	0.782092	0.192277	0.049243
H241	H	0.413602	0.732712	-0.319312
H242	H	0.603508	0.272585	0.239199
H243	H	0.538961	0.310044	-0.530192
H244	H	0.223610	0.652476	-0.140745
H245	H	0.413575	-0.267261	0.049225
H246	H	0.143342	0.732747	-0.221006
H247	H	0.413563	0.560832	-0.319305
H248	H	0.413565	0.560862	-0.859145
H249	H	0.413573	0.652458	-0.239053
H250	H	0.152346	0.772891	-0.310306
H251	H	0.511848	0.272584	-0.049090
H252	H	0.386478	0.615031	-0.549936
H253	H	0.538972	0.310027	-0.397440
H254	H	0.321940	0.652488	0.049208
H255	H	-0.396474	0.560817	-0.049075
H256	H	0.538972	0.310025	-0.317176
H257	H	0.538971	0.069028	-0.076172
H258	H	0.511867	0.192306	-0.049083
H259	H	0.511895	-0.267255	-0.049086
H260	H	0.413530	0.192311	0.049213
H261	H	0.511900	-0.347537	-0.049080
H262	H	0.511857	0.364198	-0.140727
H263	H	0.413572	-0.347518	0.049215
H264	H	0.386471	-0.011237	0.076326
H265	H	0.012740	0.310021	0.076340
H266	H	0.413528	0.272590	0.049212
H267	H	0.241645	0.364224	0.049221
H268	H	0.386468	0.069028	0.076325
H269	H	0.511858	0.364199	-0.221005
H270	H	0.538985	-0.063717	-0.076168
H271	H	0.413560	0.560862	-0.778869
H272	H	-0.217888	0.364193	0.049253
H273	H	-0.316215	0.560825	-0.049075
H274	H	0.538989	-0.143995	-0.076163
H275	H	0.386477	-0.143978	0.076315
H276	H	0.065212	0.310025	0.076334
H277	H	0.386473	-0.063715	0.076315
H278	H	0.145470	0.310031	0.076321
H279	H	-0.298165	0.364194	0.049251
H280	H	-0.087295	0.615029	-0.076176
H281	H	0.143312	0.560857	-0.049116
H282	H	-0.007032	0.615030	-0.076170
H283	H	0.223590	0.560858	-0.049118
H284	H	0.386474	0.615025	-0.469673
H285	H	-0.139771	0.615016	-0.076175
H286	H	0.386478	0.615035	-0.602413
H287	H	0.386484	0.615033	-0.682685
H288	H	0.538961	0.310040	-0.449929
H289	H	-0.220029	0.615012	-0.076169
H290	H	0.603486	0.272574	-0.049081
