data_functionalizedCrystal
_audit_creation_method	'MofGen! by Chris Wilmer'
_symmetry_space_group_name_H-M	'P1'
_symmetry_Int_Tables_number	1
_symmetry_cell_setting	triclinic
loop_
_symmetry_equiv_pos_as_xyz
  x,y,z
_cell_length_a	14.519709
_cell_length_b	14.853566
_cell_length_c	13.930277
_cell_angle_alpha	90.004369
_cell_angle_beta	90.001645
_cell_angle_gamma	96.342721
loop_
_atom_site_label
_atom_site_type_symbol
_atom_site_fract_x
_atom_site_fract_y
_atom_site_fract_z
O1	O	-0.120399	1.196416	0.079754
O2	O	0.379601	1.696416	0.579754
O3	O	-0.134743	0.933962	0.079768
O4	O	0.365257	1.433962	0.579768
O5	O	0.006670	1.072147	0.079769
O6	O	0.506670	1.572147	0.579769
O7	O	-0.261813	1.058230	0.079753
O8	O	0.238187	1.558230	0.579753
O9	O	0.006673	1.072128	-0.079892
O10	O	0.506673	1.572128	0.420108
O11	O	-0.134740	0.933943	-0.079894
O12	O	0.365260	1.433943	0.420106
O13	O	-0.120396	1.196397	-0.079908
O14	O	0.379604	1.696397	0.420092
Zn15	Zn	-0.127568	1.065166	-0.105251
Zn16	Zn	0.372432	1.565166	0.394749
Zn17	Zn	-0.127572	1.065192	0.105111
Zn18	Zn	0.372428	1.565192	0.605111
O19	O	-0.261810	1.058211	-0.079909
O20	O	0.238190	1.558211	0.420091
C21	C	-0.134092	0.900363	-0.000061
C22	C	0.365908	1.400363	0.499939
C23	C	-0.132145	0.800279	-0.000055
C24	C	0.367855	1.300279	0.499945
C25	C	-0.123911	0.377101	0.086961
C26	C	0.376089	0.877101	0.586961
C27	C	-0.123909	0.377101	-0.087109
C28	C	0.376091	0.877101	0.412891
C29	C	-0.125737	0.471136	-0.087106
C30	C	0.374263	0.971136	0.412894
C31	C	-0.126654	0.518158	-0.000068
C32	C	0.373346	1.018158	0.499932
C33	C	-0.125743	0.471144	0.086966
C34	C	0.374257	0.971144	0.586966
C35	C	-0.126658	0.518156	-0.174139
C36	C	0.373342	1.018156	0.325861
C37	C	-0.128488	0.612196	-0.174140
C38	C	0.371512	1.112196	0.325860
C39	C	-0.129398	0.659220	-0.087101
C40	C	0.370602	1.159220	0.412899
C41	C	-0.128485	0.612201	-0.000063
C42	C	0.371515	1.112201	0.499937
C43	C	-0.129402	0.659222	0.086975
C44	C	0.370598	1.159222	0.586975
C45	C	-0.128483	0.612206	0.174014
C46	C	0.371517	1.112206	0.674014
C47	C	-0.126653	0.518168	0.174005
C48	C	0.373347	1.018168	0.674005
C49	C	-0.131228	0.753257	-0.087092
C50	C	0.368772	1.253257	0.412908
C51	C	-0.131234	0.753265	0.086980
C52	C	0.368766	1.253265	0.586980
C53	C	-0.296171	1.058869	-0.000081
C54	C	0.203829	1.558869	0.499919
C55	C	-0.398551	1.060813	-0.000087
C56	C	0.101449	1.560813	0.499913
C57	C	-0.773444	1.067968	-0.000049
C58	C	-0.273444	1.567968	0.499951
C59	C	-0.669137	1.065981	-0.000060
C60	C	-0.169137	1.565981	0.499940
C61	C	-0.586001	1.064391	-0.000069
C62	C	-0.086001	1.564391	0.499931
C63	C	-0.481687	1.062403	-0.000078
C64	C	0.018313	1.562403	0.499922
C65	C	0.041031	1.071489	-0.000057
C66	C	0.541031	1.571489	0.499943
C67	C	0.143412	1.069546	-0.000044
C68	C	0.643412	1.569546	0.499956
C69	C	-0.121047	1.229995	-0.000077
C70	C	0.378953	1.729995	0.499923
C71	C	-0.122994	1.330080	-0.000077
C72	C	0.377006	1.830080	0.499923
N73	N	-0.127564	1.065156	-0.248817
N74	N	0.372436	1.565156	0.251183
C75	C	-0.190165	1.004001	-0.701087
C76	C	0.309835	1.504001	-0.201087
C77	C	-0.064971	1.126408	-0.701055
C78	C	0.435029	1.626408	-0.201055
C79	C	-0.064968	1.126397	-0.600559
C80	C	0.435032	1.626397	-0.100559
C81	C	-0.127566	1.065188	-0.550322
C82	C	0.372434	1.565188	-0.050322
C83	C	-0.190166	1.003990	-0.600582
C84	C	0.309834	1.503990	-0.100582
C85	C	-0.002376	1.187600	-0.550293
C86	C	0.497624	1.687600	-0.050293
C87	C	-0.002371	1.187592	-0.449791
C88	C	0.497629	1.687592	0.050209
C89	C	-0.064965	1.126379	-0.399552
C90	C	0.435035	1.626379	0.100448
C91	C	-0.127567	1.065177	-0.449817
C92	C	0.372433	1.565177	0.050183
C93	C	-0.190164	1.003969	-0.399581
C94	C	0.309836	1.503969	0.100419
C95	C	-0.252762	0.942762	-0.449844
C96	C	0.247238	1.442762	0.050156
C97	C	-0.252760	0.942776	-0.550343
C98	C	0.247240	1.442776	-0.050343
C99	C	-0.064967	1.126365	-0.299053
C100	C	0.435033	1.626365	0.200947
C101	C	-0.190165	1.003958	-0.299076
C102	C	0.309835	1.503958	0.200924
N103	N	-0.127568	1.065210	0.248677
N104	N	0.372432	1.565210	0.748677
H105	H	-0.123159	0.338816	0.157826
H106	H	0.376841	0.838816	0.657826
H107	H	-0.241136	0.954111	-0.258179
H108	H	0.258864	1.454111	0.241821
H109	H	-0.303733	0.892929	-0.408930
H110	H	0.196267	1.392929	0.091070
H111	H	-0.303726	0.892945	-0.591274
H112	H	0.196274	1.392945	-0.091274
H113	H	-0.129234	0.650469	-0.245012
H114	H	0.370766	1.150469	0.254988
H115	H	-0.014005	1.176202	-0.258133
H116	H	0.485995	1.676202	0.241867
H117	H	-0.129236	0.650502	0.244880
H118	H	0.370764	1.150502	0.744880
H119	H	-0.131986	0.791533	-0.157958
H120	H	0.368014	1.291533	0.342042
H121	H	-0.125917	0.479863	-0.245000
H122	H	0.374083	0.979863	0.255000
H123	H	-0.123168	0.338810	-0.157971
H124	H	0.376832	0.838810	0.342029
H125	H	-0.241129	0.954165	-0.742014
H126	H	0.258871	1.454165	-0.242014
H127	H	-0.014011	1.176247	-0.741961
H128	H	0.485989	1.676247	-0.241961
H129	H	0.048585	1.237439	-0.591198
H130	H	0.548585	1.737439	-0.091198
H131	H	0.048600	1.237429	-0.408872
H132	H	0.548600	1.737429	0.091128
H133	H	-0.131977	0.791544	0.157858
H134	H	0.368023	1.291544	0.657858
H135	H	-0.125904	0.479879	0.244867
H136	H	0.374096	0.979879	0.744867
