data_functionalizedCrystal
_audit_creation_method	'MofGen! by Chris Wilmer'
_symmetry_space_group_name_H-M	'P1'
_symmetry_Int_Tables_number	1
_symmetry_cell_setting	triclinic
loop_
_symmetry_equiv_pos_as_xyz
  x,y,z
_cell_length_a	12.594517
_cell_length_b	19.121063
_cell_length_c	12.594509
_cell_angle_alpha	92.405810
_cell_angle_beta	89.978673
_cell_angle_gamma	92.468805
loop_
_atom_site_label
_atom_site_type_symbol
_atom_site_fract_x
_atom_site_fract_y
_atom_site_fract_z
Zn1	Zn	1.609106	-0.279596	-0.619881
Zn2	Zn	1.601367	-0.397059	-0.449473
Zn3	Zn	1.431108	-0.279626	-0.441911
Zn4	Zn	1.423466	-0.397010	-0.627400
O5	O	1.516262	-0.338323	-0.534666
O6	O	1.757025	-0.295185	-0.597293
O7	O	1.578742	-0.381514	-0.299526
O8	O	1.461157	-0.181338	-0.459208
O9	O	1.751339	-0.381485	-0.472096
O10	O	1.591931	-0.181315	-0.589961
O11	O	1.453653	-0.295237	-0.293971
O12	O	1.281149	-0.295189	-0.466499
O13	O	1.448132	-0.381402	-0.775346
O14	O	1.275534	-0.381431	-0.602777
O15	O	1.584521	-0.295138	-0.769822
O16	O	1.571331	-0.495337	-0.479386
O17	O	1.440628	-0.495301	-0.610109
C18	C	1.239722	-0.338309	-0.534634
C19	C	1.121416	-0.338319	-0.534646
C20	C	1.504339	-0.520803	-0.546407
C21	C	1.499336	-0.598868	-0.551466
C22	C	1.055190	-0.291349	-0.460657
C23	C	0.980217	-0.355414	-0.438606
C24	C	0.985587	-0.274285	-0.556717
C25	C	1.047999	-0.402419	-0.512547
C26	C	1.053378	-0.321246	-0.630701
C27	C	0.978435	-0.385356	-0.608690
C28	C	1.565089	-0.635539	-0.485838
C29	C	1.560390	-0.708890	-0.490602
C30	C	1.489932	-0.745569	-0.560988
C31	C	1.424176	-0.708893	-0.626623
C32	C	1.428881	-0.635544	-0.621864
C33	C	1.472323	-0.967038	-0.578765
C34	C	1.467620	-1.040393	-0.583517
C35	C	1.603835	-1.040385	-0.447497
C36	C	1.608530	-0.967034	-0.442740
C37	C	1.542779	-0.930365	-0.508378
C38	C	1.485124	-0.820546	-0.565857
C39	C	1.547592	-0.855389	-0.503514
C40	C	1.793882	-0.338337	-0.534699
C41	C	1.912187	-0.338343	-0.534713
C42	C	1.516337	-0.338261	-0.812283
C43	C	1.516369	-0.338235	-0.930587
C44	C	1.528260	-0.155130	-0.522903
C45	C	1.533373	-0.077064	-0.517890
C46	C	1.442211	-0.385127	-1.002843
C47	C	1.538217	-0.402288	-1.074740
C48	C	1.420442	-0.321032	-1.069487
C49	C	1.612424	-0.355429	-1.000927
C50	C	1.494585	-0.274143	-0.995667
C51	C	1.590659	-0.291280	-1.067530
C52	C	1.516251	-0.338333	-0.258126
C53	C	1.516438	-0.338162	-0.139810
H54	H	1.088788	-0.251666	-0.398014
Cl55	Cl	1.345454	-0.446443	-0.958838
H56	H	1.556680	-0.456457	-1.109336
Cl57	Cl	1.102975	-0.298900	-0.756035
H58	H	0.948119	-0.369870	-0.357403
Cl59	Cl	1.737747	-0.377951	-0.954588
H60	H	1.653471	-0.251593	-1.095834
Cl61	Cl	1.090330	-0.486067	-0.483621
H62	H	1.665902	-0.937172	-0.385426
H63	H	1.476092	-0.219990	-0.961048
Cl64	Cl	0.926847	-0.446767	-0.705344
H65	H	0.957978	-0.220129	-0.575322
Cl66	Cl	1.653663	-0.589436	-0.397341
H67	H	1.427755	-0.850418	-0.623164
Cl68	Cl	1.643058	-0.754988	-0.408099
H69	H	1.339288	-0.306512	-1.099641
H70	H	1.657368	-1.070249	-0.394060
H71	H	1.410257	-1.070255	-0.640852
H72	H	1.418783	-0.937188	-0.632208
Cl73	Cl	1.335606	-0.755004	-0.715115
H74	H	1.375340	-0.605687	-0.675306
Cl75	Cl	1.636169	-0.809278	-0.415036
