data_functionalizedCrystal
_audit_creation_method	'MofGen! by Chris Wilmer'
_symmetry_space_group_name_H-M	'P1'
_symmetry_Int_Tables_number	1
_symmetry_cell_setting	triclinic
loop_
_symmetry_equiv_pos_as_xyz
  x,y,z
_cell_length_a	12.827893
_cell_length_b	12.827892
_cell_length_c	21.395355
_cell_angle_alpha	90.013329
_cell_angle_beta	90.022372
_cell_angle_gamma	90.015363
loop_
_atom_site_label
_atom_site_type_symbol
_atom_site_fract_x
_atom_site_fract_y
_atom_site_fract_z
Zn1	Zn	1.597703	-0.416155	0.354248
Zn2	Zn	1.597588	-0.590882	0.249480
Zn3	Zn	1.422935	-0.416155	0.249488
Zn4	Zn	1.422930	-0.590855	0.354224
O5	O	1.510289	-0.503511	0.301860
O6	O	1.743924	-0.439344	0.340356
O7	O	1.574373	-0.567715	0.161803
O8	O	1.446169	-0.269919	0.263398
O9	O	1.743839	-0.567715	0.263384
O10	O	1.574571	-0.269919	0.340365
O11	O	1.446056	-0.439344	0.161809
O12	O	1.276698	-0.439318	0.263375
O13	O	1.446161	-0.567669	0.441905
O14	O	1.276695	-0.567669	0.340324
O15	O	1.574566	-0.439318	0.441922
O16	O	1.574368	-0.737114	0.263361
O17	O	1.446048	-0.737094	0.340316
C18	C	1.238779	-0.503491	0.301848
C19	C	1.122626	-0.503508	0.301858
C20	C	0.950839	-0.440117	0.340016
C21	C	1.070889	-0.440099	0.340006
C22	C	1.510224	-0.775021	0.301848
C23	C	1.510291	-0.891175	0.301864
C24	C	1.573800	-0.942876	0.339984
C25	C	1.573872	-1.062926	0.340001
C26	C	1.782859	-0.503532	0.301872
C27	C	1.899012	-0.503541	0.301877
C28	C	1.510376	-0.503490	0.465283
C29	C	1.510413	-0.503481	0.534924
C30	C	1.510383	-0.230941	0.301885
C31	C	1.510423	-0.114788	0.301896
C32	C	1.510263	-0.503457	0.139072
C33	C	1.510428	-0.503172	0.069431
C34	C	1.577270	-0.436646	0.567648
C35	C	1.577269	-0.436601	0.633083
C36	C	1.510421	-0.503410	0.665793
C37	C	1.443550	-0.570250	0.633062
C38	C	1.443546	-0.570286	0.567627
C39	C	1.502147	-0.597504	0.769464
C40	C	1.502158	-0.597470	0.834897
C41	C	1.510427	-0.503300	0.867614
C42	C	1.518707	-0.409160	0.834890
C43	C	1.518703	-0.409196	0.769455
C44	C	1.510417	-0.503378	0.736745
C45	C	1.577287	-0.436410	0.971289
C46	C	1.577278	-0.436363	1.036726
C47	C	1.443565	-0.570022	1.036703
C48	C	1.443568	-0.570059	0.971268
C49	C	1.510435	-0.503255	0.938565
H50	H	1.115459	-0.385794	0.372656
N51	N	1.438397	-1.055902	0.258664
H52	H	1.363716	-1.074897	0.268347
H53	H	1.454747	-1.074887	0.213915
H54	H	1.631717	-0.382248	0.541025
H55	H	1.455967	-0.935788	0.269245
N56	N	0.957946	-0.575457	0.258611
H57	H	1.003249	-0.623900	0.284044
H58	H	1.003151	-0.532795	0.229648
N59	N	1.645906	-1.121809	0.383230
H60	H	1.635748	-1.199222	0.377114
H61	H	1.629610	-1.102766	0.427977
N62	N	1.645747	-0.883794	0.383206
H63	H	1.635494	-0.806409	0.377069
H64	H	1.720420	-0.902757	0.373510
N65	N	1.649381	-0.364512	0.668388
H66	H	1.691739	-0.322197	0.637742
H67	H	1.697723	-0.407048	0.695549
N68	N	1.527635	-0.307670	0.734159
H69	H	1.532878	-0.248004	0.764809
H70	H	1.463967	-0.297977	0.706995
N71	N	1.527637	-0.307581	0.870166
H72	H	1.526379	-0.321838	0.916584
H73	H	1.467224	-0.260860	0.858711
N74	N	1.371440	-0.642144	0.935980
H75	H	1.387632	-0.716808	0.947374
H76	H	1.381596	-0.631946	0.889574
H77	H	1.631728	-0.382008	0.944661
H78	H	1.631720	-0.381932	1.063368
H79	H	1.078063	-0.557808	0.269203
N80	N	1.371454	-0.642073	1.071973
H81	H	1.381597	-0.631908	1.118392
H82	H	1.387689	-0.716716	1.060545
N83	N	1.493236	-0.699000	0.870189
H84	H	1.487984	-0.758661	0.839536
H85	H	1.428851	-0.697472	0.897326
H86	H	1.495133	-0.674169	0.742831
N87	N	0.891899	-0.368210	0.383283
H88	H	0.814494	-0.378417	0.377157
H89	H	0.910922	-0.293532	0.373616
H90	H	1.389119	-0.624643	0.659698
H91	H	1.389098	-0.624709	0.540985
