data_functionalizedCrystal
_audit_creation_method	'MofGen! by Chris Wilmer'
_symmetry_space_group_name_H-M	'P1'
_symmetry_Int_Tables_number	1
_symmetry_cell_setting	triclinic
loop_
_symmetry_equiv_pos_as_xyz
  x,y,z
_cell_length_a	16.974829
_cell_length_b	10.654550
_cell_length_c	16.053802
_cell_angle_alpha	92.591674
_cell_angle_beta	83.771117
_cell_angle_gamma	83.940492
loop_
_atom_site_label
_atom_site_type_symbol
_atom_site_fract_x
_atom_site_fract_y
_atom_site_fract_z
O1	O	1.056731	0.149369	-0.140826
O2	O	0.825893	0.170935	-0.125230
O3	O	0.946619	-0.022697	-0.133383
O4	O	0.936005	0.343000	-0.132672
O5	O	0.939974	-0.012082	0.005924
O6	O	0.819248	0.181549	0.014077
O7	O	1.050085	0.159983	-0.001518
Zn8	Zn	0.933612	0.172451	0.028398
Zn9	Zn	0.942367	0.158467	-0.155146
O10	O	0.929359	0.353615	0.006635
C11	C	0.793013	0.175617	-0.053580
C12	C	0.704940	0.173741	-0.047630
C13	C	0.208792	0.163844	-0.005985
C14	C	0.291545	0.165606	-0.011577
C15	C	0.336546	0.160692	-0.090312
C16	C	0.298787	0.154028	-0.163458
C17	C	0.216034	0.152274	-0.157865
C18	C	0.584429	0.165323	-0.115183
C19	C	0.667188	0.167074	-0.120770
C20	C	0.659940	0.178654	0.031111
C21	C	0.577186	0.176893	0.036697
C22	C	0.539434	0.170235	-0.036449
N23	N	0.421134	0.162490	-0.096030
N24	N	0.454847	0.168447	-0.030730
C25	C	0.942517	-0.064171	-0.063678
C26	C	0.940186	-0.203567	-0.063523
C27	C	1.011267	-0.284518	-0.068323
C28	C	1.009072	-0.415494	-0.068180
C29	C	0.864707	-0.384555	-0.058435
C30	C	0.866903	-0.253582	-0.058583
C31	C	1.084549	-0.234503	-0.073263
C32	C	1.155637	-0.315456	-0.078062
C33	C	1.153441	-0.446432	-0.077920
C34	C	1.080158	-0.496455	-0.072978
C35	C	1.082966	0.155301	-0.073170
C36	C	1.171039	0.157176	-0.079126
C37	C	0.933462	0.395089	-0.063072
C38	C	0.935793	0.534484	-0.063232
N39	N	0.927642	0.181995	0.153661
N40	N	0.948343	0.148913	-0.280410
C41	C	0.979030	0.099633	0.193885
C42	C	0.974862	0.106321	0.281573
C43	C	0.919309	0.195377	0.329036
C44	C	0.867915	0.277742	0.288807
C45	C	0.872080	0.271047	0.201120
C46	C	0.901115	0.224584	0.591674
C47	C	0.896955	0.231274	0.679367
C48	C	1.003901	0.059851	0.672127
C49	C	1.008065	0.053170	0.584439
C50	C	0.956668	0.135530	0.544217
N51	N	0.915048	0.202217	0.418667
N52	N	0.960925	0.128683	0.454588
H53	H	0.172158	0.167851	0.058129
O54	O	0.797932	-0.174762	-0.053958
C55	C	0.815587	-0.048437	-0.055130
H56	H	0.879180	-0.045858	-0.085714
H57	H	0.772255	0.008143	-0.092518
H58	H	0.809601	-0.005446	0.011892
H59	H	0.553702	0.159898	-0.174744
O60	O	0.328196	0.171856	0.059497
C61	C	0.314136	0.066211	0.106505
H62	H	0.299369	-0.013670	0.063213
H63	H	0.369725	0.033489	0.137089
H64	H	0.261944	0.093384	0.157225
H65	H	0.805043	-0.425295	-0.054410
H66	H	1.024271	0.027120	0.155246
O67	O	0.533579	0.181507	0.113230
C68	C	0.559972	0.076690	0.157487
H69	H	0.623878	0.040062	0.131638
H70	H	0.557614	0.106503	0.226892
H71	H	0.519768	-0.001253	0.149719
H72	H	0.690687	0.184077	0.090662
H73	H	1.211324	-0.512341	-0.081836
O74	O	1.078130	-0.623716	-0.072963
C75	C	1.120414	-0.681442	-0.147749
H76	H	1.164976	-0.616828	-0.174732
H77	H	1.153654	-0.775438	-0.133826
H78	H	1.076805	-0.698740	-0.195163
H79	H	1.086345	-0.127858	-0.073377
O80	O	0.710778	0.162367	-0.197324
C81	C	0.659715	0.156092	-0.260687
H82	H	0.596599	0.196285	-0.234232
H83	H	0.681461	0.213530	-0.315089
H84	H	0.659794	0.053392	-0.283976
O85	O	1.024872	0.026272	0.320510
C86	C	1.074791	-0.053775	0.259816
H87	H	1.078926	-0.007066	0.197225
H88	H	1.136832	-0.071349	0.280861
H89	H	1.048983	-0.147636	0.252283
H90	H	0.851714	0.303800	0.718008
H91	H	1.053300	-0.019347	0.545796
H92	H	1.045745	-0.007204	0.704883
H93	H	0.859267	0.291647	0.558933
O94	O	0.342621	0.149207	-0.239875
C95	C	0.423755	0.152212	-0.229130
H96	H	0.435008	0.117675	-0.164835
H97	H	0.462214	0.088214	-0.280068
H98	H	0.439650	0.253172	-0.233798
H99	H	0.830233	0.338113	0.168372
O100	O	0.179488	0.145741	-0.228997
C101	C	0.236947	0.141812	-0.299690
H102	H	0.297938	0.104997	-0.281623
H103	H	0.220264	0.076301	-0.351503
H104	H	0.239102	0.240959	-0.323110
O105	O	1.226750	-0.266657	-0.082824
C106	C	1.213449	-0.133698	-0.081942
H107	H	1.150457	-0.100508	-0.051398
H108	H	1.258453	-0.090725	-0.044665
H109	H	1.220683	-0.102348	-0.149047
O110	O	0.814020	0.364213	0.335034
C111	C	0.821350	0.352445	0.421055
H112	H	0.883588	0.306052	0.428778
H113	H	0.811463	0.450144	0.454933
H114	H	0.774927	0.291627	0.449015
