data_functionalizedCrystal
_audit_creation_method	'MofGen! by Chris Wilmer'
_symmetry_space_group_name_H-M	'P1'
_symmetry_Int_Tables_number	1
_symmetry_cell_setting	triclinic
loop_
_symmetry_equiv_pos_as_xyz
  x,y,z
_cell_length_a	16.109302
_cell_length_b	19.188924
_cell_length_c	15.186229
_cell_angle_alpha	89.994194
_cell_angle_beta	89.994701
_cell_angle_gamma	83.301872
loop_
_atom_site_label
_atom_site_type_symbol
_atom_site_fract_x
_atom_site_fract_y
_atom_site_fract_z
O1	O	1.102830	0.089747	-0.073272
O2	O	1.602830	0.589747	0.426728
O3	O	0.860731	0.100915	-0.073266
O4	O	1.360731	0.600915	0.426734
O5	O	0.988770	-0.006309	-0.073259
O6	O	1.488770	0.493691	0.426741
O7	O	0.974791	0.196970	-0.073279
O8	O	1.474791	0.696970	0.426721
O9	O	0.988762	-0.006311	0.073199
O10	O	1.488762	0.493689	0.573199
O11	O	0.860722	0.100913	0.073192
O12	O	1.360722	0.600913	0.573192
O13	O	1.102822	0.089745	0.073185
O14	O	1.602822	0.589745	0.573185
Zn15	Zn	0.981771	0.095329	0.096442
Zn16	Zn	1.481771	0.595329	0.596442
Zn17	Zn	0.981782	0.095331	-0.096522
Zn18	Zn	1.481782	0.595331	0.403478
O19	O	0.974783	0.196969	0.073178
O20	O	1.474783	0.696969	0.573178
C21	C	0.829753	0.100461	-0.000036
C22	C	1.329753	0.600461	0.499964
C23	C	0.737463	0.099105	-0.000033
C24	C	1.237463	0.599105	0.499967
C25	C	0.525128	0.095967	0.079792
C26	C	1.025128	0.595967	0.579792
C27	C	0.438412	0.094685	0.079789
C28	C	0.938412	0.594685	0.579789
C29	C	0.438432	0.094690	-0.079887
C30	C	0.938432	0.594690	0.420113
C31	C	0.525147	0.095968	-0.079883
C32	C	1.025147	0.595968	0.420117
C33	C	0.568492	0.096609	-0.000041
C34	C	1.068492	0.596609	0.499959
C35	C	0.395061	0.094050	-0.000048
C36	C	0.895061	0.594050	0.499952
C37	C	0.301040	0.092660	-0.000051
C38	C	0.801040	0.592660	0.499949
C39	C	0.662519	0.097998	-0.000037
C40	C	1.162519	0.597998	0.499963
C41	C	0.988314	-0.032322	-0.000029
C42	C	1.488314	0.467678	0.499971
C43	C	0.986958	-0.109830	-0.000027
C44	C	1.486958	0.390170	0.499973
C45	C	0.986330	-0.146229	-0.079861
C46	C	1.486330	0.353771	0.420139
C47	C	0.985044	-0.219055	-0.079868
C48	C	1.485044	0.280945	0.420132
C49	C	0.984403	-0.255480	-0.000036
C50	C	1.484403	0.244520	0.499964
C51	C	0.985027	-0.219071	0.079809
C52	C	1.485027	0.280929	0.579809
C53	C	0.986304	-0.146246	0.079813
C54	C	1.486304	0.353754	0.579813
N55	N	1.029706	-0.375038	0.059380
N56	N	1.529706	0.124962	0.559380
N57	N	1.028494	-0.444219	0.059371
N58	N	1.528494	0.055781	0.559371
C59	C	0.980552	-0.474898	-0.000044
C60	C	1.480552	0.025102	0.499956
N61	N	0.933878	-0.433784	-0.059462
N62	N	1.433878	0.066216	0.440538
N63	N	0.935093	-0.364597	-0.059455
N64	N	1.435093	0.135403	0.440545
C65	C	0.983017	-0.334447	-0.000032
C66	C	1.483017	0.165553	0.499968
C67	C	0.978528	-0.590264	-0.079891
C68	C	1.478528	-0.090264	0.420109
C69	C	0.977237	-0.663090	-0.079894
C70	C	1.477237	-0.163090	0.420106
C71	C	0.977228	-0.663106	0.079785
C72	C	1.477228	-0.163106	0.579785
C73	C	0.978511	-0.590280	0.079786
C74	C	1.478511	-0.090280	0.579786
C75	C	0.979165	-0.553864	-0.000055
C76	C	1.479165	-0.053864	0.499945
C77	C	1.133799	0.090198	-0.000046
C78	C	1.633799	0.590198	0.499954
C79	C	1.226090	0.091555	-0.000055
C80	C	1.726090	0.591555	0.499945
C81	C	0.975239	0.222982	-0.000053
C82	C	1.475239	0.722982	0.499947
C83	C	0.976595	0.300490	-0.000061
C84	C	1.476595	0.800490	0.499939
N85	N	0.981769	0.095327	0.228134
N86	N	1.481769	0.595327	0.728134
N87	N	0.981790	0.095327	-0.228215
N88	N	1.481790	0.595327	0.271785
C89	C	1.038484	0.047864	0.453860
C90	C	1.538484	0.547864	0.953860
C91	C	1.038487	0.047863	0.546050
C92	C	1.538487	0.547863	1.046050
C93	C	0.925069	0.142792	0.546053
C94	C	1.425069	0.642792	1.046053
C95	C	0.925063	0.142790	0.453865
C96	C	1.425063	0.642790	0.953865
C97	C	0.981775	0.095327	0.407771
C98	C	1.481775	0.595327	0.907771
C99	C	0.981784	0.095327	0.592148
C100	C	1.481784	0.595327	1.092148
C101	C	0.981786	0.095326	0.692105
C102	C	1.481786	0.595326	1.192105
C103	C	0.981772	0.095327	0.307808
C104	C	1.481772	0.595327	0.807808
H105	H	0.560455	0.096489	-0.144896
H106	H	1.060455	0.596489	0.355104
H107	H	0.986860	-0.116583	-0.144873
H108	H	1.486860	0.383417	0.355127
H109	H	0.986812	-0.116610	0.144826
H110	H	1.486812	0.383390	0.644826
F111	F	0.984339	-0.257838	0.164772
F112	F	1.484339	0.242162	0.664772
F113	F	0.984374	-0.257802	-0.164841
F114	F	1.484374	0.242198	0.335159
F115	F	0.864717	0.193305	0.595115
F116	F	1.364717	0.693305	1.095115
H117	H	0.403109	0.094162	0.144797
H118	H	0.903109	0.594162	0.644797
F119	F	0.979219	-0.551504	-0.164862
F120	F	1.479219	-0.051504	0.335138
F121	F	0.392295	0.093993	-0.164855
F122	F	0.892295	0.593993	0.335145
F123	F	0.571256	0.096648	0.164767
F124	F	1.071256	0.596648	0.664767
H125	H	1.084663	0.009214	0.583573
H126	H	1.584663	0.509214	1.083573
F127	F	0.976563	-0.701829	-0.164869
F128	F	1.476563	-0.201829	0.335131
F129	F	0.976542	-0.701867	0.164749
F130	F	1.476542	-0.201867	0.664749
H131	H	0.979029	-0.560644	0.144795
H132	H	1.479029	-0.060644	0.644795
F133	F	1.098840	-0.002652	0.404807
F134	F	1.598840	0.497348	0.904807
H135	H	0.878880	0.181440	0.416336
H136	H	1.378880	0.681440	0.916336
