data_functionalizedCrystal
_audit_creation_method	'MofGen! by Chris Wilmer'
_symmetry_space_group_name_H-M	'P1'
_symmetry_Int_Tables_number	1
_symmetry_cell_setting	triclinic
loop_
_symmetry_equiv_pos_as_xyz
  x,y,z
_cell_length_a	12.811457
_cell_length_b	10.540510
_cell_length_c	11.295483
_cell_angle_alpha	94.138442
_cell_angle_beta	91.289320
_cell_angle_gamma	84.277158
loop_
_atom_site_label
_atom_site_type_symbol
_atom_site_fract_x
_atom_site_fract_y
_atom_site_fract_z
O1	O	1.390307	0.175362	0.051125
O2	O	1.087181	0.191143	0.018388
O3	O	1.245676	-0.001432	0.035505
O4	O	1.231812	0.367937	0.034007
O5	O	1.231755	0.015456	0.232053
O6	O	1.073260	0.208031	0.214935
O7	O	1.376386	0.192250	0.247672
Cu8	Cu	1.223552	0.201683	0.249250
Cu9	Cu	1.240015	0.181711	0.016810
O10	O	1.217891	0.384825	0.230555
C11	C	1.041405	0.198185	0.112469
C12	C	0.925750	0.193993	0.099979
C13	C	0.693242	0.204505	0.290807
C14	C	0.584573	0.200566	0.279076
C15	C	0.599741	0.182167	0.064789
C16	C	0.708410	0.186106	0.076519
C17	C	0.755156	0.197277	0.189532
C18	C	0.863827	0.201225	0.201261
C19	C	0.878993	0.182818	-0.013026
C20	C	0.770324	0.178879	-0.024756
C21	C	1.237682	-0.040295	0.133665
C22	C	1.234592	-0.181257	0.133324
C23	C	1.344666	-0.398283	0.145666
C24	C	1.347995	-0.251714	0.145573
C25	C	1.184490	-0.235865	0.014819
C26	C	1.182002	-0.382642	0.014462
C27	C	1.163810	-0.363254	0.237718
C28	C	1.169084	-0.216767	0.239776
C29	C	1.422162	0.185208	0.153588
C30	C	1.537818	0.189399	0.166071
C31	C	1.225885	0.423688	0.132392
C32	C	1.228976	0.564649	0.132726
N33	N	1.211980	0.215729	0.412737
N34	N	1.251595	0.167654	-0.146676
C35	C	1.334895	0.066469	0.675301
C36	C	1.326158	0.077093	0.799021
C37	C	1.185763	0.247595	0.783898
C38	C	1.194500	0.236970	0.660178
C39	C	1.269070	0.146406	0.605884
C40	C	1.277812	0.135789	0.482163
C41	C	1.137413	0.306283	0.467042
C42	C	1.128675	0.316907	0.590762
H43	H	0.929415	0.176940	-0.095491
H44	H	1.379758	0.011999	0.855537
N45	N	0.722553	0.167459	-0.140180
N46	N	0.625528	0.163937	-0.150641
H47	H	0.591789	0.155874	-0.232162
N48	N	0.911602	0.212647	0.316683
N49	N	0.961604	0.306190	0.346168
H50	H	0.995347	0.314257	0.427686
N51	N	0.740978	0.215962	0.406247
N52	N	0.685681	0.222446	0.496664
H53	H	0.719391	0.230549	0.578197
N54	N	1.392941	-0.442034	0.252628
N55	N	1.354145	-0.403572	0.350867
H56	H	1.388239	-0.434479	0.426413
N57	N	1.397827	-0.206039	0.252658
N58	N	1.430387	-0.282442	0.327985
H59	H	1.465588	-0.250191	0.403616
H60	H	1.083816	0.371377	0.410508
N61	N	1.406875	-0.461295	0.051211
N62	N	1.366376	-0.533384	-0.025594
H63	H	1.410308	-0.577889	-0.092306
H64	H	1.399388	-0.230071	0.069913
H65	H	1.230721	-0.212042	-0.064353
H66	H	1.395620	-0.007264	0.631095
N67	N	0.521345	0.207941	0.382538
N68	N	0.563102	0.217909	0.483430
H69	H	0.518448	0.223116	0.556506
N70	N	1.109593	0.340076	0.839388
N71	N	1.101799	0.349535	0.949852
H72	H	1.048002	0.414850	0.989044
N73	N	1.353916	0.043222	0.426671
N74	N	1.350570	-0.072944	0.440237
H75	H	1.404295	-0.138342	0.401032
H76	H	1.205444	-0.180871	0.327369
H77	H	1.067959	0.390640	0.634982
H78	H	0.561662	0.173051	-0.027221
H79	H	1.227617	-0.429926	-0.065152
H80	H	1.097544	-0.406375	0.000216
H81	H	1.101300	-0.189131	0.001629
H82	H	1.085811	-0.167412	0.237612
N83	N	1.201217	-0.407183	0.349287
N84	N	1.276369	-0.492173	0.352773
H85	H	1.302799	-0.523203	0.431564
N86	N	1.056933	-0.391341	0.227118
N87	N	1.028751	-0.464112	0.142684
H88	H	0.953273	-0.483956	0.135189
