data_functionalizedCrystal
_audit_creation_method	'MofGen! by Chris Wilmer'
_symmetry_space_group_name_H-M	'P1'
_symmetry_Int_Tables_number	1
_symmetry_cell_setting	triclinic
loop_
_symmetry_equiv_pos_as_xyz
  x,y,z
_cell_length_a	14.853567
_cell_length_b	14.853567
_cell_length_c	13.330367
_cell_angle_alpha	89.999156
_cell_angle_beta	89.995418
_cell_angle_gamma	83.634930
loop_
_atom_site_label
_atom_site_type_symbol
_atom_site_fract_x
_atom_site_fract_y
_atom_site_fract_z
O1	O	1.196369	0.117704	-0.083346
O2	O	1.696369	0.617704	0.416654
O3	O	0.933909	0.131725	-0.083362
O4	O	1.433909	0.631725	0.416638
O5	O	1.072150	-0.006515	-0.083356
O6	O	1.572150	0.493485	0.416644
O7	O	1.058128	0.255944	-0.083351
O8	O	1.558128	0.755944	0.416649
O9	O	1.072130	-0.006519	0.083491
O10	O	1.572130	0.493481	0.583491
O11	O	0.933889	0.131722	0.083485
O12	O	1.433889	0.631722	0.583485
O13	O	1.196349	0.117700	0.083501
O14	O	1.696349	0.617700	0.583501
Cu15	Cu	1.065117	0.124711	0.098728
Cu16	Cu	1.565117	0.624711	0.598728
Cu17	Cu	1.065141	0.124715	-0.098588
Cu18	Cu	1.565141	0.624715	0.401412
O19	O	1.058108	0.255941	0.083496
O20	O	1.558108	0.755941	0.583496
C21	C	0.900311	0.131088	0.000060
C22	C	1.400311	0.631088	0.500060
C23	C	0.800227	0.129184	0.000053
C24	C	1.300227	0.629184	0.500053
C25	C	1.071504	-0.040106	0.000064
C26	C	1.571504	0.459894	0.500064
C27	C	1.069601	-0.140189	0.000055
C28	C	1.569601	0.359811	0.500055
C29	C	0.387693	0.039019	0.000074
C30	C	0.887693	0.539019	0.500074
C31	C	0.366412	0.203251	0.000076
C32	C	0.866412	0.703251	0.500076
C33	C	0.460446	0.205042	0.000073
C34	C	0.960446	0.705042	0.500073
C35	C	0.518108	0.123819	0.000069
C36	C	1.018108	0.623819	0.500069
C37	C	0.481736	0.040806	0.000067
C38	C	0.981736	0.540806	0.500067
C39	C	0.496825	0.288053	0.000064
C40	C	0.996825	0.788053	0.500064
C41	C	0.590864	0.289846	0.000059
C42	C	1.090864	0.789846	0.500059
C43	C	0.648528	0.208623	0.000062
C44	C	1.148528	0.708623	0.500062
C45	C	0.612150	0.125607	0.000062
C46	C	1.112150	0.625607	0.500062
C47	C	0.669812	0.044384	0.000058
C48	C	1.169812	0.544384	0.500058
C49	C	0.633437	-0.038633	0.000065
C50	C	1.133437	0.461367	0.500065
C51	C	0.539399	-0.040417	0.000070
C52	C	1.039399	0.459583	0.500070
C53	C	0.742565	0.210407	0.000057
C54	C	1.242565	0.710407	0.500057
C55	C	0.763855	0.046172	0.000052
C56	C	1.263855	0.546172	0.500052
C57	C	0.979435	-0.552723	0.000069
C58	C	1.479435	-0.052723	0.500069
C59	C	1.143668	-0.574004	0.000079
C60	C	1.643668	-0.074004	0.500079
C61	C	1.145458	-0.479971	0.000073
C62	C	1.645458	0.020029	0.500073
C63	C	1.064235	-0.422309	0.000067
C64	C	1.564235	0.077691	0.500067
C65	C	0.981223	-0.458680	0.000066
C66	C	1.481223	0.041320	0.500066
C67	C	1.228469	-0.443591	0.000084
C68	C	1.728469	0.056409	0.500084
C69	C	1.230262	-0.349552	0.000079
C70	C	1.730262	0.150448	0.500079
C71	C	1.149039	-0.291889	0.000066
C72	C	1.649039	0.208111	0.500066
C73	C	1.066023	-0.328266	0.000064
C74	C	1.566023	0.171734	0.500064
C75	C	0.984800	-0.270604	0.000058
C76	C	1.484800	0.229396	0.500058
C77	C	0.901783	-0.306979	0.000049
C78	C	1.401783	0.193021	0.500049
C79	C	0.899999	-0.401017	0.000053
C80	C	1.399999	0.098983	0.500053
C81	C	1.150823	-0.197851	0.000062
C82	C	1.650823	0.302149	0.500062
C83	C	0.986588	-0.176561	0.000055
C84	C	1.486588	0.323439	0.500055
C85	C	1.229947	0.118337	0.000078
C86	C	1.729947	0.618337	0.500078
C87	C	1.330031	0.120241	0.000078
C88	C	1.830031	0.620241	0.500078
C89	C	1.058754	0.289531	0.000073
C90	C	1.558754	0.789531	0.500073
C91	C	1.060657	0.389615	0.000075
C92	C	1.560657	0.889615	0.500075
N93	N	1.065107	0.124708	0.237509
N94	N	1.565107	0.624708	0.737509
N95	N	1.065158	0.124711	-0.237370
N96	N	1.565158	0.624711	0.262630
C97	C	1.003925	0.185903	0.710130
C98	C	1.503925	0.685903	1.210130
C99	C	1.126381	0.063519	0.710103
C100	C	1.626381	0.563519	1.210103
C101	C	1.126371	0.063516	0.605084
C102	C	1.626371	0.563516	1.105084
C103	C	1.065138	0.124709	0.552584
C104	C	1.565138	0.624709	1.052584
C105	C	1.003915	0.185904	0.605102
C106	C	1.503915	0.685904	1.105102
C107	C	1.187598	0.002328	0.552559
C108	C	1.687598	0.502328	1.052559
C109	C	1.187591	0.002323	0.447534
C110	C	1.687591	0.502323	0.947534
C111	C	1.126353	0.063512	0.395031
C112	C	1.626353	0.563512	0.895031
C113	C	1.065127	0.124710	0.447556
C114	C	1.565127	0.624710	0.947556
C115	C	1.003895	0.185902	0.395055
C116	C	1.503895	0.685902	0.895055
C117	C	0.942664	0.247096	0.447578
C118	C	1.442664	0.747096	0.947578
C119	C	0.942677	0.247093	0.552599
C120	C	1.442677	0.747093	1.052599
C121	C	1.126340	0.063515	0.290010
C122	C	1.626340	0.563515	0.790010
C123	C	1.003884	0.185903	0.290027
C124	C	1.503884	0.685903	0.790027
H125	H	0.680397	-0.104764	0.000055
H126	H	1.180397	0.395236	0.500055
H127	H	0.954018	0.235731	0.247288
H128	H	1.454018	0.735731	0.747288
C129	C	1.317807	-0.507014	0.000090
C130	C	1.817807	-0.007014	0.500090
H131	H	1.367503	-0.471884	0.000104
H132	H	1.867503	0.028116	0.500104
H133	H	1.320529	-0.544139	-0.058094
H134	H	1.820529	-0.044139	0.441906
H135	H	1.320513	-0.544140	0.058280
H136	H	1.820513	-0.044140	0.558280
C137	C	0.936552	0.253190	0.767893
C138	C	1.436552	0.753190	1.267893
H139	H	0.900074	0.289622	0.721581
H140	H	1.400074	0.789622	1.221581
H141	H	0.969001	0.290789	0.808874
H142	H	1.469001	0.790789	1.308874
H143	H	0.898995	0.220659	0.808850
H144	H	1.398995	0.720659	1.308850
C145	C	1.242129	-0.157841	0.000074
C146	C	1.742129	0.342159	0.500074
H147	H	1.290246	-0.205650	0.000077
H148	H	1.790246	0.294350	0.500077
H149	H	1.246229	-0.121594	0.058255
H150	H	1.746229	0.378406	0.558255
H151	H	1.246251	-0.121604	-0.058119
H152	H	1.746251	0.378396	0.441881
H153	H	0.892811	0.296924	0.404820
H154	H	1.392811	0.796924	0.904820
H155	H	1.237457	-0.047489	0.595308
H156	H	1.737457	0.452511	1.095308
H157	H	0.892826	0.296916	0.595370
H158	H	1.392826	0.796916	1.095370
C159	C	1.193730	-0.003792	0.767845
C160	C	1.693730	0.496208	1.267845
H161	H	1.230192	-0.040235	0.721524
H162	H	1.730192	0.459765	1.221524
H163	H	1.161256	-0.041376	0.808824
H164	H	1.661256	0.458624	1.308824
H165	H	1.231306	0.028711	0.808803
H166	H	1.731306	0.528711	1.308803
H167	H	0.319459	0.269379	0.000071
H168	H	0.819459	0.769379	0.500071
C169	C	0.888123	-0.592731	0.000063
C170	C	1.388123	-0.092731	0.500063
H171	H	0.898687	-0.656995	0.000071
H172	H	1.398687	-0.156995	0.500071
H173	H	0.854682	-0.572944	-0.058120
H174	H	1.354682	-0.072944	0.441880
H175	H	0.854673	-0.572946	0.058254
H176	H	1.354673	-0.072946	0.558254
C177	C	1.233005	-0.637428	0.000088
C178	C	1.733005	-0.137428	0.500088
H179	H	1.220051	-0.698643	0.000086
H180	H	1.720051	-0.198643	0.500086
H181	H	1.267034	-0.626387	0.058271
H182	H	1.767034	-0.126387	0.558271
H183	H	1.267042	-0.626395	-0.058103
H184	H	1.767042	-0.126395	0.441897
H185	H	1.297860	-0.319944	0.000085
H186	H	1.797860	0.180056	0.500085
H187	H	1.237447	-0.047504	0.404776
H188	H	1.737447	0.452496	0.904776
H189	H	1.176197	0.013696	0.247251
H190	H	1.676197	0.513696	0.747251
H191	H	0.358072	-0.028572	0.000083
H192	H	0.858072	0.471428	0.500083
C193	C	0.433399	0.377388	0.000073
C194	C	0.933399	0.877388	0.500073
H195	H	0.372185	0.364432	0.000091
H196	H	0.872185	0.864432	0.500091
H197	H	0.444430	0.411426	-0.058111
H198	H	0.944430	0.911426	0.441889
H199	H	0.444440	0.411418	0.058263
H200	H	0.944440	0.911418	0.558263
H201	H	0.509774	-0.108005	0.000100
H202	H	1.009774	0.391995	0.500100
C203	C	0.812444	-0.243546	0.000040
C204	C	1.312444	0.256454	0.500040
H205	H	0.825404	-0.182333	0.000036
H206	H	1.325404	0.317667	0.500036
H207	H	0.778397	-0.254581	0.058217
H208	H	1.278397	0.245419	0.558217
H209	H	0.778422	-0.254579	-0.058157
H210	H	1.278422	0.245421	0.441843
C211	C	0.827276	-0.043175	0.000042
C212	C	1.327276	0.456825	0.500042
H213	H	0.792142	-0.092868	0.000039
H214	H	1.292142	0.407132	0.500039
H215	H	0.864408	-0.045895	0.058218
H216	H	1.364408	0.454105	0.558218
H217	H	0.864397	-0.045889	-0.058156
H218	H	1.364397	0.454111	0.441844
H219	H	0.620472	0.357443	0.000053
H220	H	1.120472	0.857443	0.500053
H221	H	0.772178	0.277998	0.000053
H222	H	1.272178	0.777998	0.500053
H223	H	0.920445	-0.129618	0.000045
H224	H	1.420445	0.370382	0.500045
C225	C	0.808691	-0.441032	0.000057
C226	C	1.308691	0.058968	0.500057
H227	H	0.819262	-0.505295	0.000073
H228	H	1.319262	-0.005295	0.500073
H229	H	0.775244	-0.421256	-0.058126
H230	H	1.275244	0.078744	0.441874
H231	H	0.775243	-0.421244	0.058248
H232	H	1.275243	0.078756	0.558248
