data_functionalizedCrystal
_audit_creation_method	'MofGen! by Chris Wilmer'
_symmetry_space_group_name_H-M	'P1'
_symmetry_Int_Tables_number	1
_symmetry_cell_setting	triclinic
loop_
_symmetry_equiv_pos_as_xyz
  x,y,z
_cell_length_a	16.956984
_cell_length_b	16.974813
_cell_length_c	13.448316
_cell_angle_alpha	93.661167
_cell_angle_beta	90.007329
_cell_angle_gamma	79.731954
loop_
_atom_site_label
_atom_site_type_symbol
_atom_site_fract_x
_atom_site_fract_y
_atom_site_fract_z
O1	O	1.058006	0.032765	0.085333
O2	O	1.391339	0.366098	0.418666
O3	O	1.724673	0.699432	0.751999
O4	O	0.825818	0.060528	0.087567
O5	O	1.159151	0.393861	0.420901
O6	O	1.492485	0.727194	0.754234
O7	O	0.948384	-0.068881	0.077149
O8	O	1.281718	0.264453	0.410482
O9	O	1.615051	0.597786	0.743815
O10	O	0.935440	0.162173	0.095751
O11	O	1.268773	0.495506	0.429084
O12	O	1.602106	0.828840	0.762418
O13	O	0.948369	-0.068887	-0.088236
O14	O	1.281702	0.264446	0.245098
O15	O	1.615036	0.597780	0.578431
O16	O	0.825803	0.060521	-0.077817
O17	O	1.159136	0.393854	0.255516
O18	O	1.492469	0.727188	0.588850
O19	O	1.057991	0.032758	-0.080052
O20	O	1.391324	0.366092	0.253282
O21	O	1.724657	0.699425	0.586615
Cu22	Cu	0.941895	0.046639	-0.094035
Cu23	Cu	1.275229	0.379973	0.239298
Cu24	Cu	1.608562	0.713306	0.572631
Cu25	Cu	0.941913	0.046647	0.101551
Cu26	Cu	1.275247	0.379980	0.434884
Cu27	Cu	1.608580	0.713313	0.768217
O28	O	0.935424	0.162167	-0.069633
O29	O	1.268757	0.495500	0.263700
O30	O	1.602091	0.828833	0.597033
C31	C	0.796101	0.061946	0.004989
C32	C	1.129434	0.395279	0.338323
C33	C	1.462767	0.728613	0.671656
C34	C	0.707575	0.066173	0.005330
C35	C	1.040909	0.399506	0.338663
C36	C	1.374242	0.732839	0.671996
C37	C	0.675568	-0.004496	-0.000362
C38	C	1.008902	0.328837	0.332972
C39	C	1.342235	0.662171	0.666305
C40	C	0.592389	-0.000520	-0.000034
C41	C	0.925722	0.332813	0.333299
C42	C	1.259055	0.666147	0.666632
C43	C	0.541218	0.074126	0.005977
C44	C	0.874551	0.407459	0.339311
C45	C	1.207884	0.740792	0.672644
C46	C	0.573230	0.144800	0.011672
C47	C	0.906563	0.478133	0.345005
C48	C	1.239896	0.811466	0.678339
C49	C	0.656408	0.140823	0.011352
C50	C	0.989741	0.474156	0.344685
C51	C	1.323075	0.807489	0.678019
C52	C	0.291424	0.093811	0.007569
C53	C	0.624757	0.427144	0.340902
C54	C	0.958090	0.760477	0.674236
C55	C	0.208240	0.097782	0.007886
C56	C	0.541574	0.431115	0.341219
C57	C	0.874907	0.764449	0.674552
C58	C	0.227405	-0.047538	-0.003819
C59	C	0.560738	0.285795	0.329514
C60	C	0.894072	0.619129	0.662848
C61	C	0.310584	-0.051508	-0.004145
C62	C	0.643917	0.281825	0.329189
C63	C	0.977251	0.615158	0.662522
C64	C	0.342589	0.019166	0.001555
C65	C	0.675922	0.352499	0.334889
C66	C	1.009255	0.685832	0.668222
N67	N	0.456195	0.078192	0.006309
N68	N	0.789528	0.411525	0.339642
N69	N	1.122861	0.744858	0.672975
N70	N	0.427611	0.015099	0.001231
N71	N	0.760944	0.348432	0.334564
N72	N	1.094277	0.681765	0.667898
C73	C	0.947884	-0.098310	-0.007911
C74	C	1.281218	0.235023	0.325423
C75	C	1.614551	0.568357	0.658756
C76	C	0.946407	-0.185991	-0.014964
C77	C	1.279740	0.147343	0.318370
C78	C	1.613074	0.480676	0.651703
C79	C	0.945723	-0.227175	0.071873
C80	C	1.279056	0.106158	0.405206
C81	C	1.612390	0.439492	0.738540
C82	C	0.944330	-0.309559	0.065243
C83	C	1.277663	0.023774	0.398576
C84	C	1.610997	0.357107	0.731910
C85	C	0.943626	-0.350758	-0.028225
C86	C	1.276960	-0.017425	0.305108
C87	C	1.610293	0.315908	0.638442
C88	C	0.944308	-0.309568	-0.115068
C89	C	1.277641	0.023766	0.218265
C90	C	1.610974	0.357099	0.551598
C91	C	0.945695	-0.227184	-0.108437
C92	C	1.279029	0.106149	0.224896
C93	C	1.612362	0.439483	0.558230
C94	C	0.939471	-0.597149	-0.057724
C95	C	1.272804	-0.263816	0.275609
C96	C	1.606137	0.069518	0.608942
C97	C	0.938085	-0.679539	-0.064349
C98	C	1.271419	-0.346206	0.268984
C99	C	1.604752	-0.012872	0.602318
C100	C	0.938106	-0.679525	0.115963
C101	C	1.271440	-0.346191	0.449296
C102	C	1.604773	-0.012858	0.782630
C103	C	0.939498	-0.597140	0.122586
C104	C	1.272832	-0.263807	0.455919
C105	C	1.606165	0.069526	0.789253
C106	C	0.940176	-0.555956	0.035743
C107	C	1.273509	-0.222622	0.369076
C108	C	1.606842	0.110711	0.702409
N109	N	0.942205	-0.434969	-0.035004
N110	N	1.275538	-0.101635	0.298329
N111	N	1.608871	0.231698	0.631662
N112	N	0.941591	-0.471746	0.042523
N113	N	1.274925	-0.138413	0.375856
N114	N	1.608258	0.194921	0.709190
C115	C	1.087708	0.031340	0.002528
C116	C	1.421041	0.364673	0.335861
C117	C	1.754375	0.698007	0.669195
C118	C	1.176233	0.027113	0.002194
C119	C	1.509567	0.360447	0.335528
C120	C	1.842900	0.693780	0.668861
C121	C	0.935924	0.191596	0.015428
C122	C	1.269258	0.524929	0.348762
C123	C	1.602591	0.858263	0.682095
C124	C	0.937402	0.279277	0.022488
C125	C	1.270735	0.612610	0.355821
C126	C	1.604068	0.945943	0.689154
N127	N	0.941888	0.046633	-0.231600
N128	N	1.275222	0.379966	0.101733
N129	N	1.608555	0.713300	0.435066
C130	C	0.996177	-0.010648	-0.288252
C131	C	1.329511	0.322685	0.045081
C132	C	1.662844	0.656019	0.378414
C133	C	0.996182	-0.010649	-0.392356
C134	C	1.329516	0.322684	-0.059022
C135	C	1.662849	0.656018	0.274311
C136	C	0.941901	0.046635	-0.439805
C137	C	1.275235	0.379968	-0.106471
C138	C	1.608568	0.713302	0.226862
C139	C	0.887606	0.103919	-0.383145
C140	C	1.220940	0.437252	-0.049812
C141	C	1.554273	0.770586	0.283522
C142	C	0.887598	0.103916	-0.279044
C143	C	1.220932	0.437249	0.054289
C144	C	1.554265	0.770582	0.387623
C145	C	0.887629	0.103923	-0.600125
C146	C	1.220962	0.437256	-0.266791
C147	C	1.554295	0.770590	0.066542
C148	C	0.887637	0.103927	-0.704233
C149	C	1.220971	0.437261	-0.370900
C150	C	1.554304	0.770594	-0.037566
C151	C	0.996213	-0.010642	-0.713436
C152	C	1.329546	0.322691	-0.380103
C153	C	1.662879	0.656025	-0.046770
C154	C	0.996205	-0.010645	-0.609335
C155	C	1.329538	0.322688	-0.276002
C156	C	1.662871	0.656022	0.057331
C157	C	0.941910	0.046640	-0.552683
C158	C	1.275244	0.379973	-0.219350
C159	C	1.608577	0.713307	0.113984
N160	N	0.941927	0.046646	0.239115
N161	N	1.275260	0.379980	0.572448
N162	N	1.608593	0.713313	0.905782
H163	H	0.317471	0.151358	0.012217
H164	H	0.650805	0.484691	0.345550
H165	H	0.984138	0.818025	0.678884
H166	H	0.943777	-0.343089	0.135955
H167	H	1.277110	-0.009755	0.469288
H168	H	1.610443	0.323578	0.802621
F169	F	0.690471	0.216038	0.017413
F170	F	1.023805	0.549371	0.350747
F171	F	1.357138	0.882705	0.684080
F172	F	0.937385	-0.723362	0.208381
F173	F	1.270718	-0.390028	0.541714
F174	F	1.604051	-0.056695	0.875048
H175	H	0.843414	0.150568	-0.554001
H176	H	1.176747	0.483902	-0.220668
H177	H	1.510080	0.817235	0.112665
H178	H	1.040421	-0.057285	-0.759569
H179	H	1.373754	0.276048	-0.426236
H180	H	1.707087	0.609381	-0.092902
F181	F	0.937341	-0.723385	-0.163835
F182	F	1.270674	-0.390052	0.169498
F183	F	1.604007	-0.056719	0.502832
F184	F	0.153781	0.177234	0.014277
F185	F	0.487114	0.510567	0.347610
F186	F	0.820447	0.843901	0.680944
H187	H	1.040383	-0.057292	-0.249626
H188	H	1.373716	0.276041	0.083707
H189	H	1.707049	0.609374	0.417040
H190	H	0.940038	-0.563630	-0.128439
H191	H	1.273371	-0.230296	0.204895
H192	H	1.606705	0.103037	0.538228
H193	H	0.843406	0.150559	-0.421784
H194	H	1.176739	0.483892	-0.088451
H195	H	1.510072	0.817225	0.244883
H196	H	0.201337	-0.105077	-0.008449
H197	H	0.534671	0.228257	0.324885
H198	H	0.868004	0.561590	0.658218
F199	F	0.730022	-0.083945	-0.006767
F200	F	1.063355	0.249388	0.326566
F201	F	1.396689	0.582722	0.659900
H202	H	0.940072	-0.563602	0.198697
H203	H	1.273406	-0.230268	0.532031
H204	H	1.606739	0.103065	0.865364
F205	F	0.829863	0.164896	-0.754724
F206	F	1.163196	0.498230	-0.421391
F207	F	1.496529	0.831563	-0.088058
H208	H	1.040388	-0.057292	-0.438482
H209	H	1.373722	0.276041	-0.105148
H210	H	1.707055	0.609375	0.228185
H211	H	0.352243	-0.112293	-0.009044
H212	H	0.685576	0.221041	0.324289
H213	H	1.018910	0.554374	0.657622
F214	F	0.946477	-0.183336	0.171355
F215	F	1.279811	0.149997	0.504689
F216	F	1.613144	0.483330	0.838022
H217	H	0.531560	0.205578	0.016574
H218	H	0.864893	0.538911	0.349907
H219	H	1.198226	0.872244	0.683240
H220	H	0.843389	0.150559	-0.232918
H221	H	1.176723	0.483892	0.100415
H222	H	1.510056	0.817225	0.433748
H223	H	0.946241	-0.193650	-0.179149
H224	H	1.279574	0.139683	0.154184
H225	H	1.612907	0.473016	0.487518
F226	F	0.558329	-0.075736	-0.006069
F227	F	0.891662	0.257598	0.327264
F228	F	1.224995	0.590931	0.660597
F229	F	0.943550	-0.353415	-0.214544
F230	F	1.276883	-0.020082	0.118789
F231	F	1.610217	0.313251	0.452122
H232	H	1.040408	-0.057286	-0.570703
H233	H	1.373741	0.276047	-0.237369
H234	H	1.707075	0.609380	0.095964
