data_functionalizedCrystal
_audit_creation_method	'MofGen! by Chris Wilmer'
_symmetry_space_group_name_H-M	'P1'
_symmetry_Int_Tables_number	1
_symmetry_cell_setting	triclinic
loop_
_symmetry_equiv_pos_as_xyz
  x,y,z
_cell_length_a	19.188933
_cell_length_b	9.065218
_cell_length_c	7.540329
_cell_angle_alpha	90.001757
_cell_angle_beta	89.998460
_cell_angle_gamma	95.919273
loop_
_atom_site_label
_atom_site_type_symbol
_atom_site_fract_x
_atom_site_fract_y
_atom_site_fract_z
O1	O	0.927573	-0.184188	-0.147416
O2	O	1.427573	0.315812	0.352584
O3	O	0.724455	-0.208978	-0.147432
O4	O	1.224455	0.291022	0.352568
O5	O	0.830213	0.018205	-0.147420
O6	O	1.330213	0.518205	0.352580
O7	O	0.821816	-0.411371	-0.147428
O8	O	1.321816	0.088629	0.352572
O9	O	0.830206	0.018208	0.147545
O10	O	1.330206	0.518208	0.647545
O11	O	0.724449	-0.208975	0.147533
O12	O	1.224449	0.291025	0.647533
O13	O	0.927567	-0.184185	0.147549
O14	O	1.427567	0.315815	0.647549
Cu15	Cu	0.826007	-0.196580	0.174474
Cu16	Cu	1.326007	0.303420	0.674474
Cu17	Cu	0.826015	-0.196583	-0.174357
Cu18	Cu	1.326015	0.303417	0.325643
O19	O	0.821809	-0.411368	0.147537
O20	O	1.321809	0.088632	0.647537
C21	C	0.698435	-0.208173	0.000049
C22	C	1.198435	0.291827	0.500049
C23	C	0.620911	-0.205762	0.000042
C24	C	1.120911	0.294238	0.500042
C25	C	0.067526	-0.188554	-0.160724
C26	C	0.567526	0.311446	0.339276
C27	C	0.140368	-0.190810	-0.160731
C28	C	0.640368	0.309190	0.339269
C29	C	0.176790	-0.191944	0.000054
C30	C	0.676790	0.308056	0.500054
C31	C	0.140366	-0.190783	0.160858
C32	C	0.640366	0.309217	0.660858
C33	C	0.067527	-0.188511	0.160860
C34	C	0.567527	0.311489	0.660860
N35	N	0.286487	-0.279456	0.119732
N36	N	0.786487	0.220544	0.619732
N37	N	0.355682	-0.281617	0.119719
N38	N	0.855682	0.218383	0.619719
C39	C	0.396252	-0.198786	0.000057
C40	C	0.896252	0.301214	0.500057
N41	N	0.365012	-0.113729	-0.119618
N42	N	0.865012	0.386271	0.380382
N43	N	0.295811	-0.111575	-0.119610
N44	N	0.795811	0.388425	0.380390
C45	C	0.255772	-0.194407	0.000070
C46	C	0.755772	0.305593	0.500070
C47	C	0.511650	-0.202383	-0.160744
C48	C	1.011650	0.297617	0.339256
C49	C	0.584494	-0.204631	-0.160744
C50	C	1.084494	0.295369	0.339256
C51	C	0.584491	-0.204618	0.160849
C52	C	1.084491	0.295382	0.660849
C53	C	0.511649	-0.202356	0.160845
C54	C	1.011649	0.297644	0.660845
C55	C	0.475233	-0.201245	0.000043
C56	C	0.975233	0.298755	0.500043
C57	C	0.829402	0.073165	0.000059
C58	C	1.329402	0.573165	0.500059
C59	C	0.826989	0.236924	0.000051
C60	C	1.326989	0.736924	0.500051
C61	C	0.953587	-0.184990	0.000064
C62	C	1.453587	0.315010	0.500064
C63	C	1.031111	-0.187401	0.000059
C64	C	1.531111	0.312599	0.500059
C65	C	0.822620	-0.466328	0.000053
C66	C	1.322620	0.033672	0.500053
C67	C	0.825032	-0.630087	0.000051
C68	C	1.325032	-0.130087	0.500051
N69	N	0.826007	-0.196577	0.419822
N70	N	1.326007	0.303423	0.919822
N71	N	0.826020	-0.196575	-0.419705
N72	N	1.326020	0.303425	0.080295
H73	H	0.037878	-0.187579	0.291793
H74	H	0.537878	0.312421	0.791793
O75	O	0.619823	-0.206009	-0.316985
O76	O	1.119823	0.293991	0.183015
C77	C	0.594914	-0.333184	-0.414804
C78	C	1.094914	0.166816	0.085196
H79	H	0.569930	-0.421832	-0.320711
H80	H	1.069930	0.078168	0.179289
H81	H	0.640433	-0.377555	-0.487738
H82	H	1.140433	0.122445	0.012262
H83	H	0.554237	-0.303003	-0.515061
H84	H	1.054237	0.196997	-0.015061
H85	H	0.037880	-0.187643	-0.291661
H86	H	0.537880	0.312357	0.208339
O87	O	0.476208	-0.201089	-0.316827
O88	O	0.976208	0.298911	0.183173
C89	C	0.441186	-0.072027	-0.326474
C90	C	0.941186	0.427973	0.173526
H91	H	0.432636	-0.029099	-0.186871
H92	H	0.932636	0.470901	0.313129
H93	H	0.388370	-0.099168	-0.394530
H94	H	0.888370	0.400832	0.105470
H95	H	0.474230	0.016544	-0.405820
H96	H	0.974230	0.516544	0.094180
H97	H	0.170022	-0.191757	-0.291663
H98	H	0.670022	0.308243	0.208337
O99	O	0.619949	-0.205519	0.316927
O100	O	1.119949	0.294481	0.816927
C101	C	0.669169	-0.079073	0.326561
C102	C	1.169169	0.420927	0.826561
H103	H	0.682450	-0.036837	0.186955
H104	H	1.182450	0.463163	0.686955
H105	H	0.718793	-0.109388	0.394619
H106	H	1.218793	0.390612	0.894619
H107	H	0.646066	0.011251	0.405901
H108	H	1.146066	0.511251	0.905901
O109	O	0.476361	-0.201057	0.317148
O110	O	0.976361	0.298943	0.817148
C111	C	0.501251	-0.073854	0.414940
C112	C	1.001251	0.426146	0.914940
H113	H	0.556504	-0.032918	0.369210
H114	H	1.056504	0.467082	0.869210
H115	H	0.502148	-0.102653	0.562035
H116	H	1.002148	0.397347	1.062035
H117	H	0.465228	0.016869	0.392654
H118	H	0.965228	0.516869	0.892654
H119	H	0.170026	-0.191704	0.291770
H120	H	0.670026	0.308296	0.791770
