data_functionalizedCrystal
_audit_creation_method	'MofGen! by Chris Wilmer'
_symmetry_space_group_name_H-M	'P1'
_symmetry_Int_Tables_number	1
_symmetry_cell_setting	triclinic
loop_
_symmetry_equiv_pos_as_xyz
  x,y,z
_cell_length_a	10.654550
_cell_length_b	9.065218
_cell_length_c	7.540329
_cell_angle_alpha	90.003038
_cell_angle_beta	89.997570
_cell_angle_gamma	95.249606
loop_
_atom_site_label
_atom_site_type_symbol
_atom_site_fract_x
_atom_site_fract_y
_atom_site_fract_z
O1	O	0.184158	-1.959392	-0.147482
O2	O	0.199263	-1.530024	-0.147484
O3	O	0.009010	-1.754580	-0.147477
O4	O	0.374410	-1.734836	-0.147490
O5	O	0.009008	-1.754567	0.147489
O6	O	0.199261	-1.530011	0.147481
O7	O	0.184155	-1.959378	0.147483
Cu8	Cu	0.191708	-1.744693	0.174415
Cu9	Cu	0.191711	-1.744709	-0.174416
O10	O	0.374408	-1.734823	0.147475
C11	C	0.197810	-1.475039	-0.000002
C12	C	0.193469	-1.311220	-0.000003
C13	C	-0.037795	-1.753124	0.000004
C14	C	-0.177255	-1.748786	-0.000002
N15	N	0.191705	-1.744693	0.419763
C16	C	-0.256217	-1.881001	0.000004
C17	C	-0.387254	-1.876917	-0.000009
C18	C	-0.360354	-1.608391	-0.000026
C19	C	-0.229320	-1.612477	-0.000026
C20	C	-0.204153	-2.017310	0.000027
C21	C	-0.283116	-2.149536	0.000035
C22	C	-0.414153	-2.145452	0.000023
C23	C	-0.466226	-2.009142	0.000003
C24	C	0.421213	-1.736279	-0.000009
C25	C	0.560673	-1.740616	-0.000014
C26	C	0.185608	-2.014364	-0.000003
C27	C	0.189949	-2.178183	-0.000014
N28	N	0.191703	-1.744721	-0.419764
H29	H	-0.240708	-2.260515	0.000008
O30	O	-0.593535	-2.005358	-0.000257
C31	C	-0.644674	-2.077612	-0.153050
H32	H	-0.577013	-2.158367	-0.203971
H33	H	-0.738954	-2.140879	-0.118703
H34	H	-0.659410	-1.992020	-0.260025
H35	H	-0.478442	-2.253116	0.000011
H36	H	-0.097457	-2.020651	0.000043
H37	H	-0.402764	-1.497414	-0.000040
H38	H	-0.165026	-1.504816	-0.000029
