data_functionalizedCrystal
_audit_creation_method	'MofGen! by Chris Wilmer'
_symmetry_space_group_name_H-M	'P1'
_symmetry_Int_Tables_number	1
_symmetry_cell_setting	triclinic
loop_
_symmetry_equiv_pos_as_xyz
  x,y,z
_cell_length_a	18.050590
_cell_length_b	12.827893
_cell_length_c	12.827885
_cell_angle_alpha	89.980538
_cell_angle_beta	90.024356
_cell_angle_gamma	89.991989
loop_
_atom_site_label
_atom_site_type_symbol
_atom_site_fract_x
_atom_site_fract_y
_atom_site_fract_z
Zn1	Zn	0.295624	1.597725	-0.590888
Zn2	Zn	0.419832	1.597641	-0.416165
Zn3	Zn	0.295660	1.422966	-0.416162
Zn4	Zn	0.419777	1.422974	-0.590865
O5	O	0.357723	1.510326	-0.503520
O6	O	0.312108	1.743950	-0.567722
O7	O	0.403398	1.574431	-0.269928
O8	O	0.191731	1.446180	-0.439348
O9	O	0.403363	1.743888	-0.439353
O10	O	0.191704	1.574574	-0.567719
O11	O	0.312170	1.446098	-0.269926
O12	O	0.312116	1.276731	-0.439325
O13	O	0.403269	1.446194	-0.737104
O14	O	0.403304	1.276737	-0.567679
O15	O	0.312055	1.574582	-0.737121
O16	O	0.523749	1.574439	-0.439331
O17	O	0.523709	1.446112	-0.567682
C18	C	0.357709	1.238817	-0.503500
C19	C	0.357721	1.122663	-0.503516
C20	C	0.164018	1.510386	-0.503535
C21	C	0.081472	1.510411	-0.503542
C22	C	0.402914	1.070909	-0.566932
C23	C	0.402927	0.950859	-0.566950
C24	C	-0.117993	1.580228	-0.573372
C25	C	-0.167360	1.605763	-0.478037
C26	C	-0.069659	1.510400	-0.503548
C27	C	-0.167373	1.484904	-0.598886
C28	C	-0.215644	1.510392	-0.503561
C29	C	-0.117938	1.535984	-0.408162
C30	C	-0.117947	1.415082	-0.529075
C31	C	-0.167292	1.440580	-0.433674
C32	C	0.014440	1.510408	-0.503541
C33	C	-0.299740	1.510385	-0.503557
C34	C	0.550675	1.510296	-0.503527
C35	C	0.633221	1.510378	-0.503565
C36	C	0.357652	1.510398	-0.776090
C37	C	0.357621	1.510429	-0.892243
C38	C	0.357738	1.782897	-0.503541
C39	C	0.357744	1.899050	-0.503549
C40	C	0.312470	1.446946	-0.944027
C41	C	0.312437	1.446976	-1.064077
C42	C	0.357741	1.510315	-0.232010
C43	C	0.357562	1.510487	-0.115857
H44	H	0.441593	1.115477	-0.621214
H45	H	-0.096315	1.557645	-0.327520
H46	H	-0.188801	1.381525	-0.374564
C47	C	0.260810	1.374461	-1.123259
C48	C	0.219174	1.315881	-1.052214
C49	C	0.171598	1.249077	-1.106696
H50	H	0.289149	1.328878	-1.165838
H51	H	0.228428	1.414473	-1.165820
H52	H	0.251551	1.275873	-1.009671
H53	H	0.190820	1.361437	-1.009633
H54	H	0.139217	1.289089	-1.149256
H55	H	0.199944	1.203501	-1.149272
H56	H	0.143338	1.209330	-1.058500
C57	C	-0.089163	1.659190	-0.651863
C58	C	-0.114187	1.758843	-0.624649
C59	C	-0.087635	1.831612	-0.696916
H60	H	-0.106799	1.641885	-0.719453
H61	H	-0.036534	1.658270	-0.651740
H62	H	-0.166805	1.759761	-0.624782
H63	H	-0.096553	1.776181	-0.557070
H64	H	-0.035006	1.830691	-0.696794
H65	H	-0.105272	1.814297	-0.764502
H66	H	-0.104604	1.899236	-0.678456
C67	C	0.409011	1.583068	-0.951678
C68	C	0.366904	1.650036	-1.014326
C69	C	0.414218	1.716978	-1.069077
H70	H	0.441345	1.543182	-0.994338
H71	H	0.437327	1.622955	-0.903652
H72	H	0.338599	1.610154	-1.062346
H73	H	0.334571	1.689945	-0.971692
H74	H	0.442535	1.756865	-1.021052
H75	H	0.446550	1.677083	-1.111731
H76	H	0.385655	1.762430	-1.111583
H77	H	0.396217	1.564843	-1.071331
C78	C	0.454440	0.891335	-0.639309
C79	C	0.444194	0.784097	-0.624967
C80	C	0.491629	0.729229	-0.691617
H81	H	0.504365	0.909039	-0.623984
H82	H	0.443631	0.909144	-0.709583
H83	H	0.455008	0.766295	-0.554708
H84	H	0.394278	0.766362	-0.640299
H85	H	0.480820	0.747038	-0.761892
H86	H	0.541551	0.746942	-0.676287
H87	H	0.484679	0.656463	-0.681902
C88	C	0.306269	0.958514	-0.431088
C89	C	0.348297	1.021162	-0.364077
C90	C	0.300904	1.075973	-0.297321
H91	H	0.277907	0.910557	-0.391213
H92	H	0.273980	1.001174	-0.471139
H93	H	0.380573	0.978505	-0.324029
H94	H	0.376658	1.069138	-0.403923
H95	H	0.268615	1.118634	-0.337373
H96	H	0.272544	1.028009	-0.257454
H97	H	0.329413	1.118494	-0.251853
C98	C	-0.196200	1.713248	-0.449074
C99	C	-0.170059	1.740396	-0.349957
C100	C	-0.196598	1.839412	-0.323255
H101	H	-0.248819	1.712427	-0.448574
H102	H	-0.179302	1.762829	-0.498691
H103	H	-0.186962	1.690828	-0.300353
H104	H	-0.117443	1.741240	-0.350431
H105	H	-0.179700	1.888992	-0.372873
H106	H	-0.249217	1.838581	-0.322762
H107	H	-0.178860	1.857848	-0.256007
H108	H	-0.096228	1.334498	-0.550695
H109	H	0.319036	1.078095	-0.449242
C110	C	-0.196212	1.456277	-0.706477
C111	C	-0.171211	1.529628	-0.779250
C112	C	-0.197746	1.503287	-0.878378
H113	H	-0.248832	1.455866	-0.705714
H114	H	-0.178536	1.389061	-0.725129
H115	H	-0.188891	1.596826	-0.760603
H116	H	-0.118595	1.530050	-0.780046
H117	H	-0.180070	1.436072	-0.897029
H118	H	-0.250365	1.502876	-0.877603
H119	H	-0.180781	1.553046	-0.927767
H120	H	0.273841	1.392569	-0.899484
