data_functionalizedCrystal
_audit_creation_method	'MofGen! by Chris Wilmer'
_symmetry_space_group_name_H-M	'P1'
_symmetry_Int_Tables_number	1
_symmetry_cell_setting	triclinic
loop_
_symmetry_equiv_pos_as_xyz
  x,y,z
_cell_length_a	12.777686
_cell_length_b	15.624803
_cell_length_c	15.625605
_cell_angle_alpha	39.022070
_cell_angle_beta	97.079234
_cell_angle_gamma	82.921597
loop_
_atom_site_label
_atom_site_type_symbol
_atom_site_fract_x
_atom_site_fract_y
_atom_site_fract_z
O1	O	0.351563	0.482423	0.711725
O2	O	0.328324	0.351061	0.580354
O3	O	0.188479	0.421488	0.650797
O4	O	0.491408	0.411995	0.641282
O5	O	0.119372	0.650769	0.421531
O6	O	0.259218	0.580342	0.351088
O7	O	0.282457	0.711703	0.482459
Zn8	Zn	0.259865	0.682426	0.380372
Zn9	Zn	0.350916	0.380339	0.682440
O10	O	0.422302	0.641276	0.412016
C11	C	0.287973	0.448913	0.448931
C12	C	0.270684	0.398889	0.398905
C13	C	0.495991	0.526626	0.526649
C14	C	0.614793	0.526626	0.526651
C15	C	0.114793	0.536127	0.536175
C16	C	-0.004007	0.536121	0.536178
C17	C	0.402158	-0.390581	0.859377
C18	C	0.385892	-0.437582	0.812369
C19	C	0.310551	-0.187641	0.562421
C20	C	0.326806	-0.140617	0.609409
C21	C	0.372611	-0.242096	0.757889
C22	C	0.297259	0.007868	0.507920
C23	C	0.313518	0.054887	0.554905
C24	C	0.359325	-0.046579	0.703378
C25	C	0.388871	-0.195077	0.804873
C26	C	0.251461	0.109344	0.359440
C27	C	0.221914	0.257830	0.257952
C28	C	0.238166	0.304851	0.304936
C29	C	0.283972	0.203385	0.453409
C30	C	0.208620	0.453349	0.203441
C31	C	0.224879	0.500368	0.250425
C32	C	0.300232	0.250404	0.500394
O33	O	0.991407	0.421486	0.650802
O34	O	0.688469	0.411993	0.641274
O35	O	0.828320	0.482409	0.711734
O36	O	0.851557	0.351070	0.580341
O37	O	0.759224	0.711694	0.482473
O38	O	0.619374	0.641277	0.412012
O39	O	0.922312	0.650771	0.421540
Zn40	Zn	0.759873	0.682428	0.380376
Zn41	Zn	0.850909	0.380335	0.682438
O42	O	0.782462	0.580354	0.351080
C43	C	0.322809	0.613848	0.613884
C44	C	0.340100	0.663863	0.663920
C45	C	0.787975	0.613835	0.613897
C46	C	0.770688	0.663845	0.663936
C47	C	0.822804	0.448938	0.448907
C48	C	0.840082	0.398956	0.398839
C49	C	0.902122	0.203460	1.453320
C50	C	0.885865	0.250494	1.500297
C51	C	0.810543	0.500443	1.250357
C52	C	0.826799	0.453430	1.203357
C53	C	0.872587	0.304937	1.304847
C54	C	0.797264	0.554906	1.054884
C55	C	0.813513	0.507896	1.007889
C56	C	0.859296	0.359409	1.109367
C57	C	0.888836	0.257926	1.257852
C58	C	0.751468	0.703399	0.953396
C59	C	0.721934	0.804875	0.804923
C60	C	0.738190	0.757866	0.757926
C61	C	0.783973	0.609379	0.859404
C62	C	0.708650	0.859349	0.609441
C63	C	0.724899	0.812338	0.562446
C64	C	0.800222	0.562369	0.812409
N65	N	0.197726	0.888596	0.174223
N66	N	0.413048	0.174173	0.888594
N67	N	0.697751	0.888600	0.174228
N68	N	0.913041	0.174168	0.888591
C69	C	0.114084	0.991915	0.133309
C70	C	0.070564	1.136249	-0.010996
C71	C	0.110694	1.177263	-0.114382
C72	C	0.194341	1.073930	-0.073462
C73	C	0.237854	0.929597	0.070838
C74	C	0.373015	0.133297	0.991965
C75	C	0.416496	-0.011017	1.136290
C76	C	0.500004	-0.114455	1.177239
C77	C	0.540041	-0.073571	1.073856
C78	C	0.496566	0.070743	0.929536
C79	C	0.603978	0.987543	0.128877
C80	C	0.560484	1.131873	-0.015432
C81	C	0.610770	1.177259	-0.114385
C82	C	0.704550	1.078303	-0.069028
C83	C	0.748037	0.933973	0.075277
C84	C	1.006547	0.075093	0.933805
C85	C	1.050048	-0.069234	1.078117
C86	C	1.000047	-0.114480	1.177215
C87	C	0.906530	-0.015393	1.131992
C88	C	0.863025	0.128928	0.987679
H89	H	0.337527	0.167768	0.621301
C90	C	0.851525	-0.065194	1.241012
N91	N	0.810096	-0.102711	1.323131
C92	C	0.281160	0.247059	0.946956
N93	N	0.211980	0.332739	0.913069
H94	H	0.002458	1.220370	-0.044290
H95	H	0.535396	-0.231960	1.294757
H96	H	0.824395	0.853421	0.112187
C97	C	0.377209	0.005144	0.755062
N98	N	0.390677	0.044103	0.793990
C99	C	0.439259	-0.306707	0.968209
N100	N	0.477214	-0.390782	1.091228
C101	C	0.238468	1.119068	-0.187209
N102	N	0.271705	1.153071	-0.272888
C103	C	0.692406	0.923968	0.399118
N104	N	0.667926	1.008050	0.276095
H105	H	0.305965	0.845480	0.104139
H106	H	0.383881	-0.044284	1.220450
H107	H	0.484123	1.212425	-0.052338
C108	C	0.452546	-0.502211	1.022713
N109	N	0.490502	-0.586286	1.145733
C110	C	0.540604	0.115682	0.815834
N111	N	0.573778	0.149520	0.730198
H112	H	0.608039	-0.157807	1.107215
H113	H	0.926133	0.137009	1.340499
C114	C	0.760163	0.237900	0.937963
N115	N	0.682682	0.319971	0.900525
H116	H	0.081396	0.958546	0.217473
C117	C	1.061563	0.124829	0.824818
N118	N	1.103003	0.162277	0.742733
C119	C	0.548638	0.937647	0.237701
N120	N	0.506945	0.900073	0.319657
H121	H	0.409960	-0.558500	0.895024
H122	H	0.939419	0.082543	1.535966
H123	H	0.575356	1.294789	-0.231879
H124	H	0.745493	1.115284	-0.149612
H125	H	0.684648	0.925779	0.722302
C126	C	1.152930	-0.178200	1.127839
N127	N	1.230423	-0.260267	1.165286
H128	H	1.035475	-0.232003	1.294716
H129	H	0.273260	-0.105030	0.441528
C130	C	0.233570	0.057618	0.307761
N131	N	0.220090	0.018656	0.268837
H132	H	0.184623	0.340441	0.137059
H133	H	0.171335	0.535959	0.082548
H134	H	0.909931	0.167849	1.621205
H135	H	0.200825	0.621276	0.167782
H136	H	0.837520	0.441452	0.895055
C137	C	0.759424	0.663728	1.138686
N138	N	0.720651	0.786698	1.054555
C139	C	0.877172	0.307697	1.057670
N140	N	0.890639	0.268747	1.018731
H141	H	0.671359	0.980251	0.526821
H142	H	0.075255	1.294793	-0.231877
H143	H	0.738244	0.741670	0.991670
