data_functionalizedCrystal
_audit_creation_method	'MofGen! by Chris Wilmer'
_symmetry_space_group_name_H-M	'P1'
_symmetry_Int_Tables_number	1
_symmetry_cell_setting	triclinic
loop_
_symmetry_equiv_pos_as_xyz
  x,y,z
_cell_length_a	15.944551
_cell_length_b	15.944551
_cell_length_c	14.421503
_cell_angle_alpha	90.003340
_cell_angle_beta	90.003141
_cell_angle_gamma	96.501262
loop_
_atom_site_label
_atom_site_type_symbol
_atom_site_fract_x
_atom_site_fract_y
_atom_site_fract_z
O1	O	1.114529	-0.108320	0.077017
O2	O	0.869980	-0.121677	0.077040
O3	O	0.998933	0.007276	0.077020
O4	O	0.985576	-0.237273	0.077038
O5	O	0.998911	0.007257	-0.077204
O6	O	0.869958	-0.121696	-0.077183
O7	O	1.114508	-0.108340	-0.077206
Cu8	Cu	0.992231	-0.115020	-0.091277
Cu9	Cu	0.992256	-0.114997	0.091110
O10	O	0.985555	-0.237293	-0.077186
C11	C	0.838675	-0.121132	-0.000069
C12	C	0.745429	-0.119470	-0.000060
C13	C	0.998367	0.038561	-0.000092
C14	C	0.996705	0.131807	-0.000093
C15	C	0.530572	-0.035565	-0.000084
C16	C	0.469563	-0.074518	0.075959
C17	C	0.574703	-0.116462	-0.000071
C18	C	0.469564	-0.074556	-0.076093
C19	C	0.409790	-0.113551	-0.000086
C20	C	0.514922	-0.155437	0.076035
C21	C	0.514929	-0.155464	-0.076086
C22	C	0.453937	-0.194476	-0.000024
C23	C	0.669705	-0.118137	-0.000062
C24	C	0.314789	-0.111883	-0.000089
C25	C	1.145813	-0.108885	-0.000096
C26	C	1.239059	-0.110547	-0.000098
C27	C	0.986120	-0.268577	-0.000072
C28	C	0.987782	-0.361823	-0.000066
N29	N	0.992219	-0.115035	-0.219558
C30	C	0.912801	0.346663	-0.000072
C31	C	0.951753	0.407671	-0.076117
C32	C	0.993698	0.302533	-0.000085
C33	C	0.951793	0.407674	0.075935
C34	C	0.990787	0.467445	-0.000074
C35	C	1.032672	0.362312	-0.076193
C36	C	1.032701	0.362308	0.075927
C37	C	1.071711	0.423298	-0.000136
C38	C	0.995372	0.207530	-0.000092
C39	C	0.989119	0.562446	-0.000073
C40	C	0.932581	-0.174636	-0.469202
C41	C	1.008481	-0.190943	-0.531011
C42	C	0.992240	-0.115015	-0.408719
C43	C	0.916359	-0.098727	-0.531005
C44	C	0.992253	-0.114997	-0.591441
C45	C	1.068178	-0.131360	-0.469167
C46	C	0.976007	-0.039111	-0.469156
C47	C	1.051961	-0.055386	-0.530936
C48	C	0.992231	-0.115027	-0.303458
C49	C	0.992270	-0.114985	-0.696700
N50	N	0.992275	-0.114975	0.219392
H51	H	0.449461	-0.040294	0.140243
O52	O	0.839763	-0.082245	-0.563251
C53	C	0.785789	-0.071506	-0.487783
H54	H	0.825190	-0.052578	-0.423597
H55	H	0.744355	-0.133276	-0.473823
C56	C	0.681184	-0.025151	-0.589741
C57	C	0.729577	-0.001896	-0.510909
H58	H	0.646507	0.017784	-0.604007
H59	H	0.717545	-0.032389	-0.640587
H60	H	0.646663	-0.076627	-0.578098
H61	H	0.764104	0.049573	-0.522557
H62	H	0.693220	0.005352	-0.460066
O63	O	0.570451	0.044483	-0.000049
C64	C	0.658536	0.041835	-0.000844
H65	H	0.673160	-0.021163	-0.030526
H66	H	0.683963	0.049034	0.072956
C67	C	0.682693	0.191691	-0.024853
C68	C	0.700654	0.114319	-0.061316
H69	H	0.708675	0.236405	-0.062151
H70	H	0.623348	0.193477	-0.024314
H71	H	0.703883	0.197679	0.036647
H72	H	0.679455	0.108328	-0.122810
H73	H	0.759997	0.112534	-0.061867
H74	H	0.845652	0.313356	-0.000141
O75	O	1.073390	0.338314	-0.152950
C76	C	1.074450	0.250016	-0.152036
H77	H	1.020536	0.219826	-0.106965
H78	H	1.137171	0.234266	-0.122645
C79	C	1.129927	0.252704	-0.306983
C80	C	1.063705	0.215623	-0.251632
H81	H	1.123303	0.231488	-0.368417
H82	H	1.129216	0.312192	-0.307597
H83	H	1.182188	0.239576	-0.282479
H84	H	1.011446	0.228760	-0.276129
H85	H	1.064407	0.156136	-0.251023
O86	O	0.872367	-0.234719	-0.436809
C87	C	0.813575	-0.196210	-0.383017
H88	H	0.814921	-0.127157	-0.404070
H89	H	0.830650	-0.200208	-0.306503
C90	C	0.722815	-0.326836	-0.373321
C91	C	0.724463	-0.242026	-0.399184
H92	H	0.667847	-0.355098	-0.383289
H93	H	0.762426	-0.352781	-0.409559
H94	H	0.737049	-0.330156	-0.309561
H95	H	0.710240	-0.238706	-0.462945
H96	H	0.684848	-0.216081	-0.362957
O97	O	0.910846	0.431748	-0.152709
C98	C	0.840804	0.472465	-0.125407
H99	H	0.851378	0.498366	-0.052140
H100	H	0.781434	0.425358	-0.126860
C101	C	0.817225	0.513778	-0.282579
C102	C	0.830215	0.545595	-0.192595
H103	H	0.810689	0.558885	-0.324026
H104	H	0.864411	0.486343	-0.300975
H105	H	0.767750	0.474522	-0.283777
H106	H	0.879694	0.584842	-0.191396
H107	H	0.783036	0.573038	-0.174201
H108	H	1.022224	-0.255126	-0.558180
H109	H	0.534918	-0.189620	0.140394
H110	H	1.138919	0.456457	-0.000186
H111	H	1.066897	0.342186	0.140214
H112	H	0.420779	-0.261683	0.000023
H113	H	0.917575	0.427758	0.140230
O114	O	0.539062	-0.196146	-0.152801
C115	C	0.596155	-0.140905	-0.204915
H116	H	0.627417	-0.089093	-0.157785
H117	H	0.560685	-0.111316	-0.262800
C118	C	0.625807	-0.254158	-0.305202
C119	C	0.664209	-0.190525	-0.247314
H120	H	0.667784	-0.284766	-0.331359
H121	H	0.587340	-0.291375	-0.270094
H122	H	0.596250	-0.229491	-0.353431
H123	H	0.693756	-0.215194	-0.199080
H124	H	0.702683	-0.153314	-0.282415
H125	H	1.132368	-0.145205	-0.442119
O126	O	1.112327	0.004687	-0.563037
C127	C	1.192179	-0.012785	-0.531337
H128	H	1.189780	-0.082789	-0.514090
H129	H	1.210040	0.026178	-0.466556
C130	C	1.261463	0.096040	-0.628701
C131	C	1.258519	0.010058	-0.607525
H132	H	1.302387	0.110134	-0.675694
H133	H	1.207666	0.107815	-0.650055
H134	H	1.276345	0.128499	-0.574710
H135	H	1.243627	-0.022399	-0.661512
H136	H	1.312316	-0.001721	-0.586181
O137	O	0.445702	-0.033620	-0.152761
C138	C	0.485095	0.050134	-0.152461
H139	H	0.544501	0.054165	-0.107948
H140	H	0.439847	0.093699	-0.122780
C141	C	0.436036	0.072375	-0.307027
C142	C	0.509003	0.077325	-0.252362
H143	H	0.450781	0.089151	-0.368651
H144	H	0.409493	0.015950	-0.307229
H145	H	0.398336	0.108680	-0.282283
H146	H	0.546697	0.041014	-0.277100
H147	H	0.535553	0.133745	-0.252167
O148	O	0.959438	0.037399	-0.436752
C149	C	0.879339	0.054325	-0.468223
H150	H	0.839473	-0.007599	-0.485603
H151	H	0.887016	0.095620	-0.532876
C152	C	0.884287	0.176737	-0.370440
C153	C	0.835321	0.100680	-0.391779
H154	H	0.857135	0.205335	-0.323289
H155	H	0.938253	0.165337	-0.349240
H156	H	0.890681	0.211139	-0.424324
H157	H	0.828936	0.066275	-0.337899
H158	H	0.781353	0.112076	-0.412969
