data_functionalizedCrystal
_audit_creation_method	'MofGen! by Chris Wilmer'
_symmetry_space_group_name_H-M	'P1'
_symmetry_Int_Tables_number	1
_symmetry_cell_setting	triclinic
loop_
_symmetry_equiv_pos_as_xyz
  x,y,z
_cell_length_a	17.699083
_cell_length_b	23.532407
_cell_length_c	16.176319
_cell_angle_alpha	89.988536
_cell_angle_beta	89.998611
_cell_angle_gamma	83.065847
loop_
_atom_site_label
_atom_site_type_symbol
_atom_site_fract_x
_atom_site_fract_y
_atom_site_fract_z
O1	O	1.003713	0.072020	-0.068639
O2	O	0.783287	0.081390	-0.068667
O3	O	0.900147	-0.006208	-0.068637
O4	O	0.886853	0.159618	-0.068669
O5	O	0.900131	-0.006213	0.068856
O6	O	0.783271	0.081384	0.068826
O7	O	1.003697	0.072014	0.068854
Cu8	Cu	0.893483	0.076699	0.081394
Cu9	Cu	0.893502	0.076705	-0.081207
O10	O	0.886837	0.159612	0.068824
C11	C	0.755084	0.081051	0.000076
C12	C	0.671071	0.080044	0.000066
C13	C	0.622189	0.131462	0.000056
C14	C	0.543251	0.130512	0.000067
C15	C	0.513196	0.078144	0.000082
C16	C	0.562084	0.026722	0.000094
C17	C	0.641021	0.027672	0.000089
C18	C	0.243740	0.022888	0.000115
C19	C	0.164797	0.021942	0.000117
C20	C	0.145970	0.125728	0.000093
C21	C	0.224907	0.126678	0.000088
C22	C	0.273788	0.075257	0.000105
C23	C	0.359382	0.076287	0.000094
C24	C	0.427603	0.077113	0.000086
C25	C	0.899801	-0.027427	0.000111
C26	C	0.898783	-0.090647	0.000118
C27	C	0.961554	-0.489570	0.000080
C28	C	0.960609	-0.548973	0.000074
O29	O	1.018799	-0.585550	0.000051
N30	N	0.891136	-0.571799	0.000066
C31	C	0.822604	-0.535218	0.000055
O32	O	0.763424	-0.560088	0.000047
C33	C	0.823550	-0.475816	0.000056
C34	C	0.893028	-0.452994	0.000073
C35	C	1.031026	-0.466747	0.000096
C36	C	1.031972	-0.407348	0.000104
C37	C	0.963445	-0.370772	0.000096
C38	C	0.893973	-0.393595	0.000080
C39	C	0.755019	-0.439237	0.000040
C40	C	0.755971	-0.379832	0.000039
C41	C	0.825448	-0.357009	0.000056
C42	C	0.826391	-0.297620	0.000081
N43	N	0.895864	-0.274795	0.000089
C44	C	0.964391	-0.311371	0.000097
C45	C	0.820622	-0.659966	0.000053
C46	C	0.819674	-0.719367	0.000058
C47	C	0.957680	-0.733118	0.000075
C48	C	0.958626	-0.673716	0.000076
C49	C	0.890095	-0.637141	0.000061
C50	C	0.966371	-0.186628	0.000114
C51	C	0.967310	-0.127223	0.000125
C52	C	0.829305	-0.113478	0.000104
C53	C	0.828365	-0.172877	0.000097
C54	C	0.896904	-0.209452	0.000099
O55	O	0.768232	-0.261008	0.000100
O56	O	1.023560	-0.286493	0.000094
C57	C	1.031901	0.072353	0.000109
C58	C	1.115914	0.073360	0.000114
C59	C	0.887184	0.180832	0.000073
C60	C	0.888202	0.244052	0.000062
N61	N	0.893475	0.076694	0.195759
N62	N	0.893516	0.076706	-0.195573
C63	C	0.945236	0.037921	0.239037
C64	C	0.945240	0.037921	0.325584
C65	C	0.893486	0.076696	0.368852
C66	C	0.841719	0.115470	0.325568
C67	C	0.841713	0.115467	0.239023
C68	C	0.841745	0.115481	0.674597
C69	C	0.841758	0.115481	0.761148
C70	C	0.945273	0.037934	0.761158
C71	C	0.945266	0.037932	0.674612
C72	C	0.893497	0.076704	0.631336
C73	C	0.893493	0.076703	0.537492
C74	C	0.893493	0.076700	0.462695
H75	H	0.140330	-0.020705	0.000130
C76	C	0.785473	0.157604	0.807978
C77	C	0.740119	0.191547	0.751556
C78	C	0.688259	0.230349	0.794665
H79	H	0.812429	0.181343	0.841730
H80	H	0.754092	0.137156	0.841734
H81	H	0.771496	0.211993	0.717814
H82	H	0.713147	0.167824	0.717802
H83	H	0.656877	0.209901	0.828421
H84	H	0.715221	0.254084	0.828415
H85	H	0.657475	0.253380	0.756389
C86	C	1.107382	-0.382541	0.000279
C87	C	1.111972	-0.348862	0.071026
C88	C	1.181436	-0.326011	0.071216
H89	H	1.110700	-0.359610	-0.047612
H90	H	1.148077	-0.412822	0.000324
H91	H	1.071288	-0.318586	0.070973
H92	H	1.108668	-0.371781	0.118929
H93	H	1.222131	-0.356292	0.071261
H94	H	1.184747	-0.303082	0.023322
H95	H	1.184562	-0.303162	0.119220
C96	C	1.001342	-0.004283	0.192130
C97	C	0.989460	-0.060226	0.213215
C98	C	1.041122	-0.099129	0.170026
H99	H	1.051840	0.001773	0.206277
H100	H	0.993937	0.001215	0.134375
H101	H	0.996871	-0.065722	0.270957
H102	H	0.938972	-0.066301	0.199066
H103	H	1.033718	-0.093631	0.112271
H104	H	1.091617	-0.093067	0.184176
H105	H	1.033063	-0.137090	0.184320
C106	C	0.785492	0.157477	0.372651
C107	C	0.739413	0.127184	0.422372
C108	C	0.687615	0.165864	0.465763
H109	H	0.754588	0.180585	0.334576
H110	H	0.812521	0.181152	0.406447
H111	H	0.712386	0.103519	0.388579
H112	H	0.770296	0.104078	0.460462
H113	H	0.714644	0.189539	0.499559
H114	H	0.656717	0.188969	0.427682
H115	H	0.656349	0.145315	0.499509
C116	C	0.490304	0.186400	0.000013
C117	C	0.533520	0.232465	-0.000027
C118	C	0.484773	0.283959	-0.000086
H119	H	0.459106	0.188268	0.047950
H120	H	0.459126	0.188218	-0.047950
H121	H	0.564685	0.230647	0.047931
H122	H	0.564717	0.230615	-0.047961
H123	H	0.453595	0.285778	-0.048049
H124	H	0.453576	0.285821	0.047852
H125	H	0.514087	0.315220	-0.000121
H126	H	0.799595	0.147051	0.639368
C127	C	0.296679	-0.033001	0.000087
C128	C	0.253459	-0.079064	0.000077
C129	C	0.302204	-0.130560	0.000040
H130	H	0.327880	-0.034872	0.048021
H131	H	0.327854	-0.034820	-0.047879
H132	H	0.222297	-0.077246	0.048037
H133	H	0.222259	-0.077212	-0.047854
H134	H	0.333379	-0.132378	-0.047925
H135	H	0.333403	-0.132424	0.047976
H136	H	0.272886	-0.161819	0.000026
C137	C	0.257647	0.183493	0.000192
C138	C	0.302437	0.187063	0.070911
C139	C	0.332619	0.239388	0.071028
H140	H	0.217310	0.214032	0.000229
H141	H	0.288089	0.186021	-0.047735
H142	H	0.271997	0.184540	0.118826
H143	H	0.342786	0.156535	0.070889
H144	H	0.363060	0.241917	0.023101
H145	H	0.292277	0.269923	0.071063
H146	H	0.363018	0.241815	0.119006
C147	C	0.529500	-0.030154	0.000278
C148	C	0.554366	-0.061228	0.071031
C149	C	0.524360	-0.113623	0.071230
H150	H	0.546286	-0.051386	-0.047609
H151	H	0.475484	-0.023382	0.000321
H152	H	0.608371	-0.068002	0.070980
H153	H	0.537581	-0.040013	0.118929
H154	H	0.470344	-0.106851	0.071273
H155	H	0.541148	-0.134850	0.023340
H156	H	0.541221	-0.134711	0.119239
C157	C	0.681505	-0.340188	-0.000104
C158	C	0.639650	-0.350489	-0.070840
C159	C	0.571046	-0.313988	-0.070993
H160	H	0.691905	-0.301522	-0.000141
H161	H	0.652949	-0.347116	0.047812
H162	H	0.668200	-0.343558	-0.118743
H163	H	0.629230	-0.389149	-0.070818
H164	H	0.542490	-0.320915	-0.023077
H165	H	0.581454	-0.275323	-0.071027
H166	H	0.542636	-0.320975	-0.118982
H167	H	0.771791	-0.191460	0.000106
C168	C	1.001323	-0.004240	0.372609
C169	C	0.961286	-0.039081	0.422295
C170	C	1.012928	-0.077933	0.465615
H171	H	1.032695	0.016152	0.406428
H172	H	1.032135	-0.027361	0.334467
H173	H	0.930488	-0.015962	0.460433
H174	H	0.929918	-0.059485	0.388497
H175	H	1.043740	-0.101054	0.427473
H176	H	1.044297	-0.057536	0.499429
H177	H	0.985770	-0.101581	0.499326
H178	H	0.646653	0.174106	0.000044
H179	H	0.106161	0.167598	0.000084
H180	H	0.987411	0.006359	0.639386
C181	C	0.754850	-0.073826	-0.000039
C182	C	0.712998	-0.084123	-0.070779
C183	C	0.644402	-0.047610	-0.070941
H184	H	0.765264	-0.035162	-0.000080
H185	H	0.726288	-0.080745	0.047874
H186	H	0.741554	-0.077199	-0.118680
H187	H	0.702564	-0.122780	-0.070753
H188	H	0.615840	-0.054529	-0.023028
H189	H	0.654823	-0.008948	-0.070979
H190	H	0.615994	-0.054595	-0.118933
H191	H	1.013478	-0.762909	0.000079
C192	C	1.042825	-0.102557	0.000097
C193	C	1.102633	-0.147307	0.000077
C194	C	1.172204	-0.124608	0.000038
H195	H	1.046169	-0.079687	0.048034
H196	H	1.046109	-0.079678	-0.047866
H197	H	1.099349	-0.170176	0.048036
H198	H	1.099314	-0.170180	-0.047856
H199	H	1.175489	-0.101730	-0.047925
H200	H	1.175540	-0.101739	0.047976
H201	H	1.212792	-0.154968	0.000017
C202	C	1.001435	-0.004260	0.808041
C203	C	0.989597	-0.060212	0.786989
C204	C	1.041324	-0.099094	0.830152
H205	H	0.994080	0.001212	0.865794
H206	H	1.051914	0.001842	0.793834
H207	H	0.939130	-0.066313	0.801202
H208	H	0.996958	-0.065702	0.729244
H209	H	1.091803	-0.092992	0.815945
H210	H	1.033965	-0.093618	0.887902
H211	H	1.033304	-0.137062	0.815869
H212	H	0.799563	0.147039	0.203787
C213	C	1.105493	-0.506385	-0.000020
C214	C	1.147371	-0.496060	-0.070737
C215	C	1.215983	-0.532553	-0.070860
H216	H	1.095102	-0.545054	-0.000063
H217	H	1.134028	-0.499466	0.047909
H218	H	1.118842	-0.502983	-0.118653
H219	H	1.157783	-0.457398	-0.070709
H220	H	1.244518	-0.525634	-0.022931
H221	H	1.205585	-0.571220	-0.070900
H222	H	1.244409	-0.525549	-0.118836
C223	C	1.034137	-0.649051	0.000042
C224	C	1.093942	-0.693804	0.000029
C225	C	1.163516	-0.671108	-0.000016
H226	H	1.037483	-0.626178	0.047974
H227	H	1.037423	-0.626177	-0.047926
H228	H	1.090658	-0.716668	0.047993
H229	H	1.090621	-0.716681	-0.047899
H230	H	1.166802	-0.648234	-0.047985
H231	H	1.166854	-0.648235	0.047916
H232	H	1.204102	-0.701469	-0.000032
C233	C	0.744163	-0.744031	0.000008
C234	C	0.684358	-0.699278	-0.000018
C235	C	0.614784	-0.721974	-0.000081
H236	H	0.740807	-0.766918	0.047938
H237	H	0.740886	-0.766892	-0.047962
H238	H	0.687633	-0.676427	0.047947
H239	H	0.687688	-0.676388	-0.047944
H240	H	0.611507	-0.744834	-0.048051
H241	H	0.611436	-0.744860	0.047850
H242	H	0.574198	-0.691613	-0.000105
C243	C	1.040761	-0.226359	-0.000049
C244	C	1.044280	-0.260843	-0.070798
C245	C	1.112799	-0.297444	-0.070976
H246	H	1.043330	-0.249880	0.047841
H247	H	1.082288	-0.204272	-0.000081
H248	H	1.002764	-0.282928	-0.070758
H249	H	1.041723	-0.237338	-0.118699
H250	H	1.154327	-0.275357	-0.071009
H251	H	1.115363	-0.320960	-0.023083
H252	H	1.115199	-0.320841	-0.118982
C253	C	0.746267	-0.620190	0.000178
C254	C	0.742775	-0.585686	0.070906
C255	C	0.674297	-0.549036	0.071042
H256	H	0.704698	-0.642225	0.000217
H257	H	0.743761	-0.596691	-0.047743
H258	H	0.745274	-0.609183	0.118815
H259	H	0.784329	-0.563640	0.070882
H260	H	0.671791	-0.525537	0.023121
H261	H	0.632733	-0.571075	0.071078
H262	H	0.671922	-0.525617	0.119026
C263	C	0.679637	-0.464081	-0.000117
C264	C	0.675080	-0.497778	-0.070851
C265	C	0.605649	-0.520677	-0.071022
H266	H	0.638904	-0.433840	-0.000171
H267	H	0.676370	-0.487008	0.047800
H268	H	0.678339	-0.474853	-0.118756
H269	H	0.715797	-0.528028	-0.070813
H270	H	0.602382	-0.543604	-0.023105
H271	H	0.564922	-0.490433	-0.071073
H272	H	0.602551	-0.543548	-0.119010
H273	H	0.680820	-0.014197	0.000096
