data_functionalizedCrystal
_audit_creation_method	'MofGen! by Chris Wilmer'
_symmetry_space_group_name_H-M	'P1'
_symmetry_Int_Tables_number	1
_symmetry_cell_setting	triclinic
loop_
_symmetry_equiv_pos_as_xyz
  x,y,z
_cell_length_a	10.489716
_cell_length_b	17.000371
_cell_length_c	9.565339
_cell_angle_alpha	89.996129
_cell_angle_beta	90.005026
_cell_angle_gamma	80.064192
loop_
_atom_site_label
_atom_site_type_symbol
_atom_site_fract_x
_atom_site_fract_y
_atom_site_fract_z
O1	O	0.045921	1.056363	-0.116262
O2	O	0.092185	0.824893	-0.116260
O3	O	-0.117216	0.945905	-0.116266
O4	O	0.255322	0.935351	-0.116256
O5	O	-0.117200	0.945895	0.116254
O6	O	0.092201	0.824883	0.116260
O7	O	0.045938	1.056353	0.116258
Zn8	Zn	0.069072	0.940616	0.153176
Zn9	Zn	0.069050	0.940630	-0.153179
O10	O	0.255339	0.935341	0.116264
C11	C	0.094678	0.795248	-0.000000
C12	C	0.102067	0.706932	0.000000
C13	C	-0.011642	0.674261	-0.000001
C14	C	-0.004691	0.591277	-0.000010
C15	C	0.115969	0.540966	-0.000010
C16	C	0.229686	0.573642	-0.000013
C17	C	0.222734	0.656624	-0.000013
C18	C	0.142821	0.289973	-0.000018
C19	C	0.149764	0.206985	-0.000014
C20	C	-0.084614	0.224626	-0.000014
C21	C	-0.091555	0.307609	-0.000006
C22	C	0.022162	0.340278	-0.000017
C23	C	0.123076	0.456143	-0.000015
C24	C	0.015053	0.425099	-0.000021
C25	C	-0.164640	0.945107	-0.000011
C26	C	-0.305970	0.942735	-0.000023
C27	C	-0.413060	1.016943	-0.000011
C28	C	-0.485453	0.977735	-0.114652
C29	C	-0.485399	0.977707	0.114595
C30	C	-0.376501	0.903557	-0.114759
C31	C	-0.376443	0.903541	0.114591
C32	C	-0.448780	0.864278	-0.000077
C33	C	0.302762	0.936139	0.000005
C34	C	0.444092	0.938511	0.000008
C35	C	0.043445	1.085998	-0.000005
C36	C	0.036056	1.174314	-0.000015
N37	N	0.069085	0.940613	0.362256
N38	N	0.069026	0.940640	-0.362258
C39	C	0.166567	0.885114	0.546631
C40	C	0.053546	0.868374	0.453402
C41	C	0.182101	0.957317	0.453416
C42	C	-0.044048	0.923863	0.546564
C43	C	0.084578	1.012839	0.546586
C44	C	-0.028530	0.996128	0.453399
H45	H	-0.097285	0.564681	-0.000012
H46	H	-0.532929	1.009065	-0.211575
H47	H	0.327930	0.532672	-0.000022
H48	H	-0.329231	0.872252	-0.211786
Cl49	Cl	0.329698	0.979116	0.390240
H50	H	-0.109897	0.715219	0.000005
H51	H	-0.083188	0.466066	-0.000030
H52	H	-0.111075	1.043075	0.412722
H53	H	-0.396574	1.081492	-0.000128
Cl54	Cl	-0.191670	0.901958	0.609464
H55	H	0.248944	0.838137	0.587567
Cl56	Cl	0.104924	1.107095	0.609837
H57	H	-0.465014	0.799681	-0.000139
H58	H	0.248025	0.166023	-0.000007
Cl59	Cl	0.274759	0.392889	-0.000016
Cl60	Cl	-0.243249	0.370851	0.000004
H61	H	-0.328947	0.872238	0.211517
H62	H	-0.177196	0.198018	-0.000021
Cl63	Cl	0.285781	0.331031	-0.000030
H64	H	-0.532841	1.009045	0.211512
H65	H	0.040412	0.807306	0.412461
Cl66	Cl	0.365689	0.697696	-0.000019
