data_functionalizedCrystal
_audit_creation_method	'MofGen! by Chris Wilmer'
_symmetry_space_group_name_H-M	'P1'
_symmetry_Int_Tables_number	1
_symmetry_cell_setting	triclinic
loop_
_symmetry_equiv_pos_as_xyz
  x,y,z
_cell_length_a	23.096457
_cell_length_b	14.809374
_cell_length_c	14.809374
_cell_angle_alpha	57.530506
_cell_angle_beta	98.950603
_cell_angle_gamma	67.425492
loop_
_atom_site_label
_atom_site_type_symbol
_atom_site_fract_x
_atom_site_fract_y
_atom_site_fract_z
Zr1	Zr	0.605265	1.000592	-0.231452
O2	O	0.509589	1.191294	-0.398649
O3	O	0.626735	0.809887	-0.165466
O4	O	0.619042	1.000592	-0.377413
O5	O	0.532291	1.000590	-0.036271
O6	O	0.714322	1.000595	-0.377419
O7	O	0.517282	1.000589	-0.186702
O8	O	0.728083	0.659458	0.001716
O9	O	0.518531	1.341726	-0.415406
O10	O	0.716495	0.888329	-0.155125
O11	O	0.656590	0.888328	-0.042856
O12	O	0.647533	1.112858	-0.292397
O13	O	0.587627	1.112857	-0.180128
Zr14	Zr	0.781164	1.000596	0.008459
Zr15	Zr	0.757226	1.000596	-0.231461
Zr16	Zr	0.629204	1.000592	0.008468
Zr17	Zr	0.619526	1.240513	-0.258177
Zr18	Zr	0.766904	0.760675	0.035184
O19	O	0.759695	1.191301	-0.057528
O20	O	0.725658	1.191300	-0.398662
O21	O	0.543626	1.191295	-0.057514
O22	O	0.876841	0.809894	0.175656
O23	O	0.842803	0.809893	-0.165479
O24	O	0.660772	0.809888	0.175669
O25	O	0.854139	1.000598	-0.186722
O26	O	0.767387	1.000596	0.154420
O27	O	0.672107	1.000593	0.154426
O28	O	0.869148	1.000599	-0.036292
O29	O	0.639319	1.341729	-0.415413
O30	O	0.747111	0.659459	0.192420
O31	O	0.867899	0.659462	0.192413
O32	O	0.848871	0.659462	0.001709
O33	O	0.537558	1.341726	-0.224702
O34	O	0.658347	1.341730	-0.224709
O35	O	0.738897	0.888330	0.069404
O36	O	0.798802	0.888332	-0.042865
O37	O	0.729840	1.112860	-0.180137
O38	O	0.669935	1.112859	-0.067868
C39	C	0.675377	0.700489	-0.078067
C40	C	0.669323	0.598636	-0.066721
C41	C	0.503135	1.000589	-0.111485
C42	C	0.438624	1.000587	-0.111481
C43	C	0.696341	0.553228	-0.117356
C44	C	0.690085	0.447958	-0.105631
C45	C	0.444315	0.883389	-0.039838
C46	C	0.383700	0.883387	-0.039833
C47	C	0.317393	1.000590	-0.111494
C48	C	0.311705	1.117804	-0.183141
C49	C	0.372321	1.117802	-0.183135
N50	N	0.190266	1.087831	-0.216588
N51	N	0.132686	1.087824	-0.216591
C52	C	0.134759	1.000602	-0.111515
N53	N	0.196592	0.913367	-0.006434
N54	N	0.254178	0.913369	-0.006433
C55	C	0.251661	1.000605	-0.111508
C56	C	0.074726	0.883394	-0.039860
C57	C	0.014109	0.883397	-0.039852
C58	C	-0.057887	1.117817	-0.183172
C59	C	0.002731	1.117810	-0.183168
C60	C	0.069035	1.000595	-0.111514
C61	C	0.883294	1.000599	-0.111508
C62	C	0.947806	1.000601	-0.111512
C63	C	0.663272	1.000593	-0.411599
C64	C	0.653109	1.000593	-0.513451
C65	C	0.711053	1.300699	-0.144926
C66	C	0.717106	1.402552	-0.156272
C67	C	0.698463	1.000594	-0.558863
C68	C	0.687961	1.000594	-0.664132
C69	C	0.723158	1.000595	0.188606
C70	C	0.733321	1.000595	0.290458
C71	C	0.865457	0.700494	-0.078078
C72	C	0.923914	0.598643	-0.066736
C73	C	0.705320	0.700490	0.222036
C74	C	0.709429	0.598637	0.335234
C75	C	0.895400	0.700495	0.222024
C76	C	0.964020	0.598644	0.335218
C77	C	0.491030	1.300693	-0.445017
C78	C	0.422410	1.402544	-0.558211
C79	C	0.520973	1.300694	-0.144915
C80	C	0.462516	1.402545	-0.156257
C81	C	0.681109	1.300698	-0.445029
C82	C	0.677001	1.402551	-0.558227
C83	C	0.908401	0.550812	-0.120019
C84	C	0.963321	0.455125	-0.109386
C85	C	1.033753	0.407265	-0.045463
C86	C	1.049265	0.455106	0.007820
C87	C	0.994346	0.550797	-0.002820
C88	C	1.027520	0.550815	0.329772
C89	C	1.092002	0.455128	0.436119
C90	C	1.092980	0.407267	0.547912
C91	C	1.029473	0.455106	0.553355
C92	C	0.964993	0.550797	0.447008
C93	C	0.358910	1.450385	-0.552766
C94	C	0.294431	1.546101	-0.659117
C95	C	0.293452	1.593968	-0.770910
C96	C	0.356959	1.546123	-0.776352
C97	C	0.421438	1.450415	-0.670004
C98	C	0.478028	1.450386	-0.102985
C99	C	0.423107	1.546100	-0.113648
C100	C	0.352675	1.593963	-0.177575
C101	C	0.337163	1.546117	-0.230853
C102	C	0.392083	1.450413	-0.220197
C103	C	0.663787	0.633683	0.379165
C104	C	0.667633	0.537995	0.485516
C105	C	0.717125	0.407263	0.547938
C106	C	0.762769	0.372218	0.503998
C107	C	0.758919	0.467905	0.397645
C108	C	0.627504	1.533267	-0.620617
C109	C	0.623643	1.628982	-0.726970
C110	C	0.669276	1.593977	-0.770937
C111	C	0.718777	1.463248	-0.708536
C112	C	0.722641	1.367536	-0.602180
H113	H	0.724108	0.592280	-0.169381
H114	H	0.762945	1.261101	-0.551393
Cl115	Cl	0.561406	1.793316	-0.805398
H116	H	1.143705	0.416188	0.431666
Cl117	Cl	1.013860	0.610908	0.064183
H118	H	0.641562	0.559575	-0.014687
Cl119	Cl	0.816309	0.423824	0.342436
Cl120	Cl	0.390849	0.736041	0.050234
Cl121	Cl	0.355717	1.606307	-0.916902
H122	H	0.720252	0.329361	0.634536
Cl123	Cl	0.824986	0.207862	0.582490
Cl124	Cl	0.372570	1.390272	-0.287167
Cl125	Cl	0.570129	1.577306	-0.565370
Cl126	Cl	0.770423	1.000586	-0.498569
H127	H	0.606507	1.000585	-0.552501
H128	H	0.257713	1.213231	-0.241487
H129	H	0.535374	1.411423	-0.050922
Cl130	Cl	0.248616	1.606297	-0.311208
H131	H	1.030280	0.416122	0.644391
Cl132	Cl	0.212387	1.714285	-0.904596
H133	H	0.473140	1.411464	-0.674451
Cl134	Cl	0.759982	0.462831	-0.236599
Cl135	Cl	1.026309	0.610972	0.189245
H136	H	0.641355	1.000586	-0.703179
Cl137	Cl	0.885167	0.610906	0.453877
H138	H	0.623482	0.740126	0.328352
H139	H	0.128716	0.787950	0.018509
H140	H	0.630462	0.566555	0.521276
Cl141	Cl	0.647222	0.387658	-0.025284
H142	H	1.145488	0.329349	0.634497
Cl143	Cl	0.442624	1.606223	-0.046655
H144	H	0.779930	1.000589	-0.670487
H145	H	0.498298	0.787943	0.018501
Cl146	Cl	0.360121	1.390229	-0.412240
Cl147	Cl	0.776135	1.419263	-0.763830
H148	H	-0.001907	1.213246	-0.241516
H149	H	0.242727	1.585040	-0.654662
Cl150	Cl	0.819863	0.610964	-0.200393
H151	H	0.307963	1.671892	-0.186242
Cl152	Cl	0.365164	1.265150	-0.273210
Cl153	Cl	0.021268	0.736047	0.050236
Cl154	Cl	0.664407	1.714319	-0.904647
H155	H	-0.111875	1.213246	-0.241520
H156	H	1.078465	0.329346	-0.036806
Cl157	Cl	0.943805	0.394996	-0.176372
H158	H	1.106618	0.416124	0.059866
