data_functionalizedCrystal
_audit_creation_method	'MofGen! by Chris Wilmer'
_symmetry_space_group_name_H-M	'P1'
_symmetry_Int_Tables_number	1
_symmetry_cell_setting	triclinic
loop_
_symmetry_equiv_pos_as_xyz
  x,y,z
_cell_length_a	26.210047
_cell_length_b	23.532407
_cell_length_c	23.532409
_cell_angle_alpha	97.150881
_cell_angle_beta	90.016676
_cell_angle_gamma	89.984387
loop_
_atom_site_label
_atom_site_type_symbol
_atom_site_fract_x
_atom_site_fract_y
_atom_site_fract_z
O1	O	0.042362	-0.755272	0.069146
O2	O	0.042377	-0.589409	0.079149
O3	O	0.042370	-0.677342	-0.008784
O4	O	0.042369	-0.667340	0.157079
O5	O	-0.042489	-0.677310	-0.008809
O6	O	-0.042481	-0.589377	0.079124
O7	O	-0.042496	-0.755240	0.069121
Cu8	Cu	-0.050237	-0.672306	0.074121
Cu9	Cu	0.050118	-0.672344	0.074149
O10	O	-0.042489	-0.667308	0.157054
C11	C	-0.000051	-0.568177	0.078882
C12	C	-0.000045	-0.504960	0.078116
N13	N	-0.120821	-0.672283	0.074100
C14	C	-0.526795	-0.637991	0.039757
C15	C	-0.313136	-0.637966	0.039742
O16	O	-0.285523	-0.608774	0.010497
N17	N	-0.286405	-0.672305	0.074108
C18	C	-0.313091	-0.706655	0.108476
O19	O	-0.285451	-0.735867	0.137701
C20	C	-0.526748	-0.706683	0.108487
C21	C	-0.553477	-0.672338	0.074124
C22	C	-0.553524	-0.603649	0.005396
C23	C	-0.606936	-0.603653	0.005402
C24	C	-0.633618	-0.637999	0.039769
C25	C	-0.606889	-0.672342	0.074130
C26	C	-0.553433	-0.741036	0.142852
C27	C	-0.606851	-0.741041	0.142851
C28	C	-0.633580	-0.706696	0.108488
C29	C	-0.686983	-0.706693	0.108504
N30	N	-0.713714	-0.672354	0.074138
C31	C	-0.687032	-0.638007	0.039771
C32	C	-0.200917	-0.706638	0.108469
C33	C	-0.147503	-0.706630	0.108467
C34	C	-0.147553	-0.637941	0.039732
C35	C	-0.200968	-0.637946	0.039738
C36	C	-0.227649	-0.672298	0.074104
C37	C	-0.799200	-0.638018	0.039787
C38	C	-0.852616	-0.638024	0.039798
C39	C	-0.852562	-0.706715	0.108531
C40	C	-0.799151	-0.706707	0.108522
C41	C	-0.772471	-0.672357	0.074146
O42	O	-0.714628	-0.735874	0.137729
O43	O	-0.714681	-0.608810	0.010541
C44	C	-0.473384	-0.637987	0.039750
C45	C	-0.446654	-0.672329	0.074111
C46	C	-0.473337	-0.706676	0.108479
C47	C	-0.393240	-0.672321	0.074109
C48	C	-0.366558	-0.637975	0.039742
C49	C	-0.393290	-0.603636	0.005377
C50	C	-0.446701	-0.603640	0.005383
C51	C	-0.446605	-0.741015	0.142844
C52	C	-0.393193	-0.741007	0.142835
C53	C	-0.366511	-0.706660	0.108468
C54	C	-0.000058	-0.677071	-0.030013
C55	C	-0.000054	-0.676304	-0.093230
N56	N	0.120702	-0.672370	0.074165
C57	C	-0.000068	-0.776472	0.069388
C58	C	-0.000070	-0.839689	0.070154
C59	C	-0.000068	-0.105857	0.125349
C60	C	-0.000071	-0.046457	0.124638
O61	O	-0.000090	-0.009713	0.168424
N62	N	-0.000070	-0.023830	0.072362
C63	C	-0.000071	-0.060608	0.020793
O64	O	-0.000071	-0.035908	-0.023737
C65	C	-0.000072	-0.120007	0.021506
C66	C	-0.000068	-0.142630	0.073785
C67	C	-0.000064	-0.128481	0.177625
C68	C	-0.000060	-0.187877	0.178336
C69	C	-0.000060	-0.224649	0.126772
C70	C	-0.000064	-0.202026	0.074496
C71	C	-0.000077	-0.156783	-0.030062
C72	C	-0.000077	-0.216185	-0.029345
C73	C	-0.000073	-0.238808	0.022934
C74	C	-0.000059	-0.298194	0.023643
N75	N	-0.000060	-0.320821	0.075920
C76	C	-0.000060	-0.284049	0.127484
C77	C	-0.000071	0.064135	0.019302
C78	C	-0.000067	0.123533	0.018589
C79	C	-0.000068	0.137679	0.122434
C80	C	-0.000068	0.078280	0.123146
C81	C	-0.000072	0.041508	0.071578
C82	C	-0.000051	-0.408785	0.128974
C83	C	-0.000045	-0.468187	0.129680
C84	C	-0.000047	-0.482329	0.025836
C85	C	-0.000051	-0.422932	0.025129
C86	C	-0.000055	-0.386161	0.076702
O87	O	-0.000043	-0.334973	-0.020119
O88	O	-0.000067	-0.308757	0.172007
C89	C	0.046204	-0.673063	-0.366461
C90	C	0.046204	-0.673774	-0.307061
O91	O	0.085542	-0.674177	-0.276325
N92	N	-0.000053	-0.674109	-0.277372
C93	C	-0.046313	-0.673738	-0.307088
O94	O	-0.085658	-0.674089	-0.276381
C95	C	-0.046312	-0.673031	-0.366487
C96	C	-0.000052	-0.672690	-0.396172
C97	C	0.092460	-0.672723	-0.396147
C98	C	0.092460	-0.672010	-0.455542
C99	C	0.046204	-0.671637	-0.485253
C100	C	-0.000052	-0.671977	-0.455568
C101	C	-0.092572	-0.672664	-0.396202
C102	C	-0.092567	-0.671957	-0.455606
C103	C	-0.046307	-0.671616	-0.485291
C104	C	-0.046309	-0.670892	-0.544675
N105	N	-0.000052	-0.670557	-0.574364
C106	C	0.046204	-0.670930	-0.544653
C107	C	-0.046310	-0.675225	-0.182344
C108	C	-0.046311	-0.675929	-0.122945
C109	C	0.046206	-0.675966	-0.122923
C110	C	0.046206	-0.675258	-0.182323
C111	C	-0.000053	-0.674890	-0.212033
C112	C	0.046200	-0.669433	-0.669389
C113	C	0.046196	-0.668718	-0.728790
C114	C	-0.046321	-0.668683	-0.728807
C115	C	-0.046317	-0.669395	-0.669411
C116	C	-0.000052	-0.669772	-0.639703
O117	O	-0.085627	-0.670491	-0.575449
O118	O	0.085543	-0.670587	-0.575368
C119	C	-0.000060	-0.667579	0.178283
C120	C	-0.000060	-0.668345	0.241500
H121	H	-0.777484	-0.610047	0.011795
O122	O	0.137374	-0.672974	-0.367229
C123	C	0.140137	-0.624028	-0.326185
H124	H	0.099969	-0.607707	-0.315037
H125	H	0.162926	-0.589210	-0.344400
C126	C	0.215965	-0.659686	-0.285493
C127	C	0.166630	-0.639643	-0.271798
H128	H	0.232310	-0.669317	-0.251945
H129	H	0.214105	-0.692662	-0.313147
H130	H	0.234950	-0.630668	-0.300673
H131	H	0.147645	-0.668664	-0.256624
H132	H	0.168488	-0.606673	-0.244140
H133	H	-0.083981	-0.676195	-0.098779
O134	O	0.091187	-0.669769	-0.640620
C135	C	0.132008	-0.669330	-0.679570
H136	H	0.118441	-0.650787	-0.719457
H137	H	0.146229	-0.714953	-0.692111
C138	C	0.192380	-0.655041	-0.602306
C139	C	0.175717	-0.632262	-0.651293
H140	H	0.219343	-0.632179	-0.584864
H141	H	0.164878	-0.655339	-0.576065
H142	H	0.204227	-0.693061	-0.612764
H143	H	0.163864	-0.594246	-0.640834
H144	H	0.203218	-0.631957	-0.677533
O145	O	-0.137555	-0.673031	-0.367468
C146	C	-0.178375	-0.672544	-0.406440
H147	H	-0.164802	-0.690064	-0.451233
H148	H	-0.192606	-0.626772	-0.406533
C149	C	-0.238746	-0.688659	-0.333363
C150	C	-0.222076	-0.710181	-0.388377
H151	H	-0.265704	-0.711873	-0.322220
H152	H	-0.211245	-0.688984	-0.307106
H153	H	-0.250602	-0.650516	-0.333447
H154	H	-0.210215	-0.748321	-0.388290
H155	H	-0.249576	-0.709863	-0.414634
O156	O	-0.632825	-0.774331	0.176269
C157	C	-0.663710	-0.739391	0.215325
H158	H	-0.671735	-0.697236	0.197820
H159	H	-0.643110	-0.730430	0.258177
C160	C	-0.704575	-0.822050	0.245244
C161	C	-0.714436	-0.770276	0.223743
H162	H	-0.735865	-0.841102	0.250439
H163	H	-0.683766	-0.845590	0.218934
H164	H	-0.687408	-0.814575	0.280952
H165	H	-0.731597	-0.777753	0.188032
H166	H	-0.735249	-0.746738	0.250047
O167	O	0.091187	-0.676307	-0.094141
C168	C	0.132020	-0.675874	-0.133077
H169	H	0.118467	-0.657327	-0.172968
H170	H	0.146236	-0.721500	-0.145615
C171	C	0.192372	-0.661599	-0.055793
C172	C	0.175727	-0.638815	-0.104785
H173	H	0.219334	-0.638742	-0.038341
H174	H	0.164862	-0.661893	-0.029561
H175	H	0.204215	-0.699620	-0.066248
H176	H	0.163878	-0.600798	-0.094328
H177	H	0.203236	-0.638514	-0.131015
H178	H	-0.874377	-0.610053	0.011816
H179	H	-0.468324	-0.768985	0.170830
H180	H	-0.000080	-0.138374	-0.072634
O181	O	-0.137473	-0.671519	-0.484516
C182	C	-0.140246	-0.621768	-0.512141
H183	H	-0.100083	-0.605230	-0.518791
H184	H	-0.163069	-0.587492	-0.484545
C185	C	-0.216028	-0.656378	-0.562442
C186	C	-0.166699	-0.636068	-0.570615
H187	H	-0.232347	-0.665197	-0.598511
H188	H	-0.214161	-0.689895	-0.543830
H189	H	-0.235040	-0.627811	-0.539444
H190	H	-0.147685	-0.664638	-0.593607
H191	H	-0.168563	-0.602556	-0.589233
O192	O	0.137443	-0.671725	-0.484292
C193	C	0.178264	-0.672202	-0.445321
H194	H	0.164688	-0.690719	-0.405436
H195	H	0.192507	-0.626592	-0.432782
C196	C	0.238629	-0.686575	-0.522553
C197	C	0.221956	-0.709323	-0.473568
H198	H	0.265582	-0.709471	-0.539977
H199	H	0.211128	-0.686252	-0.548809
H200	H	0.250494	-0.648568	-0.512098
H201	H	0.210085	-0.747327	-0.484025
H202	H	0.249457	-0.709654	-0.447314
O203	O	-0.226753	-0.740021	0.141911
C204	C	-0.191699	-0.770333	0.172229
H205	H	-0.153633	-0.746729	0.175663
H206	H	-0.186007	-0.815168	0.148541
C207	C	-0.259269	-0.803754	0.228487
C208	C	-0.212517	-0.774761	0.232710
H209	H	-0.272111	-0.806489	0.265794
H210	H	-0.282887	-0.783335	0.208060
H211	H	-0.254520	-0.841114	0.208745
H212	H	-0.217268	-0.737401	0.252446
H213	H	-0.188901	-0.795175	0.253141
H214	H	-0.000070	0.034198	-0.022693
H215	H	-0.083985	-0.669650	-0.645237
H216	H	-0.083983	-0.674920	-0.206530
O217	O	-0.121575	-0.604539	0.006430
C218	C	-0.090693	-0.565469	0.041357
H219	H	-0.082674	-0.582951	0.083525
H220	H	-0.111291	-0.522614	0.050292
C221	C	-0.049814	-0.535597	-0.041316
C222	C	-0.039962	-0.557070	0.010474
H223	H	-0.018521	-0.530413	-0.060366
H224	H	-0.070621	-0.561917	-0.064847
H225	H	-0.066980	-0.499886	-0.033862
H226	H	-0.022801	-0.592782	0.003020
H227	H	-0.019150	-0.530755	0.034004
O228	O	-0.091298	-0.668299	-0.757583
C229	C	-0.132131	-0.668767	-0.718652
H230	H	-0.118576	-0.651243	-0.673847
H231	H	-0.146354	-0.714534	-0.718565
C232	C	-0.192481	-0.652651	-0.791796
C233	C	-0.175833	-0.631123	-0.736767
H234	H	-0.219439	-0.629432	-0.802971
H235	H	-0.164971	-0.652337	-0.818025
H236	H	-0.204330	-0.690790	-0.791716
H237	H	-0.163978	-0.592987	-0.736849
H238	H	-0.203341	-0.631429	-0.710538
H239	H	-0.000047	-0.404512	-0.017441
H240	H	-0.628694	-0.575687	-0.022582
H241	H	-0.531805	-0.575679	-0.022593
O242	O	-0.000093	0.173487	0.172473
C243	C	-0.000082	0.230764	0.160628
H244	H	-0.016147	0.232794	0.115903
H245	H	0.040628	0.247946	0.162897
C246	C	-0.013630	0.264883	0.259973
C247	C	-0.033366	0.267377	0.205042
H248	H	-0.034159	0.287470	0.287371
H249	H	-0.013636	0.226296	0.267954
H250	H	0.020295	0.279201	0.261856
H251	H	-0.067287	0.253053	0.203158
H252	H	-0.033366	0.305964	0.197062
O253	O	-0.000056	-0.251824	-0.079493
C254	C	-0.000072	-0.219113	-0.125783
H255	H	0.015990	-0.174700	-0.111061
H256	H	-0.040784	-0.214963	-0.141834
C257	C	0.013479	-0.303529	-0.192634
C258	C	0.033211	-0.248983	-0.174553
H259	H	0.034008	-0.321955	-0.222719
H260	H	0.013488	-0.325568	-0.161448
H261	H	-0.020447	-0.300063	-0.206006
H262	H	0.067134	-0.252450	-0.161175
H263	H	0.033209	-0.226945	-0.205739
O264	O	0.000026	-0.490092	0.180504
C265	C	0.043981	-0.471289	0.211921
H266	H	0.058629	-0.430178	0.196638
H267	H	0.074758	-0.505706	0.205137
C268	C	0.012640	-0.510283	0.294816
C269	C	0.030629	-0.459787	0.276049
H270	H	0.004405	-0.503191	0.334374
H271	H	-0.016972	-0.522953	0.273650
H272	H	0.038290	-0.538959	0.289158
H273	H	0.004976	-0.431115	0.281701
H274	H	0.060237	-0.447112	0.297218
O275	O	-0.226852	-0.604571	0.006302
C276	C	-0.191841	-0.574244	-0.024017
H277	H	-0.153759	-0.597834	-0.027458
H278	H	-0.186170	-0.529409	-0.000326
C279	C	-0.259475	-0.540841	-0.080264
C280	C	-0.212703	-0.569818	-0.084494
H281	H	-0.272344	-0.538108	-0.117568
H282	H	-0.283063	-0.561271	-0.059836
H283	H	-0.254742	-0.503482	-0.060519
H284	H	-0.217437	-0.607179	-0.104233
H285	H	-0.189116	-0.549394	-0.104927
H286	H	-0.531680	-0.769006	0.170833
O287	O	-0.878431	-0.740161	0.141878
C288	C	-0.865377	-0.798054	0.125786
H289	H	-0.826599	-0.800621	0.103688
H290	H	-0.895440	-0.819199	0.095120
C291	C	-0.910519	-0.826113	0.206624
C292	C	-0.862889	-0.829265	0.179488
H293	H	-0.908987	-0.845367	0.239749
H294	H	-0.919316	-0.787109	0.217465
H295	H	-0.935567	-0.843733	0.181064
H296	H	-0.837844	-0.811639	0.205045
H297	H	-0.854088	-0.868267	0.168653
O298	O	-0.472584	-0.570265	-0.028053
C299	C	-0.437572	-0.539941	-0.058374
H300	H	-0.399491	-0.563534	-0.061815
H301	H	-0.431898	-0.495106	-0.034684
C302	C	-0.505205	-0.506535	-0.114619
C303	C	-0.458435	-0.535515	-0.118851
H304	H	-0.518074	-0.503801	-0.151924
H305	H	-0.528794	-0.526962	-0.094190
H306	H	-0.500470	-0.469175	-0.094875
H307	H	-0.463171	-0.572876	-0.138588
H308	H	-0.434847	-0.515093	-0.139285
O309	O	-0.000087	0.145411	-0.032245
C310	C	-0.000072	0.100210	-0.077600
H311	H	-0.016135	0.059948	-0.061871
H312	H	0.040639	0.091708	-0.093476
C313	C	-0.013622	0.166158	-0.146264
C314	C	-0.033355	0.116709	-0.126946
H315	H	-0.034151	0.176336	-0.176704
H316	H	-0.013631	0.196611	-0.115708
H317	H	0.020303	0.159067	-0.159490
H318	H	-0.067278	0.123803	-0.113714
H319	H	-0.033353	0.086257	-0.157501
O320	O	0.091121	-0.668286	-0.757638
C321	C	0.093890	-0.618553	-0.785285
H322	H	0.067643	-0.584278	-0.762694
H323	H	0.081462	-0.629160	-0.831826
C324	C	0.181394	-0.638292	-0.810879
C325	C	0.149160	-0.596194	-0.783129
H326	H	0.215487	-0.624501	-0.809552
H327	H	0.179529	-0.671800	-0.792255
H328	H	0.171031	-0.647128	-0.849661
H329	H	0.159519	-0.587364	-0.744347
H330	H	0.151028	-0.562684	-0.801747
O331	O	-0.367311	-0.774425	0.176234
C332	C	-0.402322	-0.804729	0.206576
H333	H	-0.440405	-0.808181	0.182985
H334	H	-0.407994	-0.781019	0.251402
C335	C	-0.334689	-0.860957	0.240008
C336	C	-0.381462	-0.865201	0.211030
H337	H	-0.321821	-0.898258	0.242759
H338	H	-0.311101	-0.840540	0.219568
H339	H	-0.339422	-0.841196	0.277361
H340	H	-0.376727	-0.884955	0.173676
H341	H	-0.405049	-0.885623	0.231464
H342	H	-0.000056	-0.378853	0.170970
O343	O	-0.000085	-0.209754	0.229171
C344	C	-0.000075	-0.164551	0.274524
H345	H	-0.016138	-0.124282	0.258781
H346	H	0.040634	-0.156067	0.290428
C347	C	-0.013629	-0.230489	0.343182
C348	C	-0.033362	-0.181031	0.323848
H349	H	-0.034160	-0.240655	0.373609
H350	H	-0.013634	-0.260943	0.312628
H351	H	0.020295	-0.223412	0.356431
H352	H	-0.067283	-0.188110	0.310593
H353	H	-0.033364	-0.150578	0.354401
O354	O	0.000006	-0.092708	0.227682
C355	C	0.043964	-0.057952	0.230398
H356	H	0.058612	-0.055190	0.185216
H357	H	0.074740	-0.077371	0.256294
C358	C	0.012632	-0.000876	0.314913
C359	C	0.030620	0.002520	0.259419
H360	H	0.004402	0.036425	0.332817
H361	H	-0.016983	-0.024293	0.313085
H362	H	0.038282	-0.017061	0.336485
H363	H	0.004968	0.018698	0.237846
H364	H	0.060230	0.025941	0.261244
H365	H	-0.125745	-0.734591	0.136456
H366	H	-0.777387	-0.734666	0.136512
H367	H	-0.371556	-0.575667	-0.022604
H368	H	-0.000045	-0.512279	-0.016146
H369	H	-0.000068	0.059865	0.165717
H370	H	0.083875	-0.674980	-0.206488
