data_functionalizedCrystal
_audit_creation_method	'MofGen! by Chris Wilmer'
_symmetry_space_group_name_H-M	'P1'
_symmetry_Int_Tables_number	1
_symmetry_cell_setting	triclinic
loop_
_symmetry_equiv_pos_as_xyz
  x,y,z
_cell_length_a	16.109301
_cell_length_b	17.699083
_cell_length_c	14.586319
_cell_angle_alpha	89.995320
_cell_angle_beta	89.999213
_cell_angle_gamma	83.372248
loop_
_atom_site_label
_atom_site_type_symbol
_atom_site_fract_x
_atom_site_fract_y
_atom_site_fract_z
O1	O	1.102963	0.097285	-0.076184
O2	O	1.602963	0.597285	0.423816
O3	O	0.860880	0.109391	-0.076199
O4	O	1.360880	0.609391	0.423801
O5	O	0.988761	-0.006841	-0.076183
O6	O	1.488761	0.493159	0.423817
O7	O	0.975082	0.213517	-0.076200
O8	O	1.475082	0.713517	0.423800
O9	O	0.988752	-0.006843	0.076298
O10	O	1.488752	0.493157	0.576298
O11	O	0.860872	0.109390	0.076282
O12	O	1.360872	0.609390	0.576282
O13	O	1.102954	0.097283	0.076297
O14	O	1.602954	0.597283	0.576297
Cu15	Cu	0.981912	0.103336	0.090212
Cu16	Cu	1.481912	0.603336	0.590212
Cu17	Cu	0.981923	0.103338	-0.090114
Cu18	Cu	1.481923	0.603338	0.409886
O19	O	0.975074	0.213516	0.076281
O20	O	1.475074	0.713516	0.576281
C21	C	0.829902	0.108900	0.000040
C22	C	1.329902	0.608900	0.500040
C23	C	0.737609	0.107430	0.000034
C24	C	1.237609	0.607430	0.500034
C25	C	0.515224	0.172981	0.000040
C26	C	1.015224	0.672981	0.500040
C27	C	0.428506	0.171594	0.000046
C28	C	0.928506	0.671594	0.500046
C29	C	0.448618	0.033688	0.000053
C30	C	0.948618	0.533688	0.500053
C31	C	0.535334	0.035076	0.000053
C32	C	1.035334	0.535076	0.500053
C33	C	0.568635	0.104725	0.000042
C34	C	1.068635	0.604725	0.500042
C35	C	0.395200	0.101949	0.000047
C36	C	0.895200	0.601949	0.500047
C37	C	0.301177	0.100445	0.000054
C38	C	0.801177	0.600445	0.500054
C39	C	0.662664	0.106230	0.000037
C40	C	1.162664	0.606230	0.500037
C41	C	0.988267	-0.035040	0.000057
C42	C	1.488267	0.464960	0.500057
C43	C	0.986796	-0.119060	0.000058
C44	C	1.486796	0.380940	0.500058
C45	C	1.061860	-0.167574	0.000064
C46	C	1.561860	0.332426	0.500064
C47	C	1.060473	-0.246519	0.000055
C48	C	1.560473	0.253481	0.500055
C49	C	0.984022	-0.276949	0.000048
C50	C	1.484022	0.223051	0.500048
C51	C	0.908953	-0.228429	0.000039
C52	C	1.408953	0.271571	0.500039
C53	C	0.910341	-0.149485	0.000041
C54	C	1.410341	0.350515	0.500041
C55	C	0.903356	-0.546800	0.000031
C56	C	1.403356	-0.046800	0.500031
C57	C	0.901974	-0.625750	0.000033
C58	C	1.401974	-0.125750	0.500033
C59	C	1.053488	-0.643834	0.000046
C60	C	1.553488	-0.143834	0.500046
C61	C	1.054876	-0.564890	0.000048
C62	C	1.554876	-0.064890	0.500048
C63	C	0.979807	-0.516377	0.000034
C64	C	1.479807	-0.016377	0.500034
C65	C	0.981312	-0.430776	0.000041
C66	C	1.481312	0.069224	0.500041
C67	C	0.982517	-0.362549	0.000047
C68	C	1.482517	0.137451	0.500047
C69	C	1.133933	0.097774	0.000056
C70	C	1.633933	0.597774	0.500056
C71	C	1.226226	0.099244	0.000055
C72	C	1.726226	0.599244	0.500055
C73	C	0.975568	0.241714	0.000038
C74	C	1.475568	0.741714	0.500038
C75	C	0.977039	0.325734	0.000032
C76	C	1.477039	0.825734	0.500032
N77	N	0.981911	0.103334	0.217044
N78	N	1.481911	0.603334	0.717044
N79	N	0.981931	0.103334	-0.216946
N80	N	1.481931	0.603334	0.283054
C81	C	1.038555	0.051884	0.452057
C82	C	1.538555	0.551884	0.952057
C83	C	1.038558	0.051882	0.548038
C84	C	1.538558	0.551882	1.048038
C85	C	0.925280	0.154787	0.548034
C86	C	1.425280	0.654787	1.048034
C87	C	0.925274	0.154785	0.452054
C88	C	1.425274	0.654785	0.952054
C89	C	0.981917	0.103334	0.404068
C90	C	1.481917	0.603334	0.904068
C91	C	0.981925	0.103334	0.596029
C92	C	1.481925	0.603334	1.096029
C93	C	0.981927	0.103333	0.700096
C94	C	1.481927	0.603333	1.200096
C95	C	0.981914	0.103334	0.299995
C96	C	1.481914	0.603334	0.799995
H97	H	0.385022	0.227175	0.000046
H98	H	0.885022	0.727175	0.500046
H99	H	1.084677	0.009985	0.587108
H100	H	1.584677	0.509985	1.087108
H101	H	0.879149	0.196682	0.412979
H102	H	1.379149	0.696682	0.912979
C103	C	0.411985	-0.042923	0.000053
C104	C	0.911985	0.457077	0.500053
C105	C	0.316601	-0.044455	0.000046
C106	C	0.816601	0.455545	0.500046
C107	C	0.279970	-0.121068	0.000042
C108	C	0.779970	0.378932	0.500042
C109	C	0.338723	-0.196150	0.000046
C110	C	0.838723	0.303850	0.500046
C111	C	0.434113	-0.194621	0.000054
C112	C	0.934113	0.305379	0.500054
C113	C	0.470744	-0.118008	0.000057
C114	C	0.970744	0.381992	0.500057
H115	H	0.273103	0.011128	0.000043
H116	H	0.773103	0.511128	0.500043
H117	H	0.209356	-0.122199	0.000037
H118	H	0.709356	0.377801	0.500037
H119	H	0.311607	-0.252863	0.000043
H120	H	0.811607	0.247137	0.500043
H121	H	0.477611	-0.250203	0.000056
H122	H	0.977611	0.249797	0.500056
H123	H	0.541358	-0.116877	0.000063
H124	H	1.041358	0.383123	0.500063
C125	C	0.594093	-0.040012	0.000054
C126	C	1.094093	0.459988	0.500054
C127	C	0.590465	-0.097092	0.079234
C128	C	1.090465	0.402908	0.579234
C129	C	0.649223	-0.172175	0.079239
C130	C	1.149223	0.327825	0.579239
C131	C	0.711609	-0.190179	0.000064
C132	C	1.211609	0.309821	0.500064
C133	C	0.715239	-0.133098	-0.079122
C134	C	1.215239	0.366902	0.420878
C135	C	0.656481	-0.058014	-0.079127
C136	C	1.156481	0.441986	0.420873
H137	H	0.544281	-0.083765	0.137850
H138	H	1.044281	0.416235	0.637850
H139	H	0.646536	-0.214431	0.137859
H140	H	1.146536	0.285569	0.637859
H141	H	0.755105	-0.245761	0.000068
H142	H	1.255105	0.254239	0.500068
H143	H	0.761422	-0.146424	-0.137738
H144	H	1.261422	0.353576	0.362262
H145	H	0.659168	-0.015759	-0.137747
H146	H	1.159168	0.484241	0.362253
H147	H	0.879165	0.196679	0.587113
H148	H	1.379165	0.696679	1.087113
H149	H	1.124115	-0.142805	0.000075
H150	H	1.624115	0.357195	0.500075
C151	C	0.551856	0.249593	0.000038
C152	C	1.051856	0.749593	0.500038
C153	C	0.493101	0.324674	0.000042
C154	C	0.993101	0.824674	0.500042
C155	C	0.529730	0.401288	0.000044
C156	C	1.029730	0.901288	0.500044
C157	C	0.625113	0.402821	0.000042
C158	C	1.125113	0.902821	0.500042
C159	C	0.683874	0.327738	0.000039
C160	C	1.183874	0.827738	0.500039
C161	C	0.647245	0.251124	0.000037
C162	C	1.147245	0.751124	0.500037
H163	H	0.422487	0.323541	0.000043
H164	H	0.922487	0.823541	0.500043
H165	H	0.486231	0.456869	0.000046
H166	H	0.986231	0.956869	0.500046
H167	H	0.652228	0.459535	0.000044
H168	H	1.152228	0.959535	0.500044
H169	H	0.754488	0.328870	0.000037
H170	H	1.254488	0.828870	0.500037
H171	H	0.690744	0.195542	0.000034
H172	H	1.190744	0.695542	0.500034
H173	H	1.121597	-0.286017	0.000062
H174	H	1.621597	0.213983	0.500062
H175	H	1.117130	-0.540119	0.000058
H176	H	1.617130	-0.040119	0.500058
C177	C	1.136067	-0.697201	0.000049
C178	C	1.636067	-0.197201	0.500049
C179	C	1.155944	-0.753969	0.079226
C180	C	1.655944	-0.253969	0.579226
C181	C	1.238520	-0.807333	0.079232
C182	C	1.738520	-0.307333	0.579232
C183	C	1.301220	-0.803929	0.000062
C184	C	1.801220	-0.303929	0.500062
C185	C	1.281345	-0.747159	-0.079120
C186	C	1.781345	-0.247159	0.420880
C187	C	1.198769	-0.693794	-0.079127
C188	C	1.698769	-0.193794	0.420873
H189	H	1.109529	-0.756491	0.137838
H190	H	1.609529	-0.256491	0.637838
H191	H	1.253233	-0.849359	0.137849
H192	H	1.753233	-0.349359	0.637849
H193	H	1.362348	-0.843433	0.000067
H194	H	1.862348	-0.343433	0.500067
H195	H	1.327760	-0.744637	-0.137732
H196	H	1.827760	-0.244637	0.362268
H197	H	1.184056	-0.651769	-0.137743
H198	H	1.684056	-0.151769	0.362257
H199	H	0.839715	-0.650523	0.000028
H200	H	1.339715	-0.150523	0.500028
H201	H	0.842230	-0.507310	0.000021
H202	H	1.342230	-0.007310	0.500021
H203	H	0.846705	-0.253211	0.000027
H204	H	1.346705	0.246789	0.500027
H205	H	0.849216	-0.109986	0.000036
H206	H	1.349216	0.390014	0.500036
H207	H	1.084675	0.009988	0.412989
H208	H	1.584675	0.509988	0.912989
