data_functionalizedCrystal
_audit_creation_method	'MofGen! by Chris Wilmer'
_symmetry_space_group_name_H-M	'P1'
_symmetry_Int_Tables_number	1
_symmetry_cell_setting	triclinic
loop_
_symmetry_equiv_pos_as_xyz
  x,y,z
_cell_length_a	29.839134
_cell_length_b	29.839126
_cell_length_c	19.121063
_cell_angle_alpha	87.583433
_cell_angle_beta	87.537743
_cell_angle_gamma	89.968028
loop_
_atom_site_label
_atom_site_type_symbol
_atom_site_fract_x
_atom_site_fract_y
_atom_site_fract_z
Zn1	Zn	0.679162	-0.261784	0.279804
Zn2	Zn	1.179162	0.238216	0.779804
Zn3	Zn	0.675897	-0.189857	0.397245
Zn4	Zn	1.175897	0.310143	0.897245
Zn5	Zn	0.604035	-0.186651	0.279797
Zn6	Zn	1.104035	0.313349	0.779797
Zn7	Zn	0.600807	-0.264942	0.397204
Zn8	Zn	1.100807	0.235058	0.897204
O9	O	0.639975	-0.225808	0.338512
O10	O	1.139975	0.274192	0.838512
O11	O	0.741595	-0.252264	0.295402
O12	O	1.241595	0.247736	0.795402
O13	O	0.666349	-0.126565	0.381680
O14	O	1.166349	0.373435	0.881680
O15	O	0.616717	-0.193954	0.181513
O16	O	1.116717	0.306046	0.681513
O17	O	0.739197	-0.199419	0.381686
O18	O	1.239197	0.300581	0.881686
O19	O	0.671913	-0.249154	0.181518
O20	O	1.171913	0.250846	0.681518
O21	O	0.613552	-0.124209	0.295391
O22	O	1.113552	0.375791	0.795391
O23	O	0.540740	-0.197015	0.295351
O24	O	1.040740	0.302985	0.795351
O25	O	0.611216	-0.327389	0.381616
O26	O	1.111216	0.172611	0.881616
O27	O	0.538368	-0.254535	0.381609
O28	O	1.038368	0.245465	0.881609
O29	O	0.668783	-0.325070	0.295363
O30	O	1.168783	0.174930	0.795363
O31	O	0.663219	-0.202481	0.495524
O32	O	1.163219	0.297519	0.995524
O33	O	0.608051	-0.257645	0.495494
O34	O	1.108051	0.242355	0.995494
C35	C	0.523253	-0.225770	0.338476
C36	C	1.023253	0.274230	0.838476
C37	C	0.473319	-0.225765	0.338477
C38	C	0.973319	0.274235	0.838477
C39	C	0.117955	-0.195915	0.293531
C40	C	0.617955	0.304085	0.793531
C41	C	0.305629	-0.195887	0.293511
C42	C	0.805629	0.304113	0.793511
O43	O	0.330935	-0.170463	0.255237
O44	O	0.830935	0.329537	0.755237
N45	N	0.327874	-0.225788	0.338488
N46	N	0.827874	0.274212	0.838488
C47	C	0.303197	-0.255700	0.383470
C48	C	0.803197	0.244300	0.883470
O49	O	0.326424	-0.281136	0.421720
O50	O	0.826424	0.218864	0.921720
C51	C	0.115525	-0.255730	0.383486
C52	C	0.615525	0.244270	0.883486
C53	C	0.093282	-0.225824	0.338511
C54	C	0.593282	0.274176	0.838511
C55	C	0.095712	-0.166011	0.248560
C56	C	0.595712	0.333989	0.748560
C57	C	0.048797	-0.166017	0.248568
C58	C	0.548797	0.333983	0.748568
C59	C	0.024124	-0.195926	0.293548
C60	C	0.524124	0.304074	0.793548
C61	C	0.046366	-0.225829	0.338519
C62	C	0.546366	0.274171	0.838519
C63	C	0.090849	-0.285644	0.428464
C64	C	0.590849	0.214356	0.928464
C65	C	0.043928	-0.285649	0.428463
C66	C	0.543928	0.214351	0.928463
C67	C	0.021686	-0.255743	0.383488
C68	C	0.521686	0.244257	0.883488
C69	C	-0.025222	-0.255744	0.383507
C70	C	0.474778	0.244256	0.883507
N71	N	-0.047467	-0.225843	0.338530
N72	N	0.452533	0.274157	0.838530
C73	C	-0.022794	-0.195934	0.293550
C74	C	0.477206	0.304066	0.793550
C75	C	0.401728	-0.255682	0.383460
C76	C	0.901728	0.244318	0.883460
C77	C	0.448646	-0.255674	0.383457
C78	C	0.948646	0.244326	0.883457
C79	C	0.451074	-0.195861	0.293497
C80	C	0.951074	0.304139	0.793497
C81	C	0.404155	-0.195867	0.293504
C82	C	0.904155	0.304133	0.793504
C83	C	0.379483	-0.225781	0.338483
C84	C	0.879483	0.274219	0.838483
C85	C	-0.121321	-0.195947	0.293571
C86	C	0.378679	0.304053	0.793571
C87	C	-0.168241	-0.195954	0.293585
C88	C	0.331759	0.304046	0.793585
C89	C	-0.170665	-0.255769	0.383542
C90	C	0.329335	0.244231	0.883542
C91	C	-0.123749	-0.255760	0.383531
C92	C	0.376251	0.244240	0.883531
C93	C	-0.099078	-0.225848	0.338540
C94	C	0.400922	0.274152	0.838540
O95	O	-0.050557	-0.281157	0.421756
O96	O	0.449443	0.218843	0.921756
O97	O	-0.046029	-0.170509	0.255295
O98	O	0.453971	0.329491	0.755295
C99	C	0.164871	-0.195909	0.293523
C100	C	0.664871	0.304091	0.793523
C101	C	0.187113	-0.225812	0.338495
C102	C	0.687113	0.274188	0.838495
C103	C	0.162440	-0.255721	0.383475
C104	C	0.662440	0.244279	0.883475
C105	C	0.234031	-0.225805	0.338492
C106	C	0.734031	0.274195	0.838492
C107	C	0.258704	-0.195896	0.293512
C108	C	0.758704	0.304104	0.793512
C109	C	0.236459	-0.165994	0.248535
C110	C	0.736459	0.334006	0.748535
C111	C	0.189544	-0.166000	0.248543
C112	C	0.689544	0.334000	0.748543
C113	C	0.184685	-0.285623	0.428452
C114	C	0.684685	0.214377	0.928452
C115	C	0.231601	-0.285614	0.428441
C116	C	0.731601	0.214386	0.928441
C117	C	0.256274	-0.255705	0.383461
C118	C	0.756274	0.244295	0.883461
C119	C	0.640004	-0.342986	0.338485
C120	C	1.140004	0.157014	0.838485
C121	C	0.640016	-0.392920	0.338474
C122	C	1.140016	0.107080	0.838474
C123	C	0.612535	-0.701338	0.293473
C124	C	1.112535	-0.201338	0.793473
C125	C	0.612549	-0.889010	0.293425
C126	C	1.112549	-0.389010	0.793425
O127	O	0.589160	-0.912234	0.255233
O128	O	1.089160	-0.412234	0.755233
N129	N	0.640041	-0.913702	0.338342
N130	N	1.140041	-0.413702	0.838342
C131	C	0.667528	-0.891473	0.383278
C132	C	1.167528	-0.391473	0.883278
O133	O	0.690908	-0.916782	0.421488
O134	O	1.190908	-0.416782	0.921488
C135	C	0.667512	-0.703803	0.383330
C136	C	1.167512	-0.203803	0.883330
C137	C	0.640022	-0.679113	0.338405
C138	C	1.140022	-0.179113	0.838405
C139	C	0.585047	-0.676648	0.248552
C140	C	1.085047	-0.176648	0.748552
C141	C	0.585046	-0.629733	0.248562
C142	C	1.085046	-0.129733	0.748562
C143	C	0.612532	-0.607508	0.293493
C144	C	1.112532	-0.107508	0.793493
C145	C	0.640020	-0.632197	0.338415
C146	C	1.140020	-0.132197	0.838415
C147	C	0.694997	-0.681575	0.428269
C148	C	1.194997	-0.181575	0.928269
C149	C	0.694989	-0.634654	0.428280
C150	C	1.194989	-0.134654	0.928280
C151	C	0.667499	-0.609964	0.383354
C152	C	1.167499	-0.109964	0.883354
C153	C	0.667505	-0.563057	0.383356
C154	C	1.167505	-0.063057	0.883356
N155	N	0.640014	-0.538365	0.338438
N156	N	1.140014	-0.038365	0.838438
C157	C	0.612527	-0.560590	0.293507
C158	C	1.112527	-0.060590	0.793507
C159	C	0.667536	-0.990003	0.383247
C160	C	1.167536	-0.490003	0.883247
C161	C	0.667541	-1.036921	0.383233
C162	C	1.167541	-0.536921	0.883233
C163	C	0.612561	-1.034454	0.293380
C164	C	1.112561	-0.534454	0.793380
C165	C	0.612559	-0.987535	0.293391
C166	C	1.112559	-0.487535	0.793391
C167	C	0.640044	-0.965311	0.338329
C168	C	1.140044	-0.465311	0.838329
C169	C	0.612527	-0.462065	0.293531
C170	C	1.112527	0.037935	0.793531
C171	C	0.612529	-0.415146	0.293543
C172	C	1.112529	0.084854	0.793543
C173	C	0.667507	-0.417617	0.383398
C174	C	1.167507	0.082383	0.883398
C175	C	0.667507	-0.464532	0.383384
C176	C	1.167507	0.035468	0.883384
C177	C	0.640013	-0.486755	0.338448
C178	C	1.140013	0.013245	0.838448
O179	O	0.690879	-0.539803	0.421532
O180	O	1.190879	-0.039803	0.921532
O181	O	0.589143	-0.535274	0.255314
O182	O	1.089143	-0.035274	0.755314
C183	C	0.612537	-0.748253	0.293463
C184	C	1.112537	-0.248253	0.793463
C185	C	0.640025	-0.772943	0.338385
C186	C	1.140025	-0.272943	0.838385
C187	C	0.667511	-0.750718	0.383316
C188	C	1.167511	-0.250718	0.883316
C189	C	0.640029	-0.819861	0.338371
C190	C	1.140029	-0.319861	0.838371
C191	C	0.612543	-0.842086	0.293440
C192	C	1.112543	-0.342086	0.793440
C193	C	0.585051	-0.817394	0.248522
C194	C	1.085051	-0.317394	0.748522
C195	C	0.585050	-0.770478	0.248532
C196	C	1.085050	-0.270478	0.748532
C197	C	0.695003	-0.775410	0.428234
C198	C	1.195003	-0.275410	0.928234
C199	C	0.695002	-0.822325	0.428219
C200	C	1.195002	-0.322325	0.928219
C201	C	0.667516	-0.844550	0.383288
C202	C	1.167516	-0.344550	0.883288
C203	C	0.757152	-0.225847	0.338549
C204	C	1.257152	0.274153	0.838549
C205	C	0.807086	-0.225863	0.338565
C206	C	1.307086	0.274137	0.838565
C207	C	0.634943	-0.230763	0.520993
C208	C	1.134943	0.269237	1.020993
C209	C	0.632831	-0.232898	0.599059
C210	C	1.132831	0.267102	1.099059
C211	C	0.639974	-0.109085	0.338488
C212	C	1.139974	0.390915	0.838488
C213	C	0.640054	-0.059146	0.338302
C214	C	1.140054	0.440854	0.838302
C215	C	0.645039	-0.220844	0.155319
C216	C	1.145039	0.279156	0.655319
C217	C	0.647197	-0.218729	0.077253
C218	C	1.147197	0.281271	0.577253
C219	C	0.660584	-0.205203	0.635727
C220	C	1.160584	0.294797	1.135727
C221	C	0.658601	-0.207214	0.709078
C222	C	1.158601	0.292786	1.209078
C223	C	0.628861	-0.236916	0.745760
C224	C	1.128861	0.263084	1.245760
C225	C	0.601107	-0.264614	0.709087
C226	C	1.101107	0.235386	1.209087
C227	C	0.603093	-0.262605	0.635737
C228	C	1.103093	0.237395	1.135737
C229	C	0.621429	-0.244418	0.967230
C230	C	1.121429	0.255582	1.467230
C231	C	0.619444	-0.246423	1.040585
C232	C	1.119444	0.253577	1.540585
C233	C	0.676939	-0.189024	1.040571
C234	C	1.176939	0.310976	1.540571
C235	C	0.678920	-0.187016	0.967220
C236	C	1.178920	0.312984	1.467220
C237	C	0.651167	-0.214715	0.930553
C238	C	1.151167	0.285285	1.430553
C239	C	0.626832	-0.238971	0.820737
C240	C	1.126832	0.261029	1.320737
C241	C	0.653199	-0.212662	0.855578
C242	C	1.153199	0.287338	1.355578
H243	H	0.023842	-0.310011	0.465088
H244	H	0.523842	0.189989	0.965088
H245	H	0.689931	-1.057019	0.419808
H246	H	1.189931	-0.557019	0.919808
H247	H	0.466752	-0.280022	0.420088
H248	H	0.966752	0.219978	0.920088
H249	H	-0.105638	-0.280109	0.420159
H250	H	0.394362	0.219891	0.920159
H251	H	-0.190762	-0.280118	0.420166
H252	H	0.309238	0.219882	0.920166
Cl253	Cl	-0.196200	-0.158355	0.237042
Cl254	Cl	0.303800	0.341645	0.737042
Cl255	Cl	0.716315	-0.149680	0.921111
Cl256	Cl	1.216315	0.350320	1.421111
H257	H	0.699535	-0.166473	1.070433
H258	H	1.199535	0.333527	1.570433
Cl259	Cl	-0.090313	-0.158342	0.237012
Cl260	Cl	0.409687	0.341658	0.737012
H261	H	0.689918	-0.971913	0.419845
H262	H	1.189918	-0.471913	0.919845
Cl263	Cl	0.729562	-0.747477	0.484723
Cl264	Cl	1.229562	-0.247477	0.984723
H265	H	0.108951	-0.309997	0.465088
H266	H	0.608951	0.190003	0.965088
Cl267	Cl	0.161589	-0.128403	0.191998
Cl268	Cl	0.661589	0.371597	0.691998
Cl269	Cl	0.729554	-0.712603	0.484757
Cl270	Cl	1.229554	-0.212603	0.984757
H271	H	0.684800	-0.181014	0.605865
H272	H	1.184800	0.318986	1.105865
H273	H	0.595232	-0.270618	1.070450
H274	H	1.095232	0.229382	1.570450
Cl275	Cl	0.693494	-0.172398	0.755172
Cl276	Cl	1.193494	0.327602	1.255172
H277	H	0.030691	-0.141664	0.211944
H278	H	0.530691	0.358336	0.711944
H279	H	0.590181	-1.052558	0.256794
H280	H	1.090181	-0.552558	0.756794
Cl281	Cl	0.370718	-0.293290	0.440014
Cl282	Cl	0.870718	0.206710	0.940014
H283	H	0.164601	-0.309979	0.465080
H284	H	0.664601	0.190021	0.965080
H285	H	0.115796	-0.141656	0.211927
H286	H	0.615796	0.358344	0.711927
H287	H	0.580493	-0.285158	0.605883
H288	H	1.080493	0.214842	1.105883
H289	H	0.590139	-0.480153	0.256939
H290	H	1.090139	0.019847	0.756939
H291	H	0.256556	-0.141640	0.211913
H292	H	0.756556	0.358360	0.711913
H293	H	0.386049	-0.171516	0.256879
H294	H	0.886049	0.328484	0.756879
H295	H	0.249707	-0.309967	0.465071
H296	H	0.749707	0.190033	0.965071
Cl297	Cl	0.690586	-0.175325	0.809462
Cl298	Cl	1.190586	0.324675	1.309462
Cl299	Cl	0.586538	-0.279239	0.921144
Cl300	Cl	1.086538	0.220761	1.421144
Cl301	Cl	0.577969	-0.384110	0.237059
Cl302	Cl	1.077969	0.115890	0.737059
Cl303	Cl	0.563722	-0.301957	0.755202
Cl304	Cl	1.063722	0.198043	1.255202
Cl305	Cl	0.550482	-0.598701	0.192086
Cl306	Cl	1.050482	-0.098701	0.692086
Cl307	Cl	0.550482	-0.704580	0.192068
Cl308	Cl	1.050482	-0.204580	0.692068
Cl309	Cl	0.550489	-0.739447	0.192052
Cl310	Cl	1.050489	-0.239447	0.692052
Cl311	Cl	0.589446	-0.276310	0.866858
Cl312	Cl	1.089446	0.223690	1.366858
Cl313	Cl	0.550498	-0.845343	0.192036
Cl314	Cl	1.050498	-0.345343	0.692036
Cl315	Cl	0.729544	-0.606718	0.484779
Cl316	Cl	1.229544	-0.106718	0.984779
H317	H	0.590174	-0.967436	0.256808
H318	H	1.090174	-0.467436	0.756808
Cl319	Cl	0.702074	-0.495571	0.439850
Cl320	Cl	1.202074	0.004429	0.939850
Cl321	Cl	0.482100	-0.158262	0.236951
Cl322	Cl	0.982100	0.341738	0.736951
Cl323	Cl	0.702062	-0.389667	0.439877
Cl324	Cl	1.202062	0.110333	0.939877
H325	H	0.717392	-0.842424	0.464802
H326	H	1.217392	-0.342424	0.964802
