data_functionalizedCrystal
_audit_creation_method	'MofGen! by Chris Wilmer'
_symmetry_space_group_name_H-M	'P1'
_symmetry_Int_Tables_number	1
_symmetry_cell_setting	triclinic
loop_
_symmetry_equiv_pos_as_xyz
  x,y,z
_cell_length_a	10.489741
_cell_length_b	16.098524
_cell_length_c	10.489741
_cell_angle_alpha	86.960832
_cell_angle_beta	95.460826
_cell_angle_gamma	93.036829
loop_
_atom_site_label
_atom_site_type_symbol
_atom_site_fract_x
_atom_site_fract_y
_atom_site_fract_z
O1	O	1.699188	0.069205	-0.185102
O2	O	1.327994	0.069218	-0.201996
O3	O	1.522037	0.069206	-0.007951
O4	O	1.505145	0.069216	-0.379147
O5	O	1.511743	-0.069308	0.002331
O6	O	1.317700	-0.069296	-0.191714
O7	O	1.688894	-0.069309	-0.174820
Zn8	Zn	1.501662	-0.091294	-0.181634
Zn9	Zn	1.515226	0.091203	-0.195181
O10	O	1.494851	-0.069297	-0.368865
C11	C	1.275315	-0.000038	-0.195579
C12	C	1.133686	-0.000033	-0.191762
C13	C	1.065545	-0.000044	-0.068297
C14	C	0.978494	0.068250	-0.131690
C15	C	0.968379	-0.068313	-0.121582
C16	C	1.048504	0.068318	-0.255210
C17	C	1.038394	-0.068307	-0.245081
C18	C	0.951371	0.000004	-0.308565
N19	N	1.492415	-0.215844	-0.172388
C20	C	1.567252	-0.259426	-0.247278
C21	C	1.560800	-0.346615	-0.240801
C22	C	1.479504	-0.390221	-0.159441
C23	C	1.404665	-0.346632	-0.084543
C24	C	1.411124	-0.259445	-0.091013
C25	C	1.456102	-0.653472	-0.135990
C26	C	1.449646	-0.740665	-0.129528
C27	C	1.605784	-0.740642	-0.285785
C28	C	1.612230	-0.653453	-0.292255
C29	C	1.537396	-0.609872	-0.217351
C30	C	1.472905	-0.479342	-0.152822
C31	C	1.544003	-0.520752	-0.223964
C32	C	1.741573	-0.000052	-0.181237
C33	C	1.883203	-0.000051	-0.185054
C34	C	1.515614	-0.000050	0.044722
C35	C	1.511797	-0.000049	0.186351
N36	N	1.524483	0.215753	-0.204418
C37	C	1.501274	-0.000039	-0.421538
C38	C	1.505091	-0.000035	-0.563168
C39	C	1.388333	-0.000038	0.254491
C40	C	1.441581	-0.068335	0.351683
C41	C	1.451760	0.068229	0.341520
C42	C	1.565092	-0.068401	0.281682
C43	C	1.575257	0.068223	0.271506
C44	C	1.628594	-0.000090	0.368672
H45	H	1.083628	0.126121	-0.311701
C46	C	1.315231	-0.394591	0.004955
C47	C	1.169847	-0.382601	-0.013308
C48	C	1.080405	-0.430556	0.076188
C49	C	1.136348	-0.490499	0.183946
C50	C	1.281740	-0.502492	0.202213
C51	C	1.371182	-0.454537	0.112718
H52	H	1.128428	-0.338225	-0.093081
H53	H	0.972776	-0.421678	0.062665
H54	H	1.070138	-0.525998	0.250196
H55	H	1.323159	-0.546868	0.281987
H56	H	1.478811	-0.463415	0.126241
H57	H	1.350184	-0.223961	-0.030030
C58	C	1.701658	-0.605494	-0.381757
C59	C	1.847047	-0.617471	-0.363509
C60	C	1.936470	-0.569515	-0.453022
C61	C	1.880504	-0.509582	-0.560783
C62	C	1.735108	-0.497602	-0.579036
C63	C	1.645685	-0.545558	-0.489523
H64	H	1.888483	-0.661840	-0.283734
H65	H	2.044102	-0.578383	-0.439509
H66	H	1.946700	-0.474081	-0.627045
H67	H	1.693672	-0.453233	-0.658811
H68	H	1.538053	-0.536690	-0.503036
C69	C	1.633426	-0.472789	-0.313459
C70	C	1.778816	-0.484759	-0.295214
C71	C	1.868235	-0.436786	-0.384714
C72	C	1.812263	-0.376844	-0.492459
C73	C	1.666865	-0.364871	-0.510709
C74	C	1.577446	-0.412844	-0.421209
H75	H	1.820257	-0.529134	-0.215451
H76	H	1.975868	-0.445649	-0.371204
H77	H	1.878456	-0.341332	-0.558712
H78	H	1.625424	-0.320496	-0.590473
H79	H	1.469813	-0.403981	-0.434720
C80	C	1.629799	-0.146494	0.245842
C81	C	1.572104	-0.233751	0.280790
C82	C	1.636806	-0.311844	0.244947
C83	C	1.759202	-0.302680	0.174156
C84	C	1.816904	-0.215420	0.139203
C85	C	1.752202	-0.137327	0.175046
H86	H	1.481493	-0.240537	0.333198
H87	H	1.594091	-0.376439	0.270822
H88	H	1.807099	-0.360489	0.147623
H89	H	1.907515	-0.208633	0.086795
H90	H	1.794917	-0.072732	0.149172
H91	H	0.933110	-0.126051	-0.065033
H92	H	1.065149	-0.126045	-0.292992
H93	H	1.383438	-0.776167	-0.063275
H94	H	1.385049	-0.126071	0.386980
H95	H	1.730194	-0.000131	0.418099
C96	C	1.383458	-0.527318	-0.063357
C97	C	1.439397	-0.587272	0.044390
C98	C	1.349947	-0.635254	0.133848
C99	C	1.204558	-0.623284	0.115558
C100	C	1.148611	-0.563328	0.007807
C101	C	1.238061	-0.515345	-0.081651
H102	H	1.547030	-0.596135	0.057934
H103	H	1.391363	-0.679638	0.213613
H104	H	1.138341	-0.658804	0.181780
H105	H	1.040979	-0.554464	-0.005737
H106	H	1.196645	-0.470962	-0.161416
C107	C	1.656680	-0.211464	-0.336777
C108	C	1.663790	-0.115561	-0.343904
C109	C	1.753223	-0.067601	-0.433403
C110	C	1.835548	-0.115545	-0.515774
C111	C	1.828441	-0.211454	-0.508650
C112	C	1.739007	-0.259413	-0.419151
H113	H	1.602846	-0.080065	-0.282926
H114	H	1.758484	0.003396	-0.438676
H115	H	1.901752	-0.080043	-0.582026
H116	H	1.889385	-0.246949	-0.569628
H117	H	1.733747	-0.330411	-0.413878
C118	C	1.651569	0.146222	0.223761
C119	C	1.606242	0.233530	0.244442
C120	C	1.682542	0.311536	0.196692
C121	C	1.804169	0.302236	0.128260
C122	C	1.849502	0.214924	0.107576
C123	C	1.773202	0.136918	0.155326
H124	H	1.516202	0.240418	0.295102
H125	H	1.648983	0.376170	0.212005
H126	H	1.860651	0.359981	0.092913
H127	H	1.939543	0.208036	0.056916
H128	H	1.806761	0.072284	0.140014
C129	C	1.251197	-0.000121	0.187410
C130	C	1.154229	-0.072471	0.215245
C131	C	1.017098	-0.072558	0.148163
C132	C	0.976935	-0.000296	0.053245
C133	C	1.073905	0.072058	0.025405
C134	C	1.211036	0.072146	0.092488
H135	H	1.183959	-0.125968	0.285513
H136	H	0.945314	-0.126120	0.168772
H137	H	0.875422	-0.000361	0.003587
H138	H	1.044175	0.125555	-0.044862
H139	H	1.282819	0.125708	0.071878
C140	C	1.386964	0.146232	0.377584
C141	C	1.247309	0.161219	0.325805
C142	C	1.182503	0.239217	0.361863
C143	C	1.257352	0.302228	0.449699
C144	C	1.397015	0.287243	0.501482
C145	C	1.461821	0.209245	0.465425
H146	H	1.191894	0.114573	0.260779
H147	H	1.079115	0.250310	0.323529
H148	H	1.209379	0.359967	0.476391
H149	H	1.452430	0.333889	0.566508
H150	H	1.565209	0.198152	0.503759
H151	H	0.951770	0.125986	-0.083735
H152	H	1.115241	0.000039	0.033193
H153	H	0.901951	0.000044	-0.410171
H154	H	1.666711	-0.776135	-0.346766
H155	H	1.621743	-0.382096	-0.301783
H156	H	1.395167	-0.617999	-0.074997
