data_functionalizedCrystal
_audit_creation_method	'MofGen! by Chris Wilmer'
_symmetry_space_group_name_H-M	'P1'
_symmetry_Int_Tables_number	1
_symmetry_cell_setting	triclinic
loop_
_symmetry_equiv_pos_as_xyz
  x,y,z
_cell_length_a	12.759401
_cell_length_b	12.759400
_cell_length_c	12.759401
_cell_angle_alpha	90.006075
_cell_angle_beta	90.004452
_cell_angle_gamma	90.012209
loop_
_atom_site_label
_atom_site_type_symbol
_atom_site_fract_x
_atom_site_fract_y
_atom_site_fract_z
Zn1	Zn	1.606120	-0.418484	0.593991
Zn2	Zn	1.606063	-0.594128	0.418315
Zn3	Zn	1.430465	-0.418461	0.418330
Zn4	Zn	1.430416	-0.594118	0.593956
O5	O	1.518266	-0.506298	0.506148
O6	O	1.753134	-0.441797	0.570695
O7	O	1.582766	-0.570820	0.271296
O8	O	1.453811	-0.271443	0.441653
O9	O	1.753091	-0.570842	0.441627
O10	O	1.582864	-0.271460	0.570711
O11	O	1.453756	-0.441758	0.271307
O12	O	1.283438	-0.441748	0.441619
O13	O	1.453726	-0.570826	0.740981
O14	O	1.283401	-0.570803	0.570651
O15	O	1.582816	-0.441788	0.741007
O16	O	1.582718	-0.741148	0.441593
O17	O	1.453670	-0.741141	0.570635
C18	C	1.245299	-0.506273	0.506133
C19	C	1.128522	-0.506288	0.506152
C20	C	1.073675	-0.439221	0.573462
C21	C	0.963951	-0.439241	0.573469
C22	C	0.963930	-0.573404	0.438852
C23	C	1.073652	-0.573378	0.438841
C24	C	1.128544	-0.372131	0.640773
C25	C	1.073697	-0.305060	0.708090
C26	C	0.963973	-0.305080	0.708096
C27	C	0.909096	-0.372171	0.640786
C28	C	1.518211	-0.779265	0.506131
C29	C	1.518283	-0.896042	0.506159
C30	C	1.585448	-0.950833	0.573414
C31	C	1.585496	-1.060557	0.573440
C32	C	1.451214	-1.060689	0.438946
C33	C	1.451161	-0.950967	0.438927
C34	C	1.652570	-0.895908	0.640647
C35	C	1.719741	-0.950699	0.707907
C36	C	1.719790	-1.060423	0.707932
C37	C	1.652668	-1.115356	0.640698
C38	C	1.792299	-0.506323	0.506163
C39	C	1.909076	-0.506334	0.506170
C40	C	1.518272	-0.506308	0.780181
C41	C	1.518275	-0.506313	0.896958
C42	C	1.518350	-0.232264	0.506188
C43	C	1.518386	-0.115488	0.506204
C44	C	1.585479	-0.439128	1.061560
C45	C	1.585484	-0.439131	0.951836
C46	C	1.451064	-0.573505	0.951810
C47	C	1.451065	-0.573507	1.061532
C48	C	1.652685	-0.371934	1.116432
C49	C	1.719897	-0.304743	1.061588
C50	C	1.719902	-0.304745	0.951864
C51	C	1.652694	-0.371938	0.896984
C52	C	1.518257	-0.506312	1.233181
C53	C	1.518271	-0.506313	1.116404
H54	H	0.819752	-0.372160	0.640775
O55	O	1.652685	-0.371927	1.234777
H56	H	1.573446	-0.350683	1.263696
O57	O	1.792222	-1.119522	0.780483
H58	H	1.845728	-1.169500	0.733518
O59	O	1.792132	-0.891451	0.780417
H60	H	1.874609	-0.912472	0.762469
H61	H	1.652701	-1.204701	0.640737
O62	O	1.792365	-0.232254	1.120770
H63	H	1.781059	-0.243523	1.206281
H64	H	1.652540	-0.806565	0.640631
O65	O	0.904741	-0.645767	0.366266
H66	H	0.925776	-0.627603	0.283837
O67	O	1.378830	-1.119939	0.366431
H68	H	1.332110	-1.063404	0.319665
O69	O	1.132824	-0.645710	0.366245
H70	H	1.111784	-0.728204	0.384127
O71	O	1.792395	-0.232287	0.892704
H72	H	1.839120	-0.185562	0.949298
O73	O	0.904811	-0.232740	0.780692
H74	H	0.961402	-0.186092	0.827496
H75	H	1.396468	-0.906355	0.384163
H76	H	1.396339	-0.628215	1.106187
H77	H	1.652712	-0.371943	0.807639
H78	H	1.396345	-0.628209	0.907118
H79	H	1.217887	-0.372107	0.640775
H80	H	1.118385	-0.250430	0.762884
