data_functionalizedCrystal
_audit_creation_method	'MofGen! by Chris Wilmer'
_symmetry_space_group_name_H-M	'P1'
_symmetry_Int_Tables_number	1
_symmetry_cell_setting	triclinic
loop_
_symmetry_equiv_pos_as_xyz
  x,y,z
_cell_length_a	13.635800
_cell_length_b	7.190339
_cell_length_c	7.190378
_cell_angle_alpha	97.677859
_cell_angle_beta	119.389020
_cell_angle_gamma	60.611724
loop_
_atom_site_label
_atom_site_type_symbol
_atom_site_fract_x
_atom_site_fract_y
_atom_site_fract_z
V1	V	-2.154344	0.291746	-0.663518
O2	O	-2.100810	-0.017473	-0.652439
O3	O	-2.172039	0.581805	-0.657488
O4	O	-2.172049	0.285743	-0.953582
O5	O	-2.100800	0.280638	-0.354295
V6	V	-2.385299	0.254939	-0.626714
O7	O	-2.308677	0.372485	-0.744251
O8	O	-2.456064	0.174199	-0.545980
O9	O	-2.256000	-0.035120	-0.632744
O10	O	-2.497531	0.564158	-0.637793
O11	O	-2.497541	0.266046	-0.935937
O12	O	-2.255990	0.260942	-0.336650
V13	V	-1.885291	0.254939	-0.626714
O14	O	-1.938835	0.266046	-0.935937
O15	O	-1.867586	0.260942	-0.336650
O16	O	-1.867596	-0.035120	-0.632744
O17	O	-1.938825	0.564158	-0.637793
V18	V	-1.654336	0.291746	-0.663518
O19	O	-1.730958	0.174199	-0.545980
O20	O	-1.583571	0.372485	-0.744251
O21	O	-1.783645	0.285743	-0.953582
O22	O	-1.542094	0.280638	-0.354295
O23	O	-1.542105	-0.017473	-0.652439
O24	O	-1.783635	0.581805	-0.657488
C25	C	-2.103385	0.652565	-0.646645
C26	C	-2.159818	0.894139	-0.643597
C27	C	-1.879823	0.274898	-0.024329
C28	C	-1.936258	0.271818	-0.265900
C29	C	-2.103392	0.274895	-1.024330
C30	C	-2.159828	0.271847	-1.265905
C31	C	-1.936256	-0.105866	-0.643599
C32	C	-1.879830	-0.347437	-0.646674
