data_functionalizedCrystal
_audit_creation_method	'MofGen! by Chris Wilmer'
_symmetry_space_group_name_H-M	'P1'
_symmetry_Int_Tables_number	1
_symmetry_cell_setting	triclinic
loop_
_symmetry_equiv_pos_as_xyz
  x,y,z
_cell_length_a	21.295419
_cell_length_b	21.295417
_cell_length_c	12.645323
_cell_angle_alpha	90.032945
_cell_angle_beta	90.022479
_cell_angle_gamma	90.044503
loop_
_atom_site_label
_atom_site_type_symbol
_atom_site_fract_x
_atom_site_fract_y
_atom_site_fract_z
Zn1	Zn	0.962346	-0.250356	0.599381
Zn2	Zn	1.462346	0.249644	1.099381
Zn3	Zn	0.962254	-0.355630	0.422097
Zn4	Zn	1.462254	0.144370	0.922097
Zn5	Zn	0.857073	-0.250406	0.422126
Zn6	Zn	1.357073	0.249594	0.922126
Zn7	Zn	0.857040	-0.355618	0.599313
Zn8	Zn	1.357040	0.144382	1.099313
O9	O	0.909678	-0.303002	0.510729
O10	O	1.409678	0.196998	1.010729
O11	O	1.050423	-0.264304	0.575881
O12	O	1.550423	0.235696	1.075881
O13	O	0.948277	-0.341698	0.273753
O14	O	1.448277	0.158302	0.773753
O15	O	0.871090	-0.162310	0.445681
O16	O	1.371090	0.337690	0.945681
O17	O	1.050356	-0.341649	0.445630
O18	O	1.550356	0.158351	0.945630
O19	O	0.948434	-0.162273	0.575910
O20	O	1.448434	0.337727	1.075910
O21	O	0.871001	-0.264390	0.273775
O22	O	1.371001	0.235610	0.773775
O23	O	0.768980	-0.264379	0.445614
O24	O	1.268980	0.235621	0.945614
O25	O	0.871034	-0.341629	0.747669
O26	O	1.371034	0.158371	1.247669
O27	O	0.768955	-0.341678	0.575792
O28	O	1.268955	0.158322	1.075792
O29	O	0.948402	-0.264293	0.747720
O30	O	1.448402	0.235707	1.247720
O31	O	0.948245	-0.443718	0.445563
O32	O	1.448245	0.056282	0.945563
O33	O	0.870945	-0.443709	0.575763
O34	O	1.370945	0.056291	1.075763
C35	C	0.746127	-0.303033	0.510699
C36	C	1.246127	0.196967	1.010699
C37	C	0.676159	-0.303061	0.510712
C38	C	1.176159	0.196939	1.010712
C39	C	0.643350	-0.262853	0.578638
C40	C	1.143350	0.237147	1.078638
C41	C	0.577607	-0.262836	0.578642
C42	C	1.077607	0.237164	1.078642
C43	C	0.544676	-0.303038	0.510731
C44	C	1.044676	0.196962	1.010731
C45	C	0.577493	-0.343249	0.442792
C46	C	1.077493	0.156751	0.942792
C47	C	0.643234	-0.343260	0.442782
C48	C	1.143234	0.156740	0.942782
N49	N	0.441402	-0.358117	0.502448
N50	N	0.941402	0.141883	1.002448
N51	N	0.378950	-0.358104	0.502463
N52	N	0.878950	0.141896	1.002463
C53	C	0.346602	-0.303006	0.510755
C54	C	0.846602	0.196994	1.010755
N55	N	0.379063	-0.247919	0.519051
N56	N	0.879063	0.252081	1.019051
N57	N	0.441521	-0.247932	0.519041
N58	N	0.941521	0.252068	1.019041
C59	C	0.473391	-0.303030	0.510734
C60	C	0.973391	0.196970	1.010734
C61	C	0.242507	-0.262776	0.578689
C62	C	0.742507	0.237224	1.078689
C63	C	0.176763	-0.262758	0.578686
C64	C	0.676763	0.237242	1.078686
C65	C	0.176650	-0.343176	0.442841
C66	C	0.676650	0.156824	0.942841
C67	C	0.242393	-0.343189	0.442838
C68	C	0.742393	0.156811	0.942838
C69	C	0.275317	-0.302989	0.510768
C70	C	0.775317	0.197011	1.010768
C71	C	0.909598	-0.466554	0.510676
C72	C	1.409598	0.033446	1.010676
C73	C	0.909622	-0.536522	0.510688
C74	C	1.409622	-0.036522	1.010688
C75	C	0.949871	-0.569312	0.578546
C76	C	1.449871	-0.069312	1.078546
C77	C	0.949894	-0.635055	0.578573
C78	C	1.449894	-0.135055	1.078573
C79	C	0.909673	-0.668005	0.510721
C80	C	1.409673	-0.168005	1.010721
C81	C	0.869415	-0.635207	0.442858
C82	C	1.369415	-0.135207	0.942858
C83	C	0.869389	-0.569465	0.442842
C84	C	1.369389	-0.069465	0.942842
N85	N	0.904915	-0.771270	0.417945
N86	N	1.404915	-0.271270	0.917945
N87	N	0.904943	-0.833722	0.417964
N88	N	1.404943	-0.333722	0.917964
C89	C	0.909746	-0.866079	0.510769
C90	C	1.409746	-0.366079	1.010769
N91	N	0.914532	-0.833626	0.603557
N92	N	1.414532	-0.333626	1.103557
N93	N	0.914508	-0.771169	0.603537
N94	N	1.414508	-0.271169	1.103537
C95	C	0.909695	-0.739290	0.510732
C96	C	1.409695	-0.239290	1.010732
C97	C	0.950022	-0.970155	0.578662
C98	C	1.450022	-0.470155	1.078662
C99	C	0.950040	-1.035899	0.578690
C100	C	1.450040	-0.535899	1.078690
C101	C	0.869565	-1.036049	0.442966
C102	C	1.369565	-0.536049	0.942966
C103	C	0.869544	-0.970307	0.442947
C104	C	1.369544	-0.470307	0.942947
C105	C	0.909776	-0.937364	0.510794
C106	C	1.409776	-0.437364	1.010794
C107	C	1.073869	-0.302973	0.510760
C108	C	1.573869	0.197027	1.010760
C109	C	1.143837	-0.302960	0.510773
C110	C	1.643837	0.197040	1.010773
C111	C	0.909725	-0.302954	0.787235
C112	C	1.409725	0.197046	1.287235
C113	C	0.909745	-0.302933	0.905065
C114	C	1.409745	0.197067	1.405065
C115	C	0.909776	-0.138812	0.510806
C116	C	1.409776	0.361188	1.010806
C117	C	0.909818	-0.068844	0.510839
C118	C	1.409818	0.431156	1.010839
C119	C	0.909669	-0.303006	0.235299
C120	C	1.409669	0.196994	0.735299
C121	C	0.909771	-0.302849	0.117470
C122	C	1.409771	0.197151	0.617470
C123	C	0.860922	-0.351356	1.072597
C124	C	1.360922	0.148644	1.572597
C125	C	0.861050	-0.351596	0.950037
C126	C	1.361050	0.148404	1.450037
C127	C	0.976069	-0.320919	0.949580
C128	C	1.476069	0.179081	1.449580
C129	C	0.975801	-0.321223	1.072178
C130	C	1.475801	0.178777	1.572178
C131	C	0.892870	-0.236253	1.072279
C132	C	1.392870	0.263747	1.572279
C133	C	0.891390	-0.236653	0.949672
C134	C	1.391390	0.263347	1.449672
H135	H	0.149839	-0.375909	0.387546
H136	H	0.649839	0.124091	0.887546
H137	H	0.811868	-0.340342	0.919938
H138	H	1.311868	0.159658	1.419938
H139	H	0.924371	-0.198603	0.919060
H140	H	1.424371	0.301397	1.419060
Cl141	Cl	0.536353	-0.212285	0.664041
Cl142	Cl	1.036353	0.287715	1.164041
H143	H	0.982664	-0.661758	0.633843
H144	H	1.482664	-0.161758	1.133843
H145	H	0.836812	-1.062876	0.387727
H146	H	1.336812	-0.562876	0.887727
Cl147	Cl	0.684737	-0.212316	0.664033
Cl148	Cl	1.184737	0.287684	1.164033
H149	H	0.982629	-0.542492	0.633794
H150	H	1.482629	-0.042492	1.133794
Cl151	Cl	1.000637	-1.077121	0.664019
Cl152	Cl	1.500637	-0.577121	1.164019
H153	H	0.269316	-0.230040	0.633995
H154	H	0.769316	0.269960	1.133995
H155	H	0.550676	-0.375981	0.387497
H156	H	1.050676	0.124019	0.887497
H157	H	0.269106	-0.375933	0.387530
H158	H	0.769106	0.124067	0.887530
H159	H	0.871970	-0.400418	1.103404
H160	H	1.371970	0.099582	1.603404
H161	H	0.845349	-0.219855	1.103187
H162	H	1.345349	0.280145	1.603187
H163	H	1.013430	-0.287425	1.101864
H164	H	1.513430	0.212575	1.601864
H165	H	0.836771	-0.943607	0.387686
H166	H	1.336771	-0.443607	0.887686
H167	H	0.982780	-0.943332	0.633910
H168	H	1.482780	-0.443332	1.133910
H169	H	0.811595	-0.340211	1.102074
H170	H	1.311595	0.159789	1.602074
H171	H	0.669947	-0.376003	0.387467
H172	H	1.169947	0.123997	0.887467
H173	H	0.872206	-0.400966	0.920711
H174	H	1.372206	0.099034	1.420711
H175	H	0.836665	-0.662038	0.387616
H176	H	1.336665	-0.162038	0.887616
H177	H	0.990128	-0.369905	1.100777
H178	H	1.490128	0.130095	1.600777
H179	H	1.013440	-0.286706	0.920453
H180	H	1.513440	0.213294	1.420453
Cl181	Cl	0.135517	-0.212204	0.664082
Cl182	Cl	0.635517	0.287796	1.164082
Cl183	Cl	0.998571	-0.395293	0.902186
Cl184	Cl	1.498571	0.104707	1.402186
H185	H	0.836612	-0.542767	0.387582
H186	H	1.336612	-0.042767	0.887582
H187	H	0.842582	-0.223089	0.920576
H188	H	1.342582	0.276911	1.420576
H189	H	0.928449	-0.200114	1.101301
H190	H	1.428449	0.299886	1.601301
