data_functionalizedCrystal
_audit_creation_method	'MofGen! by Chris Wilmer'
_symmetry_space_group_name_H-M	'P1'
_symmetry_Int_Tables_number	1
_symmetry_cell_setting	triclinic
loop_
_symmetry_equiv_pos_as_xyz
  x,y,z
_cell_length_a	14.519731
_cell_length_b	14.519709
_cell_length_c	13.330367
_cell_angle_alpha	89.999019
_cell_angle_beta	89.989571
_cell_angle_gamma	83.684499
loop_
_atom_site_label
_atom_site_type_symbol
_atom_site_fract_x
_atom_site_fract_y
_atom_site_fract_z
O1	O	1.223836	0.120978	0.083428
O2	O	0.955362	0.135194	0.083430
O3	O	1.096717	-0.006152	0.083420
O4	O	1.082481	0.262324	0.083438
O5	O	1.096744	-0.006143	-0.083427
O6	O	0.955388	0.135203	-0.083417
O7	O	1.223862	0.120987	-0.083419
Cu8	Cu	1.089628	0.128096	-0.098653
Cu9	Cu	1.089597	0.128085	0.098663
O10	O	1.082507	0.262333	-0.083409
C11	C	0.921016	0.134532	0.000006
C12	C	0.818635	0.132536	0.000007
C13	C	0.735491	0.130915	0.000011
C14	C	0.631182	0.128888	0.000011
C15	C	0.548043	0.127280	0.000011
C16	C	0.443728	0.125253	0.000013
C17	C	1.096067	-0.040507	-0.000004
C18	C	1.094079	-0.142889	-0.000005
C19	C	1.086759	-0.517785	0.000022
C20	C	1.088792	-0.413477	0.000014
C21	C	1.090419	-0.330340	0.000008
C22	C	1.092452	-0.226025	0.000002
C23	C	1.258209	0.121649	0.000006
C24	C	1.360589	0.123645	0.000013
C25	C	1.083157	0.296688	0.000017
C26	C	1.085146	0.399070	0.000024
N27	N	1.089575	0.128071	0.237445
N28	N	1.089656	0.128103	-0.237434
C29	C	1.026935	0.190562	0.710072
C30	C	1.152360	0.065638	0.710031
C31	C	1.152346	0.065632	0.605013
C32	C	1.089625	0.128090	0.552519
C33	C	1.026917	0.190555	0.605044
C34	C	1.215046	0.003162	0.552480
C35	C	1.215034	0.003152	0.447456
C36	C	1.152316	0.065616	0.394960
C37	C	1.089607	0.128084	0.447491
C38	C	1.026886	0.190542	0.394997
C39	C	0.964180	0.253015	0.447527
C40	C	0.964200	0.253019	0.552548
C41	C	1.152296	0.065612	0.289938
C42	C	1.026868	0.190536	0.289969
H43	H	0.975796	0.241400	0.247235
N44	N	0.896525	0.320373	0.390905
H45	H	0.906030	0.310881	0.316405
H46	H	0.907158	0.385860	0.409239
N47	N	1.219914	-0.001765	0.233281
H48	H	1.259646	-0.041334	0.282472
H49	H	1.260659	0.033716	0.189688
H50	H	1.266107	-0.047695	0.595224
H51	H	0.913147	0.303881	0.595324
N52	N	0.959308	0.257943	0.766719
H53	H	0.968833	0.248476	0.841216
H54	H	0.893903	0.247009	0.748390
H55	H	1.203421	0.014782	0.752775
H56	H	1.266092	-0.047716	0.404693
