data_functionalizedCrystal
_audit_creation_method	'MofGen! by Chris Wilmer'
_symmetry_space_group_name_H-M	'P1'
_symmetry_Int_Tables_number	1
_symmetry_cell_setting	triclinic
loop_
_symmetry_equiv_pos_as_xyz
  x,y,z
_cell_length_a	11.792241
_cell_length_b	11.026607
_cell_length_c	9.482900
_cell_angle_alpha	101.363848
_cell_angle_beta	80.601500
_cell_angle_gamma	96.389716
loop_
_atom_site_label
_atom_site_type_symbol
_atom_site_fract_x
_atom_site_fract_y
_atom_site_fract_z
O1	O	-0.461983	-1.632118	-0.120906
O2	O	-0.407791	-1.278456	-0.120907
O3	O	-0.271422	-1.463868	-0.120897
O4	O	-0.598353	-1.446706	-0.120917
O5	O	-0.299264	-1.426207	0.120894
O6	O	-0.435633	-1.240795	0.120883
O7	O	-0.489825	-1.594458	0.120884
Cu8	Cu	-0.465271	-1.414188	0.142961
Cu9	Cu	-0.432345	-1.458726	-0.142984
O10	O	-0.626195	-1.409046	0.120873
C11	C	-0.411715	-1.214349	-0.000012
C12	C	-0.381912	-1.079439	-0.000012
C13	C	-0.242838	-1.443960	-0.000002
C14	C	-0.116183	-1.440733	-0.000003
C15	C	-0.654778	-1.428955	-0.000025
C16	C	-0.781432	-1.432183	-0.000033
C17	C	0.115710	-1.434802	-0.000028
C18	C	-0.013331	-1.438097	-0.000014
C19	C	-0.485901	-1.658565	-0.000014
C20	C	-0.515703	-1.793477	-0.000024
N21	N	-0.488431	-1.382871	0.344079
C22	C	-0.464202	-1.006176	-0.000018
C23	C	-0.433401	-0.866739	-0.000018
N24	N	-0.409178	-1.490052	-0.344102
C25	C	-0.439169	-1.449480	0.416282
C26	C	-0.458448	-1.423433	0.583698
H27	H	-0.340138	-0.826244	-0.000049
N28	N	-0.581188	-1.056979	-0.000051
N29	N	-0.633703	-1.049552	-0.101979
H30	H	-0.716328	-1.085429	-0.102004
N31	N	-0.368203	-1.545088	0.338382
N32	N	-0.321778	-1.607636	0.406179
H33	H	-0.271598	-1.675110	0.351167
N34	N	-0.632695	-0.844286	-0.000010
N35	N	-0.657555	-0.957482	0.000000
H36	H	-0.740180	-0.993368	0.000014
H37	H	-0.288655	-1.038939	-0.000043
N38	N	-0.338345	-1.585787	0.578009
N39	N	-0.250231	-1.559728	0.493066
H40	H	-0.200206	-1.627344	0.438066
H41	H	-0.514896	-1.347114	0.645818
H42	H	-0.544875	-1.306557	0.406205
