data_functionalizedCrystal
_audit_creation_method	'MofGen! by Chris Wilmer'
_symmetry_space_group_name_H-M	'P1'
_symmetry_Int_Tables_number	1
_symmetry_cell_setting	triclinic
loop_
_symmetry_equiv_pos_as_xyz
  x,y,z
_cell_length_a	10.654550
_cell_length_b	8.559649
_cell_length_c	9.130313
_cell_angle_alpha	90.000859
_cell_angle_beta	89.996220
_cell_angle_gamma	77.131784
loop_
_atom_site_label
_atom_site_type_symbol
_atom_site_fract_x
_atom_site_fract_y
_atom_site_fract_z
O1	O	1.644677	0.224178	-0.121910
O2	O	1.276992	0.245536	-0.121886
O3	O	1.493228	0.002614	-0.121899
O4	O	1.428441	0.467100	-0.121898
O5	O	1.493225	0.002621	0.121700
O6	O	1.276989	0.245543	0.121713
O7	O	1.644674	0.224184	0.121688
Cu8	Cu	1.460831	0.234864	0.143943
Cu9	Cu	1.460835	0.234856	-0.144141
O10	O	1.428438	0.467107	0.121701
C11	C	1.230355	0.243972	-0.000084
C12	C	1.091396	0.239279	-0.000075
C13	C	1.498136	-0.056858	-0.000103
C14	C	1.512750	-0.234076	-0.000112
C15	C	0.997136	0.382308	-0.000096
C16	C	0.866571	0.377890	-0.000121
C17	C	0.924542	0.087401	-0.000111
C18	C	1.055103	0.091821	-0.000075
C19	C	0.963666	0.550020	-0.000108
C20	C	0.833101	0.545601	-0.000133
C21	C	1.691311	0.225749	-0.000117
C22	C	1.830270	0.230441	-0.000136
C23	C	1.423530	0.526579	-0.000098
C24	C	1.408916	0.703797	-0.000099
N25	N	1.460838	0.234869	0.346566
N26	N	1.460839	0.234839	-0.346763
C27	C	1.556605	0.127340	0.423212
C28	C	1.556604	0.127320	0.576549
C29	C	1.365062	0.342374	0.576580
C30	C	1.365060	0.342384	0.423245
C31	C	1.667194	0.003185	0.423195
C32	C	1.667192	0.003166	0.576532
H33	H	1.131848	-0.024647	-0.000037
C34	C	0.884620	-0.074793	-0.000120
H35	H	0.959461	-0.159343	-0.000093
H36	H	0.834910	-0.082563	-0.085077
H37	H	0.834876	-0.082548	0.084830
H38	H	1.658424	-0.119498	0.381577
C39	C	0.994142	0.638646	0.137603
H40	H	0.918080	0.672079	0.194224
H41	H	1.025519	0.729717	0.109283
H42	H	1.057620	0.568799	0.194271
C43	C	1.004390	0.622205	-0.142154
H44	H	1.093350	0.622806	-0.137285
H45	H	0.955568	0.728814	-0.153372
H46	H	0.989394	0.559511	-0.223439
C47	C	1.784951	0.055683	0.358928
H48	H	1.837396	0.079047	0.436414
H49	H	1.756839	0.148627	0.300372
H50	H	1.833283	-0.028260	0.300365
C51	C	1.642174	-0.153454	0.640779
H52	H	1.631039	-0.223192	0.563284
H53	H	1.566614	-0.130015	0.699352
H54	H	1.713458	-0.203795	0.699322
H55	H	0.782193	0.596289	0.105035
H56	H	1.308838	-0.213815	-0.000088
C57	C	1.647958	-0.345374	-0.000122
H58	H	1.640378	-0.453881	-0.000125
H59	H	1.693457	-0.325453	0.084816
H60	H	1.693444	-0.325465	-0.085091
H61	H	1.287081	0.429908	0.639029
C62	C	1.259710	0.460656	0.338939
H63	H	1.202679	0.524692	0.406571
H64	H	1.213042	0.402617	0.279122
H65	H	1.298418	0.527653	0.279128
H66	H	0.784843	0.608790	-0.102087
C67	C	1.793745	0.040113	0.632756
H68	H	1.845786	0.055338	0.551825
H69	H	1.838474	-0.046917	0.690543
H70	H	1.775040	0.134743	0.690568
