data_functionalizedCrystal
_audit_creation_method	'MofGen! by Chris Wilmer'
_symmetry_space_group_name_H-M	'P1'
_symmetry_Int_Tables_number	1
_symmetry_cell_setting	triclinic
loop_
_symmetry_equiv_pos_as_xyz
  x,y,z
_cell_length_a	21.295411
_cell_length_b	12.759395
_cell_length_c	12.759394
_cell_angle_alpha	90.014682
_cell_angle_beta	89.985231
_cell_angle_gamma	89.978924
loop_
_atom_site_label
_atom_site_type_symbol
_atom_site_fract_x
_atom_site_fract_y
_atom_site_fract_z
Zn1	Zn	-0.355883	1.606285	-0.418391
Zn2	Zn	-0.250621	1.606170	-0.594056
Zn3	Zn	-0.250634	1.430578	-0.418391
Zn4	Zn	-0.355859	1.430575	-0.594028
O5	O	-0.303249	1.518402	-0.506216
O6	O	-0.341924	1.753291	-0.441705
O7	O	-0.162533	1.582830	-0.570765
O8	O	-0.264611	1.453935	-0.271370
O9	O	-0.264589	1.753206	-0.570765
O10	O	-0.341937	1.583026	-0.271369
O11	O	-0.162543	1.453824	-0.441705
O12	O	-0.264588	1.283556	-0.441678
O13	O	-0.443952	1.453930	-0.570717
O14	O	-0.341896	1.283554	-0.570717
O15	O	-0.443969	1.583023	-0.441677
O16	O	-0.264565	1.582827	-0.741073
O17	O	-0.341883	1.453819	-0.741052
C18	C	-0.303242	1.245434	-0.506195
C19	C	-0.303253	1.128658	-0.506212
C20	C	-0.383913	1.128726	-0.372038
C21	C	-0.424248	1.073900	-0.304964
C22	C	-0.424256	0.964178	-0.304983
C23	C	-0.383923	0.909280	-0.372081
C24	C	-0.343588	0.964107	-0.439155
C25	C	-0.343586	1.073831	-0.439131
C26	C	-0.262926	0.964038	-0.573321
C27	C	-0.262921	1.073760	-0.573309
C28	C	-0.222593	0.909141	-0.640419
C29	C	-0.182261	0.963967	-0.707499
C30	C	-0.182255	1.073696	-0.707479
C31	C	-0.222586	1.128586	-0.640383
C32	C	-0.467440	1.518489	-0.506194
C33	C	-0.537408	1.518526	-0.506185
C34	C	-0.570285	1.585742	-0.438991
C35	C	-0.636027	1.585741	-0.438945
C36	C	-0.668890	1.518534	-0.506112
C37	C	-0.636006	1.451305	-0.573311
C38	C	-0.570264	1.451301	-0.573347
N39	N	-0.772113	1.510454	-0.598020
N40	N	-0.834564	1.510464	-0.597983
C41	C	-0.866965	1.518541	-0.506006
N42	N	-0.834556	1.526628	-0.414065
N43	N	-0.772098	1.526624	-0.414104
C44	C	-0.740176	1.518531	-0.506080
C45	C	-0.971128	1.585759	-0.438757
C46	C	-1.036871	1.585750	-0.438709
C47	C	-1.036849	1.451320	-0.573085
C48	C	-0.971106	1.451323	-0.573123
C49	C	-0.938250	1.518548	-0.505960
C50	C	-0.139698	1.518375	-0.506162
C51	C	-0.069730	1.518542	-0.505876
C52	C	-0.303234	1.518339	-0.779184
C53	C	-0.303249	1.518408	-0.895960
C54	C	-0.303258	1.792435	-0.506238
C55	C	-0.303261	1.909212	-0.506247
C56	C	-0.222798	1.652846	-0.895929
C57	C	-0.182580	1.720092	-0.950773
C58	C	-0.182597	1.720154	-1.060495
C59	C	-0.222838	1.652964	-1.115374
C60	C	-0.263056	1.585718	-1.060529
C61	C	-0.263033	1.585661	-0.950805
C62	C	-0.343509	1.451287	-1.060561
C63	C	-0.343490	1.451218	-0.950840
C64	C	-0.383750	1.384097	-1.115440
C65	C	-0.423965	1.316844	-1.060596
C66	C	-0.423946	1.316784	-0.950867
C67	C	-0.383708	1.383972	-0.895995
C68	C	-0.303278	1.518494	-0.232183
C69	C	-0.303291	1.518533	-0.115406
H70	H	-0.222601	0.819800	-0.640426
O71	O	-0.383910	1.247069	-0.372015
H72	H	-0.396548	1.276003	-0.451285
H73	H	-0.457096	0.919538	-0.250360
H74	H	-1.063605	1.396589	-0.627763
O75	O	-0.383691	1.383889	-0.777652
H76	H	-0.396449	1.463102	-0.748637
H77	H	-0.383928	0.819939	-0.372081
O78	O	-0.222855	1.653039	-1.233717
H79	H	-0.270348	1.674263	-1.262586
H80	H	-0.662767	1.396582	-0.627996
H81	H	-0.944338	1.396595	-0.627846
H82	H	-0.222772	1.652789	-0.806588
O83	O	-0.222572	1.246929	-0.640353
H84	H	-0.257387	1.275887	-0.582420
H85	H	-0.149423	0.919261	-0.762120
H86	H	-0.457085	1.118609	-0.250333
H87	H	-0.149407	1.118329	-0.762095
O88	O	-0.534845	1.658241	-0.366551
H89	H	-0.568755	1.704977	-0.319814
O90	O	-0.139224	1.792701	-1.119640
H91	H	-0.167439	1.846165	-1.169545
H92	H	-0.662801	1.640474	-0.384222
H93	H	-0.456729	1.262148	-1.105287
H94	H	-0.149817	1.774800	-0.906081
H95	H	-0.383763	1.384156	-1.204782
O96	O	-0.534798	1.378779	-0.645800
H97	H	-0.568692	1.332035	-0.692493
O98	O	-0.935682	1.658248	-0.366310
H99	H	-0.969591	1.704976	-0.319563
O100	O	-0.467318	1.244242	-0.891712
H101	H	-0.495295	1.197529	-0.948311
H102	H	-1.063639	1.640484	-0.383986
