data_functionalizedCrystal
_audit_creation_method	'MofGen! by Chris Wilmer'
_symmetry_space_group_name_H-M	'P1'
_symmetry_Int_Tables_number	1
_symmetry_cell_setting	triclinic
loop_
_symmetry_equiv_pos_as_xyz
  x,y,z
_cell_length_a	10.723023
_cell_length_b	10.540510
_cell_length_c	9.198806
_cell_angle_alpha	89.999296
_cell_angle_beta	89.996513
_cell_angle_gamma	84.490429
loop_
_atom_site_label
_atom_site_type_symbol
_atom_site_fract_x
_atom_site_fract_y
_atom_site_fract_z
O1	O	1.657258	0.178044	-0.120869
O2	O	1.294112	0.195087	-0.120874
O3	O	1.483989	0.001852	-0.120871
O4	O	1.467381	0.371279	-0.120872
O5	O	1.483974	0.001852	0.120914
O6	O	1.294097	0.195087	0.120911
O7	O	1.657243	0.178043	0.120916
Cu8	Cu	1.475669	0.186565	0.142990
Cu9	Cu	1.475687	0.186565	-0.142949
O10	O	1.467366	0.371278	0.120913
C11	C	1.247605	0.193847	0.000017
C12	C	1.109049	0.190137	0.000015
C13	C	1.047268	0.188482	0.125266
C14	C	0.904064	0.184647	0.125266
C15	C	1.482744	-0.045451	0.000019
C16	C	1.479041	-0.186399	0.000010
C17	C	1.610948	-0.403923	0.000565
C18	C	1.614898	-0.257329	0.000013
C19	C	1.409504	-0.231121	-0.138059
C20	C	1.406517	-0.377881	-0.138168
C21	C	1.403670	-0.377689	0.136787
C22	C	1.410114	-0.231351	0.138605
C23	C	1.703751	0.179283	0.000021
C24	C	1.842306	0.182994	0.000014
C25	C	1.468611	0.418581	0.000020
C26	C	1.472314	0.559529	0.000019
N27	N	1.475665	0.186564	0.344104
N28	N	1.475700	0.186557	-0.344062
C29	C	1.555389	0.105072	0.416303
C30	C	1.555408	0.105068	0.583715
H31	H	1.669307	-0.228013	0.098984
C32	C	1.383483	0.280817	0.572072
N33	N	1.314024	0.351813	0.508893
H34	H	1.100395	0.189898	0.232497
H35	H	0.850933	0.183232	0.232498
C36	C	1.682452	-0.460647	0.134328
N37	N	1.736309	-0.503382	0.235082
C38	C	0.914071	0.184914	-0.144863
N39	N	0.968133	0.186358	-0.253984
C40	C	1.647561	0.010798	0.332377
N41	N	1.716981	-0.060219	0.269166
H42	H	1.055923	0.188711	-0.107216
H43	H	1.623668	0.035304	0.645802
H44	H	1.407420	0.256324	0.406231
H45	H	1.669635	-0.228952	-0.099129
H46	H	1.663578	-0.447455	-0.097889
H47	H	1.454051	-0.418121	-0.241375
H48	H	1.304904	-0.400823	-0.144425
C49	C	1.276112	-0.165001	0.149865
N50	N	1.175176	-0.115027	0.158334
C51	C	1.274391	-0.167023	-0.145010
N52	N	1.172625	-0.118739	-0.150245
H53	H	1.457808	-0.200290	-0.240809
C54	C	1.461678	-0.435048	0.278168
N55	N	1.505384	-0.478252	0.384649
H56	H	1.460712	-0.202765	0.240747
C57	C	1.265876	-0.407561	0.138057
N58	N	1.162096	-0.430074	0.139008
