data_functionalizedCrystal
_audit_creation_method	'MofGen! by Chris Wilmer'
_symmetry_space_group_name_H-M	'P1'
_symmetry_Int_Tables_number	1
_symmetry_cell_setting	triclinic
loop_
_symmetry_equiv_pos_as_xyz
  x,y,z
_cell_length_a	15.021413
_cell_length_b	17.699083
_cell_length_c	17.699083
_cell_angle_alpha	96.716985
_cell_angle_beta	90.009441
_cell_angle_gamma	90.001011
loop_
_atom_site_label
_atom_site_type_symbol
_atom_site_fract_x
_atom_site_fract_y
_atom_site_fract_z
O1	O	0.073909	-1.004076	0.095715
O2	O	0.573909	-0.504076	0.595715
O3	O	0.073938	-0.783697	0.108168
O4	O	0.573938	-0.283697	0.608168
O5	O	0.073915	-0.900113	-0.008248
O6	O	0.573915	-0.400113	0.491752
O7	O	0.073932	-0.887660	0.212131
O8	O	0.573932	-0.387660	0.712131
O9	O	-0.074149	-0.900103	-0.008260
O10	O	0.425851	-0.400103	0.491740
O11	O	-0.074126	-0.783687	0.108156
O12	O	0.425874	-0.283687	0.608156
O13	O	-0.074155	-1.004066	0.095703
O14	O	0.425845	-0.504066	0.595703
Zn15	Zn	-0.097649	-0.893875	0.101928
Zn16	Zn	0.402351	-0.393875	0.601928
Zn17	Zn	0.097432	-0.893888	0.101943
Zn18	Zn	0.597432	-0.393888	0.601943
O19	O	-0.074132	-0.887650	0.212119
O20	O	0.425868	-0.387650	0.712119
C21	C	-0.000090	-0.755495	0.107716
C22	C	0.499910	-0.255495	0.607716
C23	C	-0.000079	-0.671477	0.106377
C24	C	0.499921	-0.171477	0.606377
N25	N	-0.230786	-0.893871	0.101917
N26	N	0.269214	-0.393871	0.601917
C27	C	-0.000117	-0.899662	-0.036451
C28	C	0.499883	-0.399662	0.463549
C29	C	-0.000117	-0.898323	-0.120469
C30	C	0.499883	-0.398323	0.379531
C31	C	-0.529789	-0.947300	0.047660
C32	C	-0.029789	-0.447300	0.547660
C33	C	-0.470419	-0.962477	0.115815
C34	C	0.029581	-0.462477	0.615815
C35	C	-0.587823	-0.893889	0.101940
C36	C	-0.087823	-0.393889	0.601940
C37	C	-0.470451	-0.878739	0.033775
C38	C	0.029549	-0.378739	0.533775
C39	C	-0.412399	-0.893882	0.101924
C40	C	0.087601	-0.393882	0.601924
C41	C	-0.529760	-0.909101	0.170129
C42	C	-0.029760	-0.409101	0.670129
C43	C	-0.529798	-0.825332	0.088044
C44	C	-0.029798	-0.325332	0.588044
C45	C	-0.470455	-0.840480	0.156249
C46	C	0.029545	-0.340480	0.656249
C47	C	-0.688881	-0.893895	0.101947
C48	C	-0.188881	-0.393895	0.601947
C49	C	-0.311344	-0.893876	0.101925
C50	C	0.188656	-0.393876	0.601925
N51	N	0.230570	-0.893898	0.101949
N52	N	0.730570	-0.393898	0.601949
C53	C	-0.000125	-1.032268	0.096156
C54	C	0.499875	-0.532268	0.596156
C55	C	-0.000130	-1.116286	0.097494
C56	C	0.499870	-0.616286	0.597494
C57	C	-0.000074	-0.622856	0.174710
C58	C	0.499926	-0.122856	0.674710
C59	C	-0.000086	-0.543913	0.173448
C60	C	0.499914	-0.043913	0.673448
C61	C	-0.000096	-0.513592	0.103852
C62	C	0.499904	-0.013592	0.603852
C63	C	-0.000104	-0.562219	0.035513
C64	C	0.499896	-0.062219	0.535513
C65	C	-0.000098	-0.641161	0.036776
C66	C	0.499902	-0.141161	0.536776
C67	C	-0.000126	-0.243856	0.030418
C68	C	0.499874	0.256144	0.530418
C69	C	-0.000129	-0.164908	0.029160
C70	C	0.499871	0.335092	0.529160
C71	C	-0.000113	-0.146608	0.167090
C72	C	0.499887	0.353392	0.667090
C73	C	-0.000108	-0.225550	0.168353
C74	C	0.499892	0.274450	0.668353
C75	C	-0.000120	-0.274170	0.100015
C76	C	0.499880	0.225830	0.600015
C77	C	-0.000110	-0.359769	0.101384
C78	C	0.499890	0.140231	0.601384
C79	C	-0.000100	-0.427995	0.102481
C80	C	0.499900	0.072005	0.602481
C81	C	-0.000128	-0.966656	-0.169090
C82	C	0.499872	-0.466656	0.330910
C83	C	-0.000120	-0.965394	-0.248033
C84	C	0.499880	-0.465394	0.251967
C85	C	-0.000108	-0.895798	-0.278354
C86	C	0.499892	-0.395798	0.221646
C87	C	-0.000095	-0.827459	-0.229727
C88	C	0.499905	-0.327459	0.270273
C89	C	-0.000096	-0.828722	-0.150785
C90	C	0.499904	-0.328722	0.349215
C91	C	-0.000087	-0.822364	-0.548090
C92	C	0.499913	-0.322364	-0.048090
C93	C	-0.000088	-0.821106	-0.627038
C94	C	0.499912	-0.321106	-0.127038
C95	C	-0.000110	-0.959036	-0.645338
C96	C	0.499890	-0.459036	-0.145338
C97	C	-0.000112	-0.960299	-0.566396
C98	C	0.499888	-0.460299	-0.066396
C99	C	-0.000094	-0.891961	-0.517776
C100	C	0.499906	-0.391961	-0.017776
C101	C	-0.000101	-0.893330	-0.432177
C102	C	0.499899	-0.393330	0.067823
C103	C	-0.000107	-0.894427	-0.363951
C104	C	0.499893	-0.394427	0.136049
C105	C	-0.000098	-0.888102	0.240322
C106	C	0.499902	-0.388102	0.740322
C107	C	-0.000092	-0.889440	0.324340
C108	C	0.499908	-0.389440	0.824340
H109	H	-0.555839	-0.992501	0.001815
H110	H	-0.055839	-0.492501	0.501815
H111	H	-0.444398	-0.865927	-0.023865
H112	H	0.055602	-0.365927	0.476135
H113	H	-0.000079	-0.770792	-0.254420
H114	H	0.499921	-0.270792	0.245580
H115	H	-0.000130	-1.021038	-0.287618
H116	H	0.499870	-0.521038	0.212382
H117	H	-0.444336	-1.020452	0.127568
H118	H	0.055664	-0.520452	0.627568
H119	H	-0.555703	-0.921975	0.227782
H120	H	-0.055703	-0.421975	0.727782
H121	H	-0.000080	-0.764429	-0.651721
H122	H	0.499920	-0.264429	-0.151721
H123	H	-0.000102	-0.680748	-0.018868
H124	H	0.499898	-0.180748	0.481132
H125	H	-0.000143	-1.023330	-0.144409
H126	H	0.499857	-0.523330	0.355591
H127	H	-0.000080	-0.504328	0.229092
H128	H	0.499920	-0.004328	0.729092
H129	H	-0.000065	-0.647537	0.231384
H130	H	0.499935	-0.147537	0.731384
H131	H	-0.000095	-0.250232	0.225025
H132	H	0.499905	0.249768	0.725025
H133	H	-0.555900	-0.767376	0.076270
H134	H	-0.055900	-0.267376	0.576270
H135	H	-0.000120	-1.014680	-0.684934
H136	H	0.499880	-0.514680	-0.184934
H137	H	-0.000072	-0.766718	-0.508512
H138	H	0.499928	-0.266718	-0.008512
H139	H	-0.000137	-0.283434	-0.025228
H140	H	0.499863	0.216566	0.474772
H141	H	-0.000126	-1.016971	-0.541714
H142	H	0.499874	-0.516971	-0.041714
H143	H	-0.000088	-0.773078	-0.111198
H144	H	0.499912	-0.273078	0.388802
H145	H	-0.444568	-0.795307	0.202194
H146	H	0.055432	-0.295307	0.702194
H147	H	-0.000108	-0.107012	0.222734
H148	H	0.499892	0.392988	0.722734
H149	H	-0.000138	-0.140225	-0.027517
H150	H	0.499862	0.359775	0.472483
H151	H	-0.000125	-0.537526	-0.021154
H152	H	0.499875	-0.037526	0.478846
