data_functionalizedCrystal
_audit_creation_method	'MofGen! by Chris Wilmer'
_symmetry_space_group_name_H-M	'P1'
_symmetry_Int_Tables_number	1
_symmetry_cell_setting	triclinic
loop_
_symmetry_equiv_pos_as_xyz
  x,y,z
_cell_length_a	17.000383
_cell_length_b	15.500227
_cell_length_c	15.995350
_cell_angle_alpha	87.169609
_cell_angle_beta	79.546339
_cell_angle_gamma	92.622316
loop_
_atom_site_label
_atom_site_type_symbol
_atom_site_fract_x
_atom_site_fract_y
_atom_site_fract_z
O1	O	1.059806	0.072003	0.026019
O2	O	1.559806	0.572003	0.526019
O3	O	0.828073	0.071990	0.056406
O4	O	1.328073	0.571990	0.556406
O5	O	0.950274	0.071996	-0.081142
O6	O	1.450274	0.571996	0.418858
O7	O	0.937605	0.071997	0.163566
O8	O	1.437605	0.571997	0.663566
O9	O	0.942858	-0.071893	-0.072826
O10	O	1.442858	0.428107	0.427174
O11	O	0.820657	-0.071899	0.064722
O12	O	1.320657	0.428101	0.564722
O13	O	1.052390	-0.071886	0.034335
O14	O	1.552390	0.428114	0.534335
Cu15	Cu	0.935847	-0.085031	0.050288
Cu16	Cu	1.435847	0.414969	0.550288
Cu17	Cu	0.944616	0.085135	0.040453
Cu18	Cu	1.444616	0.585135	0.540453
O19	O	0.930189	-0.071892	0.171882
O20	O	1.430189	0.428108	0.671882
C21	C	0.794711	0.000044	0.062196
C22	C	1.294711	0.500044	0.562196
C23	C	0.706353	0.000039	0.067049
C24	C	1.206353	0.500039	0.567049
C25	C	0.206137	0.000072	0.098382
C26	C	0.706137	0.500072	0.598382
C27	C	0.289160	0.000071	0.093816
C28	C	0.789160	0.500071	0.593816
C29	C	0.340155	0.000064	0.014558
C30	C	0.840155	0.500064	0.514558
C31	C	0.308123	0.000067	-0.060138
C32	C	0.808123	0.500067	0.439862
C33	C	0.225102	0.000074	-0.055572
C34	C	0.725102	0.500074	0.444428
C35	C	0.591300	0.000049	-0.003081
C36	C	1.091300	0.500049	0.496919
C37	C	0.674326	0.000039	-0.007642
C38	C	1.174326	0.500039	0.492358
C39	C	0.655358	0.000045	0.146313
C40	C	1.155358	0.500045	0.646313
C41	C	0.572335	0.000047	0.150872
C42	C	1.072335	0.500047	0.650872
C43	C	0.540311	0.000054	0.076176
C44	C	1.040311	0.500054	0.576176
C45	C	0.425017	0.000061	0.009889
C46	C	0.925017	0.500061	0.509889
C47	C	0.455450	0.000064	0.080845
C48	C	0.955450	0.500064	0.580845
N49	N	0.929684	-0.204716	0.057204
N50	N	1.429684	0.295284	0.557204
C51	C	0.981483	-0.249990	-0.001061
C52	C	1.481483	0.250010	0.498939
C53	C	0.976830	-0.340563	0.004177
C54	C	1.476830	0.159437	0.504177
C55	C	0.920381	-0.385861	0.067684
C56	C	1.420381	0.114139	0.567684
C57	C	0.868577	-0.340580	0.125952
C58	C	1.368577	0.159420	0.625952
C59	C	0.873227	-0.250009	0.120710
C60	C	1.373227	0.249991	0.620710
C61	C	0.903630	-0.659328	0.086555
C62	C	1.403630	-0.159328	0.586555
C63	C	0.898986	-0.749906	0.091794
C64	C	1.398986	-0.249906	0.591794
C65	C	1.007238	-0.749883	-0.029982
C66	C	1.507238	-0.249883	0.470018
C67	C	1.011887	-0.659310	-0.035216
C68	C	1.511887	-0.159310	0.464784
C69	C	0.960080	-0.614037	0.023049
C70	C	1.460080	-0.114037	0.523049
C71	C	0.915625	-0.478441	0.073041
C72	C	1.415625	0.021559	0.573041
C73	C	0.964832	-0.521459	0.017688
C74	C	1.464832	-0.021459	0.517688
C75	C	1.085752	0.000061	0.028544
C76	C	1.585752	0.500061	0.528544
C77	C	1.174111	0.000072	0.023691
C78	C	1.674111	0.500072	0.523691
C79	C	0.946042	0.000053	-0.108140
C80	C	1.446042	0.500053	0.391860
C81	C	0.944472	0.000058	-0.200975
C82	C	1.444472	0.500058	0.299025
N83	N	0.950785	0.204820	0.033529
N84	N	1.450785	0.704820	0.533529
C85	C	0.938833	0.000055	-0.538307
C86	C	1.438833	0.500055	-0.038307
C87	C	0.851820	0.000373	-0.484485
C88	C	1.351820	0.500373	0.015515
C89	C	0.853374	0.000048	-0.387892
C90	C	1.353374	0.500048	0.112108
C91	C	0.941630	0.000057	-0.370953
C92	C	1.441630	0.500057	0.129047
C93	C	0.980322	-0.082107	-0.410441
C94	C	1.480322	0.417893	0.089559
C95	C	0.978132	-0.082176	-0.506912
C96	C	1.478132	0.417824	-0.006912
C97	C	0.988362	0.081453	-0.516860
C98	C	1.488362	0.581453	-0.016860
C99	C	0.988398	0.082539	-0.419976
C100	C	1.488398	0.582539	0.080024
C101	C	0.943216	0.000055	-0.276372
C102	C	1.443216	0.500055	0.223628
C103	C	0.937250	0.000050	-0.632888
C104	C	1.437250	0.500050	-0.132888
C105	C	0.934421	0.000053	0.198880
C106	C	1.434421	0.500053	0.698880
C107	C	0.935991	0.000053	0.291715
C108	C	1.435991	0.500053	0.791715
H109	H	0.565236	0.000052	-0.063904
H110	H	1.065236	0.500052	0.436096
H111	H	0.530820	0.000055	0.215412
H112	H	1.030820	0.500055	0.715412
F113	F	0.362397	0.000063	-0.144491
F114	F	0.862397	0.500063	0.355509
F115	F	0.191017	0.000074	-0.135068
F116	F	0.691017	0.500074	0.364932
F117	F	0.804997	-0.077070	-0.343740
F118	F	1.304997	0.422930	0.156260
H119	H	0.869665	-0.515329	0.124752
H120	H	1.369665	-0.015329	0.624752
H121	H	0.963118	0.143728	-0.538904
H122	H	1.463118	0.643728	-0.038904
H123	H	0.315232	0.000079	0.154637
H124	H	0.815232	0.500079	0.654637
F125	F	0.689447	0.000042	0.225804
F126	F	1.189447	0.500042	0.725804
H127	H	0.466546	0.000052	-0.054642
H128	H	0.966546	0.500052	0.445358
H129	H	0.960146	0.143321	-0.393930
H130	H	1.460146	0.643321	0.106070
F131	F	0.810320	0.077388	-0.509809
F132	F	1.310320	0.577388	-0.009809
F133	F	0.401177	0.000076	0.165194
F134	F	0.901177	0.500076	0.665194
F135	F	1.072855	0.089037	-0.406461
F136	F	1.572855	0.589037	0.093539
F137	F	1.072269	0.082184	-0.564590
F138	F	1.572269	0.582184	-0.064590
F139	F	0.848496	-0.611153	0.148566
F140	F	1.348496	-0.111153	0.648566
F141	F	0.728597	0.000033	-0.092002
F142	F	1.228597	0.500033	0.407998
H143	H	1.019008	-0.377425	-0.043268
H144	H	1.519008	0.122575	0.456732
F145	F	0.151872	0.000072	0.182740
F146	F	0.651872	0.500072	0.682740
F147	F	0.933078	-0.162460	-0.523184
F148	F	1.433078	0.337540	-0.023184
F149	F	1.062370	-0.798071	-0.091990
F150	F	1.562370	-0.298071	0.408010
F151	F	1.041568	-0.201790	-0.068651
F152	F	1.541568	0.298210	0.431349
H153	H	1.057852	-0.622431	-0.086928
H154	H	1.557852	-0.122431	0.413072
H155	H	0.853016	-0.786783	0.143513
H156	H	1.353016	-0.286783	0.643513
H157	H	0.822611	-0.377466	0.177659
H158	H	1.322611	0.122534	0.677659
F159	F	0.818093	-0.201826	0.182722
F160	F	1.318093	0.298174	0.682722
F161	F	1.024904	-0.473249	-0.049902
F162	F	1.524904	0.026751	0.450098
H163	H	0.822667	0.058946	-0.360390
H164	H	1.322667	0.558946	0.139610
H165	H	0.814170	-0.058224	-0.498143
H166	H	1.314170	0.441776	0.001857
F167	F	1.061394	-0.087050	-0.554931
F168	F	1.561394	0.412950	-0.054931
F169	F	1.064866	-0.086097	-0.397988
F170	F	1.564866	0.413903	0.102012
H171	H	0.947356	-0.143256	-0.376331
H172	H	1.447356	0.356744	0.123669
