data_functionalizedCrystal
_audit_creation_method	'MofGen! by Chris Wilmer'
_symmetry_space_group_name_H-M	'P1'
_symmetry_Int_Tables_number	1
_symmetry_cell_setting	triclinic
loop_
_symmetry_equiv_pos_as_xyz
  x,y,z
_cell_length_a	15.995343
_cell_length_b	23.532407
_cell_length_c	22.010155
_cell_angle_alpha	89.993714
_cell_angle_beta	89.997518
_cell_angle_gamma	83.168931
loop_
_atom_site_label
_atom_site_type_symbol
_atom_site_fract_x
_atom_site_fract_y
_atom_site_fract_z
O1	O	1.110378	0.073374	0.050471
O2	O	1.610378	0.573374	0.550471
O3	O	0.866527	0.082443	0.050486
O4	O	1.366527	0.582443	0.550486
O5	O	0.995806	-0.004995	0.050467
O6	O	1.495806	0.495005	0.550467
O7	O	0.981099	0.160812	0.050490
O8	O	1.481099	0.660812	0.550490
O9	O	0.995797	-0.004972	-0.050584
O10	O	1.495797	0.495028	0.449416
O11	O	0.866518	0.082466	-0.050564
O12	O	1.366518	0.582466	0.449436
O13	O	1.110369	0.073397	-0.050580
O14	O	1.610369	0.573397	0.449420
Cu15	Cu	0.988442	0.077933	-0.059799
Cu16	Cu	1.488442	0.577933	0.440201
Cu17	Cu	0.988453	0.077906	0.059705
Cu18	Cu	1.488453	0.577906	0.559705
O19	O	0.981090	0.160835	-0.050561
O20	O	1.481090	0.660835	0.449439
C21	C	0.835330	0.082080	-0.000037
C22	C	1.335330	0.582080	0.499963
C23	C	0.742389	0.080959	-0.000032
C24	C	1.242389	0.580959	0.499968
C25	C	0.572219	0.078923	-0.000040
C26	C	1.072219	0.578923	0.499960
C27	C	0.549399	0.015806	-0.000049
C28	C	1.049399	0.515806	0.499951
C29	C	0.452731	0.014618	-0.000282
C30	C	0.952731	0.514618	0.499718
C31	C	0.404676	0.076917	-0.000048
C32	C	0.904676	0.576917	0.499952
C33	C	0.433499	0.108667	-0.057634
C34	C	0.933499	0.608667	0.442366
C35	C	0.530285	0.109415	-0.057678
C36	C	1.030285	0.609415	0.442322
C37	C	0.530198	0.110313	0.057239
C38	C	1.030198	0.610313	0.557239
C39	C	0.433723	0.107983	0.057992
C40	C	0.933723	0.607983	0.557992
C41	C	0.309987	0.075787	-0.000054
C42	C	0.809987	0.575787	0.499946
C43	C	0.666908	0.080055	-0.000038
C44	C	1.166908	0.580055	0.499962
C45	C	0.995427	-0.026201	-0.000060
C46	C	1.495427	0.473799	0.499940
C47	C	0.994301	-0.089422	-0.000065
C48	C	1.494301	0.410578	0.499935
C49	C	1.063743	-0.488260	-0.000036
C50	C	1.563743	0.011740	0.499964
C51	C	1.062697	-0.547664	-0.000031
C52	C	1.562697	-0.047664	0.499969
O53	O	1.127071	-0.584162	-0.000013
O54	O	1.627071	-0.084162	0.499987
N55	N	0.985841	-0.570584	-0.000027
N56	N	1.485841	-0.070584	0.499973
C57	C	0.910025	-0.534097	-0.000021
C58	C	1.410025	-0.034097	0.499979
O59	O	0.844557	-0.559047	-0.000016
O60	O	1.344557	-0.059047	0.499984
C61	C	0.911072	-0.474694	-0.000021
C62	C	1.411072	0.025306	0.499979
C63	C	0.987934	-0.451777	-0.000032
C64	C	1.487934	0.048223	0.499968
C65	C	1.140598	-0.465342	-0.000046
C66	C	1.640598	0.034658	0.499954
C67	C	1.141644	-0.405942	-0.000051
C68	C	1.641644	0.094058	0.499949
C69	C	1.065834	-0.369459	-0.000047
C70	C	1.565834	0.130541	0.499953
C71	C	0.988979	-0.392377	-0.000037
C72	C	1.488979	0.107623	0.499963
C73	C	0.835258	-0.438208	-0.000011
C74	C	1.335258	0.061792	0.499989
C75	C	0.836311	-0.378801	-0.000011
C76	C	1.336311	0.121199	0.499989
C77	C	0.913173	-0.355884	-0.000021
C78	C	1.413173	0.144116	0.499979
C79	C	0.914215	-0.296494	-0.000039
C80	C	1.414215	0.203506	0.499961
N81	N	0.991072	-0.273574	-0.000044
N82	N	1.491072	0.226426	0.499956
C83	C	1.066881	-0.310056	-0.000048
C84	C	1.566881	0.189944	0.499952
C85	C	0.907833	-0.658848	-0.000019
C86	C	1.407833	-0.158848	0.499981
C87	C	0.906785	-0.718250	-0.000023
C88	C	1.406785	-0.218250	0.499977
C89	C	1.059457	-0.731813	-0.000032
C90	C	1.559457	-0.231813	0.499968
C91	C	1.060504	-0.672410	-0.000033
C92	C	1.560504	-0.172410	0.499967
C93	C	0.984689	-0.635928	-0.000023
C94	C	1.484689	-0.135928	0.499977
C95	C	1.069071	-0.185311	-0.000060
C96	C	1.569071	0.314689	0.499940
C97	C	1.070110	-0.125905	-0.000069
C98	C	1.570110	0.374095	0.499931
C99	C	0.917439	-0.112348	-0.000056
C100	C	1.417439	0.387652	0.499944
C101	C	0.916399	-0.171748	-0.000051
C102	C	1.416399	0.328252	0.499949
C103	C	0.992222	-0.208229	-0.000051
C104	C	1.492222	0.291771	0.499949
O105	O	0.849875	-0.259961	-0.000055
O106	O	1.349875	0.240039	0.499945
O107	O	1.132339	-0.285098	-0.000044
O108	O	1.632339	0.214902	0.499956
C109	C	1.141565	0.073759	-0.000055
C110	C	1.641565	0.573759	0.499945
C111	C	1.234507	0.074881	-0.000056
C112	C	1.734507	0.574881	0.499944
C113	C	0.981469	0.182041	-0.000032
C114	C	1.481469	0.682041	0.499968
C115	C	0.982595	0.245262	-0.000024
C116	C	1.482595	0.745262	0.499976
N117	N	0.988441	0.077952	-0.143851
N118	N	1.488441	0.577952	0.356149
C119	C	0.931177	0.116625	-0.436455
C120	C	1.431177	0.616625	0.063545
C121	C	0.931175	0.116630	-0.372847
C122	C	1.431175	0.616630	0.127153
O123	O	0.882462	0.149534	-0.339948
O124	O	1.382462	0.649534	0.160052
N125	N	0.988435	0.077931	-0.341035
N126	N	1.488435	0.577931	0.158965
C127	C	1.045695	0.039220	-0.372835
C128	C	1.545695	0.539220	0.127165
O129	O	1.094398	0.006304	-0.339936
O130	O	1.594398	0.506304	0.160064
C131	C	1.045692	0.039213	-0.436441
C132	C	1.545692	0.539213	0.063559
C133	C	0.988434	0.077918	-0.468250
C134	C	1.488434	0.577918	0.031750
C135	C	0.873923	0.155326	-0.468263
C136	C	1.373923	0.655326	0.031737
C137	C	0.873927	0.155322	-0.531866
C138	C	1.373927	0.655322	-0.031866
C139	C	0.931184	0.116615	-0.563661
C140	C	1.431184	0.616615	-0.063661
C141	C	0.988438	0.077914	-0.531853
C142	C	1.488438	0.577914	-0.031853
C143	C	1.102947	0.000500	-0.468239
C144	C	1.602947	0.500500	0.031761
C145	C	1.102940	0.000495	-0.531850
C146	C	1.602940	0.500495	-0.031850
C147	C	1.045682	0.039201	-0.563658
C148	C	1.545682	0.539201	-0.063658
C149	C	1.045698	0.039202	-0.627251
C150	C	1.545698	0.539202	-0.127251
N151	N	0.988439	0.077902	-0.659062
N152	N	1.488439	0.577902	-0.159062
C153	C	0.931181	0.116608	-0.627268
C154	C	1.431181	0.616608	-0.127268
C155	C	1.045694	0.039238	-0.239257
C156	C	1.545694	0.539238	0.260743
C157	C	1.045702	0.039247	-0.175652
C158	C	1.545702	0.539247	0.324348
C159	C	0.931181	0.116657	-0.175668
C160	C	1.431181	0.616657	0.324332
C161	C	0.931178	0.116649	-0.239275
C162	C	1.431178	0.616649	0.260725
C163	C	0.988435	0.077937	-0.271069
C164	C	1.488435	0.577937	0.228931
C165	C	0.931193	0.116596	-0.760839
C166	C	1.431193	0.616596	-0.260839
C167	C	0.931204	0.116589	-0.824448
C168	C	1.431204	0.616589	-0.324448
C169	C	1.045722	0.039179	-0.824425
C170	C	1.545722	0.539179	-0.324425
C171	C	1.045714	0.039187	-0.760822
C172	C	1.545714	0.539187	-0.260822
C173	C	0.988443	0.077898	-0.729030
C174	C	1.488443	0.577898	-0.229030
O175	O	1.094384	0.006314	-0.660190
O176	O	1.594384	0.506314	-0.160190
O177	O	0.882479	0.149514	-0.660174
O178	O	1.382479	0.649514	-0.160174
N179	N	0.988461	0.077883	0.143757
N180	N	1.488461	0.577883	0.643757
H181	H	0.401271	0.154517	-0.059607
H182	H	0.901271	0.654517	0.440393
O183	O	0.823886	-0.742966	-0.000020
O184	O	1.323886	-0.242966	0.499980
H185	H	0.771351	-0.707612	-0.000014
H186	H	1.271351	-0.207612	0.499986
H187	H	0.772669	-0.456856	0.000001
H188	H	1.272669	0.043144	0.500001
O189	O	0.588045	-0.016061	-0.054678
O190	O	1.088045	0.483939	0.445322
H191	H	0.631589	-0.053545	-0.039273
H192	H	1.131589	0.446455	0.460727
H193	H	1.130814	-0.215008	-0.000058
H194	H	1.630814	0.284992	0.499942
O195	O	0.586819	-0.016614	0.054628
O196	O	1.086819	0.483386	0.554628
H197	H	0.561673	0.005081	0.096721
H198	H	1.061673	0.505081	0.596721
H199	H	1.132703	-0.107250	-0.000079
H200	H	1.632703	0.392750	0.499921
H201	H	0.853812	-0.190408	-0.000060
H202	H	1.353812	0.309592	0.499940
O203	O	0.548232	0.171855	0.057978
O204	O	1.048232	0.671855	0.557978
H205	H	0.518346	0.193728	0.098538
H206	H	1.018346	0.693728	0.598538
O207	O	0.428562	-0.018113	-0.055294
O208	O	0.928562	0.481887	0.444706
H209	H	0.485953	-0.033150	-0.081838
H210	H	0.985953	0.466850	0.418162
H211	H	1.204232	-0.387289	-0.000058
H212	H	1.704232	0.112711	0.499942
H213	H	1.092327	0.007715	-0.265140
H214	H	1.592327	0.507715	0.234860
H215	H	0.884553	0.148166	-0.265170
H216	H	1.384553	0.648166	0.234830
H217	H	0.557247	0.087703	-0.100894
H218	H	1.057247	0.587703	0.399106
H219	H	0.827300	0.186838	-0.557761
H220	H	1.327300	0.686838	-0.057761
O221	O	1.143407	-0.647699	-0.000035
O222	O	1.643407	-0.147699	0.499965
H223	H	1.147545	-0.620958	-0.041222
H224	H	1.647545	-0.120958	0.458778
O225	O	0.407148	0.079831	-0.114629
O226	O	0.907148	0.579831	0.385371
H227	H	0.373531	0.042894	-0.102088
H228	H	0.873531	0.542894	0.397912
O229	O	1.141228	-0.771167	-0.000030
O230	O	1.641228	-0.271167	0.499970
H231	H	1.127581	-0.816322	-0.000021
H232	H	1.627581	-0.316322	0.499979
O233	O	0.826056	-0.619499	-0.000025
O234	O	1.326056	-0.119499	0.499975
H235	H	0.772444	-0.645422	-0.000030
H236	H	1.272444	-0.145422	0.499970
O237	O	0.754538	-0.339451	-0.000008
O238	O	1.254538	0.160549	0.499992
H239	H	0.700922	-0.365371	-0.000007
H240	H	1.200922	0.134629	0.499993
H241	H	1.092335	0.007736	-0.149758
H242	H	1.592335	0.507736	0.350242
H243	H	1.202335	-0.495041	-0.000047
H244	H	1.702335	0.004959	0.499953
H245	H	0.400388	0.153439	0.061654
H246	H	0.900388	0.653439	0.561654
H247	H	0.544473	0.155701	-0.060134
H248	H	1.044473	0.655701	0.439866
H249	H	1.149571	-0.031018	-0.442350
H250	H	1.649571	0.468982	0.057650
O251	O	1.164704	-0.041254	-0.566143
O252	O	1.664704	0.458746	-0.066143
H253	H	1.204521	-0.068159	-0.533335
H254	H	1.704521	0.431841	-0.033335
H255	H	0.433922	-0.010234	0.040989
H256	H	0.933922	0.489766	0.540989
O257	O	0.835674	-0.072994	-0.000051
O258	O	1.335674	0.427006	0.499949
H259	H	0.849321	-0.027839	-0.000050
H260	H	1.349321	0.472161	0.499950
O261	O	0.869463	0.158349	-0.858757
O262	O	1.369463	0.658349	-0.358757
H263	H	0.829651	0.185265	-0.825958
H264	H	1.329651	0.685265	-0.325958
O265	O	0.869431	0.158351	-0.726553
O266	O	1.369431	0.658351	-0.226553
H267	H	0.829630	0.185263	-0.759366
H268	H	1.329630	0.685263	-0.259366
H269	H	0.827293	0.186846	-0.442381
H270	H	1.327293	0.686846	0.057619
O271	O	1.107472	-0.002568	-0.858729
O272	O	1.607472	0.497432	-0.358729
H273	H	1.172683	0.004714	-0.846534
H274	H	1.672683	0.504714	-0.346534
H275	H	0.884557	0.148173	-0.149770
H276	H	1.384557	0.648173	0.350230
O277	O	1.107454	-0.002559	-0.726498
O278	O	1.607454	0.497441	-0.226498
H279	H	1.172673	0.004708	-0.738696
H280	H	1.672673	0.504708	-0.238696
O281	O	0.567852	0.083919	0.115078
O282	O	1.067852	0.583919	0.615078
H283	H	0.636419	0.087468	0.115923
H284	H	1.136419	0.587468	0.615923
O285	O	0.409394	0.077367	0.114430
O286	O	0.909394	0.577367	0.614430
H287	H	0.377220	0.039969	0.101199
H288	H	0.877220	0.539969	0.601199
