data_functionalizedCrystal
_audit_creation_method	'MofGen! by Chris Wilmer'
_symmetry_space_group_name_H-M	'P1'
_symmetry_Int_Tables_number	1
_symmetry_cell_setting	triclinic
loop_
_symmetry_equiv_pos_as_xyz
  x,y,z
_cell_length_a	19.188930
_cell_length_b	18.266242
_cell_length_c	19.188930
_cell_angle_alpha	89.988525
_cell_angle_beta	96.855221
_cell_angle_gamma	90.022918
loop_
_atom_site_label
_atom_site_type_symbol
_atom_site_fract_x
_atom_site_fract_y
_atom_site_fract_z
O1	O	0.926149	0.061124	-0.087169
O2	O	0.722838	0.061075	-0.098903
O3	O	0.830361	0.061087	0.008620
O4	O	0.818627	0.061113	-0.194691
O5	O	0.830343	-0.060675	0.008625
O6	O	0.722820	-0.060687	-0.098897
O7	O	0.926131	-0.060638	-0.087163
Zn8	Zn	0.824473	-0.079994	-0.093029
Zn9	Zn	0.824497	0.080432	-0.093037
O10	O	0.818608	-0.060649	-0.194686
C11	C	0.696818	0.000188	-0.098520
C12	C	0.619313	0.000169	-0.097380
N13	N	0.824461	-0.189481	-0.093024
C14	C	0.574389	0.000188	-0.160470
C15	C	0.501566	0.000196	-0.159399
C16	C	0.473669	0.000199	-0.095233
C17	C	0.518603	0.000175	-0.032133
C18	C	0.591425	0.000160	-0.033207
N19	N	0.365695	0.041663	-0.046188
N20	N	0.296516	0.041679	-0.045172
C21	C	0.254260	0.000243	-0.091994
N22	N	0.283795	-0.041200	-0.139881
N23	N	0.352980	-0.041213	-0.140899
C24	C	0.394707	0.000215	-0.094062
C25	C	0.130372	0.000270	-0.153928
C26	C	0.057547	0.000274	-0.152853
C27	C	0.074586	0.000261	-0.025586
C28	C	0.147409	0.000250	-0.026662
C29	C	0.175298	0.000258	-0.090835
C30	C	0.872088	-0.227785	-0.045436
C31	C	0.872092	-0.304430	-0.045433
C32	C	0.824477	-0.342768	-0.093030
C33	C	0.776841	-0.304455	-0.140621
C34	C	0.776834	-0.227812	-0.140618
N35	N	0.815401	-0.463094	-0.154837
N36	N	0.815413	-0.535902	-0.154838
C37	C	0.824496	-0.573691	-0.093040
N38	N	0.833582	-0.535920	-0.031239
N39	N	0.833574	-0.463106	-0.031240
C40	C	0.824480	-0.425875	-0.093038
C41	C	0.872131	-0.695101	-0.045444
C42	C	0.872130	-0.771748	-0.045440
C43	C	0.776882	-0.771772	-0.140634
C44	C	0.776879	-0.695127	-0.140632
C45	C	0.824507	-0.656796	-0.093038
C46	C	0.952151	0.000252	-0.087546
C47	C	1.029656	0.000276	-0.088687
C48	C	0.829972	0.000204	0.034634
C49	C	0.828831	0.000197	0.112138
N50	N	0.824513	0.189919	-0.093037
C51	C	0.818997	0.000236	-0.220700
C52	C	0.820138	0.000247	-0.298204
C53	C	0.891922	0.000209	0.157062
C54	C	0.890850	0.000220	0.229886
C55	C	0.826684	0.000206	0.257782
C56	C	0.763585	0.000198	0.212849
C57	C	0.764658	0.000194	0.140026
N58	N	0.777631	-0.041244	0.365789
N59	N	0.776615	-0.041242	0.434968
C60	C	0.823446	0.000220	0.477191
N61	N	0.871341	0.041669	0.447624
N62	N	0.872359	0.041664	0.378439
C63	C	0.825513	0.000210	0.336745
C64	C	0.885379	0.000245	0.601079
C65	C	0.884305	0.000261	0.673904
C66	C	0.757038	0.000231	0.656865
C67	C	0.758114	0.000222	0.584042
C68	C	0.822287	0.000226	0.556154
H69	H	0.597091	0.000196	-0.212725
O70	O	0.730666	-0.190520	-0.186881
C71	C	0.767922	-0.146175	-0.229875
H72	H	0.822639	-0.134673	-0.201931
H73	H	0.772507	-0.175700	-0.281466
C74	C	0.661305	-0.087513	-0.279219
C75	C	0.728508	-0.073381	-0.244895
H76	H	0.636992	-0.042612	-0.288487
H77	H	0.636204	-0.117392	-0.250256
H78	H	0.665136	-0.112120	-0.322208
H79	H	0.724676	-0.048784	-0.201904
H80	H	0.753607	-0.043497	-0.273852
H81	H	0.495885	0.000188	0.020111
O82	O	0.947774	0.000294	0.574099
C83	C	1.003232	0.000299	0.629371
H84	H	0.983814	0.023347	0.678778
H85	H	1.022681	-0.058109	0.639749
C86	C	1.087620	0.019760	0.548303
C87	C	1.063772	0.048075	0.608984
H88	H	1.124966	0.049228	0.535727
H89	H	1.050258	0.019754	0.511065
H90	H	1.103823	-0.028913	0.556959
H91	H	1.047562	0.096743	0.600324
H92	H	1.101133	0.048090	0.646221
H93	H	0.910877	-0.335623	-0.006680
O94	O	0.696762	0.000169	0.540498
C95	C	0.639896	0.000176	0.580733
H96	H	0.657781	-0.022867	0.635146
H97	H	0.620224	0.058587	0.585844
C98	C	0.558224	-0.019290	0.477445
C99	C	0.580190	-0.047598	0.544274
H100	H	0.521393	-0.048756	0.454954
H101	H	0.596535	-0.019292	0.450337
H102	H	0.541836	0.029386	0.481713
H103	H	0.596586	-0.096268	0.540005
H104	H	0.541880	-0.047605	0.571380
H105	H	0.464982	0.000210	-0.210776
H106	H	0.935683	0.000274	0.710481
H107	H	0.051874	0.000309	0.026659
O108	O	0.952204	0.000197	0.273436
C109	C	1.009073	0.000221	0.233205
H110	H	0.991182	-0.022835	0.178801
H111	H	1.028767	0.058639	0.228070
C112	C	1.090732	-0.019204	0.336506
C113	C	1.068759	-0.047527	0.269688
H114	H	1.127551	-0.048654	0.359011
H115	H	1.052419	-0.019217	0.363611
H116	H	1.107139	0.029477	0.332218
H117	H	1.052344	-0.096203	0.273978
H118	H	1.107071	-0.047523	0.242584
H119	H	0.628003	0.000145	0.018171
O120	O	0.157352	0.000238	-0.216323
C121	C	0.102081	0.000268	-0.271781
H122	H	0.052656	-0.022778	-0.252360
H123	H	0.091746	0.058686	-0.291236
C124	C	0.183134	-0.019176	-0.356167
C125	C	0.122431	-0.047487	-0.332315
H126	H	0.195688	-0.048630	-0.393509
H127	H	0.220372	-0.019193	-0.318804
H128	H	0.174514	0.029506	-0.372375
H129	H	0.131055	-0.096164	-0.316100
H130	H	0.085195	-0.047479	-0.369677
O131	O	0.190953	0.000272	0.034689
C132	C	0.150718	0.000257	0.091556
H133	H	0.096324	0.023322	0.073666
H134	H	0.145560	-0.058159	0.111238
C135	C	0.254023	0.019667	0.173224
C136	C	0.187216	0.048002	0.151253
H137	H	0.276537	0.049115	0.210050
H138	H	0.281130	0.019675	0.134913
H139	H	0.249715	-0.029012	0.189621
H140	H	0.191525	0.096676	0.134848
H141	H	0.160110	0.048004	0.189563
O142	O	0.918373	-0.190666	0.000868
C143	C	0.960423	-0.240915	0.042860
H144	H	0.931807	-0.295566	0.043573
H145	H	1.012217	-0.249031	0.020315
C146	C	1.010191	-0.143897	0.117343
C147	C	0.975042	-0.211018	0.118224
H148	H	1.019212	-0.125454	0.163831
H149	H	0.981864	-0.110042	0.089051
H150	H	1.053349	-0.150669	0.098553
H151	H	0.931881	-0.204243	0.137006
H152	H	1.003362	-0.244871	0.146522
H153	H	0.944176	0.000214	0.134360
H154	H	0.704792	0.000222	0.679578
O155	O	0.730520	-0.341580	-0.186882
C156	C	0.688491	-0.291333	-0.228898
H157	H	0.687787	-0.236706	-0.200271
H158	H	0.710994	-0.283155	-0.280712
C159	C	0.613997	-0.388375	-0.278631
C160	C	0.613128	-0.321284	-0.243468
H161	H	0.567510	-0.406851	-0.287622
H162	H	0.642314	-0.422228	-0.250326
H163	H	0.632753	-0.381551	-0.321805
H164	H	0.594380	-0.328110	-0.200291
H165	H	0.584806	-0.287432	-0.271766
H166	H	0.020970	0.000285	-0.204232
H167	H	0.910910	-0.663892	-0.006688
O168	O	0.918466	-0.808845	0.000815
C169	C	0.960488	-0.758574	0.042830
H170	H	0.961179	-0.703933	0.014206
H171	H	0.937987	-0.750447	0.094646
C172	C	1.035003	-0.855563	0.092552
C173	C	1.035857	-0.788453	0.057393
H174	H	1.081494	-0.873994	0.101538
H175	H	1.006691	-0.889432	0.064248
H176	H	1.016249	-0.848781	0.135729
H177	H	1.054602	-0.795238	0.014214
H178	H	1.064174	-0.754586	0.085690
H179	H	0.738100	-0.663938	-0.179386
O180	O	0.730694	-0.809118	-0.186842
C181	C	0.740897	-0.884980	-0.176627
H182	H	0.796487	-0.895427	-0.150397
H183	H	0.701492	-0.906757	-0.141703
C184	C	0.661905	-0.911487	-0.280294
C185	C	0.730183	-0.924319	-0.248083
H186	H	0.655293	-0.935755	-0.324371
H187	H	0.655028	-0.860378	-0.287175
H188	H	0.629076	-0.929635	-0.251184
H189	H	0.763011	-0.906163	-0.277189
H190	H	0.737066	-0.975427	-0.241208
O191	O	0.701298	0.000280	0.240027
C192	C	0.696873	0.063351	0.281615
H193	H	0.751963	0.084386	0.299915
H194	H	0.665893	0.107502	0.249338
C195	C	0.591809	0.018352	0.323446
C196	C	0.659472	0.044185	0.345928
H197	H	0.568736	0.006532	0.363116
H198	H	0.594788	-0.024139	0.295426
H199	H	0.566002	0.055150	0.296548
H200	H	0.685281	0.007385	0.372817
H201	H	0.656497	0.086670	0.373954
H202	H	0.713281	0.000184	0.103448
