data_functionalizedCrystal
_audit_creation_method	'MofGen! by Chris Wilmer'
_symmetry_space_group_name_H-M	'P1'
_symmetry_Int_Tables_number	1
_symmetry_cell_setting	triclinic
loop_
_symmetry_equiv_pos_as_xyz
  x,y,z
_cell_length_a	21.395362
_cell_length_b	19.120786
_cell_length_c	21.395355
_cell_angle_alpha	92.459295
_cell_angle_beta	90.043940
_cell_angle_gamma	92.480156
loop_
_atom_site_label
_atom_site_type_symbol
_atom_site_fract_x
_atom_site_fract_y
_atom_site_fract_z
Zn1	Zn	0.947248	-0.279415	0.343943
Zn2	Zn	0.942691	-0.396855	0.234692
Zn3	Zn	0.842462	-0.279448	0.239143
Zn4	Zn	0.837972	-0.396870	0.339397
O5	O	0.892593	-0.338147	0.289294
O6	O	1.034322	-0.294974	0.329491
O7	O	0.929367	-0.381289	0.147605
O8	O	0.860149	-0.181153	0.256810
O9	O	1.030974	-0.381257	0.249225
O10	O	0.937135	-0.181129	0.333806
O11	O	0.855729	-0.295030	0.150874
O12	O	0.754188	-0.295044	0.252402
O13	O	0.852496	-0.381281	0.427678
O14	O	0.750889	-0.381313	0.326058
O15	O	0.932781	-0.294988	0.431018
O16	O	0.925013	-0.495148	0.244816
O17	O	0.848076	-0.495159	0.321742
C18	C	0.729804	-0.338184	0.289220
C19	C	0.660162	-0.338217	0.289202
C20	C	0.625745	-0.383197	0.327493
C21	C	0.560310	-0.383180	0.327521
C22	C	0.529294	-0.338190	0.289248
C23	C	0.563719	-0.293201	0.250955
C24	C	0.629153	-0.293215	0.250932
C25	C	0.425784	-0.332531	0.233058
C26	C	0.360352	-0.332523	0.233080
C27	C	0.327475	-0.338144	0.289319
C28	C	0.360039	-0.343789	0.345537
C29	C	0.425473	-0.343802	0.345515
C30	C	0.458343	-0.338170	0.289269
C31	C	0.222107	-0.383108	0.327643
C32	C	0.156671	-0.383086	0.327673
C33	C	0.160081	-0.293111	0.251101
C34	C	0.225516	-0.293129	0.251077
C35	C	0.256525	-0.338131	0.289347
C36	C	0.885580	-0.520639	0.282317
C37	C	0.882637	-0.598710	0.279353
C38	C	0.921307	-0.635315	0.318080
C39	C	0.918539	-0.708671	0.315297
C40	C	0.877104	-0.745420	0.273781
C41	C	0.838430	-0.708810	0.235052
C42	C	0.841195	-0.635456	0.237839
C43	C	0.866749	-0.966907	0.263361
C44	C	0.863988	-1.040267	0.260575
C45	C	0.944097	-1.040122	0.340821
C46	C	0.946861	-0.966766	0.343602
C47	C	0.908185	-0.930162	0.304875
C48	C	0.874276	-0.820402	0.270933
C49	C	0.911011	-0.855182	0.307726
C50	C	1.056018	-0.338110	0.289369
C51	C	1.125660	-0.338094	0.289400
C52	C	0.892646	-0.338133	0.452718
C53	C	0.892668	-0.338127	0.522359
C54	C	0.899651	-0.154942	0.296312
C55	C	0.902658	-0.076871	0.299303
C56	C	0.892579	-0.338110	0.126508
C57	C	0.892685	-0.337919	0.056874
C58	C	0.934471	-0.293192	0.556813
C59	C	0.934471	-0.293162	0.622249
C60	C	0.892675	-0.338079	0.653229
C61	C	0.850864	-0.383017	0.618768
C62	C	0.850861	-0.383041	0.553333
C63	C	0.885297	-0.401324	0.754484
C64	C	0.885305	-0.401302	0.819918
C65	C	0.892681	-0.338005	0.855053
C66	C	0.900064	-0.274728	0.824746
C67	C	0.900060	-0.274752	0.759311
C68	C	0.892673	-0.338058	0.724183
C69	C	0.934487	-0.293033	0.960461
C70	C	0.934483	-0.293002	1.025898
C71	C	0.850879	-0.382863	1.022416
C72	C	0.850880	-0.382888	0.956979
C73	C	0.892687	-0.337974	0.926006
H74	H	0.538462	-0.256569	0.219794
Cl75	Cl	0.798329	-0.439325	1.061356
H76	H	0.816817	-0.419631	0.525281
H77	H	0.247355	-0.419748	0.358808
Cl78	Cl	0.963095	-0.808982	0.359918
Cl79	Cl	0.998952	-0.920572	0.395796
H80	H	0.906072	-0.223186	0.853352
H81	H	0.955051	-0.605398	0.351884
H82	H	0.532283	-0.419808	0.358704
H83	H	0.650988	-0.419840	0.358656
Cl84	Cl	0.798327	-0.439384	0.913664
H85	H	0.840541	-0.850331	0.237130
H86	H	0.333843	-0.327931	0.187303
Cl87	Cl	0.672422	-0.236664	0.202792
Cl88	Cl	0.967147	-0.754685	0.363994
Cl89	Cl	0.992713	-1.086142	0.389506
H90	H	0.830244	-1.070186	0.226768
H91	H	0.968513	-0.256618	0.531598
H92	H	0.879123	-0.452855	0.725883
Cl93	Cl	0.113403	-0.439633	0.375818
Cl94	Cl	0.121096	-0.236547	0.202990
Cl95	Cl	0.467108	-0.325467	0.162350
Cl96	Cl	0.268785	-0.236581	0.202936
H97	H	0.835258	-0.937110	0.231826
Cl98	Cl	0.318716	-0.350851	0.416244
H99	H	0.879297	-0.452825	0.844589
Cl100	Cl	0.786334	-0.755010	0.182867
Cl101	Cl	0.798318	-0.439482	0.657713
H102	H	0.809705	-0.605652	0.206304
H103	H	0.968511	-0.256566	0.650307
Cl104	Cl	0.909336	-0.195209	0.721213
H105	H	0.968525	-0.256457	0.935241
H106	H	0.968523	-0.256406	1.053950
H107	H	0.451983	-0.348396	0.391290
