data_functionalizedCrystal
_audit_creation_method	'MofGen! by Chris Wilmer'
_symmetry_space_group_name_H-M	'P1'
_symmetry_Int_Tables_number	1
_symmetry_cell_setting	triclinic
loop_
_symmetry_equiv_pos_as_xyz
  x,y,z
_cell_length_a	12.594509
_cell_length_b	12.759401
_cell_length_c	12.759400
_cell_angle_alpha	89.983831
_cell_angle_beta	89.972045
_cell_angle_gamma	90.019209
loop_
_atom_site_label
_atom_site_type_symbol
_atom_site_fract_x
_atom_site_fract_y
_atom_site_fract_z
Zn1	Zn	-0.601802	-1.606249	-0.418192
Zn2	Zn	-0.101802	-1.106249	0.081808
Zn3	Zn	-0.423824	-1.606145	-0.593902
Zn4	Zn	0.076176	-1.106145	-0.093902
Zn5	Zn	-0.423837	-1.430553	-0.418242
Zn6	Zn	0.076163	-0.930553	0.081758
Zn7	Zn	-0.601761	-1.430540	-0.593834
Zn8	Zn	-0.101761	-0.930540	-0.093834
O9	O	-0.512806	-1.518372	-0.506042
O10	O	-0.012806	-1.018372	-0.006042
O11	O	-0.578205	-1.753256	-0.441508
O12	O	-0.078205	-1.253256	0.058492
O13	O	-0.274880	-1.582815	-0.570650
O14	O	0.225120	-1.082815	-0.070650
O15	O	-0.447467	-1.453908	-0.271214
O16	O	0.052533	-0.953908	0.228786
O17	O	-0.447445	-1.753180	-0.570601
O18	O	0.052555	-1.253180	-0.070601
O19	O	-0.578217	-1.582991	-0.271178
O20	O	-0.078217	-1.082991	0.228822
O21	O	-0.274890	-1.453808	-0.441593
O22	O	0.225110	-0.953808	0.058407
O23	O	-0.447428	-1.283530	-0.441527
O24	O	0.052572	-0.783530	0.058473
O25	O	-0.750712	-1.453886	-0.570485
O26	O	-0.250712	-0.953886	-0.070485
O27	O	-0.578147	-1.283520	-0.570534
O28	O	-0.078147	-0.783520	-0.070534
O29	O	-0.750742	-1.582978	-0.441442
O30	O	-0.250742	-1.082978	0.058558
O31	O	-0.447405	-1.582802	-0.740914
O32	O	0.052595	-1.082802	-0.240914
O33	O	-0.578135	-1.453785	-0.740864
O34	O	-0.078135	-0.953785	-0.240864
C35	C	-0.512785	-1.245404	-0.506030
C36	C	-0.012785	-0.745404	-0.006030
C37	C	-0.512801	-1.128628	-0.506049
C38	C	-0.012801	-0.628628	-0.006049
C39	C	-0.790427	-1.518442	-0.505950
C40	C	-0.290427	-1.018442	-0.005950
C41	C	-0.908733	-1.518472	-0.505911
C42	C	-0.408733	-1.018472	-0.005911
C43	C	-0.512787	-1.518310	-0.779010
C44	C	-0.012787	-1.018310	-0.279010
C45	C	-0.512815	-1.518379	-0.895786
C46	C	-0.012815	-1.018379	-0.395786
C47	C	-0.977969	-1.448280	-0.576058
C48	C	-0.477969	-0.948280	-0.076058
C49	C	-1.048756	-1.544147	-0.601726
C50	C	-0.548756	-1.044147	-0.101726
C51	C	-1.048745	-1.422681	-0.480180
C52	C	-0.548745	-0.922681	0.019820
C53	C	-0.977961	-1.614388	-0.531629
C54	C	-0.477961	-1.114388	-0.031629
C55	C	-0.977944	-1.492858	-0.410039
C56	C	-0.477944	-0.992858	0.089961
C57	C	-1.048699	-1.588790	-0.435670
C58	C	-0.548699	-1.088790	0.064330
C59	C	-0.236265	-1.518362	-0.506058
C60	C	0.263735	-1.018362	-0.006058
C61	C	-0.117960	-1.518536	-0.505802
C62	C	0.382040	-1.018536	-0.005802
C63	C	-0.512828	-1.792405	-0.506056
C64	C	-0.012828	-1.292405	-0.006056
C65	C	-0.512837	-1.909182	-0.506062
C66	C	-0.012837	-1.409182	-0.006062
C67	C	-0.580760	-1.073788	-0.573325
C68	C	-0.080760	-0.573788	-0.073325
C69	C	-0.580781	-0.964064	-0.573329
C70	C	-0.080781	-0.464064	-0.073329
C71	C	-0.444876	-0.964029	-0.438779
C72	C	0.055124	-0.464029	0.061221
C73	C	-0.444861	-1.073751	-0.438770
C74	C	0.055139	-0.573751	0.061230
C75	C	-0.580954	-1.585563	-0.950539
C76	C	-0.080954	-1.085563	-0.450539
C77	C	-0.580983	-1.585622	-1.060263
C78	C	-0.080983	-1.085622	-0.560263
C79	C	-0.444724	-1.451310	-1.060472
C80	C	0.055276	-0.951310	-0.560472
C81	C	-0.444701	-1.451246	-0.950750
C82	C	0.055299	-0.951246	-0.450750
C83	C	-0.512848	-1.518463	-0.232009
C84	C	-0.012848	-1.018463	0.267991
C85	C	-0.512866	-1.518501	-0.115232
C86	C	-0.012866	-1.018501	0.384768
H87	H	-1.079861	-1.565846	-0.682756
H88	H	-0.579861	-1.065846	-0.182756
H89	H	-0.636084	-1.118466	-0.628106
H90	H	-0.136084	-0.618466	-0.128106
H91	H	-0.636121	-0.919419	-0.628111
H92	H	-0.136121	-0.419419	-0.128111
N93	N	-1.089602	-1.667541	-0.357044
N94	N	-0.589602	-1.167541	0.142956
H95	H	-1.027687	-1.703561	-0.321966
H96	H	-0.527687	-1.203561	0.178034
H97	H	-1.134783	-1.721361	-0.394175
H98	H	-0.634783	-1.221361	0.105825
N99	N	-0.937005	-1.721756	-0.560606
N100	N	-0.437005	-1.221756	-0.060606
H101	H	-0.963335	-1.774895	-0.507971
H102	H	-0.463335	-1.274895	-0.007971
H103	H	-0.856818	-1.721002	-0.560551
H104	H	-0.356818	-1.221002	-0.060551
H105	H	-0.389521	-1.118402	-0.383979
H106	H	0.110479	-0.618402	0.116021
H107	H	-0.389559	-0.919335	-0.384004
H108	H	0.110441	-0.419335	0.115996
N109	N	-0.654418	-1.657964	-0.891255
N110	N	-0.154418	-1.157964	-0.391255
H111	H	-0.697589	-1.700532	-0.942595
H112	H	-0.197589	-1.200532	-0.442595
H113	H	-0.703627	-1.615145	-0.845733
H114	H	-0.203627	-1.115145	-0.345733
H115	H	-0.946816	-1.471130	-0.329032
H116	H	-0.446816	-0.971130	0.170968
N117	N	-0.654503	-1.658058	-1.119320
N118	N	-0.154503	-1.158058	-0.619320
H119	H	-0.697655	-1.700565	-1.067848
H120	H	-0.197655	-1.200565	-0.567848
H121	H	-0.611256	-1.706734	-1.164849
H122	H	-0.111256	-1.206734	-0.664849
H123	H	-0.389267	-1.396655	-1.105237
H124	H	0.110733	-0.896655	-0.605237
H125	H	-0.389214	-1.396532	-0.906167
H126	H	0.110786	-0.896532	-0.406167
N127	N	-1.089935	-1.315348	-0.451394
N128	N	-0.589935	-0.815348	0.048606
H129	H	-1.135197	-1.287319	-0.510401
H130	H	-0.635197	-0.787319	-0.010401
H131	H	-1.028090	-1.266496	-0.439019
H132	H	-0.528090	-0.766496	0.060981
N133	N	-0.936821	-1.369714	-0.654748
N134	N	-0.436821	-0.869714	-0.154748
H135	H	-0.962580	-1.389230	-0.727110
H136	H	-0.462580	-0.889230	-0.227110
H137	H	-0.856638	-1.369809	-0.653669
H138	H	-0.356638	-0.869809	-0.153669
