data_functionalizedCrystal
_audit_creation_method	'MofGen! by Chris Wilmer'
_symmetry_space_group_name_H-M	'P1'
_symmetry_Int_Tables_number	1
_symmetry_cell_setting	triclinic
loop_
_symmetry_equiv_pos_as_xyz
  x,y,z
_cell_length_a	15.944551
_cell_length_b	10.654559
_cell_length_c	9.130313
_cell_angle_alpha	90.002874
_cell_angle_beta	89.996263
_cell_angle_gamma	83.993711
loop_
_atom_site_label
_atom_site_type_symbol
_atom_site_fract_x
_atom_site_fract_y
_atom_site_fract_z
O1	O	1.115460	0.161968	0.121638
O2	O	0.871027	0.181936	0.121673
O3	O	0.998860	-0.010859	0.121655
O4	O	0.987628	0.354763	0.121657
O5	O	0.998858	-0.010869	-0.121944
O6	O	0.871025	0.181926	-0.121925
O7	O	1.115459	0.161958	-0.121961
Cu8	Cu	0.993242	0.171941	-0.144186
Cu9	Cu	0.993244	0.171953	0.143898
O10	O	0.987626	0.354753	-0.121942
C11	C	0.998032	-0.057651	-0.000141
C12	C	0.995560	-0.197062	-0.000132
C13	C	0.839727	0.181102	-0.000121
C14	C	0.746467	0.178617	-0.000108
C15	C	0.917971	-0.247598	-0.000117
C16	C	0.915653	-0.378590	-0.000128
C17	C	1.068521	-0.408500	-0.000162
C18	C	1.070838	-0.277510	-0.000162
C19	C	0.829713	-0.230331	-0.000091
C20	C	0.827395	-0.361323	-0.000101
C21	C	0.530881	0.053173	-0.000137
C22	C	0.470200	0.111430	0.119971
C23	C	0.575715	0.174121	-0.000125
C24	C	0.470221	0.111449	-0.120199
C25	C	0.410777	0.169769	-0.000148
C26	C	0.516262	0.232411	0.120082
C27	C	0.516289	0.232413	-0.120196
C28	C	0.455627	0.290758	-0.000059
C29	C	0.670732	0.176624	-0.000110
C30	C	0.315761	0.167275	-0.000152
C31	C	1.146758	0.162792	-0.000163
C32	C	1.240019	0.165277	-0.000167
C33	C	0.988453	0.401545	-0.000143
C34	C	0.990925	0.540956	-0.000143
N35	N	0.993246	0.171952	0.346521
N36	N	0.993246	0.171932	-0.346808
C37	C	1.049957	0.086747	0.423165
C38	C	1.049959	0.086740	0.576501
C39	C	0.936533	0.257145	0.576537
C40	C	0.936535	0.257158	0.423203
C41	C	1.115440	-0.011639	0.423145
C42	C	1.115443	-0.011646	0.576482
H43	H	1.129809	-0.474017	-0.000187
N44	N	0.543134	0.300110	0.254741
H45	H	0.525980	0.254773	0.345342
H46	H	0.515031	0.389575	0.255031
N47	N	1.088566	-0.132203	0.360115
H48	H	1.089549	-0.127793	0.249636
H49	H	1.029569	-0.143348	0.394351
H50	H	0.890364	0.326549	0.360801
N51	N	0.412469	0.423848	0.000020
H52	H	0.429204	0.469358	0.090781
H53	H	0.349326	0.421343	-0.000898
H54	H	1.176384	0.018314	0.624039
H55	H	0.792878	-0.390240	0.101844
H56	H	0.536717	0.283522	-0.221742
N57	N	1.096608	-0.139343	0.631614
H58	H	1.039459	-0.157897	0.594798
H59	H	1.096656	-0.139300	0.742230
H60	H	0.803051	-0.184340	0.105096
N61	N	0.785658	-0.174451	-0.135105
H62	H	0.764331	-0.243997	-0.195363
H63	H	0.826616	-0.129751	-0.195258
N64	N	0.574242	-0.079797	0.000000
H65	H	0.556796	-0.125974	-0.089786
H66	H	0.557587	-0.125222	0.090870
N67	N	0.790152	-0.408040	-0.139413
H68	H	0.738467	-0.451311	-0.115196
H69	H	0.833230	-0.469791	-0.189605
N70	N	1.154523	-0.223001	-0.000209
H71	H	1.201857	-0.293843	-0.000227
H72	H	1.158825	-0.169299	0.090092
H73	H	0.890361	0.326519	0.638989
N74	N	0.443215	0.043663	-0.254698
H75	H	0.470859	-0.046067	-0.254585
H76	H	0.460791	0.088530	-0.345340
H77	H	1.179952	0.009223	0.381534
H78	H	0.449794	0.060278	0.221513
