data_functionalizedCrystal
_audit_creation_method	'MofGen! by Chris Wilmer'
_symmetry_space_group_name_H-M	'P1'
_symmetry_Int_Tables_number	1
_symmetry_cell_setting	triclinic
loop_
_symmetry_equiv_pos_as_xyz
  x,y,z
_cell_length_a	6.817900
_cell_length_b	11.102188
_cell_length_c	19.551833
_cell_angle_alpha	94.522937
_cell_angle_beta	101.663477
_cell_angle_gamma	108.603875
loop_
_atom_site_label
_atom_site_type_symbol
_atom_site_fract_x
_atom_site_fract_y
_atom_site_fract_z
V1	V	-4.032640	-0.177171	-0.217858
O2	O	-3.993184	0.007143	-0.213711
O3	O	-4.009947	-0.349982	-0.216368
O4	O	-3.975018	-0.175048	-0.312873
O5	O	-4.028354	-0.169003	-0.116537
V6	V	-4.514131	-0.155054	-0.205739
O7	O	-4.298354	-0.225687	-0.244442
O8	O	-4.698615	-0.106538	-0.179156
O9	O	-4.313618	0.017757	-0.207229
O10	O	-4.670984	-0.339368	-0.209886
O11	O	-4.635814	-0.163222	-0.307060
O12	O	-4.348546	-0.157178	-0.110724
C13	C	-3.861500	-0.392091	-0.212931
C14	C	-3.924171	-0.533370	-0.212346
C15	C	-3.916614	-0.581202	-0.148085
C16	C	-3.975523	-0.713951	-0.147538
C17	C	-4.049537	-0.751023	-0.275520
C18	C	-3.990642	-0.618278	-0.276067
C19	C	-3.816943	-0.168943	-0.336033
C20	C	-3.851285	-0.168350	-0.413708
C21	C	-4.050141	-0.174451	-0.453755
C22	C	-4.082410	-0.173894	-0.526740
C23	C	-3.915822	-0.167262	-0.559676
C24	C	-3.716934	-0.161153	-0.519619
C25	C	-3.684666	-0.161697	-0.446635
C26	C	-3.863299	-0.236364	-0.678988
C27	C	-3.895579	-0.235828	-0.751972
C28	C	-4.015339	-0.165577	-0.784783
C29	C	-4.102857	-0.095879	-0.744604
C30	C	-4.070589	-0.096424	-0.671620
C31	C	-3.950791	-0.166670	-0.638815
C32	C	-4.249195	-0.171073	-0.903969
C33	C	-4.281453	-0.170507	-0.976954
C34	C	-3.915978	-0.157779	-0.969832
C35	C	-3.883720	-0.158331	-0.896848
C36	C	-4.050339	-0.164984	-0.863921
C37	C	-4.125408	0.059859	-0.210664
C38	C	-4.041975	0.201137	-0.211253
C39	C	-4.169964	-0.163287	-0.087561
C40	C	-4.114860	-0.163873	-0.009885
H41	H	-4.185817	-0.179863	-0.426951
H42	H	-3.996811	-0.579334	-0.328400
C43	C	-3.799315	-0.312494	-0.796165
C44	C	-3.667548	-0.389749	-0.760076
C45	C	-3.571281	-0.466418	-0.804268
C46	C	-3.606782	-0.465831	-0.884549
C47	C	-3.738555	-0.388573	-0.920642
C48	C	-3.834822	-0.311905	-0.876450
H49	H	-3.641262	-0.390186	-0.700644
H50	H	-3.473733	-0.523609	-0.777549
H51	H	-3.535519	-0.522586	-0.917262
H52	H	-3.764841	-0.388137	-0.980075
H53	H	-3.932370	-0.254714	-0.903169
H54	H	-3.862491	-0.512073	-0.096200
H55	H	-3.765754	-0.293563	-0.652279
C56	C	-4.166838	-0.019755	-0.627422
C57	C	-4.298578	0.057521	-0.663502
C58	C	-4.394824	0.134192	-0.619303
C59	C	-4.359328	0.133588	-0.539024
C60	C	-4.227582	0.056309	-0.502939
C61	C	-4.131336	-0.020363	-0.547138
H62	H	-4.324860	0.057971	-0.722933
H63	H	-4.492351	0.191400	-0.646016
H64	H	-4.430575	0.190345	-0.506306
H65	H	-4.201300	0.055858	-0.443508
H66	H	-4.033808	-0.077570	-0.520425
H67	H	-4.244351	-0.178869	-0.559353
H68	H	-4.443384	-0.175466	-1.009559
H69	H	-4.200382	-0.038678	-0.771317
H70	H	-3.969367	-0.752888	-0.095210
H71	H	-4.103661	-0.820170	-0.327399
H72	H	-4.384865	-0.176485	-0.877158
H73	H	-3.780333	-0.152368	-0.996647
H74	H	-3.721797	-0.153377	-0.864242
H75	H	-3.581298	-0.155749	-0.546440
H76	H	-3.522726	-0.156719	-0.414027
