data_functionalizedCrystal
_audit_creation_method	'MofGen! by Chris Wilmer'
_symmetry_space_group_name_H-M	'P1'
_symmetry_Int_Tables_number	1
_symmetry_cell_setting	triclinic
loop_
_symmetry_equiv_pos_as_xyz
  x,y,z
_cell_length_a	12.759395
_cell_length_b	13.897441
_cell_length_c	12.759394
_cell_angle_alpha	90.028575
_cell_angle_beta	89.983626
_cell_angle_gamma	89.982636
loop_
_atom_site_label
_atom_site_type_symbol
_atom_site_fract_x
_atom_site_fract_y
_atom_site_fract_z
Zn1	Zn	1.606235	-0.545357	0.418200
Zn2	Zn	1.606135	-0.384061	0.593908
Zn3	Zn	1.430543	-0.384078	0.418248
Zn4	Zn	1.430525	-0.545317	0.593842
O5	O	1.518360	-0.464703	0.506049
O6	O	1.753243	-0.523970	0.441515
O7	O	1.582808	-0.249081	0.570653
O8	O	1.453898	-0.405496	0.271220
O9	O	1.753169	-0.405466	0.570607
O10	O	1.582978	-0.523987	0.271185
O11	O	1.453801	-0.249094	0.441597
O12	O	1.283519	-0.405458	0.441534
O13	O	1.453868	-0.680304	0.570496
O14	O	1.283506	-0.523919	0.570542
O15	O	1.582961	-0.680333	0.441452
O16	O	1.582791	-0.405428	0.740920
O17	O	1.453771	-0.523902	0.740872
C18	C	1.245392	-0.464687	0.506037
C19	C	1.128615	-0.464702	0.506056
C20	C	1.128640	-0.587857	0.640610
C21	C	1.073792	-0.649436	0.707895
C22	C	0.964071	-0.649448	0.707908
C23	C	0.909195	-0.587876	0.640626
C24	C	0.964043	-0.526296	0.573341
C25	C	1.073767	-0.526289	0.573338
C26	C	0.964018	-0.403148	0.438784
C27	C	1.073739	-0.403130	0.438775
C28	C	0.909142	-0.341575	0.371502
C29	C	0.963990	-0.279989	0.304220
C30	C	1.073719	-0.279979	0.304211
C31	C	1.128588	-0.341550	0.371489
C32	C	1.518424	-0.716296	0.505961
C33	C	1.518451	-0.823510	0.505924
C34	C	1.518473	-0.910580	0.505894
C35	C	1.518503	-1.019813	0.505847
C36	C	1.792393	-0.464720	0.506063
C37	C	1.909170	-0.464728	0.506069
C38	C	1.518296	-0.464680	0.779017
C39	C	1.518366	-0.464702	0.895794
C40	C	1.518356	-0.214089	0.506061
C41	C	1.518532	-0.106875	0.505803
C42	C	1.518451	-0.464748	0.232016
C43	C	1.518491	-0.464767	0.115239
C44	C	1.652815	-0.341427	0.895790
C45	C	1.720067	-0.279801	0.950649
C46	C	1.720128	-0.279828	1.060371
C47	C	1.652933	-0.341489	1.115236
C48	C	1.585681	-0.403115	1.060377
C49	C	1.585624	-0.403080	0.950653
C50	C	1.451239	-0.526393	1.060380
C51	C	1.451170	-0.526363	0.950659
C52	C	1.384043	-0.588054	1.115245
C53	C	1.316785	-0.649676	1.060386
C54	C	1.316725	-0.649647	0.950658
C55	C	1.383918	-0.587989	0.895800
H56	H	0.819854	-0.587899	0.640634
F57	F	1.384099	-0.588172	0.779024
F58	F	1.245285	-0.715298	1.118783
H59	H	1.217981	-0.587846	0.640614
F60	F	0.905695	-0.714993	0.779515
H61	H	0.819801	-0.341593	0.371513
F62	F	1.383763	-0.587760	1.232020
F63	F	1.245150	-0.715244	0.892281
H64	H	0.919302	-0.229866	0.249440
H65	H	1.652758	-0.341387	0.806449
F66	F	1.132202	-0.714958	0.779503
F67	F	1.132084	-0.214441	0.232590
H68	H	1.217929	-0.341545	0.371491
H69	H	1.774779	-0.229599	0.905969
F70	F	1.791709	-0.214243	1.118757
H71	H	1.652998	-0.341513	1.204577
