data_functionalizedCrystal
_audit_creation_method	'MofGen! by Chris Wilmer'
_symmetry_space_group_name_H-M	'P1'
_symmetry_Int_Tables_number	1
_symmetry_cell_setting	triclinic
loop_
_symmetry_equiv_pos_as_xyz
  x,y,z
_cell_length_a	12.645331
_cell_length_b	12.645330
_cell_length_c	18.215399
_cell_angle_alpha	90.023030
_cell_angle_beta	90.012942
_cell_angle_gamma	90.016927
loop_
_atom_site_label
_atom_site_type_symbol
_atom_site_fract_x
_atom_site_fract_y
_atom_site_fract_z
Zn1	Zn	1.620702	-0.422072	0.416006
Zn2	Zn	1.620592	-0.599354	0.292950
Zn3	Zn	1.443425	-0.422103	0.292968
Zn4	Zn	1.443398	-0.599291	0.415990
O5	O	1.532029	-0.510705	0.354478
O6	O	1.769035	-0.445602	0.399681
O7	O	1.597056	-0.575881	0.189968
O8	O	1.466998	-0.273751	0.309303
O9	O	1.768954	-0.575851	0.309273
O10	O	1.597243	-0.273729	0.399699
O11	O	1.466892	-0.445655	0.189981
O12	O	1.295074	-0.445594	0.309288
O13	O	1.466953	-0.575744	0.518976
O14	O	1.295055	-0.575774	0.399671
O15	O	1.597217	-0.445541	0.518988
O16	O	1.597030	-0.747693	0.309257
O17	O	1.466846	-0.747647	0.399654
C18	C	1.256600	-0.510681	0.354480
C19	C	1.138770	-0.510696	0.354498
C20	C	0.971229	-0.593041	0.411062
C21	C	1.093789	-0.592776	0.411299
C22	C	1.094290	-0.399043	0.375687
C23	C	0.971692	-0.399545	0.376085
C24	C	0.971530	-0.539106	0.276567
C25	C	1.094135	-0.541548	0.276987
C26	C	1.531952	-0.786135	0.354468
C27	C	1.532016	-0.903965	0.354488
C28	C	1.450455	-1.071544	0.411532
C29	C	1.450038	-0.948985	0.411349
C30	C	1.501776	-0.948555	0.276932
C31	C	1.501278	-1.071153	0.277278
C32	C	1.644316	-1.071057	0.374371
C33	C	1.643627	-0.948450	0.376067
C34	C	1.808535	-0.510730	0.354477
C35	C	1.926365	-0.510741	0.354476
C36	C	1.532094	-0.510632	0.546431
C37	C	1.532121	-0.510601	0.628230
C38	C	1.532136	-0.234200	0.354505
C39	C	1.532181	-0.116370	0.354516
C40	C	1.532026	-0.510701	0.163272
C41	C	1.532204	-0.510434	0.081474
C42	C	1.599974	-0.442741	0.816432
C43	C	1.599987	-0.442710	0.893290
C44	C	1.464343	-0.578297	0.893267
C45	C	1.464326	-0.578321	0.816409
C46	C	1.532148	-0.510545	0.777994
C47	C	1.532178	-0.510490	0.931710
C48	C	1.532191	-0.510457	1.015044
C49	C	1.532133	-0.510577	0.694655
H50	H	0.942014	-0.336027	0.336760
O51	O	1.472741	-0.913137	0.479965
C52	C	1.573364	-0.950023	0.501304
H53	H	1.593920	-1.024024	0.468522
H54	H	1.634968	-0.886134	0.490280
C55	C	1.547043	-0.885766	0.624050
C56	C	1.572288	-0.976660	0.583791
H57	H	1.546383	-0.902193	0.674933
H58	H	1.479254	-0.860911	0.609673
H59	H	1.598384	-0.832533	0.614856
H60	H	1.520940	-1.029886	0.592979
H61	H	1.640069	-1.001524	0.598171
O62	O	0.937536	-0.370677	0.443984
C63	C	0.875445	-0.278436	0.438417
H64	H	0.896952	-0.234231	0.385970
H65	H	0.788191	-0.301045	0.436877
C66	C	0.870018	-0.261141	0.569681
C67	C	0.896439	-0.206843	0.505267
H68	H	0.882963	-0.216981	0.610918
H69	H	0.911846	-0.323288	0.573432
H70	H	0.797307	-0.279979	0.568387
H71	H	0.969151	-0.188018	0.506558
H72	H	0.854623	-0.144691	0.501518
H73	H	1.655217	-0.387496	0.924583
H74	H	1.705204	-1.100044	0.332844
O75	O	1.403559	-1.105568	0.257201
C76	C	1.401824	-1.217054	0.257276
H77	H	1.485792	-1.248398	0.250607
H78	H	1.367497	-1.246487	0.311411
C79	C	1.229740	-1.218236	0.201431
C80	C	1.332871	-1.256734	0.193234
H81	H	1.187204	-1.242714	0.161930
H82	H	1.230906	-1.143126	0.201383
H83	H	1.201149	-1.242767	0.246546
H84	H	1.361465	-1.232193	0.148125
H85	H	1.331708	-1.331841	0.193274
H86	H	1.655196	-0.387550	0.785156
H87	H	0.942515	-0.479158	0.234405
H88	H	1.409128	-0.633480	0.924554
O89	O	1.398403	-0.644293	0.779180
C90	C	1.338535	-0.704097	0.829565
H91	H	1.381964	-0.707756	0.884355
H92	H	1.258037	-0.665270	0.837740
C93	C	1.269870	-0.812435	0.732257
C94	C	1.323215	-0.816937	0.799549
H95	H	1.260416	-0.882039	0.713741
H96	H	1.310202	-0.772142	0.698311
H97	H	1.202795	-0.780074	0.739078
H98	H	1.390294	-0.849285	0.792725
H99	H	1.282895	-0.857239	0.833494
O100	O	0.934411	-0.571087	0.479533
C101	C	0.876578	-0.658359	0.506150
H102	H	0.847154	-0.707799	0.457945
H103	H	0.929684	-0.708861	0.542587
C104	C	0.817549	-0.557965	0.610328
C105	C	0.781403	-0.618682	0.551121
H106	H	0.758843	-0.533492	0.638071
H107	H	0.856515	-0.499169	0.592398
H108	H	0.861804	-0.600059	0.640684
H109	H	0.737160	-0.576585	0.520762
H110	H	0.742427	-0.677471	0.569048
H111	H	1.123862	-0.675573	0.398020
H112	H	1.671902	-1.101903	0.429963
O113	O	1.472617	-1.106675	0.480385
C114	C	1.385700	-1.164462	0.507608
H115	H	1.310806	-1.139272	0.477484
H116	H	1.399781	-1.252545	0.498527
C117	C	1.464890	-1.173562	0.627306
C118	C	1.372902	-1.142618	0.590310
H119	H	1.456997	-1.160092	0.678321
H120	H	1.523450	-1.134634	0.608965
H121	H	1.476614	-1.246963	0.619730
H122	H	1.361187	-1.069216	0.597879
H123	H	1.314340	-1.181533	0.608654
H124	H	1.559415	-0.919395	0.233290
O125	O	1.720236	-0.911957	0.330218
C126	C	1.818886	-0.953825	0.351559
H127	H	1.815725	-0.977445	0.411910
H128	H	1.837702	-1.026323	0.316712
C129	C	1.909381	-0.840711	0.266297
C130	C	1.905501	-0.869713	0.340422
H131	H	1.962812	-0.788830	0.259424
H132	H	1.842919	-0.812506	0.251916
H133	H	1.925058	-0.901134	0.237266
H134	H	1.889812	-0.809294	0.369450
H135	H	1.971963	-0.897906	0.354808
H136	H	1.558221	-1.100809	0.233349
O137	O	1.128667	-0.570506	0.480219
C138	C	1.091107	-0.647996	0.529370
H139	H	1.017445	-0.686987	0.505476
H140	H	1.154886	-0.710381	0.538303
C141	C	1.153901	-0.547810	0.632615
C142	C	1.063422	-0.595693	0.603270
H143	H	1.136828	-0.515549	0.678201
H144	H	1.179209	-0.495605	0.599502
H145	H	1.207042	-0.599806	0.640053
H146	H	1.010288	-0.543695	0.595824
H147	H	1.038104	-0.647888	0.636384
H148	H	1.367843	-1.102443	0.398547
H149	H	1.366907	-0.919748	0.398195
O150	O	1.131110	-0.369863	0.442862
C151	C	1.242499	-0.365509	0.441235
H152	H	1.273184	-0.417798	0.394914
H153	H	1.268996	-0.280452	0.431630
C154	C	1.249247	-0.340794	0.571900
C155	C	1.286934	-0.405024	0.515011
H156	H	1.276657	-0.365164	0.617409
H157	H	1.174201	-0.343723	0.572996
H158	H	1.271330	-0.269918	0.563886
H159	H	1.264840	-0.475896	0.523020
H160	H	1.361977	-0.402108	0.513917
H161	H	1.123425	-0.336056	0.335760
O162	O	1.128957	-0.639559	0.258017
C163	C	1.193348	-0.680130	0.314577
H164	H	1.226633	-0.611987	0.348448
H165	H	1.144256	-0.733948	0.351439
C166	C	1.244159	-0.827493	0.239207
C167	C	1.285047	-0.743798	0.280804
H168	H	1.300721	-0.866771	0.218376
H169	H	1.200775	-0.800163	0.201102
H170	H	1.203250	-0.872330	0.269933
H171	H	1.325945	-0.698957	0.250077
H172	H	1.328441	-0.771123	0.318903
O173	O	1.671028	-0.913675	0.444122
C174	C	1.765381	-0.854597	0.439626
H175	H	1.810818	-0.878629	0.388215
H176	H	1.745630	-0.766731	0.436825
C177	C	1.777945	-0.846774	0.571091
C178	C	1.833755	-0.876297	0.507950
H179	H	1.820120	-0.860155	0.613238
H180	H	1.714375	-0.886573	0.574120
H181	H	1.761489	-0.773554	0.568746
H182	H	1.850198	-0.949518	0.510291
H183	H	1.897329	-0.836511	0.504923
H184	H	0.941738	-0.676114	0.397930
H185	H	0.940609	-0.619135	0.257308
H186	H	1.124755	-0.485952	0.232565
H187	H	1.420660	-0.917942	0.259807
