data_functionalizedCrystal
_audit_creation_method	'MofGen! by Chris Wilmer'
_symmetry_space_group_name_H-M	'P1'
_symmetry_Int_Tables_number	1
_symmetry_cell_setting	triclinic
loop_
_symmetry_equiv_pos_as_xyz
  x,y,z
_cell_length_a	8.559649
_cell_length_b	10.654550
_cell_length_c	9.130313
_cell_angle_alpha	90.004369
_cell_angle_beta	90.003285
_cell_angle_gamma	77.131797
loop_
_atom_site_label
_atom_site_type_symbol
_atom_site_fract_x
_atom_site_fract_y
_atom_site_fract_z
O1	O	-2.119654	0.042558	-0.121775
O2	O	-1.655168	-0.022229	-0.121783
O3	O	-1.898091	0.194007	-0.121769
O4	O	-1.876732	-0.173678	-0.121788
O5	O	-1.898074	0.194011	0.121829
O6	O	-1.655151	-0.022225	0.121816
O7	O	-2.119637	0.042562	0.121824
Cu8	Cu	-1.887393	0.010169	0.144063
Cu9	Cu	-1.887413	0.010164	-0.144021
O10	O	-1.876715	-0.173674	0.121811
C11	C	-1.595684	-0.027137	0.000016
C12	C	-1.418466	-0.041751	0.000013
C13	C	-2.179121	0.047469	0.000023
C14	C	-2.356339	0.062084	0.000016
C15	C	-1.896514	0.240645	0.000029
C16	C	-1.891822	0.379603	0.000027
C17	C	-1.878292	-0.220312	0.000009
C18	C	-1.882984	-0.359271	0.000002
N19	N	-1.887391	0.010174	0.346685
C20	C	-2.034851	0.473864	0.000029
C21	C	-2.030432	0.604428	0.000011
C22	C	-1.739944	0.546458	-0.000005
C23	C	-1.744364	0.415896	0.000003
N24	N	-1.887428	0.010170	-0.346644
C25	C	-1.994993	0.105891	0.423343
C26	C	-1.995009	0.105892	0.576680
C27	C	-1.779813	-0.085552	0.576688
C28	C	-1.779792	-0.085547	0.423354
H29	H	-1.438727	0.162162	0.000014
O30	O	-2.177987	0.438447	-0.000158
C31	C	-2.351611	0.324738	-0.126399
C32	C	-2.189437	0.364727	-0.126344
H33	H	-2.360935	0.265152	-0.228424
H34	H	-2.360966	0.264992	-0.024519
H35	H	-2.453051	0.414558	-0.126333
H36	H	-2.087903	0.274979	-0.126461
H37	H	-2.180220	0.424520	-0.228215
O38	O	-1.320248	-0.161183	-0.000257
C39	C	-1.238729	-0.363881	-0.126426
C40	C	-1.350025	-0.228657	-0.126320
H41	H	-1.262788	-0.418483	-0.228322
H42	H	-1.108488	-0.354874	-0.126526
H43	H	-1.262596	-0.418429	-0.024435
H44	H	-1.326301	-0.174035	-0.228294
H45	H	-1.480230	-0.237757	-0.126144
O46	O	-2.099559	0.199004	0.349093
C47	C	-2.313060	0.388852	0.365277
C48	C	-2.194702	0.283490	0.449540
H49	H	-2.390037	0.457170	0.446452
H50	H	-2.243533	0.445006	0.293552
H51	H	-2.393310	0.342315	0.293427
H52	H	-2.114423	0.329921	0.521469
H53	H	-2.264328	0.227346	0.521173
O54	O	-1.675148	-0.178595	0.650939
C55	C	-1.461758	-0.368520	0.634761
C56	C	-1.580183	-0.263206	0.550494
H57	H	-1.384971	-0.436970	0.553588
H58	H	-1.381334	-0.322082	0.706530
H59	H	-1.531389	-0.424525	0.706567
H60	H	-1.510681	-0.207165	0.478609
H61	H	-1.660606	-0.309722	0.478818
H62	H	-1.619888	0.576024	-0.000022
H63	H	-1.692161	-0.163493	0.360934
H64	H	-2.146901	0.681172	0.000009
H65	H	-1.627885	0.339143	-0.000003
H66	H	-2.082626	0.183835	0.639090
