data_functionalizedCrystal
_audit_creation_method	'MofGen! by Chris Wilmer'
_symmetry_space_group_name_H-M	'P1'
_symmetry_Int_Tables_number	1
_symmetry_cell_setting	triclinic
loop_
_symmetry_equiv_pos_as_xyz
  x,y,z
_cell_length_a	18.101395
_cell_length_b	13.897449
_cell_length_c	13.897441
_cell_angle_alpha	90.026069
_cell_angle_beta	89.969302
_cell_angle_gamma	89.968968
loop_
_atom_site_label
_atom_site_type_symbol
_atom_site_fract_x
_atom_site_fract_y
_atom_site_fract_z
Zn1	Zn	-0.294807	-1.474613	-0.545518
Zn2	Zn	0.205193	-0.974613	-0.045518
Zn3	Zn	-0.418663	-1.474469	-0.384219
Zn4	Zn	0.081337	-0.974469	0.115781
Zn5	Zn	-0.294840	-1.313302	-0.384221
Zn6	Zn	0.205160	-0.813302	0.115779
Zn7	Zn	-0.418611	-1.313246	-0.545456
Zn8	Zn	0.081389	-0.813246	-0.045456
O9	O	-0.356730	-1.393907	-0.464854
O10	O	0.143270	-0.893907	0.035146
O11	O	-0.311245	-1.609575	-0.524146
O12	O	0.188755	-1.109575	-0.024146
O13	O	-0.402273	-1.453053	-0.249237
O14	O	0.097727	-0.953053	0.250763
O15	O	-0.191203	-1.334784	-0.405644
O16	O	0.308797	-0.834784	0.094356
O17	O	-0.402241	-1.609470	-0.405640
O18	O	0.097759	-1.109470	0.094360
O19	O	-0.191179	-1.453298	-0.524148
O20	O	0.308821	-0.953298	-0.024148
O21	O	-0.311300	-1.334644	-0.249239
O22	O	0.188700	-0.834644	0.250761
O23	O	-0.311250	-1.178313	-0.405585
O24	O	0.188750	-0.678313	0.094415
O25	O	-0.402153	-1.334688	-0.680446
O26	O	0.097847	-0.834688	-0.180446
O27	O	-0.402185	-1.178272	-0.524044
O28	O	0.097815	-0.678272	-0.024044
O29	O	-0.311195	-1.453244	-0.680491
O30	O	0.188805	-0.953244	-0.180491
O31	O	-0.522289	-1.452999	-0.405581
O32	O	-0.022289	-0.952999	0.094419
O33	O	-0.522251	-1.334549	-0.524041
O34	O	-0.022251	-0.834549	-0.024041
C35	C	-0.356716	-1.143293	-0.464808
C36	C	0.143284	-0.643293	0.035192
C37	C	-0.356728	-1.036079	-0.464812
C38	C	0.143272	-0.536079	0.035188
C39	C	-0.356729	-0.949009	-0.464824
C40	C	0.143271	-0.449009	0.035176
C41	C	-0.356733	-0.839777	-0.464848
C42	C	0.143267	-0.339777	0.035152
C43	C	-0.549141	-1.393778	-0.464825
C44	C	-0.049141	-0.893778	0.035175
C45	C	-0.631455	-1.393811	-0.464845
C46	C	-0.131455	-0.893811	0.035155
C47	C	-0.930546	-1.394023	-0.464897
C48	C	-0.430546	-0.894023	0.035103
C49	C	-0.899228	-1.319670	-0.539615
C50	C	-0.399228	-0.819670	-0.039615
C51	C	-0.813610	-1.319317	-0.539381
C52	C	-0.313610	-0.819317	-0.039381
C53	C	-0.782163	-1.393918	-0.464872
C54	C	-0.282163	-0.893918	0.035128
C55	C	-0.813319	-1.366392	-0.363211
C56	C	-0.313319	-0.866392	0.136789
C57	C	-0.898965	-1.365913	-0.363658
C58	C	-0.398965	-0.865913	0.136342
C59	C	-0.898889	-1.496064	-0.490947
C60	C	-0.398889	-0.996064	0.009053
C61	C	-0.813237	-1.495464	-0.493176
C62	C	-0.313237	-0.995464	0.006824
C63	C	-0.698304	-1.393860	-0.464852
C64	C	-0.198304	-0.893860	0.035148
C65	C	-1.014405	-1.394078	-0.464911
C66	C	-0.514405	-0.894078	0.035089
C67	C	-0.163568	-1.394063	-0.464903
C68	C	0.336432	-0.894063	0.035097
C69	C	-0.081254	-1.394130	-0.464924
C70	C	0.418746	-0.894130	0.035076
C71	C	-0.356665	-1.393976	-0.716447
C72	C	0.143335	-0.893976	-0.216447
C73	C	-0.356637	-1.394005	-0.823661
C74	C	0.143363	-0.894005	-0.323661
C75	C	-0.356742	-0.645500	-0.464888
C76	C	0.143258	-0.145500	0.035112
C77	C	-0.356740	-0.752714	-0.464873
C78	C	0.143260	-0.252714	0.035127
C79	C	-0.356587	-1.394031	-1.019956
C80	C	0.143413	-0.894031	-0.519956
C81	C	-0.356617	-1.394014	-0.910723
C82	C	0.143383	-0.894014	-0.410723
C83	C	-0.356742	-1.393895	-0.214239
C84	C	0.143258	-0.893895	0.285761
C85	C	-0.356561	-1.394053	-0.107026
C86	C	0.143439	-0.894053	0.392974
H87	H	-0.792542	-1.336539	-0.614761
H88	H	-0.292542	-0.836539	-0.114761
H89	H	-0.919772	-1.336722	-0.615239
H90	H	-0.419772	-0.836722	-0.115239
H91	H	-0.920815	-1.244495	-0.522576
H92	H	-0.420815	-0.744495	-0.022576
H93	H	-0.791936	-1.292590	-0.340750
H94	H	-0.291936	-0.792590	0.159250
Cl95	Cl	-0.781794	-1.527517	-0.608688
Cl96	Cl	-0.281794	-1.027517	-0.108688
Cl97	Cl	-0.780178	-1.585524	-0.415287
Cl98	Cl	-0.280178	-1.085524	0.084713
H99	H	-0.919141	-1.551460	-0.436527
H100	H	-0.419141	-1.051460	0.063473
H101	H	-0.919008	-1.291321	-0.341593
H102	H	-0.419008	-0.791321	0.158407
H103	H	-0.793187	-1.243682	-0.522125
H104	H	-0.293187	-0.743682	-0.022125
H105	H	-0.920433	-1.521159	-0.563815
H106	H	-0.420433	-1.021159	-0.063815
H107	H	-0.919685	-1.417719	-0.306089
H108	H	-0.419685	-0.917719	0.193911
H109	H	-0.792952	-1.418843	-0.306023
H110	H	-0.292952	-0.918843	0.193977
