data_functionalizedCrystal
_audit_creation_method	'MofGen! by Chris Wilmer'
_symmetry_space_group_name_H-M	'P1'
_symmetry_Int_Tables_number	1
_symmetry_cell_setting	triclinic
loop_
_symmetry_equiv_pos_as_xyz
  x,y,z
_cell_length_a	11.792241
_cell_length_b	14.472310
_cell_length_c	11.792241
_cell_angle_alpha	90.000647
_cell_angle_beta	95.806584
_cell_angle_gamma	89.989940
loop_
_atom_site_label
_atom_site_type_symbol
_atom_site_fract_x
_atom_site_fract_y
_atom_site_fract_z
O1	O	1.506926	-0.076752	-0.155559
O2	O	1.840259	0.256582	0.177774
O3	O	2.173592	0.589915	0.511108
O4	O	1.176585	-0.076773	-0.171592
O5	O	1.509918	0.256560	0.161741
O6	O	1.843251	0.589894	0.495075
O7	O	1.349772	-0.076755	0.001595
O8	O	1.683105	0.256578	0.334928
O9	O	2.016438	0.589911	0.668262
O10	O	1.333739	-0.076769	-0.328746
O11	O	1.667072	0.256564	0.004587
O12	O	2.000405	0.589897	0.337921
O13	O	1.349723	0.076927	0.001583
O14	O	1.683056	0.410260	0.334916
O15	O	2.016389	0.743593	0.668250
O16	O	1.176536	0.076909	-0.171604
O17	O	1.509869	0.410242	0.161729
O18	O	1.843202	0.743576	0.495063
O19	O	1.506877	0.076930	-0.155571
O20	O	1.840210	0.410264	0.177762
O21	O	2.173543	0.743597	0.511096
Cu22	Cu	1.341702	0.090952	-0.163589
Cu23	Cu	1.675035	0.424285	0.169745
Cu24	Cu	2.008368	0.757619	0.503078
Cu25	Cu	1.341760	-0.090795	-0.163574
Cu26	Cu	1.675093	0.242539	0.169759
Cu27	Cu	2.008426	0.575872	0.503092
O28	O	1.333690	0.076913	-0.328758
O29	O	1.667023	0.410246	0.004575
O30	O	2.000356	0.743579	0.337909
C31	C	1.134269	0.000065	-0.170591
C32	C	1.467603	0.333398	0.162742
C33	C	1.800936	0.666732	0.496076
C34	C	1.008255	0.000057	-0.167576
C35	C	1.341589	0.333390	0.165757
C36	C	1.674922	0.666724	0.499090
N37	N	1.341669	0.218783	-0.163598
N38	N	1.675003	0.552116	0.169735
N39	N	2.008336	0.885450	0.503069
C40	C	0.777543	0.000084	-0.162034
C41	C	1.110877	0.333417	0.171300
C42	C	1.444210	0.666751	0.504633
C43	C	0.905928	0.000069	-0.165113
C44	C	1.239262	0.333402	0.168220
C45	C	1.572595	0.666736	0.501553
C46	C	1.341739	0.592874	-0.163579
C47	C	1.675073	0.926207	0.169754
C48	C	2.008406	1.259541	0.503087
C49	C	1.248757	0.553699	-0.255933
C50	C	1.582090	0.887032	0.077400
C51	C	1.915424	1.220365	0.410734
C52	C	1.248978	0.446611	-0.256272
C53	C	1.582311	0.779944	0.077062
C54	C	1.915644	1.113277	0.410395
C55	C	1.341704	0.407283	-0.163589
C56	C	1.675037	0.740616	0.169745
C57	C	2.008370	1.073950	0.503078
C58	C	1.460290	0.446127	-0.190184
C59	C	1.793623	0.779460	0.143149
C60	C	2.126956	1.112793	0.476482
C61	C	1.459765	0.553248	-0.190843
C62	C	1.793098	0.886582	0.142490
C63	C	2.126432	1.219915	0.475823
C64	C	1.317192	0.553407	-0.044360
C65	C	1.650525	0.886740	0.288973
C66	C	1.983858	1.220073	0.622306
C67	C	1.314483	0.446279	-0.045136
C68	C	1.647817	0.779612	0.288197
C69	C	1.981150	1.112946	0.621531
C70	C	1.341691	0.302395	-0.163592
C71	C	1.675024	0.635728	0.169742
C72	C	2.008357	0.969062	0.503075
C73	C	1.341760	0.697762	-0.163579
C74	C	1.675093	1.031096	0.169755
C75	C	2.008427	1.364429	0.503088
C76	C	1.549192	0.000090	-0.156572
C77	C	1.882525	0.333423	0.176761
C78	C	2.215859	0.666757	0.510094
C79	C	1.675206	0.000092	-0.159587
C80	C	2.008539	0.333425	0.173747
C81	C	2.341872	0.666759	0.507080
N82	N	1.341774	0.781374	-0.163570
N83	N	1.675107	1.114708	0.169763
N84	N	2.008440	1.448041	0.503097
C85	C	1.348740	0.000085	0.043880
C86	C	1.682073	0.333419	0.377213
C87	C	2.015407	0.666752	0.710547
C88	C	1.345726	0.000084	0.169894
C89	C	1.679059	0.333417	0.503227
C90	C	2.012392	0.666751	0.836560
C91	C	1.334721	0.000070	-0.371043
C92	C	1.668055	0.333403	-0.037710
C93	C	2.001388	0.666737	0.295624
C94	C	1.337736	0.000065	-0.497057
C95	C	1.671069	0.333398	-0.163723
C96	C	2.004402	0.666732	0.169610
C97	C	1.340183	0.000068	0.400606
C98	C	1.673516	0.333402	0.733939
C99	C	2.006849	0.666735	1.067272
C100	C	1.343262	0.000077	0.272221
C101	C	1.676596	0.333410	0.605554
C102	C	2.009929	0.666744	0.938887
H103	H	1.160854	0.420350	-0.240318
H104	H	1.494187	0.753683	0.093015
H105	H	1.827521	1.087016	0.426348
H106	H	1.227246	0.420892	-0.024970
H107	H	1.560580	0.754225	0.308364
H108	H	1.893913	1.087558	0.641697
H109	H	1.160348	0.579482	-0.240232
H110	H	1.493681	0.912815	0.093101
H111	H	1.827015	1.246148	0.426435
H112	H	1.232555	0.580470	-0.018968
H113	H	1.565889	0.913803	0.314365
H114	H	1.899222	1.247136	0.647698
H115	H	1.481286	0.578222	-0.277811
H116	H	1.814619	0.911555	0.055522
H117	H	2.147952	1.244888	0.388856
H118	H	1.264295	0.580606	-0.343889
H119	H	1.597629	0.913939	-0.010556
H120	H	1.930962	1.247272	0.322777
H121	H	1.531156	0.579161	-0.126268
H122	H	1.864489	0.912495	0.207065
H123	H	2.197823	1.245828	0.540398
H124	H	1.531166	0.420650	-0.124738
H125	H	1.864499	0.753984	0.208596
H126	H	2.197833	1.087317	0.541929
H127	H	1.482307	0.419287	-0.276165
H128	H	1.815641	0.752621	0.057169
H129	H	2.148974	1.085954	0.390502
H130	H	1.377754	0.419512	0.026866
H131	H	1.711087	0.752845	0.360200
H132	H	2.044421	1.086179	0.693533
H133	H	1.384991	0.578740	0.024375
H134	H	1.718324	0.912073	0.357708
H135	H	2.051658	1.245407	0.691042
H136	H	1.264731	0.420974	-0.344726
H137	H	1.598064	0.754307	-0.011393
H138	H	1.931397	1.087641	0.321941
