data_functionalizedCrystal
_audit_creation_method	'MofGen! by Chris Wilmer'
_symmetry_space_group_name_H-M	'P1'
_symmetry_Int_Tables_number	1
_symmetry_cell_setting	triclinic
loop_
_symmetry_equiv_pos_as_xyz
  x,y,z
_cell_length_a	10.908937
_cell_length_b	23.532357
_cell_length_c	10.065875
_cell_angle_alpha	98.726510
_cell_angle_beta	83.441416
_cell_angle_gamma	71.457123
loop_
_atom_site_label
_atom_site_type_symbol
_atom_site_fract_x
_atom_site_fract_y
_atom_site_fract_z
O1	O	1.723923	-0.098229	-0.113509
O2	O	1.349477	-0.053702	-0.113514
O3	O	1.548020	-0.159941	-0.113484
O4	O	1.525380	0.008010	-0.113540
O5	O	1.510160	-0.139615	0.113499
O6	O	1.311616	-0.033377	0.113469
O7	O	1.686062	-0.077904	0.113474
Zn8	Zn	1.492828	-0.052413	0.149510
Zn9	Zn	1.542711	-0.079192	-0.149550
O10	O	1.487519	0.028335	0.113443
C11	C	1.282651	-0.039378	-0.000023
C12	C	1.139936	-0.026986	-0.000023
C13	C	0.944023	-0.059403	-0.000037
C14	C	1.091523	-0.072210	-0.000016
C15	C	1.528523	-0.170942	0.000012
C16	C	1.526817	-0.234002	0.000025
C17	C	1.536774	-0.636114	-0.123777
C18	C	1.535156	-0.695365	-0.123785
O19	O	1.551826	-0.735422	-0.229011
N20	N	1.513716	-0.713923	-0.000058
C21	C	1.493879	-0.673224	0.123684
O22	O	1.475492	-0.694449	0.228923
C23	C	1.495488	-0.613973	0.123691
C24	C	1.516942	-0.595421	-0.000044
C25	C	1.558225	-0.617560	-0.247502
C26	C	1.559846	-0.558314	-0.247494
C27	C	1.540014	-0.517621	-0.123761
C28	C	1.518562	-0.536174	-0.000036
C29	C	1.475642	-0.573274	0.247432
C30	C	1.477251	-0.514020	0.247427
C31	C	1.498706	-0.495467	0.123693
C32	C	1.500351	-0.436235	0.123706
N33	N	1.521791	-0.417677	-0.000021
C34	C	1.541623	-0.458370	-0.123754
C35	C	1.490499	-0.797656	0.123661
C36	C	1.488899	-0.856907	0.123656
C37	C	1.530174	-0.879043	-0.123813
C38	C	1.531783	-0.819792	-0.123807
C39	C	1.511940	-0.779098	-0.000065
C40	C	1.545025	-0.333947	-0.123727
C41	C	1.546649	-0.274695	-0.123708
C42	C	1.505367	-0.252563	0.123761
C43	C	1.503750	-0.311811	0.123742
C44	C	1.523576	-0.352502	-0.000013
O45	O	1.483685	-0.396143	0.228878
O46	O	1.559990	-0.437133	-0.228975
C47	C	1.752889	-0.092228	-0.000021
C48	C	1.895605	-0.104621	-0.000029
C49	C	1.507017	0.039336	-0.000056
C50	C	1.508724	0.102396	-0.000077
N51	N	1.458794	-0.034138	0.353610
N52	N	1.576755	-0.097473	-0.353650
C53	C	1.530861	-0.072837	0.421400
C54	C	1.504678	-0.058768	0.578563
H55	H	0.963352	-0.152816	-0.000016
Cl56	Cl	1.655764	-0.140172	0.331378
Cl57	Cl	1.573625	-0.251378	-0.279272
Cl58	Cl	1.196105	-0.146626	0.000008
H59	H	1.561163	-0.367071	-0.224501
Cl60	Cl	1.583162	-0.668709	-0.403074
Cl61	Cl	1.586806	-0.534999	-0.403055
Cl62	Cl	1.379474	0.008467	0.668580
Cl63	Cl	1.333596	0.033095	0.443632
Cl64	Cl	1.702226	-0.164616	0.556336
Cl65	Cl	1.035361	0.047429	-0.000064
Cl66	Cl	1.558751	-0.796475	-0.279365
H67	H	0.876279	-0.011209	-0.000067
H68	H	1.546318	-0.912186	-0.224564
H69	H	1.471448	-0.872009	0.224414
H70	H	1.474343	-0.764525	0.224433
H71	H	1.458173	-0.588368	0.348190
H72	H	1.461073	-0.480885	0.348195
H73	H	1.486292	-0.326918	0.224497
H74	H	1.489227	-0.219422	0.224501
