data_functionalizedCrystal
_audit_creation_method	'MofGen! by Chris Wilmer'
_symmetry_space_group_name_H-M	'P1'
_symmetry_Int_Tables_number	1
_symmetry_cell_setting	triclinic
loop_
_symmetry_equiv_pos_as_xyz
  x,y,z
_cell_length_a	15.298708
_cell_length_b	13.897447
_cell_length_c	15.296720
_cell_angle_alpha	99.647031
_cell_angle_beta	107.326883
_cell_angle_gamma	99.713397
loop_
_atom_site_label
_atom_site_type_symbol
_atom_site_fract_x
_atom_site_fract_y
_atom_site_fract_z
Zn1	Zn	1.330627	-0.189305	-0.280176
Zn2	Zn	1.357451	-0.316884	-0.124695
Zn3	Zn	1.202043	-0.189368	-0.151557
Zn4	Zn	1.175098	-0.384340	-0.307006
O5	O	1.266305	-0.269974	-0.215859
O6	O	1.464314	-0.177971	-0.237081
O7	O	1.359339	-0.271764	0.001866
O8	O	1.219150	-0.054371	-0.168632
O9	O	1.484022	-0.271703	-0.122850
O10	O	1.313621	-0.054325	-0.263127
O11	O	1.245161	-0.178079	-0.017869
O12	O	1.068340	-0.243489	-0.194647
O13	O	1.173227	-0.386673	-0.433572
O14	O	1.048544	-0.386734	-0.308855
O15	O	1.287493	-0.243381	-0.413860
O16	O	1.333211	-0.460820	-0.148866
O17	O	1.199237	-0.510380	-0.282809
C18	C	1.024701	-0.322439	-0.257578
C19	C	0.921338	-0.344912	-0.275448
C20	C	0.671034	-0.109650	-0.088368
C21	C	0.768148	-0.088531	-0.071580
C22	C	0.806450	-0.152624	-0.122545
C23	C	0.747629	-0.237841	-0.190302
C24	C	0.650504	-0.258958	-0.207098
C25	C	0.785921	-0.301932	-0.241275
C26	C	0.727099	-0.387148	-0.309032
C27	C	0.629984	-0.408262	-0.325824
C28	C	0.591681	-0.344169	-0.274859
C29	C	0.883046	-0.280815	-0.224479
C30	C	0.862516	-0.430122	-0.343209
C31	C	0.765401	-0.451242	-0.359997
C32	C	1.266233	-0.520600	-0.215850
C33	C	1.266282	-0.627808	-0.215863
C34	C	1.266323	-0.714872	-0.215876
C35	C	1.266384	-0.824096	-0.215889
C36	C	1.508852	-0.217305	-0.173977
C37	C	1.612211	-0.194861	-0.156129
C38	C	1.224362	-0.322545	-0.458399
C39	C	1.206489	-0.344947	-0.561756
C40	C	1.266399	-0.018368	-0.215883
C41	C	1.266439	0.088851	-0.215893
C42	C	1.394084	-0.109684	-0.812047
C43	C	1.410883	-0.088637	-0.714938
C44	C	1.359786	-0.152712	-0.676638
C45	C	1.291887	-0.237840	-0.735456
C46	C	1.275092	-0.258894	-0.832574
C47	C	1.240793	-0.301921	-0.697164
C48	C	1.172895	-0.387049	-0.755983
C49	C	1.156102	-0.408099	-0.853092
C50	C	1.207199	-0.344023	-0.891392
C51	C	1.257589	-0.280867	-0.600046
C52	C	1.138596	-0.430077	-0.620573
C53	C	1.121797	-0.451124	-0.717683
C54	C	1.308138	-0.217527	0.025748
C55	C	1.326191	-0.194814	0.129135
H56	H	0.717495	-0.520626	-0.415167
Br57	Br	1.349735	-0.165342	-0.520233
Br58	Br	1.503029	0.026886	-0.635119
Br59	Br	0.938251	-0.123960	-0.099761
H60	H	0.930929	-0.211428	-0.169313
Br61	Br	0.847969	0.027121	0.020364
Br62	Br	0.459877	-0.372825	-0.297645
H63	H	1.435685	-0.057528	-0.843241
Br64	Br	0.914487	-0.517103	-0.412392
H65	H	1.096990	-0.482254	-0.589390
H66	H	1.193525	-0.361156	-0.970466
Br67	Br	1.063973	-0.523645	-0.932913
H68	H	0.639837	-0.057471	-0.046885
H69	H	0.582092	-0.477646	-0.381003
H70	H	1.066513	-0.520436	-0.765587
H71	H	1.373468	-0.135570	-0.597566
