data_functionalizedCrystal
_audit_creation_method	'MofGen! by Chris Wilmer'
_symmetry_space_group_name_H-M	'P1'
_symmetry_Int_Tables_number	1
_symmetry_cell_setting	triclinic
loop_
_symmetry_equiv_pos_as_xyz
  x,y,z
_cell_length_a	17.077404
_cell_length_b	21.295417
_cell_length_c	17.077396
_cell_angle_alpha	89.966808
_cell_angle_beta	89.980499
_cell_angle_gamma	90.030732
loop_
_atom_site_label
_atom_site_type_symbol
_atom_site_fract_x
_atom_site_fract_y
_atom_site_fract_z
Zn1	Zn	1.200013	-0.250605	-0.443817
Zn2	Zn	1.199903	-0.355878	-0.312540
Zn3	Zn	1.068745	-0.250628	-0.312565
Zn4	Zn	1.068695	-0.355841	-0.443764
O5	O	1.134339	-0.303238	-0.378171
O6	O	1.309845	-0.264577	-0.426415
O7	O	1.182479	-0.341942	-0.202697
O8	O	1.086225	-0.162535	-0.330008
O9	O	1.309764	-0.341920	-0.329966
O10	O	1.182667	-0.162519	-0.426439
O11	O	1.086118	-0.264614	-0.202715
O12	O	0.958891	-0.264578	-0.329957
O13	O	1.086140	-0.341857	-0.553618
O14	O	0.958855	-0.341878	-0.426348
O15	O	1.182619	-0.264540	-0.553657
O16	O	1.182431	-0.443963	-0.329915
O17	O	1.086033	-0.443935	-0.426324
C18	C	0.930391	-0.303227	-0.378150
C19	C	0.843141	-0.303237	-0.378159
C20	C	0.802153	-0.343548	-0.428270
C21	C	0.720172	-0.343549	-0.428282
C22	C	0.679182	-0.303242	-0.378180
C23	C	0.720176	-0.262927	-0.328067
C24	C	0.802155	-0.262923	-0.328059
C25	C	0.549306	-0.262940	-0.328086
C26	C	0.467322	-0.262944	-0.328093
C27	C	0.467323	-0.343566	-0.428309
C28	C	0.549302	-0.343562	-0.428301
C29	C	0.590291	-0.303247	-0.378187
C30	C	1.134236	-0.466790	-0.378128
C31	C	1.134264	-0.536758	-0.378136
C32	C	1.184503	-0.569618	-0.327987
C33	C	1.184539	-0.635360	-0.328004
C34	C	1.134323	-0.668240	-0.378163
C35	C	1.084081	-0.635372	-0.428321
C36	C	1.084051	-0.569631	-0.428308
N37	N	1.065655	-0.771506	-0.384140
N38	N	1.065685	-0.833958	-0.384148
C39	C	1.134411	-0.866315	-0.378208
N40	N	1.203107	-0.833862	-0.372244
N41	N	1.203076	-0.771405	-0.372231
C42	C	1.134351	-0.739526	-0.378183
C43	C	1.184694	-0.970461	-0.328075
C44	C	1.184732	-1.036204	-0.328098
C45	C	1.084267	-1.036215	-0.428411
C46	C	1.084236	-0.970473	-0.428392
C47	C	1.134449	-0.937599	-0.378220
C48	C	1.339083	-0.303250	-0.378194
C49	C	1.426333	-0.303255	-0.378203
C50	C	1.134386	-0.303192	-0.582916
C51	C	1.134407	-0.303172	-0.670166
C52	C	1.134464	-0.139048	-0.378232
C53	C	1.134517	-0.069080	-0.378258
C54	C	1.184645	-0.262910	-0.711177
C55	C	1.184654	-0.262889	-0.793158
C56	C	1.134429	-0.303134	-0.834125
C57	C	1.084185	-0.343397	-0.793108
C58	C	1.084172	-0.343415	-0.711129
C59	C	1.084217	-0.343360	-0.963978
C60	C	1.084231	-0.343343	-1.045963
C61	C	1.184699	-0.262834	-1.046007
C62	C	1.184686	-0.262851	-0.964028
C63	C	1.134443	-0.303116	-0.923016
C64	C	1.134337	-0.303239	-0.174224
C65	C	1.134469	-0.303081	-0.086974
H66	H	0.433946	-0.376389	-0.469116
C67	C	1.029530	-0.670954	-0.482866
C68	C	0.985539	-0.628101	-0.526797
C69	C	0.935287	-0.660855	-0.577064
H70	H	0.995286	-0.696644	-0.452900
H71	H	1.059534	-0.696545	-0.517141
H72	H	0.955537	-0.602522	-0.492526
H73	H	1.019762	-0.602410	-0.556779
H74	H	0.965291	-0.686446	-0.611340
H75	H	0.901048	-0.686544	-0.547092
H76	H	0.905438	-0.631785	-0.606883
C77	C	1.239130	-0.934651	-0.273643
C78	C	1.228333	-0.870044	-0.284345
C79	C	1.278459	-0.837038	-0.234209
H80	H	1.291902	-0.945302	-0.285135
H81	H	1.227673	-0.945430	-0.220875
H82	H	1.239797	-0.859269	-0.337101
H83	H	1.175572	-0.859374	-0.272848
H84	H	1.267002	-0.847818	-0.181442
H85	H	1.331228	-0.847695	-0.245705
H86	H	1.271135	-0.793199	-0.241459
C87	C	0.846794	-0.387286	-0.482583
C88	C	0.927362	-0.378669	-0.471839
C89	C	0.968508	-0.418955	-0.521855
H90	H	0.833482	-0.378167	-0.535379
H91	H	0.833374	-0.429584	-0.470992
H92	H	0.940777	-0.336381	-0.483436
H93	H	0.940698	-0.387793	-0.419054
H94	H	0.955087	-0.461253	-0.510264
H95	H	0.955188	-0.409832	-0.574648
H96	H	1.023177	-0.413118	-0.514567
H97	H	1.225453	-0.662120	-0.287167
H98	H	0.686795	-0.230106	-0.287276
H99	H	0.835527	-0.230095	-0.287258
H100	H	1.043255	-0.376194	-0.677738
H101	H	1.043288	-0.376163	-0.826470
C102	C	1.239113	-0.534041	-0.273495
C103	C	1.283134	-0.576895	-0.229596
C104	C	1.333459	-0.544144	-0.179401
H105	H	1.209185	-0.508433	-0.239190
H106	H	1.273329	-0.508369	-0.303535
H107	H	1.248922	-0.602557	-0.199559
H108	H	1.313078	-0.602506	-0.263881
H109	H	1.367675	-0.518472	-0.209441
H110	H	1.303525	-0.518536	-0.145101
H111	H	1.363339	-0.573215	-0.149615
H112	H	1.043331	-0.376113	-1.079316
C113	C	1.239312	-1.071770	-0.273562
C114	C	1.283260	-1.028907	-0.229609
C115	C	1.333539	-1.061648	-0.179354
H116	H	1.273582	-1.097374	-0.303537
H117	H	1.209330	-1.097446	-0.239299
H118	H	1.313240	-1.003241	-0.263867
H119	H	1.249011	-1.003302	-0.199618
H120	H	1.303558	-1.087324	-0.145091
H121	H	1.367804	-1.087250	-0.209335
H122	H	1.363359	-1.032570	-0.149520
C123	C	0.422759	-0.219271	-0.273632
C124	C	0.375649	-0.254846	-0.223223
C125	C	0.334588	-0.214631	-0.173050
H126	H	0.390753	-0.191880	-0.303669
H127	H	0.458872	-0.195257	-0.243742
H128	H	0.339540	-0.278850	-0.253110
H129	H	0.407635	-0.282236	-0.193170
H130	H	0.370701	-0.190616	-0.143160
H131	H	0.302587	-0.187242	-0.203093
H132	H	0.302625	-0.238763	-0.138837
H133	H	1.225565	-0.230105	-0.826546
C134	C	0.593668	-0.219151	-0.273584
C135	C	0.540227	-0.183868	-0.229688
C136	C	0.581064	-0.143536	-0.179462
H137	H	0.625685	-0.191694	-0.303577
H138	H	0.625598	-0.243187	-0.239284
H139	H	0.508310	-0.159834	-0.263984
H140	H	0.508208	-0.211308	-0.199679
H141	H	0.612994	-0.167572	-0.145162
H142	H	0.613079	-0.116083	-0.209461
H143	H	0.544810	-0.119595	-0.149668
C144	C	1.029779	-1.072019	-0.482789
C145	C	1.040546	-1.136626	-0.472058
C146	C	0.990360	-1.169631	-0.522134
H147	H	1.041184	-1.061278	-0.535570
H148	H	0.977020	-1.061328	-0.471244
H149	H	1.093292	-1.147312	-0.483608
H150	H	1.029135	-1.147385	-0.419287
H151	H	0.937601	-1.158940	-0.510589
H152	H	1.001769	-1.158885	-0.574912
H153	H	0.997653	-1.213470	-0.514855
C154	C	1.029595	-0.934905	-0.482862
C155	C	0.985609	-0.977768	-0.526779
C156	C	0.935257	-0.945027	-0.576960
H157	H	1.059501	-0.909214	-0.517157
H158	H	0.995357	-0.909317	-0.452812
H159	H	1.019842	-1.003346	-0.556827
H160	H	0.955687	-1.003461	-0.492505
H161	H	0.901019	-0.919439	-0.546910
H162	H	0.965169	-0.919337	-0.611250
H163	H	0.905402	-0.974105	-0.606759
C164	C	1.239080	-0.219108	-0.666746
C165	C	1.222020	-0.156821	-0.686696
C166	C	1.272142	-0.116450	-0.645776
H167	H	1.291845	-0.228236	-0.680154
H168	H	1.231874	-0.224840	-0.612040
H169	H	1.229233	-0.151091	-0.741390
H170	H	1.169264	-0.147673	-0.673285
H171	H	1.264936	-0.122182	-0.591071
H172	H	1.324904	-0.125583	-0.659189
H173	H	1.260569	-0.074183	-0.659302
H174	H	0.686803	-0.376375	-0.469086
H175	H	1.225588	-0.230084	-0.930675
C176	C	1.029654	-0.387157	-0.919590
C177	C	0.985694	-0.422417	-0.973012
C178	C	0.935442	-0.462782	-0.932151
H179	H	0.995389	-0.363165	-0.887602
H180	H	1.059655	-0.414622	-0.887631
H181	H	0.955695	-0.394955	-1.004958
H182	H	1.019938	-0.446422	-1.005002
H183	H	0.965443	-0.490247	-0.900191
H184	H	0.901183	-0.438785	-0.900164
H185	H	0.905614	-0.486715	-0.968391
H186	H	0.582674	-0.376386	-0.469094
H187	H	1.043140	-0.542876	-0.469146
H188	H	1.225607	-0.230048	-1.079403
