data_functionalizedCrystal
_audit_creation_method	'MofGen! by Chris Wilmer'
_symmetry_space_group_name_H-M	'P1'
_symmetry_Int_Tables_number	1
_symmetry_cell_setting	triclinic
loop_
_symmetry_equiv_pos_as_xyz
  x,y,z
_cell_length_a	6.817900
_cell_length_b	14.858565
_cell_length_c	10.992410
_cell_angle_alpha	93.421726
_cell_angle_beta	108.764651
_cell_angle_gamma	104.523916
loop_
_atom_site_label
_atom_site_type_symbol
_atom_site_fract_x
_atom_site_fract_y
_atom_site_fract_z
V1	V	-4.092572	-0.128670	-0.400951
O2	O	-4.073418	0.006183	-0.392950
O3	O	-4.048847	-0.255131	-0.398564
O4	O	-4.070498	-0.126691	-0.575658
O5	O	-4.051617	-0.123146	-0.214630
V6	V	-4.572183	-0.112540	-0.378623
O7	O	-4.362412	-0.164052	-0.449931
O8	O	-4.752541	-0.077158	-0.329643
O9	O	-4.392702	0.013921	-0.381010
O10	O	-4.708735	-0.247393	-0.386624
O11	O	-4.730535	-0.118064	-0.564944
O12	O	-4.371051	-0.114519	-0.203916
C13	C	-3.894134	-0.285959	-0.392330
C14	C	-3.939846	-0.389343	-0.391542
C15	C	-3.921750	-0.122120	-0.618230
C16	C	-3.985016	-0.121339	-0.761056
C17	C	-4.107159	-0.767914	-0.388676
C18	C	-4.060599	-0.662584	-0.389473
C19	C	-4.023503	-0.578632	-0.390108
C20	C	-3.976941	-0.473295	-0.390907
C21	C	-3.853338	-0.114218	-0.956160
C22	C	-3.787586	-0.115417	-0.807680
C23	C	-4.167585	-0.213035	-0.838416
C24	C	-4.232035	-0.212224	-0.986980
C25	C	-4.139712	-0.034667	-0.948454
C26	C	-4.069076	-0.034232	-0.799440
C27	C	-4.210757	0.044745	-0.387241
C28	C	-4.144285	0.148127	-0.388037
C29	C	-4.183140	-0.119093	-0.161337
C30	C	-4.099112	-0.119870	-0.018510
H31	H	-3.747318	-0.047832	-0.974804
H32	H	-4.316672	-0.220679	-0.809634
H33	H	-4.412693	-0.220197	-1.029634
O34	O	-4.100245	-0.290227	-0.807961
C35	C	-4.162693	-0.435130	-0.719958
C36	C	-4.239175	-0.347749	-0.754358
H37	H	-4.275008	-0.481671	-0.676638
H38	H	-3.991052	-0.412138	-0.646181
H39	H	-4.165476	-0.476306	-0.811689
H40	H	-4.236530	-0.306535	-0.662703
H41	H	-4.410774	-0.370804	-0.828185
H42	H	-3.937250	0.033600	-0.746893
O43	O	-4.030808	0.048472	-0.972269
C44	C	-3.761255	0.197738	-0.881034
C45	C	-3.884487	0.103638	-0.853876
H46	H	-3.642895	0.242358	-0.785335
H47	H	-3.880990	0.236938	-0.931580
H48	H	-3.668544	0.183548	-0.946320
H49	H	-3.977203	0.117744	-0.788558
H50	H	-3.764645	0.064466	-0.803394
O51	O	-3.811090	-0.187141	-1.013731
C52	C	-3.607795	-0.234570	-1.136182
C53	C	-3.655459	-0.151898	-1.071056
H54	H	-3.481932	-0.206106	-1.182522
H55	H	-3.762789	-0.280117	-1.214252
H56	H	-3.543271	-0.278697	-1.059893
H57	H	-3.719925	-0.107700	-1.147249
H58	H	-3.500412	-0.106420	-0.992961
O59	O	-3.623657	-0.036736	-0.744022
C60	C	-3.385163	0.107601	-0.762843
C61	C	-3.570798	0.018526	-0.835091
H62	H	-3.342401	0.152314	-0.836440
H63	H	-3.237581	0.086602	-0.702865
H64	H	-3.438191	0.149862	-0.695719
H65	H	-3.517976	-0.023776	-0.902282
H66	H	-3.718336	0.039589	-0.894986
O67	O	-3.707044	-0.189531	-0.778503
C68	C	-3.620049	-0.322993	-0.859998
C69	C	-3.711352	-0.239101	-0.893223
H70	H	-3.623459	-0.363082	-0.952724
H71	H	-3.722566	-0.371904	-0.813363
H72	H	-3.446365	-0.296053	-0.789278
H73	H	-3.885015	-0.265956	-0.963976
H74	H	-3.608679	-0.190207	-0.939788
O75	O	-4.200285	-0.289208	-1.042187
C76	C	-4.084979	-0.429143	-1.007809
C77	C	-4.120800	-0.341985	-0.945125
H78	H	-4.020754	-0.471848	-0.929367
H79	H	-3.962967	-0.405802	-1.058519
H80	H	-4.244864	-0.474338	-1.081977
H81	H	-3.961027	-0.296752	-0.870902
H82	H	-4.242907	-0.365390	-0.894499
O83	O	-4.352460	-0.038464	-0.997208
C84	C	-4.615231	0.039236	-1.106660
C85	C	-4.374222	0.043677	-1.051462
H86	H	-4.632907	0.105629	-1.150562
H87	H	-4.685317	0.033752	-1.025267
H88	H	-4.705915	-0.025005	-1.185101
H89	H	-4.283360	0.107913	-0.973039
H90	H	-4.304303	0.049110	-1.132928
H91	H	-4.211371	-0.033156	-0.766925
