data_functionalizedCrystal
_audit_creation_method	'MofGen! by Chris Wilmer'
_symmetry_space_group_name_H-M	'P1'
_symmetry_Int_Tables_number	1
_symmetry_cell_setting	triclinic
loop_
_symmetry_equiv_pos_as_xyz
  x,y,z
_cell_length_a	16.120490
_cell_length_b	16.120484
_cell_length_c	10.686551
_cell_angle_alpha	91.292191
_cell_angle_beta	97.502252
_cell_angle_gamma	90.164100
loop_
_atom_site_label
_atom_site_type_symbol
_atom_site_fract_x
_atom_site_fract_y
_atom_site_fract_z
Zn1	Zn	1.299167	-0.355280	0.840275
Zn2	Zn	1.799167	0.144720	1.340275
Zn3	Zn	1.281321	-0.504002	0.639296
Zn4	Zn	1.781321	-0.004002	1.139296
Zn5	Zn	1.148284	-0.358925	0.618002
Zn6	Zn	1.648284	0.141075	1.118002
Zn7	Zn	1.152958	-0.487281	0.839125
Zn8	Zn	1.652958	0.012719	1.339125
O9	O	1.220432	-0.426372	0.734175
O10	O	1.720432	0.073628	1.234175
O11	O	1.413665	-0.380481	0.823008
O12	O	1.913665	0.119519	1.323008
O13	O	1.254249	-0.493280	0.459821
O14	O	1.754249	0.006720	0.959821
O15	O	1.173812	-0.242484	0.639057
O16	O	1.673812	0.257516	1.139057
O17	O	1.400553	-0.489746	0.675350
O18	O	1.900553	0.010254	1.175350
O19	O	1.284665	-0.239806	0.802360
O20	O	1.784665	0.260194	1.302360
O21	O	1.156507	-0.386693	0.444176
O22	O	1.656507	0.113307	0.944176
O23	O	1.032039	-0.370480	0.637941
O24	O	1.532039	0.129520	1.137941
O25	O	1.181777	-0.461247	1.015929
O26	O	1.681777	0.038753	1.515929
O27	O	1.035473	-0.464782	0.800400
O28	O	1.535473	0.035218	1.300400
O29	O	1.289197	-0.364267	1.016774
O30	O	1.789197	0.135733	1.516774
O31	O	1.258780	-0.617741	0.674235
O32	O	1.758780	-0.117741	1.174235
O33	O	1.164473	-0.605456	0.821048
O34	O	1.664473	-0.105456	1.321048
C35	C	1.003454	-0.416212	0.716736
C36	C	1.503454	0.083788	1.216736
C37	C	0.910630	-0.411885	0.709307
C38	C	1.410630	0.088115	1.209307
C39	C	0.701033	-0.448815	0.772712
C40	C	1.201033	0.051185	1.272712
C41	C	0.740685	-0.403991	0.695742
C42	C	1.240685	0.096009	1.195742
C43	C	0.835252	-0.408384	0.703292
C44	C	1.335252	0.091616	1.203292
C45	C	0.606458	-0.444422	0.765164
C46	C	1.106458	0.055578	1.265164
C47	C	1.210221	-0.641665	0.749856
C48	C	1.710221	-0.141665	1.249856
C49	C	1.205931	-0.733770	0.756613
C50	C	1.705931	-0.233770	1.256613
C51	C	1.198105	-0.902406	0.768976
C52	C	1.698105	-0.402406	1.268976
C53	C	1.242910	-0.949504	0.699406
C54	C	1.742910	-0.449504	1.199406
C55	C	1.238556	-1.043339	0.706285
C56	C	1.738556	-0.543339	1.206285
C57	C	1.202459	-0.808562	0.762099
C58	C	1.702459	-0.308562	1.262099
C59	C	1.438258	-0.436572	0.751683
C60	C	1.938258	0.063428	1.251683
C61	C	1.531083	-0.440919	0.759143
C62	C	2.031083	0.059081	1.259143
C63	C	1.237999	-0.410486	1.063436
C64	C	1.737999	0.089514	1.563436
C65	C	1.245485	-0.403716	1.203747
C66	C	1.745485	0.096284	1.703747
C67	C	1.230708	-0.210238	0.718461
C68	C	1.730708	0.289762	1.218461
C69	C	1.235087	-0.118135	0.711765
C70	C	1.735087	0.381865	1.211765
C71	C	1.202985	-0.442139	0.406194
C72	C	1.702985	0.057861	0.906194
C73	C	1.195672	-0.448683	0.265880
C74	C	1.695672	0.051317	0.765880
H75	H	0.738104	-0.490487	0.844272
H76	H	1.238104	0.009513	1.344272
H77	H	1.156479	-0.932555	0.833697
H78	H	1.656479	-0.432555	1.333697
H79	H	1.293865	-0.360039	1.257902
H80	H	1.793865	0.139961	1.757902
O81	O	1.292694	-0.913576	0.622324
O82	O	1.792694	-0.413576	1.122324
C83	C	1.432728	-0.896408	0.570638
C84	C	1.932728	-0.396408	1.070638
C85	C	1.376455	-0.937137	0.658041
C86	C	1.876455	-0.437137	1.158041
H87	H	1.500457	-0.915456	0.599466
H88	H	2.000457	-0.415456	1.099466
H89	H	1.427507	-0.826034	0.578785
H90	H	1.927507	-0.326034	1.078785
H91	H	1.411862	-0.917630	0.468884
H92	H	1.911862	-0.417630	0.968884
H93	H	1.397282	-0.915982	0.759830
H94	H	1.897282	-0.415982	1.259830
H95	H	1.381681	-1.007506	0.649784
H96	H	1.881681	-0.507506	1.149784
H97	H	0.703611	-0.362316	0.624175
H98	H	1.203611	0.137684	1.124175
H99	H	1.147301	-0.492363	1.211732
H100	H	1.647301	0.007637	1.711732
