data_functionalizedCrystal
_audit_creation_method	'MofGen! by Chris Wilmer'
_symmetry_space_group_name_H-M	'P1'
_symmetry_Int_Tables_number	1
_symmetry_cell_setting	triclinic
loop_
_symmetry_equiv_pos_as_xyz
  x,y,z
_cell_length_a	22.863218
_cell_length_b	22.862586
_cell_length_c	22.858745
_cell_angle_alpha	60.006856
_cell_angle_beta	60.013818
_cell_angle_gamma	59.991795
loop_
_atom_site_label
_atom_site_type_symbol
_atom_site_fract_x
_atom_site_fract_y
_atom_site_fract_z
O1	O	0.081006	-0.854581	0.714630
O2	O	0.030492	-0.665350	0.575795
O3	O	0.150314	-0.785089	0.575706
O4	O	-0.038816	-0.734841	0.714718
O5	O	0.190066	-0.745348	0.615369
O6	O	0.070244	-0.625609	0.615458
O7	O	0.120758	-0.814840	0.754293
Zn8	Zn	0.101812	-0.713914	0.691173
Zn9	Zn	0.049438	-0.766275	0.638915
O10	O	0.000936	-0.695100	0.754381
N11	N	0.137558	-0.678184	0.726840
N12	N	0.013698	-0.802011	0.603247
C13	C	0.187224	-0.518558	0.776483
C14	C	0.187235	-0.628552	0.776467
C15	C	0.214753	-0.601061	0.803961
C16	C	0.334724	-0.580392	0.740801
C17	C	0.409718	-0.605392	0.715784
C18	C	0.409746	-0.726732	0.762051
C19	C	0.334754	-0.701730	0.787070
C20	C	0.205297	-0.481049	0.702756
C21	C	0.180267	-0.406048	0.677779
C22	C	0.119099	-0.406071	0.800259
C23	C	0.144128	-0.481071	0.825236
C24	C	0.113501	-0.610437	0.794610
C25	C	0.088492	-0.635428	0.769607
C26	C	0.210943	-0.696652	0.708337
C27	C	0.235956	-0.671660	0.733331
C28	C	0.113585	-0.610461	0.923980
C29	C	0.088635	-0.635476	0.998978
C30	C	0.211128	-0.696714	0.998930
C31	C	0.236077	-0.671700	0.923930
C32	C	0.187303	-0.628571	0.886457
C33	C	0.297246	-0.628559	0.776441
C34	C	-0.117796	-0.823430	0.581283
C35	C	-0.007671	-0.823587	0.471446
C36	C	-0.007879	-0.933535	0.581483
C37	C	-0.007861	-0.823583	0.581554
C38	C	-0.035301	-0.851035	0.553942
N39	N	0.446162	-0.678198	0.726752
O40	O	0.691234	-0.690164	0.550341
O41	O	0.691462	-0.829422	0.739388
O42	O	0.691373	-0.829102	0.619485
O43	O	0.691323	-0.690484	0.670244
O44	O	0.572233	-0.789455	0.659278
O45	O	0.572322	-0.789775	0.779181
O46	O	0.572094	-0.650517	0.590134
Zn47	Zn	0.553292	-0.713851	0.690976
Zn48	Zn	0.710264	-0.766088	0.638547
O49	O	0.572183	-0.650837	0.710037
N50	N	0.817394	-0.801741	0.602763
N51	N	0.137538	-0.369628	0.726874
O52	O	-0.038795	-0.124419	0.714761
O53	O	0.150256	-0.124417	0.575522
O54	O	0.030331	-0.124432	0.575860
O55	O	0.081131	-0.124404	0.714423
O56	O	0.070086	-0.243584	0.615573
O57	O	0.190011	-0.243569	0.615236
O58	O	0.000960	-0.243571	0.754474
Zn59	Zn	0.101797	-0.262488	0.691160
Zn60	Zn	0.049419	-0.105500	0.638836
O61	O	0.120885	-0.243556	0.754137
N62	N	0.013669	0.001640	0.603123
N63	N	0.137749	-0.678230	1.035381
O64	O	0.125655	-0.854547	1.280566
O65	O	-0.013567	-0.665426	1.280590
O66	O	-0.013245	-0.785328	1.280537
O67	O	0.125333	-0.734644	1.280618
O68	O	0.026456	-0.745599	1.161392
O69	O	0.026134	-0.625697	1.161444
O70	O	0.165355	-0.814817	1.161420
Zn71	Zn	0.102048	-0.713949	1.142516
Zn72	Zn	0.049740	-0.766294	1.299495
O73	O	0.165033	-0.694915	1.161473
N74	N	0.014038	-0.802020	1.406629
C75	C	0.045634	-0.621635	0.576499
C76	C	0.194019	-0.769918	0.576389
C77	C	0.105616	-0.858555	0.753588
C78	C	-0.042769	-0.710272	0.753698
C79	C	0.631920	-0.828776	0.783102
C80	C	0.631811	-0.828380	0.634616
C81	C	0.631633	-0.651162	0.546422
C82	C	0.631745	-0.651559	0.694907
C83	C	0.193900	-0.183846	0.576155
C84	C	0.045437	-0.184012	0.576622
C85	C	-0.042734	-0.183994	0.753792
C86	C	0.105780	-0.183977	0.753375
C87	C	-0.012889	-0.621735	1.221020
C88	C	-0.012483	-0.770211	1.220931
C89	C	0.164678	-0.858508	1.220991
C90	C	0.164280	-0.710023	1.221052
H91	H	0.028603	-0.620718	1.029520
H92	H	0.208389	-0.912821	1.220975
C93	C	0.038591	-0.122780	0.457806
C94	C	0.030751	-0.184027	0.517863
H95	H	0.029518	-0.122791	0.421536
H96	H	0.086020	-0.122782	0.440293
H97	H	0.005544	-0.081230	0.470859
H98	H	0.063803	-0.225577	0.504811
H99	H	-0.016684	-0.184031	0.535378
C100	C	0.283097	-0.703280	1.159826
C101	C	0.223058	-0.695393	1.221072
H102	H	0.319385	-0.694252	1.159842
H103	H	0.270040	-0.670225	1.118285
H104	H	0.300592	-0.750718	1.159822
H105	H	0.205561	-0.647953	1.221074
H106	H	0.236117	-0.728449	1.262624
C107	C	-0.131900	-0.557663	1.282259
C108	C	-0.071900	-0.548413	1.221025
H109	H	-0.168331	-0.512397	1.282258
H110	H	-0.118880	-0.579097	1.323808
H111	H	-0.149185	-0.587762	1.282233
H112	H	-0.054611	-0.518318	1.221054
H113	H	-0.084921	-0.526968	1.179465
H114	H	0.034845	-0.567275	0.532897
C115	C	-0.147742	-0.744619	0.831854
C116	C	-0.116102	-0.695817	0.812630
H117	H	-0.193016	-0.735689	0.868232
H118	H	-0.117688	-0.792028	0.849229
H119	H	-0.153991	-0.739226	0.791138
H120	H	-0.109848	-0.701213	0.853344
H121	H	-0.146163	-0.648396	0.795257
H122	H	0.248082	-0.183515	0.532333
H123	H	0.073862	-0.575336	0.893474
C124	C	-0.131305	-0.776936	1.282056
C125	C	-0.071233	-0.784818	1.220832
H126	H	-0.167572	-0.785959	1.281996
H127	H	-0.148809	-0.729509	1.282076
H128	H	-0.118276	-0.810006	1.323616
H129	H	-0.084261	-0.751745	1.179271
H130	H	-0.053727	-0.832252	1.220805
H131	H	-0.097027	-0.183996	0.797505
H132	H	0.296108	-0.686456	0.893383
C133	C	0.334716	-0.754717	0.991336
C134	C	0.264743	-0.744109	1.040114
H135	H	0.367816	-0.783980	1.016764
H136	H	0.341890	-0.709763	0.962092
H137	H	0.341900	-0.777612	0.962081
H138	H	0.257557	-0.721208	1.069366
H139	H	0.257566	-0.789070	1.069370
H140	H	0.631558	-0.607440	0.492131
C141	C	-0.030043	-0.572422	0.832702
C142	C	0.007442	-0.615528	0.789554
H143	H	-0.080079	-0.560143	0.845021
H144	H	-0.017776	-0.530013	0.807264
H145	H	-0.017704	-0.597882	0.875092
H146	H	-0.004893	-0.590066	0.747162
H147	H	-0.004831	-0.657944	0.814992
C148	C	0.693285	-0.947782	0.847092
C149	C	0.632007	-0.887800	0.856395
H150	H	0.693336	-0.984222	0.892340
H151	H	0.734801	-0.934735	0.825648
H152	H	0.693267	-0.965076	0.816986
H153	H	0.632028	-0.870502	0.886497
H154	H	0.590480	-0.900848	0.877849
H155	H	0.116656	-0.183968	0.796904
C156	C	0.280175	-0.841943	0.500945
C157	C	0.267349	-0.784374	0.517455
H158	H	0.325448	-0.850869	0.464564
H159	H	0.243740	-0.830600	0.484493
H160	H	0.280047	-0.883406	0.542580
H161	H	0.267472	-0.742909	0.475821
H162	H	0.303794	-0.795713	0.533904
C163	C	0.334499	-0.754657	0.650289
C164	C	0.264502	-0.744037	0.660926
H165	H	0.367564	-0.783907	0.621014
H166	H	0.341729	-0.777564	0.695229
H167	H	0.341679	-0.709700	0.627398
H168	H	0.257320	-0.788995	0.683822
H169	H	0.257269	-0.721131	0.615977
C170	C	0.631762	-0.861351	0.550049
C171	C	0.631833	-0.887169	0.619958
H172	H	0.631770	-0.897644	0.541003
H173	H	0.673277	-0.848284	0.516992
H174	H	0.590183	-0.820622	0.544746
H175	H	0.673415	-0.927895	0.625259
H176	H	0.590314	-0.900246	0.653024
H177	H	0.116407	-0.912913	0.797192
H178	H	0.073825	-0.575337	0.829731
C179	C	0.693000	-0.617155	0.726290
C180	C	0.631724	-0.592773	0.709568
H181	H	0.692983	-0.580864	0.735345
H182	H	0.734517	-0.628271	0.687191
H183	H	0.693049	-0.658861	0.767681
H184	H	0.631677	-0.551070	0.668173
H185	H	0.590196	-0.581647	0.748670
C186	C	0.342318	-0.824182	0.830278
C187	C	0.293555	-0.754680	0.826242
H188	H	0.316882	-0.856869	0.854459
H189	H	0.371587	-0.836731	0.855823
H190	H	0.371546	-0.826083	0.783287
H191	H	0.264329	-0.752777	0.873234
H192	H	0.264273	-0.742127	0.800699
C193	C	0.494136	-0.833087	0.814213
C194	C	0.450981	-0.807164	0.773727
H195	H	0.519594	-0.882740	0.821418
H196	H	0.464901	-0.826133	0.859271
H197	H	0.527188	-0.807973	0.789399
H198	H	0.417925	-0.832275	0.798543
H199	H	0.480219	-0.814124	0.728661
C200	C	0.402158	-0.482940	0.672554
C201	C	0.450918	-0.552445	0.676603
H202	H	0.427595	-0.450253	0.648360
H203	H	0.372931	-0.481027	0.719535
H204	H	0.372885	-0.470398	0.647008
H205	H	0.480186	-0.564989	0.702153
H206	H	0.480156	-0.554360	0.629613
C207	C	0.250406	-0.489719	0.795549
C208	C	0.293496	-0.499961	0.729119
H209	H	0.224950	-0.440064	0.788335
H210	H	0.279685	-0.507310	0.823009
H211	H	0.217352	-0.514829	0.820351
H212	H	0.326554	-0.474856	0.704320
H213	H	0.264215	-0.482362	0.701649
C214	C	0.263226	-0.473491	0.579180
C215	C	0.252660	-0.522256	0.649169
H216	H	0.292462	-0.498932	0.546097
H217	H	0.286124	-0.444241	0.571970
H218	H	0.218256	-0.444236	0.572005
H219	H	0.297630	-0.551507	0.656346
H220	H	0.229764	-0.551518	0.656382
C221	C	0.335071	-0.629030	0.675907
C222	C	0.317003	-0.691558	0.713398
H223	H	0.385106	-0.641314	0.663601
H224	H	0.309625	-0.599789	0.705178
H225	H	0.322747	-0.603588	0.633510
H226	H	0.329323	-0.716998	0.755798
H227	H	0.342458	-0.720811	0.684126
H228	H	0.194981	-0.375507	0.617742
H229	H	0.084019	-0.375548	0.839959
H230	H	0.129402	-0.511613	0.885274
