data_functionalizedCrystal
_audit_creation_method	'MofGen! by Chris Wilmer'
_symmetry_space_group_name_H-M	'P1'
_symmetry_Int_Tables_number	1
_symmetry_cell_setting	triclinic
loop_
_symmetry_equiv_pos_as_xyz
  x,y,z
_cell_length_a	12.594516
_cell_length_b	18.101398
_cell_length_c	18.101389
_cell_angle_alpha	89.975673
_cell_angle_beta	90.012519
_cell_angle_gamma	89.988680
loop_
_atom_site_label
_atom_site_type_symbol
_atom_site_fract_x
_atom_site_fract_y
_atom_site_fract_z
Zn1	Zn	-0.423988	-1.132198	0.418869
Zn2	Zn	-0.601956	-1.132127	0.295040
Zn3	Zn	-0.423977	-1.008357	0.295030
Zn4	Zn	-0.601910	-1.008341	0.418829
O5	O	-0.512958	-1.070256	0.356942
O6	O	-0.447620	-1.235822	0.402464
O7	O	-0.578361	-1.115686	0.191406
O8	O	-0.275033	-1.024822	0.311470
O9	O	-0.578372	-1.235769	0.311488
O10	O	-0.275041	-1.115808	0.402454
O11	O	-0.447601	-1.024753	0.191399
O12	O	-0.447557	-0.904722	0.311431
O13	O	-0.578294	-1.024794	0.522467
O14	O	-0.578283	-0.904710	0.402386
O15	O	-0.447575	-1.115791	0.522497
O16	O	-0.750896	-1.115669	0.311449
O17	O	-0.750862	-1.024724	0.402395
C18	C	-0.512915	-0.877845	0.356904
C19	C	-0.512922	-0.795531	0.356905
C20	C	-0.789499	-1.070207	0.356935
C21	C	-0.907804	-1.070254	0.356957
C22	C	-0.512931	-1.070299	0.550104
C23	C	-0.512919	-1.070317	0.632418
C24	C	-0.977078	-1.020784	0.406388
C25	C	-1.047918	-1.002743	0.338810
C26	C	-1.047763	-1.088363	0.424546
C27	C	-0.977086	-1.052177	0.289343
C28	C	-0.976925	-1.137829	0.375124
C29	C	-1.047733	-1.119813	0.307500
C30	C	-0.235337	-1.070325	0.356966
C31	C	-0.117032	-1.070354	0.356976
C32	C	-0.513002	-1.263418	0.356981
C33	C	-0.513021	-1.345732	0.356998
C34	C	-0.512988	-0.496440	0.356967
C35	C	-0.430327	-0.527748	0.300020
C36	C	-0.430549	-0.613367	0.299777
C37	C	-0.512954	-0.644823	0.356936
C38	C	-0.625071	-0.613725	0.335619
C39	C	-0.624611	-0.528080	0.335223
C40	C	-0.484507	-0.528050	0.435364
C41	C	-0.482010	-0.613700	0.434936
C42	C	-0.512942	-0.728682	0.356920
C43	C	-0.513008	-0.412581	0.356981
C44	C	-0.512908	-1.070256	0.164532
C45	C	-0.512619	-1.070381	0.082218
C46	C	-0.512720	-1.070360	0.931509
C47	C	-0.594703	-1.012909	0.900166
C48	C	-0.595083	-1.013065	0.814547
C49	C	-0.512819	-1.070338	0.783127
C50	C	-0.543275	-1.148369	0.814235
C51	C	-0.543813	-1.148049	0.899880
C52	C	-0.400099	-1.050458	0.899926
C53	C	-0.400749	-1.048722	0.814275
C54	C	-0.512873	-1.070330	0.699267
C55	C	-0.512668	-1.070373	1.015369
H56	H	-0.946053	-0.978875	0.448129
H57	H	-0.649646	-0.635144	0.278926
H58	H	-0.544714	-0.507804	0.477795
H59	H	-1.078562	-1.161691	0.265658
H60	H	-0.372353	-0.994546	0.921510
H61	H	-1.079125	-0.945643	0.323460
Cl62	Cl	-0.301569	-0.495966	0.320417
Cl63	Cl	-0.565653	-0.923730	0.782069
H64	H	-0.575839	-0.954873	0.920750
Cl65	Cl	-0.722708	-0.645173	0.397657
Cl66	Cl	-0.723954	-1.033396	0.782928
H67	H	-0.945721	-1.194916	0.390507
H68	H	-0.399505	-0.634029	0.451010
Cl69	Cl	-0.360479	-0.494726	0.465288
Cl70	Cl	-1.095700	-1.111948	0.512781
Cl71	Cl	-0.661901	-0.497187	0.246738
Cl72	Cl	-0.568197	-0.646757	0.503956
H73	H	-0.377782	-0.991298	0.793941
Cl74	Cl	-0.929360	-1.028491	0.201080
H75	H	-0.347409	-0.634392	0.313138
Cl76	Cl	-0.722921	-0.496101	0.396463
Cl77	Cl	-0.722787	-1.032952	0.933462
H78	H	-0.626141	-1.164918	0.919869
Cl79	Cl	-0.459044	-0.494470	0.210854
H80	H	-0.336424	-1.087511	0.792886
H81	H	-0.449376	-0.633824	0.241685
Cl82	Cl	-0.455566	-1.216338	0.931899
Cl83	Cl	-0.453983	-1.216236	0.782819
H84	H	-0.624728	-1.165530	0.792798
H85	H	-0.339017	-1.092302	0.920197
