data_functionalizedCrystal
_audit_creation_method	'MofGen! by Chris Wilmer'
_symmetry_space_group_name_H-M	'P1'
_symmetry_Int_Tables_number	1
_symmetry_cell_setting	triclinic
loop_
_symmetry_equiv_pos_as_xyz
  x,y,z
_cell_length_a	27.732048
_cell_length_b	26.210047
_cell_length_c	27.732048
_cell_angle_alpha	89.999521
_cell_angle_beta	97.357345
_cell_angle_gamma	90.003465
loop_
_atom_site_label
_atom_site_type_symbol
_atom_site_fract_x
_atom_site_fract_y
_atom_site_fract_z
O1	O	0.640931	0.042369	-0.057510
O2	O	1.140931	0.542369	0.442490
O3	O	0.500138	0.042385	-0.066256
O4	O	1.000138	0.542385	0.433744
O5	O	0.574907	0.042367	0.008514
O6	O	1.074907	0.542367	0.508514
O7	O	0.566162	0.042387	-0.132279
O8	O	1.066162	0.542387	0.367721
O9	O	0.574893	-0.042491	0.008502
O10	O	1.074893	0.457509	0.508502
O11	O	0.500123	-0.042473	-0.066267
O12	O	1.000123	0.457527	0.433733
O13	O	0.640917	-0.042489	-0.057522
O14	O	1.140917	0.457511	0.442478
Cu15	Cu	0.570519	-0.050229	-0.061896
Cu16	Cu	1.070519	0.449771	0.438104
Cu17	Cu	0.570536	0.050125	-0.061882
Cu18	Cu	1.070536	0.550125	0.438118
O19	O	0.566147	-0.042471	-0.132291
O20	O	1.066147	0.457529	0.367709
C21	C	0.482124	-0.000042	-0.066078
C22	C	0.982124	0.499958	0.433922
C23	C	0.428469	-0.000036	-0.065525
C24	C	0.928469	0.499964	0.434475
N25	N	0.570510	-0.120813	-0.061905
N26	N	1.070510	0.379187	0.438095
C27	C	0.089654	-0.000053	-0.106229
C28	C	0.589654	0.499947	0.393771
C29	C	-0.112006	-0.000057	-0.104178
C30	C	0.387994	0.499943	0.395822
O31	O	-0.143262	-0.000074	-0.141398
O32	O	0.356738	0.499926	0.358602
N33	N	-0.131130	-0.000063	-0.059843
N34	N	0.368870	0.499937	0.440157
C35	C	-0.099835	-0.000071	-0.016017
C36	C	0.400165	0.499929	0.483983
O37	O	-0.120728	-0.000081	0.021740
O38	O	0.379272	0.499919	0.521740
C39	C	0.101824	-0.000069	-0.018068
C40	C	0.601824	0.499931	0.481932
C41	C	0.120944	-0.000059	-0.062407
C42	C	0.620944	0.499941	0.437593
C43	C	0.108775	-0.000043	-0.150563
C44	C	0.608775	0.499957	0.349437
C45	C	0.159187	-0.000039	-0.151076
C46	C	0.659187	0.499961	0.348924
C47	C	0.190477	-0.000045	-0.107253
C48	C	0.690477	0.499955	0.392747
C49	C	0.171356	-0.000055	-0.062919
C50	C	0.671356	0.499945	0.437081
C51	C	0.133117	-0.000081	0.025757
C52	C	0.633117	0.499919	0.525757
C53	C	0.183535	-0.000082	0.025240
C54	C	0.683535	0.499918	0.525240
C55	C	0.202655	-0.000071	-0.019098
C56	C	0.702655	0.499929	0.480902
C57	C	0.253059	-0.000057	-0.019609
C58	C	0.753059	0.499943	0.480391
N59	N	0.272183	-0.000051	-0.063944
N60	N	0.772183	0.499949	0.436056
C61	C	0.240892	-0.000045	-0.107766
C62	C	0.740892	0.499955	0.392234
C63	C	-0.205709	-0.000070	-0.014943
C64	C	0.294291	0.499930	0.485057
C65	C	-0.256124	-0.000070	-0.014430
C66	C	0.243876	0.499930	0.485570
C67	C	-0.268291	-0.000057	-0.102591
C68	C	0.231709	0.499943	0.397409
C69	C	-0.217876	-0.000054	-0.103104
C70	C	0.282124	0.499946	0.396896
C71	C	-0.186585	-0.000065	-0.059278
C72	C	0.313415	0.499935	0.440722
C73	C	0.346761	-0.000036	-0.108839
C74	C	0.846761	0.499964	0.391161
C75	C	0.397178	-0.000030	-0.109347
C76	C	0.897178	0.499970	0.390653
C77	C	0.409341	-0.000045	-0.021186
C78	C	0.909341	0.499955	0.478814
C79	C	0.358929	-0.000049	-0.020678
C80	C	0.858929	0.499951	0.479322
C81	C	0.327639	-0.000046	-0.064508
C82	C	0.827639	0.499954	0.435492
O83	O	0.284343	-0.000046	0.017592
O84	O	0.784343	0.499954	0.517592
O85	O	0.261794	-0.000047	-0.145518
O86	O	0.761794	0.499953	0.354482
C87	C	0.039242	-0.000057	-0.105716
C88	C	0.539242	0.499943	0.394284
C89	C	0.020120	-0.000067	-0.061382
C90	C	0.520120	0.499933	0.438618
C91	C	0.051411	-0.000073	-0.017560
C92	C	0.551411	0.499927	0.482440
C93	C	-0.030294	-0.000066	-0.060869
C94	C	0.469706	0.499934	0.439131
C95	C	-0.061585	-0.000060	-0.104691
C96	C	0.438415	0.499940	0.395309
C97	C	-0.042461	-0.000054	-0.149026
C98	C	0.457539	0.499946	0.350974
C99	C	0.007951	-0.000050	-0.149539
C100	C	0.507951	0.499950	0.350461
C101	C	0.032287	-0.000078	0.026775
C102	C	0.532287	0.499922	0.526775
C103	C	-0.018125	-0.000082	0.027284
C104	C	0.481875	0.499918	0.527284
C105	C	-0.049416	-0.000076	-0.016538
C106	C	0.450584	0.499924	0.483462
C107	C	0.603640	-0.473336	-0.028781
C108	C	1.103640	0.026664	0.471219
C109	C	0.603651	-0.686994	-0.028774
C110	C	1.103651	-0.186994	0.471226
O111	O	0.631801	-0.714623	-0.000614
O112	O	1.131801	-0.214623	0.499386
N113	N	0.570538	-0.713707	-0.061871
N114	N	1.070538	-0.213707	0.438129
C115	C	0.537419	-0.687003	-0.094970
C116	C	1.037419	-0.187003	0.405030
O117	O	0.509251	-0.714626	-0.123117
O118	O	1.009251	-0.214626	0.376883
C119	C	0.537406	-0.473345	-0.094974
C120	C	1.037406	0.026655	0.405026
C121	C	0.570524	-0.446635	-0.061878
C122	C	1.070524	0.053365	0.438122
C123	C	0.636755	-0.446625	0.004312
C124	C	1.136755	0.053375	0.504312
C125	C	0.636754	-0.393214	0.004308
C126	C	1.136754	0.106786	0.504308
C127	C	0.603638	-0.366513	-0.028789
C128	C	1.103638	0.133487	0.471211
C129	C	0.570523	-0.393223	-0.061882
C130	C	1.070523	0.106777	0.438118
C131	C	0.504284	-0.446641	-0.128070
C132	C	1.004284	0.053359	0.371930
C133	C	0.504283	-0.393223	-0.128067
C134	C	1.004283	0.106777	0.371933
C135	C	0.537401	-0.366513	-0.094971
C136	C	1.037401	0.133487	0.405029
C137	C	0.537405	-0.313111	-0.094983
C138	C	1.037405	0.186889	0.405017
N139	N	0.570518	-0.286397	-0.061886
N140	N	1.070518	0.213603	0.438114
C141	C	0.603634	-0.313098	-0.028789
C142	C	1.103634	0.186902	0.471211
C143	C	0.537428	-0.799176	-0.094966
C144	C	1.037428	-0.299176	0.405034
C145	C	0.537432	-0.852590	-0.094965
C146	C	1.037432	-0.352590	0.405035
C147	C	0.603664	-0.852578	-0.028769
C148	C	1.103664	-0.352578	0.471231
C149	C	0.603662	-0.799163	-0.028773
C150	C	1.103662	-0.299163	0.471227
C151	C	0.570541	-0.772463	-0.061869
C152	C	1.070541	-0.272463	0.438131
C153	C	0.603629	-0.200931	-0.028800
C154	C	1.103629	0.299069	0.471200
C155	C	0.603626	-0.147514	-0.028808
C156	C	1.103626	0.352486	0.471192
C157	C	0.537393	-0.147531	-0.095002
C158	C	1.037393	0.352469	0.404998
C159	C	0.537397	-0.200943	-0.094996
C160	C	1.037397	0.299057	0.405004
C161	C	0.570517	-0.227641	-0.061891
C162	C	1.070517	0.272359	0.438109
O163	O	0.509267	-0.285449	-0.123125
O164	O	1.009267	0.214551	0.376875
O165	O	0.631790	-0.285466	-0.000639
O166	O	1.131790	0.214534	0.499361
C167	C	0.603641	-0.526747	-0.028777
C168	C	1.103641	-0.026747	0.471223
C169	C	0.570527	-0.553457	-0.061871
C170	C	1.070527	-0.053457	0.438129
C171	C	0.537410	-0.526756	-0.094968
C172	C	1.037410	-0.026756	0.405032
C173	C	0.570530	-0.606872	-0.061870
C174	C	1.070530	-0.106872	0.438130
C175	C	0.603646	-0.633573	-0.028773
C176	C	1.103646	-0.133573	0.471227
C177	C	0.636759	-0.606859	0.004323
C178	C	1.136759	-0.106859	0.504323
C179	C	0.636758	-0.553448	0.004320
C180	C	1.136758	-0.053448	0.504320
C181	C	0.504298	-0.553470	-0.128064
C182	C	1.004298	-0.053470	0.371936
C183	C	0.504302	-0.606881	-0.128058
C184	C	1.004302	-0.106881	0.371942
C185	C	0.537418	-0.633582	-0.094961
C186	C	1.037418	-0.133582	0.405039
C187	C	0.658931	-0.000061	-0.057699
C188	C	1.158931	0.499939	0.442301
C189	C	0.712586	-0.000064	-0.058252
C190	C	1.212586	0.499936	0.441748
C191	C	0.574716	-0.000064	0.026515
C192	C	1.074716	0.499936	0.526515
C193	C	0.574164	-0.000068	0.080170
C194	C	1.074164	0.499932	0.580170
N195	N	0.570548	0.120709	-0.061868
N196	N	1.070548	0.620709	0.438132
C197	C	0.566338	-0.000040	-0.150292
C198	C	1.066338	0.499960	0.349708
C199	C	0.566891	-0.000032	-0.203947
C200	C	1.066891	0.499968	0.296053
C201	C	0.614867	-0.000046	0.418985
C202	C	1.114867	0.499954	0.918985
C203	C	0.612816	-0.000039	0.620645
C204	C	1.112816	0.499961	1.120645
O205	O	0.650037	-0.000021	0.651900
O206	O	1.150037	0.499979	1.151900
N207	N	0.568481	-0.000034	0.639768
N208	N	1.068481	0.499966	1.139768
C209	C	0.524656	-0.000028	0.608474
C210	C	1.024656	0.499972	1.108474
O211	O	0.486899	-0.000019	0.629367
O212	O	0.986899	0.499981	1.129367
C213	C	0.526707	-0.000032	0.406815
C214	C	1.026707	0.499968	0.906815
C215	C	0.571045	-0.000042	0.387694
C216	C	1.071045	0.499958	0.887694
C217	C	0.659202	-0.000056	0.399864
C218	C	1.159202	0.499944	0.899864
C219	C	0.659714	-0.000060	0.349452
C220	C	1.159714	0.499940	0.849452
C221	C	0.615892	-0.000056	0.318161
C222	C	1.115892	0.499944	0.818161
C223	C	0.571557	-0.000046	0.337282
C224	C	1.071557	0.499954	0.837282
C225	C	0.482882	-0.000022	0.375521
C226	C	0.982882	0.499978	0.875521
C227	C	0.483399	-0.000022	0.325104
C228	C	0.983399	0.499978	0.825104
C229	C	0.527737	-0.000032	0.305983
C230	C	1.027737	0.499968	0.805983
C231	C	0.528247	-0.000046	0.255580
C232	C	1.028247	0.499954	0.755580
N233	N	0.572583	-0.000051	0.236456
N234	N	1.072583	0.499949	0.736456
C235	C	0.616405	-0.000056	0.267747
C236	C	1.116405	0.499944	0.767747
C237	C	0.523582	-0.000027	0.714348
C238	C	1.023582	0.499973	1.214348
C239	C	0.523069	-0.000027	0.764762
C240	C	1.023069	0.499973	1.264762
C241	C	0.611230	-0.000037	0.776930
C242	C	1.111230	0.499963	1.276930
C243	C	0.611742	-0.000041	0.726514
C244	C	1.111742	0.499959	1.226514
C245	C	0.567917	-0.000032	0.695224
C246	C	1.067917	0.499968	1.195224
C247	C	0.617477	-0.000066	0.161878
C248	C	1.117477	0.499934	0.661878
C249	C	0.617986	-0.000073	0.111461
C250	C	1.117986	0.499927	0.611461
C251	C	0.529825	-0.000060	0.099298
C252	C	1.029825	0.499940	0.599298
C253	C	0.529316	-0.000056	0.149710
C254	C	1.029316	0.499944	0.649710
C255	C	0.573147	-0.000057	0.180999
C256	C	1.073147	0.499943	0.680999
O257	O	0.491047	-0.000059	0.224296
O258	O	0.991047	0.499941	0.724296
O259	O	0.654156	-0.000054	0.246844
O260	O	1.154156	0.499946	0.746844
C261	C	0.614355	-0.000042	0.469397
C262	C	1.114355	0.499958	0.969397
C263	C	0.570021	-0.000033	0.488518
C264	C	1.070021	0.499967	0.988518
C265	C	0.526198	-0.000028	0.457228
C266	C	1.026198	0.499972	0.957228
C267	C	0.569508	-0.000033	0.538933
C268	C	1.069508	0.499967	1.038933
C269	C	0.613330	-0.000037	0.570223
C270	C	1.113330	0.499963	1.070223
C271	C	0.657665	-0.000042	0.551100
C272	C	1.157665	0.499958	1.051100
C273	C	0.658177	-0.000046	0.500688
C274	C	1.158177	0.499954	1.000688
C275	C	0.481863	-0.000023	0.476351
C276	C	0.981863	0.499977	0.976351
C277	C	0.481355	-0.000019	0.526764
C278	C	0.981355	0.499981	1.026764
C279	C	0.525177	-0.000024	0.558054
C280	C	1.025177	0.499976	1.058054
H281	H	0.412743	-0.000021	-0.145454
H282	H	0.912743	0.499979	0.354546
F283	F	0.442651	-0.000053	0.025450
F284	F	0.942651	0.499947	0.525450
F285	F	0.672006	-0.525027	0.039545
F286	F	1.172006	-0.025027	0.539545
F287	F	0.435219	-0.000017	0.443055
F288	F	0.935219	0.499983	0.943055
H289	H	0.694889	-0.000058	0.425336
H290	H	1.194889	0.499942	0.925336
F291	F	0.313468	-0.000034	-0.155488
F292	F	0.813468	0.499966	0.344512
F293	F	0.469029	-0.364811	-0.163293
F294	F	0.969029	0.135189	0.336707
F295	F	0.179530	-0.000030	-0.198267
F296	F	0.679530	0.499970	0.301733
H297	H	0.654093	-0.000082	0.095896
H298	H	1.154093	0.499918	0.595896
H299	H	0.630629	-0.777418	-0.001823
H300	H	1.130629	-0.277418	0.498177
H301	H	0.493213	-0.000062	0.165279
H302	H	0.993213	0.499938	0.665279
F303	F	0.434160	-0.000012	0.547107
F304	F	0.934160	0.499988	1.047107
H305	H	0.663725	-0.628608	0.031271
H306	H	1.163725	-0.128608	0.531271
F307	F	0.476933	-0.000018	0.681052
F308	F	0.976933	0.499982	1.181052
F309	F	0.469035	-0.475059	-0.163294
F310	F	0.969035	0.024941	0.336706
H311	H	0.695819	-0.000066	0.333889
H312	H	1.195819	0.499934	0.833889
F313	F	-0.172413	-0.000081	0.031705
F314	F	0.327587	0.499919	0.531705
F315	F	0.436752	-0.000011	0.291805
F316	F	0.936752	0.499989	0.791805
F317	F	0.075480	-0.000036	-0.197209
F318	F	0.575480	0.499964	0.302791
F319	F	0.216833	-0.000094	0.071886
F320	F	0.716833	0.499906	0.571886
F321	F	-0.197531	-0.000044	-0.150294
F322	F	0.302469	0.499956	0.349706
F323	F	0.705368	-0.000054	0.480345
F324	F	1.205368	0.499946	0.980345
H325	H	-0.293777	-0.000053	-0.138273
H326	H	0.206223	0.499947	0.361727
H327	H	0.510432	-0.125783	-0.121951
H328	H	1.010432	0.374217	0.378049
H329	H	0.653168	-0.000065	0.187348
H330	H	1.153168	0.499935	0.687348
H331	H	0.646911	-0.000041	0.802415
H332	H	1.146911	0.499959	1.302415
F333	F	-0.276468	-0.000070	0.032761
F334	F	0.223532	0.499930	0.532761
F335	F	0.469053	-0.635303	-0.163288
F336	F	0.969053	-0.135303	0.336712
H337	H	0.117558	-0.000090	0.061861
H338	H	0.617558	0.499910	0.561861
F339	F	0.469049	-0.525058	-0.163292
F340	F	0.969049	-0.025058	0.336708
F341	F	0.338578	-0.000060	0.026511
F342	F	0.838578	0.499940	0.526511
H343	H	0.630629	-0.874327	-0.001821
H344	H	1.130629	-0.374327	0.498179
F345	F	0.658932	-0.000051	0.706169
F346	F	1.158932	0.499949	1.206169
F347	F	0.502189	-0.881012	-0.130196
F348	F	1.002189	-0.381012	0.369804
F349	F	0.502175	-0.770765	-0.130195
F350	F	1.002175	-0.270765	0.369805
F351	F	0.483189	-0.000055	0.065987
F352	F	0.983189	0.499945	0.565987
F353	F	0.475878	-0.000026	0.785106
F354	F	0.975878	0.499974	1.285106
F355	F	0.028294	-0.000039	-0.196730
F356	F	0.528294	0.499961	0.303270
F357	F	0.502154	-0.229369	-0.130225
F358	F	1.002154	0.270631	0.369775
H359	H	0.057760	-0.000085	0.062462
H360	H	0.557760	0.499915	0.562462
F361	F	-0.075772	-0.000045	-0.195665
F362	F	0.424228	0.499955	0.304335
H363	H	0.446777	-0.000011	0.391080
H364	H	0.946777	0.499989	0.891080
H365	H	-0.033688	-0.000086	0.063392
H366	H	0.466312	0.499914	0.563392
F367	F	0.638877	-0.119090	0.006417
F368	F	1.138877	0.380910	0.506417
F369	F	0.704304	-0.000049	0.584410
F370	F	1.204304	0.499951	1.084410
H371	H	0.663720	-0.371469	0.031259
H372	H	1.163720	0.128531	0.531259
F373	F	0.638879	-0.229337	0.006434
F374	F	1.138879	0.270663	0.506434
H375	H	0.663722	-0.468360	0.031266
H376	H	1.163722	0.031640	0.531266
