data_functionalizedCrystal
_audit_creation_method	'MofGen! by Chris Wilmer'
_symmetry_space_group_name_H-M	'P1'
_symmetry_Int_Tables_number	1
_symmetry_cell_setting	triclinic
loop_
_symmetry_equiv_pos_as_xyz
  x,y,z
_cell_length_a	16.625548
_cell_length_b	13.032721
_cell_length_c	16.625539
_cell_angle_alpha	82.846360
_cell_angle_beta	89.979432
_cell_angle_gamma	82.794397
loop_
_atom_site_label
_atom_site_type_symbol
_atom_site_fract_x
_atom_site_fract_y
_atom_site_fract_z
Zn1	Zn	1.191923	0.416011	-0.496664
Zn2	Zn	1.691923	0.916011	0.003336
Zn3	Zn	1.174704	0.590777	-0.378952
Zn4	Zn	1.674704	1.090777	0.121048
Zn5	Zn	1.057081	0.416050	-0.361848
Zn6	Zn	1.557081	0.916050	0.138152
Zn7	Zn	1.039939	0.590717	-0.513736
Zn8	Zn	1.539939	1.090717	-0.013736
O9	O	1.115912	0.503389	-0.437800
O10	O	1.615912	1.003389	0.062200
O11	O	1.302470	0.439202	-0.481062
O12	O	1.802470	0.939202	0.018938
O13	O	1.159069	0.567641	-0.263855
O14	O	1.659069	1.067641	0.236145
O15	O	1.089348	0.269806	-0.365429
O16	O	1.589348	0.769806	0.134571
O17	O	1.289820	0.567603	-0.394580
O18	O	1.789820	1.067603	0.105420
O19	O	1.188416	0.269777	-0.464477
O20	O	1.688416	0.769777	0.035523
O21	O	1.072652	0.439270	-0.251289
O22	O	1.572652	0.939270	0.248711
O23	O	0.941975	0.439212	-0.381983
O24	O	1.441975	0.939212	0.118017
O25	O	1.060132	0.567500	-0.624300
O26	O	1.560132	1.067500	-0.124300
O27	O	0.929381	0.567539	-0.493575
O28	O	1.429381	1.067539	0.006425
O29	O	1.171794	0.439144	-0.611757
O30	O	1.671794	0.939144	-0.111757
O31	O	1.142447	0.737009	-0.411134
O32	O	1.642447	1.237009	0.088866
O33	O	1.043435	0.736965	-0.510160
O34	O	1.543435	1.236965	-0.010160
C35	C	1.089234	0.774905	-0.464373
C36	C	1.589234	1.274905	0.035627
C37	C	1.077895	0.891061	-0.475768
C38	C	1.577895	1.391061	0.024232
C39	C	0.906422	0.503374	-0.437776
C40	C	1.406422	1.003374	0.062224
C41	C	0.816799	0.503393	-0.437787
C42	C	1.316799	1.003393	0.062213
C43	C	1.115972	0.503311	-0.648101
C44	C	1.615972	1.003311	-0.148101
C45	C	1.115997	0.503278	-0.737719
C46	C	1.615997	1.003278	-0.237719
C47	C	0.488623	0.503400	-0.437823
C48	C	0.988623	1.003400	0.062177
C49	C	0.579932	0.503395	-0.437810
C50	C	1.079932	1.003395	0.062190
C51	C	0.652708	0.503397	-0.437804
C52	C	1.152708	1.003397	0.062196
C53	C	0.744023	0.503391	-0.437793
C54	C	1.244023	1.003391	0.062207
C55	C	1.326219	0.503405	-0.437825
C56	C	1.826219	1.003405	0.062175
C57	C	1.415839	0.503411	-0.437835
C58	C	1.915839	1.003411	0.062165
C59	C	1.142715	0.230813	-0.411141
C60	C	1.642715	0.730813	0.088859
C61	C	1.154137	0.114657	-0.399780
C62	C	1.654137	0.614657	0.100220
C63	C	1.121872	0.942834	-0.431889
C64	C	1.621872	1.442834	0.068111
C65	C	1.110154	1.062887	-0.443665
C66	C	1.610154	1.562887	0.056335
C67	C	1.116046	0.503161	-1.065884
C68	C	1.616046	1.003161	-0.565884
C69	C	1.116030	0.503197	-0.974579
C70	C	1.616030	1.003197	-0.474579
C71	C	1.116022	0.503220	-0.901805
C72	C	1.616022	1.003220	-0.401805
C73	C	1.116005	0.503255	-0.810494
C74	C	1.616005	1.003255	-0.310494
C75	C	1.115906	0.503391	-0.228310
C76	C	1.615906	1.003391	0.271690
C77	C	1.116065	0.503130	-0.138663
C78	C	1.616065	1.003130	0.361337
H79	H	1.168201	0.898282	-0.385607
H80	H	1.668201	1.398282	0.114393
C81	C	1.048106	1.230307	-0.505724
C82	C	1.548106	1.730307	-0.005724
C83	C	1.047610	1.123018	-0.506153
C84	C	1.547610	1.623018	-0.006153
H85	H	1.009491	1.267428	-0.544297
H86	H	1.509491	1.767428	-0.044297
H87	H	1.100547	1.248064	-0.519306
H88	H	1.600547	1.748064	-0.019306
H89	H	1.034602	1.248193	-0.453277
H90	H	1.534602	1.748193	0.046723
H91	H	1.061119	1.105131	-0.558599
H92	H	1.561119	1.605131	-0.058599
H93	H	0.995156	1.105254	-0.492576
H94	H	1.495156	1.605254	0.007424
C95	C	1.177304	0.991871	-0.279365
C96	C	1.677304	1.491871	0.220635
C97	C	1.216680	1.054532	-0.337289
C98	C	1.716680	1.554532	0.162711
H99	H	1.215915	0.954760	-0.240783
H100	H	1.715915	1.454760	0.259217
H101	H	1.151243	0.943834	-0.305368
H102	H	1.651243	1.443834	0.194632
H103	H	1.138057	1.034530	-0.252650
H104	H	1.638057	1.534530	0.247350
H105	H	1.255923	1.011872	-0.364007
H106	H	1.755923	1.511872	0.135993
H107	H	1.242754	1.102575	-0.311283
H108	H	1.742754	1.602575	0.188717
H109	H	1.031573	0.935614	-0.522056
H110	H	1.531573	1.435614	-0.022056
