data_functionalizedCrystal
_audit_creation_method	'MofGen! by Chris Wilmer'
_symmetry_space_group_name_H-M	'P1'
_symmetry_Int_Tables_number	1
_symmetry_cell_setting	triclinic
loop_
_symmetry_equiv_pos_as_xyz
  x,y,z
_cell_length_a	25.639242
_cell_length_b	14.908571
_cell_length_c	14.908308
_cell_angle_alpha	89.824947
_cell_angle_beta	93.271885
_cell_angle_gamma	93.303821
loop_
_atom_site_label
_atom_site_type_symbol
_atom_site_fract_x
_atom_site_fract_y
_atom_site_fract_z
Zn1	Zn	0.272858	1.345463	0.587621
Zn2	Zn	0.355559	1.354094	0.437273
Zn3	Zn	0.262815	1.203772	0.428617
Zn4	Zn	0.354938	1.195122	0.578924
O5	O	0.311543	1.274613	0.508109
O6	O	0.288291	1.472437	0.574939
O7	O	0.339313	1.341386	0.310299
O8	O	0.190983	1.222576	0.449726
O9	O	0.349051	1.478778	0.464479
O10	O	0.198361	1.326676	0.566546
O11	O	0.271175	1.230945	0.303940
O12	O	0.270573	1.076796	0.441294
O13	O	0.347993	1.207832	0.705903
O14	O	0.338255	1.070441	0.551724
O15	O	0.287689	1.318288	0.712292
O16	O	0.428641	1.332998	0.456046
O17	O	0.428185	1.216202	0.560117
C18	C	0.303257	1.040992	0.494626
C19	C	0.299726	0.941047	0.488880
C20	C	0.363666	0.746679	0.592918
C21	C	0.360350	0.652771	0.587522
C22	C	0.289774	0.659322	0.472697
C23	C	0.293091	0.753230	0.478093
C24	C	0.330038	0.796905	0.538205
C25	C	0.333357	0.890814	0.543596
C26	C	0.262779	0.897364	0.428775
C27	C	0.259463	0.803456	0.423379
C28	C	0.175171	1.274628	0.508141
C29	C	0.117058	1.274634	0.508154
C30	C	-0.134366	1.213838	0.562320
C31	C	-0.079762	1.213831	0.562321
O32	O	-0.051722	1.162094	0.608377
N33	N	-0.052216	1.274641	0.508142
C34	C	-0.079278	1.335456	0.453951
O35	O	-0.050835	1.387178	0.407867
C36	C	-0.133882	1.335457	0.453947
C37	C	-0.161424	1.274650	0.508136
C38	C	-0.161908	1.153034	0.616505
C39	C	-0.216509	1.153042	0.616506
C40	C	-0.243566	1.213854	0.562321
C41	C	-0.216024	1.274658	0.508137
C42	C	-0.160943	1.396267	0.399752
C43	C	-0.215550	1.396263	0.399751
C44	C	-0.243092	1.335455	0.453941
C45	C	-0.297682	1.335477	0.453953
N46	N	-0.325228	1.274667	0.508133
C47	C	-0.298170	1.213856	0.562317
C48	C	0.035393	1.335446	0.453964
C49	C	0.089995	1.335450	0.453973
C50	C	0.089508	1.213824	0.562342
C51	C	0.034904	1.213826	0.562337
C52	C	0.007847	1.274636	0.508144
C53	C	-0.412834	1.213878	0.562314
C54	C	-0.467439	1.213894	0.562313
C55	C	-0.466947	1.335516	0.453941
C56	C	-0.412347	1.335504	0.453945
C57	C	-0.385292	1.274677	0.508135
O58	O	-0.325757	1.387186	0.407918
O59	O	-0.326621	1.162134	0.608385
C60	C	0.447385	1.274621	0.508098
C61	C	0.505503	1.274705	0.508128
C62	C	0.318892	1.261132	0.742635
C63	C	0.322024	1.255388	0.842576
C64	C	0.319861	1.509146	0.521644
C65	C	0.323406	1.609090	0.527412
C66	C	0.304186	1.288093	0.274498
C67	C	0.300913	1.294012	0.174567
C68	C	0.265102	1.359607	1.037031
C69	C	0.268043	1.354213	1.130935
C70	C	0.330843	1.239199	1.124289
C71	C	0.327902	1.244594	1.030385
C72	C	0.295031	1.304801	0.986760
C73	C	0.292093	1.310200	0.892854
C74	C	0.354891	1.195183	0.886210
C75	C	0.357832	1.189788	0.980114
H76	H	0.363442	0.926373	0.592540
Cl77	Cl	0.220506	0.960511	0.359981
H78	H	-0.238931	1.103525	0.660629
Cl79	Cl	-0.126332	1.472715	0.331622
H80	H	0.111548	1.164307	0.606461
Cl81	Cl	0.372159	1.163511	1.179148
H82	H	-0.489862	1.164377	0.606444
H83	H	0.238340	1.408635	1.001511
H84	H	-0.139884	1.103510	0.660629
Cl85	Cl	0.410118	0.801588	0.668475
H86	H	0.229380	0.767883	0.374440
Cl87	Cl	-0.378831	1.137409	0.630439
H88	H	0.384593	1.140768	1.015647
H89	H	0.112416	1.384975	0.409857
Cl90	Cl	0.000285	1.137377	0.630461
Cl91	Cl	0.001384	1.411911	0.385838
Cl92	Cl	-0.249562	1.472713	0.331614
Cl93	Cl	0.392524	1.126289	0.823007
Cl94	Cl	-0.377721	1.411956	0.385830
Cl95	Cl	0.402625	0.589633	0.656310
Cl96	Cl	-0.500973	1.411962	0.385829
H97	H	0.265329	1.359225	0.857336
Cl98	Cl	0.230415	1.423114	1.194130
H99	H	0.259691	0.623746	0.423762
