data_functionalizedCrystal
_audit_creation_method	'MofGen! by Chris Wilmer'
_symmetry_space_group_name_H-M	'P1'
_symmetry_Int_Tables_number	1
_symmetry_cell_setting	triclinic
loop_
_symmetry_equiv_pos_as_xyz
  x,y,z
_cell_length_a	17.699083
_cell_length_b	12.376897
_cell_length_c	17.699092
_cell_angle_alpha	77.310278
_cell_angle_beta	83.284691
_cell_angle_gamma	77.316470
loop_
_atom_site_label
_atom_site_type_symbol
_atom_site_fract_x
_atom_site_fract_y
_atom_site_fract_z
O1	O	0.991182	0.093838	0.082801
O2	O	0.770799	0.093875	0.095248
O3	O	0.887214	0.093853	-0.021164
O4	O	0.874767	0.093860	0.199213
O5	O	0.913042	-0.094149	0.004698
O6	O	0.796627	-0.094127	0.121110
O7	O	1.017010	-0.094164	0.108662
Zn8	Zn	0.910919	-0.123995	0.118992
Zn9	Zn	0.876890	0.123706	0.084918
O10	O	0.900595	-0.094142	0.225074
C11	C	0.755515	-0.000122	0.107732
C12	C	0.671495	-0.000108	0.106391
C13	C	0.622876	-0.000106	0.174724
C14	C	0.543935	-0.000120	0.173464
C15	C	0.513613	-0.000129	0.103869
C16	C	0.562239	-0.000134	0.035531
C17	C	0.641180	-0.000127	0.036794
C18	C	0.243880	-0.000162	0.030440
C19	C	0.164932	-0.000165	0.029183
C20	C	0.146634	-0.000155	0.167111
C21	C	0.225575	-0.000148	0.168373
C22	C	0.274195	-0.000160	0.100036
C23	C	0.359792	-0.000146	0.101404
C24	C	0.428016	-0.000134	0.102500
N25	N	0.934149	-0.293044	0.142246
C26	C	0.799714	-0.648081	0.007672
C27	C	0.783443	-0.529748	-0.008606
C28	C	0.821118	-0.470566	0.029106
C29	C	0.875067	-0.529730	0.083098
C30	C	0.891344	-0.648075	0.099372
C31	C	0.912748	-0.470559	0.120807
C32	C	0.966697	-0.529723	0.174798
C33	C	0.982971	-0.648057	0.191070
C34	C	0.945296	-0.707238	0.153358
C35	C	0.896471	-0.352214	0.104532
C36	C	0.988101	-0.352208	0.196232
C37	C	1.004372	-0.470541	0.212510
C38	C	1.032293	-0.000165	0.096178
C39	C	1.116312	-0.000172	0.097517
C40	C	0.899681	-0.000146	-0.036430
C41	C	0.898339	-0.000141	-0.120449
N42	N	0.853666	0.292755	0.061658
C43	C	0.883631	0.102340	-0.174014
C44	C	0.882366	0.102342	-0.252957
C45	C	0.895814	-0.000139	-0.278334
C46	C	0.910520	-0.102628	-0.224762
C47	C	0.911780	-0.102629	-0.145820
C48	C	0.905440	-0.102629	-0.543127
C49	C	0.904182	-0.102621	-0.622077
C50	C	0.876026	0.102342	-0.650264
C51	C	0.877286	0.102341	-0.571322
C52	C	0.891988	-0.000147	-0.517756
C53	C	0.893358	-0.000148	-0.432157
C54	C	0.894450	-0.000140	-0.363933
C55	C	0.888128	-0.000140	0.240340
C56	C	0.889469	-0.000138	0.324358
H57	H	0.140248	-0.000174	-0.027493
O58	O	1.056875	-0.528070	0.264845
C59	C	1.118004	-0.596535	0.228045
H60	H	1.121340	-0.560865	0.162904
H61	H	1.175153	-0.597878	0.252347
H62	H	1.106950	-0.686222	0.239126
O63	O	0.961169	-0.822191	0.169285
C64	C	1.016884	-0.861724	0.225004
H65	H	1.015546	-0.793529	0.259485
H66	H	1.003094	-0.940897	0.266123
H67	H	1.077062	-0.882715	0.194462
H68	H	0.769050	-0.696278	-0.023032
H69	H	0.504351	-0.000117	0.229108
O70	O	1.024605	-0.294557	0.232830
C71	C	0.998681	-0.177422	0.206878
H72	H	0.939180	-0.161273	0.183147
H73	H	0.994290	-0.132450	0.257421
H74	H	1.041611	-0.143826	0.159083
O75	O	0.919791	-0.202283	-0.491212
C76	C	0.931384	-0.292730	-0.530542
H77	H	0.950293	-0.262671	-0.594126
H78	H	0.978344	-0.364397	-0.502759
H79	H	0.874891	-0.324260	-0.526543
H80	H	0.923746	-0.186079	-0.102206
H81	H	0.283457	-0.000172	-0.025204
O82	O	0.870519	0.201994	-0.149492
C83	C	0.857284	0.292445	-0.213704
H84	H	0.836562	0.262403	-0.262667
H85	H	0.811069	0.364128	-0.195884
H86	H	0.913519	0.323947	-0.234485
H87	H	1.026906	-0.696224	0.235027
H88	H	0.921465	-0.186070	-0.245430
H89	H	0.537547	-0.000157	-0.021132
O90	O	0.805436	-0.355618	0.013229
C91	C	0.874116	-0.316057	-0.015992
H92	H	0.916930	-0.384238	-0.041647
H93	H	0.859928	-0.236882	-0.063063
H94	H	0.901024	-0.295062	0.033101
H95	H	0.680765	-0.000128	-0.018850
H96	H	0.870393	0.185793	-0.296568
O97	O	0.844002	-0.294629	0.052186
C98	C	0.782849	-0.226214	0.088995
H99	H	0.803858	-0.208476	0.142684
H100	H	0.763023	-0.143002	0.047135
H101	H	0.732216	-0.271840	0.106930
O102	O	0.652208	-0.000146	0.242403
C103	C	0.592360	-0.000121	0.302441
H104	H	0.543665	-0.035720	0.286217
H105	H	0.616271	-0.054699	0.358548
H106	H	0.568748	0.090073	0.311105
H107	H	0.250258	-0.000136	0.225043
H108	H	0.866339	0.185792	-0.550665
H109	H	0.864051	0.185793	-0.693887
O110	O	0.099506	-0.000105	0.233560
C111	C	0.143201	-0.000119	0.295257
H112	H	0.197261	0.035478	0.271038
H113	H	0.106489	0.054467	0.335617
H114	H	0.161186	-0.090309	0.329008
H115	H	0.739520	-0.481585	-0.052567
H116	H	0.915131	-0.186078	-0.642734
