data_functionalizedCrystal
_audit_creation_method	'MofGen! by Chris Wilmer'
_symmetry_space_group_name_H-M	'P1'
_symmetry_Int_Tables_number	1
_symmetry_cell_setting	triclinic
loop_
_symmetry_equiv_pos_as_xyz
  x,y,z
_cell_length_a	16.109301
_cell_length_b	16.109301
_cell_length_c	15.186229
_cell_angle_alpha	90.013398
_cell_angle_beta	89.994447
_cell_angle_gamma	96.538468
loop_
_atom_site_label
_atom_site_type_symbol
_atom_site_fract_x
_atom_site_fract_y
_atom_site_fract_z
O1	O	1.103135	-0.106876	-0.073183
O2	O	0.861073	-0.120176	-0.073196
O3	O	0.988754	0.007505	-0.073180
O4	O	0.975454	-0.234557	-0.073199
O5	O	0.988736	0.007526	0.073277
O6	O	0.861056	-0.120155	0.073262
O7	O	1.103118	-0.106856	0.073274
Zn8	Zn	0.982084	-0.113502	0.096521
Zn9	Zn	0.982107	-0.113529	-0.096443
O10	O	0.975437	-0.234536	0.073259
C11	C	0.830089	-0.119627	0.000031
C12	C	0.737794	-0.118011	0.000027
C13	C	0.428796	-0.188494	0.000037
C14	C	0.515516	-0.190020	0.000032
C15	C	0.535389	-0.038531	0.000031
C16	C	0.448671	-0.037007	0.000030
C17	C	0.395376	-0.111991	0.000037
C18	C	0.568815	-0.115041	0.000033
C19	C	0.662841	-0.116694	0.000028
C20	C	0.301344	-0.110338	0.000041
C21	C	0.988206	0.038490	0.000049
C22	C	0.986591	0.130785	0.000050
C23	C	1.134101	-0.107405	0.000045
C24	C	1.226396	-0.109020	0.000044
C25	C	0.975984	-0.265522	0.000028
C26	C	0.977599	-0.357817	0.000021
N27	N	0.982074	-0.113483	0.228214
C28	C	1.058599	0.353058	0.000040
C29	C	1.057075	0.439778	0.000033
C30	C	0.905586	0.419904	0.000028
C31	C	0.907111	0.333185	0.000029
C32	C	0.983620	0.299765	0.000040
C33	C	0.980571	0.473204	0.000031
C34	C	0.978918	0.567230	0.000023
C35	C	0.985273	0.205733	0.000046
N36	N	0.982123	-0.113542	-0.228135
C37	C	0.931693	-0.063080	0.546167
C38	C	0.931686	-0.063068	0.453978
C39	C	1.032510	-0.163947	0.453918
C40	C	1.032520	-0.163954	0.546106
C41	C	0.982108	-0.113522	0.592228
C42	C	0.982090	-0.113503	0.407850
C43	C	0.982082	-0.113490	0.307894
C44	C	0.982116	-0.113533	0.692191
H45	H	0.421461	0.025296	0.000028
C46	C	0.594015	0.043944	0.000036
H47	H	0.650449	0.032081	0.000046
H48	H	0.583893	0.075309	-0.051035
H49	H	0.583879	0.075321	0.051117
H50	H	0.843295	0.447126	0.000021
H51	H	1.120897	0.325850	0.000047
H52	H	1.118130	0.483167	0.000031
H53	H	1.073553	-0.205008	0.416354
C54	C	1.087976	-0.219445	0.596776
H55	H	1.117990	-0.249488	0.556105
H56	H	1.126250	-0.185387	0.632742
H57	H	1.053894	-0.257705	0.632732
C58	C	0.824632	0.274555	0.000024
H59	H	0.836500	0.218123	0.000015
H60	H	0.793250	0.284690	0.051094
H61	H	0.793270	0.284675	-0.051058
H62	H	0.385405	-0.249551	0.000042
H63	H	0.890635	-0.021992	0.416479
H64	H	0.542722	-0.252317	0.000030
H65	H	0.890645	-0.022015	0.583717
