data_functionalizedCrystal
_audit_creation_method	'MofGen! by Chris Wilmer'
_symmetry_space_group_name_H-M	'P1'
_symmetry_Int_Tables_number	1
_symmetry_cell_setting	triclinic
loop_
_symmetry_equiv_pos_as_xyz
  x,y,z
_cell_length_a	14.560438
_cell_length_b	23.196402
_cell_length_c	23.196401
_cell_angle_alpha	60.008520
_cell_angle_beta	90.014674
_cell_angle_gamma	60.000018
loop_
_atom_site_label
_atom_site_type_symbol
_atom_site_fract_x
_atom_site_fract_y
_atom_site_fract_z
Zr1	Zr	0.884703	0.631031	-0.075632
O2	O	0.738018	0.751300	-0.167683
O3	O	0.929673	0.510761	-0.047416
O4	O	0.929623	0.631032	-0.167684
O5	O	0.738104	0.631027	0.047456
O6	O	1.080761	0.631034	-0.167682
O7	O	0.738068	0.631029	-0.047415
O8	O	1.080850	0.415891	0.047455
O9	O	0.738015	0.846170	-0.167681
O10	O	1.061641	0.560231	-0.035378
O11	O	0.948875	0.560229	0.035422
O12	O	0.948817	0.701833	-0.106178
O13	O	0.836051	0.701830	-0.035378
Zr14	Zr	1.125809	0.631031	0.075679
Zr15	Zr	1.125751	0.631033	-0.075630
Zr16	Zr	0.884761	0.631028	0.075677
Zr17	Zr	0.884698	0.782338	-0.075629
Zr18	Zr	1.125814	0.479723	0.075676
O19	O	1.080839	0.751300	0.047462
O20	O	1.080757	0.751304	-0.167680
O21	O	0.738100	0.751297	0.047459
O22	O	1.272494	0.510761	0.167730
O23	O	1.272412	0.510765	-0.047412
O24	O	0.929755	0.510758	0.167726
O25	O	1.272408	0.631034	-0.047410
O26	O	1.080889	0.631029	0.167730
O27	O	0.929751	0.631027	0.167729
O28	O	1.272444	0.631033	0.047462
O29	O	0.929616	0.846173	-0.167679
O30	O	1.080896	0.415889	0.167726
O31	O	1.272497	0.415891	0.167728
O32	O	1.272451	0.415893	0.047457
O33	O	0.738061	0.846169	-0.047411
O34	O	0.929662	0.846171	-0.047409
O35	O	1.061695	0.560229	0.106225
O36	O	1.174461	0.560231	0.035424
O37	O	1.061637	0.701833	-0.035375
O38	O	0.948871	0.701830	0.035425
C39	C	1.005262	0.441768	0.000019
C40	C	1.005264	0.377534	0.000018
C41	C	1.064121	-0.085308	-0.036921
C42	C	1.064118	-0.024949	-0.036928
C43	C	1.005257	0.005231	0.000030
C44	C	0.946371	-0.024937	0.036981
C45	C	0.946366	-0.085289	0.036981
C46	C	1.013693	0.067258	0.061935
C47	C	1.013706	0.127605	0.061937
C48	C	1.005265	0.191380	0.000030
C49	C	0.996835	0.194792	-0.061879
C50	C	0.996830	0.134440	-0.061880
C51	C	1.005255	0.070673	0.000034
C52	C	1.064138	0.286993	-0.036930
C53	C	1.064127	0.347356	-0.036939
C54	C	0.946388	0.347362	0.036977
C55	C	0.946391	0.287005	0.036979
C56	C	1.005273	0.256821	0.000027
C57	C	0.703742	0.631027	0.000020
C58	C	0.601410	0.631026	0.000019
C59	C	0.612225	0.557113	0.036976
C60	C	0.516070	0.557117	0.036982
C61	C	0.398289	0.704954	-0.036930
C62	C	0.494443	0.704949	-0.036932
C63	C	0.680224	0.471760	0.079646
C64	C	0.584069	0.471764	0.079652
C65	C	1.306770	0.631034	0.000026
C66	C	1.409102	0.631035	0.000027
C67	C	1.005184	0.631034	-0.189241
C68	C	1.005159	0.631035	-0.253476
C69	C	1.005250	0.820294	0.000027
C70	C	1.005248	0.884528	0.000029
C71	C	0.946272	0.704947	-0.320605
C72	C	0.946300	0.704948	-0.380961
C73	C	1.005201	0.631033	-0.374182
C74	C	1.064102	0.557110	-0.307040
C75	C	1.064081	0.557111	-0.246687
C76	C	0.996840	0.574403	-0.441500
C77	C	0.996852	0.574405	-0.501854
C78	C	1.005272	0.631026	-0.560330
C79	C	1.013657	0.687660	-0.558451
C80	C	1.013636	0.687661	-0.498098
C81	C	1.005231	0.631023	-0.439621
C82	C	0.946413	0.704945	-0.692906
C83	C	0.946450	0.704943	-0.753261
C84	C	1.064243	0.557103	-0.679338
C85	C	1.064214	0.557107	-0.618985
C86	C	1.005293	0.631030	-0.625774
C87	C	1.005328	0.631028	0.189288
C88	C	1.005353	0.631027	0.253522
C89	C	1.306777	0.441771	0.000022
C90	C	1.409110	0.377538	0.000022
C91	C	1.005334	0.441765	0.189284
C92	C	1.005361	0.377530	0.253517
C93	C	1.306849	0.441768	0.189287
C94	C	1.409206	0.377534	0.253521
C95	C	0.703663	0.820293	-0.189240
C96	C	0.601306	0.884527	-0.253474
C97	C	0.703735	0.820290	0.000024
C98	C	0.601402	0.884523	0.000025
C99	C	1.005178	0.820296	-0.189237
C100	C	1.005151	0.884532	-0.253470
C101	C	1.398276	0.347373	-0.036943
C102	C	1.494420	0.287028	-0.036957
C103	C	1.601396	0.256844	-0.000002
C104	C	1.612228	0.287015	0.036964
C105	C	1.516085	0.347363	0.036973
C106	C	1.064264	0.347364	0.320646
C107	C	1.064285	0.287017	0.381006
C108	C	1.005408	0.256832	0.374235
C109	C	0.946498	0.287004	0.307099
C110	C	0.946471	0.347354	0.246741
C111	C	1.516147	0.347370	0.246729
C112	C	1.612333	0.287024	0.307078
C113	C	1.601574	0.256839	0.374219
C114	C	1.494622	0.287008	0.381009
C115	C	1.398439	0.347358	0.320661
C116	C	0.494365	0.914698	-0.246683
C117	C	0.398179	0.975063	-0.307032
C118	C	0.408938	1.005252	-0.374172
C119	C	0.515890	0.975078	-0.380963
C120	C	0.612073	0.914719	-0.320614
C121	C	0.612236	0.914694	0.036983
C122	C	0.516092	0.975056	0.036981
C123	C	0.409116	1.005242	0.000024
C124	C	0.398284	0.975069	-0.036939
C125	C	0.494427	0.914712	-0.036941
C126	C	1.064039	0.914697	-0.246677
C127	C	1.064036	0.975045	-0.307025
C128	C	1.005138	1.005230	-0.374166
C129	C	0.946248	0.975058	-0.380958
C130	C	0.946258	0.914708	-0.320611
H131	H	1.020581	0.124816	0.112349
H132	H	1.485879	0.262422	0.435683
H133	H	1.311179	0.371949	-0.067044
F134	F	0.883733	0.379485	0.076304
H135	H	0.330610	1.054401	-0.423306
H136	H	1.524922	0.371915	0.067079
F137	F	0.987850	0.138076	-0.127767
F138	F	0.883736	0.254897	0.076310
F139	F	1.126872	0.478439	-0.547537
H140	H	0.898436	0.765138	-0.698434
H141	H	0.485590	0.890149	-0.067035
F142	F	0.883568	0.882615	-0.327852
H143	H	1.679673	0.207704	-0.000015
F144	F	1.482868	0.254927	-0.076300
H145	H	1.112209	0.371934	0.326173
F146	F	0.883543	0.783623	-0.327835
F147	F	1.284627	0.379450	0.327900
H148	H	1.699341	0.262430	0.067051
H149	H	0.699146	0.890154	-0.326153
F150	F	0.527644	1.007156	0.076326
F151	F	1.022618	0.747926	-0.620683
F152	F	1.126943	0.478436	-0.672119
H153	H	0.699333	0.890121	0.067082
F154	F	0.284364	1.007163	-0.299790
F155	F	1.703952	0.192608	0.438442
F156	F	0.987919	0.514136	-0.503850
F157	F	0.306801	1.069479	0.000032
F158	F	1.126767	-0.117415	-0.076263
F159	F	1.126991	0.254915	0.452450
F160	F	0.284442	0.783623	-0.076253
H161	H	1.005439	0.207691	0.423388
F162	F	0.482889	0.882579	-0.175232
H163	H	0.898509	0.371907	0.192083
F164	F	0.987951	0.514099	-0.379251
H165	H	0.524636	0.999666	-0.435636
F166	F	0.284422	1.007201	-0.076267
F167	F	1.126732	0.882583	-0.175226
F168	F	1.527623	0.379489	0.175279
F169	F	1.126712	1.007148	-0.299781
F170	F	0.883842	0.254870	0.299904
H171	H	0.575374	0.445276	0.134298
F172	F	1.005135	1.069463	-0.438388
H173	H	0.898295	0.999644	-0.435633
H174	H	0.898500	0.765134	-0.807923
H175	H	1.112061	-0.000385	-0.067018
F176	F	0.987861	0.262659	-0.127770
H177	H	1.112079	0.262418	-0.067021
F178	F	1.726148	0.254924	0.299836
H179	H	1.020561	0.015334	0.112350
F180	F	1.126782	0.379465	-0.076274
H181	H	0.898444	-0.000358	0.067070
H182	H	0.485628	0.765136	-0.067023
F183	F	0.883703	-0.117393	0.076310
H184	H	0.732404	0.439042	0.136151
H185	H	0.584056	0.439000	0.055908
F186	F	0.746757	0.437148	0.042837
H187	H	0.898344	0.765138	-0.435628
H188	H	1.020465	0.733772	-0.496571
H189	H	1.112061	0.496928	-0.301525
H190	H	1.112035	0.496921	-0.192025
