data_functionalizedCrystal
_audit_creation_method	'MofGen! by Chris Wilmer'
_symmetry_space_group_name_H-M	'P1'
_symmetry_Int_Tables_number	1
_symmetry_cell_setting	triclinic
loop_
_symmetry_equiv_pos_as_xyz
  x,y,z
_cell_length_a	17.077402
_cell_length_b	10.686220
_cell_length_c	17.077396
_cell_angle_alpha	94.351283
_cell_angle_beta	89.972472
_cell_angle_gamma	94.405256
loop_
_atom_site_label
_atom_site_type_symbol
_atom_site_fract_x
_atom_site_fract_y
_atom_site_fract_z
Zn1	Zn	-0.220326	1.929045	-0.351899
Zn2	Zn	0.279674	2.429045	0.148101
Zn3	Zn	-0.351608	1.928893	-0.220643
Zn4	Zn	0.148392	2.428893	0.279357
Zn5	Zn	-0.230437	1.718035	-0.230705
Zn6	Zn	0.269563	2.218035	0.269295
Zn7	Zn	-0.361640	1.717981	-0.361919
Zn8	Zn	0.138360	2.217981	0.138081
O9	O	-0.291003	1.823489	-0.291292
O10	O	0.208997	2.323489	0.208708
O11	O	-0.229311	2.105600	-0.326083
O12	O	0.270689	2.605600	0.173917
O13	O	-0.335568	1.900881	-0.112132
O14	O	0.164432	2.400881	0.387868
O15	O	-0.119244	1.746112	-0.246799
O16	O	0.380756	2.246112	0.253201
O17	O	-0.325764	2.105489	-0.229650
O18	O	0.174236	2.605489	0.270350
O19	O	-0.111816	1.901140	-0.335840
O20	O	0.388184	2.401140	0.164160
O21	O	-0.246543	1.745965	-0.119525
O22	O	0.253457	2.245965	0.380475
O23	O	-0.256270	1.541453	-0.256516
O24	O	0.243730	2.041453	0.243484
O25	O	-0.342861	1.746020	-0.470435
O26	O	0.157139	2.246020	0.029565
O27	O	-0.352665	1.541413	-0.352918
O28	O	0.147335	2.041413	0.147082
O29	O	-0.239039	1.901088	-0.463074
O30	O	0.260961	2.401088	0.036926
O31	O	-0.462790	1.900829	-0.239366
O32	O	0.037210	2.400829	0.260634
O33	O	-0.470160	1.745873	-0.343161
O34	O	0.029840	2.245873	0.156839
C35	C	-0.494957	1.823363	-0.291274
C36	C	0.005043	2.323363	0.208726
C37	C	-0.582203	1.823425	-0.291288
C38	C	-0.082203	2.323425	0.208712
C39	C	-0.306654	1.495649	-0.306897
C40	C	0.193346	1.995649	0.193103
C41	C	-0.313368	1.355397	-0.313591
C42	C	0.186632	1.855397	0.186409
C43	C	-0.619260	1.904104	-0.337694
C44	C	-0.119260	2.404104	0.162306
C45	C	-0.701238	1.904157	-0.337708
C46	C	-0.201238	2.404157	0.162292
C47	C	-0.746157	1.823536	-0.291311
C48	C	-0.246157	2.323536	0.208689
C49	C	-0.709095	1.742849	-0.244903
C50	C	-0.209095	2.242849	0.255097
C51	C	-0.627119	1.742790	-0.244894
C52	C	-0.127119	2.242790	0.255106
C53	C	-0.879959	1.742978	-0.244925
C54	C	-0.379959	2.242978	0.255075
C55	C	-0.961941	1.743038	-0.244933
C56	C	-0.461941	2.243038	0.255067
C57	C	-0.954078	1.904345	-0.337738
C58	C	-0.454078	2.404345	0.162262
C59	C	-0.872102	1.904287	-0.337729
C60	C	-0.372102	2.404287	0.162271
C61	C	-0.835045	1.823600	-0.291320
C62	C	-0.335045	2.323600	0.208680
C63	C	-0.086251	1.823649	-0.291325
C64	C	0.413749	2.323649	0.208675
C65	C	0.001002	1.823717	-0.291339
C66	C	0.501002	2.323717	0.208661
C67	C	-0.290941	1.823565	-0.496032
C68	C	0.209059	2.323565	0.003968
C69	C	-0.290915	1.823597	-0.583281
C70	C	0.209085	2.323597	-0.083281
C71	C	-0.275291	2.152608	-0.275626
C72	C	0.224709	2.652608	0.224374
C73	C	-0.268595	2.292860	-0.268951
C74	C	0.231405	2.792860	0.231049
C75	C	-0.236850	1.904344	-0.620439
C76	C	0.263150	2.404344	-0.120439
C77	C	-0.236823	1.904359	-0.702418
C78	C	0.263177	2.404359	-0.202418
C79	C	-0.290866	1.823633	-0.747238
C80	C	0.209134	2.323633	-0.247238
C81	C	-0.344933	1.742878	-0.710075
C82	C	0.155067	2.242878	-0.210075
C83	C	-0.344956	1.742857	-0.628097
C84	C	0.155044	2.242857	-0.128097
C85	C	-0.344883	1.742929	-0.880943
C86	C	0.155117	2.242929	-0.380943
C87	C	-0.344862	1.742951	-0.962926
C88	C	0.155138	2.242951	-0.462926
C89	C	-0.236751	1.904430	-0.955264
C90	C	0.263249	2.404430	-0.455264
C91	C	-0.236774	1.904410	-0.873286
C92	C	0.263226	2.404410	-0.373286
C93	C	-0.290842	1.823656	-0.836128
C94	C	0.209158	2.323656	-0.336128
C95	C	-0.291004	1.823485	-0.087344
C96	C	0.208996	2.323485	0.412656
C97	C	-0.290797	1.823697	-0.000084
C98	C	0.209203	2.323697	0.499916
H99	H	-0.582692	1.969760	-0.375472
H100	H	-0.082692	2.469760	0.124528
H101	H	-0.225127	1.346615	-0.225610
H102	H	0.274873	1.846615	0.274390
H103	H	-0.731405	1.969864	-0.375490
H104	H	-0.231405	2.469864	0.124510
H105	H	-0.356845	1.301636	-0.356930
H106	H	0.143155	1.801636	0.143070
O107	O	-0.178562	1.991413	-0.572098
O108	O	0.321438	2.491413	-0.072098
H109	H	-0.140958	2.047554	-0.611713
H110	H	0.359042	2.547554	-0.111713
O111	O	-0.757536	1.655886	-0.194860
O112	O	-0.257536	2.155886	0.305140
H113	H	-0.740782	1.677570	-0.132231
H114	H	-0.240782	2.177570	0.367769
O115	O	-0.178516	1.991456	-0.742499
O116	O	0.321484	2.491456	-0.242499
H117	H	-0.140949	2.047600	-0.697560
H118	H	0.359051	2.547600	-0.197560
H119	H	-0.192772	1.970151	-0.836795
H120	H	0.307228	2.470151	-0.336795
O121	O	-0.403137	1.655857	-1.011268
O122	O	0.096863	2.155857	-0.511268
H123	H	-0.394038	1.669447	-1.074514
H124	H	0.105962	2.169447	-0.574514
O125	O	-0.178425	1.991522	-0.995334
O126	O	0.321575	2.491522	-0.495334
H127	H	-0.187478	1.977964	-1.059869
H128	H	0.312522	2.477964	-0.559869
H129	H	-0.998512	1.677384	-0.207156
H130	H	-0.498512	2.177384	0.292844
H131	H	-0.849791	1.677270	-0.207136
H132	H	-0.349791	2.177270	0.292864
H133	H	-0.388900	1.677150	-0.850693
H134	H	0.111100	2.177150	-0.350693
O135	O	-0.823647	1.991267	-0.387750
O136	O	-0.323647	2.491267	0.112250
H137	H	-0.863185	2.047385	-0.420022
H138	H	-0.363185	2.547385	0.079978
H139	H	-0.596949	1.677092	-0.207106
H140	H	-0.096949	2.177092	0.292894
O141	O	-0.403216	1.655799	-0.758417
O142	O	0.096784	2.155799	-0.258417
H143	H	-0.463799	1.677374	-0.741640
H144	H	0.036201	2.177374	-0.241640
O145	O	-0.994039	1.991365	-0.387803
O146	O	-0.494039	2.491365	0.112197
H147	H	-1.058589	1.977852	-0.380026
H148	H	-0.558589	2.477852	0.119974
O149	O	-0.403258	1.655751	-0.588014
O150	O	0.096742	2.155751	-0.088014
H151	H	-0.440834	1.599620	-0.632951
H152	H	0.059166	2.099620	-0.132951
