data_functionalizedCrystal
_audit_creation_method	'MofGen! by Chris Wilmer'
_symmetry_space_group_name_H-M	'P1'
_symmetry_Int_Tables_number	1
_symmetry_cell_setting	triclinic
loop_
_symmetry_equiv_pos_as_xyz
  x,y,z
_cell_length_a	10.540539
_cell_length_b	17.038272
_cell_length_c	9.616153
_cell_angle_alpha	89.997688
_cell_angle_beta	89.995174
_cell_angle_gamma	87.818524
loop_
_atom_site_label
_atom_site_type_symbol
_atom_site_fract_x
_atom_site_fract_y
_atom_site_fract_z
O1	O	1.696176	0.110247	-0.115581
O2	O	1.327732	0.120634	-0.115599
O3	O	1.509764	0.001613	-0.115579
O4	O	1.514144	0.229269	-0.115601
O5	O	1.509738	0.001615	0.115712
O6	O	1.327705	0.120637	0.115693
O7	O	1.696149	0.110249	0.115710
Zn8	Zn	1.511923	0.115443	0.152424
Zn9	Zn	1.511958	0.115440	-0.152313
O10	O	1.514117	0.229271	0.115690
C11	C	1.280343	0.119857	0.000045
C12	C	1.139177	0.117526	0.000039
C13	C	0.947420	0.028219	0.000587
C14	C	1.094259	0.030581	0.000051
C15	C	1.081423	0.159366	-0.132039
C16	C	0.934602	0.156399	-0.132135
C17	C	0.934248	0.158170	0.130886
C18	C	1.081305	0.158971	0.132618
C19	C	1.505768	-0.027537	0.000066
C20	C	1.493883	-0.114398	0.000065
C21	C	1.602994	-0.163886	0.000072
C22	C	1.591820	-0.245501	0.000058
C23	C	1.471534	-0.277626	0.000048
C24	C	1.362416	-0.228133	0.000037
C25	C	1.373591	-0.146519	0.000041
C26	C	1.432055	-0.523611	0.000027
C27	C	1.420888	-0.605231	0.000027
C28	C	1.650293	-0.622593	0.000046
C29	C	1.661457	-0.540977	0.000058
C30	C	1.552339	-0.491491	0.000040
C31	C	1.460110	-0.361050	0.000038
C32	C	1.563764	-0.408069	0.000040
C33	C	1.743538	0.111027	0.000063
C34	C	1.884704	0.113358	0.000061
C35	C	1.518114	0.258421	0.000042
C36	C	1.529998	0.345282	0.000034
N37	N	1.511909	0.115445	0.360398
N38	N	1.511982	0.115432	-0.360287
C39	C	1.414198	0.178900	0.580758
C40	C	1.414448	0.179138	0.419590
C41	C	1.646364	0.134015	0.418852
C42	C	1.645842	0.134465	0.580070
C43	C	1.476466	0.033212	0.580316
C44	C	1.473469	0.033745	0.419089
H45	H	1.109732	0.223216	-0.136959
H46	H	1.374518	0.019669	0.380886
N47	N	0.905277	-0.017275	0.126051
H48	H	0.860675	-0.065593	0.094542
H49	H	0.981842	-0.033518	0.183863
N50	N	1.709506	-0.298873	0.000077
H51	H	1.709963	-0.333126	0.085814
H52	H	1.709934	-0.333067	-0.085723
N53	N	1.291142	-0.639878	0.000008
H54	H	1.281414	-0.673354	-0.085730
H55	H	1.281462	-0.673312	0.085806
N56	N	1.767983	-0.675963	0.000044
H57	H	1.820063	-0.665557	0.085786
H58	H	1.742559	-0.732518	-0.000015
H59	H	1.547672	-0.014028	0.618440
N60	N	1.314368	-0.470243	0.000013
H61	H	1.236476	-0.502981	0.000013
H62	H	1.313996	-0.436004	0.085756
N63	N	1.281798	0.164334	0.632164
H64	H	1.220543	0.205707	0.593122
H65	H	1.256037	0.110675	0.600714
N66	N	1.232677	-0.262778	0.000017
H67	H	1.242152	-0.321989	0.000020
H68	H	1.184533	-0.244721	0.085756
N69	N	1.255909	-0.093140	0.000025
H70	H	1.178012	-0.125874	0.000020
H71	H	1.255535	-0.058900	0.085766
N72	N	1.134235	0.120871	-0.262250
H73	H	1.229581	0.124874	-0.263769
H74	H	1.111923	0.063752	-0.263475
H75	H	1.759406	-0.514827	0.000067
H76	H	0.914033	-0.005985	-0.093600
H77	H	1.119404	0.128406	0.230328
H78	H	1.539379	-0.015754	0.378802
H79	H	1.676794	0.193323	0.378457
H80	H	1.437523	0.239555	0.621252
H81	H	1.132922	-0.002574	-0.094786
N82	N	1.693495	-0.373420	0.000062
H83	H	1.741676	-0.391421	0.085810
H84	H	1.741616	-0.391423	-0.085726
H85	H	0.900066	0.130034	0.231000
N86	N	1.445360	0.259993	0.368464
H87	H	1.458921	0.295612	0.450656
H88	H	1.525096	0.256432	0.310199
H89	H	0.903518	0.125473	-0.230858
N90	N	1.745525	0.074454	0.368065
H91	H	1.748904	0.075625	0.263122
H92	H	1.831143	0.087569	0.407008
H93	H	1.133791	-0.002340	0.094731
H94	H	1.111443	0.222359	0.140586
H95	H	1.314789	0.167964	0.380072
H96	H	0.892879	0.220970	0.131773
N97	N	1.330380	-0.395706	0.000043
H98	H	1.282171	-0.377714	0.085784
H99	H	1.282284	-0.377697	-0.085752
N100	N	1.732734	-0.129243	0.000092
H101	H	1.742499	-0.095763	-0.085641
H102	H	1.742388	-0.095814	0.085895
H103	H	0.892466	0.218928	-0.138136
N104	N	1.685513	0.213919	0.629868
H105	H	1.703173	0.248323	0.547093
H106	H	1.615098	0.239223	0.687551
N107	N	1.745676	0.075589	0.631740
H108	H	1.789838	0.049464	0.549785
H109	H	1.809848	0.103404	0.689958
N110	N	1.348774	0.009807	0.634227
H111	H	1.312653	0.052270	0.697709
H112	H	1.289190	0.002552	0.553388
