data_functionalizedCrystal
_audit_creation_method	'MofGen! by Chris Wilmer'
_symmetry_space_group_name_H-M	'P1'
_symmetry_Int_Tables_number	1
_symmetry_cell_setting	triclinic
loop_
_symmetry_equiv_pos_as_xyz
  x,y,z
_cell_length_a	10.654562
_cell_length_b	13.262508
_cell_length_c	9.730223
_cell_angle_alpha	105.916979
_cell_angle_beta	89.996961
_cell_angle_gamma	84.462496
loop_
_atom_site_label
_atom_site_type_symbol
_atom_site_fract_x
_atom_site_fract_y
_atom_site_fract_z
O1	O	1.667059	0.147483	-0.059247
O2	O	1.301510	0.161515	-0.053984
O3	O	1.493480	0.001776	-0.113699
O4	O	1.475088	0.307222	0.000469
O5	O	1.493478	0.001780	0.114882
O6	O	1.301507	0.161519	0.174597
O7	O	1.667057	0.147487	0.169335
Zn8	Zn	1.484282	0.154504	0.208258
Zn9	Zn	1.484285	0.154498	-0.092908
O10	O	1.475086	0.307226	0.229050
C11	C	1.254716	0.160484	0.059923
C12	C	1.115290	0.157393	0.058774
C13	C	1.049765	0.155953	0.182824
C14	C	0.918758	0.153058	0.181719
C15	C	0.918811	0.153045	-0.067496
C16	C	1.049817	0.155934	-0.066392
C17	C	1.049733	0.155965	0.326708
C18	C	0.918726	0.153069	0.325603
C19	C	1.492448	-0.037333	-0.014030
C20	C	1.489361	-0.153872	-0.057598
C21	C	1.480649	-0.482380	0.318007
C22	C	1.483539	-0.372885	0.358943
C23	C	1.484996	-0.318126	0.254811
C24	C	1.483560	-0.372874	0.109737
C25	C	1.480660	-0.482378	0.068798
C26	C	1.485006	-0.318125	0.005602
C27	C	1.483571	-0.372872	-0.139473
C28	C	1.480671	-0.482366	-0.180405
C29	C	1.479215	-0.537125	-0.076273
C30	C	1.487907	-0.208620	0.046541
C31	C	1.487917	-0.208618	-0.202669
C32	C	1.485027	-0.318113	-0.243604
C33	C	1.713850	0.148518	0.055425
C34	C	1.853277	0.151609	0.056565
C35	C	1.476118	0.346335	0.129378
C36	C	1.479205	0.462874	0.172936
N37	N	1.484289	0.154507	0.413796
N38	N	1.484287	0.154487	-0.298448
C39	C	1.569315	0.083798	0.459289
C40	C	1.569312	0.083786	0.603167
C41	C	1.399252	0.225198	0.656050
C42	C	1.399250	0.225205	0.512172
C43	C	1.667502	0.002158	0.428760
C44	C	1.667499	0.002145	0.572638
H45	H	1.103164	0.157089	-0.167412
H46	H	1.330004	0.282772	0.475131
H47	H	1.483857	-0.362704	-0.361726
F48	F	1.488068	-0.201591	0.298383
F49	F	1.087876	0.256021	0.422459
H50	H	0.865486	0.151857	-0.169402
H51	H	1.637382	-0.074095	0.588759
H52	H	1.489064	-0.164054	0.164662
F53	F	1.786504	0.035587	0.382912
H54	H	0.889535	0.076521	0.341637
F55	F	1.793523	0.025648	0.632466
F56	F	1.476140	-0.653664	-0.119834
H57	H	1.096369	0.083428	0.354849
F58	F	1.308751	0.300436	0.760758
F59	F	1.485049	-0.314625	0.513336
F60	F	0.857728	0.247882	0.433237
H61	H	1.489094	-0.164033	-0.287461
F62	F	1.479079	-0.540662	0.428815
F63	F	1.479127	-0.540628	-0.334806
H64	H	1.646478	-0.078519	0.359552
