data_functionalizedCrystal
_audit_creation_method	'MofGen! by Chris Wilmer'
_symmetry_space_group_name_H-M	'P1'
_symmetry_Int_Tables_number	1
_symmetry_cell_setting	triclinic
loop_
_symmetry_equiv_pos_as_xyz
  x,y,z
_cell_length_a	15.995350
_cell_length_b	14.971486
_cell_length_c	13.448316
_cell_angle_alpha	90.006811
_cell_angle_beta	89.996887
_cell_angle_gamma	96.446748
loop_
_atom_site_label
_atom_site_type_symbol
_atom_site_fract_x
_atom_site_fract_y
_atom_site_fract_z
O1	O	1.111103	-0.115296	-0.082608
O2	O	0.867342	-0.129533	-0.082629
O3	O	0.995756	0.007793	-0.082611
O4	O	0.982690	-0.252622	-0.082626
O5	O	0.995740	0.007802	0.082773
O6	O	0.867326	-0.129524	0.082755
O7	O	1.111087	-0.115287	0.082776
Cu8	Cu	0.989205	-0.122405	0.097866
Cu9	Cu	0.989224	-0.122415	-0.097719
O10	O	0.982673	-0.252613	0.082758
C11	C	0.836139	-0.128940	0.000061
C12	C	0.743187	-0.127175	0.000053
C13	C	0.995164	0.041122	0.000081
C14	C	0.993413	0.140417	0.000080
N15	N	0.989198	-0.122397	0.235431
C16	C	0.405433	-0.120838	0.000074
C17	C	0.452769	-0.023037	0.000449
C18	C	0.549461	-0.024802	0.000069
C19	C	0.572997	-0.123982	0.000064
C20	C	0.531967	-0.172225	-0.094377
C21	C	0.435329	-0.169768	-0.094449
C22	C	0.434974	-0.171780	0.093623
C23	C	0.531919	-0.171756	0.094865
C24	C	0.667696	-0.125763	0.000055
C25	C	0.310733	-0.119060	0.000076
C26	C	1.142291	-0.115880	0.000084
C27	C	1.235243	-0.117645	0.000085
C28	C	0.983266	-0.285942	0.000064
C29	C	0.985017	-0.385237	0.000059
C30	C	1.068852	0.197728	0.000087
C31	C	1.067202	0.291026	0.000077
C32	C	0.990111	0.327010	0.000067
C33	C	0.914666	0.269691	0.000057
C34	C	0.916317	0.176395	0.000060
C35	C	0.911229	0.464150	0.000053
C36	C	0.909577	0.557452	0.000052
C37	C	1.062114	0.578780	0.000070
C38	C	1.063766	0.485484	0.000073
C39	C	0.988320	0.428172	0.000065
N40	N	0.989238	-0.122415	-0.235284
C41	C	1.046077	-0.061614	0.287479
C42	C	1.046083	-0.061614	0.391582
C43	C	0.989212	-0.122401	0.443635
C44	C	0.932326	-0.183187	0.391580
C45	C	0.932318	-0.183183	0.287478
C46	C	0.932350	-0.183193	0.608560
C47	C	0.932359	-0.183199	0.712668
C48	C	1.046114	-0.061624	0.712664
C49	C	1.046106	-0.061620	0.608562
C50	C	0.989221	-0.122407	0.556514
H51	H	0.577845	0.013120	0.067769
N52	N	0.394971	-0.259847	-0.099829
N53	N	0.438204	-0.324326	-0.103525
H54	H	0.409705	-0.387944	-0.107328
H55	H	0.846803	0.586747	0.000059
H56	H	0.849793	0.417488	0.000043
N57	N	0.429453	0.025988	0.085419
N58	N	0.395901	0.096795	0.074182
H59	H	0.379425	0.131409	0.134202
N60	N	0.566091	-0.127565	0.182526
N61	N	0.541535	-0.155375	0.266373
H62	H	0.565663	-0.124155	0.328284
H63	H	1.092431	-0.012129	0.755047
N64	N	0.409157	-0.131661	0.183419
N65	N	0.368666	-0.065029	0.179555
H66	H	0.350431	-0.036687	0.242968
H67	H	1.128633	0.337686	0.000085
N68	N	0.549794	-0.263627	-0.098809
N69	N	0.588843	-0.290416	-0.171489
H70	H	0.601436	-0.354969	-0.174619
H71	H	0.851897	0.298997	0.000042
N72	N	0.428134	0.025774	-0.084034
N73	N	0.375867	-0.011156	-0.144518
H74	H	0.358466	0.023314	-0.204186
H75	H	0.577287	0.013369	-0.067744
H76	H	0.854886	0.129732	0.000054
N77	N	0.567539	-0.130237	-0.182559
N78	N	0.644736	-0.127686	-0.198660
H79	H	0.669863	-0.098037	-0.260941
H80	H	0.547356	-0.244081	0.100565
H81	H	0.403284	-0.243888	0.094259
H82	H	0.886025	-0.232690	0.566185
H83	H	0.416992	-0.134594	-0.165042
H84	H	0.886048	-0.232697	0.755045
N85	N	1.139184	0.637315	0.000097
N86	N	1.155269	0.691760	0.069815
H87	H	1.209698	0.733103	0.069842
N88	N	1.147608	0.160990	0.000111
N89	N	1.214958	0.212176	0.000118
H90	H	1.270583	0.186234	0.000134
H91	H	0.886017	-0.232678	0.433967
H92	H	1.126540	0.456189	0.000088
H93	H	1.092392	-0.012118	0.245104
N94	N	1.104186	0.000484	0.444732
N95	N	1.154961	0.054752	0.398245
H96	H	1.195999	0.098613	0.435781
H97	H	1.092418	-0.012127	0.566181
N98	N	0.874208	-0.245274	0.234324
N99	N	0.823433	-0.299543	0.280809
H100	H	0.782388	-0.343395	0.243271
