data_functionalizedCrystal
_audit_creation_method	'MofGen! by Chris Wilmer'
_symmetry_space_group_name_H-M	'P1'
_symmetry_Int_Tables_number	1
_symmetry_cell_setting	triclinic
loop_
_symmetry_equiv_pos_as_xyz
  x,y,z
_cell_length_a	25.639242
_cell_length_b	29.839132
_cell_length_c	25.639233
_cell_angle_alpha	89.978200
_cell_angle_beta	90.022166
_cell_angle_gamma	89.959210
loop_
_atom_site_label
_atom_site_type_symbol
_atom_site_fract_x
_atom_site_fract_y
_atom_site_fract_z
Zn1	Zn	0.799201	0.178962	0.295731
Zn2	Zn	1.132534	0.512295	0.629064
Zn3	Zn	1.465868	0.845628	0.962398
Zn4	Zn	0.799115	0.254076	0.208291
Zn5	Zn	1.132448	0.587409	0.541624
Zn6	Zn	1.465781	0.920743	0.874957
Zn7	Zn	0.711777	0.178955	0.208295
Zn8	Zn	1.045111	0.512288	0.541629
Zn9	Zn	1.378444	0.845622	0.874962
Zn10	Zn	0.711713	0.254059	0.295681
Zn11	Zn	1.045046	0.587393	0.629014
Zn12	Zn	1.378379	0.920726	0.962347
O13	O	0.755451	0.216513	0.251999
O14	O	1.088785	0.549846	0.585333
O15	O	1.422118	0.883180	0.918666
O16	O	0.872355	0.188935	0.284151
O17	O	1.205688	0.522269	0.617485
O18	O	1.539022	0.855602	0.950818
O19	O	0.787520	0.244115	0.135126
O20	O	1.120853	0.577449	0.468459
O21	O	1.454187	0.910782	0.801793
O22	O	0.723438	0.116089	0.219917
O23	O	1.056771	0.449422	0.553250
O24	O	1.390104	0.782755	0.886583
O25	O	0.872291	0.244122	0.219909
O26	O	1.205625	0.577455	0.553243
O27	O	1.538958	0.910788	0.886576
O28	O	0.787668	0.116094	0.284156
O29	O	1.121001	0.449427	0.617489
O30	O	1.454334	0.782760	0.950822
O31	O	0.723354	0.188924	0.135129
O32	O	1.056687	0.522258	0.468463
O33	O	1.390021	0.855591	0.801796
O34	O	0.638604	0.188908	0.219868
O35	O	0.971937	0.522241	0.553201
O36	O	1.305270	0.855575	0.886534
O37	O	0.723327	0.244093	0.368853
O38	O	1.056660	0.577427	0.702186
O39	O	1.389994	0.910760	1.035519
O40	O	0.638556	0.244087	0.284070
O41	O	0.971889	0.577420	0.617403
O42	O	1.305223	0.910754	0.950736
O43	O	0.787605	0.188919	0.368890
O44	O	1.120938	0.522253	0.702223
O45	O	1.454271	0.855586	1.035556
O46	O	0.787457	0.316941	0.219860
O47	O	1.120790	0.650274	0.553194
O48	O	1.454124	0.983608	0.886527
O49	O	0.723243	0.316929	0.284065
O50	O	1.056577	0.650262	0.617399
O51	O	1.389910	0.983595	0.950732
C52	C	0.619609	0.216495	0.251964
C53	C	0.952942	0.549829	0.585297
C54	C	1.286276	0.883162	0.918631
C55	C	0.561495	0.216499	0.251961
C56	C	0.894828	0.549832	0.585295
C57	C	1.228162	0.883165	0.918628
C58	C	0.201116	0.245293	0.285398
C59	C	0.534449	0.578626	0.618731
C60	C	0.867782	0.911959	0.952064
C61	C	0.146511	0.245295	0.285406
C62	C	0.479845	0.578629	0.618739
C63	C	0.813178	0.911962	0.952073
O64	O	0.118261	0.269755	0.313805
O65	O	0.451594	0.603089	0.647138
O66	O	0.784928	0.936422	0.980471
N67	N	0.119212	0.216525	0.252034
N68	N	0.452546	0.549859	0.585367
N69	N	0.785879	0.883192	0.918700
C70	C	0.146520	0.187748	0.218655
C71	C	0.479854	0.521081	0.551988
C72	C	0.813187	0.854414	0.885321
O73	O	0.118286	0.163276	0.190270
O74	O	0.451620	0.496610	0.523603
O75	O	0.784953	0.829943	0.856937
C76	C	0.201124	0.187743	0.218649
C77	C	0.534457	0.521076	0.551983
C78	C	0.867790	0.854410	0.885316
C79	C	0.228420	0.216518	0.252020
C80	C	0.561753	0.549851	0.585353
C81	C	0.895087	0.883185	0.918687
C82	C	0.228412	0.274065	0.318766
C83	C	0.561745	0.607398	0.652099
C84	C	0.895079	0.940732	0.985433
C85	C	0.283013	0.274063	0.318757
C86	C	0.616346	0.607396	0.652090
C87	C	0.949679	0.940730	0.985424
C88	C	0.310317	0.245288	0.285379
C89	C	0.643650	0.578621	0.618713
C90	C	0.976984	0.911955	0.952046
C91	C	0.283021	0.216516	0.252011
C92	C	0.616354	0.549849	0.585344
C93	C	0.949687	0.883182	0.918678
C94	C	0.228431	0.158963	0.185273
C95	C	0.561764	0.492296	0.518607
C96	C	0.895097	0.825630	0.851940
C97	C	0.283038	0.158961	0.185271
C98	C	0.616371	0.492294	0.518605
C99	C	0.949704	0.825627	0.851938
C100	C	0.310334	0.187736	0.218642
C101	C	0.643667	0.521069	0.551975
C102	C	0.977001	0.854402	0.885309
C103	C	0.364925	0.187739	0.218624
C104	C	0.698259	0.521072	0.551958
C105	C	1.031592	0.854405	0.885291
N106	N	0.392224	0.216509	0.251997
N107	N	0.725558	0.549842	0.585330
N108	N	1.058891	0.883175	0.918663
C109	C	0.364920	0.245283	0.285374
C110	C	0.698254	0.578617	0.618708
C111	C	1.031587	0.911950	0.952041
C112	C	0.031850	0.187759	0.218669
C113	C	0.365183	0.521092	0.552002
C114	C	0.698516	0.854426	0.885335
C115	C	-0.022753	0.187766	0.218671
C116	C	0.310581	0.521099	0.552004
C117	C	0.643914	0.854432	0.885338
C118	C	-0.022758	0.245313	0.285423
C119	C	0.310576	0.578646	0.618756
C120	C	0.643909	0.911980	0.952090
C121	C	0.031846	0.245308	0.285418
C122	C	0.365179	0.578642	0.618751
C123	C	0.698512	0.911975	0.952084
C124	C	0.059149	0.216529	0.252041
C125	C	0.392482	0.549862	0.585374
C126	C	0.725816	0.883196	0.918708
C127	C	0.479585	0.245277	0.285352
C128	C	0.812919	0.578610	0.618686
C129	C	1.146252	0.911943	0.952019
C130	C	0.534191	0.245273	0.285339
C131	C	0.867524	0.578607	0.618672
C132	C	1.200857	0.911940	0.952005
C133	C	0.534191	0.187724	0.218589
C134	C	0.867524	0.521058	0.551922
C135	C	1.200858	0.854391	0.885256
C136	C	0.479590	0.187729	0.218600
C137	C	0.812924	0.521063	0.551934
C138	C	1.146257	0.854396	0.885267
C139	C	0.452289	0.216507	0.251986
C140	C	0.785622	0.549840	0.585320
C141	C	1.118956	0.883174	0.918653
O142	O	0.393210	0.163290	0.190242
O143	O	0.726544	0.496623	0.523575
O144	O	1.059877	0.829957	0.856908
O145	O	0.393161	0.269746	0.313759
O146	O	0.726494	0.603080	0.647092
O147	O	1.059828	0.936413	0.980426
C148	C	0.755348	0.333236	0.251968
C149	C	1.088681	0.666569	0.585302
C150	C	1.422015	0.999902	0.918635
C151	C	0.755351	0.383170	0.251972
C152	C	1.088685	0.716503	0.585306
C153	C	1.422018	1.049837	0.918639
C154	C	0.788911	0.692807	0.218595
C155	C	1.122245	1.026140	0.551929
C156	C	1.455578	1.359474	0.885262
C157	C	0.788961	0.880480	0.218607
C158	C	1.122294	1.213814	0.551941
C159	C	1.455628	1.547147	0.885274
O160	O	0.817439	0.904740	0.190220
O161	O	1.150772	1.238073	0.523553
O162	O	1.484105	1.571406	0.856886
N163	N	0.755506	0.903955	0.252008
N164	N	1.088839	1.237288	0.585341
N165	N	1.422173	1.570622	0.918675
C166	C	0.722039	0.880509	0.285411
C167	C	1.055372	1.213842	0.618744
C168	C	1.388705	1.547176	0.952077
O169	O	0.693588	0.904782	0.313824
O170	O	1.026922	1.238115	0.647157
O171	O	1.360255	1.571449	0.980491
C172	C	0.721992	0.692837	0.285401
C173	C	1.055325	1.026170	0.618734
C174	C	1.388659	1.359503	0.952068
C175	C	0.755445	0.669364	0.251994
C176	C	1.088779	1.002698	0.585328
C177	C	1.422112	1.336031	0.918661
C178	C	0.822362	0.669335	0.185192
C179	C	1.155696	1.002668	0.518525
C180	C	1.489029	1.336001	0.851858
C181	C	0.822347	0.622419	0.185187
C182	C	1.155681	0.955753	0.518520
C183	C	1.489014	1.289086	0.851854
C184	C	0.788882	0.598976	0.218586
C185	C	1.122215	0.932310	0.551919
C186	C	1.455548	1.265643	0.885253
C187	C	0.755430	0.622449	0.251990
C188	C	1.088764	0.955782	0.585323
C189	C	1.422097	1.289115	0.918656
C190	C	0.688528	0.669391	0.318806
C191	C	1.021861	1.002725	0.652139
C192	C	1.355194	1.336058	0.985472
C193	C	0.688520	0.622470	0.318801
C194	C	1.021853	0.955804	0.652135
C195	C	1.355186	1.289137	0.985468
C196	C	0.721973	0.598998	0.285395
C197	C	1.055307	0.932331	0.618728
C198	C	1.388640	1.265664	0.952061
C199	C	0.721950	0.552090	0.285384
C200	C	1.055283	0.885424	0.618717
C201	C	1.388616	1.218757	0.952051
N202	N	0.755405	0.528615	0.251983
N203	N	1.088738	0.861949	0.585316
N204	N	1.422071	1.195282	0.918650
C205	C	0.788871	0.552058	0.218584
C206	C	1.122204	0.885392	0.551918
C207	C	1.455537	1.218725	0.885251
C208	C	0.722065	0.979039	0.285412
C209	C	1.055398	1.312373	0.618746
C210	C	1.388732	1.645706	0.952079
C211	C	0.722076	1.025957	0.285414
C212	C	1.055409	1.359291	0.618748
C213	C	1.388743	1.692624	0.952081
C214	C	0.788999	1.025925	0.218612
C215	C	1.122332	1.359259	0.551945
C216	C	1.455666	1.692592	0.885278
C217	C	0.788985	0.979007	0.218607
C218	C	1.122318	1.312340	0.551941
C219	C	1.455652	1.645673	0.885274
C220	C	0.755520	0.955565	0.252012
C221	C	1.088853	1.288898	0.585345
C222	C	1.422187	1.622231	0.918678
C223	C	0.788837	0.453533	0.218577
C224	C	1.122170	0.786866	0.551910
C225	C	1.455503	1.120199	0.885243
C226	C	0.788817	0.406613	0.218573
C227	C	1.122151	0.739946	0.551907
C228	C	1.455484	1.073280	0.885240
C229	C	0.721896	0.406649	0.285378
C230	C	1.055230	0.739982	0.618711
C231	C	1.388563	1.073316	0.952045
C232	C	0.721914	0.453564	0.285379
C233	C	1.055247	0.786898	0.618713
C234	C	1.388580	1.120231	0.952046
C235	C	0.755388	0.477005	0.251977
C236	C	1.088721	0.810338	0.585310
C237	C	1.422055	1.143672	0.918644
O238	O	0.693491	0.527802	0.313761
O239	O	1.026825	0.861135	0.647094
O240	O	1.360158	1.194469	0.980427
O241	O	0.817325	0.527777	0.190183
O242	O	1.150658	0.861111	0.523517
O243	O	1.483992	1.194444	0.856850
C244	C	0.788926	0.739723	0.218600
C245	C	1.122259	1.073056	0.551933
C246	C	1.455593	1.406389	0.885267
C247	C	0.755475	0.763195	0.252004
C248	C	1.088808	1.096528	0.585337
C249	C	1.422142	1.429862	0.918670
C250	C	0.722009	0.739752	0.285402
C251	C	1.055342	1.073086	0.618736
C252	C	1.388676	1.406419	0.952069
C253	C	0.755486	0.810113	0.252005
C254	C	1.088819	1.143446	0.585339
C255	C	1.422153	1.476780	0.918672
C256	C	0.788952	0.833556	0.218606
C257	C	1.122285	1.166889	0.551940
C258	C	1.455618	1.500223	0.885273
C259	C	0.822407	0.810081	0.185206
C260	C	1.155740	1.143414	0.518539
C261	C	1.489073	1.476748	0.851872
C262	C	0.822392	0.763166	0.185201
C263	C	1.155725	1.096499	0.518534
C264	C	1.489059	1.429832	0.851868
C265	C	0.688554	0.763227	0.318803
C266	C	1.021887	1.096560	0.652137
C267	C	1.355221	1.429894	0.985470
C268	C	0.688571	0.810143	0.318805
C269	C	1.021905	1.143476	0.652138
C270	C	1.355238	1.476809	0.985471
C271	C	0.722037	0.833586	0.285406
C272	C	1.055370	1.166919	0.618739
C273	C	1.388704	1.500252	0.952072
C274	C	0.891824	0.216531	0.252035
C275	C	1.225158	0.549864	0.585369
C276	C	1.558491	0.883198	0.918702
C277	C	0.949938	0.216539	0.252051
C278	C	1.283272	0.549872	0.585384
C279	C	1.616605	0.883206	0.918717
C280	C	0.755468	0.216505	0.388372
C281	C	1.088802	0.549838	0.721706
C282	C	1.422135	0.883172	1.055039
C283	C	0.755475	0.216502	0.446487
C284	C	1.088809	0.549835	0.779820
C285	C	1.422142	0.883168	1.113153
C286	C	0.755550	1.099335	0.252031
C287	C	1.088883	1.432668	0.585364
C288	C	1.422217	1.766001	0.918698
C289	C	0.755542	1.049400	0.252015
C290	C	1.088875	1.382734	0.585349
C291	C	1.422209	1.716067	0.918682
C292	C	0.755465	0.216488	0.116157
C293	C	1.088798	0.549822	0.449490
C294	C	1.422131	0.883155	0.782824
C295	C	0.755559	0.216365	0.058043
C296	C	1.088892	0.549699	0.391377
C297	C	1.422226	0.883032	0.724710
C298	C	0.788987	0.187687	0.806875
C299	C	1.122321	0.521021	1.140208
C300	C	1.455654	0.854354	1.473541
C301	C	0.788994	0.187675	0.861479
C302	C	1.122327	0.521008	1.194812
C303	C	1.455660	0.854342	1.528146
O304	O	0.817444	0.163229	0.889737
O305	O	1.150778	0.496562	1.223070
O306	O	1.484111	0.829895	1.556404
N307	N	0.755533	0.216396	0.888769
N308	N	1.088866	0.549730	1.222103
N309	N	1.422200	0.883063	1.555436
C310	C	0.722060	0.245129	0.861452
C311	C	1.055394	0.578462	1.194786
C312	C	1.388727	0.911796	1.528119
O313	O	0.693600	0.269558	0.889679
O314	O	1.026933	0.602891	1.223012
O315	O	1.360266	0.936224	1.556345
C316	C	0.722051	0.245139	0.806849
C317	C	1.055385	0.578472	1.140182
C318	C	1.388718	0.911806	1.473516
C319	C	0.755518	0.216419	0.779562
C320	C	1.088851	0.549752	1.112895
C321	C	1.422185	0.883085	1.446228
C322	C	0.822451	0.158969	0.779587
C323	C	1.155784	0.492302	1.112921
C324	C	1.489117	0.825636	1.446254
C325	C	0.822445	0.158982	0.724987
C326	C	1.155778	0.492315	1.058320
C327	C	1.489111	0.825649	1.391653
C328	C	0.788975	0.187714	0.697674
C329	C	1.122309	0.521047	1.031007
C330	C	1.455642	0.854380	1.364340
C331	C	0.755512	0.216432	0.724961
C332	C	1.088845	0.549765	1.058294
C333	C	1.422179	0.883099	1.391628
C334	C	0.688576	0.273869	0.779533
C335	C	1.021910	0.607202	1.112866
C336	C	1.355243	0.940536	1.446200
C337	C	0.688570	0.273876	0.724926
C338	C	1.021904	0.607209	1.058259
C339	C	1.355237	0.940543	1.391593
C340	C	0.722037	0.245156	0.697639
C341	C	1.055370	0.578489	1.030972
C342	C	1.388703	0.911823	1.364305
C343	C	0.722037	0.245176	0.643047
C344	C	1.055370	0.578510	0.976381
C345	C	1.388704	0.911843	1.309714
N346	N	0.755497	0.216455	0.615757
N347	N	1.088831	0.549788	0.949090
N348	N	1.422164	0.883121	1.282424
C349	C	0.788967	0.187723	0.643070
C350	C	1.122300	0.521057	0.976404
C351	C	1.455633	0.854390	1.309737
C352	C	0.722080	0.245106	0.976123
C353	C	1.055414	0.578439	1.309456
C354	C	1.388747	0.911772	1.642790
C355	C	0.722091	0.245099	1.030725
C356	C	1.055425	0.578432	1.364059
C357	C	1.388758	0.911765	1.697392
C358	C	0.789024	0.187644	1.030748
C359	C	1.122358	0.520977	1.364082
C360	C	1.455691	0.854310	1.697415
C361	C	0.789016	0.187653	0.976145
C362	C	1.122349	0.520987	1.309478
C363	C	1.455682	0.854320	1.642812
C364	C	0.755541	0.216384	0.948833
C365	C	1.088874	0.549718	1.282166
C366	C	1.422208	0.883051	1.615499
C367	C	0.788952	0.187753	0.528405
C368	C	1.122285	0.521087	0.861738
C369	C	1.455619	0.854420	1.195072
C370	C	0.788945	0.187770	0.473800
C371	C	1.122278	0.521104	0.807133
C372	C	1.455611	0.854437	1.140466
C373	C	0.722010	0.245224	0.473781
C374	C	1.055343	0.578557	0.807115
C375	C	1.388677	0.911890	1.140448
C376	C	0.722019	0.245208	0.528382
C377	C	1.055352	0.578542	0.861715
C378	C	1.388686	0.911875	1.195049
C379	C	0.755492	0.216470	0.555693
C380	C	1.088825	0.549803	0.889026
C381	C	1.422159	0.883136	1.222359
O382	O	0.693599	0.269609	0.614755
O383	O	1.026933	0.602942	0.948088
O384	O	1.360266	0.936275	1.281421
O385	O	0.817418	0.163295	0.614837
O386	O	1.150751	0.496628	0.948170
O387	O	1.484084	0.829961	1.281504
H388	H	0.305265	0.135522	0.158094
H389	H	0.638599	0.468855	0.491428
H390	H	0.971932	0.802188	0.824761
H391	H	0.661325	0.829250	0.346008
H392	H	0.994658	1.162583	0.679341
H393	H	1.327992	1.495917	1.012675
H394	H	0.694821	0.268504	0.953889
H395	H	1.028154	0.601838	1.287222
H396	H	1.361487	0.935171	1.620555
O397	O	0.821466	0.159687	0.949665
O398	O	1.154799	0.493020	1.282998
O399	O	1.488132	0.826354	1.616332
C400	C	0.810093	0.114910	0.963031
C401	C	1.143426	0.448244	1.296365
C402	C	1.476760	0.781577	1.629698
H403	H	0.768328	0.112637	0.978030
H404	H	1.101661	0.445970	1.311363
H405	H	1.434994	0.779303	1.644697
H406	H	0.814616	0.092717	0.927132
H407	H	1.147949	0.426051	1.260465
H408	H	1.481282	0.759384	1.593798
H409	H	0.838139	0.103169	0.994739
H410	H	1.171472	0.436502	1.328072
H411	H	1.504805	0.769835	1.661406
H412	H	-0.044973	0.164338	0.191492
H413	H	0.288361	0.497672	0.524825
H414	H	0.621694	0.831005	0.858159
H415	H	0.661269	0.603386	0.346005
H416	H	0.994602	0.936719	0.679338
H417	H	1.327936	1.270053	1.012672
H418	H	0.457363	0.268709	0.312540
H419	H	0.790696	0.602043	0.645873
H420	H	1.124030	0.935376	0.979206
H421	H	0.661324	0.297256	0.801741
H422	H	0.994657	0.630589	1.135074
H423	H	1.327991	0.963923	1.468408
O424	O	0.821608	0.159778	1.057264
O425	O	1.154941	0.493111	1.390598
O426	O	1.488274	0.826444	1.723931
C427	C	0.873709	0.169592	1.043931
C428	C	1.207042	0.502926	1.377264
C429	C	1.540376	0.836259	1.710598
H430	H	0.876318	0.205484	1.028912
H431	H	1.209651	0.538817	1.362245
H432	H	1.542984	0.872151	1.695578
H433	H	0.899541	0.165719	1.079852
H434	H	1.232875	0.499053	1.413186
H435	H	1.566208	0.832386	1.746519
H436	H	0.887398	0.145511	1.012249
H437	H	1.220731	0.478844	1.345582
H438	H	1.554065	0.812177	1.678915
H439	H	0.849654	0.829176	0.158010
H440	H	1.182988	1.162510	0.491343
H441	H	1.516321	1.495843	0.824676
H442	H	0.849705	0.135570	0.801820
H443	H	1.183039	0.468903	1.135153
H444	H	1.516372	0.802237	1.468487
H445	H	0.305233	0.297494	0.345932
H446	H	0.638566	0.630827	0.679265
H447	H	0.971899	0.964160	1.012599
O448	O	0.689318	0.383894	0.317770
O449	O	1.022651	0.717227	0.651103
O450	O	1.355984	1.050561	0.984436
C451	C	0.637215	0.395408	0.306308
C452	C	0.970548	0.728742	0.639642
C453	C	1.303882	1.062075	0.972975
H454	H	0.634596	0.408323	0.264538
H455	H	0.967929	0.741656	0.597871
H456	H	1.301262	1.074990	0.931205
H457	H	0.611378	0.364570	0.310789
H458	H	0.944711	0.697904	0.644123
H459	H	1.278045	1.031237	0.977456
H460	H	0.623539	0.422642	0.334330
H461	H	0.956873	0.755975	0.667663
H462	H	1.290206	1.089309	1.000996
H463	H	0.816226	0.959898	0.191405
H464	H	1.149559	1.293232	0.524739
H465	H	1.482893	1.626565	0.858072
O466	O	0.655991	0.740528	0.351262
O467	O	0.989325	1.073861	0.684596
O468	O	1.322658	1.407195	1.017929
C469	C	0.626479	0.771313	0.380749
C470	C	0.959813	1.104647	0.714082
C471	C	1.293146	1.437980	1.047416
H472	H	0.624703	0.804767	0.359332
H473	H	0.958036	1.138100	0.692665
H474	H	1.291370	1.471434	1.025999
H475	H	0.585274	0.757796	0.386277
H476	H	0.918607	1.091129	0.719610
H477	H	1.251941	1.424462	1.052943
H478	H	0.645596	0.776271	0.420481
H479	H	0.978929	1.109604	0.753814
H480	H	1.312263	1.442938	1.087148
H481	H	0.054077	0.164324	0.191486
H482	H	0.387410	0.497657	0.524819
H483	H	0.720743	0.830990	0.858152
H484	H	0.816199	0.164383	0.451585
H485	H	1.149532	0.497716	0.784918
H486	H	1.482866	0.831049	1.118251
H487	H	0.556432	0.164298	0.191412
H488	H	0.889765	0.497632	0.524745
H489	H	1.223099	0.830965	0.858079
H490	H	0.661305	0.297268	0.702691
H491	H	0.994638	0.630601	1.036025
H492	H	1.327972	0.963935	1.369358
O493	O	0.854889	0.692033	0.152695
O494	O	1.188223	1.025367	0.486028
O495	O	1.521556	1.358700	0.819361
C496	C	0.884417	0.661246	0.123226
C497	C	1.217750	0.994579	0.456560
C498	C	1.551083	1.327912	0.789893
H499	H	0.862990	0.627821	0.121401
H500	H	1.196323	0.961154	0.454735
H501	H	1.529656	1.294487	0.788068
H502	H	0.890023	0.674804	0.082035
H503	H	1.223357	1.008138	0.415368
H504	H	1.556690	1.341471	0.748702
H505	H	0.924112	0.656217	0.142413
H506	H	1.257446	0.989550	0.475746
H507	H	1.590779	1.322884	0.809079
H508	H	0.694773	0.268599	0.550601
H509	H	1.028106	0.601932	0.883934
H510	H	1.361440	0.935266	1.217267
H511	H	0.556413	0.268707	0.312514
H512	H	0.889746	0.602040	0.645847
H513	H	1.223080	0.935374	0.979180
O514	O	-0.049229	0.273241	0.317923
O515	O	0.284105	0.606575	0.651256
O516	O	0.617438	0.939908	0.984590
C517	C	-0.035864	0.263480	0.370053
C518	C	0.297469	0.596813	0.703387
C519	C	0.630802	0.930146	1.036720
H520	H	0.003797	0.246212	0.371171
H521	H	0.337130	0.579546	0.704505
H522	H	0.670464	0.912879	1.037838
H523	H	-0.034014	0.295931	0.393430
H524	H	0.299319	0.629265	0.726763
H525	H	0.632653	0.962598	1.060096
H526	H	-0.066568	0.240403	0.387714
H527	H	0.266765	0.573737	0.721047
H528	H	0.600099	0.907070	1.054380
H529	H	0.849590	0.603311	0.157986
H530	H	1.182923	0.936644	0.491319
H531	H	1.516256	1.269977	0.824653
O532	O	0.821523	1.048772	0.186248
O533	O	1.154857	1.382105	0.519581
O534	O	1.488190	1.715438	0.852915
C535	C	0.814362	1.095215	0.193424
C536	C	1.147695	1.428548	0.526758
C537	C	1.481029	1.761881	0.860091
H538	H	0.797165	1.101607	0.233739
H539	H	1.130498	1.434940	0.567072
H540	H	1.463831	1.768274	0.900405
H541	H	0.853544	1.113006	0.189982
H542	H	1.186877	1.446339	0.523315
H543	H	1.520210	1.779672	0.856648
H544	H	0.786588	1.108586	0.162357
H545	H	1.119921	1.441919	0.495690
H546	H	1.453254	1.775253	0.829024
H547	H	0.694830	1.045065	0.312613
H548	H	1.028163	1.378398	0.645946
H549	H	1.361497	1.711731	0.979279
H550	H	0.694845	0.268490	1.052938
H551	H	1.028179	0.601824	1.386271
H552	H	1.361512	0.935157	1.719605
H553	H	0.816207	0.164350	0.550635
H554	H	1.149540	0.497683	0.883968
H555	H	1.482874	0.831017	1.217302
H556	H	0.694762	0.268617	0.451533
H557	H	1.028095	0.601951	0.784867
H558	H	1.361429	0.935284	1.118200
H559	H	0.694675	0.472677	0.312584
H560	H	1.028008	0.806010	0.645917
H561	H	1.361341	1.139343	0.979250
H562	H	0.816096	0.472612	0.191378
H563	H	1.149429	0.805946	0.524712
H564	H	1.482762	1.139279	0.858045
H565	H	0.206187	0.297497	0.345949
H566	H	0.539520	0.630830	0.679282
H567	H	0.872854	0.964164	1.012616
O568	O	0.655980	0.692206	0.351186
O569	O	0.989313	1.025540	0.684520
O570	O	1.322646	1.358873	1.017853
C571	C	0.622239	0.719396	0.321398
C572	C	0.955572	1.052729	0.654732
C573	C	1.288905	1.386062	0.988065
H574	H	0.619026	0.705281	0.280213
H575	H	0.952359	1.038614	0.613546
H576	H	1.285692	1.371948	0.946879
H577	H	0.581993	0.719949	0.340274
H578	H	0.915326	1.053282	0.673607
H579	H	1.248660	1.386616	1.006941
H580	H	0.638413	0.754942	0.319621
H581	H	0.971746	1.088276	0.652955
H582	H	1.305079	1.421609	0.986288
H583	H	0.849696	0.135594	0.702774
H584	H	1.183029	0.468928	1.036107
H585	H	1.516362	0.802261	1.369441
H586	H	0.054067	0.268739	0.312592
H587	H	0.387400	0.602072	0.645925
H588	H	0.720733	0.935406	0.979259
O589	O	0.201911	0.131081	0.152784
O590	O	0.535244	0.464415	0.486118
O591	O	0.868578	0.797748	0.819451
C592	C	0.170293	0.156622	0.118965
C593	C	0.503627	0.489955	0.452298
C594	C	0.836960	0.823288	0.785631
H595	H	0.186713	0.192004	0.115682
H596	H	0.520046	0.525337	0.449015
H597	H	0.853380	0.858671	0.782348
H598	H	0.169693	0.140335	0.078756
H599	H	0.503027	0.473668	0.412089
H600	H	0.836360	0.807002	0.745422
H601	H	0.128908	0.158179	0.135108
H602	H	0.462241	0.491512	0.468442
H603	H	0.795574	0.824846	0.801775
H604	H	0.457365	0.164299	0.191426
H605	H	0.790698	0.497633	0.524759
H606	H	1.124031	0.830966	0.858093
H607	H	0.816059	0.387503	0.191368
H608	H	1.149392	0.720836	0.524701
H609	H	1.482726	1.054170	0.858035
H610	H	0.694812	0.959956	0.312615
H611	H	1.028146	1.293289	0.645948
H612	H	1.361479	1.626623	0.979282
H613	H	0.849633	0.744058	0.157998
H614	H	1.182966	1.077391	0.491332
H615	H	1.516300	1.410724	0.824665
