data_functionalizedCrystal
_audit_creation_method	'MofGen! by Chris Wilmer'
_symmetry_space_group_name_H-M	'P1'
_symmetry_Int_Tables_number	1
_symmetry_cell_setting	triclinic
loop_
_symmetry_equiv_pos_as_xyz
  x,y,z
_cell_length_a	17.052862
_cell_length_b	31.640172
_cell_length_c	31.640172
_cell_angle_alpha	60.009470
_cell_angle_beta	90.009392
_cell_angle_gamma	50.265855
loop_
_atom_site_label
_atom_site_type_symbol
_atom_site_fract_x
_atom_site_fract_y
_atom_site_fract_z
Zr1	Zr	0.914490	0.313933	0.018871
O2	O	0.762959	0.426716	-0.060922
O3	O	0.960924	0.218223	0.043329
O4	O	0.960943	0.306369	-0.044833
O5	O	0.762946	0.338583	0.096786
O6	O	1.117138	0.280981	-0.032138
O7	O	0.762940	0.338570	0.027240
O8	O	1.117103	0.123303	0.125568
O9	O	0.762980	0.496260	-0.060920
O10	O	1.097316	0.232319	0.063237
O11	O	0.980754	0.251276	0.105665
O12	O	0.980777	0.355056	0.001866
O13	O	0.864215	0.374013	0.044293
Zr14	Zr	1.163612	0.273462	0.150035
Zr15	Zr	1.163602	0.273442	0.039117
Zr16	Zr	0.914500	0.313953	0.129789
Zr17	Zr	0.914524	0.424847	0.018875
Zr18	Zr	1.163578	0.162547	0.150031
O19	O	1.117179	0.369172	0.125577
O20	O	1.117165	0.369143	-0.032135
O21	O	0.762973	0.426745	0.096789
O22	O	1.315143	0.160679	0.229829
O23	O	1.315129	0.160649	0.072117
O24	O	0.960937	0.218252	0.201041
O25	O	1.315156	0.248812	0.072120
O26	O	1.117159	0.281026	0.213739
O27	O	0.960965	0.306414	0.201044
O28	O	1.315163	0.248825	0.141667
O29	O	0.960992	0.464075	-0.044827
O30	O	1.117111	0.123320	0.213733
O31	O	1.315122	0.091135	0.229826
O32	O	1.315114	0.091118	0.141661
O33	O	0.762988	0.496276	0.027245
O34	O	0.960999	0.464091	0.043338
O35	O	1.097325	0.232338	0.167040
O36	O	1.213887	0.213382	0.124613
O37	O	1.097348	0.336119	0.063241
O38	O	0.980786	0.355075	0.105669
C39	C	0.727449	0.344345	0.059128
C40	C	0.621695	0.361535	0.050533
C41	C	1.039008	0.154960	0.084448
C42	C	1.038994	0.107874	0.084446
C43	C	0.566924	0.153713	0.154447
C44	C	0.666288	0.137561	0.162520
C45	C	0.655145	0.193553	0.134524
C46	C	0.544627	0.265700	0.098453
C47	C	0.445254	0.281855	0.090375
C48	C	0.533475	0.321694	0.070453
C49	C	0.422957	0.393842	0.034382
C50	C	0.323595	0.409993	0.026306
C51	C	0.334737	0.354001	0.054302
C52	C	0.632849	0.305540	0.078531
C53	C	0.511178	0.433681	0.014459
C54	C	0.411814	0.449834	0.006386
C55	C	1.099918	-0.194076	0.062313
C56	C	1.099942	-0.371076	0.062315
O57	O	1.151731	-0.402403	0.043502
N58	N	1.039097	-0.383310	0.084461
C59	C	0.978247	-0.351294	0.106611
O60	O	0.926505	-0.365767	0.125452
C61	C	0.978231	-0.174299	0.106612
C62	C	1.039071	-0.162063	0.084460
C63	C	1.160754	-0.181839	0.040163
C64	C	1.160743	-0.137589	0.040160
C65	C	1.099895	-0.105575	0.062307
C66	C	1.039059	-0.117812	0.084457
C67	C	0.917389	-0.142289	0.128765
C68	C	0.917393	-0.098040	0.128765
C69	C	0.978232	-0.085803	0.106613
C70	C	0.978200	-0.041548	0.106600
N71	N	1.039045	-0.029314	0.084455
C72	C	1.099893	-0.061328	0.062308
C73	C	0.978258	-0.444218	0.106608
C74	C	0.978261	-0.488466	0.106607
C75	C	1.099958	-0.508246	0.062312
C76	C	1.099948	-0.463993	0.062310
C77	C	1.039104	-0.431984	0.084462
C78	C	1.099863	0.031603	0.062303
C79	C	1.099841	0.075860	0.062300
C80	C	0.978150	0.095633	0.106597
C81	C	0.978166	0.051383	0.106598
C82	C	1.039031	0.019365	0.084450
O83	O	0.926449	-0.010205	0.125409
O84	O	1.151648	-0.046859	0.043480
C85	C	1.099930	-0.238327	0.062316
C86	C	1.039094	-0.250564	0.084466
C87	C	0.978247	-0.218550	0.106613
C88	C	1.039097	-0.294811	0.084465
C89	C	1.099944	-0.326825	0.062318
C90	C	1.160790	-0.314591	0.040172
C91	C	1.160778	-0.270340	0.040169
C92	C	0.917401	-0.230784	0.128758
C93	C	0.917417	-0.275035	0.128759
C94	C	0.978265	-0.307048	0.106612
C95	C	1.350653	0.243049	0.109778
C96	C	1.456407	0.225860	0.118373
C97	C	1.039039	0.293672	-0.054289
C98	C	1.039035	0.293663	-0.101376
C99	C	1.039094	0.432435	0.084458
C100	C	1.039108	0.479521	0.084460
C101	C	1.099909	0.229621	-0.405643
C102	C	1.099891	0.229606	-0.228645
O103	O	1.151661	0.175112	-0.178514
N104	N	1.039055	0.293673	-0.238547
C105	C	0.978226	0.357747	-0.292703
O106	O	0.926491	0.412237	-0.297063
C107	C	0.978251	0.357760	-0.469699
C108	C	1.039081	0.293691	-0.459794
C109	C	1.160735	0.165557	-0.395740
C110	C	1.160733	0.165562	-0.439988
C111	C	1.099906	0.229632	-0.494138
C112	C	1.039080	0.293696	-0.504041
C113	C	0.917430	0.421832	-0.523853
C114	C	0.917444	0.421829	-0.568102
C115	C	0.978274	0.357760	-0.558197
C116	C	0.978251	0.357771	-0.602439
N117	N	1.039087	0.293704	-0.592537
C118	C	1.099914	0.229634	-0.538387
C119	C	0.978216	0.357735	-0.199775
C120	C	0.978207	0.357732	-0.155527
C121	C	1.099874	0.229591	-0.091472
C122	C	1.099875	0.229596	-0.135722
C123	C	1.039051	0.293669	-0.189874
C124	C	1.099906	0.229651	-0.631312
C125	C	1.099895	0.229662	-0.675567
C126	C	0.978233	0.357802	-0.739617
C127	C	0.978239	0.357792	-0.695367
C128	C	1.039083	0.293710	-0.641213
O129	O	0.926519	0.412234	-0.652583
O130	O	1.151662	0.175148	-0.534037
C131	C	1.099910	0.229616	-0.361396
C132	C	1.039084	0.293680	-0.371299
C133	C	0.978257	0.357750	-0.425449
C134	C	1.039076	0.293677	-0.327050
C135	C	1.099903	0.229608	-0.272900
C136	C	1.160739	0.165541	-0.262998
C137	C	1.160737	0.165546	-0.307245
C138	C	0.917421	0.421816	-0.435351
C139	C	0.917426	0.421806	-0.391101
C140	C	0.978254	0.357736	-0.336950
C141	C	1.039063	0.293723	0.223195
C142	C	1.039067	0.293732	0.270282
C143	C	1.350610	0.104312	0.109773
C144	C	1.456350	0.040036	0.118367
C145	C	1.039021	0.154986	0.223190
C146	C	1.039010	0.107908	0.270276
C147	C	1.350622	0.104337	0.248515
C148	C	1.456366	0.040070	0.304196
C149	C	0.727480	0.483057	-0.079609
C150	C	0.621736	0.547324	-0.135290
C151	C	0.727492	0.483083	0.059133
C152	C	0.621752	0.547359	0.050540
C153	C	1.039082	0.432409	-0.054284
C154	C	1.039092	0.479486	-0.101370
C155	C	1.445158	0.019737	0.090360
C156	C	1.544503	-0.040650	0.098423
C157	C	1.655038	-0.080738	0.134496
C158	C	1.666228	-0.060434	0.162503
C159	C	1.566885	-0.000046	0.154437
C160	C	1.099854	0.075915	0.324430
C161	C	1.099840	0.031688	0.368676
C162	C	1.038988	0.019450	0.358767
C163	C	0.978137	0.051449	0.304608
C164	C	0.978145	0.095679	0.260362
C165	C	1.566880	-0.000007	0.308198
C166	C	1.666247	-0.060388	0.360513
C167	C	1.655099	-0.080693	0.408825
C168	C	1.544574	-0.040610	0.404821
C169	C	1.445209	0.019773	0.352506
C170	C	0.511223	0.587407	-0.139292
C171	C	0.411855	0.647802	-0.191607
C172	C	0.423003	0.668109	-0.239919
C173	C	0.533528	0.628023	-0.235914
C174	C	0.632893	0.567633	-0.183600
C175	C	0.632944	0.567663	0.078541
C176	C	0.533599	0.628061	0.070466
C177	C	0.423064	0.668151	0.034391
C178	C	0.411874	0.647845	0.006386
C179	C	0.511218	0.587451	0.014459
C180	C	1.099956	0.491708	-0.091444
C181	C	1.099988	0.535933	-0.135680
C182	C	1.039149	0.567939	-0.189842
C183	C	0.978284	0.555714	-0.199767
C184	C	0.978259	0.511486	-0.155531
H185	H	0.722825	0.246796	0.107904
H186	H	0.867898	0.474004	-0.531929
C187	C	0.754456	0.523538	-0.179203
C188	C	0.863770	0.457106	-0.121665
C189	C	0.985331	0.413015	-0.117272
C190	C	0.997579	0.435356	-0.170417
C191	C	0.888262	0.501792	-0.227959
C192	C	0.766701	0.545883	-0.232352
H193	H	0.854706	0.440565	-0.082320
H194	H	1.066254	0.363835	-0.074676
H195	H	1.087566	0.402717	-0.167166
H196	H	0.897326	0.518333	-0.267304
H197	H	0.685777	0.595063	-0.274949
H198	H	1.149498	0.465654	-0.047345
H199	H	1.355228	0.052398	0.349255
C200	C	0.545776	0.650366	-0.289062
C201	C	0.494163	0.652668	-0.331118
C202	C	0.506406	0.675011	-0.384267
C203	C	0.570262	0.695051	-0.395359
C204	C	0.621880	0.692749	-0.353302
C205	C	0.609637	0.670407	-0.300153
H206	H	0.446888	0.637833	-0.322907
H207	H	0.468194	0.676715	-0.415400
H208	H	0.579325	0.711590	-0.434704
H209	H	0.669154	0.707585	-0.361513
H210	H	0.647848	0.668703	-0.269020
C211	C	0.545927	0.650383	0.101280
C212	C	0.609832	0.670390	0.092337
C213	C	0.622164	0.692709	0.123153
C214	C	0.570591	0.695019	0.162912
C215	C	0.506682	0.675010	0.171856
C216	C	0.494350	0.652692	0.141041
H217	H	0.648013	0.668681	0.062904
H218	H	0.669474	0.707520	0.116531
H219	H	0.579720	0.711540	0.185723
H220	H	0.468501	0.676720	0.201290
H221	H	0.447040	0.637881	0.147662
H222	H	0.736055	0.180397	0.141100
C223	C	1.532323	-0.062961	0.457967
C224	C	1.641631	-0.129391	0.515507
C225	C	1.629383	-0.151750	0.568654
C226	C	1.507828	-0.107680	0.564262
C227	C	1.398511	-0.041246	0.506720
C228	C	1.410759	-0.018887	0.453572
H229	H	1.731621	-0.162018	0.518760
H230	H	1.710307	-0.200929	0.611251
H231	H	1.498761	-0.124232	0.603605
H232	H	1.308521	-0.008619	0.503467
H233	H	1.329835	0.030292	0.410976
C234	C	0.754525	0.523572	0.118224
C235	C	0.863816	0.457138	0.127113
C236	C	0.985394	0.413054	0.166795
C237	C	0.997680	0.435404	0.197588
C238	C	0.888386	0.501842	0.188700
C239	C	0.766808	0.545926	0.149018
H240	H	0.854725	0.440590	0.104317
H241	H	1.066301	0.363872	0.173374
H242	H	1.087679	0.402770	0.226963
H243	H	0.897477	0.518390	0.211495
H244	H	0.685901	0.595108	0.142438
C245	C	0.290279	0.691945	-0.033291
C246	C	0.277946	0.669619	-0.064096
C247	C	0.156349	0.713718	-0.103770
C248	C	0.047085	0.780143	-0.112639
C249	C	0.059415	0.802472	-0.081834
C250	C	0.181012	0.758374	-0.042160
H251	H	0.358833	0.620444	-0.057531
H252	H	0.147222	0.697188	-0.126574
H253	H	-0.042929	0.812788	-0.142008
H254	H	-0.021472	0.851647	-0.088399
H255	H	0.190139	0.774904	-0.019355
H256	H	0.502123	0.570878	-0.099960
H257	H	0.321818	0.508577	-0.022984
C258	C	1.166934	0.549380	-0.124754
C259	C	1.299090	0.485316	-0.085564
C260	C	1.366034	0.498762	-0.074637
C261	C	1.300822	0.576273	-0.102899
C262	C	1.168659	0.640342	-0.142092
C263	C	1.101715	0.626896	-0.153019
H264	H	1.347370	0.427933	-0.064640
H265	H	1.463870	0.451333	-0.045624
H266	H	1.350377	0.586227	-0.094810
H267	H	1.120378	0.697725	-0.163016
H268	H	1.003879	0.674325	-0.182032
H269	H	0.502101	0.479275	-0.008338
H270	H	0.867889	0.473990	-0.479440
C271	C	0.290288	0.691883	-0.196003
C272	C	0.253785	0.728219	-0.170518
C273	C	0.132223	0.772297	-0.174912
C274	C	0.047164	0.780039	-0.204790
C275	C	0.083666	0.743702	-0.230277
C276	C	0.205228	0.699624	-0.225883
H277	H	0.316752	0.722488	-0.148399
H278	H	0.105202	0.799195	-0.156044
H279	H	-0.042823	0.812668	-0.208042
H280	H	0.020699	0.749433	-0.252396
H281	H	0.232248	0.672726	-0.244750
C282	C	1.166777	0.089315	0.037935
C283	C	1.233716	0.054091	0.013579
C284	C	1.300653	0.067542	-0.010782
C285	C	1.300651	0.116216	-0.010789
C286	C	1.233709	0.151442	0.013568
C287	C	1.166772	0.137992	0.037930
H288	H	1.233720	0.018057	0.013583
H289	H	1.350208	0.041464	-0.028813
H290	H	1.350202	0.126172	-0.028823
H291	H	1.233705	0.187476	0.013564
H292	H	1.117218	0.164069	0.055960
C293	C	0.313694	0.734537	-0.297463
C294	C	0.192134	0.778593	-0.301859
C295	C	0.082821	0.845019	-0.359401
C296	C	0.095067	0.867391	-0.412547
C297	C	0.216631	0.823334	-0.408152
C298	C	0.325945	0.756908	-0.350610
H299	H	0.183065	0.762033	-0.262516
H300	H	-0.007169	0.877632	-0.362654
H301	H	0.014146	0.916563	-0.455143
H302	H	0.225701	0.839894	-0.447496
H303	H	0.415935	0.724295	-0.347358
H304	H	0.342181	0.717327	0.027823
C305	C	0.911295	0.428225	-0.259340
C306	C	0.943080	0.467756	-0.272997
C307	C	0.876155	0.538247	-0.332559
C308	C	0.777444	0.569209	-0.378464
C309	C	0.745653	0.529678	-0.364809
C310	C	0.812579	0.459186	-0.305247
H311	H	1.016156	0.444836	-0.239014
H312	H	0.899688	0.567511	-0.342667
H313	H	0.727901	0.621391	-0.422556
H314	H	0.672577	0.552597	-0.398792
H315	H	0.789045	0.429923	-0.295139
C316	C	1.166806	-0.003607	0.037937
C317	C	1.135023	0.044138	-0.023496
C318	C	1.201957	0.008933	-0.047865
C319	C	1.300675	-0.074018	-0.010802
C320	C	1.332463	-0.121768	0.050634
C321	C	1.265528	-0.086563	0.075004
H322	H	1.061942	0.105548	-0.050935
H323	H	1.178425	0.044282	-0.093345
H324	H	1.350224	-0.100079	-0.028842
H325	H	1.405544	-0.183178	0.078074
H326	H	1.289060	-0.121912	0.120483
H327	H	1.756232	-0.093019	0.363764
H328	H	1.210287	-0.127632	0.022124
H329	H	0.867848	-0.152244	0.146805
H330	H	1.756239	-0.093083	0.191874
H331	H	1.535369	-0.057172	0.075615
H332	H	1.735921	-0.129909	0.141060
H333	H	1.039179	0.603951	-0.225857
C334	C	1.166879	-0.450539	0.037946
C335	C	1.135111	-0.414973	-0.023485
C336	C	1.202048	-0.401523	-0.047849
C337	C	1.300752	-0.423640	-0.010781
C338	C	1.332525	-0.459208	0.050654
C339	C	1.265589	-0.472658	0.075017
H340	H	1.062040	-0.398599	-0.050928
H341	H	1.178527	-0.375193	-0.093327
H342	H	1.350303	-0.413684	-0.028816
H343	H	1.405597	-0.475582	0.078097
H344	H	1.289110	-0.498988	0.120496
H345	H	0.756266	0.078818	0.191883
H346	H	0.502089	0.570923	-0.008343
C347	C	1.166790	-0.003512	0.428249
C348	C	1.101576	0.013186	0.460819
C349	C	1.168527	-0.022013	0.520390
C350	C	1.300693	-0.073910	0.547390
C351	C	1.365915	-0.090611	0.514820
C352	C	1.298964	-0.055412	0.455249
H353	H	1.003732	0.051606	0.440831
H354	H	1.120245	-0.009649	0.544500
H355	H	1.350255	-0.099967	0.591488
H356	H	1.463759	-0.129031	0.534807
H357	H	1.347246	-0.067775	0.431139
C358	C	1.227667	0.095064	-0.296341
C359	C	1.326385	0.064114	-0.311274
C360	C	1.393325	-0.006373	-0.300364
C361	C	1.361546	-0.045910	-0.274520
C362	C	1.262823	-0.014960	-0.259585
C363	C	1.195884	0.055527	-0.270496
H364	H	1.349914	0.093382	-0.330407
H365	H	1.466406	-0.029285	-0.311419
H366	H	1.411099	-0.098089	-0.266443
H367	H	1.239294	-0.044228	-0.240453
H368	H	1.122802	0.078439	-0.259440
H369	H	0.575981	0.108132	0.177235
H370	H	0.253832	0.367149	0.047733
H371	H	0.928750	0.581780	-0.243872
C372	C	0.911208	0.037979	0.293716
C373	C	0.976451	-0.039542	0.321995
C374	C	0.909529	-0.053017	0.311107
C375	C	0.777365	0.011028	0.271939
C376	C	0.712115	0.088554	0.243657
C377	C	0.779037	0.102030	0.254545
H378	H	1.074293	-0.086956	0.350992
H379	H	0.957832	-0.110407	0.332043
H380	H	0.727826	0.001053	0.263879
H381	H	0.614273	0.135969	0.214660
H382	H	0.730734	0.159420	0.233609
H383	H	1.736018	-0.129863	0.451419
H384	H	0.928691	0.501542	-0.163621
H385	H	1.149407	0.085873	0.332508
C386	C	0.911315	-0.409008	0.130974
C387	C	0.943077	-0.456750	0.192403
C388	C	0.876127	-0.421541	0.216768
C389	C	0.777417	-0.338590	0.179703
C390	C	0.745650	-0.290843	0.118270
C391	C	0.812599	-0.326052	0.093906
H392	H	1.016153	-0.518160	0.219844
H393	H	0.899644	-0.456886	0.262245
H394	H	0.727857	-0.312526	0.197739
H395	H	0.672574	-0.229433	0.090830
H396	H	0.789083	-0.290707	0.048429
C397	C	1.579163	0.022324	0.255061
C398	C	1.469882	0.088742	0.197511
C399	C	1.482177	0.111071	0.144376
C400	C	1.603752	0.066982	0.148791
C401	C	1.713042	0.000560	0.206343
C402	C	1.700747	-0.021769	0.259478
H403	H	1.379877	0.121383	0.194241
H404	H	1.401273	0.160241	0.101772
H405	H	1.612854	0.083511	0.109457
H406	H	1.803047	-0.032081	0.209613
H407	H	1.781651	-0.070939	0.302081
C408	C	1.166827	0.159162	-0.571747
C409	C	1.298985	0.092977	-0.544742
C410	C	1.365898	0.022491	-0.485178
C411	C	1.300654	0.018190	-0.452620
C412	C	1.168489	0.084377	-0.479625
C413	C	1.101576	0.154863	-0.539189
H414	H	1.347289	0.096159	-0.568844
H415	H	1.463736	-0.026505	-0.465187
H416	H	1.350188	-0.033988	-0.408527
H417	H	1.120185	0.081195	-0.455524
H418	H	1.003738	0.203860	-0.559180
H419	H	0.233608	0.468741	-0.003070
H420	H	1.576014	0.016474	0.177247
H421	H	1.038991	-0.016567	0.394800
H422	H	1.210309	-0.207905	0.022129
H423	H	0.928602	0.121723	0.216269
C424	C	1.166796	0.159118	-0.124824
C425	C	1.298954	0.092937	-0.085641
C426	C	1.365880	0.022456	-0.074738
C427	C	1.300649	0.018156	-0.103019
C428	C	1.168483	0.084341	-0.142205
C429	C	1.101557	0.154822	-0.153107
H430	H	1.347249	0.096117	-0.064703
H431	H	1.463718	-0.026538	-0.045730
H432	H	1.350191	-0.034018	-0.094948
H433	H	1.120188	0.081160	-0.163142
H434	H	1.003719	0.203815	-0.182115
C435	C	0.850525	0.492315	-0.627669
C436	C	0.751814	0.523271	-0.673570
C437	C	0.684890	0.593756	-0.733136
C438	C	0.716679	0.633287	-0.746801
C439	C	0.815395	0.602331	-0.700900
C440	C	0.882318	0.531845	-0.641334
H441	H	0.728278	0.494008	-0.663455
H442	H	0.611814	0.616671	-0.767115
H443	H	0.667138	0.685464	-0.790896
H444	H	0.838931	0.631594	-0.711015
H445	H	0.955394	0.508931	-0.607354
H446	H	1.149500	-0.534318	0.044278
H447	H	0.867843	-0.071978	0.146803
H448	H	0.928704	-0.498415	0.124637
H449	H	0.928609	0.041429	0.124627
H450	H	1.210320	-0.260382	0.022131
H451	H	0.928605	0.121709	0.124626
H452	H	1.210330	-0.340661	0.022137
H453	H	0.867862	-0.284987	0.146795
H454	H	0.867854	-0.204723	0.146795
H455	H	1.149429	0.177487	-0.667495
H456	H	1.210272	0.113389	-0.431915
H457	H	1.210273	0.113380	-0.351650
H458	H	0.928658	0.409907	-0.163600
H459	H	1.149399	0.177424	-0.047374
H460	H	0.928706	0.409966	-0.783714
H461	H	0.928688	0.409965	-0.703435
H462	H	1.210261	0.113374	-0.218900
H463	H	0.867880	0.473984	-0.399176
H464	H	1.355163	0.052376	0.060980
