data_functionalizedCrystal
_audit_creation_method	'MofGen! by Chris Wilmer'
_symmetry_space_group_name_H-M	'P1'
_symmetry_Int_Tables_number	1
_symmetry_cell_setting	triclinic
loop_
_symmetry_equiv_pos_as_xyz
  x,y,z
_cell_length_a	29.839131
_cell_length_b	29.839134
_cell_length_c	21.295411
_cell_angle_alpha	90.038333
_cell_angle_beta	89.979636
_cell_angle_gamma	89.966214
loop_
_atom_site_label
_atom_site_type_symbol
_atom_site_fract_x
_atom_site_fract_y
_atom_site_fract_z
Zn1	Zn	-0.178996	-0.686774	-0.356148
Zn2	Zn	-0.254111	-0.686690	-0.250876
Zn3	Zn	-0.178986	-0.611641	-0.250868
Zn4	Zn	-0.254090	-0.611605	-0.356082
O5	O	-0.216546	-0.649177	-0.303494
O6	O	-0.188973	-0.749630	-0.342215
O7	O	-0.244151	-0.676715	-0.162785
O8	O	-0.116120	-0.621658	-0.264858
O9	O	-0.244160	-0.749568	-0.264871
O10	O	-0.116128	-0.676858	-0.342207
O11	O	-0.188957	-0.621576	-0.162780
O12	O	-0.188936	-0.548769	-0.264794
O13	O	-0.244123	-0.621596	-0.444181
O14	O	-0.244114	-0.548742	-0.342095
O15	O	-0.188952	-0.676823	-0.444229
O16	O	-0.316976	-0.676680	-0.264808
O17	O	-0.316960	-0.621515	-0.342102
C18	C	-0.216522	-0.532455	-0.303437
C19	C	-0.216522	-0.482520	-0.303427
C20	C	-0.187769	-0.125935	-0.263303
C21	C	-0.187757	-0.313608	-0.263273
O22	O	-0.163274	-0.337873	-0.229114
N23	N	-0.216529	-0.337075	-0.303453
C24	C	-0.245303	-0.313622	-0.343646
O25	O	-0.269771	-0.337889	-0.377825
C26	C	-0.245311	-0.125950	-0.343679
C27	C	-0.216542	-0.102484	-0.303492
C28	C	-0.159001	-0.102469	-0.223120
C29	C	-0.159006	-0.055554	-0.223126
C30	C	-0.187778	-0.032104	-0.263314
C31	C	-0.216546	-0.055569	-0.303497
C32	C	-0.274083	-0.102497	-0.383874
C33	C	-0.274082	-0.055576	-0.383880
C34	C	-0.245312	-0.032111	-0.343693
C35	C	-0.245324	0.014797	-0.343692
N36	N	-0.216553	0.038264	-0.303512
C37	C	-0.187780	0.014814	-0.263323
C38	C	-0.245297	-0.412152	-0.343625
C39	C	-0.245295	-0.459070	-0.343616
C40	C	-0.187749	-0.459053	-0.263244
C41	C	-0.187753	-0.412134	-0.263250
C42	C	-0.216525	-0.388685	-0.303445
C43	C	-0.187793	0.113340	-0.263338
C44	C	-0.187801	0.160260	-0.263345
C45	C	-0.245346	0.160238	-0.343719
C46	C	-0.245339	0.113323	-0.343710
C47	C	-0.216559	0.089875	-0.303517
O48	O	-0.269791	0.039091	-0.377838
O49	O	-0.163308	0.039089	-0.229159
C50	C	-0.187764	-0.172850	-0.263298
C51	C	-0.216532	-0.196315	-0.303481
C52	C	-0.245305	-0.172865	-0.343669
C53	C	-0.216530	-0.243233	-0.303472
C54	C	-0.187757	-0.266683	-0.263283
C55	C	-0.158986	-0.243216	-0.223104
C56	C	-0.158991	-0.196300	-0.223109
C57	C	-0.274076	-0.196333	-0.383849
C58	C	-0.274069	-0.243248	-0.383840
C59	C	-0.245296	-0.266698	-0.343651
C60	C	-0.333268	-0.649096	-0.303462
C61	C	-0.383203	-0.649103	-0.303470
C62	C	-0.692842	-0.677954	-0.263305
C63	C	-0.880515	-0.678010	-0.263330
O64	O	-0.904776	-0.702476	-0.229156
N65	N	-0.903988	-0.649271	-0.303541
C66	C	-0.880540	-0.620518	-0.343752
O67	O	-0.904811	-0.596078	-0.377960
C68	C	-0.692867	-0.620465	-0.343731
C69	C	-0.669397	-0.649203	-0.303512
C70	C	-0.669371	-0.706690	-0.223090
C71	C	-0.622456	-0.706674	-0.223082
C72	C	-0.599011	-0.677922	-0.263289
C73	C	-0.622482	-0.649187	-0.303504
C74	C	-0.669420	-0.591715	-0.383945
C75	C	-0.622499	-0.591705	-0.383937
C76	C	-0.599029	-0.620443	-0.343718
C77	C	-0.552121	-0.620419	-0.343702
N78	N	-0.528648	-0.649158	-0.303491
C79	C	-0.552093	-0.677910	-0.263284
C80	C	-0.979070	-0.620547	-0.343760
C81	C	-1.025988	-0.620560	-0.343765
C82	C	-1.025960	-0.678052	-0.263343
C83	C	-0.979041	-0.678037	-0.263335
C84	C	-0.955597	-0.649286	-0.303549
C85	C	-0.453567	-0.677874	-0.263270
C86	C	-0.406648	-0.677854	-0.263263
C87	C	-0.406680	-0.620364	-0.343687
C88	C	-0.453595	-0.620382	-0.343692
C89	C	-0.477038	-0.649140	-0.303481
O90	O	-0.527831	-0.595970	-0.377863
O91	O	-0.527814	-0.702353	-0.229092
C92	C	-0.739757	-0.677970	-0.263313
C93	C	-0.763228	-0.649234	-0.303528
C94	C	-0.739783	-0.620483	-0.343735
C95	C	-0.810146	-0.649247	-0.303533
C96	C	-0.833591	-0.677998	-0.263326
C97	C	-0.810118	-0.706737	-0.223115
C98	C	-0.763202	-0.706721	-0.223106
C99	C	-0.763256	-0.591744	-0.383947
C100	C	-0.810171	-0.591762	-0.383951
C101	C	-0.833616	-0.620513	-0.343744
C102	C	-0.099367	-0.649271	-0.303539
C103	C	-0.049433	-0.649311	-0.303558
C104	C	-0.216536	-0.649215	-0.467684
C105	C	-0.216532	-0.649231	-0.537652
C106	C	-0.216569	0.233644	-0.303541
C107	C	-0.216574	0.183710	-0.303533
C108	C	-0.187804	-0.677986	-0.570545
C109	C	-0.187784	-0.677985	-0.636288
C110	C	-0.216501	-0.649234	-0.669135
C111	C	-0.245232	-0.620473	-0.636234
C112	C	-0.245248	-0.620471	-0.570493
N113	N	-0.255801	-0.645761	-0.772350
N114	N	-0.255785	-0.645765	-0.834802
C115	C	-0.216456	-0.649237	-0.867210
N116	N	-0.177142	-0.652713	-0.834807
N117	N	-0.177158	-0.652711	-0.772349
C118	C	-0.216488	-0.649233	-0.740420
C119	C	-0.187703	-0.677993	-0.971388
C120	C	-0.187683	-0.677989	-1.037132
C121	C	-0.245135	-0.620480	-1.037077
C122	C	-0.245152	-0.620481	-0.971334
C123	C	-0.216436	-0.649240	-0.938494
C124	C	-0.216523	-0.649166	-0.139942
C125	C	-0.216400	-0.649237	-0.069974
H126	H	-0.297506	-0.177244	-0.416577
O127	O	-0.273046	-0.592508	-1.068879
C128	C	-0.298418	-0.567136	-1.025745
H129	H	-0.280028	-0.565596	-0.978881
H130	H	-0.332543	-0.583560	-1.018768
C131	C	-0.327462	-0.521210	-1.108917
C132	C	-0.304874	-0.519314	-1.051359
H133	H	-0.331447	-0.491711	-1.124718
H134	H	-0.310371	-0.538304	-1.137978
H135	H	-0.355898	-0.534898	-1.103095
H136	H	-0.276437	-0.505631	-1.057183
H137	H	-0.321961	-0.502217	-1.022300
H138	H	-0.268769	0.094216	-0.376428
O139	O	-0.301956	-0.266088	-0.422912
C140	C	-0.276414	-0.293250	-0.463642
H141	H	-0.242347	-0.300288	-0.441520
H142	H	-0.271522	-0.275190	-0.510301
C143	C	-0.342981	-0.329165	-0.502159
C144	C	-0.301141	-0.337812	-0.474986
H145	H	-0.358235	-0.356652	-0.509160
H146	H	-0.360190	-0.310864	-0.474721
H147	H	-0.338899	-0.314114	-0.541039
H148	H	-0.305225	-0.352857	-0.436104
H149	H	-0.283934	-0.356116	-0.502419
H150	H	-0.135563	-0.177199	-0.190385
O151	O	-0.159940	-0.705944	-0.668317
C152	C	-0.185522	-0.734945	-0.706354
H153	H	-0.219560	-0.719068	-0.716184
H154	H	-0.190475	-0.768232	-0.681046
C155	C	-0.118989	-0.762606	-0.756739
C156	C	-0.160794	-0.743103	-0.768817
H157	H	-0.103736	-0.767640	-0.795267
H158	H	-0.101754	-0.743069	-0.731111
H159	H	-0.123123	-0.790343	-0.735647
H160	H	-0.156660	-0.715365	-0.789901
H161	H	-0.178028	-0.762636	-0.794450
O162	O	-0.131012	-0.032833	-0.184073
C163	C	-0.105626	-0.063599	-0.148596
H164	H	-0.104102	-0.097058	-0.174383
H165	H	-0.122026	-0.068554	-0.100744
C166	C	-0.059672	-0.004223	-0.107978
C167	C	-0.057797	-0.045316	-0.139653
H168	H	-0.030170	0.007056	-0.102459
H169	H	-0.076776	0.016506	-0.131878
H170	H	-0.073341	-0.008357	-0.068105
H171	H	-0.044134	-0.041180	-0.179528
H172	H	-0.040690	-0.066043	-0.115759
H173	H	-1.045057	-0.701463	-0.230605
O174	O	-0.131112	-0.125294	-0.184044
C175	C	-0.156647	-0.152384	-0.143303
H176	H	-0.190713	-0.159414	-0.165421
H177	H	-0.161542	-0.134266	-0.096651
C178	C	-0.090072	-0.188319	-0.104776
C179	C	-0.131910	-0.196957	-0.131944
H180	H	-0.074812	-0.215813	-0.097766
H181	H	-0.072868	-0.170067	-0.132222
H182	H	-0.094157	-0.173220	-0.065902
H183	H	-0.127825	-0.212050	-0.170821
H184	H	-0.149113	-0.215213	-0.104504
H185	H	-0.387540	-0.701256	-0.230510
H186	H	-1.045094	-0.597154	-0.376509
H187	H	-0.164286	-0.701405	-1.063912
H188	H	-0.472649	-0.701293	-0.230527
H189	H	-0.164324	-0.393032	-0.230528
H190	H	-0.268613	-0.597062	-0.662982
H191	H	-0.603349	-0.730076	-0.190334
O192	O	-0.956369	-0.592570	-0.382841
C193	C	-0.987154	-0.567218	-0.418338
H194	H	-1.020606	-0.565688	-0.392550
H195	H	-0.992115	-0.583651	-0.466176
C196	C	-0.927802	-0.521271	-0.458998
C197	C	-0.968888	-0.519389	-0.427323
H198	H	-0.916535	-0.491768	-0.464544
H199	H	-0.907062	-0.538352	-0.435086
H200	H	-0.931943	-0.534967	-0.498860
H201	H	-0.964746	-0.505698	-0.387459
H202	H	-0.989628	-0.502304	-0.451229
H203	H	-0.688455	-0.730105	-0.190349
H204	H	-0.268549	-0.597068	-0.944553
H205	H	-0.688522	-0.568311	-0.416692
O206	O	-0.599796	-0.563734	-0.423023
C207	C	-0.630576	-0.538385	-0.458531
H208	H	-0.664030	-0.536848	-0.432746
H209	H	-0.635538	-0.554826	-0.506364
C210	C	-0.571220	-0.492451	-0.499203
C211	C	-0.612307	-0.490559	-0.467532
H212	H	-0.559950	-0.462950	-0.504758
H213	H	-0.550482	-0.509530	-0.475283
H214	H	-0.575360	-0.506154	-0.539060
H215	H	-0.608165	-0.476862	-0.427673
H216	H	-0.633043	-0.473477	-0.491446
O217	O	-0.273251	0.183092	-0.382737
C218	C	-0.267089	0.229533	-0.374111
H219	H	-0.232399	0.235930	-0.353576
H220	H	-0.293704	0.242881	-0.340527
C221	C	-0.313871	0.245737	-0.463016
C222	C	-0.271263	0.253593	-0.437800
H223	H	-0.316447	0.260578	-0.502301
H224	H	-0.318024	0.214448	-0.468827
H225	H	-0.336046	0.256860	-0.435023
H226	H	-0.249089	0.242464	-0.465788
H227	H	-0.267106	0.284880	-0.431995
O228	O	-0.131098	-0.266050	-0.184033
C229	C	-0.156634	-0.293146	-0.143301
H230	H	-0.190704	-0.300163	-0.165416
H231	H	-0.161520	-0.275041	-0.096638
C232	C	-0.090061	-0.329106	-0.104809
C233	C	-0.131905	-0.337728	-0.131973
H234	H	-0.074807	-0.356605	-0.097818
H235	H	-0.072857	-0.310850	-0.132249
H236	H	-0.094139	-0.314017	-0.065926
H237	H	-0.127827	-0.352811	-0.170859
H238	H	-0.149108	-0.355988	-0.104539
H239	H	-0.829215	-0.730147	-0.190375
O240	O	-0.273202	-0.592526	-0.538635
C241	C	-0.298537	-0.567139	-0.581720
H242	H	-0.300083	-0.585537	-0.628601
H243	H	-0.282077	-0.533031	-0.588677
C244	C	-0.344457	-0.538031	-0.498477
C245	C	-0.346359	-0.560630	-0.556056
H246	H	-0.373956	-0.534015	-0.482646
H247	H	-0.327388	-0.555134	-0.469449
H248	H	-0.330739	-0.509611	-0.504282
H249	H	-0.360072	-0.589052	-0.550249
H250	H	-0.363432	-0.543533	-0.585082
O251	O	-0.301968	-0.032777	-0.422993
C252	C	-0.276434	-0.005664	-0.463706
H253	H	-0.241053	-0.019823	-0.467678
H254	H	-0.274871	0.029904	-0.444252
C255	C	-0.341901	0.012420	-0.524215
C256	C	-0.298447	-0.004971	-0.529097
H257	H	-0.355480	0.012850	-0.564551
H258	H	-0.359104	-0.005844	-0.496785
H259	H	-0.340592	0.042059	-0.508001
H260	H	-0.299756	-0.034611	-0.545303
H261	H	-0.281244	0.013288	-0.556532
O262	O	-0.159845	-0.481817	-0.224116
C263	C	-0.169584	-0.470307	-0.161351
H264	H	-0.205469	-0.457385	-0.158074
H265	H	-0.145478	-0.443081	-0.144962
C266	C	-0.120234	-0.527840	-0.123377
C267	C	-0.164311	-0.511973	-0.119352
H268	H	-0.116980	-0.553540	-0.097469
H269	H	-0.113671	-0.535593	-0.165663
H270	H	-0.100151	-0.505147	-0.109721
H271	H	-0.184393	-0.534663	-0.133016
H272	H	-0.170877	-0.504224	-0.077067
O273	O	-0.159837	-0.705870	-0.538682
C274	C	-0.115061	-0.696089	-0.554766
H275	H	-0.112788	-0.660200	-0.572802
H276	H	-0.103318	-0.720181	-0.592957
C277	C	-0.087872	-0.745421	-0.474233
C278	C	-0.085080	-0.701340	-0.496379
H279	H	-0.069378	-0.748662	-0.438219
H280	H	-0.118039	-0.752012	-0.463398
H281	H	-0.078088	-0.765492	-0.506064
H282	H	-0.094870	-0.681270	-0.464552
H283	H	-0.054915	-0.694745	-0.507208
O284	O	-0.159810	0.182984	-0.224287
C285	C	-0.134421	0.152221	-0.188806
H286	H	-0.132890	0.118763	-0.214592
H287	H	-0.150823	0.147264	-0.140956
C288	C	-0.088478	0.211605	-0.148184
C289	C	-0.086595	0.170512	-0.179857
H290	H	-0.058978	0.222888	-0.142661
H291	H	-0.105584	0.232331	-0.172086
H292	H	-0.102149	0.207469	-0.108312
H293	H	-0.072930	0.174650	-0.219731
H294	H	-0.069486	0.149787	-0.155962
O295	O	-0.956314	-0.705996	-0.224249
C296	C	-0.987074	-0.731363	-0.188752
H297	H	-1.020508	-0.732916	-0.214545
H298	H	-0.992093	-0.714928	-0.140918
C299	C	-0.927665	-0.777270	-0.148072
C300	C	-0.968728	-0.779180	-0.179754
H301	H	-0.916348	-0.806765	-0.142518
H302	H	-0.906941	-0.760179	-0.171985
H303	H	-0.931853	-0.763572	-0.108214
H304	H	-0.964539	-0.792873	-0.219614
H305	H	-0.989451	-0.796275	-0.155847
O306	O	-0.159765	-0.705939	-0.939579
C307	C	-0.134407	-0.731324	-0.982713
H308	H	-0.132836	-0.712924	-1.029558
H309	H	-0.150863	-0.765432	-0.989737
C310	C	-0.088531	-0.760435	-0.899524
C311	C	-0.086598	-0.737834	-0.957059
H312	H	-0.059040	-0.764452	-0.883699
H313	H	-0.105616	-0.743334	-0.870464
H314	H	-0.102246	-0.788855	-0.905385
H315	H	-0.072889	-0.709412	-0.951196
H316	H	-0.069510	-0.754931	-0.986118
H317	H	-0.164355	0.094254	-0.230612
H318	H	-0.268727	-0.478172	-0.376333
H319	H	-0.268728	-0.393064	-0.376358
H320	H	-0.297511	-0.121594	-0.416599
H321	H	-0.472706	-0.596982	-0.376443
O322	O	-0.740476	-0.734682	-0.184021
C323	C	-0.771238	-0.760051	-0.148529
H324	H	-0.804671	-0.761602	-0.174325
H325	H	-0.776259	-0.743617	-0.100694
C326	C	-0.711831	-0.805959	-0.107846
C327	C	-0.752893	-0.807868	-0.139532
H328	H	-0.700515	-0.835455	-0.102294
H329	H	-0.691106	-0.788867	-0.131755
H330	H	-0.716022	-0.792263	-0.067987
H331	H	-0.748702	-0.821559	-0.179393
H332	H	-0.773618	-0.824964	-0.115629
O333	O	-0.740555	-0.563768	-0.423022
C334	C	-0.771338	-0.538417	-0.458522
H335	H	-0.804792	-0.536889	-0.432738
H336	H	-0.776297	-0.554850	-0.506361
C337	C	-0.711988	-0.492467	-0.499175
C338	C	-0.753076	-0.490587	-0.467504
H339	H	-0.700722	-0.462963	-0.504719
H340	H	-0.691248	-0.509547	-0.475261
H341	H	-0.716125	-0.506163	-0.539038
H342	H	-0.748937	-0.476896	-0.427640
H343	H	-0.773815	-0.473503	-0.491413
H344	H	-0.387584	-0.596953	-0.376422
H345	H	-0.829277	-0.568356	-0.416701
