data_functionalizedCrystal
_audit_creation_method	'MofGen! by Chris Wilmer'
_symmetry_space_group_name_H-M	'P1'
_symmetry_Int_Tables_number	1
_symmetry_cell_setting	triclinic
loop_
_symmetry_equiv_pos_as_xyz
  x,y,z
_cell_length_a	23.532407
_cell_length_b	16.974885
_cell_length_c	15.455313
_cell_angle_alpha	96.310633
_cell_angle_beta	87.338236
_cell_angle_gamma	83.122685
loop_
_atom_site_label
_atom_site_type_symbol
_atom_site_fract_x
_atom_site_fract_y
_atom_site_fract_z
O1	O	0.757847	0.092822	-0.065563
O2	O	0.591996	0.106757	-0.064599
O3	O	0.679825	-0.015739	-0.073181
O4	O	0.670018	0.215318	-0.056981
O5	O	0.674802	-0.008763	0.071570
O6	O	0.586973	0.113733	0.080152
O7	O	0.752824	0.099799	0.079188
Cu8	Cu	0.669440	0.107403	0.092887
Cu9	Cu	0.675380	0.099153	-0.078298
O10	O	0.664995	0.222294	0.087770
C11	C	0.568268	0.109890	0.007750
C12	C	0.505050	0.108823	0.007670
C13	C	0.677034	-0.041806	-0.002880
C14	C	0.676193	-0.129872	-0.009060
C15	C	0.673059	-0.167449	0.066936
C16	C	0.672273	-0.250197	0.061121
C17	C	0.674617	-0.295365	-0.020691
C18	C	0.677753	-0.257782	-0.096693
C19	C	0.678543	-0.175036	-0.090877
C20	C	0.672553	-0.543245	-0.046545
C21	C	0.671761	-0.625996	-0.052355
C22	C	0.666282	-0.618406	0.105460
C23	C	0.667069	-0.535658	0.111268
C24	C	0.670208	-0.498083	0.035266
N25	N	0.673812	-0.379946	-0.026636
N26	N	0.671017	-0.413504	0.041213
C27	C	0.238817	0.031933	0.002302
C28	C	0.298218	0.032924	0.002372
O29	O	0.334909	-0.028070	-0.001875
N30	N	0.320906	0.105748	0.007472
C31	C	0.284189	0.177586	0.012512
O32	O	0.308942	0.239619	0.016857
C33	C	0.224789	0.176594	0.012448
C34	C	0.202105	0.103765	0.007339
C35	C	0.216132	-0.040889	-0.002805
C36	C	0.156735	-0.041880	-0.002876
C37	C	0.120023	0.029952	0.002161
C38	C	0.142708	0.102775	0.007268
C39	C	0.188074	0.248431	0.017495
C40	C	0.128670	0.247433	0.017432
C41	C	0.105986	0.174605	0.012323
C42	C	0.046599	0.173616	0.012235
N43	N	0.023911	0.100792	0.007134
C44	C	0.060623	0.028960	0.002098
C45	C	0.408934	0.179663	0.012645
C46	C	0.468333	0.180655	0.012702
C47	C	0.482358	0.035993	0.002564
C48	C	0.422957	0.035002	0.002501
C49	C	0.386246	0.106839	0.007545
C50	C	-0.064116	0.026885	0.001948
C51	C	-0.123518	0.025900	0.001874
C52	C	-0.137538	0.170562	0.012017
C53	C	-0.078140	0.171546	0.012087
C54	C	-0.041430	0.099702	0.007055
O55	O	0.009873	0.234579	0.016482
O56	O	0.035861	-0.033062	-0.002235
C57	C	0.776552	0.096665	0.006837
C58	C	0.839770	0.097732	0.006911
C59	C	0.667786	0.248361	0.017467
C60	C	0.668627	0.336426	0.023641
N61	N	0.665267	0.113205	0.213289
N62	N	0.679558	0.093344	-0.198700
C63	C	0.702592	0.061183	0.255038
C64	C	0.699441	0.065578	0.346154
C65	C	0.658967	0.122000	0.395519
C66	C	0.621638	0.174023	0.353763
C67	C	0.624786	0.169624	0.262649
C68	C	0.645377	0.140968	0.668429
C69	C	0.642232	0.145366	0.759550
C70	C	0.720035	0.036919	0.751934
C71	C	0.723183	0.032528	0.660819
C72	C	0.685851	0.084549	0.619071
N73	N	0.655747	0.126495	0.488654
N74	N	0.689069	0.080049	0.525937
H75	H	0.671141	-0.130677	0.133556
H76	H	0.588680	0.219960	0.393961
H77	H	0.669724	-0.280789	0.123005
H78	H	-0.059670	0.230849	0.016246
H79	H	0.246017	-0.099387	-0.006905
H80	H	0.673664	-0.662769	-0.118979
Cl81	Cl	0.766962	-0.028478	0.804421
H82	H	0.675107	-0.512662	-0.108431
H83	H	0.679665	-0.294565	-0.163306
H84	H	0.609271	0.191314	0.799740
Cl85	Cl	0.577858	0.235023	0.210165
H86	H	0.681095	-0.144442	-0.152762
Cl87	Cl	-0.152031	-0.065663	-0.004555
Cl88	Cl	0.746365	0.000178	0.398641
H89	H	0.756140	-0.013415	0.620627
H90	H	0.098781	0.305934	0.021544
H91	H	0.614981	0.183328	0.634446
H92	H	0.665173	-0.498890	0.177888
H93	H	-0.167439	0.229045	0.016114
Cl94	Cl	0.128227	-0.133442	-0.009307
Cl95	Cl	0.662338	-0.665648	0.200999
Cl96	Cl	-0.017975	-0.063436	-0.004380
Cl97	Cl	0.394446	-0.056557	-0.003918
H98	H	0.512260	-0.022496	-0.001537
H99	H	0.486798	0.239959	0.016850
H100	H	0.735553	0.015242	0.214851
H101	H	0.379046	0.238165	0.016747
Cl102	Cl	0.216576	0.339993	0.023919
