data_functionalizedCrystal
_audit_creation_method	'MofGen! by Chris Wilmer'
_symmetry_space_group_name_H-M	'P1'
_symmetry_Int_Tables_number	1
_symmetry_cell_setting	triclinic
loop_
_symmetry_equiv_pos_as_xyz
  x,y,z
_cell_length_a	16.974800
_cell_length_b	13.330367
_cell_length_c	16.992695
_cell_angle_alpha	90.001843
_cell_angle_beta	87.021674
_cell_angle_gamma	86.348211
loop_
_atom_site_label
_atom_site_type_symbol
_atom_site_fract_x
_atom_site_fract_y
_atom_site_fract_z
O1	O	1.055459	-0.002297	0.099873
O2	O	1.555459	0.497703	0.599873
O3	O	0.826058	0.016337	0.112613
O4	O	1.326058	0.516337	0.612613
O5	O	0.939839	0.007086	-0.007898
O6	O	1.439839	0.507086	0.492102
O7	O	0.941678	0.006953	0.220385
O8	O	1.441678	0.506953	0.720385
O9	O	0.939827	-0.159760	-0.007895
O10	O	1.439827	0.340240	0.492105
O11	O	0.826045	-0.150510	0.112617
O12	O	1.326045	0.349490	0.612617
O13	O	1.055447	-0.169143	0.099877
O14	O	1.555447	0.330857	0.599877
Cu15	Cu	0.940745	-0.175061	0.106247
Cu16	Cu	1.440745	0.324939	0.606247
Cu17	Cu	0.940760	0.022254	0.106243
Cu18	Cu	1.440760	0.522254	0.606243
O19	O	0.941666	-0.159893	0.220388
O20	O	1.441666	0.340107	0.720388
C21	C	0.796563	-0.064691	0.112132
C22	C	1.296563	0.435309	0.612132
C23	C	0.708694	-0.057554	0.110685
C24	C	1.208694	0.442446	0.610685
C25	C	0.667412	-0.145151	0.110004
C26	C	1.167412	0.354849	0.610004
C27	C	0.584851	-0.138448	0.108632
C28	C	1.084851	0.361552	0.608632
C29	C	0.543574	-0.044147	0.107945
C30	C	1.043574	0.455853	0.607945
C31	C	0.584863	0.043457	0.108622
C32	C	1.084863	0.543457	0.608622
C33	C	0.667422	0.036753	0.109990
C34	C	1.167422	0.536753	0.609990
C35	C	0.296658	-0.014344	0.103850
C36	C	0.796658	0.485656	0.603850
C37	C	0.214093	-0.007646	0.102486
C38	C	0.714093	0.492354	0.602486
C39	C	0.214087	-0.189552	0.102493
C40	C	0.714087	0.310448	0.602493
C41	C	0.296648	-0.196248	0.103865
C42	C	0.796648	0.303752	0.603865
C43	C	0.337929	-0.108644	0.104539
C44	C	0.837929	0.391356	0.604539
N45	N	0.459184	-0.037293	0.106544
N46	N	0.959184	0.462707	0.606544
N47	N	0.422319	-0.115499	0.105934
N48	N	0.922319	0.384501	0.605934
C49	C	0.937467	-0.076144	-0.037107
C50	C	1.437467	0.423856	0.462893
C51	C	0.930407	-0.075571	-0.124143
C52	C	1.430407	0.424429	0.375857
C53	C	1.084942	-0.088113	0.100358
C54	C	1.584942	0.411887	0.600358
C55	C	1.172810	-0.095244	0.101805
C56	C	1.672810	0.404756	0.601805
N57	N	0.940741	-0.313842	0.106250
N58	N	1.440741	0.186158	0.606250
C59	C	0.890350	-0.362271	0.159596
C60	C	1.390350	0.137729	0.659596
C61	C	0.991136	-0.370442	0.052900
C62	C	1.491136	0.129558	0.552900
C63	C	0.991144	-0.475461	0.052897
C64	C	1.491144	0.024539	0.552897
C65	C	0.940753	-0.523889	0.106243
C66	C	1.440753	-0.023889	0.606243
C67	C	0.890354	-0.467299	0.159593
C68	C	1.390354	0.032701	0.659593
C69	C	1.041536	-0.532058	-0.000456
C70	C	1.541536	-0.032058	0.499544
C71	C	1.041545	-0.637084	-0.000462
C72	C	1.541545	-0.137084	0.499538
C73	C	0.991158	-0.685515	0.052888
C74	C	1.491158	-0.185515	0.552888
C75	C	0.940758	-0.628918	0.106240
C76	C	1.440758	-0.128918	0.606240
C77	C	0.890367	-0.677347	0.159587
C78	C	1.390367	-0.177347	0.659587
C79	C	0.839970	-0.620752	0.212943
C80	C	1.339970	-0.120752	0.712943
C81	C	0.839967	-0.515730	0.212943
C82	C	1.339967	-0.015730	0.712943
C83	C	0.991161	-0.790537	0.052888
C84	C	1.491161	-0.290537	0.552888
C85	C	0.890371	-0.782375	0.159584
C86	C	1.390371	-0.282375	0.659584
N87	N	0.940770	0.161035	0.106234
N88	N	1.440770	0.661035	0.606234
C89	C	0.998522	-0.081104	-0.174460
C90	C	1.498522	0.418896	0.325540
C91	C	0.991885	-0.080556	-0.256239
C92	C	1.491885	0.419444	0.243761
C93	C	0.917131	-0.074480	-0.287699
C94	C	1.417131	0.425520	0.212301
C95	C	0.849010	-0.068943	-0.237376
C96	C	1.349010	0.431057	0.262624
C97	C	0.855649	-0.069485	-0.155598
C98	C	1.355649	0.430515	0.344402
C99	C	0.889616	-0.072232	-0.531266
C100	C	1.389616	0.427768	-0.031266
C101	C	0.882982	-0.071693	-0.613050
C102	C	1.382982	0.428307	-0.113050
C103	C	1.025857	-0.083304	-0.631908
C104	C	1.525857	0.416696	-0.131908
C105	C	1.032490	-0.083851	-0.550128
C106	C	1.532490	0.416149	-0.050128
C107	C	0.964369	-0.078309	-0.499811
C108	C	1.464369	0.421691	0.000189
N109	N	0.910344	-0.073923	-0.371290
N110	N	1.410344	0.426077	0.128710
N111	N	0.971157	-0.078860	-0.416222
N112	N	1.471157	0.421140	0.083778
C113	C	0.944038	-0.076660	0.249597
C114	C	1.444038	0.423340	0.749597
C115	C	0.951098	-0.077227	0.336633
C116	C	1.451098	0.422773	0.836633
H117	H	0.180467	-0.260874	0.101944
H118	H	0.680467	0.239126	0.601944
C119	C	0.735923	0.026010	-0.114343
C120	C	1.235923	0.526010	0.385657
C121	C	0.780774	-0.063403	-0.100286
C122	C	1.280774	0.436597	0.399714
H123	H	0.689695	0.029764	-0.080199
H124	H	1.189695	0.529764	0.419801
H125	H	0.766369	0.081708	-0.104812
H126	H	1.266369	0.581708	0.395188
H127	H	0.721276	0.027188	-0.167551
H128	H	1.221276	0.527188	0.332449
H129	H	0.795425	-0.064578	-0.047080
H130	H	1.295425	0.435422	0.452920
H131	H	0.750322	-0.119115	-0.109811
H132	H	1.250322	0.380885	0.390189
H133	H	0.180487	0.069149	0.101928
H134	H	0.680487	0.569149	0.601928
H135	H	0.834147	-0.067719	-0.490307
H136	H	1.334147	0.432281	0.009693
C137	C	0.775394	-0.062969	-0.354360
C138	C	1.275394	0.437031	0.145640
C139	C	0.766838	-0.062268	-0.271955
C140	C	1.266838	0.437732	0.228045
H141	H	0.724662	-0.058857	-0.375704
H142	H	1.224662	0.441143	0.124296
H143	H	0.803655	-0.007085	-0.371631
H144	H	1.303655	0.492915	0.128369
H145	H	0.803655	-0.123452	-0.371629
H146	H	1.303655	0.376548	0.128371
H147	H	0.738581	-0.001782	-0.254685
H148	H	1.238581	0.498218	0.245315
H149	H	0.738565	-0.118158	-0.254676
H150	H	1.238565	0.381842	0.245324
C151	C	0.564082	-0.291820	0.040856
C152	C	1.064082	0.208180	0.540856
C153	C	0.539481	-0.234745	0.107886
C154	C	1.039481	0.265255	0.607886
H155	H	0.536078	-0.351276	0.040399
H156	H	1.036078	0.148724	0.540399
H157	H	0.553693	-0.253616	-0.005061
H158	H	1.053693	0.246384	0.494939
H159	H	0.619161	-0.309290	0.041781
H160	H	1.119161	0.190710	0.541781
H161	H	0.484403	-0.217269	0.106958
H162	H	0.984403	0.282731	0.606958
H163	H	0.549864	-0.272956	0.153815
H164	H	1.049864	0.227044	0.653815
C165	C	0.759172	0.024159	-0.622169
C166	C	1.259172	0.524159	-0.122169
C167	C	0.800809	-0.065003	-0.647638
C168	C	1.300809	0.434997	-0.147638
H169	H	0.708448	0.028289	-0.643529
H170	H	1.208448	0.528289	-0.143529
H171	H	0.753369	0.024624	-0.566271
H172	H	1.253369	0.524624	-0.066271
H173	H	0.787458	0.080032	-0.639447
H174	H	1.287458	0.580032	-0.139447
H175	H	0.772526	-0.120876	-0.630355
H176	H	1.272526	0.379124	-0.130355
H177	H	0.806609	-0.065477	-0.703547
H178	H	1.306609	0.434523	-0.203547
H179	H	1.093362	-0.088799	-0.524520
H180	H	1.593362	0.411201	-0.024520
C181	C	0.554821	0.200945	0.175566
C182	C	1.054821	0.700945	0.675566
C183	C	0.539493	0.147116	0.107871
C184	C	1.039493	0.647116	0.607871
H185	H	0.526815	0.264943	0.175101
H186	H	1.026815	0.764943	0.675101
H187	H	0.538143	0.164930	0.221033
H188	H	1.038143	0.664930	0.721033
H189	H	0.609901	0.209483	0.176466
H190	H	1.109901	0.709483	0.676466
H191	H	0.484413	0.138572	0.106974
H192	H	0.984413	0.638572	0.606974
H193	H	0.556166	0.183139	0.062393
H194	H	1.056166	0.683139	0.562393
H195	H	0.330250	-0.273038	0.104421
H196	H	0.830250	0.226962	0.604421
C197	C	1.145586	-0.178799	-0.673168
C198	C	1.645586	0.321201	-0.173168
C199	C	1.100732	-0.089386	-0.687218
C200	C	1.600732	0.410614	-0.187218
H201	H	1.191810	-0.182551	-0.707318
H202	H	1.691810	0.317449	-0.207318
H203	H	1.160234	-0.179983	-0.619968
H204	H	1.660234	0.320017	-0.119968
H205	H	1.115135	-0.234502	-0.682703
H206	H	1.615135	0.265498	-0.182703
H207	H	1.131181	-0.033682	-0.677677
H208	H	1.631181	0.466318	-0.177677
H209	H	1.086085	-0.088192	-0.740430
H210	H	1.586085	0.411808	-0.240430
C211	C	0.288360	0.166132	0.103708
C212	C	0.788360	0.666132	0.603708
C213	C	0.342028	0.081949	0.104595
C214	C	0.842028	0.581949	0.604595
H215	H	0.316373	0.225581	0.104171
H216	H	0.816373	0.725581	0.604171
H217	H	0.259303	0.164699	0.057480
H218	H	0.759303	0.664699	0.557480
H219	H	0.253014	0.165214	0.148879
H220	H	0.753014	0.665214	0.648879
H221	H	0.377370	0.082863	0.059420
H222	H	0.877370	0.582863	0.559420
H223	H	0.371098	0.083383	0.150827
H224	H	0.871098	0.583383	0.650827
C225	C	0.755645	0.135117	0.178890
C226	C	1.255645	0.635117	0.678890
C227	C	0.712807	0.133039	0.110740
C228	C	1.212807	0.633039	0.610740
H229	H	0.783667	0.194559	0.179347
H230	H	1.283667	0.694559	0.679347
H231	H	0.720293	0.134218	0.224048
H232	H	1.220293	0.634218	0.724048
H233	H	0.792037	0.077988	0.179485
H234	H	1.292037	0.577988	0.679485
H235	H	0.676411	0.190164	0.110148
H236	H	1.176411	0.690164	0.610148
H237	H	0.748163	0.133947	0.065570
H238	H	1.248163	0.633947	0.565570
C239	C	1.088875	-0.174220	-0.093447
C240	C	1.588875	0.325780	0.406553
C241	C	1.080696	-0.087783	-0.139885
C242	C	1.580696	0.412217	0.360115
H243	H	1.139610	-0.178342	-0.072110
H244	H	1.639610	0.321658	0.427890
H245	H	1.049266	-0.170997	-0.051777
H246	H	1.549266	0.329003	0.448223
H247	H	1.083309	-0.231943	-0.124968
H248	H	1.583309	0.268057	0.375032
H249	H	1.086256	-0.030059	-0.108363
H250	H	1.586256	0.469941	0.391637
H251	H	1.120317	-0.090998	-0.181562
H252	H	1.620317	0.409002	0.318438
C253	C	0.764890	-0.258597	0.044180
C254	C	1.264890	0.241403	0.544180
C255	C	0.712782	-0.248810	0.110759
C256	C	1.212782	0.251190	0.610759
H257	H	0.792901	-0.322591	0.044648
H258	H	1.292901	0.177409	0.544648
H259	H	0.735827	-0.252462	-0.002044
H260	H	1.235827	0.247538	0.497956
H261	H	0.801291	-0.207381	0.044792
H262	H	1.301291	0.292619	0.544792
H263	H	0.676378	-0.300021	0.110144
H264	H	1.176378	0.199979	0.610144
H265	H	0.741847	-0.254955	0.156994
H266	H	1.241847	0.245045	0.656994
C267	C	0.706009	-0.642245	0.259062
C268	C	1.206009	-0.142245	0.759062
C269	C	0.784578	-0.673995	0.271576
C270	C	1.284578	-0.173995	0.771576
H271	H	0.671814	-0.675125	0.295254
H272	H	1.171814	-0.175125	0.795254
H273	H	0.698797	-0.571609	0.266713
H274	H	1.198797	-0.071609	0.766713
H275	H	0.694128	-0.658487	0.206734
H276	H	1.194128	-0.158487	0.706734
H277	H	0.796460	-0.657747	0.323902
H278	H	1.296460	-0.157747	0.823902
H279	H	0.791793	-0.744647	0.263931
H280	H	1.291793	-0.244647	0.763931
H281	H	0.849340	-0.821799	0.203028
H282	H	1.349340	-0.321799	0.703028
C283	C	0.795198	-0.351111	0.260308
C284	C	1.295198	0.148889	0.760308
C285	C	0.784566	-0.453519	0.271580
C286	C	1.284566	0.046481	0.771580
H287	H	0.760989	-0.312704	0.296503
H288	H	1.260989	0.187296	0.796503
H289	H	0.848494	-0.338220	0.268798
H290	H	1.348494	0.161780	0.768798
H291	H	0.783308	-0.332955	0.207981
H292	H	1.283308	0.167045	0.707981
H293	H	0.796462	-0.471677	0.323906
H294	H	1.296462	0.028323	0.823906
H295	H	0.731258	-0.466415	0.263096
H296	H	1.231258	0.033585	0.763096
H297	H	0.849320	-0.316189	0.203040
H298	H	1.349320	0.183811	0.703040
H299	H	1.047352	-0.085064	-0.297205
H300	H	1.547352	0.414936	0.202795
C301	C	1.029028	-0.341049	-0.082843
C302	C	1.529028	0.158951	0.417157
C303	C	1.046524	-0.317152	-0.005697
C304	C	1.546524	0.182848	0.494303
H305	H	1.063223	-0.308124	-0.119006
H306	H	1.563223	0.191876	0.380994
H307	H	1.036277	-0.411678	-0.090516
H308	H	1.536277	0.088322	0.409484
H309	H	0.975719	-0.319534	-0.091328
H310	H	1.475719	0.180466	0.408672
H311	H	1.099831	-0.338673	0.002790
H312	H	1.599831	0.161327	0.502790
H313	H	1.039281	-0.246507	0.001979
H314	H	1.539281	0.253493	0.501979
H315	H	1.082558	-0.492624	-0.043893
H316	H	1.582558	0.007376	0.456107
H317	H	1.082581	-0.683157	-0.043907
H318	H	1.582581	-0.183157	0.456093
C319	C	1.090766	-0.788058	-0.052589
C320	C	1.590766	-0.288058	0.447411
C321	C	1.046544	-0.852744	-0.005761
C322	C	1.546544	-0.352744	0.494239
H323	H	1.124961	-0.826464	-0.088797
H324	H	1.624961	-0.326464	0.411203
H325	H	1.056066	-0.744284	-0.080762
H326	H	1.556066	-0.244284	0.419238
H327	H	1.121273	-0.749567	-0.019966
H328	H	1.621273	-0.249567	0.480034
H329	H	1.016033	-0.891230	-0.038384
H330	H	1.516033	-0.391230	0.461616
H331	H	1.081249	-0.896535	0.022413
H332	H	1.581249	-0.396535	0.522413
