data_functionalizedCrystal
_audit_creation_method	'MofGen! by Chris Wilmer'
_symmetry_space_group_name_H-M	'P1'
_symmetry_Int_Tables_number	1
_symmetry_cell_setting	triclinic
loop_
_symmetry_equiv_pos_as_xyz
  x,y,z
_cell_length_a	17.077404
_cell_length_b	16.625546
_cell_length_c	17.077396
_cell_angle_alpha	89.969785
_cell_angle_beta	89.980499
_cell_angle_gamma	90.022693
loop_
_atom_site_label
_atom_site_type_symbol
_atom_site_fract_x
_atom_site_fract_y
_atom_site_fract_z
Zn1	Zn	1.200057	-0.320997	-0.443833
Zn2	Zn	1.700057	0.179003	0.056167
Zn3	Zn	1.199965	-0.455839	-0.312563
Zn4	Zn	1.699965	0.044161	0.187437
Zn5	Zn	1.068789	-0.321025	-0.312581
Zn6	Zn	1.568789	0.178975	0.187419
Zn7	Zn	1.068758	-0.455792	-0.443787
Zn8	Zn	1.568758	0.044208	0.056213
O9	O	1.134392	-0.388413	-0.378191
O10	O	1.634392	0.111587	0.121809
O11	O	1.309892	-0.338892	-0.426432
O12	O	1.809892	0.161108	0.073568
O13	O	1.182539	-0.437988	-0.202719
O14	O	1.682539	0.062012	0.297281
O15	O	1.086253	-0.208189	-0.330019
O16	O	1.586253	0.291811	0.169981
O17	O	1.309824	-0.437960	-0.329988
O18	O	1.809824	0.062040	0.170012
O19	O	1.182695	-0.208168	-0.426449
O20	O	1.682695	0.291832	0.073551
O21	O	1.086164	-0.338940	-0.202732
O22	O	1.586164	0.161060	0.297268
O23	O	0.958938	-0.338894	-0.329974
O24	O	1.458938	0.161106	0.170026
O25	O	1.086200	-0.437879	-0.553640
O26	O	1.586200	0.062121	-0.053640
O27	O	0.958915	-0.437906	-0.426370
O28	O	1.458915	0.062094	0.073630
O29	O	1.182665	-0.338846	-0.553674
O30	O	1.682665	0.161154	-0.053674
O31	O	1.182509	-0.568666	-0.329943
O32	O	1.682509	-0.068666	0.170057
O33	O	1.086111	-0.568630	-0.426353
O34	O	1.586111	-0.068630	0.073647
C35	C	0.930444	-0.388399	-0.378169
C36	C	1.430444	0.111601	0.121831
C37	C	0.843194	-0.388412	-0.378179
C38	C	1.343194	0.111588	0.121821
C39	C	0.802213	-0.440045	-0.428292
C40	C	1.302213	0.059955	0.071708
C41	C	0.720232	-0.440047	-0.428304
C42	C	1.220232	0.059953	0.071696
C43	C	0.679235	-0.388419	-0.378199
C44	C	1.179235	0.111581	0.121801
C45	C	0.720222	-0.336780	-0.328084
C46	C	1.220222	0.163220	0.171916
C47	C	0.802201	-0.336774	-0.328076
C48	C	1.302201	0.163226	0.171924
C49	C	0.549352	-0.336795	-0.328103
C50	C	1.049352	0.163205	0.171897
C51	C	0.467368	-0.336801	-0.328110
C52	C	0.967368	0.163199	0.171890
C53	C	0.467383	-0.440068	-0.428331
C54	C	0.967383	0.059932	0.071669
C55	C	0.549362	-0.440063	-0.428323
C56	C	1.049362	0.059937	0.071677
C57	C	0.590344	-0.388425	-0.378207
C58	C	1.090344	0.111575	0.121793
C59	C	1.134318	-0.597904	-0.378158
C60	C	1.634318	-0.097904	0.121842
C61	C	1.134358	-0.687525	-0.378170
C62	C	1.634358	-0.187525	0.121830
C63	C	1.134495	-1.015701	-0.378252
C64	C	1.634495	-0.515701	0.121748
C65	C	1.134454	-0.924392	-0.378232
C66	C	1.634454	-0.424392	0.121768
C67	C	1.134426	-0.851616	-0.378211
C68	C	1.634426	-0.351616	0.121789
C69	C	1.134386	-0.760302	-0.378191
C70	C	1.634386	-0.260302	0.121809
C71	C	1.339136	-0.388428	-0.378213
C72	C	1.839136	0.111572	0.121787
C73	C	1.426386	-0.388435	-0.378223
C74	C	1.926386	0.111565	0.121777
C75	C	1.134440	-0.388354	-0.582936
C76	C	1.634440	0.111646	-0.082936
C77	C	1.134460	-0.388329	-0.670185
C78	C	1.634460	0.111671	-0.170185
C79	C	1.134488	-0.178104	-0.378241
C80	C	1.634488	0.321896	0.121759
C81	C	1.134529	-0.088483	-0.378263
C82	C	1.634529	0.411517	0.121737
C83	C	1.184691	-0.336758	-0.711195
C84	C	1.684691	0.163242	-0.211195
C85	C	1.184700	-0.336731	-0.793175
C86	C	1.684700	0.163269	-0.293175
C87	C	1.134482	-0.388280	-0.834145
C88	C	1.634482	0.111720	-0.334145
C89	C	1.084245	-0.439853	-0.793130
C90	C	1.584245	0.060147	-0.293130
C91	C	1.084233	-0.439875	-0.711151
C92	C	1.584233	0.060125	-0.211151
C93	C	1.084277	-0.439804	-0.964000
C94	C	1.584277	0.060196	-0.464000
C95	C	1.084291	-0.439783	-1.045985
C96	C	1.584291	0.060217	-0.545985
C97	C	1.184745	-0.336660	-1.046024
C98	C	1.684745	0.163340	-0.546024
C99	C	1.184732	-0.336682	-0.964045
C100	C	1.684732	0.163318	-0.464045
C101	C	1.134496	-0.388257	-0.923036
C102	C	1.634496	0.111743	-0.423036
C103	C	1.134390	-0.388414	-0.174243
C104	C	1.634390	0.111586	0.325757
C105	C	1.134522	-0.388212	-0.086994
C106	C	1.634522	0.111788	0.413006
H107	H	0.686869	-0.482093	-0.469111
H108	H	1.186869	0.017907	0.030889
H109	H	1.225647	-0.294665	-1.079418
H110	H	1.725647	0.205335	-0.579418
H111	H	0.582740	-0.482108	-0.469119
H112	H	1.082740	0.017892	0.030881
C113	C	1.290274	-0.325582	-0.619025
C114	C	1.790274	0.174418	-0.119025
C115	C	1.239891	-0.280091	-0.666163
C116	C	1.739891	0.219909	-0.166163
H117	H	1.324354	-0.290594	-0.591231
H118	H	1.824354	0.209406	-0.091231
H119	H	1.260358	-0.356292	-0.582871
H120	H	1.760358	0.143708	-0.082871
H121	H	1.320290	-0.360701	-0.651010
H122	H	1.820290	0.139299	-0.151010
H123	H	1.209872	-0.244976	-0.634178
H124	H	1.709872	0.255024	-0.134178
H125	H	1.269811	-0.249367	-0.702322
H126	H	1.769811	0.250633	-0.202322
H127	H	1.225629	-0.294711	-0.930690
H128	H	1.725629	0.205289	-0.430690
H129	H	0.582717	-0.294739	-0.287300
H130	H	1.082717	0.205261	0.212700
H131	H	0.686836	-0.294739	-0.287291
H132	H	1.186836	0.205261	0.212709
C133	C	1.290294	-0.325503	-0.885407
C134	C	1.790294	0.174497	-0.385407
C135	C	1.239906	-0.280040	-0.838262
C136	C	1.739906	0.219960	-0.338262
H137	H	1.324369	-0.290499	-0.913246
H138	H	1.824369	0.209501	-0.413246
H139	H	1.320306	-0.360634	-0.853428
H140	H	1.820306	0.139366	-0.353428
H141	H	1.260375	-0.356200	-0.921530
H142	H	1.760375	0.143800	-0.421530
H143	H	1.269825	-0.249347	-0.802134
H144	H	1.769825	0.250653	-0.302134
H145	H	1.209891	-0.244895	-0.870243
H146	H	1.709891	0.255105	-0.370243
C147	C	0.984981	-0.541706	-1.037716
C148	C	1.484981	-0.041706	-0.537716
C149	C	1.029085	-0.496440	-1.091021
C150	C	1.529085	0.003560	-0.591021
H151	H	0.950896	-0.576679	-1.065521
H152	H	1.450896	-0.076679	-0.565521
H153	H	1.019156	-0.572564	-1.005740
H154	H	1.519156	-0.072564	-0.505740
H155	H	0.954970	-0.506570	-1.005744
H156	H	1.454970	-0.006570	-0.505744
H157	H	1.059101	-0.531575	-1.122989
H158	H	1.559101	-0.031575	-0.622989
H159	H	0.994905	-0.465579	-1.123010
H160	H	1.494905	0.034421	-0.623010
C161	C	1.073324	-0.548278	-0.871770
C162	C	1.573324	-0.048278	-0.371770
C163	C	1.029066	-0.496496	-0.918911
C164	C	1.529066	0.003504	-0.418911
H165	H	1.039242	-0.583274	-0.843929
H166	H	1.539242	-0.083274	-0.343929
H167	H	1.107506	-0.579111	-0.903753
H168	H	1.607506	-0.079111	-0.403753
H169	H	1.103229	-0.517564	-0.835650
H170	H	1.603229	-0.017564	-0.335650
H171	H	0.999166	-0.527210	-0.955035
H172	H	1.499166	-0.027210	-0.455035
H173	H	0.994871	-0.465660	-0.886925
H174	H	1.494871	0.034340	-0.386925
H175	H	1.043354	-0.481822	-0.826494
H176	H	1.543354	0.018178	-0.326494
C177	C	0.984962	-0.541827	-0.719341
C178	C	1.484962	-0.041827	-0.219341
C179	C	1.029030	-0.496577	-0.666071
C180	C	1.529030	0.003423	-0.166071
H181	H	0.950887	-0.576838	-0.691509
H182	H	1.450887	-0.076838	-0.191509
H183	H	0.954949	-0.506690	-0.751312
H184	H	1.454949	-0.006690	-0.251312
H185	H	1.019166	-0.572652	-0.751321
H186	H	1.519166	-0.072652	-0.251321
H187	H	0.994827	-0.465747	-0.634094
H188	H	1.494827	0.034253	-0.134094
H189	H	1.059046	-0.531719	-0.634086
H190	H	1.559046	-0.031719	-0.134086
C191	C	0.375098	-0.325422	-0.222578
C192	C	0.875098	0.174578	0.277422
C193	C	0.422286	-0.280031	-0.273067
C194	C	0.922286	0.219969	0.226933
H195	H	0.347266	-0.290367	-0.188603
H196	H	0.847266	0.209633	0.311397
H197	H	0.338976	-0.356186	-0.252424
H198	H	0.838976	0.143814	0.247576
H199	H	0.407054	-0.360487	-0.192457
H200	H	0.907054	0.139513	0.307543
H201	H	0.390330	-0.244970	-0.303192
H202	H	0.890330	0.255030	0.196808
H203	H	0.458412	-0.249253	-0.243218
H204	H	0.958412	0.250747	0.256782
H205	H	0.835587	-0.482090	-0.469091
H206	H	1.335587	0.017910	0.030909
C207	C	0.793956	-0.234714	-0.229001
C208	C	1.293956	0.265286	0.270999
C209	C	0.847251	-0.280024	-0.272983
C210	C	1.347251	0.219976	0.227017
H211	H	0.821770	-0.199681	-0.194986
H212	H	1.321770	0.300319	0.305014
H213	H	0.762010	-0.203916	-0.263257
H214	H	1.262010	0.296084	0.236743
H215	H	0.761954	-0.269817	-0.198921
H216	H	1.261954	0.230183	0.301079
H217	H	0.879250	-0.244921	-0.303068
H218	H	1.379250	0.255079	0.196932
H219	H	0.879211	-0.310824	-0.238723
H220	H	1.379211	0.189176	0.261277
C221	C	0.442113	-0.576657	-0.466321
C222	C	0.942113	-0.076657	0.033679
C223	C	0.422336	-0.496831	-0.483418
C224	C	0.922336	0.003169	0.016582
H225	H	0.414295	-0.611699	-0.500323
H226	H	0.914295	-0.111699	-0.000323
H227	H	0.496797	-0.584039	-0.473491
H228	H	0.996797	-0.084039	0.026509
H229	H	0.428647	-0.588371	-0.413557
H230	H	0.928647	-0.088371	0.086443
H231	H	0.435807	-0.485114	-0.536182
H232	H	0.935807	0.014886	-0.036182
H233	H	0.367641	-0.489444	-0.476256
H234	H	0.867641	0.010556	0.023744
