data_functionalizedCrystal
_audit_creation_method	'MofGen! by Chris Wilmer'
_symmetry_space_group_name_H-M	'P1'
_symmetry_Int_Tables_number	1
_symmetry_cell_setting	triclinic
loop_
_symmetry_equiv_pos_as_xyz
  x,y,z
_cell_length_a	8.497367
_cell_length_b	8.497374
_cell_length_c	16.120530
_cell_angle_alpha	92.899701
_cell_angle_beta	92.935376
_cell_angle_gamma	90.038609
loop_
_atom_site_label
_atom_site_type_symbol
_atom_site_fract_x
_atom_site_fract_y
_atom_site_fract_z
Zn1	Zn	0.750850	1.014825	1.274790
Zn2	Zn	1.084183	1.348158	1.608123
Zn3	Zn	1.417517	1.681492	1.941457
Zn4	Zn	1.014604	0.751252	1.274867
Zn5	Zn	1.347937	1.084585	1.608201
Zn6	Zn	1.681270	1.417918	1.941534
Zn7	Zn	0.737428	0.737674	1.135407
Zn8	Zn	1.070761	1.071008	1.468740
Zn9	Zn	1.404094	1.404341	1.802074
Zn10	Zn	1.001192	1.001604	1.135471
Zn11	Zn	1.334526	1.334937	1.468805
Zn12	Zn	1.667859	1.668271	1.802138
O13	O	0.876018	0.876339	1.205134
O14	O	1.209352	1.209672	1.538467
O15	O	1.542685	1.543005	1.871801
O16	O	0.797068	0.991077	1.391470
O17	O	1.130401	1.324410	1.724804
O18	O	1.463734	1.657743	2.058137
O19	O	0.977831	0.528689	1.256373
O20	O	1.311164	0.862022	1.589707
O21	O	1.644497	1.195356	1.923040
O22	O	0.518440	0.774290	1.153837
O23	O	0.851773	1.107623	1.487171
O24	O	1.185106	1.440957	1.820504
O25	O	0.990846	0.797430	1.391527
O26	O	1.324179	1.130764	1.724860
O27	O	1.657513	1.464097	2.058194
O28	O	0.528301	0.977911	1.256241
O29	O	0.861635	1.311245	1.589575
O30	O	1.194968	1.644578	1.922908
O31	O	0.774191	0.518714	1.153912
O32	O	1.107524	0.852047	1.487246
O33	O	1.440857	1.185380	1.820579
O34	O	0.761186	0.761470	1.018746
O35	O	1.094520	1.094804	1.352079
O36	O	1.427853	1.428137	1.685412
O37	O	0.967989	1.224120	1.153947
O38	O	1.301322	1.557453	1.487280
O39	O	1.634655	1.890786	1.820613
O40	O	0.954973	0.955378	1.018793
O41	O	1.288307	1.288711	1.352126
O42	O	1.621640	1.622045	1.685459
O43	O	0.784063	1.233833	1.256303
O44	O	1.117397	1.567166	1.589637
O45	O	1.450730	1.900500	1.922970
O46	O	1.233593	0.784611	1.256435
O47	O	1.566926	1.117944	1.589769
O48	O	1.900260	1.451277	1.923102
O49	O	1.223740	0.968543	1.154022
O50	O	1.557073	1.301877	1.487355
O51	O	1.890406	1.635210	1.820688
C52	C	0.855169	0.855517	0.988518
C53	C	1.188503	1.188850	1.321851
C54	C	1.521836	1.522184	1.655185
C55	C	0.846288	0.846647	0.895849
C56	C	1.179621	1.179980	1.229182
C57	C	1.512955	1.513314	1.562515
C58	C	1.464532	0.876187	1.205076
C59	C	1.797866	1.209521	1.538409
C60	C	2.131199	1.542854	1.871743
C61	C	1.285899	0.876486	1.205181
C62	C	1.619232	1.209819	1.538514
C63	C	1.952565	1.543153	1.871848
C64	C	0.876020	1.287819	1.205128
C65	C	1.209353	1.621152	1.538461
C66	C	1.542687	1.954485	1.871794
C67	C	0.876037	1.466463	1.205130
C68	C	1.209370	1.799796	1.538463
C69	C	1.542704	2.133129	1.871796
C70	C	0.830036	0.830466	0.726181
C71	C	1.163369	1.163799	1.059514
C72	C	1.496703	1.497133	1.392848
C73	C	0.922117	0.922327	0.684927
C74	C	1.255450	1.255660	1.018261
C75	C	1.588784	1.588994	1.351594
C76	C	0.913074	0.913324	0.590518
C77	C	1.246408	1.246657	0.923852
C78	C	1.579741	1.579990	1.257185
C79	C	0.839077	0.839467	0.820598
C80	C	1.172410	1.172800	1.153932
C81	C	1.505743	1.506134	1.487265
C82	C	0.896950	0.897243	1.422596
C83	C	1.230283	1.230576	1.755929
C84	C	1.563617	1.563909	2.089262
C85	C	0.905870	0.906151	1.515265
C86	C	1.239203	1.239484	1.848598
C87	C	1.572537	1.572817	2.181932
H88	H	1.007739	1.007735	0.720513
H89	H	1.341072	1.341069	1.053846
H90	H	1.674406	1.674402	1.387179
H91	H	0.744420	0.745066	0.690598
H92	H	1.077753	1.078399	1.023931
H93	H	1.411087	1.411732	1.357265
