data_functionalizedCrystal
_audit_creation_method	'MofGen! by Chris Wilmer'
_symmetry_space_group_name_H-M	'P1'
_symmetry_Int_Tables_number	1
_symmetry_cell_setting	triclinic
loop_
_symmetry_equiv_pos_as_xyz
  x,y,z
_cell_length_a	19.188930
_cell_length_b	14.044220
_cell_length_c	17.666332
_cell_angle_alpha	90.003574
_cell_angle_beta	90.023133
_cell_angle_gamma	88.166829
loop_
_atom_site_label
_atom_site_type_symbol
_atom_site_fract_x
_atom_site_fract_y
_atom_site_fract_z
O1	O	0.933784	0.118308	0.063192
O2	O	1.433784	0.618308	0.563192
O3	O	0.731501	0.134234	0.063140
O4	O	1.231501	0.634234	0.563140
O5	O	0.829606	-0.011701	0.063162
O6	O	1.329606	0.488299	0.563162
O7	O	0.835679	0.264243	0.063170
O8	O	1.335679	0.764243	0.563170
O9	O	0.829587	-0.011705	-0.062735
O10	O	1.329587	0.488295	0.437265
O11	O	0.731481	0.134230	-0.062756
O12	O	1.231481	0.634230	0.437244
O13	O	0.933765	0.118304	-0.062705
O14	O	1.433765	0.618304	0.437295
Cu15	Cu	0.832621	0.126267	-0.074226
Cu16	Cu	1.332621	0.626267	0.425774
Cu17	Cu	0.832644	0.126272	0.074662
Cu18	Cu	1.332644	0.626272	0.574662
O19	O	0.835659	0.264239	-0.062726
O20	O	1.335659	0.764239	0.437274
C21	C	0.705447	0.133716	0.000185
C22	C	1.205447	0.633716	0.500185
C23	C	0.627842	0.132168	0.000165
C24	C	1.127842	0.632168	0.500165
C25	C	0.826938	-0.047006	0.000214
C26	C	1.326938	0.452994	0.500214
C27	C	0.819010	-0.152199	0.000214
C28	C	1.319010	0.347801	0.500214
N29	N	0.832611	0.126262	-0.178945
N30	N	1.332611	0.626262	0.321055
C31	C	0.588444	0.217798	0.000180
C32	C	1.088444	0.717798	0.500180
C33	C	0.515526	0.216344	0.000188
C34	C	1.015526	0.716344	0.500188
C35	C	0.482010	0.129254	0.000197
C36	C	0.982010	0.629254	0.500197
C37	C	0.521417	0.043613	0.000178
C38	C	1.021417	0.543613	0.500178
C39	C	0.594333	0.045070	0.000163
C40	C	1.094333	0.545070	0.500163
N41	N	0.369741	0.062687	0.043074
N42	N	0.869741	0.562687	0.543074
N43	N	0.300473	0.061309	0.043091
N44	N	0.800473	0.561309	0.543091
C45	C	0.262318	0.124859	0.000243
C46	C	0.762318	0.624859	0.500243
N47	N	0.296046	0.189855	-0.042612
N48	N	0.796046	0.689855	0.457388
N49	N	0.365320	0.191236	-0.042625
N50	N	0.865320	0.691236	0.457375
C51	C	0.402945	0.127665	0.000214
C52	C	0.902945	0.627665	0.500214
C53	C	0.143854	0.208918	0.000266
C54	C	0.643854	0.708918	0.500266
C55	C	0.070935	0.207460	0.000269
C56	C	0.570935	0.707460	0.500269
C57	C	0.076827	0.034727	0.000267
C58	C	0.576827	0.534727	0.500267
C59	C	0.149744	0.036188	0.000256
C60	C	0.649744	0.536188	0.500256
C61	C	0.183253	0.123286	0.000259
C62	C	0.683253	0.623286	0.500259
C63	C	0.959819	0.118822	0.000252
C64	C	1.459819	0.618822	0.500252
C65	C	1.037423	0.120370	0.000277
C66	C	1.537423	0.620370	0.500277
C67	C	0.838327	0.299544	0.000224
C68	C	1.338327	0.799544	0.500224
C69	C	0.846256	0.404737	0.000228
C70	C	1.346256	0.904737	0.500228
C71	C	0.860752	0.597339	0.000229
C72	C	1.360752	1.097339	0.500229
C73	C	0.804517	0.655205	0.000214
C74	C	1.304517	1.155205	0.500214
C75	C	0.812583	0.762375	0.000214
C76	C	1.312583	1.262375	0.500214
C77	C	0.852687	0.490159	0.000229
C78	C	1.352687	0.990159	0.500229
C79	C	0.878520	0.183600	-0.218535
C80	C	1.378520	0.683600	0.281465
C81	C	0.878531	0.183597	-0.297783
C82	C	1.378531	0.683597	0.202217
C83	C	0.832620	0.126268	-0.337437
C84	C	1.332620	0.626268	0.162563
C85	C	0.786708	0.068919	-0.297838
C86	C	1.286708	0.568919	0.202162
C87	C	0.786703	0.068916	-0.218592
C88	C	1.286703	0.568916	0.281408
N89	N	0.771321	0.123933	-0.461893
N90	N	1.271321	0.623933	0.038107
N91	N	0.771328	0.123941	-0.537173
N92	N	1.271328	0.623941	-0.037173
C93	C	0.832633	0.126271	-0.576201
C94	C	1.332633	0.626271	-0.076201
N95	N	0.893933	0.128611	-0.537105
N96	N	1.393933	0.628611	-0.037105
N97	N	0.893926	0.128608	-0.461818
N98	N	1.393926	0.628608	0.038182
C99	C	0.832621	0.126264	-0.423366
C100	C	1.332621	0.626264	0.076634
C101	C	0.878558	0.183609	-0.701721
C102	C	1.378558	0.683609	-0.201721
C103	C	0.878570	0.183599	-0.780970
C104	C	1.378570	0.683599	-0.280970
C105	C	0.786741	0.068926	-0.781023
C106	C	1.286741	0.568926	-0.281023
C107	C	0.786735	0.068930	-0.701776
C108	C	1.286735	0.568930	-0.201776
C109	C	0.832643	0.126277	-0.662129
C110	C	1.332643	0.626277	-0.162129
N111	N	0.832660	0.126268	0.179381
N112	N	1.332660	0.626268	0.679381
H113	H	0.615722	0.288720	0.000184
H114	H	1.115722	0.788720	0.500184
C115	C	0.472180	0.310547	0.000213
C116	C	0.972180	0.810547	0.500213
N117	N	0.439534	0.381501	0.000236
N118	N	0.939534	0.881501	0.500236
C119	C	0.933971	0.639144	0.000235
C120	C	1.433971	1.139144	0.500235
N121	N	0.989119	0.670643	0.000234
N122	N	1.489119	1.170643	0.500234
H123	H	0.749361	0.022246	-0.813309
H124	H	1.249361	0.522246	-0.313309
C125	C	0.736224	0.005864	-0.658225
C126	C	1.236224	0.505864	-0.158225
N127	N	0.698177	-0.041641	-0.625422
N128	N	1.198177	0.458359	-0.125422
H129	H	0.750316	0.624259	0.000199
H130	H	1.250316	1.124259	0.500199
C131	C	0.484548	-0.052186	0.000189
C132	C	0.984548	0.447814	0.500189
N133	N	0.456778	-0.124344	0.000195
N134	N	0.956778	0.375656	0.500195
H135	H	0.915916	0.230291	-0.330024
H136	H	1.415916	0.730291	0.169976
C137	C	0.637673	-0.049134	0.000152
C138	C	1.137673	0.450866	0.500152
N139	N	0.670317	-0.120090	0.000146
N140	N	1.170317	0.379910	0.500146
H141	H	0.171138	0.279839	0.000257
H142	H	0.671138	0.779839	0.500257
H143	H	0.749328	0.022240	-0.330129
H144	H	1.249328	0.522240	0.169871
H145	H	0.038858	0.277193	0.000277
H146	H	0.538858	0.777193	0.500277
H147	H	0.915904	0.230292	-0.186260
H148	H	1.415904	0.730292	0.313740
H149	H	0.749317	0.022224	-0.186358
H150	H	1.249317	0.522224	0.313642
H151	H	0.915939	0.230303	-0.669439
H152	H	1.415939	0.730303	-0.169439
C153	C	0.929063	0.246698	-0.824519
C154	C	1.429063	0.746698	-0.324519
N155	N	0.967090	0.294234	-0.857321
N156	N	1.467090	0.794234	-0.357321
H157	H	0.049539	-0.036183	0.000322
H158	H	0.549539	0.463817	0.500322
H159	H	0.181823	-0.033542	0.000248
H160	H	0.681823	0.466458	0.500248
