data_functionalizedCrystal
_audit_creation_method	'MofGen! by Chris Wilmer'
_symmetry_space_group_name_H-M	'P1'
_symmetry_Int_Tables_number	1
_symmetry_cell_setting	triclinic
loop_
_symmetry_equiv_pos_as_xyz
  x,y,z
_cell_length_a	17.699083
_cell_length_b	11.804365
_cell_length_c	17.699083
_cell_angle_alpha	78.194645
_cell_angle_beta	83.283015
_cell_angle_gamma	101.817837
loop_
_atom_site_label
_atom_site_type_symbol
_atom_site_fract_x
_atom_site_fract_y
_atom_site_fract_z
O1	O	1.019369	0.098859	0.080427
O2	O	0.798996	0.098899	0.092873
O3	O	0.915407	0.098867	-0.023537
O4	O	0.902958	0.098890	0.196838
O5	O	0.884760	-0.099180	0.007078
O6	O	0.768350	-0.099149	0.123489
O7	O	0.988722	-0.099189	0.111043
Cu8	Cu	0.875738	-0.117252	0.120061
Cu9	Cu	0.911981	0.116962	0.083855
O10	O	0.872312	-0.099157	0.227453
C11	C	0.755477	-0.000120	0.107734
C12	C	0.671461	-0.000106	0.106393
N13	N	0.850252	-0.281986	0.145527
C14	C	0.622841	-0.000099	0.174726
C15	C	0.543895	-0.000114	0.173466
C16	C	0.513572	-0.000128	0.103872
C17	C	0.562198	-0.000139	0.035535
C18	C	0.641141	-0.000132	0.036797
C19	C	0.243830	-0.000169	0.030444
C20	C	0.164882	-0.000172	0.029187
C21	C	0.146585	-0.000151	0.167113
C22	C	0.225528	-0.000144	0.168375
C23	C	0.274145	-0.000161	0.100040
C24	C	0.359747	-0.000146	0.101407
C25	C	0.427974	-0.000134	0.102502
C26	C	0.998673	-0.655974	-0.002782
C27	C	1.017952	-0.531318	-0.022050
C28	C	0.976029	-0.468979	0.019842
C29	C	0.914823	-0.531308	0.081006
C30	C	0.895546	-0.655977	0.100279
C31	C	0.872901	-0.468982	0.122904
C32	C	0.811696	-0.531311	0.184068
C33	C	0.792422	-0.655968	0.203338
C34	C	0.834345	-0.718307	0.161445
C35	C	0.892178	-0.344313	0.103631
C36	C	0.789051	-0.344315	0.206693
C37	C	0.769772	-0.468972	0.225960
C38	C	1.032242	-0.000167	0.096181
C39	C	1.116259	-0.000174	0.097521
C40	C	0.899637	-0.000157	-0.036426
C41	C	0.898299	-0.000157	-0.120444
N42	N	0.937472	0.281696	0.058384
C43	C	0.966630	-0.000171	-0.169063
C44	C	0.965369	-0.000160	-0.248008
C45	C	0.895775	-0.000144	-0.278331
C46	C	0.827439	-0.000126	-0.229707
C47	C	0.828702	-0.000129	-0.150765
C48	C	0.822346	-0.000116	-0.548072
C49	C	0.821088	-0.000117	-0.627019
C50	C	0.959013	-0.000147	-0.645315
C51	C	0.960276	-0.000149	-0.566373
C52	C	0.891941	-0.000126	-0.517756
C53	C	0.893309	-0.000135	-0.432156
C54	C	0.894405	-0.000143	-0.363929
C55	C	0.888081	-0.000131	0.240342
C56	C	0.889421	-0.000123	0.324359
H57	H	0.504312	-0.000107	0.229109
C58	C	1.036831	-0.000161	-0.533019
C59	C	1.111998	-0.000165	-0.586500
C60	C	1.188556	-0.000169	-0.553149
C61	C	1.189947	-0.000168	-0.466317
C62	C	1.114777	-0.000164	-0.412830
C63	C	1.038219	-0.000160	-0.446181
H64	H	1.110971	-0.000165	-0.650784
H65	H	1.244202	-0.000172	-0.592744
H66	H	1.246620	-0.000171	-0.441628
H67	H	1.115804	-0.000164	-0.348547
H68	H	0.982573	-0.000157	-0.406586
C69	C	0.297301	-0.000178	-0.044727
C70	C	0.338180	-0.103021	-0.046938
C71	C	0.391653	-0.103029	-0.122114
C72	C	0.404248	-0.000194	-0.195079
C73	C	0.363368	0.102656	-0.192871
C74	C	0.309895	0.102665	-0.117695
H75	H	0.328857	-0.179152	0.007078
H76	H	0.421915	-0.179167	-0.123748
H77	H	0.443832	-0.000201	-0.250729
H78	H	0.372691	0.178788	-0.246887
H79	H	0.279633	0.178803	-0.116061
H80	H	0.770776	-0.000106	-0.254403
H81	H	0.106989	-0.000144	0.222756
C82	C	0.997229	-0.331856	-0.001355
C83	C	0.992546	-0.263310	-0.083971
C84	C	1.013745	-0.126181	-0.105174
C85	C	1.039628	-0.057597	-0.043761
C86	C	1.044312	-0.126143	0.038861
C87	C	1.023112	-0.263272	0.060064
H88	H	0.973385	-0.314080	-0.129437
H89	H	1.010278	-0.075439	-0.166336
H90	H	1.055321	0.043914	-0.059456
H91	H	1.063472	-0.075373	0.084327
H92	H	1.026579	-0.314013	0.121226
H93	H	0.719937	-0.519736	0.275761
C94	C	1.085270	-0.462754	-0.089328
C95	C	1.131388	-0.531309	-0.135415
C96	C	1.198708	-0.462740	-0.202698
C97	C	1.219912	-0.325617	-0.223893
C98	C	1.173793	-0.257055	-0.177805
C99	C	1.106472	-0.325623	-0.110522
H100	H	1.115693	-0.632822	-0.119726
H101	H	1.232848	-0.513495	-0.236815
H102	H	1.269746	-0.274859	-0.273700
H103	H	1.189488	-0.155541	-0.193494
H104	H	1.072333	-0.274868	-0.076405
C105	C	0.725100	-0.724536	0.270621
C106	C	0.641567	-0.707415	0.266809
C107	C	0.574246	-0.775984	0.334091
C108	C	0.590459	-0.861673	0.405186
C109	C	0.673996	-0.878798	0.409001
C110	C	0.741317	-0.810229	0.341718
H111	H	0.629562	-0.643980	0.214178
H112	H	0.512407	-0.763306	0.331267
H113	H	0.540624	-0.912431	0.454992
H114	H	0.686001	-0.942234	0.461632
H115	H	0.803156	-0.822907	0.344543
C116	C	0.742929	-0.275755	0.252778
C117	C	0.764129	-0.138632	0.231577
C118	C	0.718014	-0.070062	0.277660
C119	C	0.650697	-0.138616	0.344944
C120	C	0.629493	-0.275747	0.366148
C121	C	0.675609	-0.344316	0.320065
H122	H	0.813964	-0.087878	0.181767
H123	H	0.733711	0.031451	0.261963
H124	H	0.616560	-0.087857	0.379057
H125	H	0.579659	-0.326501	0.415959
H126	H	0.659912	-0.445830	0.335762
H127	H	0.537500	-0.000167	-0.021128
C128	C	0.747175	-0.000103	-0.494602
C129	C	0.744978	0.102742	-0.453712
C130	C	0.669802	0.102752	-0.400239
C131	C	0.596823	-0.000082	-0.387657
C132	C	0.599018	-0.102935	-0.428548
C133	C	0.674194	-0.102945	-0.482021
H134	H	0.799004	0.178873	-0.463025
H135	H	0.668178	0.178891	-0.369969
H136	H	0.541173	-0.000074	-0.348073
H137	H	0.544992	-0.179066	-0.419235
H138	H	0.675818	-0.179084	-0.512291
H139	H	1.023300	-0.000191	-0.144380
C140	C	0.258879	-0.000133	0.244932
C141	C	0.224571	-0.102974	0.317549
C142	C	0.257919	-0.102969	0.394108
C143	C	0.325576	-0.000124	0.398051
C144	C	0.359888	0.102724	0.325431
C145	C	0.326540	0.102720	0.248872
H146	H	0.174484	-0.179113	0.314632
H147	H	0.232518	-0.179105	0.447866
H148	H	0.350262	-0.000121	0.454725
H149	H	0.409975	0.178863	0.328348
H150	H	0.351940	0.178855	0.195114
H151	H	0.764412	-0.000106	-0.651705
H152	H	0.647523	-0.000087	0.231397
H153	H	0.140196	-0.000185	-0.027488
H154	H	0.680727	-0.000137	-0.018847
H155	H	0.773060	-0.000117	-0.111180
H156	H	1.032806	-0.706739	-0.036882
H157	H	1.014655	-0.000160	-0.684909
H158	H	0.942012	-0.293575	0.053831
H159	H	0.818646	-0.819812	0.177131
H160	H	1.021011	-0.000174	-0.287591
