data_functionalizedCrystal
_audit_creation_method	'MofGen! by Chris Wilmer'
_symmetry_space_group_name_H-M	'P1'
_symmetry_Int_Tables_number	1
_symmetry_cell_setting	triclinic
loop_
_symmetry_equiv_pos_as_xyz
  x,y,z
_cell_length_a	19.077409
_cell_length_b	16.625545
_cell_length_c	16.625539
_cell_angle_alpha	89.971893
_cell_angle_beta	92.271281
_cell_angle_gamma	92.327312
loop_
_atom_site_label
_atom_site_type_symbol
_atom_site_fract_x
_atom_site_fract_y
_atom_site_fract_z
Zn1	Zn	1.075972	-0.271437	-0.406562
Zn2	Zn	1.075881	-0.406285	-0.271734
Zn3	Zn	0.958274	-0.276887	-0.277140
Zn4	Zn	0.958241	-0.411655	-0.411919
O5	O	1.017092	-0.341566	-0.341839
O6	O	1.174449	-0.284797	-0.384172
O7	O	1.060255	-0.389153	-0.159620
O8	O	0.973938	-0.163329	-0.294329
O9	O	1.174382	-0.383869	-0.285114
O10	O	1.060410	-0.159326	-0.389415
O11	O	0.973850	-0.294085	-0.163592
O12	O	0.859780	-0.299293	-0.299524
O13	O	0.973883	-0.393021	-0.524040
O14	O	0.859756	-0.398306	-0.398545
O15	O	1.060379	-0.290004	-0.520104
O16	O	1.060224	-0.519832	-0.290309
O17	O	0.973795	-0.523777	-0.393302
C18	C	0.834231	-0.349974	-0.350203
C19	C	0.756002	-0.353590	-0.353800
C20	C	0.315657	-0.379463	-0.379640
C21	C	0.389162	-0.376071	-0.376245
C22	C	0.425903	-0.322741	-0.323078
C23	C	0.389136	-0.272806	-0.273297
C24	C	0.315633	-0.276202	-0.276688
C25	C	0.645732	-0.307051	-0.307411
C26	C	0.719240	-0.303657	-0.304025
C27	C	0.719261	-0.406923	-0.406972
C28	C	0.645756	-0.410311	-0.410363
C29	C	0.608996	-0.360379	-0.360579
N30	N	0.501036	-0.319271	-0.319608
N31	N	0.533864	-0.363854	-0.364045
C32	C	1.017015	-0.551060	-0.341817
C33	C	1.017047	-0.640680	-0.341832
C34	C	1.017074	-0.713461	-0.341846
C35	C	1.017115	-0.804768	-0.341862
C36	C	1.017152	-0.877543	-0.341871
C37	C	1.017192	-0.968855	-0.341885
C38	C	1.200667	-0.333126	-0.333442
C39	C	1.278896	-0.329529	-0.329864
C40	C	1.017138	-0.341504	-0.552146
C41	C	1.017157	-0.341477	-0.641766
C42	C	1.017188	-0.131253	-0.341877
C43	C	1.017229	-0.041630	-0.341894
C44	C	1.017190	-0.341386	-0.969940
C45	C	1.017179	-0.341414	-0.878632
C46	C	1.017174	-0.341432	-0.805856
C47	C	1.017162	-0.341459	-0.714542
C48	C	1.017087	-0.341568	-0.132348
C49	C	1.017204	-0.341361	-0.042722
H50	H	0.749199	-0.447576	-0.447503
O51	O	0.754823	-0.251839	-0.252293
C52	C	0.706617	-0.208486	-0.209088
H53	H	0.654208	-0.243925	-0.208662
H54	H	0.698838	-0.147639	-0.239069
C55	C	0.799635	-0.151928	-0.122493
C56	C	0.735266	-0.195457	-0.121964
H57	H	0.817307	-0.143887	-0.068752
H58	H	0.832113	-0.181133	-0.151603
H59	H	0.793143	-0.101226	-0.147481
H60	H	0.741761	-0.246161	-0.096986
H61	H	0.702790	-0.166260	-0.092848
O62	O	0.610017	-0.258680	-0.258934
C63	C	0.567475	-0.306513	-0.208746
H64	H	0.589603	-0.368994	-0.202690
H65	H	0.511765	-0.311874	-0.236198
C66	C	0.539190	-0.190377	-0.132458
C67	C	0.566372	-0.267116	-0.125014
H68	H	0.538506	-0.166074	-0.080809
H69	H	0.567849	-0.158150	-0.166272
H70	H	0.492768	-0.194855	-0.155337
H71	H	0.612796	-0.262635	-0.102144
H72	H	0.537720	-0.299341	-0.091194
O73	O	0.424745	-0.220896	-0.221688
C74	C	0.406828	-0.141383	-0.240290
H75	H	0.353478	-0.142217	-0.273753
H76	H	0.448227	-0.112362	-0.279878
C77	C	0.468924	-0.091579	-0.120827
C78	C	0.403396	-0.092603	-0.161921
H79	H	0.466810	-0.061487	-0.072487
H80	H	0.480998	-0.145147	-0.108295
H81	H	0.503416	-0.067397	-0.153825
H82	H	0.368907	-0.116794	-0.128927
H83	H	0.391316	-0.039037	-0.174445
O84	O	0.279812	-0.227778	-0.228367
C85	C	0.207059	-0.242199	-0.242772
H86	H	0.197018	-0.304922	-0.269534
H87	H	0.186233	-0.195390	-0.286753
C88	C	0.181616	-0.159419	-0.130074
C89	C	0.169282	-0.236459	-0.162937
H90	H	0.158312	-0.155875	-0.080830
H91	H	0.230631	-0.149701	-0.120370
H92	H	0.164261	-0.120420	-0.166733
H93	H	0.186645	-0.275456	-0.126283
H94	H	0.120269	-0.246184	-0.172633
O95	O	0.280079	-0.431335	-0.431312
C96	C	0.328291	-0.474664	-0.474532
H97	H	0.380667	-0.474996	-0.439081
H98	H	0.336152	-0.444850	-0.535457
C99	C	0.235257	-0.561412	-0.530872
C100	C	0.299584	-0.561825	-0.487327
H101	H	0.217548	-0.615176	-0.538768
H102	H	0.202774	-0.532218	-0.501756
H103	H	0.241817	-0.536563	-0.581638
H104	H	0.293022	-0.586664	-0.436558
H105	H	0.332065	-0.591024	-0.516434
O106	O	0.609985	-0.462162	-0.461894
C107	C	0.567443	-0.516151	-0.417849
H108	H	0.556416	-0.488139	-0.357304
H109	H	0.595745	-0.574588	-0.407577
C110	C	0.511179	-0.568433	-0.539759
C111	C	0.497631	-0.534025	-0.465399
H112	H	0.468117	-0.579463	-0.569091
H113	H	0.539842	-0.532062	-0.569434
H114	H	0.534766	-0.617126	-0.531188
H115	H	0.474053	-0.485329	-0.473970
H116	H	0.468962	-0.570389	-0.435726
H117	H	0.419090	-0.416734	-0.416775
