data_functionalizedCrystal
_audit_creation_method	'MofGen! by Chris Wilmer'
_symmetry_space_group_name_H-M	'P1'
_symmetry_Int_Tables_number	1
_symmetry_cell_setting	triclinic
loop_
_symmetry_equiv_pos_as_xyz
  x,y,z
_cell_length_a	19.188905
_cell_length_b	16.974959
_cell_length_c	15.455313
_cell_angle_alpha	96.307475
_cell_angle_beta	87.320948
_cell_angle_gamma	83.269964
loop_
_atom_site_label
_atom_site_type_symbol
_atom_site_fract_x
_atom_site_fract_y
_atom_site_fract_z
O1	O	0.929119	0.095464	-0.065582
O2	O	1.429119	0.595464	0.434418
O3	O	0.725788	0.108819	-0.064616
O4	O	1.225788	0.608819	0.435384
O5	O	0.833457	-0.013368	-0.073192
O6	O	1.333457	0.486632	0.426808
O7	O	0.821449	0.217651	-0.057006
O8	O	1.321449	0.717651	0.442994
O9	O	0.827300	-0.006409	0.071559
O10	O	1.327300	0.493591	0.571559
O11	O	0.719631	0.115778	0.080134
O12	O	1.219631	0.615778	0.580134
O13	O	0.922962	0.102422	0.079168
O14	O	1.422962	0.602422	0.579168
Cu15	Cu	0.820734	0.109736	0.092868
Cu16	Cu	1.320734	0.609736	0.592868
Cu17	Cu	0.828015	0.101506	-0.078316
Cu18	Cu	1.328015	0.601506	0.421684
O19	O	0.815292	0.224609	0.087744
O20	O	1.315292	0.724609	0.587744
C21	C	0.696698	0.111870	0.007733
C22	C	1.196698	0.611870	0.507733
C23	C	0.619194	0.110582	0.007654
C24	C	1.119194	0.610582	0.507654
C25	C	0.586159	0.106170	-0.071295
C26	C	1.086159	0.606170	0.428705
C27	C	0.513337	0.104950	-0.071391
C28	C	1.013337	0.604950	0.428609
C29	C	0.473555	0.108127	0.007465
C30	C	0.973555	0.608127	0.507465
C31	C	0.506598	0.112544	0.086425
C32	C	1.006598	0.612544	0.586425
C33	C	0.579417	0.113772	0.086519
C34	C	1.079417	0.613772	0.586519
N35	N	0.362093	0.063875	0.062884
N36	N	0.862093	0.563875	0.562884
N37	N	0.292918	0.062707	0.062789
N38	N	0.792918	0.562707	0.562789
C39	C	0.254154	0.104430	0.007185
C40	C	0.754154	0.604430	0.507185
N41	N	0.287179	0.147354	-0.048334
N42	N	0.787179	0.647354	0.451666
N43	N	0.356361	0.148519	-0.048241
N44	N	0.856361	0.648519	0.451759
C45	C	0.394594	0.106797	0.007371
C46	C	0.894594	0.606797	0.507371
C47	C	0.142157	0.098696	-0.071874
C48	C	0.642157	0.598696	0.428126
C49	C	0.069333	0.097481	-0.071966
C50	C	0.569333	0.597481	0.428034
C51	C	0.062596	0.105067	0.085851
C52	C	0.562596	0.605067	0.585851
C53	C	0.135417	0.106290	0.085942
C54	C	0.635417	0.606290	0.585942
C55	C	0.175194	0.103100	0.007077
C56	C	0.675194	0.603100	0.507077
C57	C	0.830034	-0.039444	-0.002889
C58	C	1.330034	0.460556	0.497111
C59	C	0.828997	-0.127510	-0.009063
C60	C	1.328997	0.372490	0.490937
C61	C	0.823592	-0.623651	-0.052385
C62	C	1.323592	-0.123651	0.447615
C63	C	0.824558	-0.540902	-0.046566
C64	C	1.324558	-0.040902	0.453434
C65	C	0.821680	-0.495749	0.035248
C66	C	1.321680	0.004251	0.535248
C67	C	0.817842	-0.533352	0.111246
C68	C	1.317842	-0.033352	0.611246
C69	C	0.816881	-0.616101	0.105426
C70	C	1.316881	-0.116101	0.605426
C71	C	0.824198	-0.247862	0.061115
C72	C	1.324198	0.252138	0.561115
C73	C	0.825158	-0.165107	0.066930
C74	C	1.325158	0.334893	0.566930
C75	C	0.831875	-0.172663	-0.090883
C76	C	1.331875	0.327337	0.409117
C77	C	0.830910	-0.255412	-0.096696
C78	C	1.330910	0.244588	0.403304
C79	C	0.827076	-0.293008	-0.020697
C80	C	1.327076	0.206992	0.479303
N81	N	0.822665	-0.411166	0.041198
N82	N	1.322665	0.088834	0.541198
N83	N	0.826095	-0.377591	-0.026648
N84	N	1.326095	0.122409	0.473352
C85	C	0.952051	0.099372	0.006818
C86	C	1.452051	0.599372	0.506818
C87	C	1.029556	0.100659	0.006891
C88	C	1.529556	0.600659	0.506891
N89	N	0.815618	0.115523	0.213270
N90	N	1.315618	0.615523	0.713270
C91	C	0.818716	0.250686	0.017439
C92	C	1.318716	0.750686	0.517439
C93	C	0.819752	0.338752	0.023608
C94	C	1.319752	0.838752	0.523608
N95	N	0.833137	0.095712	-0.198718
N96	N	1.333137	0.595712	0.301282
C97	C	0.861375	0.063633	0.255022
C98	C	1.361375	0.563633	0.755022
C99	C	0.857513	0.068017	0.346138
C100	C	1.357513	0.568017	0.846138
C101	C	0.807895	0.124296	0.395500
C102	C	1.307895	0.624296	0.895500
C103	C	0.762133	0.176188	0.353741
C104	C	1.262133	0.676188	0.853741
C105	C	0.765993	0.171800	0.262627
C106	C	1.265993	0.671800	0.762627
C107	C	0.791235	0.143217	0.668409
C108	C	1.291235	0.643217	1.168409
C109	C	0.787380	0.147603	0.759530
C110	C	1.287380	0.647603	1.259530
C111	C	0.882759	0.039430	0.751920
C112	C	1.382759	0.539430	1.251920
C113	C	0.886617	0.035049	0.660804
C114	C	1.386617	0.535049	1.160804
C115	C	0.840852	0.086939	0.619054
C116	C	1.340852	0.586939	1.119054
N117	N	0.803947	0.128780	0.488635
N118	N	1.303947	0.628780	0.988635
N119	N	0.844798	0.082451	0.525920
N120	N	1.344798	0.582451	1.025920
H121	H	0.174544	0.096108	-0.136090
H122	H	0.674544	0.596108	0.363910
C123	C	0.708223	0.237170	0.407437
C124	C	1.208223	0.737170	0.907437
C125	C	0.663447	0.197552	0.456837
C126	C	1.163447	0.697552	0.956837
C127	C	0.613784	0.253705	0.506319
C128	C	1.113784	0.753705	1.006319
H129	H	0.681450	0.267473	0.369623
H130	H	1.181450	0.767473	0.869623
H131	H	0.731685	0.271825	0.445322
H132	H	1.231685	0.771825	0.945322
H133	H	0.639988	0.162911	0.418956
H134	H	1.139988	0.662911	0.918956
H135	H	0.690200	0.167252	0.494667
H136	H	1.190200	0.667252	0.994667
H137	H	0.637245	0.288360	0.544204
H138	H	1.137245	0.788360	1.044204
H139	H	0.587016	0.284005	0.468499
H140	H	1.087016	0.784005	0.968499
H141	H	0.583402	0.226833	0.539849
H142	H	1.083402	0.726833	1.039849
H143	H	0.042438	0.093894	-0.136259
H144	H	0.542438	0.593894	0.363741
H145	H	0.822793	-0.128343	0.133556
H146	H	1.322793	0.371657	0.633556
H147	H	0.894771	0.025763	0.380132
H148	H	1.394771	0.525763	0.880132
C149	C	0.812564	-0.656857	0.187966
C150	C	1.312564	-0.156857	0.687966
C151	C	0.750695	-0.625338	0.237620
C152	C	1.250695	-0.125338	0.737620
C153	C	0.746693	-0.662869	0.313657
C154	C	1.246693	-0.162869	0.813657
H155	H	0.852002	-0.647953	0.221005
H156	H	1.352002	-0.147953	0.721005
H157	H	0.812366	-0.712606	0.172820
H158	H	1.312366	-0.212606	0.672820
H159	H	0.750899	-0.569602	0.252767
H160	H	1.250899	-0.069602	0.752767
H161	H	0.711246	-0.634241	0.204606
H162	H	1.211246	-0.134241	0.704606
H163	H	0.746495	-0.718618	0.298512
H164	H	1.246495	-0.218618	0.798512
H165	H	0.786135	-0.653963	0.346689
H166	H	1.286135	-0.153963	0.846689
H167	H	0.704713	-0.641494	0.347353
H168	H	1.204713	-0.141494	0.847353
H169	H	0.618541	0.103573	-0.135513
H170	H	1.118541	0.603573	0.364487
C171	C	0.477594	0.100118	-0.157206
C172	C	0.977594	0.600118	0.342794
C173	C	0.528017	0.097572	-0.226252
C174	C	1.028017	0.597572	0.273748
C175	C	0.495120	0.093110	-0.305316
C176	C	0.995120	0.593110	0.194684
H177	H	0.443820	0.145716	-0.157407
H178	H	0.943820	0.645716	0.342593
H179	H	0.454858	0.053207	-0.163807
H180	H	0.954858	0.553207	0.336193
H181	H	0.550742	0.144478	-0.219653
H182	H	1.050742	0.644478	0.280347
H183	H	0.561794	0.051975	-0.226079
H184	H	1.061794	0.551975	0.273921
H185	H	0.472384	0.046199	-0.311917
H186	H	0.972384	0.546199	0.188083
H187	H	0.461347	0.138710	-0.305508
H188	H	0.961347	0.638710	0.194492
H189	H	0.529328	0.091375	-0.352174
H190	H	1.029328	0.591375	0.147826
H191	H	0.901782	0.017808	0.214838
H192	H	1.401782	0.517808	0.714838
H193	H	0.030205	0.107658	0.150058
H194	H	0.530205	0.607658	0.650058
C195	C	0.932405	-0.017045	0.797133
C196	C	1.432405	0.482955	1.297133
C197	C	0.922332	-0.096038	0.769505
C198	C	1.422332	0.403962	1.269505
C199	C	0.968058	-0.148090	0.811128
C200	C	1.468058	0.351910	1.311128
H201	H	0.923049	-0.006484	0.858471
H202	H	1.423049	0.493516	1.358471
H203	H	0.979618	-0.009339	0.782754
H204	H	1.479618	0.490661	1.282754
H205	H	0.875130	-0.103740	0.783890
H206	H	1.375130	0.396260	1.283890
H207	H	0.931693	-0.106623	0.708173
H208	H	1.431693	0.393377	1.208173
H209	H	1.015271	-0.140384	0.796749
H210	H	1.515271	0.359616	1.296749
H211	H	0.958698	-0.137522	0.872465
H212	H	1.458698	0.362478	1.372465
H213	H	0.961234	-0.201692	0.792383
H214	H	1.461234	0.298308	1.292383
C215	C	0.463393	0.115824	0.172004
C216	C	0.963393	0.615824	0.672004
C217	C	0.429539	0.047089	0.171788
C218	C	0.929539	0.547089	0.671788
C219	C	0.389742	0.050081	0.250616
C220	C	0.889742	0.550081	0.750616
H221	H	0.429279	0.161703	0.178569
H222	H	0.929279	0.661703	0.678569
H223	H	0.493483	0.118584	0.219061
H224	H	0.993483	0.618584	0.719061
H225	H	0.399453	0.044336	0.124744
H226	H	0.899453	0.544336	0.624744
H227	H	0.463637	0.001199	0.165237
H228	H	0.963637	0.501199	0.665237
H229	H	0.419831	0.052842	0.297673
H230	H	0.919831	0.552842	0.797673
H231	H	0.355632	0.095963	0.257174
H232	H	0.855632	0.595963	0.757174
H233	H	0.366773	0.003443	0.250483
H234	H	0.866773	0.503443	0.750483
H235	H	0.815502	-0.496583	0.177861
H236	H	1.315502	0.003417	0.677861
H237	H	0.162315	0.109877	0.150231
H238	H	0.662315	0.609877	0.650231
H239	H	0.825929	-0.660408	-0.119007
H240	H	1.325929	-0.160408	0.380993
C241	C	0.940202	-0.026461	0.607306
C242	C	1.440202	0.473539	1.107306
C243	C	0.905149	-0.077373	0.551889
C244	C	1.405149	0.422627	1.051889
C245	C	0.954411	-0.134199	0.502679
C246	C	1.454411	0.365801	1.002679
H247	H	0.966743	-0.056787	0.645307
H248	H	1.466743	0.443213	1.145307
H249	H	0.970850	-0.000142	0.573498
H250	H	1.470850	0.499858	1.073498
H251	H	0.874513	-0.103689	0.585694
H252	H	1.374513	0.396311	1.085694
H253	H	0.878611	-0.047069	0.513870
H254	H	1.378611	0.452931	1.013870
H255	H	0.985059	-0.107881	0.468871
H256	H	1.485059	0.392119	0.968871
H257	H	0.980949	-0.164520	0.540687
H258	H	1.480949	0.335480	1.040687
H259	H	0.930635	-0.168746	0.465067
H260	H	1.430635	0.331254	0.965067
C261	C	0.733426	0.208728	0.812970
C262	C	1.233426	0.708728	1.312970
C263	C	0.694157	0.253215	0.756905
C264	C	1.194157	0.753215	1.256905
C265	C	0.644444	0.309517	0.806101
C266	C	1.144444	0.809517	1.306101
H267	H	0.756818	0.243473	0.850817
H268	H	1.256818	0.743473	1.350817
H269	H	0.702938	0.181993	0.846517
H270	H	1.202938	0.681993	1.346517
H271	H	0.724640	0.279948	0.723372
H272	H	1.224640	0.779948	1.223372
H273	H	0.670749	0.218492	0.719057
H274	H	1.170749	0.718492	1.219057
H275	H	0.613956	0.282782	0.839649
H276	H	1.113956	0.782782	1.339649
H277	H	0.667842	0.344256	0.843947
H278	H	1.167842	0.844256	1.343947
H279	H	0.617790	0.339703	0.768069
H280	H	1.117790	0.839703	1.268069
H281	H	0.606313	0.117365	0.150811
H282	H	1.106313	0.617365	0.650811
H283	H	0.827686	-0.510295	-0.108448
H284	H	1.327686	-0.010295	0.391552
H285	H	0.753972	0.185469	0.634423
H286	H	1.253972	0.685469	1.134423
H287	H	0.833259	-0.292171	-0.163317
H288	H	1.333259	0.207829	0.336683
C289	C	0.819991	-0.288520	0.143728
C290	C	1.319991	0.211480	0.643728
C291	C	0.817653	-0.231260	0.216619
C292	C	1.317653	0.268740	0.716619
C293	C	0.813766	-0.268686	0.292739
C294	C	1.313766	0.231314	0.792739
H295	H	0.860174	-0.326825	0.144430
H296	H	1.360174	0.173175	0.644430
H297	H	0.778744	-0.314434	0.145224
H298	H	1.278744	0.185566	0.645224
H299	H	0.858896	-0.205358	0.215124
H300	H	1.358896	0.294642	0.715124
H301	H	0.777472	-0.192952	0.215946
H302	H	1.277472	0.307048	0.715946
H303	H	0.772520	-0.294600	0.294235
H304	H	1.272520	0.205400	0.794235
H305	H	0.853951	-0.306990	0.293432
H306	H	1.353951	0.193010	0.793432
H307	H	0.812173	-0.229840	0.342205
H308	H	1.312173	0.270160	0.842205
H309	H	0.834998	-0.142043	-0.152757
H310	H	1.334998	0.357957	0.347243
H311	H	0.728731	0.214053	0.228634
H312	H	1.228731	0.714053	0.728634
