data_functionalizedCrystal
_audit_creation_method	'MofGen! by Chris Wilmer'
_symmetry_space_group_name_H-M	'P1'
_symmetry_Int_Tables_number	1
_symmetry_cell_setting	triclinic
loop_
_symmetry_equiv_pos_as_xyz
  x,y,z
_cell_length_a	27.731993
_cell_length_b	18.366186
_cell_length_c	19.288865
_cell_angle_alpha	89.988521
_cell_angle_beta	97.121679
_cell_angle_gamma	89.997513
loop_
_atom_site_label
_atom_site_type_symbol
_atom_site_fract_x
_atom_site_fract_y
_atom_site_fract_z
O1	O	-0.641197	-0.060362	0.082469
O2	O	-0.307863	0.272971	0.415802
O3	O	0.025470	0.606305	0.749135
O4	O	-0.500438	-0.060408	0.095075
O5	O	-0.167104	0.272926	0.428408
O6	O	0.166229	0.606259	0.761742
O7	O	-0.574884	-0.060369	-0.012385
O8	O	-0.241551	0.272964	0.320948
O9	O	0.091782	0.606298	0.654282
O10	O	-0.566750	-0.060400	0.189929
O11	O	-0.233417	0.272933	0.523262
O12	O	0.099917	0.606266	0.856595
O13	O	-0.574872	0.060730	-0.012390
O14	O	-0.241538	0.394064	0.320943
O15	O	0.091795	0.727397	0.654277
O16	O	-0.500425	0.060692	0.095070
O17	O	-0.167092	0.394025	0.428403
O18	O	0.166242	0.727359	0.761737
O19	O	-0.641184	0.060737	0.082464
O20	O	-0.307851	0.394071	0.415797
O21	O	0.025483	0.727404	0.749130
Zn22	Zn	-0.570803	0.079942	0.088766
Zn23	Zn	-0.237469	0.413275	0.422099
Zn24	Zn	0.095864	0.746608	0.755433
Zn25	Zn	-0.570819	-0.079612	0.088773
Zn26	Zn	-0.237486	0.253722	0.422106
Zn27	Zn	0.095848	0.587055	0.755439
O28	O	-0.566737	0.060699	0.189924
O29	O	-0.233404	0.394032	0.523257
O30	O	0.099929	0.727366	0.856590
C31	C	-0.482423	0.000137	0.094814
C32	C	-0.149090	0.333470	0.428147
C33	C	0.184244	0.666803	0.761480
C34	C	-0.428764	0.000120	0.094035
C35	C	-0.095431	0.333453	0.427368
C36	C	0.237902	0.666786	0.760701
C37	C	-0.574616	0.000183	-0.038262
C38	C	-0.241283	0.333516	0.295071
C39	C	0.092050	0.666849	0.628404
C40	C	-0.573831	0.000189	-0.115361
C41	C	-0.240497	0.333522	0.217973
C42	C	0.092836	0.666856	0.551306
C43	C	-0.659199	0.000192	0.082725
C44	C	-0.325865	0.333525	0.416058
C45	C	0.007468	0.666858	0.749392
C46	C	-0.712857	0.000204	0.083504
C47	C	-0.379524	0.333537	0.416837
C48	C	-0.046191	0.666870	0.750171
C49	C	-0.045594	-0.065855	0.088389
C50	C	0.287739	0.267478	0.421723
C51	C	0.621073	0.600811	0.755056
C52	C	-0.247260	-0.065875	0.091359
C53	C	0.086073	0.267458	0.424693
C54	C	0.419406	0.600791	0.758026
O55	O	-0.273340	-0.122017	0.091718
O56	O	0.059993	0.211316	0.425051
O57	O	0.393326	0.544650	0.758385
N58	N	-0.272475	0.000134	0.091728
N59	N	0.060858	0.333468	0.425062
N60	N	0.394192	0.666801	0.758395
C61	C	-0.247270	0.066154	0.091350
C62	C	0.086063	0.399487	0.424683
C63	C	0.419396	0.732820	0.758017
O64	O	-0.273345	0.122299	0.091725
O65	O	0.059989	0.455632	0.425058
O66	O	0.393322	0.788965	0.758391
C67	C	-0.045605	0.066173	0.088375
C68	C	0.287728	0.399506	0.421708
C69	C	0.621061	0.732840	0.755041
C70	C	-0.020393	0.000159	0.088013
C71	C	0.312941	0.333492	0.421346
C72	C	0.646274	0.666826	0.754680
C73	C	-0.020381	-0.131864	0.088027
C74	C	0.312952	0.201469	0.421360
C75	C	0.646285	0.534803	0.754693
C76	C	0.030032	-0.131858	0.087288
C77	C	0.363366	0.201475	0.420621
C78	C	0.696699	0.534808	0.753955
C79	C	0.055234	-0.065844	0.086912
C80	C	0.388567	0.267490	0.420245
C81	C	0.721901	0.600823	0.753579
C82	C	0.030021	0.000165	0.087274
C83	C	0.363355	0.333498	0.420608
C84	C	0.696688	0.666832	0.753941
C85	C	-0.020402	0.132192	0.087991
C86	C	0.312931	0.465525	0.421325
C87	C	0.646265	0.798859	0.754658
C88	C	0.030017	0.132191	0.087246
C89	C	0.363351	0.465524	0.420579
C90	C	0.696684	0.798858	0.753913
C91	C	0.055230	0.066177	0.086884
C92	C	0.388563	0.399510	0.420217
C93	C	0.721897	0.732843	0.753551
C94	C	0.105637	0.066185	0.086160
C95	C	0.438970	0.399518	0.419493
C96	C	0.772303	0.732852	0.752826
N97	N	0.130851	0.000175	0.085791
N98	N	0.464184	0.333509	0.419124
N99	N	0.797518	0.666842	0.752457
C100	C	0.105650	-0.065839	0.086167
C101	C	0.438983	0.267494	0.419500
C102	C	0.772316	0.600828	0.752834
C103	C	-0.353147	0.066139	0.092913
C104	C	-0.019814	0.399472	0.426247
C105	C	0.313520	0.732806	0.759580
C106	C	-0.403563	0.066134	0.093658
C107	C	-0.070230	0.399468	0.426992
C108	C	0.263104	0.732801	0.760325
C109	C	-0.403550	-0.065895	0.093667
C110	C	-0.070216	0.267438	0.427000
C111	C	0.263117	0.600771	0.760333
C112	C	-0.353133	-0.065890	0.092926
C113	C	-0.019799	0.267443	0.426260
C114	C	0.313534	0.600777	0.759593
C115	C	-0.327933	0.000129	0.092545
C116	C	0.005401	0.333462	0.425878
C117	C	0.338734	0.666796	0.759211
C118	C	0.211523	-0.065822	0.084616
C119	C	0.544856	0.267511	0.417950
C120	C	0.878189	0.600844	0.751283
C121	C	0.261941	-0.065811	0.083880
C122	C	0.595275	0.267523	0.417214
C123	C	0.928608	0.600856	0.750547
C124	C	0.261923	0.066218	0.083869
C125	C	0.595257	0.399552	0.417202
C126	C	0.928590	0.732885	0.750535
C127	C	0.211510	0.066207	0.084608
C128	C	0.544843	0.399541	0.417941
C129	C	0.878176	0.732874	0.751275
C130	C	0.186310	0.000181	0.084979
C131	C	0.519644	0.333514	0.418313
C132	C	0.852977	0.666848	0.751646
O133	O	0.131747	0.122297	0.085793
O134	O	0.465080	0.455630	0.419126
O135	O	0.798414	0.788964	0.752459
O136	O	0.131732	-0.121976	0.085777
O137	O	0.465065	0.211358	0.419110
O138	O	0.798398	0.544691	0.752443
C139	C	-0.096008	-0.065861	0.089128
C140	C	0.237325	0.267472	0.422461
C141	C	0.570659	0.600806	0.755795
C142	C	-0.121220	0.000148	0.089490
C143	C	0.212113	0.333481	0.422824
C144	C	0.545446	0.666814	0.756157
C145	C	-0.096019	0.066162	0.089114
C146	C	0.237314	0.399495	0.422448
C147	C	0.570648	0.732829	0.755781
C148	C	-0.171636	0.000143	0.090236
C149	C	0.161697	0.333476	0.423569
C150	C	0.495030	0.666810	0.756902
C151	C	-0.196838	-0.065871	0.090612
C152	C	0.136496	0.267462	0.423945
C153	C	0.469829	0.600795	0.757278
C154	C	-0.171623	-0.131881	0.090243
C155	C	0.161710	0.201452	0.423576
C156	C	0.495043	0.534786	0.756910
C157	C	-0.121209	-0.131875	0.089504
C158	C	0.212124	0.201458	0.422838
C159	C	0.545457	0.534791	0.756171
C160	C	-0.121234	0.132172	0.089483
C161	C	0.212100	0.465505	0.422816
C162	C	0.545433	0.798838	0.756150
C163	C	-0.171648	0.132161	0.090223
C164	C	0.161686	0.465494	0.423556
C165	C	0.495019	0.798827	0.756889
C166	C	-0.196849	0.066146	0.090599
C167	C	0.136484	0.399480	0.423932
C168	C	0.469818	0.732813	0.757265
N169	N	-0.570795	0.188833	0.088761
N170	N	-0.237461	0.522166	0.422094
N171	N	0.095872	0.855500	0.755428
N172	N	-0.570831	-0.188503	0.088772
N173	N	-0.237497	0.144830	0.422106
N174	N	0.095836	0.478164	0.755439
C175	C	-0.603771	0.226950	0.041201
C176	C	-0.270437	0.560284	0.374534
C177	C	0.062896	0.893617	0.707867
C178	C	-0.603774	0.303178	0.041198
C179	C	-0.270440	0.636512	0.374531
C180	C	0.062893	0.969845	0.707864
C181	C	-0.570805	0.341286	0.088767
C182	C	-0.237472	0.674619	0.422100
C183	C	0.095861	1.007952	0.755433
C184	C	-0.537823	0.303159	0.136330
C185	C	-0.204490	0.636492	0.469664
C186	C	0.128843	0.969826	0.802997
C187	C	-0.537818	0.226933	0.136328
C188	C	-0.204485	0.560266	0.469661
C189	C	0.128849	0.893599	0.802994
C190	C	-0.564335	0.462035	0.152097
C191	C	-0.231001	0.795368	0.485430
C192	C	0.102332	1.128702	0.818763
C193	C	-0.564343	0.538260	0.152100
C194	C	-0.231010	0.871593	0.485434
C195	C	0.102323	1.204927	0.818767
C196	C	-0.570819	0.576393	0.088775
C197	C	-0.237486	0.909727	0.422108
C198	C	0.095848	1.243060	0.755442
C199	C	-0.577297	0.538292	0.025443
C200	C	-0.243963	0.871626	0.358777
C201	C	0.089370	1.204959	0.692110
C202	C	-0.577291	0.462066	0.025441
C203	C	-0.243958	0.795399	0.358774
C204	C	0.089375	1.128733	0.692107
C205	C	-0.570807	0.423940	0.088775
C206	C	-0.237474	0.757274	0.422108
C207	C	0.095859	1.090607	0.755441
C208	C	-0.603800	0.697166	0.041208
C209	C	-0.270467	1.030499	0.374541
C210	C	0.062867	1.363832	0.707874
C211	C	-0.603800	0.773395	0.041204
C212	C	-0.270466	1.106728	0.374537
C213	C	0.062867	1.440062	0.707870
C214	C	-0.537852	0.773374	0.136342
C215	C	-0.204519	1.106708	0.469676
C216	C	0.128815	1.440041	0.803009
C217	C	-0.537850	0.697146	0.136340
C218	C	-0.204517	1.030480	0.469674
C219	C	0.128817	1.363813	0.803007
C220	C	-0.570827	0.659047	0.088774
C221	C	-0.237493	0.992380	0.422107
C222	C	0.095840	1.325713	0.755440
C223	C	-0.617513	0.000207	-0.160342
C224	C	-0.284179	0.333540	0.172992
C225	C	0.049154	0.666873	0.506325
C226	C	-0.616775	0.000195	-0.232784
C227	C	-0.283441	0.333528	0.100549
C228	C	0.049892	0.666862	0.433883
C229	C	-0.572352	0.000180	-0.260242
C230	C	-0.239018	0.333513	0.073091
C231	C	0.094315	0.666847	0.406425
C232	C	-0.528664	0.000158	-0.215251
C233	C	-0.195331	0.333492	0.118082
C234	C	0.138003	0.666825	0.451416
C235	C	-0.529403	0.000163	-0.142810
C236	C	-0.196070	0.333496	0.190523
C237	C	0.137263	0.666829	0.523856
C238	C	-0.537426	0.042587	-0.368304
C239	C	-0.204093	0.375921	-0.034970
C240	C	0.129241	0.709254	0.298363
C241	C	-0.536688	0.042587	-0.440743
C242	C	-0.203355	0.375921	-0.107410
C243	C	0.129978	0.709254	0.225923
C244	C	-0.570069	0.000163	-0.483673
C245	C	-0.236736	0.333496	-0.150339
C246	C	0.096597	0.666830	0.182994
C247	C	-0.604196	-0.042252	-0.454155
C248	C	-0.270863	0.291081	-0.120822
C249	C	0.062470	0.624415	0.212511
C250	C	-0.604936	-0.042247	-0.381715
C251	C	-0.271602	0.291086	-0.048381
C252	C	0.061731	0.624419	0.284952
C253	C	-0.571545	0.000175	-0.338791
C254	C	-0.238212	0.333508	-0.005457
C255	C	0.095122	0.666841	0.327876
C256	C	-0.612954	0.000167	-0.607204
C257	C	-0.279621	0.333500	-0.273871
C258	C	0.053713	0.666834	0.059462
C259	C	-0.612214	0.000151	-0.679648
C260	C	-0.278881	0.333484	-0.346314
C261	C	0.054453	0.666817	-0.012981
C262	C	-0.524102	0.000121	-0.662113
C263	C	-0.190769	0.333455	-0.328780
C264	C	0.142564	0.666788	0.004554
C265	C	-0.524844	0.000130	-0.589672
C266	C	-0.191510	0.333464	-0.256338
C267	C	0.141823	0.666797	0.076995
C268	C	-0.569271	0.000157	-0.562222
C269	C	-0.235937	0.333490	-0.228888
C270	C	0.097396	0.666823	0.104445
C271	C	-0.567005	0.000146	0.215801
C272	C	-0.233672	0.333479	0.549134
C273	C	0.099661	0.666812	0.882468
C274	C	-0.567791	0.000135	0.292899
C275	C	-0.234458	0.333468	0.626233
C276	C	0.098876	0.666801	0.959566
H277	H	0.191011	-0.119587	0.084920
H278	H	0.524345	0.213746	0.418253
H279	H	0.857678	0.547080	0.751586
N280	N	0.055759	0.199630	0.086874
N281	N	0.389092	0.532964	0.420207
N282	N	0.722426	0.866297	0.753540
N283	N	0.088453	0.214361	0.135442
N284	N	0.421787	0.547694	0.468776
N285	N	0.755120	0.881027	0.802109
H286	H	0.106633	0.261990	0.135183
H287	H	0.439966	0.595323	0.468516
H288	H	0.773300	0.928656	0.801850
H289	H	-0.647787	0.000161	-0.716271
H290	H	-0.314453	0.333494	-0.382938
H291	H	0.018880	0.666828	-0.049605
N292	N	-0.658332	0.000202	-0.579158
N293	N	-0.324999	0.333535	-0.245824
N294	N	0.008335	0.666868	0.087509
N295	N	-0.687740	0.051259	-0.593130
N296	N	-0.354407	0.384593	-0.259797
N297	N	-0.021074	0.717926	0.073537
H298	H	-0.719789	0.051286	-0.573323
H299	H	-0.386455	0.384619	-0.239989
H300	H	-0.053122	0.717952	0.093344
N301	N	-0.504162	0.658217	0.184928
N302	N	-0.170829	0.991551	0.518261
N303	N	0.162504	1.324884	0.851594
N304	N	-0.474726	0.692247	0.227395
N305	N	-0.141393	1.025580	0.560728
N306	N	0.191940	1.358914	0.894062
H307	H	-0.450931	0.664754	0.261711
H308	H	-0.117598	0.998088	0.595044
H309	H	0.215735	1.331421	0.928377
H310	H	-0.332634	0.119903	0.092600
H311	H	0.000699	0.453236	0.425933
H312	H	0.334033	0.786569	0.759267
N313	N	0.287688	-0.133252	0.083516
N314	N	0.621021	0.200081	0.416849
N315	N	0.954354	0.533415	0.750182
N316	N	0.265176	-0.192187	0.083851
N317	N	0.598510	0.141146	0.417184
N318	N	0.931843	0.474480	0.750518
H319	H	0.283358	-0.239817	0.083593
H320	H	0.616691	0.093516	0.416926
H321	H	0.950024	0.426850	0.750260
N322	N	-0.480223	0.000107	-0.543720
N323	N	-0.146889	0.333440	-0.210387
N324	N	0.186444	0.666774	0.122946
N325	N	-0.450649	-0.050951	-0.545929
N326	N	-0.117315	0.282382	-0.212596
N327	N	0.216018	0.615715	0.120738
H328	H	-0.419133	-0.050971	-0.513476
H329	H	-0.085799	0.282362	-0.180142
H330	H	0.247534	0.615696	0.153191
H331	H	-0.632722	-0.076784	-0.357684
H332	H	-0.299389	0.256549	-0.024351
H333	H	0.033945	0.589882	0.308982
N334	N	-0.583891	0.423147	-0.039246
N335	N	-0.250558	0.756480	0.294087
N336	N	0.082775	1.089813	0.627421
N337	N	-0.551629	0.380622	-0.054507
N338	N	-0.218296	0.713955	0.278827
N339	N	0.115037	1.047289	0.612160
H340	H	-0.556288	0.353135	-0.100193
H341	H	-0.222954	0.686468	0.233141
H342	H	0.110379	1.019802	0.566474
N343	N	-0.501844	0.085944	-0.470883
N344	N	-0.168510	0.419277	-0.137550
N345	N	0.164823	0.752610	0.195784
N346	N	-0.472046	0.123828	-0.432549
N347	N	-0.138713	0.457161	-0.099216
N348	N	0.194620	0.790494	0.234117
H349	H	-0.447441	0.154459	-0.453834
H350	H	-0.114108	0.487792	-0.120501
H351	H	0.219226	0.821125	0.212832
N352	N	-0.583905	0.577245	-0.039242
N353	N	-0.250571	0.910578	0.294092
N354	N	0.082762	1.243911	0.627425
N355	N	-0.583900	0.645303	-0.039233
N356	N	-0.250566	0.978637	0.294100
N357	N	0.082767	1.311970	0.627433
H358	H	-0.588564	0.672818	-0.084915
H359	H	-0.255231	1.006151	0.248418
H360	H	0.078102	1.339484	0.581751
H361	H	-0.652347	0.000206	-0.269415
H362	H	-0.319013	0.333540	0.063919
H363	H	0.014320	0.666873	0.397252
N364	N	-0.197379	-0.199308	0.090616
N365	N	0.135954	0.134025	0.423950
N366	N	0.469288	0.467359	0.757283
N367	N	-0.230077	-0.214019	0.042046
N368	N	0.103256	0.119314	0.375380
N369	N	0.436589	0.452647	0.708713
H370	H	-0.248270	-0.261637	0.042305
H371	H	0.085063	0.071697	0.375638
H372	H	0.418396	0.405030	0.708972
H373	H	-0.192171	0.185921	0.090523
H374	H	0.141163	0.519255	0.423856
H375	H	0.474496	0.852588	0.757189
N376	N	-0.638299	-0.085578	-0.498008
N377	N	-0.304966	0.247756	-0.164675
N378	N	0.028367	0.581089	0.168659
N379	N	-0.637636	-0.085577	-0.562686
N380	N	-0.304303	0.247757	-0.229352
N381	N	0.029030	0.581090	0.103981
H382	H	-0.661723	-0.116170	-0.593661
H383	H	-0.328389	0.217163	-0.260328
H384	H	0.004944	0.550496	0.073006
H385	H	-0.630627	0.334219	0.002467
H386	H	-0.297294	0.667553	0.335800
H387	H	0.036039	1.000886	0.669134
N388	N	-0.478729	0.000098	-0.690163
N389	N	-0.145396	0.333431	-0.356830
N390	N	0.187937	0.666764	-0.023496
N391	N	-0.478074	0.000090	-0.754842
N392	N	-0.144741	0.333423	-0.421509
N393	N	0.188593	0.666756	-0.088176
H394	H	-0.446028	0.000070	-0.774657
H395	H	-0.112695	0.333403	-0.441323
H396	H	0.220639	0.666737	-0.107990
N397	N	-0.095504	0.199616	0.089112
N398	N	0.237829	0.532950	0.422445
N399	N	0.571163	0.866283	0.755778
N400	N	-0.096583	0.243801	0.138176
N401	N	0.236750	0.577135	0.471509
N402	N	0.570084	0.910468	0.804843
H403	H	-0.078414	0.291440	0.137918
H404	H	0.254920	0.624773	0.471252
H405	H	0.588253	0.958106	0.804585
H406	H	0.050556	-0.185614	0.086990
H407	H	0.383889	0.147720	0.420324
H408	H	0.717222	0.481053	0.753657
N409	N	-0.637426	0.658254	-0.007469
N410	N	-0.304092	0.991587	0.325865
N411	N	0.029241	1.324920	0.659198
N412	N	-0.666824	0.692301	-0.049993
N413	N	-0.333491	1.025634	0.283340
N414	N	-0.000157	1.358967	0.616673
H415	H	-0.690550	0.664821	-0.084404
H416	H	-0.357217	0.998155	0.248929
H417	H	-0.023884	1.331488	0.582262
H418	H	-0.630651	0.804431	0.002471
H419	H	-0.297318	1.137764	0.335804
H420	H	0.036015	1.471097	0.669137
H421	H	-0.510242	0.077138	-0.333355
H422	H	-0.176909	0.410471	-0.000022
H423	H	0.156425	0.743805	0.333311
N424	N	-0.557724	0.423098	0.216793
N425	N	-0.224391	0.756431	0.550126
N426	N	0.108943	1.089765	0.883460
N427	N	-0.551952	0.457122	0.273332
N428	N	-0.218619	0.790455	0.606665
N429	N	0.114714	1.123789	0.939998
H430	H	-0.547287	0.429624	0.319023
H431	H	-0.213953	0.762958	0.652356
H432	H	0.119380	1.096291	0.985689
H433	H	-0.511007	0.804401	0.175071
H434	H	-0.177673	1.137734	0.508405
H435	H	0.155660	1.471067	0.841738
N436	N	-0.557733	0.577164	0.216795
N437	N	-0.224400	0.910497	0.550128
N438	N	0.108933	1.243831	0.883461
N439	N	-0.551947	0.543111	0.273330
N440	N	-0.218613	0.876444	0.606664
N441	N	0.114720	1.209777	0.939997
H442	H	-0.547279	0.570585	0.319023
H443	H	-0.213946	0.903918	0.652357
H444	H	0.119388	1.237251	0.985690
H445	H	-0.040895	-0.185624	0.088331
H446	H	0.292438	0.147710	0.421664
H447	H	0.625771	0.481043	0.754998
N448	N	-0.327388	-0.133327	0.092558
N449	N	0.005945	0.200006	0.425891
N450	N	0.339278	0.533339	0.759224
N451	N	-0.349901	-0.192260	0.092897
N452	N	-0.016568	0.141073	0.426231
N453	N	0.316765	0.474406	0.759564
H454	H	-0.331722	-0.239892	0.092636
H455	H	0.001611	0.093441	0.425969
H456	H	0.334945	0.426775	0.759302
H457	H	0.190982	0.119961	0.084916
H458	H	0.524315	0.453295	0.418250
H459	H	0.857648	0.786628	0.751583
N460	N	-0.483291	0.000137	-0.243307
N461	N	-0.149958	0.333470	0.090027
N462	N	0.183375	0.666803	0.423360
N463	N	-0.482637	0.000133	-0.307986
N464	N	-0.149303	0.333466	0.025347
N465	N	0.184030	0.666800	0.358681
H466	H	-0.450591	0.000114	-0.327801
H467	H	-0.117258	0.333448	0.005532
H468	H	0.216076	0.666781	0.338866
N469	N	-0.046141	0.199631	0.088352
N470	N	0.287193	0.532965	0.421685
N471	N	0.620526	0.866298	0.755018
N472	N	-0.023625	0.258561	0.088003
N473	N	0.309708	0.591895	0.421336
N474	N	0.643042	0.925228	0.754670
H475	H	-0.041802	0.306196	0.088252
H476	H	0.291531	0.639529	0.421586
H477	H	0.624864	0.972862	0.754919
H478	H	-0.424077	-0.119647	0.093975
H479	H	-0.090744	0.213686	0.427308
H480	H	0.242590	0.547020	0.760642
N481	N	-0.429321	0.133559	0.094043
N482	N	-0.095987	0.466892	0.427376
N483	N	0.237346	0.800226	0.760710
N484	N	-0.452887	0.148282	0.143437
N485	N	-0.119553	0.481615	0.476770
N486	N	0.213780	0.814949	0.810104
H487	H	-0.471078	0.195902	0.143706
H488	H	-0.137744	0.529236	0.477040
H489	H	0.195589	0.862569	0.810373
N490	N	-0.484777	0.000141	-0.096869
N491	N	-0.151443	0.333474	0.236464
N492	N	0.181890	0.666807	0.569798
N493	N	-0.445115	0.000120	-0.121389
N494	N	-0.111782	0.333453	0.211944
N495	N	0.221551	0.666787	0.545277
H496	H	-0.413597	0.000105	-0.088943
H497	H	-0.080263	0.333438	0.244391
H498	H	0.253070	0.666772	0.577724
H499	H	-0.100686	-0.185631	0.089210
H500	H	0.232648	0.147702	0.422543
H501	H	0.565981	0.481036	0.755876
N502	N	0.287673	0.133647	0.083495
N503	N	0.621006	0.466980	0.416828
N504	N	0.954339	0.800314	0.750162
N505	N	0.320372	0.148373	0.132058
N506	N	0.653706	0.481706	0.465392
N507	N	0.987039	0.815039	0.798725
H508	H	0.338559	0.195995	0.131791
H509	H	0.671892	0.529328	0.465124
H510	H	1.005226	0.862662	0.798458
N511	N	-0.637498	0.188045	-0.007332
N512	N	-0.304164	0.521379	0.326001
N513	N	0.029169	0.854712	0.659334
N514	N	-0.666966	0.222094	-0.049756
N515	N	-0.333632	0.555428	0.283577
N516	N	-0.000299	0.888761	0.616911
H517	H	-0.690801	0.194617	-0.084012
H518	H	-0.357468	0.527950	0.249322
H519	H	-0.024135	0.861283	0.582655
N520	N	-0.662893	0.000240	-0.132305
N521	N	-0.329560	0.333573	0.201028
N522	N	0.003774	0.666907	0.534361
N523	N	-0.692301	0.051299	-0.146277
N524	N	-0.358967	0.384632	0.187056
N525	N	-0.025634	0.717965	0.520390
H526	H	-0.724351	0.051322	-0.126475
H527	H	-0.391018	0.384655	0.206858
H528	H	-0.057684	0.717989	0.540191
N529	N	-0.504141	0.342082	0.184911
N530	N	-0.170807	0.675415	0.518245
N531	N	0.162526	1.008749	0.851578
N532	N	-0.474191	0.384625	0.163175
N533	N	-0.140857	0.717959	0.496508
N534	N	0.192476	1.051292	0.829842
H535	H	-0.450399	0.412115	0.197484
H536	H	-0.117066	0.745448	0.530817
H537	H	0.216268	1.078781	0.864151
N538	N	-0.504128	0.188004	0.184914
N539	N	-0.170795	0.521337	0.518248
N540	N	0.162539	0.854671	0.851581
N541	N	-0.474691	0.222033	0.227380
N542	N	-0.141357	0.555366	0.560714
N543	N	0.191976	0.888699	0.894047
H544	H	-0.450896	0.194539	0.261697
H545	H	-0.117563	0.527872	0.595030
H546	H	0.215770	0.861205	0.928363
