data_functionalizedCrystal
_audit_creation_method	'MofGen! by Chris Wilmer'
_symmetry_space_group_name_H-M	'P1'
_symmetry_Int_Tables_number	1
_symmetry_cell_setting	triclinic
loop_
_symmetry_equiv_pos_as_xyz
  x,y,z
_cell_length_a	19.188925
_cell_length_b	19.188930
_cell_length_c	9.565339
_cell_angle_alpha	89.995116
_cell_angle_beta	89.995513
_cell_angle_gamma	83.143665
loop_
_atom_site_label
_atom_site_type_symbol
_atom_site_fract_x
_atom_site_fract_y
_atom_site_fract_z
O1	O	0.926147	0.087144	-0.116306
O2	O	0.722835	0.098883	-0.116304
O3	O	0.830358	-0.008642	-0.116278
O4	O	0.818624	0.194669	-0.116332
O5	O	0.830350	-0.008635	0.116243
O6	O	0.722827	0.098889	0.116216
O7	O	0.926138	0.087151	0.116214
Zn8	Zn	0.824481	0.093021	0.153133
Zn9	Zn	0.824492	0.093012	-0.153222
O10	O	0.818615	0.194676	0.116188
C11	C	0.696820	0.098507	-0.000043
C12	C	0.619315	0.097367	-0.000041
C13	C	0.057545	0.152831	-0.000060
C14	C	0.130368	0.153908	-0.000067
C15	C	0.175302	0.090816	-0.000048
C16	C	0.147408	0.026642	-0.000057
C17	C	0.074586	0.025568	-0.000063
N18	N	0.295977	0.045142	0.079116
N19	N	0.365154	0.046167	0.079125
C20	C	0.394712	0.094050	-0.000032
N21	N	0.352477	0.140879	-0.079181
N22	N	0.283293	0.139856	-0.079184
C23	C	0.254267	0.091974	-0.000042
C24	C	0.501561	0.159386	-0.000042
C25	C	0.574385	0.160460	-0.000059
C26	C	0.591425	0.033193	-0.000034
C27	C	0.518601	0.032121	-0.000031
C28	C	0.473673	0.095220	-0.000029
C29	C	0.829974	-0.034650	-0.000013
C30	C	0.828833	-0.112154	-0.000001
C31	C	0.891924	-0.157079	0.000005
C32	C	0.890852	-0.229903	-0.000018
C33	C	0.826686	-0.257799	-0.000018
C34	C	0.763587	-0.212864	-0.000032
C35	C	0.764660	-0.140041	-0.000024
N36	N	0.777636	-0.365800	0.079113
N37	N	0.776620	-0.434979	0.079108
C38	C	0.823448	-0.477207	-0.000046
N39	N	0.871340	-0.447645	-0.079178
N40	N	0.872358	-0.378460	-0.079167
C41	C	0.825515	-0.336761	-0.000028
C42	C	0.885381	-0.601097	-0.000067
C43	C	0.884307	-0.673922	-0.000098
C44	C	0.757040	-0.656880	-0.000098
C45	C	0.758116	-0.584057	-0.000081
C46	C	0.822289	-0.556170	-0.000059
C47	C	0.952154	0.087527	-0.000049
C48	C	1.029658	0.088666	-0.000060
C49	C	0.819000	0.220684	-0.000079
C50	C	0.820140	0.298188	-0.000100
N51	N	0.824479	0.093027	0.362212
N52	N	0.824500	0.093001	-0.362302
C53	C	0.774738	0.142737	0.453403
C54	C	0.837790	0.156091	0.546577
C55	C	0.761454	0.079678	0.546594
C56	C	0.887562	0.106412	0.453334
C57	C	0.811185	0.029972	0.453343
C58	C	0.874282	0.043299	0.546475
H59	H	0.628010	-0.018178	-0.000029
F60	F	0.695297	-0.242553	-0.000042
H61	H	0.464978	0.210765	-0.000043
F62	F	0.796443	-0.039690	0.399769
H63	H	0.495896	-0.020129	-0.000024
F64	F	0.852507	0.225774	0.600107
F65	F	0.691777	0.064934	0.600141
H66	H	0.937635	-0.578390	-0.000055
H67	H	0.020968	0.204211	-0.000064
F68	F	0.957256	0.121237	0.400022
H69	H	0.153078	0.206160	-0.000054
F70	F	0.195232	-0.040505	-0.000041
H71	H	0.051883	-0.026685	-0.000064
F72	F	0.960223	-0.127404	-0.000002
H73	H	0.916402	0.001247	0.587084
F74	F	0.958005	-0.277725	-0.000013
F75	F	0.697507	-0.092227	-0.000031
H76	H	0.935686	-0.710500	-0.000100
F77	F	0.688749	-0.686564	-0.000106
H78	H	0.597088	0.212713	-0.000070
H79	H	0.706740	-0.547478	-0.000078
F80	F	0.719807	0.197732	0.399982
