data_functionalizedCrystal
_audit_creation_method	'MofGen! by Chris Wilmer'
_symmetry_space_group_name_H-M	'P1'
_symmetry_Int_Tables_number	1
_symmetry_cell_setting	triclinic
loop_
_symmetry_equiv_pos_as_xyz
  x,y,z
_cell_length_a	15.538191
_cell_length_b	15.995350
_cell_length_c	14.185569
_cell_angle_alpha	76.847063
_cell_angle_beta	97.875798
_cell_angle_gamma	65.382234
loop_
_atom_site_label
_atom_site_type_symbol
_atom_site_fract_x
_atom_site_fract_y
_atom_site_fract_z
O1	O	1.228538	-0.246460	-0.083440
O2	O	0.954280	-0.149782	-0.083436
O3	O	1.098906	-0.322287	-0.083437
O4	O	1.083912	-0.073955	-0.083439
O5	O	1.141630	-0.373243	0.083397
O6	O	0.997004	-0.200737	0.083399
O7	O	1.271262	-0.297416	0.083394
Cu8	Cu	1.138034	-0.253729	0.098629
Cu9	Cu	1.087508	-0.193468	-0.098671
O10	O	1.126635	-0.124910	0.083395
C11	C	0.940547	-0.165144	-0.000018
C12	C	0.835973	-0.135015	-0.000016
C13	C	0.548179	-0.434345	-0.000030
C14	C	0.449913	-0.406012	-0.000031
C15	C	0.427470	-0.246646	-0.000032
C16	C	0.525737	-0.274967	-0.000026
C17	C	0.586085	-0.368817	-0.000026
C18	C	0.563643	-0.209439	-0.000022
C19	C	0.661900	-0.237757	-0.000021
C20	C	0.722252	-0.331602	-0.000025
C21	C	0.684342	-0.397135	-0.000026
C22	C	0.503292	-0.115587	-0.000029
C23	C	0.541197	-0.050060	-0.000025
C24	C	0.639458	-0.078379	-0.000017
C25	C	0.699811	-0.172225	-0.000021
C26	C	0.677369	-0.012847	-0.000016
C27	C	0.775626	-0.041165	-0.000016
C28	C	0.798068	-0.200542	-0.000020
C29	C	1.119648	-0.378771	-0.000022
C30	C	1.117788	-0.471155	-0.000028
C31	C	1.111115	-0.806875	-0.000024
C32	C	1.008019	-0.728023	-0.000397
C33	C	1.009974	-0.632013	-0.000021
C34	C	1.114425	-0.640320	-0.000026
C35	C	1.189625	-0.725935	0.095241
C36	C	1.187058	-0.821808	0.095321
C37	C	1.140601	-0.764867	-0.094401
C38	C	1.140254	-0.667530	-0.095660
C39	C	1.116302	-0.546193	-0.000024
C40	C	1.109243	-0.901005	-0.000019
C41	C	1.284995	-0.282052	-0.000026
C42	C	1.389566	-0.312180	-0.000034
C43	C	1.105893	-0.068426	-0.000022
C44	C	1.107752	0.023960	-0.000023
N45	N	1.173578	-0.296116	0.237400
N46	N	1.051971	-0.151090	-0.237442
C47	C	0.947543	-0.026594	0.605052
C48	C	0.974474	-0.058698	0.710074
C49	C	1.102566	-0.211417	0.710033
C50	C	1.075643	-0.179328	0.605010
C51	C	0.998131	-0.086915	0.552528
C52	C	1.126231	-0.239649	0.552485
C53	C	1.099314	-0.207560	0.447471
C54	C	1.021807	-0.115150	0.394981
C55	C	0.971214	-0.054826	0.447514
C56	C	1.203747	-0.332059	0.604969
C57	C	1.254336	-0.392380	0.552445
C58	C	1.227413	-0.360294	0.447428
C59	C	1.149907	-0.267884	0.394939
C60	C	1.278007	-0.420618	0.394896
C61	C	1.251089	-0.388529	0.289882
C62	C	1.122989	-0.235795	0.289925
H63	H	0.492049	0.026355	-0.000029
C64	C	1.241554	-0.837844	-0.095330
C65	C	1.239823	-0.923888	-0.098964
C66	C	1.332796	-0.991137	-0.099827
H67	H	1.288361	-0.850835	-0.036251
H68	H	1.258981	-0.812106	-0.152545
H69	H	1.222408	-0.949622	-0.041754
H70	H	1.193035	-0.910929	-0.158039
H71	H	1.350224	-0.965399	-0.157043
H72	H	1.379597	-1.004119	-0.040748
H73	H	1.331632	-1.049522	-0.102302
H74	H	0.952551	-0.570596	-0.068312
C75	C	1.289286	-0.897345	0.101052
C76	C	1.287745	-0.984264	0.101149
C77	C	1.381897	-1.053863	0.106425
H78	H	1.333719	-0.907970	0.160901
H79	H	1.309759	-0.874977	0.044698
H80	H	1.267285	-1.006628	0.157497
H81	H	1.243332	-0.973671	0.041305
H82	H	1.402370	-1.031495	0.050071
H83	H	1.426322	-1.064479	0.166274
H84	H	1.380862	-1.112842	0.106482
C85	C	0.919382	0.006919	0.766921
C86	C	0.845724	0.094704	0.698477
C87	C	0.794946	0.155166	0.750807
H88	H	0.963648	0.019094	0.807888
H89	H	0.890618	-0.023787	0.807869
H90	H	0.874487	0.125405	0.657546
H91	H	0.801436	0.082560	0.657508
H92	H	0.766182	0.124460	0.791756
H93	H	0.839220	0.167332	0.791773
H94	H	0.744958	0.214731	0.704377
C95	C	0.976622	-0.765382	0.090156
C96	C	0.970772	-0.849677	0.086628
C97	C	0.941870	-0.884129	0.170037
H98	H	0.914258	-0.717411	0.089454
H99	H	1.023366	-0.779560	0.149839
H100	H	0.924030	-0.835495	0.026961
H101	H	1.033126	-0.897668	0.087344
H102	H	0.988614	-0.898308	0.229719
H103	H	0.879507	-0.836152	0.169327
H104	H	0.937906	-0.941332	0.167659
H105	H	1.059865	-0.160547	0.247192
H106	H	0.597319	-0.510769	-0.000024
H107	H	1.165679	-0.286660	0.752776
C108	C	1.232803	-0.366930	0.718986
C109	C	1.152906	-0.367544	0.753756
C110	C	1.179639	-0.399675	0.858782
H111	H	1.251751	-0.324629	0.742872
H112	H	1.286181	-0.430625	0.742759
H113	H	1.099545	-0.303859	0.729994
H114	H	1.133947	-0.409848	0.729898
H115	H	1.233017	-0.463370	0.882554
H116	H	1.198588	-0.357370	0.882658
H117	H	1.125437	-0.400104	0.882386
C118	C	0.887059	0.045559	0.390704
C119	C	0.848523	0.091531	0.459176
C120	C	0.771012	0.184007	0.406880
H121	H	0.837264	0.039973	0.349741
H122	H	0.910423	0.082700	0.349753
H123	H	0.825156	0.054399	0.500109
H124	H	0.898292	0.097143	0.500141
H125	H	0.794377	0.221148	0.365929
H126	H	0.721225	0.178412	0.365919
H127	H	0.744862	0.215214	0.453330
C128	C	0.408954	-0.477319	0.000015
C129	C	0.482843	-0.565572	0.000036
C130	C	0.445150	-0.631283	0.000086
H131	H	0.356211	-0.451940	-0.058150
H132	H	0.386020	-0.487418	0.058215
H133	H	0.505763	-0.555471	-0.058159
H134	H	0.535591	-0.590979	0.058196
H135	H	0.422216	-0.641383	0.058287
H136	H	0.392407	-0.605895	-0.058079
H137	H	0.495280	-0.691173	0.000110
C138	C	1.239740	-0.675336	-0.103504
C139	C	1.228220	-0.608150	-0.193179
C140	C	1.319840	-0.615282	-0.200425
H141	H	1.281896	-0.738938	-0.102770
H142	H	1.267543	-0.662127	-0.048324
H143	H	1.200431	-0.621365	-0.248345
H144	H	1.186081	-0.544539	-0.193933
H145	H	1.347643	-0.602074	-0.145245
H146	H	1.361989	-0.678887	-0.199688
H147	H	1.312035	-0.569693	-0.261265
C148	C	0.979552	-0.606275	0.091075
C149	C	0.895537	-0.516175	0.059496
C150	C	0.867478	-0.492444	0.143390
H151	H	1.031236	-0.603162	0.131938
H152	H	0.965806	-0.654406	0.128536
H153	H	0.909287	-0.468056	0.022052
H154	H	0.843834	-0.519264	0.018644
H155	H	0.853732	-0.540574	0.180851
H156	H	0.919168	-0.489336	0.184247
H157	H	0.810466	-0.431314	0.121976
C158	C	1.293187	-0.739656	0.100180
C159	C	1.330148	-0.727149	0.188738
C160	C	1.425550	-0.739792	0.193326
H161	H	1.292179	-0.693279	0.044068
H162	H	1.333847	-0.803106	0.099351
H163	H	1.289499	-0.663707	0.189558
H164	H	1.331180	-0.773522	0.244865
H165	H	1.466210	-0.803243	0.192497
H166	H	1.424532	-0.693414	0.137210
H167	H	1.450643	-0.731317	0.253416
H168	H	1.317449	-0.467622	0.595188
H169	H	0.628218	0.063569	-0.000026
C170	C	1.166806	-0.702869	0.189865
C171	C	1.146644	-0.773300	0.246291
C172	C	1.125625	-0.752090	0.333467
H173	H	1.111367	-0.640973	0.172142
H174	H	1.221677	-0.702620	0.228462
H175	H	1.091778	-0.773539	0.207702
H176	H	1.202070	-0.835203	0.264040
H177	H	1.180496	-0.751841	0.372064
H178	H	1.070188	-0.690192	0.315734
H179	H	1.111951	-0.799878	0.371767
H180	H	0.806491	0.012192	-0.000004
C181	C	0.929920	-0.708401	-0.091520
C182	C	0.972996	-0.766787	-0.148998
C183	C	0.901078	-0.748753	-0.232942
H184	H	0.900890	-0.642118	-0.130863
H185	H	0.880950	-0.722863	-0.070124
H186	H	1.021949	-0.752317	-0.170394
H187	H	1.002021	-0.833074	-0.109685
H188	H	0.852107	-0.763215	-0.211547
H189	H	0.872052	-0.682469	-0.272277
H190	H	0.930293	-0.788371	-0.271947
H191	H	1.168250	-0.850603	0.166539
C192	C	1.362104	-0.520932	0.452065
C193	C	1.374839	-0.536129	0.555275
C194	C	1.452293	-0.628532	0.607968
H195	H	1.420625	-0.525752	0.434955
H196	H	1.347474	-0.568489	0.434919
H197	H	1.389475	-0.488585	0.572413
H198	H	1.316339	-0.531328	0.572415
H199	H	1.437662	-0.676089	0.590822
H200	H	1.510807	-0.633344	0.590849
H201	H	1.460937	-0.638859	0.678000
C202	C	1.066650	-0.587516	-0.189674
C203	C	1.018561	-0.625262	-0.244600
C204	C	0.950743	-0.551574	-0.331204
H205	H	1.099953	-0.562204	-0.229554
H206	H	1.019948	-0.537241	-0.171277
H207	H	1.065255	-0.675520	-0.262999
H208	H	0.985238	-0.650567	-0.204750
H209	H	0.904041	-0.501299	-0.312807
H210	H	0.984055	-0.526266	-0.371075
H211	H	0.918100	-0.577172	-0.368478
C212	C	0.992779	-0.080372	0.280964
C213	C	1.072692	-0.079811	0.246191
C214	C	1.045991	-0.047791	0.141166
H215	H	0.939412	-0.016686	0.257102
H216	H	0.973841	-0.122733	0.257170
H217	H	1.091616	-0.037451	0.269975
H218	H	1.126067	-0.143486	0.270025
H219	H	1.027054	-0.090152	0.117372
H220	H	0.992623	0.015893	0.117314
H221	H	1.100210	-0.047415	0.117558
H222	H	1.088433	-0.753118	-0.166608
H223	H	0.884419	0.048654	0.562320
H224	H	0.847208	-0.276967	-0.000014
H225	H	0.802256	-0.354653	-0.000038
C226	C	1.306097	-0.454180	0.233029
C227	C	1.379721	-0.541989	0.301466
C228	C	1.430409	-0.602495	0.249129
H229	H	1.334892	-0.423559	0.192050
H230	H	1.261742	-0.466296	0.192091
H231	H	1.424069	-0.529872	0.342386
H232	H	1.350952	-0.572638	0.342447
H233	H	1.386054	-0.614611	0.208192
H234	H	1.459198	-0.571865	0.208152
H235	H	1.480362	-0.662084	0.295556
H236	H	0.733482	-0.473559	-0.000020
H237	H	0.378322	-0.170231	-0.000036
H238	H	0.423285	-0.092533	-0.000032
