data_functionalizedCrystal
_audit_creation_method	'MofGen! by Chris Wilmer'
_symmetry_space_group_name_H-M	'P1'
_symmetry_Int_Tables_number	1
_symmetry_cell_setting	triclinic
loop_
_symmetry_equiv_pos_as_xyz
  x,y,z
_cell_length_a	17.699104
_cell_length_b	17.699083
_cell_length_c	16.176319
_cell_angle_alpha	89.992304
_cell_angle_beta	89.991696
_cell_angle_gamma	83.287266
loop_
_atom_site_label
_atom_site_type_symbol
_atom_site_fract_x
_atom_site_fract_y
_atom_site_fract_z
O1	O	1.004069	0.095788	-0.068765
O2	O	1.504069	0.595788	0.431235
O3	O	0.783693	0.108224	-0.068763
O4	O	1.283693	0.608224	0.431237
O5	O	0.900107	-0.008183	-0.068757
O6	O	1.400107	0.491817	0.431243
O7	O	0.887655	0.212195	-0.068771
O8	O	1.387655	0.712195	0.431229
O9	O	0.900091	-0.008190	0.068736
O10	O	1.400091	0.491810	0.568736
O11	O	0.783677	0.108217	0.068730
O12	O	1.283677	0.608217	0.568730
O13	O	1.004053	0.095781	0.068728
O14	O	1.504053	0.595781	0.568728
Cu15	Cu	0.893863	0.101998	0.081283
Cu16	Cu	1.393863	0.601998	0.581283
Cu17	Cu	0.893882	0.102007	-0.081318
Cu18	Cu	1.393882	0.602007	0.418682
O19	O	0.887639	0.212187	0.068722
O20	O	1.387639	0.712187	0.568722
C21	C	0.755488	0.107772	-0.000016
C22	C	1.255488	0.607772	0.499984
C23	C	0.671471	0.106427	-0.000015
C24	C	1.171471	0.606427	0.499985
C25	C	0.146600	0.167171	-0.000028
C26	C	0.646600	0.667171	0.499972
C27	C	0.225543	0.168430	-0.000030
C28	C	0.725543	0.668430	0.499970
C29	C	0.274161	0.100095	-0.000026
C30	C	0.774161	0.600095	0.499974
C31	C	0.243831	0.030496	-0.000027
C32	C	0.743831	0.530496	0.499973
C33	C	0.164889	0.029238	-0.000030
C34	C	0.664889	0.529238	0.499970
C35	C	0.562197	0.035569	-0.000014
C36	C	1.062197	0.535569	0.499986
C37	C	0.641144	0.036833	-0.000008
C38	C	1.141144	0.536833	0.499992
C39	C	0.622852	0.174762	-0.000014
C40	C	1.122852	0.674762	0.499986
C41	C	0.543909	0.173503	-0.000018
C42	C	1.043909	0.673503	0.499982
C43	C	0.513587	0.103905	-0.000023
C44	C	1.013587	0.603905	0.499977
C45	C	0.427987	0.102541	-0.000022
C46	C	0.927987	0.602541	0.499978
C47	C	0.359759	0.101459	-0.000021
C48	C	0.859759	0.601459	0.499979
C49	C	0.899653	-0.036383	-0.000010
C50	C	1.399653	0.463617	0.499990
C51	C	0.898314	-0.120402	-0.000010
C52	C	1.398314	0.379598	0.499990
C53	C	0.966647	-0.169017	-0.000009
C54	C	1.466647	0.330983	0.499991
C55	C	0.965385	-0.247961	-0.000016
C56	C	1.465385	0.252039	0.499984
C57	C	0.895789	-0.278287	-0.000018
C58	C	1.395789	0.221713	0.499982
C59	C	0.827451	-0.229665	-0.000021
C60	C	1.327451	0.270335	0.499979
C61	C	0.828714	-0.150723	-0.000020
C62	C	1.328714	0.349277	0.499980
C63	C	0.822356	-0.548028	-0.000028
C64	C	1.322356	-0.048028	0.499972
C65	C	0.821098	-0.626976	-0.000027
C66	C	1.321098	-0.126976	0.499973
C67	C	0.959026	-0.645266	-0.000024
C68	C	1.459026	-0.145266	0.499976
C69	C	0.960289	-0.566324	-0.000023
C70	C	1.460289	-0.066324	0.499977
C71	C	0.891952	-0.517709	-0.000031
C72	C	1.391952	-0.017709	0.499969
C73	C	0.893321	-0.432110	-0.000024
C74	C	1.393321	0.067890	0.499976
C75	C	0.894419	-0.363885	-0.000019
C76	C	1.394419	0.136115	0.499981
C77	C	1.032258	0.096233	-0.000020
C78	C	1.532258	0.596233	0.499980
C79	C	1.116275	0.097578	-0.000027
C80	C	1.616275	0.597578	0.499973
C81	C	0.888093	0.240388	-0.000027
C82	C	1.388093	0.740388	0.499973
C83	C	0.889431	0.324406	-0.000032
C84	C	1.389431	0.824406	0.499968
N85	N	0.893856	0.101991	0.195649
N86	N	1.393856	0.601991	0.695649
N87	N	0.893896	0.102007	-0.195683
N88	N	1.393896	0.602007	0.304317
C89	C	0.945419	0.050468	0.238916
C90	C	1.445419	0.550468	0.738916
C91	C	0.945423	0.050467	0.325463
C92	C	1.445423	0.550467	0.825463
C93	C	0.893866	0.101994	0.368741
C94	C	1.393866	0.601994	0.868741
C95	C	0.842297	0.153520	0.325468
C96	C	1.342297	0.653520	0.825468
C97	C	0.842290	0.153517	0.238923
C98	C	1.342290	0.653517	0.738923
C99	C	0.842323	0.153535	0.674496
C100	C	1.342323	0.653535	1.174496
C101	C	0.842335	0.153536	0.761048
C102	C	1.342335	0.653536	1.261048
C103	C	0.945456	0.050484	0.761036
C104	C	1.445456	0.550484	1.261036
C105	C	0.945449	0.050481	0.674491
C106	C	1.445449	0.550481	1.174491
C107	C	0.893877	0.102004	0.631225
C108	C	1.393877	0.602004	1.131225
C109	C	0.893873	0.102004	0.537381
C110	C	1.393873	0.602004	1.037381
C111	C	0.893874	0.101999	0.462584
C112	C	1.393874	0.601999	0.962584
H113	H	0.283422	-0.025143	-0.000028
H114	H	0.783422	0.474857	0.499972
H115	H	0.764421	-0.651664	-0.000027
H116	H	1.264421	-0.151664	0.499973
Br117	Br	0.729612	-0.482060	-0.000044
Br118	Br	1.229612	0.017940	0.499956
H119	H	0.800333	0.195488	0.639276
H120	H	1.300333	0.695488	1.139276
Br121	Br	0.521054	-0.058885	-0.000046
Br122	Br	1.021054	0.441115	0.499954
Br123	Br	0.772319	0.223447	0.384200
Br124	Br	1.272319	0.723447	0.884200
H125	H	0.800301	0.195472	0.203695
H126	H	1.300301	0.695472	0.703695
H127	H	0.250230	0.225100	-0.000039
H128	H	0.750230	0.725100	0.499961
Br129	Br	0.732998	-0.270820	-0.000038
Br130	Br	1.232998	0.229180	0.499962
Br131	Br	1.061104	-0.127869	0.000006
Br132	Br	1.561104	0.372131	0.500006
H133	H	0.107020	0.222818	-0.000026
H134	H	0.607020	0.722818	0.499974
H135	H	0.140200	-0.027432	-0.000031
H136	H	0.640200	0.472568	0.499969
H137	H	1.021028	-0.287541	-0.000014
H138	H	1.521028	0.212459	0.499986
Br139	Br	0.735973	-0.084743	-0.000028
Br140	Br	1.235973	0.415257	0.499972
Br141	Br	1.015399	-0.019461	0.180190
Br142	Br	1.515399	0.480539	0.680190
H143	H	0.647550	0.231432	-0.000013
H144	H	1.147550	0.731432	0.499987
Br145	Br	0.772361	0.223471	0.819784
Br146	Br	1.272361	0.723471	1.319784
Br147	Br	1.015401	-0.019462	0.384185
Br148	Br	1.515401	0.480538	0.884185
Br149	Br	0.477932	0.266247	-0.000019
Br150	Br	0.977932	0.766247	0.499981
Br151	Br	1.054744	-0.525172	-0.000021
Br152	Br	1.554744	-0.025172	0.499979
H153	H	0.987446	0.008529	0.796272
H154	H	1.487446	0.508529	1.296272
Br155	Br	1.015425	-0.019447	0.615758
Br156	Br	1.515425	0.480553	1.115758
Br157	Br	1.051772	-0.711248	-0.000015
Br158	Br	1.551772	-0.211248	0.499985
H159	H	0.680728	-0.018817	-0.000007
H160	H	1.180728	0.481183	0.499993
