data_functionalizedCrystal
_audit_creation_method	'MofGen! by Chris Wilmer'
_symmetry_space_group_name_H-M	'P1'
_symmetry_Int_Tables_number	1
_symmetry_cell_setting	triclinic
loop_
_symmetry_equiv_pos_as_xyz
  x,y,z
_cell_length_a	10.540514
_cell_length_b	9.616153
_cell_length_c	10.540539
_cell_angle_alpha	89.995612
_cell_angle_beta	95.479674
_cell_angle_gamma	90.002713
loop_
_atom_site_label
_atom_site_type_symbol
_atom_site_fract_x
_atom_site_fract_y
_atom_site_fract_z
O1	O	1.685901	0.115656	-0.178751
O2	O	1.316484	0.115654	-0.195641
O3	O	1.509621	0.115653	-0.002489
O4	O	1.492765	0.115657	-0.371903
O5	O	1.509613	-0.115638	-0.002475
O6	O	1.316476	-0.115637	-0.195627
O7	O	1.685894	-0.115635	-0.178738
Zn8	Zn	1.501184	-0.152359	-0.187180
Zn9	Zn	1.501194	0.152378	-0.187198
O10	O	1.492757	-0.115635	-0.371890
C11	C	1.269177	0.000008	-0.194374
C12	C	1.128227	0.000008	-0.190605
N13	N	1.501186	-0.360333	-0.187167
C14	C	1.057522	0.000012	-0.328745
C15	C	0.910908	0.000544	-0.324871
C16	C	0.935894	0.131837	-0.115486
C17	C	1.082433	0.131941	-0.120339
C18	C	1.082827	-0.131090	-0.118280
C19	C	0.935848	-0.132816	-0.116947
C20	C	1.604888	-0.580660	-0.084201
C21	C	1.604608	-0.419493	-0.083808
C22	C	1.368480	-0.418865	-0.157049
C23	C	1.369097	-0.580083	-0.156327
C24	C	1.529029	-0.580206	-0.320614
C25	C	1.532024	-0.418978	-0.319741
C26	C	1.733201	0.000013	-0.180004
C27	C	1.874151	0.000023	-0.183774
C28	C	1.508353	0.000010	0.044821
C29	C	1.504571	0.000018	0.185769
N30	N	1.501202	0.360352	-0.187201
C31	C	1.494025	0.000012	-0.419199
C32	C	1.497807	0.000013	-0.560147
C33	C	1.359652	0.000536	0.369182
C34	C	1.363486	0.000016	0.222564
C35	C	1.572463	-0.132061	0.247440
C36	C	1.567648	-0.132172	0.393984
C37	C	1.570526	0.130850	0.394487
C38	C	1.571826	0.132596	0.247505
H39	H	0.868241	-0.093924	-0.378582
H40	H	1.130083	-0.132363	-0.016387
C41	C	0.905745	0.137979	0.024507
H42	H	0.943982	0.218460	0.063990
H43	H	0.816067	0.141942	0.027773
H44	H	0.938610	0.057326	0.068132
C45	C	1.125351	-0.266105	-0.180397
H46	H	1.171195	-0.243779	-0.251030
H47	H	1.178576	-0.317915	-0.119808
H48	H	1.052502	-0.319900	-0.208709
C49	C	1.120576	0.265533	-0.187765
H50	H	1.210291	0.266772	-0.191324
H51	H	1.079158	0.267879	-0.271830
H52	H	1.095821	0.344368	-0.141728
C53	C	1.581042	-0.635394	0.048759
H54	H	1.508169	-0.694034	0.041772
H55	H	1.653202	-0.686686	0.083446
H56	H	1.567017	-0.559220	0.103081
H57	H	1.344753	-0.617701	-0.058994
C58	C	1.147292	0.139560	0.016733
H59	H	1.084048	0.142589	0.075135
H60	H	1.199441	0.059856	0.033528
H61	H	1.198383	0.220975	0.026103
C62	C	1.098340	0.127526	-0.403348
H63	H	1.158282	0.180765	-0.350673
H64	H	1.136175	0.097432	-0.476867
H65	H	1.025738	0.183072	-0.428506
H66	H	1.672431	0.131738	0.441722
C67	C	1.504819	0.264598	0.192188
H68	H	1.436147	0.239035	0.131715
H69	H	1.473037	0.316460	0.259024
H70	H	1.563938	0.319726	0.151669
H71	H	1.629654	-0.380722	-0.342568
H72	H	1.669114	-0.138164	0.441962
H73	H	1.703216	-0.379918	-0.101918
H74	H	1.303923	0.095252	0.397772
C75	C	1.508853	0.266091	0.437091
H76	H	1.554171	0.343772	0.408754
H77	H	1.422710	0.270150	0.401385
H78	H	1.511645	0.267788	0.527429
C79	C	1.580404	-0.367401	0.049906
H80	H	1.570692	-0.444771	0.104194
H81	H	1.650578	-0.312541	0.083766
H82	H	1.504983	-0.312771	0.044252
C83	C	1.334824	-0.364357	-0.027040
H84	H	1.401464	-0.305946	0.009052
H85	H	1.257659	-0.312870	-0.038305
H86	H	1.324615	-0.440638	0.028355
C87	C	1.657050	-0.635111	-0.359330
H88	H	1.694730	-0.694803	-0.294482
H89	H	1.642922	-0.685316	-0.437006
H90	H	1.712493	-0.559079	-0.370355
H91	H	1.304144	-0.093649	0.399390
C92	C	1.096076	-0.127654	-0.404453
H93	H	1.155645	-0.182101	-0.352500
H94	H	1.022626	-0.181938	-0.429459
H95	H	1.133776	-0.097678	-0.478101
C96	C	1.712430	-0.138707	0.217268
H97	H	1.751673	-0.219338	0.255467
H98	H	1.715676	-0.142664	0.127587
H99	H	1.756301	-0.058219	0.250163
C100	C	1.436726	-0.364598	-0.428257
H101	H	1.376610	-0.305158	-0.393977
H102	H	1.481298	-0.314232	-0.487583
H103	H	1.393447	-0.440868	-0.470144
H104	H	1.525295	-0.230350	0.204842
H105	H	0.894850	-0.230333	-0.166852
H106	H	0.869180	0.095591	-0.378364
C107	C	1.290824	-0.128110	0.166149
H108	H	1.258855	-0.180052	0.232854
H109	H	1.221889	-0.098666	0.107685
H110	H	1.346918	-0.184682	0.123121
C111	C	1.291324	0.127914	0.164984
H112	H	1.293582	0.127771	0.075096
H113	H	1.205296	0.124653	0.184693
H114	H	1.330595	0.210235	0.199633
H115	H	1.674687	0.140572	0.223293
C116	C	1.738548	-0.633016	-0.108293
H117	H	1.732320	-0.691326	-0.181378
H118	H	1.791843	-0.555870	-0.122034
H119	H	1.773934	-0.684184	-0.036331
H120	H	0.893290	0.230308	-0.162306
C121	C	0.903140	-0.144136	0.021975
H122	H	0.851210	-0.067646	0.041128
H123	H	0.858512	-0.228474	0.032842
H124	H	0.979518	-0.143247	0.077663
H125	H	1.289561	-0.619105	-0.228433
C126	C	1.426914	-0.631740	-0.424187
H127	H	1.444231	-0.595471	-0.504583
H128	H	1.428200	-0.730459	-0.427101
H129	H	1.345305	-0.601061	-0.404774
H130	H	1.289412	-0.380547	-0.230018
H131	H	1.517466	-0.230904	0.422185
