data_functionalizedCrystal
_audit_creation_method	'MofGen! by Chris Wilmer'
_symmetry_space_group_name_H-M	'P1'
_symmetry_Int_Tables_number	1
_symmetry_cell_setting	triclinic
loop_
_symmetry_equiv_pos_as_xyz
  x,y,z
_cell_length_a	8.497374
_cell_length_b	19.805407
_cell_length_c	19.805405
_cell_angle_alpha	89.973590
_cell_angle_beta	89.985911
_cell_angle_gamma	90.004504
loop_
_atom_site_label
_atom_site_type_symbol
_atom_site_fract_x
_atom_site_fract_y
_atom_site_fract_z
Zn1	Zn	0.892011	1.034635	0.269581
Zn2	Zn	0.628188	1.034580	0.382739
Zn3	Zn	0.628226	0.921479	0.269569
Zn4	Zn	0.891907	0.921413	0.382733
O5	O	0.760083	0.978027	0.326155
O6	O	0.857043	1.129344	0.284598
O7	O	0.407431	1.019581	0.367724
O8	O	0.663277	0.936541	0.174854
O9	O	0.663213	1.129303	0.367735
O10	O	0.857079	1.019676	0.174862
O11	O	0.407458	0.936487	0.284579
O12	O	0.663176	0.826754	0.284573
O13	O	1.112683	0.936428	0.367725
O14	O	0.856901	0.826705	0.367714
O15	O	1.112760	1.019611	0.284593
O16	O	0.663111	1.019517	0.477455
O17	O	0.856864	0.936374	0.477450
C18	C	0.760032	0.802171	0.326142
C19	C	0.760048	0.726939	0.326153
C20	C	0.860757	0.691587	0.369510
C21	C	0.860779	0.620899	0.369511
C22	C	0.760083	0.585563	0.326158
C23	C	0.659369	0.620920	0.282797
C24	C	0.659356	0.691607	0.282793
C25	C	0.659421	0.335847	0.282812
C26	C	0.659439	0.265155	0.282821
C27	C	0.860844	0.265138	0.369530
C28	C	0.860831	0.335825	0.369526
C29	C	0.760124	0.371176	0.326162
C30	C	0.760103	0.447824	0.326161
C31	C	0.760095	0.508916	0.326163
C32	C	0.760007	0.977951	0.502011
C33	C	0.760027	0.977980	0.577243
C34	C	1.171563	0.978022	0.326156
C35	C	1.350207	0.978023	0.326164
C36	C	0.760135	1.154569	0.326169
C37	C	0.760157	1.229801	0.326175
C38	C	0.760194	0.978122	0.149613
C39	C	0.760241	0.978162	0.074381
C40	C	0.659245	1.021314	0.612567
C41	C	0.659280	1.021343	0.683256
C42	C	0.760090	0.978034	0.718619
C43	C	0.860882	0.934697	0.683290
C44	C	0.860854	0.934672	0.612603
C45	C	0.860999	0.934797	0.968363
C46	C	0.861016	0.934824	1.039055
C47	C	0.659425	1.021468	1.039016
C48	C	0.659397	1.021443	0.968329
C49	C	0.760195	0.978109	0.933006
C50	C	0.760158	0.978080	0.856358
C51	C	0.760120	0.978059	0.795266
H52	H	0.577387	0.592144	0.247496
C53	C	0.549978	0.374304	0.235846
C54	C	0.448713	0.414877	0.274094
C55	C	0.347879	0.450322	0.230850
H56	H	0.489861	0.343208	0.210017
H57	H	0.610395	0.401933	0.206400
H58	H	0.388302	0.387251	0.303528
H59	H	0.508787	0.445985	0.299922
H60	H	0.408296	0.477950	0.201404
H61	H	0.287773	0.419221	0.205023
H62	H	0.279169	0.477859	0.256795
C63	C	0.549533	1.068298	0.574262
C64	C	0.393423	1.053634	0.591511
C65	C	0.292315	1.096909	0.556246
H66	H	0.563731	1.062120	0.527094
H67	H	0.572632	1.113782	0.585820
H68	H	0.370332	1.008161	0.579949
H69	H	0.379176	1.059817	0.638673
H70	H	0.315413	1.142394	0.567804
H71	H	0.306526	1.090728	0.509080
H72	H	0.186384	1.086971	0.567950
C73	C	0.549830	0.729870	0.235698
C74	C	0.461612	0.683797	0.197747
C75	C	0.360685	0.719019	0.154360
H76	H	0.610117	0.757464	0.206185
H77	H	0.480895	0.757414	0.261529
H78	H	0.530538	0.656264	0.171918
H79	H	0.401292	0.656201	0.227242
H80	H	0.291750	0.746563	0.180191
H81	H	0.420985	0.746612	0.124852
H82	H	0.300806	0.687764	0.128610
H83	H	0.942785	0.592118	0.404817
C84	C	0.970021	0.887583	0.574164
C85	C	0.880599	0.844228	0.533618
C86	C	0.981120	0.800848	0.498194
H87	H	1.030098	0.861728	0.605271
H88	H	1.038780	0.913423	0.546518
H89	H	0.811868	0.818391	0.561261
H90	H	0.820525	0.870064	0.502498
H91	H	1.049878	0.826688	0.470548
H92	H	1.041192	0.774998	0.529306
H93	H	0.920463	0.771431	0.470675
H94	H	0.942823	0.364592	0.404830
H95	H	0.942751	0.720352	0.404815
C96	C	0.550257	1.068583	0.721582
C97	C	0.639878	1.111958	0.762025
C98	C	0.539562	1.155542	0.797307
H99	H	0.481319	1.042913	0.749290
H100	H	0.490367	1.094406	0.690370
H101	H	0.699742	1.086138	0.793234
H102	H	0.708812	1.137643	0.734335
H103	H	0.479672	1.181365	0.766094
H104	H	0.470629	1.129867	0.825010
H105	H	0.600356	1.184981	0.824746
H106	H	0.577303	1.056707	0.939538
H107	H	0.577357	1.056755	1.067784
H108	H	0.943119	0.899556	1.067846
H109	H	0.943069	0.899512	0.939609
C110	C	0.970426	0.887784	0.721770
C111	C	1.071610	0.926084	0.762317
C112	C	1.172526	0.882888	0.797780
H113	H	1.030598	0.861956	0.690685
H114	H	0.910064	0.858335	0.749417
H115	H	1.131965	0.955521	0.734672
H116	H	1.011482	0.951910	0.793415
H117	H	1.112165	0.853439	0.825427
H118	H	1.232687	0.857063	0.766690
H119	H	1.241182	0.908868	0.825300
C120	C	0.970142	0.226634	0.416533
C121	C	0.948645	0.157166	0.407247
C122	C	1.049310	0.121678	0.450528
H123	H	0.946954	0.238117	0.462021
H124	H	1.076212	0.238194	0.406693
H125	H	0.842599	0.145611	0.417092
H126	H	0.971845	0.145663	0.361768
H127	H	1.155380	0.133237	0.440688
H128	H	1.026113	0.133166	0.496013
H129	H	1.034748	0.074540	0.444229
H130	H	0.577440	0.236386	0.247514
