data_functionalizedCrystal
_audit_creation_method	'MofGen! by Chris Wilmer'
_symmetry_space_group_name_H-M	'P1'
_symmetry_Int_Tables_number	1
_symmetry_cell_setting	triclinic
loop_
_symmetry_equiv_pos_as_xyz
  x,y,z
_cell_length_a	10.723022
_cell_length_b	18.266242
_cell_length_c	10.723024
_cell_angle_alpha	89.996690
_cell_angle_beta	84.467548
_cell_angle_gamma	89.994052
loop_
_atom_site_label
_atom_site_type_symbol
_atom_site_fract_x
_atom_site_fract_y
_atom_site_fract_z
O1	O	-1.657192	0.060885	-0.175017
O2	O	-1.294039	0.060885	-0.191773
O3	O	-1.483992	0.060882	-0.001819
O4	O	-1.467239	0.060888	-0.364971
O5	O	-1.483971	-0.060880	-0.001814
O6	O	-1.294018	-0.060877	-0.191768
O7	O	-1.657171	-0.060877	-0.175013
Zn8	Zn	-1.475591	-0.080209	-0.183389
Zn9	Zn	-1.475619	0.080217	-0.183396
O10	O	-1.467218	-0.060874	-0.364966
C11	C	-1.247529	0.000004	-0.190551
C12	C	-1.108975	0.000004	-0.186904
N13	N	-1.475582	-0.189696	-0.183385
C14	C	-0.890796	0.000005	-0.289421
C15	C	-1.033999	0.000005	-0.293192
C16	C	-1.559751	-0.771975	-0.099302
C17	C	-1.559753	-0.695330	-0.099305
C18	C	-1.475620	-0.657009	-0.183384
C19	C	-1.391500	-0.695339	-0.267489
C20	C	-1.391509	-0.771983	-0.267492
N21	N	-1.365325	-0.536682	-0.198274
N22	N	-1.365320	-0.463874	-0.198264
C23	C	-1.475589	-0.426087	-0.183382
N24	N	-1.585866	-0.463858	-0.168485
N25	N	-1.585870	-0.536672	-0.168490
C26	C	-1.475601	-0.573902	-0.183391
C27	C	-1.559711	-0.304658	-0.099292
C28	C	-1.559714	-0.228012	-0.099303
C29	C	-1.391451	-0.228023	-0.267480
C30	C	-1.391458	-0.304668	-0.267475
C31	C	-1.475587	-0.342981	-0.183374
C32	C	-0.703681	0.000004	-0.176234
C33	C	-0.842235	0.000004	-0.179881
C34	C	-1.482763	0.000002	0.044683
C35	C	-1.479115	0.000005	0.183238
N36	N	-1.475638	0.189704	-0.183391
C37	C	-1.468448	0.000007	-0.411468
C38	C	-1.472095	0.000010	-0.550023
C39	C	-1.585403	0.000006	0.258221
C40	C	-1.581635	0.000008	0.401424
H41	H	-0.826354	0.000011	-0.380409
Cl42	Cl	-1.285704	-0.352847	-0.373184
Cl43	Cl	-1.098546	0.000002	-0.438000
H44	H	-1.628257	-0.803167	-0.030825
Cl45	Cl	-1.331600	0.000002	0.350511
H46	H	-1.067171	0.000022	-0.093113
Cl47	Cl	-0.941720	0.000007	-0.039393
Cl48	Cl	-1.722125	0.000004	0.500898
Cl49	Cl	-1.665504	-0.647147	0.006417
H50	H	-1.322999	-0.664135	-0.335949
H51	H	-1.679188	0.000001	0.216399
H52	H	-1.323013	-0.803184	-0.335968
Cl53	Cl	-1.334309	0.000012	0.247795
Cl54	Cl	-1.665473	-0.179834	0.006409
Cl55	Cl	-1.665479	-0.352825	0.006428
H56	H	-1.322953	-0.196823	-0.335944
