data_functionalizedCrystal
_audit_creation_method	'MofGen! by Chris Wilmer'
_symmetry_space_group_name_H-M	'P1'
_symmetry_Int_Tables_number	1
_symmetry_cell_setting	triclinic
loop_
_symmetry_equiv_pos_as_xyz
  x,y,z
_cell_length_a	13.032831
_cell_length_b	16.120297
_cell_length_c	13.032721
_cell_angle_alpha	80.345876
_cell_angle_beta	89.097115
_cell_angle_gamma	86.057239
loop_
_atom_site_label
_atom_site_type_symbol
_atom_site_fract_x
_atom_site_fract_y
_atom_site_fract_z
Zn1	Zn	1.471908	-0.685769	0.646883
Zn2	Zn	1.971908	-0.185769	1.146883
Zn3	Zn	1.458691	-0.561755	0.812079
Zn4	Zn	1.958691	-0.061755	1.312079
Zn5	Zn	1.311115	-0.527021	0.616368
Zn6	Zn	1.811115	-0.027021	1.116368
Zn7	Zn	1.278370	-0.681325	0.796687
Zn8	Zn	1.778370	-0.181325	1.296687
O9	O	1.380021	-0.613968	0.718004
O10	O	1.880021	-0.113968	1.218004
O11	O	1.612912	-0.685715	0.688009
O12	O	2.112912	-0.185715	1.188009
O13	O	1.447287	-0.440670	0.779788
O14	O	1.947287	0.059330	1.279788
O15	O	1.351680	-0.535402	0.475817
O16	O	1.851680	-0.035402	0.975817
O17	O	1.603202	-0.594602	0.809377
O18	O	2.103202	-0.094602	1.309377
O19	O	1.469814	-0.652034	0.498236
O20	O	1.969814	-0.152034	0.998236
O21	O	1.338864	-0.415151	0.636001
O22	O	1.838864	0.084849	1.136001
O23	O	1.164014	-0.531093	0.621076
O24	O	1.664014	-0.031093	1.121076
O25	O	1.295870	-0.798392	0.783144
O26	O	1.795870	-0.298392	1.283144
O27	O	1.139956	-0.644460	0.753555
O28	O	1.639956	-0.144460	1.253555
O29	O	1.438062	-0.801657	0.673084
O30	O	1.938062	-0.301657	1.173084
O31	O	1.415535	-0.590293	0.954636
O32	O	1.915535	-0.090293	1.454636
O33	O	1.283054	-0.678141	0.943328
O34	O	1.783054	-0.178141	1.443328
C35	C	1.114969	-0.583526	0.682335
C36	C	1.614969	-0.083526	1.182335
C37	C	1.001574	-0.570525	0.667102
C38	C	1.501574	-0.070525	1.167102
C39	C	0.939135	-0.620753	0.725955
C40	C	1.439135	-0.120753	1.225955
C41	C	0.821935	-0.607317	0.710212
C42	C	1.321935	-0.107317	1.210212
C43	C	1.364788	-0.831071	0.729801
C44	C	1.864788	-0.331071	1.229801
C45	C	1.358296	-0.923587	0.734828
C46	C	1.858296	-0.423587	1.234828
C47	C	1.346410	-1.092969	0.743978
C48	C	1.846410	-0.592969	1.243978
C49	C	1.413874	-1.135814	0.691748
C50	C	1.913874	-0.635814	1.191748
C51	C	1.407260	-1.230064	0.696839
C52	C	1.907260	-0.730064	1.196839
C53	C	1.353022	-0.998710	0.738888
C54	C	1.853022	-0.498710	1.238888
C55	C	1.646107	-0.644529	0.753814
C56	C	2.146107	-0.144529	1.253814
C57	C	1.759498	-0.657552	0.769073
C58	C	2.259498	-0.157552	1.269073
C59	C	1.344333	-0.637526	0.986479
C60	C	1.844333	-0.137526	1.486479
C61	C	1.329157	-0.647642	1.101348
C62	C	1.829157	-0.147642	1.601348
C63	C	1.395263	-0.397710	0.706187
C64	C	1.895263	0.102290	1.206187
C65	C	1.401991	-0.305191	0.700895
C66	C	1.901991	0.194809	1.200895
C67	C	1.415874	-0.590339	0.448486
C68	C	1.915874	-0.090339	0.948486
C69	C	1.431153	-0.580270	0.333633
C70	C	1.931153	-0.080270	0.833633
C71	C	1.387993	-0.608731	1.158130
C72	C	1.887993	-0.108731	1.658130
C73	C	1.372309	-0.619187	1.276853
C74	C	1.872309	-0.119187	1.776853
H75	H	0.972446	-0.673705	0.787993
H76	H	1.472446	-0.173705	1.287993
H77	H	1.493143	-0.539218	1.294358
H78	H	1.993143	-0.039218	1.794358
H79	H	0.792802	-0.710511	0.831114
H80	H	1.292802	-0.210511	1.331114
H81	H	1.283692	-1.127071	0.792515
H82	H	1.783692	-0.627071	1.292515
H83	H	1.267179	-0.688699	1.140630
H84	H	1.767179	-0.188699	1.640630
C85	C	0.776945	-0.535779	0.626389
C86	C	1.276945	-0.035779	1.126389
N87	N	0.743057	-0.481897	0.563256
N88	N	1.243057	0.018103	1.063256
C89	C	1.471730	-0.553268	1.105068
C90	C	1.971730	-0.053268	1.605068
N91	N	1.534801	-0.511490	1.065104
N92	N	2.034801	-0.011490	1.565104
C93	C	0.956579	-0.498990	0.583283
C94	C	1.456579	0.001010	1.083283
N95	N	0.922691	-0.445109	0.520150
N96	N	1.422691	0.054891	1.020150
H97	H	1.476597	-1.101710	0.643207
H98	H	1.976597	-0.601710	1.143207
H99	H	1.310327	-0.660246	1.316130
H100	H	1.810327	-0.160246	1.816130
