data_functionalizedCrystal
_audit_creation_method	'MofGen! by Chris Wilmer'
_symmetry_space_group_name_H-M	'P1'
_symmetry_Int_Tables_number	1
_symmetry_cell_setting	triclinic
loop_
_symmetry_equiv_pos_as_xyz
  x,y,z
_cell_length_a	10.489741
_cell_length_b	16.109301
_cell_length_c	15.186229
_cell_angle_alpha	90.005167
_cell_angle_beta	89.994657
_cell_angle_gamma	95.999673
loop_
_atom_site_label
_atom_site_type_symbol
_atom_site_fract_x
_atom_site_fract_y
_atom_site_fract_z
O1	O	1.692350	-0.117298	-0.073273
O2	O	1.320995	-0.128308	-0.073266
O3	O	1.516874	-0.001835	-0.073260
O4	O	1.496471	-0.243771	-0.073278
O5	O	1.516861	-0.001833	0.073197
O6	O	1.320981	-0.128306	0.073192
O7	O	1.692337	-0.117296	0.073185
Zn8	Zn	1.506657	-0.122801	0.096441
Zn9	Zn	1.506674	-0.122803	-0.096522
O10	O	1.496458	-0.243769	0.073179
C11	C	1.273468	-0.127475	-0.000036
C12	C	1.131875	-0.124987	-0.000033
C13	C	1.739863	-0.118128	-0.000047
C14	C	1.881456	-0.120616	-0.000056
C15	C	1.516041	0.029146	-0.000031
C16	C	1.513563	0.121457	-0.000030
C17	C	1.948429	-0.201087	-0.000052
C18	C	2.041114	-0.163075	-0.072257
C19	C	2.041067	-0.163054	0.072138
C20	C	1.972276	-0.082570	-0.072321
C21	C	1.972220	-0.082560	0.072140
C22	C	2.064878	-0.044489	-0.000083
C23	C	1.497291	-0.274750	-0.000052
C24	C	1.499769	-0.367060	-0.000059
N25	N	1.506655	-0.122798	0.228134
C26	C	1.624032	0.343048	-0.000046
C27	C	1.621694	0.429783	-0.000053
C28	C	1.389290	0.411341	-0.000045
C29	C	1.391630	0.324608	-0.000045
C30	C	1.509004	0.290464	-0.000040
C31	C	1.504327	0.463932	-0.000049
C32	C	1.501791	0.557974	-0.000056
C33	C	1.511541	0.196417	-0.000034
N34	N	1.506687	-0.122799	-0.228215
C35	C	1.593419	-0.066815	0.453859
C36	C	1.593423	-0.066813	0.546049
C37	C	1.419913	-0.178784	0.546053
C38	C	1.419904	-0.178782	0.453865
C39	C	1.506664	-0.122798	0.407771
C40	C	1.506677	-0.122799	0.592148
C41	C	1.506681	-0.122797	0.692104
C42	C	1.506659	-0.122799	0.307808
H43	H	1.897820	-0.267251	-0.000130
H44	H	1.941946	-0.048553	-0.133438
H45	H	1.297954	0.281792	-0.000043
C46	C	1.687690	-0.006143	0.403743
C47	C	1.765774	-0.050891	0.350792
C48	C	1.852614	0.004985	0.304614
H49	H	1.641908	0.028757	0.367734
H50	H	1.739434	0.027208	0.444351
H51	H	1.714037	-0.084228	0.310188
H52	H	1.811585	-0.085788	0.386778
H53	H	1.904358	0.038336	0.345222
H54	H	1.806821	0.039881	0.268610
H55	H	1.905612	-0.025369	0.268687
H56	H	1.719606	0.315251	-0.000045
H57	H	1.664066	-0.021226	0.583572
H58	H	2.071646	-0.197126	-0.133305
H59	H	2.115255	0.021736	-0.000114
H60	H	1.349276	-0.224366	0.583593
C61	C	1.931137	-0.037116	0.153401
C62	C	1.992126	0.044454	0.154115
C63	C	1.954083	0.086308	0.228920
H64	H	1.840892	-0.035496	0.152283
H65	H	1.954231	-0.065673	0.204784
H66	H	1.969024	0.073004	0.102745
H67	H	2.082371	0.042858	0.155246
H68	H	1.977177	0.057750	0.280303
H69	H	1.863838	0.087922	0.227795
H70	H	1.995467	0.141654	0.229419
H71	H	1.715362	0.472594	-0.000060
C72	C	1.261823	0.448369	-0.000224
C73	C	1.192305	0.421722	-0.075582
C74	C	1.074883	0.455822	-0.075781
H75	H	1.214305	0.430395	0.050790
H76	H	1.276851	0.507559	-0.000271
H77	H	1.177274	0.362544	-0.075527
H78	H	1.239785	0.439695	-0.126609
H79	H	1.089910	0.515012	-0.075828
H80	H	1.027375	0.437845	-0.024764
H81	H	1.027705	0.437753	-0.126914
C82	C	2.081504	-0.208596	0.153509
C83	C	2.021949	-0.290538	0.153160
C84	C	2.059149	-0.332518	0.228105
H85	H	2.171901	-0.209502	0.153287
H86	H	2.056713	-0.180589	0.204812
H87	H	2.046748	-0.318538	0.101870
H88	H	1.931552	-0.289657	0.153394
H89	H	2.034359	-0.304511	0.279408
H90	H	2.149547	-0.333418	0.227877
H91	H	2.018739	-0.388117	0.227882
C92	C	1.325650	-0.239661	0.403978
C93	C	1.249701	-0.288709	0.464075
C94	C	1.162874	-0.344801	0.418151
H95	H	1.272448	-0.209509	0.368023
H96	H	1.371481	-0.274605	0.368024
H97	H	1.203873	-0.253769	0.500014
H98	H	1.302867	-0.318879	0.500032
H99	H	1.208704	-0.379746	0.382197
H100	H	1.109681	-0.314642	0.382198
H101	H	1.111340	-0.378092	0.458920
