data_functionalizedCrystal
_audit_creation_method	'MofGen! by Chris Wilmer'
_symmetry_space_group_name_H-M	'P1'
_symmetry_Int_Tables_number	1
_symmetry_cell_setting	triclinic
loop_
_symmetry_equiv_pos_as_xyz
  x,y,z
_cell_length_a	10.967926
_cell_length_b	10.540510
_cell_length_c	10.065875
_cell_angle_alpha	81.120509
_cell_angle_beta	86.879521
_cell_angle_gamma	84.613823
loop_
_atom_site_label
_atom_site_type_symbol
_atom_site_fract_x
_atom_site_fract_y
_atom_site_fract_z
O1	O	1.614767	0.221447	-0.266300
O2	O	1.264754	0.225073	-0.183976
O3	O	1.447765	0.038854	-0.227021
O4	O	1.431757	0.407666	-0.223255
O5	O	1.412868	0.074512	-0.445802
O6	O	1.229858	0.260732	-0.402757
O7	O	1.579871	0.257106	-0.485081
Zn8	Zn	1.399324	0.264580	-0.478655
Zn9	Zn	1.445301	0.217598	-0.190402
O10	O	1.396860	0.443325	-0.442036
C11	C	1.202487	0.239944	-0.282825
C12	C	1.068942	0.231114	-0.251415
C13	C	0.991326	0.245650	-0.350747
C14	C	0.853300	0.236524	-0.318285
C15	C	1.429124	0.009334	-0.336129
C16	C	1.425556	-0.131752	-0.335281
C17	C	1.552613	-0.344321	-0.365685
C18	C	1.556500	-0.197663	-0.366080
C19	C	1.378453	-0.199407	-0.194583
C20	C	1.375589	-0.346293	-0.193808
C21	C	1.333178	-0.305654	-0.441962
C22	C	1.339127	-0.158810	-0.445067
C23	C	1.642138	0.242234	-0.386229
C24	C	1.775685	0.251062	-0.417631
C25	C	1.415502	0.472844	-0.332926
C26	C	1.419071	0.613929	-0.333765
N27	N	1.367954	0.296644	-0.675383
C28	C	1.434379	0.228746	-0.758785
C29	C	1.410246	0.253433	-0.910276
N30	N	1.476680	0.185525	0.006323
H31	H	1.594663	-0.151740	-0.467970
H32	H	0.811412	0.270260	-0.526712
C33	C	1.020680	0.205179	-0.104064
H34	H	0.934241	0.202458	-0.101577
H35	H	1.057550	0.124974	-0.061860
H36	H	1.040460	0.272129	-0.057852
H37	H	1.439833	-0.181945	-0.112558
C38	C	1.039588	0.271591	-0.498098
H39	H	1.126025	0.274331	-0.500584
H40	H	1.019804	0.204659	-0.544321
H41	H	1.002718	0.351810	-0.540290
C42	C	1.200186	-0.340407	-0.411868
H43	H	1.196964	-0.403608	-0.333783
H44	H	1.149328	-0.265438	-0.397057
H45	H	1.172229	-0.373646	-0.486189
H46	H	1.335501	0.329840	-0.951016
H47	H	1.509111	0.152334	-0.718038
H48	H	1.589337	-0.369744	-0.467279
H49	H	1.373159	-0.113290	-0.548963
H50	H	1.617543	-0.400429	-0.288526
C51	C	1.249238	-0.141332	-0.157654
H52	H	1.222531	-0.183634	-0.072240
H53	H	1.251332	-0.052002	-0.154256
H54	H	1.194125	-0.152553	-0.223680
C55	C	1.577678	0.082331	-0.938658
H56	H	1.580669	0.079293	-0.844062
H57	H	1.560141	0.000641	-0.957871
H58	H	1.654550	0.103424	-0.980088
H59	H	1.293214	0.373045	-0.716130
H60	H	1.436294	-0.399998	-0.111194
C61	C	0.805043	0.210588	-0.170927
H62	H	0.718604	0.207867	-0.168439
H63	H	0.841914	0.130383	-0.128722
H64	H	0.824824	0.277538	-0.124714
H65	H	1.623561	-0.181885	-0.288777
H66	H	1.278553	-0.373912	-0.165113
H67	H	1.359686	-0.330828	-0.546448
C68	C	1.208357	-0.095738	-0.424899
H69	H	1.204739	-0.051893	-0.348912
H70	H	1.187409	-0.036043	-0.502702
H71	H	1.152243	-0.160377	-0.410608
