data_functionalizedCrystal
_audit_creation_method	'MofGen! by Chris Wilmer'
_symmetry_space_group_name_H-M	'P1'
_symmetry_Int_Tables_number	1
_symmetry_cell_setting	triclinic
loop_
_symmetry_equiv_pos_as_xyz
  x,y,z
_cell_length_a	16.704494
_cell_length_b	16.704486
_cell_length_c	16.704493
_cell_angle_alpha	60.347015
_cell_angle_beta	94.152695
_cell_angle_gamma	54.477068
loop_
_atom_site_label
_atom_site_type_symbol
_atom_site_fract_x
_atom_site_fract_y
_atom_site_fract_z
Zr1	Zr	0.738781	0.865529	-0.130315
O2	O	0.576840	1.064109	-0.281272
O3	O	0.798871	0.678259	-0.074298
O4	O	0.770785	0.861978	-0.256572
O5	O	0.615199	0.879247	0.033704
O6	O	0.911888	0.846312	-0.248168
O7	O	0.604927	0.880390	-0.098998
O8	O	0.962130	0.517672	0.077887
O9	O	0.564957	1.207888	-0.292351
O10	O	0.917182	0.739406	-0.055903
O11	O	0.819544	0.750245	0.036859
O12	O	0.786476	0.966550	-0.177746
O13	O	0.688838	0.977389	-0.084984
Zr14	Zr	0.980209	0.838722	0.094734
Zr15	Zr	0.963826	0.840544	-0.116910
Zr16	Zr	0.755164	0.863707	0.081330
Zr17	Zr	0.719829	1.094840	-0.147985
Zr18	Zr	0.999161	0.609412	0.112404
O19	O	0.920119	1.025993	0.038717
O20	O	0.896824	1.028583	-0.262213
O21	O	0.600135	1.061518	0.019659
O22	O	1.142150	0.640142	0.245691
O23	O	1.118855	0.642733	-0.055239
O24	O	0.822166	0.675668	0.226632
O25	O	1.103791	0.825004	-0.069285
O26	O	0.948205	0.842273	0.220992
O27	O	0.807101	0.857939	0.212587
O28	O	1.114063	0.823862	0.063417
O29	O	0.743837	1.188028	-0.281697
O30	O	0.975153	0.516224	0.246116
O31	O	1.154033	0.496364	0.256770
O32	O	1.141010	0.497812	0.088542
O33	O	0.577979	1.206439	-0.124122
O34	O	0.756860	1.186579	-0.113468
O35	O	0.932514	0.737701	0.142165
O36	O	1.030152	0.726862	0.049403
O37	O	0.899446	0.954007	-0.072440
O38	O	0.801808	0.964845	0.020322
C39	C	0.883201	0.565293	0.004312
C40	C	0.891247	0.467945	0.011813
C41	C	0.726472	0.461977	-0.141804
C42	C	0.734026	0.370515	-0.134762
C43	C	0.913914	0.193559	0.032936
C44	C	0.906359	0.285020	0.025893
C45	C	0.812634	0.419230	-0.061479
C46	C	0.805076	0.510693	-0.068516
C47	C	0.984967	0.333735	0.099176
C48	C	0.992521	0.242274	0.106219
C49	C	0.577999	0.883378	-0.034557
C50	C	0.482462	0.893985	-0.040247
C51	C	0.439407	0.676757	0.076289
C52	C	0.349645	0.686717	0.070946
C53	C	0.213175	0.923864	-0.056271
C54	C	0.302937	0.913904	-0.050928
C55	C	0.416052	0.790346	0.015353
C56	C	0.505815	0.780387	0.020690
C57	C	0.369345	1.017533	-0.106520
C58	C	0.279583	1.027493	-0.111864
C59	C	1.140991	0.820873	-0.001024
C60	C	1.236528	0.810266	0.004666
C61	C	0.839002	0.854405	-0.282525
C62	C	0.832047	0.855178	-0.372374
C63	C	0.835789	1.138958	-0.039893
C64	C	0.827743	1.236306	-0.047394
C65	C	0.974481	0.839344	-0.531936
C66	C	0.967951	0.840070	-0.616356
C67	C	0.812462	0.857347	-0.625631
C68	C	0.818992	0.856621	-0.541211
C69	C	0.900004	0.847621	-0.494367
C70	C	0.906528	0.846904	-0.409950
C71	C	0.751045	0.864171	-0.419221
C72	C	0.744515	0.864898	-0.503642
C73	C	0.879988	0.849847	0.246944
C74	C	0.886943	0.849073	0.336793
C75	C	1.164697	0.534041	0.021078
C76	C	1.268280	0.426086	0.034270
C77	C	0.903694	0.563015	0.269047
C78	C	0.918694	0.464893	0.366396
C79	C	1.185190	0.531762	0.285813
C80	C	1.295728	0.423033	0.388853
C81	C	0.533800	1.172490	-0.321394
C82	C	0.423262	1.281218	-0.424434
C83	C	0.554293	1.170211	-0.056659
C84	C	0.450710	1.278166	-0.069851
C85	C	0.815296	1.141237	-0.304627
C86	C	0.800296	1.239358	-0.401977
C87	C	1.257954	0.381936	-0.014512
C88	C	1.355269	0.280515	-0.002139
C89	C	1.462912	0.223238	0.059024
C90	C	1.473235	0.267396	0.107808
C91	C	1.375920	0.368822	0.095427
C92	C	0.984709	0.412266	0.467090
C93	C	0.998799	0.320084	0.558568
C94	C	0.946881	0.280523	0.549350
C95	C	0.880858	0.333159	0.448645
C96	C	0.866762	0.425347	0.357169
C97	C	0.461035	1.322324	-0.021078
C98	C	0.363715	1.423771	-0.033477
C99	C	0.256073	1.481052	-0.094643
C100	C	0.245749	1.436889	-0.143422
C101	C	0.343067	1.335450	-0.131029
C102	C	0.852230	1.278889	-0.392725
C103	C	0.838157	1.371070	-0.484185
C104	C	0.772143	1.423726	-0.584898
C105	C	0.720209	1.384187	-0.594148
C106	C	0.734288	1.292000	-0.502688
C107	C	1.354192	0.292752	0.443346
C108	C	1.458064	0.190574	0.540156
C109	C	1.503467	0.218682	0.582474
C110	C	1.444996	0.348977	0.527972
C111	C	1.341130	0.451151	0.431161
C112	C	0.364805	1.411499	-0.478934
C113	C	0.260951	1.513674	-0.575761
C114	C	0.215552	1.485566	-0.618083
C115	C	0.274019	1.355271	-0.563577
C116	C	0.377875	1.253099	-0.466755
H117	H	1.068832	0.132992	0.177352
C118	C	1.591654	0.204368	0.175094
N119	N	1.680851	0.156885	0.225781
H120	H	0.237039	1.332404	-0.598049
C121	C	1.276824	0.594461	0.371234
N122	N	1.228393	0.702403	0.326101
H123	H	0.728752	0.619970	-0.139651
H124	H	0.678560	0.872220	-0.541789
C125	C	1.387300	0.417362	0.149110
N126	N	1.395880	0.453916	0.189549
H127	H	0.813011	0.468184	0.275183
H128	H	1.170313	0.428570	-0.064329
C129	C	1.304274	0.261801	0.396811
N130	N	1.266687	0.238477	0.361763
H131	H	1.505653	0.084492	0.584522
H132	H	0.663865	0.405331	-0.200172
H133	H	0.368670	0.594220	0.120567
H134	H	0.990229	0.084275	0.104060
C135	C	1.041824	0.455773	0.477256
N136	N	1.084840	0.488543	0.484920
H137	H	1.052564	0.277236	0.640557
H138	H	0.958368	0.205456	0.623844
H139	H	0.760688	1.498790	-0.659362
C140	C	0.895289	1.414552	-0.473987
N141	N	0.938320	1.447301	-0.466302
H142	H	1.481979	0.371844	0.562442
H143	H	1.055123	0.298934	0.164587
H144	H	0.690397	0.870916	-0.388627
C145	C	0.196652	1.656989	-0.635696
N146	N	0.148224	1.764930	-0.680835
C147	C	0.623372	0.609608	-0.237909
N148	N	0.545715	0.720806	-0.310299
C149	C	0.630242	0.644472	0.093603
N150	N	0.723960	0.542097	0.148527
C151	C	0.823760	0.289621	0.438523
N152	N	0.780762	0.256818	0.430904
C153	C	0.563834	0.540844	0.149193
N154	N	0.657554	0.438472	0.204108
H155	H	1.346842	0.244575	-0.041866
C156	C	0.088740	1.059766	-0.129176
N157	N	-0.004986	1.162129	-0.184092
H158	H	0.401752	1.434411	-0.444488
H159	H	0.666460	1.427074	-0.676160
C160	C	0.723383	0.867199	-0.677148
N161	N	0.656296	0.874607	-0.715945
H162	H	0.548675	1.275694	0.028735
H163	H	0.187475	1.128090	-0.165824
C164	C	1.063589	0.829453	-0.480410
N165	N	1.130707	0.822001	-0.441601
C166	C	0.375097	1.472321	0.020198
N167	N	0.383674	1.508883	0.060630
H168	H	1.028599	0.833328	-0.646940
C169	C	0.343657	1.142490	-0.173553
N170	N	0.324311	1.236605	-0.224042
C171	C	0.101316	1.597973	-0.724601
N172	N	0.015276	1.682643	-0.804834
H173	H	0.972489	0.839582	-0.371813
C174	C	0.127334	1.499895	-0.210686
N175	N	0.038142	1.547343	-0.261339
H176	H	0.425460	1.147021	-0.422384
C177	C	0.677133	1.248546	-0.512886
N178	N	0.634076	1.215825	-0.520576
C179	C	1.617720	0.106272	0.688976
N180	N	1.703774	0.021600	0.769196
H181	H	1.542143	0.140650	0.069098
H182	H	0.176839	1.563649	-0.104726
H183	H	0.334645	1.299500	-0.170745
H184	H	0.905983	1.236030	-0.310728
