data_functionalizedCrystal
_audit_creation_method	'MofGen! by Chris Wilmer'
_symmetry_space_group_name_H-M	'P1'
_symmetry_Int_Tables_number	1
_symmetry_cell_setting	triclinic
loop_
_symmetry_equiv_pos_as_xyz
  x,y,z
_cell_length_a	19.851628
_cell_length_b	23.196402
_cell_length_c	23.196401
_cell_angle_alpha	60.007332
_cell_angle_beta	90.016862
_cell_angle_gamma	60.002583
loop_
_atom_site_label
_atom_site_type_symbol
_atom_site_fract_x
_atom_site_fract_y
_atom_site_fract_z
Zr1	Zr	0.649030	0.630912	-0.075563
O2	O	0.541452	0.751186	-0.167622
O3	O	0.681999	0.510647	-0.047346
O4	O	0.681980	0.630910	-0.167612
O5	O	0.541498	0.630921	0.047516
O6	O	0.792841	0.630899	-0.167600
O7	O	0.541472	0.630923	-0.047356
O8	O	0.792876	0.415771	0.047534
O9	O	0.541463	0.846050	-0.167618
O10	O	0.778807	0.560103	-0.035299
O11	O	0.696092	0.560110	0.035494
O12	O	0.696069	0.701704	-0.106104
O13	O	0.613354	0.701711	-0.035311
Zr14	Zr	0.825884	0.630892	0.075764
Zr15	Zr	0.825842	0.630895	-0.075545
Zr16	Zr	0.649073	0.630910	0.075746
Zr17	Zr	0.649048	0.782210	-0.075558
Zr18	Zr	0.825867	0.479595	0.075758
O19	O	0.792916	0.751157	0.047546
O20	O	0.792856	0.751160	-0.167596
O21	O	0.541512	0.751182	0.047520
O22	O	0.933463	0.510619	0.167822
O23	O	0.933403	0.510622	-0.047319
O24	O	0.682059	0.510644	0.167796
O25	O	0.933417	0.630883	-0.047315
O26	O	0.792935	0.630894	0.167812
O27	O	0.682073	0.630905	0.167801
O28	O	0.933443	0.630882	0.047556
O29	O	0.682005	0.846036	-0.167604
O30	O	0.792910	0.415769	0.167804
O31	O	0.933452	0.415755	0.167819
O32	O	0.933418	0.415757	0.047548
O33	O	0.541497	0.846048	-0.047348
O34	O	0.682039	0.846034	-0.047333
O35	O	0.778846	0.560100	0.106304
O36	O	0.861561	0.560093	0.035511
O37	O	0.778823	0.701695	-0.035293
O38	O	0.696108	0.701702	0.035499
C39	C	0.737435	0.441652	0.000093
C40	C	0.737428	0.377423	0.000091
C41	C	0.798517	0.294987	0.052358
C42	C	0.798523	0.234627	0.052364
C43	C	0.737445	0.256707	0.000093
C44	C	0.676344	0.339157	-0.052179
C45	C	0.676336	0.399514	-0.052180
C46	C	0.718411	0.201123	-0.063701
C47	C	0.718425	0.140764	-0.063700
C48	C	0.737467	0.070545	0.000096
C49	C	0.756513	0.060684	0.063896
C50	C	0.756504	0.121041	0.063895
C51	C	0.737447	0.191265	0.000088
C52	C	0.798567	-0.077344	0.052374
C53	C	0.798567	-0.137703	0.052381
C54	C	0.676391	-0.033171	-0.052167
C55	C	0.676388	0.027186	-0.052169
C56	C	0.737480	0.005094	0.000102
C57	C	0.516293	0.630924	0.000077
C58	C	0.441232	0.630932	0.000069
C59	C	0.214775	0.708121	-0.038513
C60	C	0.192401	0.669528	-0.066489
C61	C	0.303825	0.630911	0.000090
C62	C	0.192458	0.669509	0.028053
C63	C	0.171093	0.630896	0.000109
C64	C	0.282440	0.592318	-0.027926
C65	C	0.282495	0.592309	0.066654
C66	C	0.260174	0.553660	0.038694
C67	C	0.380287	0.630922	0.000077
C68	C	0.094636	0.630879	0.000120
C69	C	0.958622	0.630880	0.000123
C70	C	1.033683	0.630872	0.000131
C71	C	0.737405	0.630905	-0.189164
C72	C	0.737387	0.630906	-0.253399
C73	C	0.737480	0.820152	0.000107
C74	C	0.737487	0.884382	0.000110
C75	C	0.694202	0.704818	-0.320531
C76	C	0.694223	0.704819	-0.380886
C77	C	0.737417	0.630904	-0.374105
C78	C	0.780611	0.556982	-0.306960
C79	C	0.780596	0.556983	-0.246607
C80	C	0.731276	0.574279	-0.441425
C81	C	0.731285	0.574281	-0.501778
C82	C	0.737469	0.630898	-0.560253
C83	C	0.743628	0.687527	-0.558373
C84	C	0.743612	0.687528	-0.498020
C85	C	0.737439	0.630895	-0.439544
C86	C	0.694306	0.704816	-0.692832
C87	C	0.694333	0.704814	-0.753187
C88	C	0.780715	0.556975	-0.679259
C89	C	0.780694	0.556979	-0.618906
C90	C	0.737485	0.630902	-0.625697
C91	C	0.737510	0.630899	0.189365
C92	C	0.737528	0.630898	0.253599
C93	C	0.958600	0.441630	0.000116
C94	C	1.033653	0.377393	0.000122
C95	C	0.737488	0.441649	0.189358
C96	C	0.737498	0.377419	0.253590
C97	C	0.958653	0.441627	0.189381
C98	C	1.033724	0.377389	0.253621
C99	C	0.516262	0.820177	-0.189180
C100	C	0.441191	0.884415	-0.253420
C101	C	0.516315	0.820174	0.000084
C102	C	0.441262	0.884411	0.000079
C103	C	0.737427	0.820155	-0.189157
C104	C	0.737416	0.884386	-0.253389
C105	C	1.025702	0.347231	-0.036844
C106	C	1.096216	0.286882	-0.036853
C107	C	1.174681	0.256691	0.000108
C108	C	1.182630	0.286859	0.037075
C109	C	1.112117	0.347211	0.037080
C110	C	0.780700	0.347251	0.320722
C111	C	0.780707	0.286907	0.381081
C112	C	0.737516	0.256730	0.374306
C113	C	0.694309	0.286904	0.307166
C114	C	0.694298	0.347250	0.246809
C115	C	1.112162	0.347218	0.246835
C116	C	1.182707	0.286868	0.307190
C117	C	1.174811	0.256686	0.374329
C118	C	1.096365	0.286862	0.381113
C119	C	1.025822	0.347215	0.320759
C120	C	0.362752	0.914593	-0.246635
C121	C	0.292208	0.974962	-0.306989
C122	C	0.300103	1.005148	-0.374128
C123	C	0.378550	0.974968	-0.380912
C124	C	0.449093	0.914604	-0.320559
C125	C	0.449213	0.914579	0.037039
C126	C	0.378699	0.974945	0.037031
C127	C	0.300234	1.005138	0.000067
C128	C	0.292285	0.974968	-0.036897
C129	C	0.362798	0.914607	-0.036893
C130	C	0.780616	0.914544	-0.246591
C131	C	0.780622	0.974888	-0.306938
C132	C	0.737424	1.005076	-0.374083
C133	C	0.694223	0.974911	-0.380880
C134	C	0.694222	0.914565	-0.320533
H135	H	0.626659	-0.015191	-0.094727
H136	H	0.815800	0.999441	-0.301391
H137	H	0.659040	0.890016	-0.326078
Cl138	Cl	0.132460	0.719909	-0.153387
H139	H	1.232259	0.207542	0.423467
H140	H	1.246575	0.262304	0.301654
Cl141	Cl	0.834968	0.464055	-0.534506
Cl142	Cl	0.737430	1.080944	-0.449941
H143	H	0.748659	0.733632	-0.605985
H144	H	0.512959	0.890033	-0.326092
Cl145	Cl	0.639911	1.012878	-0.465295
Cl146	Cl	0.835032	0.248984	0.465476
Cl147	Cl	0.547845	0.876639	0.083509
Cl148	Cl	1.086204	0.248966	-0.083326
H149	H	1.118607	0.371784	0.192173
H150	H	1.089948	0.262279	0.435786
Cl151	Cl	0.737540	0.180863	0.450192
H152	H	1.232091	0.207548	0.000099
Cl153	Cl	0.835028	0.464051	-0.670727
H154	H	0.659120	0.371805	0.192149
H155	H	0.321315	0.559705	0.122927
Cl156	Cl	0.927217	0.385132	0.329302
H157	H	1.118602	0.371761	0.067186
H158	H	0.659144	0.262324	0.301660
Cl159	Cl	0.352805	0.876658	-0.162238
H160	H	1.246525	0.262269	0.067168
H161	H	0.659170	0.765005	-0.807850
Cl162	Cl	0.875312	0.267212	0.118074
H163	H	0.228340	0.999525	-0.301452
Cl164	Cl	0.211412	1.081033	-0.449996
Cl165	Cl	0.186291	0.808912	-0.088982
H166	H	0.385187	0.999500	0.067134
H167	H	0.659022	0.765012	-0.326067
Cl168	Cl	0.388462	1.012921	-0.465322
H169	H	0.242824	1.054288	0.000070
Cl170	Cl	0.875367	-0.241343	0.118099
H171	H	0.848271	0.167495	0.094928
H172	H	0.228389	0.999560	-0.066991
H173	H	0.815872	0.371815	0.326253
Cl174	Cl	0.352788	0.876684	-0.083356
Cl175	Cl	0.639931	0.797745	-0.465293
H176	H	0.772009	0.113009	0.115842
Cl177	Cl	0.723535	0.503097	-0.504139
H178	H	0.815793	0.889975	-0.191924
Cl179	Cl	0.694482	0.153167	-0.143905
H180	H	0.961819	0.371812	-0.066951
Cl181	Cl	0.640007	0.797746	-0.701366
H182	H	0.848308	-0.095332	0.094939
Cl183	Cl	0.599587	0.130825	-0.117882
Cl184	Cl	0.694469	0.289396	-0.143910
Cl185	Cl	0.599557	0.366915	-0.117888
Cl186	Cl	0.780475	-0.027597	0.144104
H187	H	0.321124	0.559709	-0.051632
Cl188	Cl	0.288823	0.452812	0.089053
Cl189	Cl	0.132568	0.719910	0.064555
Cl190	Cl	0.599531	0.503155	-0.117892
H191	H	0.748628	0.733635	-0.496492
H192	H	0.726234	0.528175	-0.393817
H193	H	0.815781	0.496800	-0.301443
H194	H	0.815762	0.496793	-0.191943
