data_functionalizedCrystal
_audit_creation_method	'MofGen! by Chris Wilmer'
_symmetry_space_group_name_H-M	'P1'
_symmetry_Int_Tables_number	1
_symmetry_cell_setting	triclinic
loop_
_symmetry_equiv_pos_as_xyz
  x,y,z
_cell_length_a	17.699083
_cell_length_b	15.944551
_cell_length_c	16.176319
_cell_angle_alpha	89.992246
_cell_angle_beta	89.998611
_cell_angle_gamma	83.390877
loop_
_atom_site_label
_atom_site_type_symbol
_atom_site_fract_x
_atom_site_fract_y
_atom_site_fract_z
O1	O	1.004260	0.106222	-0.068632
O2	O	0.783905	0.120042	-0.068660
O3	O	0.900100	-0.009156	-0.068638
O4	O	0.888065	0.235419	-0.068654
O5	O	0.900084	-0.009164	0.068855
O6	O	0.783889	0.120033	0.068833
O7	O	1.004244	0.106214	0.068861
Cu8	Cu	0.894065	0.113123	0.081401
Cu9	Cu	0.894084	0.113133	-0.081200
O10	O	0.888049	0.235411	0.068839
C11	C	0.755700	0.119542	0.000083
C12	C	0.671679	0.118057	0.000073
C13	C	0.899593	-0.040453	0.000109
C14	C	0.898095	-0.133696	0.000109
C15	C	0.623187	0.193893	0.000068
C16	C	0.544242	0.192492	0.000079
C17	C	0.513789	0.115254	0.000089
C18	C	0.562287	0.039412	0.000096
C19	C	0.641231	0.040814	0.000091
C20	C	0.243914	0.033758	0.000117
C21	C	0.164964	0.032362	0.000119
C22	C	0.146925	0.185436	0.000105
C23	C	0.225869	0.186837	0.000100
C24	C	0.274360	0.110996	0.000112
C25	C	0.359962	0.112516	0.000102
C26	C	0.428189	0.113733	0.000093
C27	C	0.822492	-0.348393	0.000088
C28	C	0.857591	-0.409488	0.067885
C29	C	0.895385	-0.304416	0.000102
C30	C	0.857624	-0.409464	-0.067672
C31	C	0.892762	-0.469323	0.000092
C32	C	0.930505	-0.364283	0.067955
C33	C	0.930527	-0.364252	-0.067663
C34	C	0.965680	-0.425329	0.000150
C35	C	0.896894	-0.209417	0.000109
C36	C	0.891259	-0.564321	0.000092
C37	C	1.032450	0.106713	0.000116
C38	C	1.116471	0.108199	0.000121
C39	C	0.888557	0.266708	0.000090
C40	C	0.890055	0.359951	0.000085
N41	N	0.894058	0.113116	0.195767
N42	N	0.894098	0.113133	-0.195565
C43	C	0.945524	0.055930	0.239040
C44	C	0.945528	0.055929	0.325588
C45	C	0.894068	0.113118	0.368859
C46	C	0.842596	0.170306	0.325579
C47	C	0.842589	0.170303	0.239034
C48	C	0.842622	0.170322	0.674608
C49	C	0.842634	0.170323	0.761159
C50	C	0.945561	0.055949	0.761161
C51	C	0.945554	0.055945	0.674616
C52	C	0.894080	0.113130	0.631343
C53	C	0.894075	0.113129	0.537499
C54	C	0.894076	0.113124	0.462702
H55	H	0.647975	0.256789	0.000060
N56	N	0.787083	0.231987	0.192358
H57	H	0.794885	0.223306	0.130967
H58	H	0.733395	0.222357	0.207496
N59	N	0.491939	0.274286	0.000167
H60	H	0.523210	0.323428	0.000186
H61	H	0.458747	0.277104	-0.050769
H62	H	0.800727	0.216895	0.796389
H63	H	0.987460	0.009379	0.639387
N64	N	0.816755	-0.436059	0.143798
H65	H	0.843744	-0.418818	0.195000
H66	H	0.762678	-0.407782	0.143672
N67	N	0.787096	0.231988	0.372254
H68	H	0.795810	0.291591	0.357179
H69	H	0.733405	0.222315	0.357187
H70	H	1.026238	-0.458615	0.000196
H71	H	0.250659	0.249732	0.000088
N72	N	0.742351	-0.304097	0.000160
H73	H	0.714527	-0.321216	-0.050518
H74	H	0.714971	-0.320437	0.051448
H75	H	0.800711	0.216885	0.639382
N76	N	0.971305	-0.337904	0.143961
H77	H	0.972042	-0.274661	0.143509
H78	H	0.943951	-0.354794	0.195057
H79	H	0.537486	-0.023476	0.000116
N80	N	0.094624	0.267240	0.000095
H81	H	0.039992	0.254637	0.000102
H82	H	0.104488	0.300908	0.051059
H83	H	0.826790	-0.429472	-0.124993
N84	N	0.132116	-0.050948	0.000131
H85	H	0.174813	-0.098782	0.000140
H86	H	0.099753	-0.054858	0.051102
N87	N	0.296209	-0.048039	0.000135
H88	H	0.264935	-0.097179	0.000141
H89	H	0.329360	-0.050796	-0.050833
N90	N	1.001056	-0.005741	0.372249
H91	H	0.972157	-0.042907	0.408168
H92	H	1.033640	-0.041897	0.331639
N93	N	1.001080	-0.005731	0.807836
H94	H	0.972167	-0.042888	0.843753
H95	H	1.033666	-0.041898	0.767238
H96	H	0.987432	0.009364	0.203814
N97	N	0.693536	-0.040980	0.000103
H98	H	0.662267	-0.090123	0.000109
H99	H	0.726685	-0.043733	-0.050867
H100	H	0.961339	-0.344183	-0.124975
