data_functionalizedCrystal
_audit_creation_method	'MofGen! by Chris Wilmer'
_symmetry_space_group_name_H-M	'P1'
_symmetry_Int_Tables_number	1
_symmetry_cell_setting	triclinic
loop_
_symmetry_equiv_pos_as_xyz
  x,y,z
_cell_length_a	10.654550
_cell_length_b	12.837942
_cell_length_c	11.295483
_cell_angle_alpha	94.530417
_cell_angle_beta	85.858148
_cell_angle_gamma	89.656935
loop_
_atom_site_label
_atom_site_type_symbol
_atom_site_fract_x
_atom_site_fract_y
_atom_site_fract_z
O1	O	1.691366	0.138803	-0.098934
O2	O	1.327404	0.152685	-0.098956
O3	O	1.501314	-0.005216	-0.098938
O4	O	1.517456	0.296705	-0.098952
O5	O	1.486037	0.008631	0.099111
O6	O	1.312127	0.166533	0.099093
O7	O	1.676089	0.152651	0.099115
Cu8	Cu	1.492713	0.160856	0.117188
Cu9	Cu	1.510780	0.144480	-0.117029
O10	O	1.502179	0.310552	0.099097
C11	C	1.272857	0.158589	0.000066
C12	C	1.133081	0.155539	0.000058
C13	C	1.063741	0.248509	0.000057
C14	C	0.932405	0.245639	0.000078
C15	C	0.939762	0.056819	0.000095
C16	C	1.071095	0.059691	0.000083
C17	C	1.488223	-0.036952	0.000085
C18	C	1.471961	-0.152146	0.000082
C19	C	1.667466	-0.391700	0.000069
C20	C	1.652192	-0.499936	0.000066
C21	C	1.426141	-0.476857	0.000065
C22	C	1.441415	-0.368621	0.000068
C23	C	1.562081	-0.326047	0.000072
C24	C	1.577353	-0.217808	0.000083
C25	C	1.351304	-0.194732	0.000074
C26	C	1.336030	-0.302967	0.000071
C27	C	1.730637	0.146746	0.000091
C28	C	1.870413	0.149796	0.000091
C29	C	1.515270	0.342288	0.000071
C30	C	1.531533	0.457482	0.000066
N31	N	1.480015	0.172373	0.281923
N32	N	1.523488	0.132954	-0.281764
C33	C	1.614892	0.049988	0.531226
C34	C	1.605305	0.058699	0.655889
C35	C	1.451249	0.198501	0.655913
C36	C	1.460835	0.189790	0.531250
C37	C	1.542661	0.115532	0.468911
C38	C	1.552254	0.106826	0.344246
C39	C	1.398191	0.246623	0.344273
C40	C	1.388604	0.255334	0.468935
H41	H	1.127554	-0.016021	0.000087
H42	H	1.618883	0.046364	0.293491
C43	C	1.348834	0.422997	0.305913
C44	C	1.318789	0.318681	0.275777
H45	H	1.299823	0.467482	0.263621
H46	H	1.331409	0.438798	0.389070
H47	H	1.435644	0.433459	0.285465
H48	H	1.231981	0.308217	0.296233
H49	H	1.336204	0.302874	0.192601
H50	H	1.765717	-0.357035	0.000084
C51	C	1.237985	0.260421	0.694347
C52	C	1.361297	0.280104	0.724460
H53	H	1.182450	0.310793	0.736675
H54	H	1.233361	0.264635	0.611198
H55	H	1.214508	0.192489	0.714767
H56	H	1.384777	0.348034	0.704031
H57	H	1.365925	0.275900	0.807628
C58	C	1.043272	0.434861	0.000056
C59	C	1.131877	0.353865	0.000045
H60	H	1.085335	0.499904	0.000059
H61	H	0.997520	0.424986	-0.068999
H62	H	0.986881	0.434632	0.069130
H63	H	1.188262	0.354089	-0.069033
H64	H	1.177649	0.363742	0.069108
C65	C	1.766215	-0.087321	0.543718
C66	C	1.704834	-0.031631	0.462694
H67	H	1.821737	-0.137713	0.501408
H68	H	1.812853	-0.040390	0.592329
H69	H	1.705681	-0.121644	0.592353
H70	H	1.765369	0.002698	0.414065
H71	H	1.658194	-0.078570	0.414063
C72	C	1.175348	0.317281	0.507359
C73	C	1.298663	0.336952	0.537471
H74	H	1.119823	0.367667	0.549676
H75	H	1.170728	0.321484	0.424207
H76	H	1.151856	0.249356	0.527793
H77	H	1.322158	0.404874	0.517028
H78	H	1.303287	0.332759	0.620641
H79	H	0.875954	0.321345	0.000080
H80	H	0.889276	-0.021217	0.000123
H81	H	1.675606	-0.183146	0.000091
C82	C	1.774006	-0.642150	-0.101750
C83	C	1.768036	-0.572102	0.000064
H84	H	1.845532	-0.686697	-0.101755
H85	H	1.699970	-0.682996	-0.101741
H86	H	1.780586	-0.604258	-0.170804
H87	H	1.761446	-0.609994	0.069118
H88	H	1.842090	-0.531252	0.000065
H89	H	1.327900	-0.511541	0.000049
H90	H	1.664121	0.005325	0.706622
H91	H	1.237786	-0.337647	0.000063
H92	H	1.265491	-0.141263	0.000085
