data_functionalizedCrystal
_audit_creation_method	'MofGen! by Chris Wilmer'
_symmetry_space_group_name_H-M	'P1'
_symmetry_Int_Tables_number	1
_symmetry_cell_setting	triclinic
loop_
_symmetry_equiv_pos_as_xyz
  x,y,z
_cell_length_a	16.625546
_cell_length_b	11.169417
_cell_length_c	11.169409
_cell_angle_alpha	90.021649
_cell_angle_beta	89.961577
_cell_angle_gamma	89.979310
loop_
_atom_site_label
_atom_site_type_symbol
_atom_site_fract_x
_atom_site_fract_y
_atom_site_fract_z
Zn1	Zn	-0.320975	-1.834861	-0.678550
Zn2	Zn	-0.455837	-1.834708	-0.477846
Zn3	Zn	-0.321017	-1.634147	-0.477878
Zn4	Zn	-0.455765	-1.634112	-0.678484
O5	O	-0.388398	-1.734457	-0.578190
O6	O	-0.338876	-2.002791	-0.651940
O7	O	-0.438001	-1.808054	-0.309900
O8	O	-0.208179	-1.660851	-0.504539
O9	O	-0.437959	-2.002678	-0.504484
O10	O	-0.208148	-1.808315	-0.651972
O11	O	-0.338950	-1.660702	-0.309924
O12	O	-0.338880	-1.466193	-0.504475
O13	O	-0.437836	-1.660791	-0.846443
O14	O	-0.437878	-1.466167	-0.651860
O15	O	-0.338807	-1.808281	-0.846491
O16	O	-0.568659	-1.808020	-0.504420
O17	O	-0.568607	-1.660643	-0.651828
C18	C	-0.388376	-1.422632	-0.578164
C19	C	-0.388386	-1.289232	-0.578182
C20	C	-0.597889	-1.734343	-0.578140
C21	C	-0.687510	-1.734405	-0.578158
C22	C	-1.015686	-1.734614	-0.578283
C23	C	-0.924377	-1.734552	-0.578252
C24	C	-0.851601	-1.734508	-0.578220
C25	C	-0.760287	-1.734448	-0.578190
C26	C	-0.178089	-1.734604	-0.578266
C27	C	-0.088468	-1.734666	-0.578299
C28	C	-0.388309	-1.734549	-0.891232
C29	C	-0.388271	-1.734589	-1.024632
C30	C	-0.388413	-1.047499	-0.578208
C31	C	-0.388399	-1.180899	-0.578195
C32	C	-0.388429	-1.734434	-0.266365
C33	C	-0.388240	-1.734628	-0.132966
