data_functionalizedCrystal
_audit_creation_method	'MofGen! by Chris Wilmer'
_symmetry_space_group_name_H-M	'P1'
_symmetry_Int_Tables_number	1
_symmetry_cell_setting	triclinic
loop_
_symmetry_equiv_pos_as_xyz
  x,y,z
_cell_length_a	15.455313
_cell_length_b	14.971486
_cell_length_c	14.971486
_cell_angle_alpha	96.385871
_cell_angle_beta	87.331922
_cell_angle_gamma	87.320467
loop_
_atom_site_label
_atom_site_type_symbol
_atom_site_fract_x
_atom_site_fract_y
_atom_site_fract_z
O1	O	0.072031	-1.190856	0.112660
O2	O	0.572031	-0.690856	0.612660
O3	O	0.072055	-0.930457	0.126617
O4	O	0.572055	-0.430457	0.626617
O5	O	0.072036	-1.067635	-0.010561
O6	O	0.572036	-0.567635	0.489439
O7	O	0.072050	-1.053677	0.249838
O8	O	0.572050	-0.553677	0.749838
O9	O	-0.072225	-1.059791	-0.002749
O10	O	0.427775	-0.559791	0.497251
O11	O	-0.072206	-0.922612	0.134430
O12	O	0.427794	-0.422612	0.634430
O13	O	-0.072230	-1.183011	0.120472
O14	O	0.427770	-0.683011	0.620472
Cu15	Cu	-0.085390	-1.052095	0.128164
Cu16	Cu	0.414610	-0.552095	0.628164
Cu17	Cu	0.085215	-1.061372	0.118925
Cu18	Cu	0.585215	-0.561372	0.618925
O19	O	-0.072211	-1.045833	0.257650
O20	O	0.427789	-0.545833	0.757650
C21	C	-0.000073	-0.893210	0.129899
C22	C	0.499927	-0.393210	0.629899
C23	C	-0.000064	-0.793913	0.128028
C24	C	0.499936	-0.293913	0.628028
N25	N	-0.205385	-1.045577	0.134662
N26	N	0.294615	-0.545577	0.634662
C27	C	-0.000094	-1.063089	-0.039980
C28	C	0.499906	-0.563089	0.460020
C29	C	-0.000093	-1.061218	-0.139277
C30	C	0.499907	-0.561218	0.360723
C31	C	-0.250787	-1.103875	0.076405
C32	C	0.249213	-0.603875	0.576405
C33	C	-0.341594	-1.098954	0.081327
C34	C	0.158406	-0.598954	0.581327
C35	C	-0.386998	-1.035738	0.144511
C36	C	0.113002	-0.535738	0.644511
C37	C	-0.341589	-0.977433	0.202770
C38	C	0.158411	-0.477433	0.702770
C39	C	-0.250784	-0.982351	0.197843
C40	C	0.249216	-0.482351	0.697843
C41	C	-0.658576	-1.014511	0.165753
C42	C	-0.158576	-0.514511	0.665753
C43	C	-0.749388	-1.009599	0.170678
C44	C	-0.249388	-0.509599	0.670678
C45	C	-0.749387	-1.131120	0.049233
C46	C	-0.249387	-0.631120	0.549233
C47	C	-0.658579	-1.136036	0.044315
C48	C	-0.158579	-0.636036	0.544315
C49	C	-0.613179	-1.077728	0.102571
C50	C	-0.113179	-0.577728	0.602571
N51	N	-0.479817	-1.030708	0.149545
N52	N	0.020183	-0.530708	0.649545
N53	N	-0.520361	-1.082754	0.097532
N54	N	-0.020361	-0.582754	0.597532
N55	N	0.205210	-1.067898	0.112421
N56	N	0.705210	-0.567898	0.612421
C57	C	-0.000100	-1.220258	0.117190
C58	C	0.499900	-0.720258	0.617190
C59	C	-0.000104	-1.319555	0.119061
C60	C	0.499896	-0.819555	0.619061
C61	C	-0.000061	-0.736688	0.208617
C62	C	0.499939	-0.236688	0.708617
C63	C	-0.000074	-0.643388	0.206854
C64	C	0.499926	-0.143388	0.706854
C65	C	-0.000084	-0.607315	0.124502
C66	C	0.499916	-0.107315	0.624502
C67	C	-0.000089	-0.664548	0.043907
C68	C	0.499911	-0.164548	0.543907
C69	C	-0.000082	-0.757846	0.045670
C70	C	0.499918	-0.257846	0.545670
C71	C	-0.000101	-0.470084	0.040236
C72	C	0.499899	0.029916	0.540236
C73	C	-0.000107	-0.376780	0.038472
C74	C	0.499893	0.123220	0.538472
C75	C	-0.000093	-0.355627	0.201420
C76	C	0.499907	0.144373	0.701420
C77	C	-0.000086	-0.448925	0.203184
C78	C	0.499914	0.051075	0.703184
C79	C	-0.000090	-0.506151	0.122588
C80	C	0.499910	-0.006151	0.622588
C81	C	-0.000101	-1.141807	-0.196502
C82	C	0.499899	-0.641807	0.303498
C83	C	-0.000092	-1.140044	-0.289802
C84	C	0.499908	-0.640044	0.210198
C85	C	-0.000082	-1.057692	-0.325875
C86	C	0.499918	-0.557692	0.174125
C87	C	-0.000071	-0.977097	-0.268643
C88	C	0.499929	-0.477097	0.231357
C89	C	-0.000074	-0.978861	-0.175345
C90	C	0.499926	-0.478861	0.324655
C91	C	-0.000067	-0.973426	-0.463105
C92	C	0.499933	-0.473426	0.036895
C93	C	-0.000066	-0.971661	-0.556409
C94	C	0.499934	-0.471661	-0.056409
C95	C	-0.000086	-1.134609	-0.577562
C96	C	0.499914	-0.634609	-0.077562
C97	C	-0.000089	-1.136373	-0.484264
C98	C	0.499911	-0.636373	0.015736
C99	C	-0.000080	-1.055778	-0.427039
C100	C	0.499920	-0.555778	0.072961
C101	C	-0.000079	-1.050379	0.287069
C102	C	0.499921	-0.550379	0.787069
C103	C	-0.000074	-1.052250	0.386366
C104	C	0.499926	-0.552250	0.886366
H105	H	-0.213825	-1.155356	0.024958
H106	H	0.286175	-0.655356	0.524958
C107	C	-0.391532	-1.163066	0.017218
C108	C	0.108468	-0.663066	0.517218
N109	N	-0.429145	-1.211350	-0.031081
N110	N	0.070855	-0.711350	0.468919
H111	H	-0.786360	-1.178590	0.001802
H112	H	-0.286360	-0.678590	0.501802
H113	H	-0.621618	-0.967036	0.213189
H114	H	-0.121618	-0.467036	0.713189
H115	H	-0.000070	-0.478292	0.270242
H116	H	0.499930	0.021708	0.770242
C117	C	-0.000113	-1.232403	-0.156831
C118	C	0.499887	-0.732403	0.343169
N119	N	-0.000118	-1.300643	-0.126954
N120	N	0.499882	-0.800643	0.373046
H121	H	-0.000084	-0.804438	-0.019954
H122	H	0.499916	-0.304438	0.480046
C123	C	-0.000102	-0.533032	-0.048424
C124	C	0.499898	-0.033032	0.451576
N125	N	-0.000097	-0.580444	-0.115202
N126	N	0.499903	-0.080444	0.384798
C127	C	-0.391536	-0.907886	0.272265
C128	C	0.108464	-0.407886	0.772265
N129	N	-0.429156	-0.855501	0.324609
N130	N	0.070844	-0.355501	0.824609
H131	H	-0.000067	-0.913237	-0.128752
H132	H	0.499933	-0.413237	0.371248
C133	C	-0.000115	-1.228698	-0.352745
C134	C	0.499885	-0.728698	0.147255
N135	N	-0.000136	-1.295476	-0.400154
N136	N	0.499864	-0.795476	0.099846
C137	C	-0.799330	-0.940051	0.240185
C138	C	-0.299330	-0.440051	0.740185
N139	N	-0.836947	-0.887670	0.292536
N140	N	-0.336947	-0.387670	0.792536
H141	H	-0.213818	-0.934877	0.245281
H142	H	0.286182	-0.434877	0.745281
H143	H	-0.621614	-1.187511	-0.007134
H144	H	-0.121614	-0.687511	0.492866
H145	H	-0.000110	-0.635169	-0.023146
H146	H	0.499890	-0.135169	0.476854
C147	C	-0.000067	-0.886507	-0.308326
C148	C	0.499933	-0.386507	0.191674
N149	N	-0.000070	-0.818273	-0.338213
N150	N	0.499930	-0.318273	0.161787
H151	H	-0.000072	-0.904602	-0.585776
H152	H	0.499928	-0.404602	-0.085776
H153	H	-0.000052	-0.766051	0.275678
H154	H	0.499948	-0.266051	0.775678
H155	H	-0.000070	-0.596798	0.272478
H156	H	0.499930	-0.096798	0.772478
H157	H	-0.000093	-0.309028	0.267045
H158	H	0.499907	0.190972	0.767045
H159	H	-0.000116	-0.347413	-0.028587
H160	H	0.499884	0.152587	0.471413
H161	H	-0.000104	-1.203432	-0.454897
H162	H	0.499896	-0.703432	0.045103
H163	H	-0.000091	-1.200233	-0.624160
H164	H	0.499909	-0.700233	-0.124160
H165	H	-0.000058	-0.907796	-0.416514
H166	H	0.499942	-0.407796	0.083486
