data_functionalizedCrystal
_audit_creation_method	'MofGen! by Chris Wilmer'
_symmetry_space_group_name_H-M	'P1'
_symmetry_Int_Tables_number	1
_symmetry_cell_setting	triclinic
loop_
_symmetry_equiv_pos_as_xyz
  x,y,z
_cell_length_a	18.215407
_cell_length_b	18.215405
_cell_length_c	21.395355
_cell_angle_alpha	89.981280
_cell_angle_beta	89.975310
_cell_angle_gamma	90.024268
loop_
_atom_site_label
_atom_site_type_symbol
_atom_site_fract_x
_atom_site_fract_y
_atom_site_fract_z
Zn1	Zn	1.125113	-0.293061	-0.354263
Zn2	Zn	1.125013	-0.416109	-0.249485
Zn3	Zn	1.002035	-0.293062	-0.249499
Zn4	Zn	1.002013	-0.416091	-0.354225
O5	O	1.063543	-0.354581	-0.301868
O6	O	1.228084	-0.309390	-0.340374
O7	O	1.108667	-0.399795	-0.161809
O8	O	1.018412	-0.190077	-0.263418
O9	O	1.228010	-0.399793	-0.263394
O10	O	1.108837	-0.190077	-0.340388
O11	O	1.018315	-0.309392	-0.161819
O12	O	0.899048	-0.309375	-0.263382
O13	O	1.018376	-0.399763	-0.441908
O14	O	0.899032	-0.399764	-0.340323
O15	O	1.108816	-0.309373	-0.441936
O16	O	1.108646	-0.519091	-0.263357
O17	O	1.018279	-0.519078	-0.340309
C18	C	1.063469	-0.545787	-0.301841
C19	C	1.063505	-0.627586	-0.301851
C20	C	0.872337	-0.354568	-0.301850
C21	C	0.790538	-0.354580	-0.301857
C22	C	1.110697	-0.892626	-0.261866
C23	C	1.110667	-0.815767	-0.261852
C24	C	1.016481	-0.815794	-0.341912
C25	C	1.016508	-0.892652	-0.341923
C26	C	1.063620	-0.931065	-0.301901
C27	C	1.063563	-0.777349	-0.301876
C28	C	1.063530	-0.694016	-0.301861
C29	C	1.063653	-1.014404	-0.301915
C30	C	0.602355	-0.401720	-0.341870
C31	C	0.525497	-0.401722	-0.341878
C32	C	0.525483	-0.307455	-0.261879
C33	C	0.602341	-0.307449	-0.261875
C34	C	0.640775	-0.354586	-0.301870
C35	C	0.487059	-0.354594	-0.301882
C36	C	0.403725	-0.354596	-0.301890
C37	C	0.724114	-0.354583	-0.301863
C38	C	1.255496	-0.354594	-0.301886
C39	C	1.337295	-0.354599	-0.301894
C40	C	1.063605	-0.354566	-0.465291
C41	C	1.063631	-0.354559	-0.534933
C42	C	1.063638	-0.162628	-0.301909
C43	C	1.063678	-0.080829	-0.301926
C44	C	1.110721	-0.307491	-0.567661
C45	C	1.110720	-0.307460	-0.633097
C46	C	1.063636	-0.354509	-0.665801
C47	C	1.016537	-0.401581	-0.633064
C48	C	1.016534	-0.401606	-0.567630
C49	C	1.057800	-0.420773	-0.769466
C50	C	1.057808	-0.420749	-0.834899
C51	C	1.063641	-0.354431	-0.867622
C52	C	1.069481	-0.288135	-0.834903
C53	C	1.069479	-0.288160	-0.769469
C54	C	1.063634	-0.354487	-0.736753
C55	C	1.110733	-0.307325	-0.971303
C56	C	1.110726	-0.307292	-1.036740
C57	C	1.016547	-0.401420	-1.036706
C58	C	1.016549	-0.401446	-0.971271
C59	C	1.063646	-0.354400	-0.938573
C60	C	1.063525	-0.354542	-0.139080
C61	C	1.063641	-0.354341	-0.069440
H62	H	1.149058	-0.923900	-0.229277
C63	C	0.644610	-0.255600	-0.217871
C64	C	0.697412	-0.287406	-0.168634
C65	C	0.739682	-0.235558	-0.124635
C66	C	0.729151	-0.151905	-0.129872
C67	C	0.676347	-0.120096	-0.179110
C68	C	0.634076	-0.171943	-0.223110
H69	H	0.705210	-0.349334	-0.164756
H70	H	0.778771	-0.259106	-0.088185
H71	H	0.760442	-0.113524	-0.097300
H72	H	0.668548	-0.058167	-0.182989
H73	H	0.594987	-0.148395	-0.259560
H74	H	0.978124	-0.784510	-0.374498
H75	H	0.494219	-0.440102	-0.374452
H76	H	0.494181	-0.269079	-0.229316
C77	C	0.964720	-0.934942	-0.385963
C78	C	0.996594	-0.987732	-0.435185
C79	C	0.944807	-1.030023	-0.479220
C80	C	0.861144	-1.019525	-0.474033
C81	C	0.829266	-0.966733	-0.424810
C82	C	0.881054	-0.924441	-0.380775
H83	H	1.058530	-0.995505	-0.439025
H84	H	0.968406	-1.069103	-0.515658
H85	H	0.822808	-1.050832	-0.506631
H86	H	0.767330	-0.958959	-0.420969
H87	H	0.857455	-0.885361	-0.344337
H88	H	1.149000	-0.784472	-0.229251
C89	C	0.644634	-0.453563	-0.385868
C90	C	0.602369	-0.505406	-0.429870
C91	C	0.644645	-0.557249	-0.473871
C92	C	0.729185	-0.557249	-0.473868
C93	C	0.771454	-0.505404	-0.429864
C94	C	0.729178	-0.453561	-0.385864
H95	H	0.539783	-0.505408	-0.429873
H96	H	0.613354	-0.595628	-0.506445
H97	H	0.760480	-0.595627	-0.506440
H98	H	0.834040	-0.505402	-0.429861
H99	H	0.760469	-0.415182	-0.353289
H100	H	1.149070	-0.269182	-0.541043
H101	H	1.149065	-0.269127	-0.659750
H102	H	1.074232	-0.234180	-0.742832
H103	H	0.978199	-0.439886	-0.659697
H104	H	1.074233	-0.234133	-0.861545
H105	H	1.149077	-0.269013	-0.944679
C106	C	1.162527	-0.255511	-1.072744
C107	C	1.214328	-0.203765	-1.036774
C108	C	1.266128	-0.151982	-1.072780
C109	C	1.266127	-0.151945	-1.144755
C110	C	1.214324	-0.203693	-1.180729
C111	C	1.162524	-0.255476	-1.144723
H112	H	1.214330	-0.203790	-0.983491
H113	H	1.304475	-0.113675	-1.046149
H114	H	1.304473	-0.113612	-1.171408
H115	H	1.214322	-0.203668	-1.234012
H116	H	1.124177	-0.293784	-1.171354
C117	C	0.964753	-0.453175	-1.072673
C118	C	0.964751	-0.453149	-1.144648
C119	C	0.912953	-0.504904	-1.180618
C120	C	0.861155	-0.556683	-1.144613
C121	C	0.861154	-0.556710	-1.072633
C122	C	0.912953	-0.504956	-1.036664
H123	H	1.003097	-0.414817	-1.171305
H124	H	0.912953	-0.504883	-1.233902
H125	H	0.822810	-0.594994	-1.171240
H126	H	0.822809	-0.595042	-1.045977
H127	H	0.912952	-0.504976	-0.983380
H128	H	0.978208	-0.439778	-0.944623
H129	H	1.053056	-0.474732	-0.861534
H130	H	1.052853	-0.474764	-0.742829
H131	H	0.978184	-0.439933	-0.540983
