data_functionalizedCrystal
_audit_creation_method	'MofGen! by Chris Wilmer'
_symmetry_space_group_name_H-M	'P1'
_symmetry_Int_Tables_number	1
_symmetry_cell_setting	triclinic
loop_
_symmetry_equiv_pos_as_xyz
  x,y,z
_cell_length_a	14.519709
_cell_length_b	23.532407
_cell_length_c	13.596369
_cell_angle_alpha	89.989360
_cell_angle_beta	90.000291
_cell_angle_gamma	83.264412
loop_
_atom_site_label
_atom_site_type_symbol
_atom_site_fract_x
_atom_site_fract_y
_atom_site_fract_z
O1	O	1.222985	0.074654	-0.081674
O2	O	1.722985	0.574654	0.418326
O3	O	0.954404	0.083445	-0.081705
O4	O	1.454404	0.583445	0.418295
O5	O	1.096794	-0.003846	-0.081671
O6	O	1.596794	0.496154	0.418329
O7	O	1.080596	0.161945	-0.081708
O8	O	1.580596	0.661945	0.418292
O9	O	1.096780	-0.003850	0.081912
O10	O	1.596780	0.496150	0.581912
O11	O	0.954390	0.083441	0.081878
O12	O	1.454390	0.583441	0.581878
O13	O	1.222971	0.074649	0.081909
O14	O	1.722971	0.574649	0.581909
Zn15	Zn	1.088678	0.079044	0.107866
Zn16	Zn	1.588678	0.579044	0.607866
Zn17	Zn	1.088697	0.079050	-0.107662
Zn18	Zn	1.588697	0.579050	0.392338
O19	O	1.080582	0.161940	0.081874
O20	O	1.580582	0.661940	0.581874
C21	C	0.920042	0.083033	0.000083
C22	C	1.420042	0.583033	0.500083
C23	C	0.817676	0.081805	0.000071
C24	C	1.317676	0.581805	0.500071
C25	C	1.096374	-0.025066	0.000123
C26	C	1.596374	0.474934	0.500123
C27	C	1.095134	-0.088288	0.000131
C28	C	1.595134	0.411712	0.500131
C29	C	0.442833	0.077286	0.000117
C30	C	0.942833	0.577286	0.500117
C31	C	0.547126	0.078541	0.000104
C32	C	1.047126	0.578541	0.500104
C33	C	0.630251	0.079545	0.000093
C34	C	1.130251	0.579545	0.500093
C35	C	0.734551	0.080801	0.000082
C36	C	1.234551	0.580801	0.500082
C37	C	1.171619	-0.487046	0.000086
C38	C	1.671619	0.012954	0.500086
C39	C	1.170467	-0.546452	0.000078
C40	C	1.670467	-0.046452	0.500078
O41	O	1.241369	-0.582876	0.000050
O42	O	1.741369	-0.082876	0.500050
N43	N	1.085816	-0.569460	0.000069
N44	N	1.585816	-0.069460	0.500069
C45	C	1.002312	-0.533059	0.000057
C46	C	1.502312	-0.033059	0.500057
O47	O	0.930205	-0.558084	0.000048
O48	O	1.430205	-0.058084	0.500048
C49	C	1.003465	-0.473655	0.000058
C50	C	1.503465	0.026345	0.500058
C51	C	1.088121	-0.450650	0.000077
C52	C	1.588121	0.049350	0.500077
C53	C	1.256268	-0.464041	0.000104
C54	C	1.756268	0.035959	0.500104
C55	C	1.257420	-0.404640	0.000113
C56	C	1.757420	0.095360	0.500113
C57	C	1.173922	-0.368244	0.000105
C58	C	1.673922	0.131756	0.500105
C59	C	1.089273	-0.391249	0.000087
C60	C	1.589273	0.108751	0.500087
C61	C	0.919962	-0.437255	0.000039
C62	C	1.419962	0.062745	0.500039
C63	C	0.921123	-0.377847	0.000039
C64	C	1.421123	0.122153	0.500039
C65	C	1.005779	-0.354843	0.000058
C66	C	1.505779	0.145157	0.500058
C67	C	1.006927	-0.295451	0.000087
C68	C	1.506927	0.204549	0.500087
N69	N	1.091578	-0.272443	0.000097
N70	N	1.591578	0.227557	0.500097
C71	C	1.175075	-0.308839	0.000105
C72	C	1.675075	0.191161	0.500105
C73	C	0.999897	-0.657813	0.000055
C74	C	1.499897	-0.157813	0.500055
C75	C	0.998743	-0.717216	0.000061
C76	C	1.498743	-0.217216	0.500061
C77	C	1.166898	-0.730604	0.000080
C78	C	1.666898	-0.230604	0.500080
C79	C	1.168051	-0.671200	0.000080
C80	C	1.668051	-0.171200	0.500080
C81	C	1.084548	-0.634804	0.000064
C82	C	1.584548	-0.134804	0.500064
C83	C	1.177487	-0.184092	0.000126
C84	C	1.677487	0.315908	0.500126
C85	C	1.178632	-0.124685	0.000139
C86	C	1.678632	0.375315	0.500139
C87	C	1.010477	-0.111301	0.000115
C88	C	1.510477	0.388699	0.500115
C89	C	1.009332	-0.170703	0.000107
C90	C	1.509332	0.329297	0.500107
C91	C	1.092845	-0.207098	0.000109
C92	C	1.592845	0.292902	0.500109
O93	O	0.936062	-0.258992	0.000111
O94	O	1.436062	0.241008	0.500111
O95	O	1.247171	-0.283806	0.000102
O96	O	1.747171	0.216194	0.500102
C97	C	1.257333	0.075061	0.000119
C98	C	1.757333	0.575061	0.500119
C99	C	1.359700	0.076289	0.000124
C100	C	1.859700	0.576289	0.500124
C101	C	1.081001	0.183160	0.000078
C102	C	1.581001	0.683160	0.500078
C103	C	1.082241	0.246383	0.000064
C104	C	1.582241	0.746383	0.500064
N105	N	1.088673	0.079040	0.254958
N106	N	1.588673	0.579040	0.754958
N107	N	1.088710	0.079050	-0.254754
N108	N	1.588710	0.579050	0.245246
C109	C	1.088696	0.079051	0.656248
C110	C	1.588696	0.579051	1.156248
C111	C	1.088686	0.079050	0.544597
C112	C	1.588686	0.579050	1.044597
C113	C	1.088685	0.079046	0.455607
C114	C	1.588685	0.579046	0.955607
C115	C	1.088674	0.079044	0.343948
C116	C	1.588674	0.579044	0.843948
H117	H	1.245491	-0.213718	0.000124
H118	H	1.745491	0.286282	0.500124
C119	C	0.917327	-0.195573	0.000038
C120	C	1.417327	0.304427	0.500038
C121	C	0.844451	-0.150981	0.000011
C122	C	1.344451	0.349019	0.500011
C123	C	0.759682	-0.173864	-0.000079
C124	C	1.259682	0.326136	0.499921
H125	H	0.913239	-0.218473	0.057058
H126	H	1.413239	0.281527	0.557058
H127	H	0.913341	-0.218439	-0.057040
H128	H	1.413341	0.281561	0.442960
H129	H	0.848435	-0.128124	0.057083
H130	H	1.348435	0.371876	0.557083
H131	H	0.848509	-0.128078	-0.057004
H132	H	1.348509	0.371922	0.442996
H133	H	0.755696	-0.196730	-0.057157
H134	H	1.255696	0.303270	0.442843
H135	H	0.755603	-0.196764	0.056942
H136	H	1.255603	0.303236	0.556942
H137	H	0.710226	-0.143612	-0.000106
H138	H	1.210226	0.356388	0.499894
H139	H	0.942496	-0.081657	0.000112
H140	H	1.442496	0.418343	0.500112
C141	C	0.906897	-0.742266	-0.000103
C142	C	1.406897	-0.242266	0.499897
C143	C	0.901334	-0.775976	-0.084257
C144	C	1.401334	-0.275976	0.415743
C145	C	0.816741	-0.799065	-0.084442
C146	C	1.316741	-0.299065	0.415558
H147	H	0.857259	-0.712136	-0.000158
H148	H	1.357259	-0.212136	0.499842
H149	H	0.902933	-0.765201	0.056908
H150	H	1.402933	-0.265201	0.556908
H151	H	0.905289	-0.753042	-0.141253
H152	H	1.405289	-0.253042	0.358747
H153	H	0.950951	-0.806115	-0.084220
H154	H	1.450951	-0.306115	0.415780
H155	H	0.812777	-0.822001	-0.027430
H156	H	1.312777	-0.322001	0.472570
H157	H	0.767111	-0.768931	-0.084493
H158	H	1.267111	-0.268931	0.415507
H159	H	0.812959	-0.821944	-0.141534
H160	H	1.312959	-0.321944	0.358466
C161	C	1.270644	-0.099820	0.000105
C162	C	1.770644	0.400180	0.500105
C163	C	1.343517	-0.144413	0.000081
C164	C	1.843517	0.355587	0.500081
C165	C	1.428288	-0.121532	0.000034
C166	C	1.928288	0.378468	0.500034
H167	H	1.274720	-0.076941	0.057138
H168	H	1.774720	0.423059	0.557138
H169	H	1.274644	-0.076933	-0.056959
H170	H	1.774644	0.423067	0.443041
H171	H	1.339519	-0.167290	0.057140
H172	H	1.839519	0.332710	0.557140
H173	H	1.339472	-0.167295	-0.056948
H174	H	1.839472	0.332705	0.443052
H175	H	1.432289	-0.098645	-0.057031
H176	H	1.932289	0.401355	0.442969
H177	H	1.432355	-0.098654	0.057067
H178	H	1.932355	0.401346	0.557067
H179	H	1.477743	-0.151785	0.000008
H180	H	1.977743	0.348215	0.500008
C181	C	1.347003	-0.503483	-0.000035
C182	C	1.847003	-0.003483	0.499965
C183	C	1.398027	-0.493049	-0.084171
C184	C	1.898027	0.006951	0.415829
C185	C	1.481628	-0.529362	-0.084318
C186	C	1.981628	-0.029362	0.415682
H187	H	1.334342	-0.542180	-0.000086
H188	H	1.834342	-0.042180	0.499914
H189	H	1.381774	-0.496489	0.056988
H190	H	1.881774	0.003511	0.556988
H191	H	1.363264	-0.500048	-0.141180
H192	H	1.863264	-0.000048	0.358820
H193	H	1.410713	-0.454360	-0.084138
H194	H	1.910713	0.045640	0.415862
H195	H	1.516399	-0.522367	-0.027295
H196	H	2.016399	-0.022367	0.472705
H197	H	1.468958	-0.568056	-0.084366
H198	H	1.968958	-0.068056	0.415634
H199	H	1.516262	-0.522283	-0.141398
H200	H	2.016262	-0.022283	0.358602
H201	H	0.851027	-0.455975	0.000018
H202	H	1.351027	0.044025	0.500018
C203	C	0.830359	-0.338428	0.000072
C204	C	1.330359	0.161572	0.500072
C205	C	0.755983	-0.371295	0.000078
C206	C	1.255983	0.128705	0.500078
C207	C	0.672360	-0.335003	0.000123
C208	C	1.172360	0.164997	0.500123
H209	H	0.827187	-0.314955	-0.056956
H210	H	1.327187	0.185045	0.443044
H211	H	0.827251	-0.314992	0.057142
H212	H	1.327251	0.185008	0.557142
H213	H	0.759090	-0.394721	-0.056986
H214	H	1.259090	0.105279	0.443014
H215	H	0.759124	-0.394766	0.057101
H216	H	1.259124	0.105234	0.557101
H217	H	0.669252	-0.311566	0.057193
H218	H	1.169252	0.188434	0.557193
H219	H	0.669198	-0.311532	-0.056906
H220	H	1.169198	0.188468	0.443094
H221	H	0.621886	-0.357297	0.000136
H222	H	1.121886	0.142703	0.500136
H223	H	1.326355	-0.385915	0.000125
H224	H	1.826355	0.114085	0.500125
H225	H	1.236985	-0.652474	0.000095
H226	H	1.736985	-0.152474	0.500095
C227	C	1.257528	-0.770154	-0.000126
C228	C	1.757528	-0.270154	0.499874
C229	C	1.261783	-0.804625	-0.084305
C230	C	1.761783	-0.304625	0.415695
C231	C	1.345257	-0.841060	-0.084536
C232	C	1.845257	-0.341060	0.415464
H233	H	1.260660	-0.793670	0.056848
H234	H	1.760660	-0.293670	0.556848
H235	H	1.308140	-0.747968	-0.000174
H236	H	1.808140	-0.247968	0.499826
H237	H	1.211185	-0.826809	-0.084248
H238	H	1.711185	-0.326809	0.415752
H239	H	1.258667	-0.781125	-0.141292
H240	H	1.758667	-0.281125	0.358708
H241	H	1.395868	-0.818874	-0.084583
H242	H	1.895868	-0.318874	0.415417
H243	H	1.348381	-0.864572	-0.027558
H244	H	1.848381	-0.364572	0.472442
H245	H	1.348158	-0.864449	-0.141653
H246	H	1.848158	-0.364449	0.358347
H247	H	0.931894	-0.628182	0.000049
H248	H	1.431894	-0.128182	0.500049
