data_functionalizedCrystal
_audit_creation_method	'MofGen! by Chris Wilmer'
_symmetry_space_group_name_H-M	'P1'
_symmetry_Int_Tables_number	1
_symmetry_cell_setting	triclinic
loop_
_symmetry_equiv_pos_as_xyz
  x,y,z
_cell_length_a	6.817900
_cell_length_b	10.943632
_cell_length_c	10.943881
_cell_angle_alpha	91.769068
_cell_angle_beta	108.843448
_cell_angle_gamma	108.838880
loop_
_atom_site_label
_atom_site_type_symbol
_atom_site_fract_x
_atom_site_fract_y
_atom_site_fract_z
V1	V	-4.115549	-0.178593	-0.402521
O2	O	-4.073257	0.008620	-0.394891
O3	O	-4.093499	-0.354157	-0.399738
O4	O	-4.093535	-0.175829	-0.578089
O5	O	-4.073220	-0.170942	-0.215305
V6	V	-4.592343	-0.156202	-0.380133
O7	O	-4.391566	-0.227709	-0.451633
O8	O	-4.766523	-0.107086	-0.331021
O9	O	-4.391187	0.019361	-0.382916
O10	O	-4.752032	-0.343415	-0.387763
O11	O	-4.752069	-0.163854	-0.567349
O12	O	-4.391151	-0.158966	-0.204565
C13	C	-3.944056	-0.396956	-0.393380
C14	C	-4.007490	-0.540481	-0.392274
C15	C	-3.852335	-0.617634	-0.384921
C16	C	-3.931157	-0.690290	-0.280696
C17	C	-4.041724	-0.723564	-0.494544
C18	C	-4.085431	-0.611233	-0.287975
C19	C	-4.196016	-0.644513	-0.501918
C20	C	-4.274948	-0.717131	-0.397671
C21	C	-3.944100	-0.169480	-0.620883
C22	C	-4.007559	-0.168382	-0.764410
C23	C	-4.237003	-0.174462	-0.855292
C24	C	-4.123548	-0.063483	-0.921048
C25	C	-4.234026	-0.277326	-0.954381
C26	C	-3.893222	-0.057329	-0.828262
C27	C	-4.003774	-0.271270	-0.861603
C28	C	-3.890148	-0.160260	-0.927311
C29	C	-4.203972	0.062153	-0.389270
C30	C	-4.119778	0.205677	-0.390385
C31	C	-4.203927	-0.165320	-0.161764
C32	C	-4.119705	-0.166411	-0.018236
H33	H	-4.023815	-0.772476	-0.581814
H34	H	-4.382911	-0.180341	-0.823422
C35	C	-3.935806	-0.388487	-0.825994
C36	C	-4.073967	-0.466435	-0.766040
C37	C	-4.011425	-0.574428	-0.733203
H38	H	-3.948781	-0.438073	-0.902838
H39	H	-3.786681	-0.359275	-0.767519
H40	H	-4.223055	-0.495648	-0.824512
H41	H	-4.061011	-0.416888	-0.689184
H42	H	-3.862300	-0.545217	-0.674728
H43	H	-4.024401	-0.624004	-0.810052
H44	H	-4.105143	-0.627323	-0.692510
H45	H	-4.378742	-0.370284	-1.009111
C46	C	-3.783109	-0.718100	-0.155891
C47	C	-3.912874	-0.785528	-0.086098
C48	C	-3.776558	-0.811164	0.028872
H49	H	-3.707069	-0.769806	-0.177146
H50	H	-3.678669	-0.638032	-0.103975
H51	H	-4.017274	-0.865584	-0.138004
H52	H	-3.988911	-0.733845	-0.064810
H53	H	-3.672118	-0.731095	0.080788
H54	H	-3.700525	-0.862866	0.007604
H55	H	-3.864580	-0.856906	0.076246
H56	H	-3.673021	-0.574151	-0.379409
H57	H	-4.103254	-0.562473	-0.200588
C58	C	-4.191888	0.053707	-0.956206
C59	C	-4.176537	0.124949	-0.842895
C60	C	-4.239520	0.232894	-0.875232
H61	H	-4.096740	0.107793	-0.995379
H62	H	-4.340207	0.024510	-1.015823
H63	H	-4.028242	0.154147	-0.783300
H64	H	-4.271686	0.070901	-0.803707
H65	H	-4.387839	0.203698	-0.934848
H66	H	-4.144366	0.286970	-0.914406
H67	H	-4.229132	0.281239	-0.798358
C68	C	-3.700132	0.066665	-0.755562
C69	C	-3.518973	0.074160	-0.792813
C70	C	-3.341062	0.188355	-0.725852
H71	H	-3.741778	0.140480	-0.776237
H72	H	-3.660660	0.065214	-0.664185
H73	H	-3.558441	0.075622	-0.884170
H74	H	-3.477261	0.000372	-0.772135
H75	H	-3.301591	0.186904	-0.634475
H76	H	-3.382730	0.262161	-0.746533
H77	H	-3.218119	0.193450	-0.751109
C78	C	-4.513838	-0.774926	-0.404606
C79	C	-4.521317	-0.834673	-0.294080
C80	C	-4.741339	-0.887944	-0.300424
H81	H	-4.573990	-0.707491	-0.407527
H82	H	-4.597861	-0.837994	-0.480961
H83	H	-4.437326	-0.771611	-0.217746
H84	H	-4.461210	-0.902125	-0.291137
H85	H	-4.825362	-0.951012	-0.376779
H86	H	-4.801472	-0.820501	-0.303348
H87	H	-4.746444	-0.928499	-0.225441
H88	H	-4.307255	-0.623713	-0.595461
H89	H	-3.743915	-0.154212	-0.958911
