data_functionalizedCrystal
_audit_creation_method	'MofGen! by Chris Wilmer'
_symmetry_space_group_name_H-M	'P1'
_symmetry_Int_Tables_number	1
_symmetry_cell_setting	triclinic
loop_
_symmetry_equiv_pos_as_xyz
  x,y,z
_cell_length_a	6.817900
_cell_length_b	14.858565
_cell_length_c	17.110486
_cell_angle_alpha	96.084922
_cell_angle_beta	99.060439
_cell_angle_gamma	104.523916
loop_
_atom_site_label
_atom_site_type_symbol
_atom_site_fract_x
_atom_site_fract_y
_atom_site_fract_z
V1	V	-3.982063	-0.128393	-0.246940
O2	O	-3.965114	0.006455	-0.242013
O3	O	-3.938996	-0.254855	-0.245470
O4	O	-3.911836	-0.126293	-0.354540
O5	O	-3.992462	-0.122998	-0.132187
V6	V	-4.467828	-0.112278	-0.233188
O7	O	-4.238403	-0.163741	-0.277106
O8	O	-4.661685	-0.076930	-0.203022
O9	O	-4.287689	0.014184	-0.234659
O10	O	-4.602175	-0.247126	-0.238116
O11	O	-4.574827	-0.117673	-0.347941
O12	O	-4.314848	-0.114378	-0.125589
C13	C	-3.786001	-0.285688	-0.241631
C14	C	-3.831930	-0.389072	-0.241145
C15	C	-4.000033	-0.767645	-0.239380
C16	C	-3.953253	-0.662314	-0.239871
C17	C	-3.915982	-0.578362	-0.240262
C18	C	-3.869201	-0.473025	-0.240754
C19	C	-3.751355	-0.121693	-0.380759
C20	C	-3.775256	-0.120812	-0.468724
C21	C	-3.967967	-0.125040	-0.514089
C22	C	-3.990412	-0.124213	-0.596741
C23	C	-3.820147	-0.119164	-0.634027
C24	C	-3.627419	-0.114933	-0.588655
C25	C	-3.604973	-0.115754	-0.506004
C26	C	-3.878837	-0.116447	-0.883377
C27	C	-3.901300	-0.115629	-0.966035
C28	C	-4.264291	-0.124907	-0.974114
C29	C	-4.241831	-0.125733	-0.891462
C30	C	-4.049104	-0.121497	-0.846097
C31	C	-3.843086	-0.118321	-0.718511
C32	C	-4.026163	-0.122334	-0.761614
C33	C	-4.104027	0.045012	-0.238496
C34	C	-4.037335	0.148395	-0.238986
C35	C	-4.138673	-0.118981	-0.099365
C36	C	-4.094011	-0.119857	-0.011400
H37	H	-4.147332	-0.127650	-0.633673
C38	C	-3.716585	-0.110336	-1.006583
C39	C	-3.757846	-0.189977	-1.064579
C40	C	-3.587736	-0.185142	-1.101940
H41	H	-3.691220	-0.055408	-1.031409
H42	H	-3.598565	-0.107978	-0.967756
H43	H	-3.875830	-0.192325	-1.103400
H44	H	-3.783188	-0.244917	-1.039774
H45	H	-3.469716	-0.182784	-1.063113
H46	H	-3.562383	-0.130211	-1.126761
H47	H	-3.615700	-0.239180	-1.141289
H48	H	-3.488785	-0.110816	-0.619019
C49	C	-3.669793	-0.112122	-0.834116
C50	C	-3.685489	-0.192733	-0.797280
C51	C	-3.492957	-0.188828	-0.751911
H52	H	-3.571557	-0.109084	-0.868121
H53	H	-3.626794	-0.057831	-0.794310
H54	H	-3.728461	-0.247009	-0.837082
H55	H	-3.783687	-0.195787	-0.763262
H56	H	-3.449958	-0.134537	-0.712104
H57	H	-3.394736	-0.185788	-0.785921
H58	H	-3.503585	-0.243516	-0.726907
C59	C	-4.152856	-0.130715	-0.473594
C60	C	-4.189624	-0.211840	-0.437199
C61	C	-4.359948	-0.217103	-0.399899
H62	H	-4.125411	-0.076823	-0.434147
H63	H	-4.270917	-0.133166	-0.512435
H64	H	-4.071590	-0.209382	-0.398362
H65	H	-4.217105	-0.265746	-0.476629
H66	H	-4.478009	-0.219553	-0.438741
H67	H	-4.332486	-0.163206	-0.360456
H68	H	-4.384929	-0.272149	-0.375207
H69	H	-4.380483	-0.129844	-0.861110
H70	H	-4.421203	-0.128355	-1.011059
H71	H	-3.448038	-0.112288	-0.469065
H72	H	-4.164789	-0.126442	-0.731252
H73	H	-3.704462	-0.114214	-0.748879
