data_functionalizedCrystal
_audit_creation_method	'MofGen! by Chris Wilmer'
_symmetry_space_group_name_H-M	'P1'
_symmetry_Int_Tables_number	1
_symmetry_cell_setting	triclinic
loop_
_symmetry_equiv_pos_as_xyz
  x,y,z
_cell_length_a	12.645331
_cell_length_b	12.645330
_cell_length_c	17.077396
_cell_angle_alpha	89.972961
_cell_angle_beta	89.982468
_cell_angle_gamma	90.011625
loop_
_atom_site_label
_atom_site_type_symbol
_atom_site_fract_x
_atom_site_fract_y
_atom_site_fract_z
Zn1	Zn	1.620715	-0.422059	-0.443861
Zn2	Zn	1.620628	-0.599348	-0.312600
Zn3	Zn	1.443445	-0.422095	-0.312608
Zn4	Zn	1.443427	-0.599278	-0.443823
O5	O	1.532054	-0.510695	-0.378223
O6	O	1.769050	-0.445591	-0.426462
O7	O	1.597096	-0.575879	-0.202754
O8	O	1.467004	-0.273743	-0.330039
O9	O	1.768987	-0.575844	-0.330025
O10	O	1.597244	-0.273717	-0.426469
O11	O	1.466920	-0.445652	-0.202760
O12	O	1.295095	-0.445585	-0.330002
O13	O	1.466973	-0.575726	-0.553675
O14	O	1.295082	-0.575761	-0.426405
O15	O	1.597226	-0.445524	-0.553703
O16	O	1.597078	-0.747686	-0.329988
O17	O	1.466889	-0.747635	-0.426397
C18	C	1.256624	-0.510670	-0.378201
C19	C	1.138794	-0.510685	-0.378210
C20	C	1.532000	-0.786125	-0.378205
C21	C	1.532075	-0.903955	-0.378223
C22	C	0.971203	-0.428415	-0.317897
C23	C	1.093763	-0.428628	-0.317631
C24	C	1.094286	-0.622359	-0.355611
C25	C	0.971688	-0.621909	-0.355200
C26	C	0.971632	-0.482344	-0.461353
C27	C	1.094237	-0.479849	-0.460892
C28	C	1.613845	-1.071507	-0.317449
C29	C	1.614111	-0.948946	-0.317598
C30	C	1.562365	-0.948338	-0.460967
C31	C	1.563014	-1.070936	-0.460644
C32	C	1.419982	-1.071280	-0.357069
C33	C	1.420519	-0.948676	-0.355213
C34	C	1.808559	-0.510721	-0.378247
C35	C	1.926389	-0.510732	-0.378256
C36	C	1.532107	-0.510613	-0.582968
C37	C	1.532129	-0.510578	-0.670218
C38	C	1.532136	-0.234190	-0.378259
C39	C	1.532171	-0.116360	-0.378274
C40	C	1.464368	-0.442761	-0.711210
C41	C	1.464385	-0.442737	-0.793191
C42	C	1.532170	-0.510525	-0.834177
C43	C	1.599935	-0.578350	-0.793179
C44	C	1.599911	-0.578378	-0.711200
C45	C	1.599981	-0.578284	-0.964049
C46	C	1.600006	-0.578254	-1.046033
C47	C	1.464454	-0.442642	-1.046040
C48	C	1.464431	-0.442671	-0.964061
C49	C	1.532197	-0.510494	-0.923068
C50	C	1.532061	-0.510700	-0.174275
C51	C	1.532244	-0.510437	-0.087026
H52	H	1.123854	-0.345817	-0.331796
O53	O	1.589018	-0.909206	-0.236326
H54	H	1.516157	-0.860344	-0.238245
O55	O	1.671639	-1.108707	-0.484433
H56	H	1.665265	-1.157522	-0.538225
O57	O	1.669959	-0.908107	-0.485178
H58	H	1.662758	-0.862399	-0.540422
O59	O	1.132780	-0.370996	-0.483469
H60	H	1.100948	-0.349787	-0.541967
O61	O	1.134838	-0.553492	-0.523642
H62	H	1.179607	-0.507356	-0.567927
H63	H	1.595132	-1.101059	-0.255916
H64	H	0.941730	-0.345355	-0.331910
H65	H	0.942653	-0.542300	-0.506327
O66	O	1.723332	-1.112190	-0.335820
H67	H	1.719831	-1.164215	-0.388085
O68	O	1.724178	-0.909988	-0.336180
H69	H	1.724756	-0.822215	-0.336343
H70	H	1.409278	-0.387417	-1.079420
O71	O	1.487652	-1.110247	-0.522728
H72	H	1.450913	-1.041688	-0.552852
O73	O	0.930389	-0.453002	-0.236801
H74	H	0.878323	-0.523594	-0.239298
H75	H	1.655098	-0.633594	-0.677824
H76	H	1.504688	-0.919191	-0.507501
H77	H	1.123050	-0.447391	-0.256053
O78	O	1.132923	-0.705777	-0.412014
H79	H	1.100352	-0.783901	-0.394752
O80	O	0.932400	-0.705896	-0.410890
H81	H	0.961850	-0.688692	-0.470791
O82	O	1.383491	-1.112332	-0.278532
H83	H	1.444918	-1.165331	-0.253735
H84	H	1.397680	-0.919679	-0.294320
H85	H	0.943051	-0.645984	-0.294451
H86	H	1.124951	-0.646847	-0.295515
O87	O	1.335552	-0.908125	-0.409586
H88	H	1.371669	-0.855235	-0.454061
H89	H	1.359128	-1.100287	-0.401370
O90	O	1.673111	-0.651376	-1.090239
H91	H	1.661748	-0.639950	-1.154130
O92	O	0.930708	-0.376357	-0.488581
H93	H	0.877658	-0.342729	-0.443184
H94	H	1.409175	-0.387554	-0.677845
H95	H	1.409203	-0.387518	-0.826563
O96	O	1.391337	-0.369544	-0.919849
H97	H	1.344216	-0.322380	-0.962124
H98	H	1.655173	-0.633503	-0.930675
O99	O	1.673047	-0.651472	-0.837377
H100	H	1.727017	-0.604020	-0.874732
