data_functionalizedCrystal
_audit_creation_method	'MofGen! by Chris Wilmer'
_symmetry_space_group_name_H-M	'P1'
_symmetry_Int_Tables_number	1
_symmetry_cell_setting	triclinic
loop_
_symmetry_equiv_pos_as_xyz
  x,y,z
_cell_length_a	38.066833
_cell_length_b	38.077713
_cell_length_c	38.067077
_cell_angle_alpha	59.999223
_cell_angle_beta	90.000726
_cell_angle_gamma	60.000126
loop_
_atom_site_label
_atom_site_type_symbol
_atom_site_fract_x
_atom_site_fract_y
_atom_site_fract_z
O1	O	-0.299394	-0.251383	0.010441
O2	O	-0.248315	-0.179464	-0.010408
O3	O	-0.248309	-0.251380	0.061526
O4	O	-0.299400	-0.179467	-0.061492
O5	O	-0.189880	-0.309788	0.061525
O6	O	-0.189886	-0.237873	-0.010408
O7	O	-0.240965	-0.309791	0.010441
Cu8	Cu	-0.210091	-0.279165	0.000016
Cu9	Cu	-0.279189	-0.210091	0.000017
O10	O	-0.240971	-0.237876	-0.061493
C11	C	-0.128206	-0.102969	-0.025261
C12	C	-0.149442	-0.060407	-0.025558
C13	C	-0.064589	-0.102976	-0.025258
C14	C	-0.085922	-0.060414	-0.025554
C15	C	-0.128200	-0.039378	-0.025258
C16	C	-0.085928	-0.123908	-0.025557
C17	C	-0.128046	-0.171864	-0.020102
C18	C	-0.148073	-0.195274	-0.016846
C19	C	-0.189965	-0.175175	-0.015213
C20	C	-0.211680	-0.200556	-0.011680
C21	C	-0.211837	-0.131662	-0.016839
C22	C	-0.191811	-0.108252	-0.020097
C23	C	-0.149916	-0.128355	-0.021727
C24	C	-0.191954	0.024196	-0.020097
C25	C	-0.212114	0.064370	-0.016838
C26	C	-0.190374	0.084515	-0.015201
C27	C	-0.212229	0.128072	-0.011665
C28	C	-0.148475	0.064494	-0.016827
C29	C	-0.128317	0.024324	-0.020088
C30	C	-0.150057	0.004175	-0.021721
C31	C	0.004162	-0.171877	-0.020095
C32	C	0.047608	-0.195297	-0.016830
C33	C	0.069400	-0.175204	-0.015194
C34	C	0.116506	-0.200593	-0.011657
C35	C	0.047753	-0.131695	-0.016818
C36	C	0.004308	-0.108275	-0.020081
C37	C	-0.017485	-0.128368	-0.021720
C38	C	-0.463668	-0.431950	0.031670
C39	C	-0.442331	-0.474513	0.031968
C40	C	-0.400057	-0.431945	0.031667
C41	C	-0.378816	-0.474508	0.031965
C42	C	-0.400053	-0.495543	0.031669
C43	C	-0.442334	-0.411012	0.031966
C44	C	-0.617072	-0.317431	0.020155
C45	C	-0.660514	-0.294020	0.016900
C46	C	-0.682305	-0.314119	0.015267
C47	C	-0.729410	-0.288732	0.011729
C48	C	-0.660650	-0.357633	0.016892
C49	C	-0.617210	-0.381044	0.020153
C50	C	-0.595421	-0.360941	0.021785
C51	C	-0.361202	-0.637392	0.020156
C52	C	-0.341178	-0.677567	0.016900
C53	C	-0.299285	-0.697717	0.015262
C54	C	-0.277572	-0.741271	0.011726
C55	C	-0.277414	-0.677692	0.016886
C56	C	-0.297435	-0.637525	0.020149
C57	C	-0.339333	-0.617375	0.021781
C58	C	-0.361221	-0.317411	0.020146
C59	C	-0.341202	-0.293992	0.016882
C60	C	-0.299308	-0.314086	0.015247
C61	C	-0.277601	-0.288694	0.011707
C62	C	-0.277435	-0.357596	0.016871
C63	C	-0.297456	-0.381012	0.020132
C64	C	-0.339348	-0.360918	0.021774
C65	C	-0.548318	-0.386328	0.025317
C66	C	-0.510771	-0.406563	0.028134
C67	C	-0.378352	-0.406553	0.028129
C68	C	-0.361051	-0.386313	0.025310
C69	C	-0.378344	-0.539098	0.028133
C70	C	-0.361040	-0.573817	0.025316
C71	C	-0.400356	-0.057335	-0.406382
C72	C	-0.442635	-0.014773	-0.427622
C73	C	-0.400357	-0.057334	-0.342769
C74	C	-0.442636	-0.014773	-0.364106
C75	C	-0.463972	0.006259	-0.406383
C76	C	-0.379117	-0.078270	-0.364105
C77	C	-0.297310	-0.171859	-0.445224
C78	C	-0.277145	-0.195272	-0.465246
C79	C	-0.298883	-0.175177	-0.507141
C80	C	-0.277024	-0.200566	-0.528849
C81	C	-0.340785	-0.131664	-0.529014
C82	C	-0.360944	-0.108251	-0.508994
C83	C	-0.339205	-0.128350	-0.467097
C84	C	-0.617379	0.148100	-0.509426
C85	C	-0.660822	0.188274	-0.529591
C86	C	-0.682618	0.208426	-0.507856
C87	C	-0.729723	0.251979	-0.529712
C88	C	-0.660964	0.188404	-0.465956
C89	C	-0.617521	0.148238	-0.445795
C90	C	-0.595731	0.128086	-0.467535
C91	C	-0.297312	-0.171857	-0.189365
C92	C	-0.277149	-0.195274	-0.145921
C93	C	-0.298887	-0.175178	-0.124129
C94	C	-0.277029	-0.200566	-0.077024
C95	C	-0.340787	-0.131669	-0.145781
C96	C	-0.360948	-0.108256	-0.189224
C97	C	-0.339205	-0.128352	-0.211014
C98	C	-0.361069	-0.102961	-0.445391
C99	C	-0.378496	-0.082724	-0.428089
C100	C	-0.378497	-0.082723	-0.295666
C101	C	-0.361070	-0.102960	-0.258119
C102	C	-0.511077	0.049812	-0.428244
C103	C	-0.548624	0.084530	-0.445670
O104	O	0.255055	-0.309827	0.010457
O105	O	0.132036	-0.237907	-0.010392
O106	O	0.203968	-0.309825	0.061542
O107	O	0.183123	-0.237909	-0.061476
O108	O	0.203973	-0.251418	0.061545
O109	O	0.132041	-0.179500	-0.010389
O110	O	0.255060	-0.251420	0.010460
Cu111	Cu	0.193551	-0.210127	0.000036
Cu112	Cu	0.193545	-0.279200	0.000033
O113	O	0.183128	-0.179502	-0.061474
O114	O	-0.240936	0.244468	0.010457
O115	O	-0.189856	0.142327	-0.010391
O116	O	-0.189853	0.142323	0.061542
O117	O	-0.240939	0.244472	-0.061476
O118	O	-0.248283	0.142328	0.061539
O119	O	-0.248286	0.142333	-0.010394
O120	O	-0.299366	0.244473	0.010454
Cu121	Cu	-0.279161	0.193404	0.000030
Cu122	Cu	-0.210061	0.193397	0.000034
O123	O	-0.299369	0.244478	-0.061479
O124	O	-0.868276	0.368376	-0.558429
O125	O	-0.745256	0.266237	-0.507341
O126	O	-0.817185	0.266231	-0.507340
O127	O	-0.796348	0.368382	-0.558430
O128	O	-0.817184	0.266230	-0.565766
O129	O	-0.745255	0.266236	-0.565767
O130	O	-0.868275	0.368374	-0.616855
Cu131	Cu	-0.806765	0.317305	-0.596646
Cu132	Cu	-0.806766	0.317306	-0.527550
O133	O	-0.796346	0.368380	-0.616856
O134	O	-0.248308	-0.251381	-0.616568
O135	O	-0.299397	-0.179470	-0.565483
O136	O	-0.299392	-0.251385	-0.565481
O137	O	-0.248313	-0.179466	-0.616571
O138	O	-0.240963	-0.309794	-0.507053
O139	O	-0.240967	-0.237880	-0.507056
O140	O	-0.189879	-0.309790	-0.558141
Cu141	Cu	-0.210088	-0.279168	-0.527264
Cu142	Cu	-0.279187	-0.210092	-0.596361
O143	O	-0.189884	-0.237875	-0.558143
C144	C	-0.064592	-0.449891	0.321766
C145	C	-0.085929	-0.428859	0.343005
C146	C	-0.128208	-0.386297	0.258152
C147	C	-0.149448	-0.365362	0.279488
C148	C	-0.128208	-0.386297	0.321765
C149	C	-0.085929	-0.428859	0.279488
C150	C	0.004162	-0.513462	0.321601
C151	C	0.047608	-0.553635	0.341625
C152	C	0.069397	-0.573783	0.383517
C153	C	0.116504	-0.617340	0.405230
C154	C	0.047745	-0.553765	0.405391
C155	C	0.004302	-0.513596	0.385368
C156	C	-0.017488	-0.493444	0.343473
C157	C	-0.128043	-0.381302	0.385521
C158	C	-0.148068	-0.358027	0.405682
C159	C	-0.189960	-0.314514	0.383945
C160	C	-0.211674	-0.289274	0.405802
C161	C	-0.211836	-0.294273	0.342047
C162	C	-0.191812	-0.317548	0.321887
C163	C	-0.149916	-0.361061	0.343624
C164	C	-0.128043	-0.381301	0.189399
C165	C	-0.148067	-0.358022	0.145953
C166	C	-0.189959	-0.314509	0.124164
C167	C	-0.211673	-0.289269	0.077058
C168	C	-0.211832	-0.294269	0.145813
C169	C	-0.191811	-0.317544	0.189257
C170	C	-0.149916	-0.361061	0.211049
C171	C	0.218836	-0.386343	0.321785
C172	C	0.219130	-0.428904	0.343023
C173	C	0.218833	-0.386340	0.258170
C174	C	0.219127	-0.428901	0.279505
C175	C	0.218830	-0.449934	0.321783
C176	C	0.219133	-0.365406	0.279507
C177	C	0.213679	-0.317447	0.321621
C178	C	0.210424	-0.294036	0.341646
C179	C	0.208789	-0.314133	0.383538
C180	C	0.205258	-0.288750	0.405251
C181	C	0.210414	-0.357645	0.405411
C182	C	0.213671	-0.381057	0.385388
C183	C	0.215302	-0.360956	0.343493
C184	C	0.213665	-0.513506	0.385538
C185	C	0.210404	-0.553678	0.405699
C186	C	0.208767	-0.573825	0.383961
C187	C	0.205229	-0.617381	0.405817
C188	C	0.210394	-0.553806	0.342062
C189	C	0.213657	-0.513636	0.321903
C190	C	0.215290	-0.493487	0.343641
C191	C	0.213674	-0.317441	0.189418
C192	C	0.210410	-0.294024	0.145972
C193	C	0.208772	-0.314118	0.124182
C194	C	0.205238	-0.288731	0.077076
C195	C	0.210395	-0.357626	0.145830
C196	C	0.213657	-0.381044	0.189275
C197	C	0.215296	-0.360950	0.211067
C198	C	-0.128181	-0.103012	0.321772
C199	C	-0.085901	-0.123953	0.343012
C200	C	-0.128181	-0.039412	0.258163
C201	C	-0.085901	-0.060450	0.279499
C202	C	-0.064564	-0.103018	0.321775
C203	C	-0.149421	-0.060444	0.279496
C204	C	-0.191941	-0.108000	0.321603
C205	C	-0.212104	-0.131275	0.341624
C206	C	-0.190366	-0.174793	0.383514
C207	C	-0.212225	-0.200033	0.405224
C208	C	-0.148465	-0.195041	0.405389
C209	C	-0.128304	-0.171766	0.385370
C210	C	-0.150042	-0.128248	0.343476
C211	C	0.004191	-0.171927	0.385531
C212	C	0.047637	-0.195346	0.405693
C213	C	0.069427	-0.175249	0.383958
C214	C	0.116534	-0.200640	0.405816
C215	C	0.047775	-0.131731	0.342061
C216	C	0.004331	-0.108313	0.321901
C217	C	-0.017459	-0.128413	0.343636
C218	C	-0.191941	0.024173	0.189409
C219	C	-0.212102	0.064349	0.145964
C220	C	-0.190364	0.084498	0.124178
C221	C	-0.212223	0.128062	0.077073
C222	C	-0.148465	0.064473	0.145828
C223	C	-0.128302	0.024297	0.189272
C224	C	-0.150042	0.004149	0.211060
C225	C	0.161911	0.005958	-0.406365
C226	C	0.161611	-0.015072	-0.427605
C227	C	0.161908	-0.057636	-0.342752
C228	C	0.161608	-0.078570	-0.364088
C229	C	0.161905	-0.057633	-0.406366
C230	C	0.161614	-0.015074	-0.364087
C231	C	0.173439	0.147797	-0.445207
C232	C	0.176698	0.187970	-0.465229
C233	C	0.178332	0.208122	-0.507124
C234	C	0.181874	0.251675	-0.528832
C235	C	0.176704	0.188102	-0.528997
C236	C	0.173440	0.147937	-0.508977
C237	C	0.171807	0.127784	-0.467080
C238	C	0.173414	-0.107975	-0.509409
C239	C	0.176667	-0.131246	-0.529574
C240	C	0.178301	-0.174762	-0.507839
C241	C	0.181835	-0.200000	-0.529695
C242	C	0.176676	-0.195003	-0.465938
C243	C	0.173415	-0.171729	-0.445778
C244	C	0.171787	-0.128213	-0.467518
C245	C	0.173428	-0.107987	-0.189348
C246	C	0.176690	-0.131263	-0.145903
C247	C	0.178321	-0.174779	-0.124111
C248	C	0.181860	-0.200020	-0.077006
C249	C	0.176695	-0.195018	-0.145764
C250	C	0.173435	-0.171742	-0.189206
C251	C	0.171798	-0.128222	-0.210996
C252	C	0.168271	0.084228	-0.445374
C253	C	0.165451	0.049511	-0.428071
C254	C	0.165445	-0.082873	-0.295648
C255	C	0.168263	-0.102989	-0.258102
C256	C	0.165439	-0.082868	-0.428226
C257	C	0.168255	-0.102982	-0.445652
O258	O	0.183134	-0.237928	0.492966
O259	O	0.203985	-0.309842	0.441884
O260	O	0.132050	-0.237928	0.441877
O261	O	0.255068	-0.309843	0.492973
O262	O	0.132053	-0.179519	0.383451
O263	O	0.203988	-0.251433	0.383458
O264	O	0.183137	-0.179519	0.434540
Cu265	Cu	0.193562	-0.210143	0.403664
Cu266	Cu	0.193559	-0.279218	0.472760
O267	O	0.255071	-0.251433	0.434547
C268	C	-0.463670	0.568101	-0.406360
C269	C	-0.442334	0.589038	-0.427597
C270	C	-0.400054	0.504496	-0.342747
C271	C	-0.378815	0.525529	-0.364080
C272	C	-0.400055	0.568097	-0.406356
C273	C	-0.442334	0.525534	-0.364084
C274	C	-0.617078	0.618461	-0.445210
C275	C	-0.660522	0.641737	-0.465233
C276	C	-0.682315	0.685260	-0.507127
C277	C	-0.729422	0.710505	-0.528837
C278	C	-0.660662	0.705502	-0.528997
C279	C	-0.617220	0.682222	-0.508975
C280	C	-0.595428	0.638699	-0.467080
C281	C	-0.361209	0.682628	-0.509387
C282	C	-0.341185	0.706041	-0.529548
C283	C	-0.299290	0.685943	-0.507811
C284	C	-0.277579	0.711328	-0.529664
C285	C	-0.277417	0.642425	-0.465912
C286	C	-0.297436	0.619008	-0.445755
C287	C	-0.339337	0.639117	-0.467497
C288	C	-0.361206	0.362633	-0.189349
C289	C	-0.341184	0.322456	-0.145906
C290	C	-0.299287	0.302299	-0.124112
C291	C	-0.277577	0.258739	-0.077008
C292	C	-0.277416	0.322322	-0.145761
C293	C	-0.297440	0.362498	-0.189203
C294	C	-0.339335	0.382648	-0.210995
C295	C	-0.548323	0.613462	-0.445372
C296	C	-0.510775	0.593343	-0.428068
C297	C	-0.378346	0.460936	-0.295645
C298	C	-0.361042	0.426212	-0.258099
C299	C	-0.378347	0.593486	-0.428213
C300	C	-0.361043	0.613724	-0.445636
H301	H	-0.209660	0.007796	-0.021430
H302	H	-0.094189	-0.188251	0.403182
Br303	Br	0.160828	0.014255	-0.335533
H304	H	0.178025	0.204266	-0.447416
H305	H	0.214986	-0.497341	0.287791
Br306	Br	0.208197	-0.384922	0.462269
Br307	Br	0.076984	-0.254343	-0.014627
H308	H	0.178024	-0.230453	-0.128018
H309	H	-0.599335	-0.301059	0.021485
H310	H	-0.279602	-0.188219	-0.207107
H311	H	-0.599893	0.131942	-0.411682
Br312	Br	-0.267804	-0.199137	-0.388367
H313	H	-0.130263	-0.230700	-0.015524
H314	H	-0.013581	-0.188239	-0.021432
H315	H	-0.209645	0.007771	0.207149
H316	H	-0.678149	0.625254	-0.447423
Br317	Br	-0.207317	-0.031102	0.250941
Br318	Br	-0.370291	-0.104392	-0.116209
H319	H	-0.243030	-0.230700	-0.447434
H320	H	-0.459469	0.507939	-0.346955
Br321	Br	-0.071189	-0.199147	-0.022316
Br322	Br	-0.418063	0.389979	-0.218925
Br323	Br	-0.690206	0.215439	-0.586450
H324	H	-0.395063	-0.072829	-0.206851
H325	H	-0.344077	0.507922	-0.346948
Br326	Br	-0.587823	-0.440095	0.022363
Br327	Br	0.077018	-0.254402	0.462550
Br328	Br	-0.025055	-0.049255	0.265044
Br329	Br	-0.587503	0.559387	-0.388360
H330	H	-0.459465	0.623289	-0.462334
H331	H	-0.245950	-0.258840	0.324350
Br332	Br	-0.268966	-0.103795	0.311938
Br333	Br	-0.370869	0.295288	-0.116527
Br334	Br	-0.690237	0.764561	-0.585851
Br335	Br	-0.207333	-0.308254	0.250926
Br336	Br	0.160809	0.014268	-0.485503
H337	H	0.214976	-0.416469	0.206900
H338	H	-0.459468	-0.376760	0.032440
H339	H	-0.599592	0.698704	-0.526785
Br340	Br	-0.690537	0.215757	-0.436459
H341	H	0.161128	-0.112818	-0.346958
Br342	Br	0.208168	-0.384897	0.116256
Br343	Br	0.171230	-0.199212	-0.218588
H344	H	-0.243034	-0.230701	-0.128294
Br345	Br	-0.370280	-0.104389	-0.585871
Br346	Br	-0.418069	0.709915	-0.538893
Br347	Br	0.208200	-0.580847	0.462560
H348	H	-0.358998	0.741473	-0.563660
H349	H	-0.395333	-0.301044	0.021478
Br350	Br	-0.118958	0.091815	0.116258
H351	H	-0.130253	-0.374513	0.439797
Br352	Br	-0.057383	-0.458202	0.400904
Br353	Br	-0.221498	-0.290086	0.265030
H354	H	-0.395058	-0.072822	-0.526807
Br355	Br	0.215894	-0.290167	0.264764
Br356	Br	0.215900	-0.290171	0.218992
H357	H	0.209061	-0.570216	0.324365
Br358	Br	-0.057346	-0.031118	0.250952
Br359	Br	-0.057381	-0.458198	0.250939
H360	H	0.178024	-0.114787	-0.128274
Br361	Br	-0.370889	-0.234941	0.014674
H362	H	-0.243302	0.626056	-0.448216
H363	H	0.214994	-0.416484	0.403198
H364	H	0.219610	-0.446504	0.262375
Br365	Br	-0.118964	-0.254105	0.462245
Br366	Br	-0.587808	0.120756	-0.538930
Br367	Br	-0.320921	-0.503843	0.032758
Br368	Br	-0.220579	-0.384868	0.014649
H369	H	-0.209622	-0.301060	0.206883
Br370	Br	-0.268695	-0.104382	-0.014624
H371	H	-0.279625	-0.621224	0.021472
Br372	Br	-0.057362	-0.181016	0.400920
Br373	Br	0.208225	-0.234992	0.311964
Br374	Br	-0.471187	0.014570	-0.335560
Br375	Br	-0.267751	0.559950	-0.388899
H376	H	-0.246229	0.080668	-0.015516
H377	H	0.214998	-0.497104	0.403242
H378	H	-0.209621	-0.072822	-0.021424
Br379	Br	0.077350	-0.104455	0.312565
Br380	Br	-0.268688	-0.235205	0.116238
Br381	Br	-0.321221	-0.135356	-0.335550
Br382	Br	-0.221444	-0.048938	0.264748
H383	H	-0.130776	0.080903	-0.015495
H384	H	-0.130254	-0.374508	0.128331
H385	H	0.172114	0.131639	-0.526789
Br386	Br	0.219932	-0.458248	0.400921
H387	H	-0.184181	-0.042801	-0.026041
H388	H	-0.093931	-0.416736	0.207141
H389	H	-0.094204	0.008025	-0.021414
H390	H	-0.013577	-0.497057	0.287489
Br391	Br	-0.689900	-0.234968	0.014690
H392	H	0.065233	-0.569930	0.323813
Br393	Br	-0.267756	0.389668	-0.218581
Br394	Br	-0.071437	-0.002882	0.218654
H395	H	0.065494	-0.570176	0.439504
H396	H	-0.013326	-0.497299	0.403179
Br397	Br	0.077331	-0.104428	-0.014589
Br398	Br	-0.220554	0.294965	-0.116187
Br399	Br	-0.025071	-0.049227	-0.022286
H400	H	-0.013549	-0.188295	0.403232
H401	H	-0.459460	-0.492116	0.032446
H402	H	-0.678395	-0.373995	0.015565
Br403	Br	0.171223	0.120450	-0.388349
Br404	Br	-0.071183	-0.440356	0.415024
Br405	Br	-0.418057	-0.610053	0.022377
H406	H	0.172085	-0.072542	-0.527114
Br407	Br	0.219932	-0.308324	0.250956
Br408	Br	0.208205	-0.234976	0.116593
Br409	Br	0.171209	-0.048928	-0.218919
H410	H	-0.246217	0.080651	0.128340
Br411	Br	0.178917	0.215456	-0.585854
H412	H	0.177992	-0.114763	-0.563687
H413	H	0.178000	-0.230432	-0.448244
H414	H	-0.358988	-0.693866	0.015575
H415	H	-0.068790	-0.042813	-0.026034
Br416	Br	0.171206	-0.199197	-0.388919
H417	H	-0.243302	-0.694101	0.015556
Br418	Br	-0.057376	-0.180997	-0.026345
H419	H	-0.459761	0.002833	-0.462362
Br420	Br	-0.267770	-0.440061	0.022337
