data_functionalizedCrystal
_audit_creation_method	'MofGen! by Chris Wilmer'
_symmetry_space_group_name_H-M	'P1'
_symmetry_Int_Tables_number	1
_symmetry_cell_setting	triclinic
loop_
_symmetry_equiv_pos_as_xyz
  x,y,z
_cell_length_a	10.723024
_cell_length_b	11.792241
_cell_length_c	9.798715
_cell_angle_alpha	89.996704
_cell_angle_beta	89.996609
_cell_angle_gamma	84.330643
loop_
_atom_site_label
_atom_site_type_symbol
_atom_site_fract_x
_atom_site_fract_y
_atom_site_fract_z
O1	O	1.656766	0.159192	-0.113483
O2	O	1.293573	0.174430	-0.113488
O3	O	1.483983	0.001660	-0.113475
O4	O	1.466356	0.331962	-0.113495
O5	O	1.483969	0.001659	0.113507
O6	O	1.293559	0.174430	0.113495
O7	O	1.656752	0.159192	0.113499
Zn8	Zn	1.475153	0.166811	0.149535
Zn9	Zn	1.475172	0.166811	-0.149523
O10	O	1.466342	0.331962	0.113487
C11	C	1.247070	0.173321	0.000003
C12	C	1.108524	0.170003	0.000001
C13	C	1.033286	0.266676	-0.000005
C14	C	0.890091	0.263249	-0.000007
C15	C	1.482869	-0.040634	0.000015
C16	C	1.479555	-0.166655	0.000014
C17	C	1.473461	-0.397380	-0.000009
C18	C	1.476847	-0.268988	0.000003
C19	C	1.703256	0.160301	0.000006
C20	C	1.841801	0.163619	-0.000002
C21	C	1.467456	0.374255	-0.000006
C22	C	1.470770	0.500276	-0.000014
N23	N	1.475150	0.166809	0.353635
N24	N	1.475186	0.166803	-0.353623
C25	C	1.555098	0.093948	0.421417
C26	C	1.555118	0.093944	0.578580
H27	H	1.623527	0.031567	0.363099
H28	H	1.074882	0.351978	-0.000002
H29	H	1.623571	0.031569	0.636869
O30	O	1.393693	0.241279	0.576708
C31	C	1.461288	0.311625	0.494066
H32	H	1.558534	0.266979	0.472781
H33	H	1.470549	0.395578	0.549048
C34	C	1.271815	0.390207	0.384416
C35	C	1.391250	0.335367	0.358263
H36	H	1.228611	0.404858	0.300648
H37	H	1.226273	0.342817	0.440096
H38	H	1.279549	0.460162	0.430238
H39	H	1.383515	0.265408	0.312458
H40	H	1.436790	0.382747	0.302571
H41	H	1.066928	0.084701	-0.000028
O42	O	1.393331	0.241113	0.423139
C43	C	1.269556	0.222001	0.388322
H44	H	1.268019	0.131182	0.348954
H45	H	1.233428	0.284754	0.305495
C46	C	1.187120	0.350582	0.563707
C47	C	1.185230	0.239034	0.515366
H48	H	1.135101	0.361093	0.642071
H49	H	1.270509	0.363462	0.587162
H50	H	1.157015	0.402863	0.494673
H51	H	1.215348	0.186755	0.584393
H52	H	1.101843	0.226145	0.491926
O53	O	0.812794	0.361881	0.000044
C54	C	0.687031	0.336502	0.000005
H55	H	0.681554	0.247294	0.042984
H56	H	0.649428	0.340469	-0.108892
C57	C	0.614573	0.533492	0.036222
C58	C	0.607846	0.423929	0.089019
H59	H	0.565726	0.587423	0.091124
H60	H	0.699302	0.550591	0.036243
H61	H	0.583240	0.536781	-0.054525
H62	H	0.639194	0.420637	0.179758
H63	H	0.523121	0.406831	0.089016
H64	H	0.906445	0.080854	-0.000005
