data_functionalizedCrystal
_audit_creation_method	'MofGen! by Chris Wilmer'
_symmetry_space_group_name_H-M	'P1'
_symmetry_Int_Tables_number	1
_symmetry_cell_setting	triclinic
loop_
_symmetry_equiv_pos_as_xyz
  x,y,z
_cell_length_a	10.489711
_cell_length_b	14.853567
_cell_length_c	13.930277
_cell_angle_alpha	90.000757
_cell_angle_beta	90.008751
_cell_angle_gamma	84.080970
loop_
_atom_site_label
_atom_site_type_symbol
_atom_site_fract_x
_atom_site_fract_y
_atom_site_fract_z
O1	O	-1.692655	-0.127067	-0.079857
O2	O	-1.321320	-0.139034	-0.079850
O3	O	-1.516906	-0.001876	-0.079856
O4	O	-1.497068	-0.264225	-0.079850
O5	O	-1.516879	-0.001873	0.079805
O6	O	-1.321293	-0.139031	0.079812
O7	O	-1.692627	-0.127064	0.079805
Zn8	Zn	-1.506956	-0.133047	0.105158
Zn9	Zn	-1.506991	-0.133051	-0.105203
O10	O	-1.497041	-0.264222	0.079812
C11	C	-1.515994	0.031720	-0.000028
C12	C	-1.513300	0.131818	-0.000037
C13	C	-1.273784	-0.138134	-0.000018
C14	C	-1.132183	-0.135447	-0.000016
C15	C	-1.740163	-0.127964	-0.000029
C16	C	-1.881764	-0.130651	-0.000037
C17	C	-0.948870	-0.217930	-0.000025
C18	C	-1.041492	-0.176730	-0.078747
C19	C	-1.041438	-0.176705	0.078668
C20	C	-0.972521	-0.089415	-0.078823
C21	C	-0.972458	-0.089401	0.078662
C22	C	-1.065052	-0.048138	-0.000079
C23	C	-1.497953	-0.297818	-0.000019
C24	C	-1.500647	-0.397916	-0.000017
N25	N	-1.506941	-0.133044	0.248724
C26	C	-1.385731	0.545058	-0.000016
C27	C	-1.618092	0.565053	-0.000020
C28	C	-1.620625	0.471006	-0.000026
C29	C	-1.505709	0.413979	-0.000025
C30	C	-1.388260	0.451001	-0.000019
C31	C	-1.738071	0.433977	-0.000023
C32	C	-1.740609	0.339924	-0.000027
C33	C	-1.625692	0.282896	-0.000033
C34	C	-1.508238	0.319923	-0.000028
C35	C	-1.393322	0.262896	-0.000027
C36	C	-1.275867	0.299922	-0.000029
C37	C	-1.273343	0.393973	-0.000025
C38	C	-1.628216	0.188844	-0.000037
C39	C	-1.395851	0.168840	-0.000030
N40	N	-1.507017	-0.133047	-0.248769
C41	C	-1.420382	-0.193761	0.700996
C42	C	-1.593636	-0.072335	0.700960
C43	C	-1.593620	-0.072332	0.600464
C44	C	-1.506986	-0.133045	0.550230
C45	C	-1.420367	-0.193761	0.600491
C46	C	-1.680247	-0.011622	0.550196
C47	C	-1.680236	-0.011618	0.449694
C48	C	-1.593594	-0.072328	0.399458
C49	C	-1.506971	-0.133046	0.449725
C50	C	-1.420337	-0.193759	0.399491
C51	C	-1.333706	-0.254474	0.449756
C52	C	-1.333726	-0.254471	0.550255
C53	C	-1.593575	-0.072330	0.298959
C54	C	-1.420321	-0.193760	0.298986
H55	H	-0.898375	-0.289668	-0.000102
H56	H	-1.349768	-0.243197	0.258091
F57	F	-1.241537	-0.319085	0.603755
H58	H	-1.750788	0.037804	0.591100
F59	F	-1.148351	0.433384	-0.000030
H60	H	-1.750773	0.037820	0.408774
H61	H	-1.290102	0.575208	-0.000021
F62	F	-0.932815	-0.041182	-0.165910
H63	H	-1.263173	-0.303911	0.408844
H64	H	-1.302271	0.122414	-0.000034
F65	F	-1.740386	0.625746	-0.000007
F66	F	-1.130762	0.045711	-0.000134
F67	F	-1.685774	-0.007723	0.245468
H68	H	-1.831629	0.480414	-0.000014
H69	H	-1.836247	0.309786	-0.000027
F70	F	-1.328183	-0.258372	0.754490
F71	F	-1.153570	0.239220	-0.000021
F72	F	-1.753210	0.149443	-0.000020
F73	F	-1.685842	-0.007727	0.754423
F74	F	-1.081464	-0.225000	-0.165738
H75	H	-1.071968	-0.213649	0.145221
F76	F	-0.932432	-0.041169	0.165654
