data_functionalizedCrystal
_audit_creation_method	'MofGen! by Chris Wilmer'
_symmetry_space_group_name_H-M	'P1'
_symmetry_Int_Tables_number	1
_symmetry_cell_setting	triclinic
loop_
_symmetry_equiv_pos_as_xyz
  x,y,z
_cell_length_a	10.654541
_cell_length_b	15.944551
_cell_length_c	9.130307
_cell_angle_alpha	89.995755
_cell_angle_beta	89.999822
_cell_angle_gamma	83.991333
loop_
_atom_site_label
_atom_site_type_symbol
_atom_site_fract_x
_atom_site_fract_y
_atom_site_fract_z
O1	O	1.666312	0.117965	-0.121758
O2	O	1.300688	0.129208	-0.121771
O3	O	1.493485	0.001369	-0.121751
O4	O	1.473516	0.245804	-0.121778
O5	O	1.493478	0.001368	0.121848
O6	O	1.300682	0.129206	0.121828
O7	O	1.666306	0.117964	0.121841
Cu8	Cu	1.483493	0.123585	0.144077
Cu9	Cu	1.483501	0.123587	-0.144007
O10	O	1.473509	0.245802	0.121821
C11	C	1.253897	0.128382	0.000027
C12	C	1.114486	0.125914	0.000022
C13	C	1.492652	-0.029930	0.000049
C14	C	1.490167	-0.123190	0.000049
C15	C	1.084537	0.278779	-0.000013
C16	C	1.004069	0.354048	-0.000036
C17	C	0.873081	0.351724	-0.000038
C18	C	0.822560	0.274122	-0.000011
C19	C	0.903028	0.198852	0.000012
C20	C	1.034017	0.201185	0.000009
C21	C	0.932976	0.045989	0.000058
C22	C	1.063965	0.048311	0.000049
C23	C	0.882455	-0.031613	0.000085
C24	C	0.962924	-0.106885	0.000098
C25	C	1.093919	-0.104557	0.000097
C26	C	1.144433	-0.026958	0.000072
C27	C	1.364722	-0.338772	0.000025
C28	C	1.422972	-0.399453	0.120136
C29	C	1.485671	-0.293942	0.000038
C30	C	1.423006	-0.399435	-0.120034
C31	C	1.481319	-0.458880	0.000021
C32	C	1.543954	-0.353395	0.120248
C33	C	1.543971	-0.353371	-0.120029
C34	C	1.602309	-0.414034	0.000111
C35	C	1.488175	-0.198925	0.000049
C36	C	1.478825	-0.553896	0.000020
C37	C	1.713097	0.118790	0.000040
C38	C	1.852508	0.121258	0.000035
C39	C	1.474342	0.277102	0.000018
C40	C	1.476827	0.370362	0.000008
N41	N	1.483497	0.123584	0.346700
N42	N	1.483507	0.123582	-0.346630
C43	C	1.654288	0.010416	0.346708
C44	C	1.739692	-0.046165	0.423378
C45	C	1.739704	-0.046166	0.576712
C46	C	1.654301	0.010420	0.653378
C47	C	1.568898	0.067001	0.576707
C48	C	1.568897	0.066997	0.423370
C49	C	1.398103	0.180163	0.576699
C50	C	1.398094	0.180169	0.423366
C51	C	1.312700	0.236748	0.653366
C52	C	1.227301	0.293335	0.576695
C53	C	1.227292	0.293334	0.423352
C54	C	1.312691	0.236750	0.346695
H55	H	1.045218	0.417231	-0.000054
C56	C	0.784564	0.434517	-0.000072
H57	H	0.833407	0.481067	-0.000098
H58	H	0.732835	0.436792	0.084870
H59	H	0.732852	0.436775	-0.085038
H60	H	1.157742	0.339406	0.360935
H61	H	0.921778	-0.170062	0.000118
H62	H	1.159430	-0.165851	0.000122
C63	C	1.654283	0.010424	0.178045
H64	H	1.591196	0.052230	0.143364
H65	H	1.637111	-0.043370	0.143356
H66	H	1.734544	0.022434	0.143362
H67	H	1.251088	-0.025055	0.000055
H68	H	1.654307	0.010409	0.778230
C69	C	1.228619	0.281339	-0.000024
H70	H	1.247183	0.338333	-0.000037
H71	H	1.263780	0.253629	-0.084963
H72	H	1.263782	0.253646	0.084945
C73	C	0.678477	0.271566	-0.000001
H74	H	0.637789	0.327507	-0.000022
H75	H	0.654376	0.242812	0.084953
H76	H	0.654373	0.242810	-0.084954
C77	C	1.133372	0.355570	0.661027
H78	H	1.145612	0.347466	0.763327
H79	H	1.049563	0.345927	0.635903
H80	H	1.147014	0.411720	0.635898
C81	C	0.738373	-0.034172	0.000081
H82	H	0.697682	0.021769	0.000048
H83	H	0.714264	-0.062922	0.085035
H84	H	0.714280	-0.062932	-0.084872
H85	H	1.264329	-0.306045	0.000141
H86	H	1.371812	-0.419858	0.221677
C87	C	1.612989	-0.325997	0.257584
H88	H	1.614101	-0.266498	0.256780
H89	H	1.697133	-0.352440	0.257941
H90	H	1.570297	-0.342139	0.342767
C91	C	1.737993	-0.458132	0.000285
H92	H	1.751041	-0.492018	-0.085046
H93	H	1.750422	-0.492705	0.084860
H94	H	1.796212	-0.416897	0.001149
C95	C	1.613020	-0.325766	-0.257204
H96	H	1.569926	-0.341358	-0.342466
H97	H	1.696946	-0.352576	-0.258065
H98	H	1.614755	-0.266323	-0.255726
H99	H	1.371837	-0.419808	-0.221585
H100	H	1.312709	0.236742	0.778218
C101	C	1.833642	-0.108404	0.661052
H102	H	1.884507	-0.142102	0.593439
H103	H	1.788475	-0.143650	0.720881
H104	H	1.885918	-0.077852	0.720855
H105	H	1.809224	-0.092238	0.360943
H106	H	1.312696	0.236747	0.221843
