data_functionalizedCrystal
_audit_creation_method	'MofGen! by Chris Wilmer'
_symmetry_space_group_name_H-M	'P1'
_symmetry_Int_Tables_number	1
_symmetry_cell_setting	triclinic
loop_
_symmetry_equiv_pos_as_xyz
  x,y,z
_cell_length_a	6.817900
_cell_length_b	10.943632
_cell_length_c	10.943881
_cell_angle_alpha	91.769068
_cell_angle_beta	108.843448
_cell_angle_gamma	108.838880
loop_
_atom_site_label
_atom_site_type_symbol
_atom_site_fract_x
_atom_site_fract_y
_atom_site_fract_z
V1	V	-4.115549	-0.178593	-0.402521
O2	O	-4.073257	0.008620	-0.394891
O3	O	-4.093499	-0.354157	-0.399738
O4	O	-4.093535	-0.175829	-0.578089
O5	O	-4.073220	-0.170942	-0.215305
V6	V	-4.592343	-0.156202	-0.380133
O7	O	-4.391566	-0.227709	-0.451633
O8	O	-4.766523	-0.107086	-0.331021
O9	O	-4.391187	0.019361	-0.382916
O10	O	-4.752032	-0.343415	-0.387763
O11	O	-4.752069	-0.163854	-0.567349
O12	O	-4.391151	-0.158966	-0.204565
C13	C	-3.944056	-0.396956	-0.393380
C14	C	-4.007490	-0.540481	-0.392274
C15	C	-3.852335	-0.617634	-0.384921
C16	C	-3.931157	-0.690290	-0.280696
C17	C	-4.041724	-0.723564	-0.494544
C18	C	-4.085431	-0.611233	-0.287975
C19	C	-4.196016	-0.644513	-0.501918
C20	C	-4.274948	-0.717131	-0.397671
C21	C	-3.944100	-0.169480	-0.620883
C22	C	-4.007559	-0.168382	-0.764410
C23	C	-4.237003	-0.174462	-0.855292
C24	C	-4.123548	-0.063483	-0.921048
C25	C	-4.234026	-0.277326	-0.954381
C26	C	-3.893222	-0.057329	-0.828262
C27	C	-4.003774	-0.271270	-0.861603
C28	C	-3.890148	-0.160260	-0.927311
C29	C	-4.203972	0.062153	-0.389270
C30	C	-4.119778	0.205677	-0.390385
C31	C	-4.203927	-0.165320	-0.161764
C32	C	-4.119705	-0.166411	-0.018236
H33	H	-4.023815	-0.772476	-0.581814
C34	C	-4.491354	-0.480764	-0.938402
C35	C	-4.429365	-0.402826	-1.028261
H36	H	-4.611944	-0.558241	-0.984012
H37	H	-4.534519	-0.433988	-0.883501
H38	H	-4.369643	-0.502937	-0.886766
H39	H	-4.551072	-0.380645	-1.079891
H40	H	-4.386209	-0.449611	-1.083185
H41	H	-4.382911	-0.180341	-0.823422
H42	H	-4.307255	-0.623713	-0.595461
C43	C	-3.761160	0.136690	-0.672854
C44	C	-3.698041	0.068314	-0.754594
H45	H	-3.640674	0.214262	-0.627383
H46	H	-3.802126	0.083531	-0.611821
H47	H	-3.883469	0.158668	-0.723930
H48	H	-3.575742	0.046328	-0.703517
H49	H	-3.657045	0.121484	-0.815635
H50	H	-3.743915	-0.154212	-0.958911
C51	C	-4.375065	0.047543	-0.920849
C52	C	-4.192711	0.055122	-0.956907
H53	H	-4.417780	0.120756	-0.942995
H54	H	-4.336261	0.047250	-0.829358
H55	H	-4.494838	-0.030512	-0.965759
H56	H	-4.072932	0.133172	-0.911989
H57	H	-4.231506	0.055427	-1.048414
C58	C	-3.873683	-0.388963	-0.690532
C59	C	-3.934686	-0.389886	-0.825715
H60	H	-3.831034	-0.462196	-0.668378
H61	H	-3.995653	-0.393199	-0.664635
H62	H	-3.752962	-0.310875	-0.646907
H63	H	-4.055419	-0.467970	-0.869340
H64	H	-3.812704	-0.385662	-0.851626
C65	C	-3.487856	-0.464453	-0.266016
C66	C	-3.610276	-0.558913	-0.377486
H67	H	-3.338425	-0.428194	-0.261429
H68	H	-3.493154	-0.503782	-0.190424
H69	H	-3.548950	-0.397307	-0.270609
H70	H	-3.549192	-0.626064	-0.372888
H71	H	-3.604967	-0.519584	-0.453096
C72	C	-3.843717	-0.853447	-0.154271
C73	C	-3.780886	-0.718361	-0.154438
H74	H	-3.750939	-0.870776	-0.076329
H75	H	-3.829565	-0.893526	-0.227646
H76	H	-3.993256	-0.887649	-0.158702
H77	H	-3.631352	-0.684161	-0.150017
H78	H	-3.795018	-0.678267	-0.081042
C79	C	-4.049297	-0.410669	-0.172042
C80	C	-4.109478	-0.545419	-0.169996
H81	H	-4.064124	-0.370038	-0.099201
H82	H	-4.143015	-0.394768	-0.250480
H83	H	-3.899921	-0.375813	-0.167809
H84	H	-4.258860	-0.580276	-0.174239
H85	H	-4.015760	-0.561329	-0.091537
H86	H	-4.454205	-0.760355	-0.403025
