data_functionalizedCrystal
_audit_creation_method	'MofGen! by Chris Wilmer'
_symmetry_space_group_name_H-M	'P1'
_symmetry_Int_Tables_number	1
_symmetry_cell_setting	triclinic
loop_
_symmetry_equiv_pos_as_xyz
  x,y,z
_cell_length_a	13.033293
_cell_length_b	16.120256
_cell_length_c	13.032721
_cell_angle_alpha	99.655851
_cell_angle_beta	105.184121
_cell_angle_gamma	85.311795
loop_
_atom_site_label
_atom_site_type_symbol
_atom_site_fract_x
_atom_site_fract_y
_atom_site_fract_z
Zn1	Zn	1.522674	-0.652707	-0.264404
Zn2	Zn	1.509001	-0.528989	-0.433029
Zn3	Zn	1.356336	-0.497570	-0.275668
Zn4	Zn	1.322459	-0.652611	-0.464503
O5	O	1.427617	-0.582969	-0.359401
O6	O	1.668541	-0.649485	-0.268887
O7	O	1.497205	-0.408160	-0.403698
O8	O	1.398300	-0.505040	-0.124576
O9	O	1.658496	-0.558590	-0.392775
O10	O	1.520508	-0.619019	-0.116300
O11	O	1.385042	-0.385076	-0.288085
O12	O	1.204160	-0.504947	-0.318604
O13	O	1.340563	-0.769286	-0.446417
O14	O	1.179272	-0.618855	-0.457339
O15	O	1.487659	-0.769356	-0.299405
O16	O	1.464357	-0.558497	-0.586802
O17	O	1.327305	-0.649322	-0.609926
C18	C	1.153424	-0.558482	-0.392610
C19	C	1.036118	-0.548028	-0.406844
C20	C	0.988770	-0.588428	-0.351999
C21	C	0.867528	-0.577624	-0.366709
C22	C	1.411858	-0.800416	-0.375165
C23	C	1.405142	-0.893079	-0.381883
C24	C	1.462642	-1.104048	-0.324342
C25	C	1.392851	-1.062723	-0.394108
C26	C	1.399691	-0.968324	-0.387304
C27	C	1.455803	-1.198455	-0.331144
C28	C	1.702882	-0.607553	-0.326063
C29	C	1.820183	-0.618029	-0.311857
C30	C	1.390699	-0.607329	-0.637151
C31	C	1.374999	-0.617787	-0.755964
C32	C	1.443387	-0.366367	-0.343614
C33	C	1.450347	-0.273697	-0.336570
C34	C	1.435864	-0.577554	-0.797455
C35	C	1.419640	-0.588361	-0.920254
C36	C	1.464708	-0.558535	-0.080564
C37	C	1.480513	-0.548123	0.038259
H38	H	1.037993	-0.631010	-0.294150
H39	H	1.327958	-1.098238	-0.458940
H40	H	1.499989	-0.535111	-0.742067
F41	F	1.335828	-0.643851	-0.992644
H42	H	1.544642	-0.505677	-0.906355
H43	H	0.869402	-0.660614	-0.254001
H44	H	0.818309	-0.535033	-0.424556
F45	F	0.971786	-0.492359	-0.482448
F46	F	1.291192	-0.673273	-0.828357
H47	H	1.527525	-1.068534	-0.259510
