data_functionalizedCrystal
_audit_creation_method	'MofGen! by Chris Wilmer'
_symmetry_space_group_name_H-M	'P1'
_symmetry_Int_Tables_number	1
_symmetry_cell_setting	triclinic
loop_
_symmetry_equiv_pos_as_xyz
  x,y,z
_cell_length_a	15.021413
_cell_length_b	15.995350
_cell_length_c	15.995350
_cell_angle_alpha	83.492375
_cell_angle_beta	89.993752
_cell_angle_gamma	90.003669
loop_
_atom_site_label
_atom_site_type_symbol
_atom_site_fract_x
_atom_site_fract_y
_atom_site_fract_z
O1	O	-0.073952	-1.110990	-0.107915
O2	O	-0.073970	-0.867215	-0.121243
O3	O	-0.073960	-0.995766	0.007308
O4	O	-0.073962	-0.982439	-0.236467
O5	O	0.074104	-0.995746	0.007290
O6	O	0.074094	-0.867194	-0.121261
O7	O	0.074112	-1.110970	-0.107934
Zn8	Zn	0.097612	-0.989079	-0.114600
Zn9	Zn	-0.097469	-0.989106	-0.114576
O10	O	0.074102	-0.982418	-0.236485
C11	C	0.000060	-0.836010	-0.120701
C12	C	0.000053	-0.743060	-0.119049
N13	N	0.230749	-0.989067	-0.114616
N14	N	-0.230607	-0.989125	-0.114554
C15	C	0.470428	-0.929615	-0.174031
C16	C	0.529768	-1.005274	-0.190282
C17	C	0.412356	-0.989088	-0.114596
C18	C	0.529758	-0.913450	-0.098363
C19	C	0.587780	-0.989102	-0.114577
C20	C	0.470390	-1.064785	-0.130884
C21	C	0.470375	-0.972911	-0.038933
C22	C	0.529688	-1.048624	-0.055152
C23	C	0.311299	-0.989079	-0.114608
C24	C	0.688835	-0.989120	-0.114564
C25	C	0.000071	-0.995205	0.038494
C26	C	0.000065	-0.993553	0.131444
C27	C	0.000080	-1.142175	-0.108476
C28	C	0.000081	-1.235125	-0.110127
C29	C	0.000072	-0.405312	-0.113117
C30	C	0.000403	-0.452746	-0.021565
C31	C	0.000063	-0.549436	-0.023217
C32	C	0.000063	-0.572873	-0.116060
C33	C	-0.084486	-0.531797	-0.161206
C34	C	-0.084551	-0.435161	-0.158906
C35	C	0.083826	-0.434799	-0.160818
C36	C	0.084937	-0.531745	-0.160797
C37	C	0.000055	-0.667570	-0.117727
C38	C	0.000073	-0.310614	-0.111452
C39	C	0.000070	-0.982980	-0.267671
C40	C	0.000069	-0.984631	-0.360621
C41	C	0.000068	-0.987621	0.469192
C42	C	-0.000271	-0.896069	0.421758
C43	C	0.000063	-0.897721	0.325068
C44	C	0.000066	-0.990564	0.301631
C45	C	0.084620	-1.035709	0.342698
C46	C	0.084691	-1.033409	0.439334
C47	C	-0.083686	-1.035323	0.439713
C48	C	-0.084803	-1.035302	0.342768
C49	C	0.000068	-0.992231	0.206934
C50	C	0.000072	-0.985956	0.563890
H51	H	0.444408	-0.879372	-0.224334
H52	H	-0.087630	-0.545923	-0.229414
C53	C	0.564978	-0.827031	-0.079815
H54	H	0.544674	-0.784840	-0.122102
H55	H	0.628210	-0.827801	-0.079428
H56	H	0.543756	-0.815131	-0.026477
C57	C	0.565018	-1.023780	-0.276704
H58	H	0.599796	-1.073698	-0.270069
H59	H	0.600717	-0.978061	-0.300323
H60	H	0.516276	-1.031011	-0.313037
H61	H	-0.060906	-0.859485	0.440297
H62	H	0.088529	-1.100624	0.471582
C63	C	0.435316	-1.151222	-0.149534
H64	H	0.372073	-1.150679	-0.149458
H65	H	0.456078	-1.193492	-0.107560
H66	H	0.456147	-1.162809	-0.203106
C67	C	0.088881	-1.127849	0.323613
H68	H	0.039014	-1.139631	0.290346
H69	H	0.088100	-1.164155	0.374900
H70	H	0.142157	-1.136600	0.293799
C71	C	0.169621	-0.993323	0.304362
H72	H	0.153762	-0.948121	0.263340
H73	H	0.203835	-1.033305	0.278619
H74	H	0.203699	-0.972372	0.347483
C75	C	0.564628	-1.116644	0.012759
H76	H	0.544190	-1.170323	0.001094
H77	H	0.543393	-1.105605	0.066364
H78	H	0.627867	-1.115980	0.012702
C79	C	0.435094	-0.954377	0.047465
H80	H	0.455384	-0.900579	0.058907
H81	H	0.456265	-0.996079	0.089803
H82	H	0.371857	-0.955018	0.046977
C83	C	-0.089758	-0.391593	-0.249702
H84	H	-0.091830	-0.432977	-0.287828
H85	H	-0.038777	-0.357070	-0.261266
H86	H	-0.141901	-0.357865	-0.256027
C87	C	0.081937	-0.587835	0.024723
H88	H	0.115703	-0.544345	0.045390
H89	H	0.117704	-0.616120	-0.012184
H90	H	0.062910	-0.626718	0.070554
C91	C	-0.169925	-0.410436	-0.114404
H92	H	-0.204239	-0.459429	-0.097895
H93	H	-0.203728	-0.372467	-0.151807
H94	H	-0.154473	-0.384173	-0.066039
C95	C	0.170402	-0.407048	-0.120399
H96	H	0.156275	-0.377217	-0.074047
H97	H	0.203412	-0.371572	-0.160805
H98	H	0.204921	-0.455240	-0.101387
H99	H	-0.147409	-0.560180	-0.129834
H100	H	-0.060650	-0.577303	0.012526
H101	H	0.090044	-0.547109	-0.228501
H102	H	0.060022	-0.859631	0.441344
C103	C	0.082310	-0.427709	0.027865
H104	H	0.117038	-0.388099	-0.006884
H105	H	0.117122	-0.476287	0.044695
H106	H	0.063298	-0.403274	0.076276
C107	C	0.169438	-0.568627	-0.116276
H108	H	0.153071	-0.608926	-0.070617
H109	H	0.202644	-0.524729	-0.095713
H110	H	0.204723	-0.595002	-0.155035
C111	C	-0.081048	-0.426287	0.027661
H112	H	-0.115257	-0.386461	-0.007340
H113	H	-0.061604	-0.401742	0.075856
H114	H	-0.116544	-0.474339	0.044822
H115	H	0.084398	-0.403038	-0.228319
H116	H	0.060773	-0.861978	0.297195
C117	C	-0.081807	-0.849770	0.286676
H118	H	-0.115569	-0.829099	0.330168
H119	H	-0.117582	-0.886668	0.258389
H120	H	-0.062774	-0.803940	0.247795
C121	C	0.170063	-0.988904	0.464051
H122	H	0.204373	-0.972394	0.415054
H123	H	0.203871	-1.026306	0.502017
H124	H	0.154609	-0.940540	0.490315
H125	H	-0.147772	-1.005399	0.460261
H126	H	-0.147354	-1.002295	0.315527
H127	H	-0.089906	-1.103007	0.327407
H128	H	-0.084252	-1.102824	0.471474
