data_functionalizedCrystal
_audit_creation_method	'MofGen! by Chris Wilmer'
_symmetry_space_group_name_H-M	'P1'
_symmetry_Int_Tables_number	1
_symmetry_cell_setting	triclinic
loop_
_symmetry_equiv_pos_as_xyz
  x,y,z
_cell_length_a	15.538191
_cell_length_b	16.776229
_cell_length_c	17.699083
_cell_angle_alpha	89.992455
_cell_angle_beta	65.277554
_cell_angle_gamma	89.990959
loop_
_atom_site_label
_atom_site_type_symbol
_atom_site_fract_x
_atom_site_fract_y
_atom_site_fract_z
O1	O	1.250478	-0.066293	-0.245973
O2	O	0.976019	-0.066294	-0.158526
O3	O	1.121003	-0.066286	-0.314557
O4	O	1.105495	-0.066300	-0.089941
O5	O	1.120984	0.066290	-0.314559
O6	O	0.976000	0.066283	-0.158528
O7	O	1.250459	0.066284	-0.245975
Zn8	Zn	1.113227	0.087333	-0.202252
Zn9	Zn	1.113252	-0.087343	-0.202249
O10	O	1.105475	0.066276	-0.089943
C11	C	0.940893	-0.000006	-0.149378
C12	C	0.836257	-0.000006	-0.122125
N13	N	1.113216	0.206544	-0.202256
N14	N	1.113270	-0.206554	-0.202253
C15	C	0.549086	-0.000001	-0.392872
C16	C	0.450762	-0.000004	-0.367245
C17	C	0.427989	-0.000012	-0.223099
C18	C	0.526313	-0.000006	-0.248714
C19	C	0.586855	-0.000002	-0.333602
C20	C	0.564082	-0.000007	-0.189444
C21	C	0.662398	-0.000005	-0.215057
C22	C	0.722945	-0.000003	-0.299940
C23	C	0.685171	0.000000	-0.359215
C24	C	0.503539	-0.000017	-0.104556
C25	C	0.541308	-0.000017	-0.045286
C26	C	0.639625	-0.000010	-0.070899
C27	C	0.700173	-0.000007	-0.155782
C28	C	0.677400	-0.000012	-0.011624
C29	C	0.775716	-0.000011	-0.037238
C30	C	0.798489	-0.000006	-0.181396
C31	C	1.285585	-0.000006	-0.255123
C32	C	1.390221	-0.000011	-0.282375
C33	C	1.120438	0.000002	-0.342603
C34	C	1.118771	0.000002	-0.426166
C35	C	1.177434	0.248264	-0.271331
C36	C	1.177440	0.331716	-0.271333
C37	C	1.113230	0.373447	-0.202257
C38	C	1.049005	0.331720	-0.133177
C39	C	1.048996	0.248270	-0.133178
C40	C	1.049039	0.668268	-0.133172
C41	C	1.049055	0.751724	-0.133175
C42	C	1.177483	0.751714	-0.271326
C43	C	1.177474	0.668264	-0.271327
C44	C	1.113246	0.626545	-0.202250
C45	C	1.113240	0.536056	-0.202249
C46	C	1.113240	0.463934	-0.202254
C47	C	1.203873	0.000004	-0.498041
C48	C	1.202301	-0.000003	-0.576554
C49	C	1.115626	-0.000006	-0.583192
C50	C	1.030517	-0.000010	-0.511309
C51	C	1.032090	-0.000008	-0.432797
C52	C	1.024171	-0.000016	-0.827938
C53	C	1.022605	-0.000015	-0.906458
C54	C	1.194382	-0.000011	-0.971696
C55	C	1.195955	-0.000010	-0.893184
C56	C	1.110847	-0.000018	-0.821308
C57	C	1.112552	-0.000012	-0.736175
C58	C	1.113919	-0.000006	-0.668323
C59	C	1.106041	-0.000014	-0.061897
C60	C	1.107708	-0.000020	0.021665
H61	H	0.847785	0.000003	-0.250520
C62	C	0.928398	-0.000067	-0.913491
C63	C	0.854199	-0.000097	-0.833742
C64	C	0.767408	-0.000155	-0.840190
H65	H	0.924068	0.046153	-0.942716
H66	H	0.924180	-0.046318	-0.942728
H67	H	0.858414	0.046149	-0.804517
H68	H	0.858497	-0.046313	-0.804503
H69	H	0.763191	-0.046406	-0.869427
H70	H	0.763088	0.046066	-0.869417
H71	H	0.717054	-0.000183	-0.786082
H72	H	0.420016	-0.000005	-0.415517
H73	H	0.996744	0.634306	-0.076926
H74	H	0.959944	-0.000017	-0.516719
H75	H	0.628093	-0.000024	0.057491
H76	H	0.803000	-0.000012	-0.320793
C77	C	0.475461	-0.000144	0.046847
C78	C	0.418348	-0.068343	0.065765
C79	C	0.357671	-0.068478	0.150627
H80	H	0.511918	-0.000182	0.078574
H81	H	0.436571	0.046064	0.059851
H82	H	0.457233	-0.114538	0.052769
H83	H	0.381870	-0.068318	0.034059
H84	H	0.318781	-0.022271	0.163631
H85	H	0.394136	-0.068515	0.182347
H86	H	0.318907	-0.114746	0.163473
H87	H	0.962790	-0.000010	-0.374274
C88	C	0.362367	0.000108	-0.130911
C89	C	0.379418	0.068306	-0.093657
C90	C	0.318996	0.068440	-0.008731
H91	H	0.298371	0.000146	-0.124026
H92	H	0.373825	-0.046100	-0.105453
H93	H	0.367952	0.114502	-0.119107
H94	H	0.443402	0.068282	-0.100519
H95	H	0.330455	0.022232	0.016727
H96	H	0.255004	0.068476	-0.001855
H97	H	0.330563	0.114708	0.016558
H98	H	0.954870	-0.000023	-0.769424
H99	H	0.734468	0.000009	-0.428339
H100	H	1.274454	0.000011	-0.492646
C101	C	1.247192	0.203105	-0.346426
C102	C	1.303414	0.257508	-0.406928
C103	C	1.367676	0.215940	-0.476124
H104	H	1.286451	0.170535	-0.330058
H105	H	1.213380	0.170581	-0.368703
H106	H	1.337223	0.290019	-0.384654
H107	H	1.264181	0.290080	-0.423320
H108	H	1.333864	0.183416	-0.498402
H109	H	1.406929	0.183371	-0.459748
H110	H	1.405824	0.252846	-0.517186
C111	C	1.246980	0.622813	-0.346316
C112	C	1.233168	0.540801	-0.331563
C113	C	1.297111	0.498909	-0.400661
H114	H	1.236753	0.636484	-0.394002
H115	H	1.309959	0.636350	-0.355501
H116	H	1.170203	0.527271	-0.322388
H117	H	1.243402	0.527107	-0.283890
H118	H	1.360090	0.512445	-0.409846
H119	H	1.286879	0.512586	-0.448342
H120	H	1.287755	0.443260	-0.390657
H121	H	1.271600	-0.000000	-0.635075
H122	H	0.598383	0.000007	-0.461996
H123	H	0.806467	-0.000004	0.011026
C124	C	1.247058	0.797055	-0.346376
C125	C	1.196964	0.844964	-0.378985
C126	C	1.261023	0.886733	-0.448123
H127	H	1.286256	0.829665	-0.329988
H128	H	1.285286	0.760276	-0.387555
H129	H	1.158752	0.881739	-0.337815
H130	H	1.157770	0.812375	-0.395391
H131	H	1.299252	0.849954	-0.489302
H132	H	1.300218	0.919338	-0.431728
H133	H	1.227044	0.919239	-0.470262
C134	C	0.979397	0.377169	-0.058241
C135	C	0.993166	0.459182	-0.073013
C136	C	0.929069	0.501071	-0.003993
H137	H	0.916466	0.363604	-0.049153
H138	H	0.989521	0.363525	-0.010489
H139	H	0.983034	0.472820	-0.120751
H140	H	1.056083	0.472770	-0.082091
H141	H	0.939194	0.487427	0.043759
H142	H	0.866143	0.487500	0.005090
H143	H	0.938409	0.556721	-0.014003
H144	H	0.996765	0.785699	-0.076923
C145	C	0.979233	0.203114	-0.058084
C146	C	0.923020	0.257519	0.002420
C147	C	0.858748	0.215952	0.071613
H148	H	0.939968	0.170570	-0.074456
H149	H	1.013037	0.170564	-0.035807
H150	H	0.889219	0.290055	-0.019853
H151	H	0.962258	0.290064	0.018816
H152	H	0.892551	0.183401	0.093890
H153	H	0.819490	0.183409	0.055233
H154	H	0.820605	0.252859	0.112677
H155	H	1.229730	0.365685	-0.327579
H156	H	0.423484	-0.000021	-0.083705
H157	H	1.266535	-0.000003	-0.887787
H158	H	1.263682	-0.000008	-1.030228
