data_functionalizedCrystal
_audit_creation_method	'MofGen! by Chris Wilmer'
_symmetry_space_group_name_H-M	'P1'
_symmetry_Int_Tables_number	1
_symmetry_cell_setting	triclinic
loop_
_symmetry_equiv_pos_as_xyz
  x,y,z
_cell_length_a	13.635800
_cell_length_b	19.453103
_cell_length_c	19.453046
_cell_angle_alpha	83.679538
_cell_angle_beta	101.708137
_cell_angle_gamma	78.290822
loop_
_atom_site_label
_atom_site_type_symbol
_atom_site_fract_x
_atom_site_fract_y
_atom_site_fract_z
V1	V	1.998997	-0.097929	0.219330
O2	O	1.997548	0.003937	0.214819
O3	O	1.970507	-0.193438	0.218153
O4	O	1.970507	-0.096760	0.314840
O5	O	1.997548	-0.093410	0.117463
V6	V	2.241923	-0.085705	0.207107
O7	O	2.127073	-0.124744	0.246143
O8	O	2.338947	-0.058890	0.180294
O9	O	2.158810	0.009804	0.208284
O10	O	2.302071	-0.187571	0.211618
O11	O	2.302071	-0.090224	0.308974
O12	O	2.158810	-0.086874	0.111597
V13	V	2.498997	-0.097929	0.219330
O14	O	2.497548	0.003937	0.214819
O15	O	2.470507	-0.193438	0.218153
O16	O	2.470507	-0.096760	0.314840
O17	O	2.497548	-0.093410	0.117463
V18	V	2.741923	-0.085705	0.207107
O19	O	2.627073	-0.124744	0.246143
O20	O	2.838947	-0.058890	0.180294
O21	O	2.658810	0.009804	0.208284
O22	O	2.802071	-0.187571	0.211618
O23	O	2.802071	-0.090224	0.308974
O24	O	2.658810	-0.086874	0.111597
C25	C	1.892103	-0.216710	0.214777
C26	C	1.909423	-0.294792	0.214451
C27	C	2.008290	-0.335059	0.217810
C28	C	2.024566	-0.408427	0.217512
C29	C	1.941967	-0.441522	0.213839
C30	C	1.843088	-0.401246	0.210483
C31	C	1.826816	-0.327881	0.210789
N32	N	1.889528	-0.547639	0.170553
N33	N	1.904991	-0.617332	0.170261
C34	C	1.990988	-0.662566	0.212918
N35	N	2.060951	-0.635472	0.255870
N36	N	2.045488	-0.565772	0.256159
C37	C	1.959601	-0.521073	0.213507
C38	C	2.107510	-0.782386	0.215955
C39	C	2.123785	-0.855756	0.215660
C40	C	1.942301	-0.848573	0.208624
C41	C	1.926032	-0.775206	0.208926
C42	C	2.008639	-0.742117	0.212588
C43	C	2.068885	0.033073	0.211658
C44	C	2.041184	0.111154	0.211989
C45	C	1.892102	-0.093387	0.338110
C46	C	1.909422	-0.093063	0.416192
C47	C	2.068886	-0.090249	0.088324
C48	C	2.041186	-0.090570	0.010241
C49	C	2.049799	-0.155080	0.983815
C50	C	2.033519	-0.155390	0.910449
C51	C	2.008646	-0.091186	0.863512
C52	C	2.000027	-0.026666	0.889945
C53	C	2.016297	-0.026358	0.963310
N54	N	2.027298	-0.045960	0.742934
N55	N	2.011845	-0.046257	0.673242
C56	C	1.959622	-0.092110	0.642469
N57	N	1.923451	-0.137666	0.684023
N58	N	1.938910	-0.137371	0.753722
C59	C	1.991001	-0.091513	0.783960
C60	C	1.950582	-0.156961	0.536492
C61	C	1.934295	-0.157268	0.463124
C62	C	1.900814	-0.028543	0.442621
C63	C	1.917091	-0.028237	0.515988
C64	C	1.941979	-0.092449	0.562919
C65	C	2.392103	-0.216710	0.214777
C66	C	2.409423	-0.294792	0.214451
C67	C	2.392102	-0.093387	0.338110
C68	C	2.409422	-0.093063	0.416192
C69	C	2.568885	0.033073	0.211658
C70	C	2.541184	0.111154	0.211989
C71	C	2.568886	-0.090249	0.088324
C72	C	2.541186	-0.090570	0.010241
C73	C	2.508301	-0.335054	0.217819
C74	C	2.524593	-0.408422	0.217524
C75	C	2.442004	-0.441527	0.213855
C76	C	2.343118	-0.401260	0.210489
C77	C	2.326829	-0.327894	0.210789
C78	C	2.508297	-0.096425	0.456452
C79	C	2.524583	-0.096112	0.529817
C80	C	2.441992	-0.092441	0.562922
C81	C	2.343108	-0.089076	0.522656
C82	C	2.326822	-0.089385	0.449291
C83	C	2.614799	0.151415	0.208622
C84	C	2.588779	0.224783	0.208921
C85	C	2.489146	0.257887	0.212591
C86	C	2.415524	0.217621	0.215956
C87	C	2.441543	0.144256	0.215652
C88	C	2.441546	-0.094232	-0.022846
C89	C	2.415501	-0.094525	-0.096214
C90	C	2.489101	-0.091160	-0.136493
C91	C	2.588749	-0.087495	-0.103402
C92	C	2.614789	-0.087197	-0.030036
H93	H	2.105078	-0.441218	0.220247
H94	H	2.575560	-0.099416	0.429508
H95	H	1.880551	0.023734	0.404405
C96	C	2.218061	-0.085704	0.405012
H97	H	2.220179	-0.086412	0.356575
H98	H	2.194174	-0.125385	0.422134
H99	H	2.172732	-0.043034	0.409003
C100	C	2.724396	0.115015	0.204578
H101	H	2.764498	0.149510	0.202608
H102	H	2.755092	0.079986	0.245483
H103	H	2.721211	0.093105	0.163134
C104	C	1.752229	-0.437647	0.206438
H105	H	1.776077	-0.487107	0.206729
H106	H	1.722983	-0.430708	0.246215
H107	H	1.701576	-0.417588	0.163865
H108	H	2.695929	-0.084219	-0.003102
H109	H	1.746306	-0.295096	0.208054
H110	H	1.910081	0.024294	0.537503
H111	H	2.075558	-0.308123	0.220797
H112	H	2.174774	-0.755444	0.218935
C113	C	2.599160	-0.298652	0.221854
H114	H	2.660377	-0.333147	0.223824
H115	H	2.585883	-0.263627	0.180946
H116	H	2.607289	-0.276737	0.263295
H117	H	2.204297	-0.888541	0.218401
C118	C	1.972677	0.043956	0.838318
H119	H	1.964233	0.034533	0.790840
H120	H	1.910419	0.072703	0.843829
H121	H	2.026522	0.068198	0.848430
C122	C	2.006843	0.044606	0.992380
H123	H	1.989707	0.082801	0.953921
H124	H	1.954456	0.049656	1.018283
H125	H	2.070556	0.045145	1.022864
H126	H	2.455281	-0.501267	0.213611
C127	C	2.669770	0.269065	0.205225
H128	H	2.640011	0.317502	0.205923
H129	H	2.726550	0.251953	0.244906
H130	H	2.692701	0.265064	0.162556
H131	H	1.875048	-0.875519	0.205639
C132	C	2.633359	-0.099825	0.574099
H133	H	2.680212	-0.102069	0.543873
H134	H	2.632797	-0.058681	0.596311
H135	H	2.654185	-0.141030	0.609424
H136	H	2.605116	-0.441197	0.220264
H137	H	1.845523	-0.742419	0.206186
C138	C	2.077153	-0.225709	1.035434
H139	H	2.079938	-0.264174	1.009184
H140	H	2.142239	-0.230519	1.066782
H141	H	2.026135	-0.226012	1.062177
C142	C	2.460448	-0.091496	-0.217192
H143	H	2.390565	-0.094168	-0.231122
H144	H	2.469618	-0.049097	-0.241679
H145	H	2.503474	-0.131447	-0.228558
H146	H	2.275879	-0.428225	0.207502
C147	C	2.043010	-0.226355	0.881373
H148	H	2.060172	-0.264553	0.919832
H149	H	1.979321	-0.226912	0.850880
H150	H	2.095417	-0.231387	0.855481
H151	H	2.467973	0.317627	0.212837
H152	H	1.970839	-0.209246	0.574705
H153	H	1.941305	-0.209802	0.441611
H154	H	2.334401	0.244586	0.218944
H155	H	2.455267	-0.092190	0.622661
C156	C	2.360572	-0.097927	0.021448
H157	H	2.297501	-0.100142	-0.008775
H158	H	2.384039	-0.139128	0.056772
H159	H	2.350202	-0.056777	0.043659
C160	C	2.218055	-0.283612	0.207071
H161	H	2.171207	-0.313839	0.204835
H162	H	2.218616	-0.261392	0.248210
H163	H	2.197226	-0.248293	0.165861
H164	H	2.275868	-0.086088	0.549621
C165	C	2.360562	0.099974	0.219368
H166	H	2.297506	0.130201	0.221605
H167	H	2.350169	0.077756	0.178227
H168	H	2.384045	0.064653	0.260576
H169	H	2.334359	-0.097509	-0.123145
C170	C	2.669700	-0.083802	-0.147714
H171	H	2.639914	-0.084513	-0.196143
H172	H	2.692645	-0.041139	-0.143728
H173	H	2.726481	-0.123491	-0.130614
