data_functionalizedCrystal
_audit_creation_method	'MofGen! by Chris Wilmer'
_symmetry_space_group_name_H-M	'P1'
_symmetry_Int_Tables_number	1
_symmetry_cell_setting	triclinic
loop_
_symmetry_equiv_pos_as_xyz
  x,y,z
_cell_length_a	17.052862
_cell_length_b	14.560438
_cell_length_c	14.560438
_cell_angle_alpha	60.005799
_cell_angle_beta	89.999330
_cell_angle_gamma	50.257865
loop_
_atom_site_label
_atom_site_type_symbol
_atom_site_fract_x
_atom_site_fract_y
_atom_site_fract_z
Zr1	Zr	0.914420	0.682186	0.041091
O2	O	0.762871	0.927306	-0.132290
O3	O	0.960872	0.474192	0.094221
O4	O	0.960880	0.665777	-0.097354
O5	O	0.762863	0.735718	0.210425
O6	O	1.117079	0.610601	-0.069772
O7	O	0.762863	0.735721	0.059285
O8	O	1.117065	0.267890	0.272921
O9	O	0.762877	1.078429	-0.132267
O10	O	1.097260	0.504816	0.137489
O11	O	0.980690	0.545990	0.229700
O12	O	0.980699	0.771557	0.004145
O13	O	0.864130	0.812732	0.096356
Zr14	Zr	1.163540	0.594183	0.326133
Zr15	Zr	1.163539	0.594187	0.085081
Zr16	Zr	0.914420	0.682182	0.282143
Zr17	Zr	0.914430	0.923210	0.041128
Zr18	Zr	1.163530	0.353159	0.326096
O19	O	1.117087	0.802177	0.273003
O20	O	1.117087	0.802183	-0.069742
O21	O	0.762871	0.927300	0.210455
O22	O	1.315088	0.349063	0.499514
O23	O	1.315088	0.349069	0.156769
O24	O	0.960872	0.474186	0.436966
O25	O	1.315096	0.540651	0.156799
O26	O	1.117079	0.610592	0.464578
O27	O	0.960880	0.665768	0.436996
O28	O	1.315096	0.540648	0.307940
O29	O	0.960894	1.008482	-0.097301
O30	O	1.117065	0.267887	0.464525
O31	O	1.315082	0.197940	0.499491
O32	O	1.315082	0.197943	0.307887
O33	O	0.762877	1.078426	0.059337
O34	O	0.960894	1.008479	0.094303
O35	O	1.097260	0.504812	0.363079
O36	O	1.213829	0.463637	0.270868
O37	O	1.097269	0.730379	0.137524
O38	O	0.980700	0.771553	0.229735
C39	C	1.038967	0.336700	0.183566
C40	C	1.038963	0.234379	0.183550
C41	C	0.952918	0.299901	0.085134
C42	C	0.952937	0.203706	0.085194
C43	C	1.125050	-0.023535	0.282096
C44	C	1.125035	0.072658	0.282031
C45	C	0.853548	0.431097	-0.028543
C46	C	0.853566	0.334902	-0.028484
C47	C	0.727369	0.748257	0.128587
C48	C	0.621611	0.785615	0.109913
C49	C	0.566877	0.333960	0.335690
C50	C	0.666244	0.298856	0.353231
C51	C	0.655091	0.420542	0.292404
C52	C	0.544561	0.577340	0.214030
C53	C	0.445184	0.612447	0.196480
C54	C	0.533399	0.699029	0.153194
C55	C	0.422868	0.855827	0.074821
C56	C	0.323503	0.890928	0.057274
C57	C	0.334655	0.769242	0.118102
C58	C	0.632775	0.663922	0.170744
C59	C	0.511082	0.942409	0.031534
C60	C	0.411716	0.977513	0.013993
C61	C	1.350590	0.528112	0.238637
C62	C	1.456348	0.490754	0.257312
C63	C	1.038979	0.638190	-0.117907
C64	C	1.038979	0.638192	-0.220240
C65	C	1.038992	0.939669	0.183658
C66	C	1.038996	1.041990	0.183674
C67	C	0.978131	0.777428	-0.337922
C68	C	0.978135	0.777420	-0.434070
C69	C	1.099836	0.498930	-0.294841
C70	C	1.099838	0.498936	-0.198695
C71	C	0.907864	0.938213	-0.418306
C72	C	0.907867	0.938206	-0.514454
C73	C	1.038980	0.638179	0.485132
C74	C	1.038980	0.638177	0.587465
C75	C	1.350578	0.226627	0.238590
C76	C	1.456331	0.086949	0.257249
C77	C	1.038967	0.336695	0.485085
C78	C	1.038963	0.234372	0.587402
C79	C	1.350578	0.226622	0.540110
C80	C	1.456332	0.086942	0.661102
C81	C	0.727381	1.049747	-0.172886
C82	C	0.621628	1.189427	-0.293878
C83	C	0.727382	1.049742	0.128634
C84	C	0.621628	1.189420	0.109975
C85	C	1.038992	0.939674	-0.117861
C86	C	1.038996	1.041997	-0.220178
C87	C	1.445146	0.042849	0.196380
C88	C	1.544503	-0.088377	0.213888
C89	C	1.655044	-0.175508	0.292273
C90	C	1.666227	-0.131398	0.353144
C91	C	1.566871	-0.000168	0.335629
C92	C	1.566853	-0.000150	0.669790
C93	C	1.666229	-0.131385	0.783467
C94	C	1.655082	-0.175531	0.888455
C95	C	1.544548	-0.088426	0.879763
C96	C	1.445175	0.042813	0.766087
C97	C	0.511106	1.276531	-0.302566
C98	C	0.411730	1.407795	-0.416243
C99	C	0.422878	1.451947	-0.521231
C100	C	0.533411	1.364835	-0.512539
C101	C	0.632785	1.233580	-0.398863
C102	C	0.632813	1.233530	0.170835
C103	C	0.533456	1.364783	0.153300
C104	C	0.422915	1.451917	0.074912
C105	C	0.411732	1.407803	0.014045
C106	C	0.511088	1.276559	0.031573
C107	C	1.099811	0.164800	0.705094
C108	C	1.099798	0.068665	0.801226
C109	C	0.978087	0.111679	0.661962
C110	C	0.978095	0.207821	0.565831
C111	C	1.170084	0.139960	0.785499
C112	C	1.170071	0.043825	0.881631
H113	H	1.195110	0.019292	0.362163
Cl114	Cl	0.979423	0.978090	-0.580451
Cl115	Cl	0.272789	1.517277	-0.427142
H116	H	1.756221	-0.202295	0.790524
Cl117	Cl	0.497006	1.221116	-0.044939
Cl118	Cl	1.779939	-0.340485	0.314281
Cl119	Cl	0.297938	1.616958	-0.664131
Cl120	Cl	1.780022	-0.340526	1.031355
Cl121	Cl	0.272757	1.517355	-0.084491
H122	H	0.768706	0.375692	-0.035159
Cl123	Cl	1.530418	-0.143806	0.137359
Cl124	Cl	1.580953	0.055244	0.412172
Cl125	Cl	0.780013	0.376407	0.314460
Cl126	Cl	0.901576	0.295309	0.417871
Cl127	Cl	1.233247	-0.226839	0.405894
Cl128	Cl	0.497061	1.221056	-0.170598
H129	H	1.575952	0.035772	0.584316
Cl130	Cl	0.805186	0.101748	0.451753
H131	H	0.575942	0.234900	0.385202
Cl132	Cl	0.764226	1.069530	-0.620397
H133	H	1.149385	0.385553	-0.277313
H134	H	1.756243	-0.202359	0.416965
H135	H	0.542584	1.400677	0.202873
H136	H	0.542474	1.400801	-0.598034
Cl137	Cl	1.098510	0.124868	0.947634
Cl138	Cl	0.901570	0.078294	0.634854
H139	H	1.149400	0.385552	-0.102873
Cl140	Cl	1.530554	-0.143947	1.011760
Cl141	Cl	1.306237	0.152279	0.755186
Cl142	Cl	0.209735	0.813366	0.096064
Cl143	Cl	0.771722	1.124082	-0.387962
H144	H	1.355147	0.113789	0.132538
Cl145	Cl	0.771768	1.124020	0.269381
Cl146	Cl	0.968205	0.997504	-0.407664
H147	H	1.131006	0.243768	0.778629
H148	H	0.342022	1.558781	0.060650
Cl149	Cl	0.272757	1.174623	-0.084530
Cl150	Cl	0.184552	1.088045	-0.041261
Cl151	Cl	0.768993	1.052298	-0.429280
Cl152	Cl	0.497052	1.095395	-0.044952
H153	H	1.260047	0.072051	0.792651
Cl154	Cl	1.313712	-0.145878	0.987593
H155	H	0.862101	0.491052	-0.109165
H156	H	0.774518	0.518687	-0.025703
H157	H	0.722762	0.536255	0.234565
Cl158	Cl	0.880363	0.325381	-0.141795
