data_functionalizedCrystal
_audit_creation_method	'MofGen! by Chris Wilmer'
_symmetry_space_group_name_H-M	'P1'
_symmetry_Int_Tables_number	1
_symmetry_cell_setting	triclinic
loop_
_symmetry_equiv_pos_as_xyz
  x,y,z
_cell_length_a	12.503572
_cell_length_b	10.654550
_cell_length_c	10.654550
_cell_angle_alpha	84.484931
_cell_angle_beta	93.557511
_cell_angle_gamma	86.450768
loop_
_atom_site_label
_atom_site_type_symbol
_atom_site_fract_x
_atom_site_fract_y
_atom_site_fract_z
O1	O	0.089240	-1.675014	-0.169203
O2	O	0.089259	-1.309537	-0.186007
O3	O	0.089242	-1.500678	0.005133
O4	O	0.089257	-1.483873	-0.360344
O5	O	-0.089398	-1.486303	-0.009266
O6	O	-0.089381	-1.295162	-0.200406
O7	O	-0.089401	-1.660639	-0.183602
Cu8	Cu	-0.105702	-1.476588	-0.193319
Cu9	Cu	0.105561	-1.493588	-0.176291
O10	O	-0.089384	-1.469498	-0.374743
C11	C	-0.000058	-1.255552	-0.191973
C12	C	-0.000051	-1.116109	-0.188280
N13	N	-0.254294	-1.464640	-0.205295
C14	C	-0.000077	-1.492256	0.044732
C15	C	-0.000075	-1.488565	0.184175
C16	C	-0.473407	-1.447065	-0.222923
C17	C	-0.526741	-1.523117	-0.146681
C18	C	-0.648663	-1.513337	-0.156489
C19	C	-0.351474	-1.456843	-0.213116
N20	N	0.254152	-1.505545	-0.164304
C21	C	-0.000081	-1.714624	-0.177636
C22	C	-0.000081	-1.854068	-0.181328
C23	C	-0.000050	-1.036624	-0.300822
C24	C	-0.000068	-0.905601	-0.297347
C25	C	-0.000086	-0.933563	-0.068779
C26	C	-0.000074	-1.064582	-0.072256
C27	C	-0.000062	-1.477920	-0.414341
C28	C	-0.000057	-1.481612	-0.553784
C29	C	-0.000081	-1.601106	0.263661
C30	C	-0.000068	-1.597630	0.394682
C31	C	-0.000048	-1.369063	0.366721
C32	C	-0.000053	-1.372540	0.235702
H33	H	-0.480835	-1.595571	-0.074042
O34	O	-0.528042	-1.360697	-0.309745
C35	C	-0.500675	-1.384596	-0.432036
H36	H	-0.418985	-1.439460	-0.425776
H37	H	-0.496974	-1.291117	-0.492875
H38	H	-0.563935	-1.442533	-0.476346
O39	O	-0.000084	-1.086466	-0.413635
C40	C	-0.000061	-0.988210	-0.512218
H41	H	-0.033892	-0.896199	-0.478960
H42	H	-0.051919	-1.012122	-0.597333
H43	H	0.085642	-0.976855	-0.540080
O44	O	0.000083	-0.828275	-0.406575
C45	C	0.092608	-0.759100	-0.403951
H46	H	0.123439	-0.754081	-0.301718
H47	H	0.071796	-0.659382	-0.451558
H48	H	0.157407	-0.807898	-0.456455
H49	H	-0.000097	-1.695581	0.221712
H50	H	-0.000111	-0.891593	0.025684
H51	H	-0.000032	-1.274599	0.408690
H52	H	-0.000045	-1.280890	0.170982
H53	H	-0.000070	-1.689273	0.459395
O54	O	-0.000027	-1.141627	0.037196
C55	C	-0.000067	-1.068055	0.140346
H56	H	0.033750	-0.973277	0.112056
H57	H	0.051793	-1.119859	0.223451
H58	H	-0.085774	-1.051539	0.168943
