data_functionalizedCrystal
_audit_creation_method	'MofGen! by Chris Wilmer'
_symmetry_space_group_name_H-M	'P1'
_symmetry_Int_Tables_number	1
_symmetry_cell_setting	triclinic
loop_
_symmetry_equiv_pos_as_xyz
  x,y,z
_cell_length_a	8.559649
_cell_length_b	14.421503
_cell_length_c	8.559649
_cell_angle_alpha	90.004490
_cell_angle_beta	110.221336
_cell_angle_gamma	89.992170
loop_
_atom_site_label
_atom_site_type_symbol
_atom_site_fract_x
_atom_site_fract_y
_atom_site_fract_z
O1	O	2.126857	0.077097	0.055044
O2	O	1.651372	0.077101	-0.028737
O3	O	1.931005	0.077098	0.250896
O4	O	1.847224	0.077100	-0.224589
O5	O	1.931033	-0.077126	0.250883
O6	O	1.651400	-0.077123	-0.028750
O7	O	2.126885	-0.077126	0.055031
Cu8	Cu	1.889145	-0.091206	0.013140
Cu9	Cu	1.889112	0.091181	0.013154
O10	O	1.847252	-0.077123	-0.224602
C11	C	1.591077	-0.000011	-0.035093
C12	C	1.411378	-0.000009	-0.053992
N13	N	1.889181	-0.219488	0.013132
C14	C	2.018511	-0.469118	0.142462
C15	C	1.875789	-0.530914	0.155981
C16	C	1.889147	-0.408649	0.013147
C17	C	2.031846	-0.530947	-0.000281
C18	C	1.889128	-0.591370	0.013167
C19	C	1.746360	-0.469084	0.026728
C20	C	1.902506	-0.469112	-0.129584
C21	C	1.759670	-0.530880	-0.116142
C22	C	1.889161	-0.303388	0.013140
C23	C	1.889097	-0.696629	0.013171
C24	C	2.187180	-0.000013	0.061387
C25	C	2.366879	-0.000008	0.080286
C26	C	1.937369	-0.000012	0.311198
C27	C	1.956268	-0.000007	0.490898
N28	N	1.889091	0.219462	0.013177
C29	C	1.840889	-0.000011	-0.284904
C30	C	1.821990	-0.000010	-0.464604
H31	H	1.311990	-0.000003	-0.183420
H32	H	2.127814	-0.441999	0.251862
O33	O	1.614605	-0.566585	-0.260998
H34	H	1.624792	-0.540727	-0.379233
O35	O	1.860791	-0.566894	0.315861
H36	H	1.968321	-0.542170	0.423012
O37	O	1.586502	-0.433255	0.042030
H38	H	1.587801	-0.356294	0.041984
O39	O	1.650555	-0.000007	0.403761
H40	H	1.581927	-0.062872	0.418081
O41	O	1.917557	-0.433113	-0.289421
H42	H	2.036179	-0.457845	-0.300283
H43	H	2.152531	-0.558120	-0.011650
O44	O	2.127720	-0.000015	0.622529
H45	H	2.116165	-0.000016	0.747753
H46	H	1.466258	-0.000005	0.209705
