data_functionalizedCrystal
_audit_creation_method	'MofGen! by Chris Wilmer'
_symmetry_space_group_name_H-M	'P1'
_symmetry_Int_Tables_number	1
_symmetry_cell_setting	triclinic
loop_
_symmetry_equiv_pos_as_xyz
  x,y,z
_cell_length_a	11.026607
_cell_length_b	11.792254
_cell_length_c	10.065875
_cell_angle_alpha	98.849918
_cell_angle_beta	79.302338
_cell_angle_gamma	96.392307
loop_
_atom_site_label
_atom_site_type_symbol
_atom_site_fract_x
_atom_site_fract_y
_atom_site_fract_z
O1	O	1.630988	0.462837	-0.113504
O2	O	1.277323	0.408645	-0.113505
O3	O	1.462728	0.272276	-0.113495
O4	O	1.445582	0.599207	-0.113514
O5	O	1.427375	0.298413	0.113492
O6	O	1.241969	0.434783	0.113482
O7	O	1.595634	0.488975	0.113483
Zn8	Zn	1.413189	0.466029	0.149521
Zn9	Zn	1.459768	0.431592	-0.149544
O10	O	1.410229	0.625345	0.113473
C11	C	1.214369	0.411717	-0.000011
C12	C	1.079457	0.381914	-0.000011
C13	C	1.443971	0.242839	-0.000002
C14	C	1.440738	0.116184	-0.000003
C15	C	1.006198	0.464204	-0.000017
C16	C	0.866760	0.433403	-0.000017
C17	C	1.438112	0.013325	-0.000008
C18	C	1.434829	-0.115715	-0.000021
C19	C	1.658589	0.485903	-0.000014
C20	C	1.793502	0.515705	-0.000023
C21	C	1.428986	0.654781	-0.000023
C22	C	1.432221	0.781435	-0.000031
N23	N	1.381408	0.489532	0.353625
N24	N	1.491559	0.408081	-0.353647
C25	C	1.448703	0.439760	0.421408
C26	C	1.424254	0.457860	0.578574
H27	H	0.826260	0.340139	-0.000047
H28	H	1.348529	0.513870	0.636890
C29	C	1.549518	0.364892	0.343692
C30	C	1.523396	0.253141	0.378294
C31	C	1.616234	0.184145	0.306703
H32	H	1.627209	0.396174	0.366951
H33	H	1.552506	0.362598	0.248386
H34	H	1.520421	0.255439	0.473578
H35	H	1.445721	0.221826	0.355031
H36	H	1.619222	0.181851	0.211398
H37	H	1.693919	0.215437	0.329968
H38	H	1.598517	0.108312	0.330161
C39	C	1.592343	0.333084	0.568846
C40	C	1.566009	0.221422	0.603692
C41	C	1.658800	0.152255	0.532381
H42	H	1.670023	0.364328	0.592169
H43	H	1.595455	0.330651	0.473500
H44	H	1.562911	0.223859	0.699016
H45	H	1.488346	0.190145	0.580365
H46	H	1.661912	0.149823	0.437036
H47	H	1.736473	0.183509	0.555711
H48	H	1.640939	0.076483	0.556005
H49	H	0.834003	0.608966	-0.000019
H50	H	1.038952	0.288656	-0.000041
C51	C	1.280544	0.564224	0.431625
C52	C	1.276374	0.567358	0.572004
C53	C	1.183483	0.636165	0.643895
H54	H	1.202837	0.532884	0.408457
H55	H	1.298083	0.640127	0.408348
H56	H	1.258827	0.491469	0.595271
H57	H	1.354058	0.598708	0.595212
H58	H	1.201022	0.712069	0.620618
H59	H	1.105783	0.604819	0.620716
H60	H	1.180648	0.638309	0.739149
H61	H	1.046707	0.557458	-0.000015
