data_functionalizedCrystal
_audit_creation_method	'MofGen! by Chris Wilmer'
_symmetry_space_group_name_H-M	'P1'
_symmetry_Int_Tables_number	1
_symmetry_cell_setting	triclinic
loop_
_symmetry_equiv_pos_as_xyz
  x,y,z
_cell_length_a	17.699083
_cell_length_b	10.268362
_cell_length_c	17.699103
_cell_angle_alpha	89.989758
_cell_angle_beta	83.287038
_cell_angle_gamma	90.001874
loop_
_atom_site_label
_atom_site_type_symbol
_atom_site_fract_x
_atom_site_fract_y
_atom_site_fract_z
O1	O	-1.004083	0.108119	-0.095711
O2	O	-0.783705	0.108166	-0.108163
O3	O	-0.900112	0.108116	0.008251
O4	O	-0.887675	0.108169	-0.212125
O5	O	-0.900102	-0.108484	0.008256
O6	O	-0.783695	-0.108434	-0.108158
O7	O	-1.004073	-0.108482	-0.095706
Cu8	Cu	-0.893883	-0.128235	-0.101932
Cu9	Cu	-0.893895	0.127920	-0.101937
O10	O	-0.887665	-0.108432	-0.212120
C11	C	-0.755503	-0.000128	-0.107715
C12	C	-0.671485	-0.000111	-0.106376
C13	C	-0.622869	-0.000095	-0.174709
C14	C	-0.543925	-0.000111	-0.173447
C15	C	-0.513600	-0.000134	-0.103851
C16	C	-0.562222	-0.000155	-0.035513
C17	C	-0.641164	-0.000148	-0.036776
C18	C	-0.243859	-0.000184	-0.030418
C19	C	-0.164910	-0.000187	-0.029160
C20	C	-0.146620	-0.000147	-0.167088
C21	C	-0.225562	-0.000140	-0.168351
C22	C	-0.274177	-0.000167	-0.100014
C23	C	-0.359777	-0.000152	-0.101383
C24	C	-0.428002	-0.000140	-0.102480
N25	N	-0.893880	-0.308401	-0.101927
C26	C	-0.893891	-0.574072	-0.101936
C27	C	-0.893882	-0.426234	-0.101933
C28	C	-0.032275	-0.000181	-0.096155
C29	C	-0.116293	-0.000180	-0.097493
C30	C	-0.899659	-0.000187	0.036450
C31	C	-0.898315	-0.000198	0.120468
N32	N	-0.893904	0.308086	-0.101936
C33	C	-0.888119	-0.000125	-0.240320
C34	C	-0.889463	-0.000106	-0.324337
C35	C	-0.890096	0.117958	0.636176
C36	C	-0.891358	0.117946	0.557233
C37	C	-0.891982	-0.000131	0.517777
C38	C	-0.891352	-0.118204	0.557270
C39	C	-0.890095	-0.118191	0.636212
C40	C	-0.896422	-0.118259	0.238903
C41	C	-0.897676	-0.118263	0.159955
C42	C	-0.897685	0.117878	0.159924
C43	C	-0.896428	0.117891	0.238867
C44	C	-0.895802	-0.000181	0.278353
C45	C	-0.894434	-0.000167	0.363952
C46	C	-0.893344	-0.000146	0.432178
H47	H	-0.504345	-0.000096	-0.229090
H48	H	-0.898181	-0.214422	0.127832
H49	H	-0.895913	-0.214401	0.271044
H50	H	-0.889581	0.214110	0.668295
H51	H	-0.895916	0.214041	0.270987
H52	H	-0.891875	0.214086	0.525087
Cl53	Cl	-0.263681	-0.000104	-0.255847
Cl54	Cl	-0.892141	-0.266645	0.507669
Cl55	Cl	-0.660984	-0.000057	-0.262206
Cl56	Cl	-0.898484	0.266314	0.110281
H57	H	-0.107027	-0.000132	-0.222732
H58	H	-0.283432	-0.000207	0.025227
Cl59	Cl	-0.126788	-0.000217	0.058339
Cl60	Cl	-0.524098	-0.000192	0.051980
H61	H	-0.889579	-0.214330	0.668361
H62	H	-0.680747	-0.000160	0.018868
