data_functionalizedCrystal
_audit_creation_method	'MofGen! by Chris Wilmer'
_symmetry_space_group_name_H-M	'P1'
_symmetry_Int_Tables_number	1
_symmetry_cell_setting	triclinic
loop_
_symmetry_equiv_pos_as_xyz
  x,y,z
_cell_length_a	17.000371
_cell_length_b	17.019294
_cell_length_c	9.565339
_cell_angle_alpha	86.121262
_cell_angle_beta	89.996315
_cell_angle_gamma	79.505866
loop_
_atom_site_label
_atom_site_type_symbol
_atom_site_fract_x
_atom_site_fract_y
_atom_site_fract_z
O1	O	1.056070	0.028421	-0.119687
O2	O	0.824305	0.057053	-0.123135
O3	O	0.946653	-0.072543	-0.107526
O4	O	0.933722	0.158018	-0.135296
O5	O	0.946643	-0.072535	0.124994
O6	O	0.824295	0.057061	0.109385
O7	O	1.056060	0.028429	0.112832
Zn8	Zn	0.940176	0.042747	0.148026
Zn9	Zn	0.940189	0.042736	-0.158328
O10	O	0.933712	0.158026	0.097223
C11	C	0.794644	0.058595	-0.007060
C12	C	0.706281	0.063168	-0.007611
C13	C	0.674335	-0.007205	0.000868
C14	C	0.591307	-0.002903	0.000339
C15	C	0.540226	0.071772	-0.008658
C16	C	0.572177	0.142151	-0.017141
C17	C	0.655203	0.137848	-0.016623
C18	C	0.289061	0.088391	-0.010669
C19	C	0.206030	0.092688	-0.011182
C20	C	0.225166	-0.052367	0.006296
C21	C	0.308193	-0.056663	0.006822
C22	C	0.340136	0.013716	-0.001669
C23	C	0.455358	0.076171	-0.009193
C24	C	0.425003	0.009316	-0.001143
C25	C	0.946157	-0.101894	0.012267
C26	C	0.944687	-0.189362	0.022793
C27	C	0.944003	-0.230455	-0.099007
C28	C	0.942615	-0.312639	-0.089112
C29	C	0.941918	-0.353731	0.042584
C30	C	0.942600	-0.312632	0.164393
C31	C	0.943981	-0.230448	0.154497
C32	C	0.937741	-0.601872	0.078805
C33	C	0.936362	-0.684062	0.088693
C34	C	0.936377	-0.684064	-0.164814
C35	C	0.937763	-0.601879	-0.174699
C36	C	0.938440	-0.560787	-0.052890
C37	C	0.940503	-0.437737	0.052701
C38	C	0.939850	-0.476781	-0.063008
C39	C	1.085721	0.026887	-0.003245
C40	C	1.174084	0.022314	-0.002703
C41	C	0.934207	0.187377	-0.022572
C42	C	0.935678	0.274845	-0.033107
N43	N	0.940173	0.042753	0.357104
N44	N	0.940198	0.042723	-0.367406
C45	C	0.883574	0.102670	0.441091
C46	C	0.955488	0.112988	0.533027
C47	C	0.868291	0.032439	0.542723
C48	C	1.012123	0.053105	0.446985
C49	C	0.924879	-0.027473	0.456676
C50	C	0.996844	-0.017188	0.548574
H51	H	0.530580	0.202953	-0.024476
O52	O	0.560373	-0.071322	0.008404
C53	C	0.586476	-0.116494	-0.106589
H54	H	0.644039	-0.098993	-0.148845
H55	H	0.598071	-0.182987	-0.071485
H56	H	0.538427	-0.104031	-0.192419
H57	H	0.939937	-0.471203	0.159929
O58	O	0.940382	-0.436881	-0.190975
C59	C	0.871155	-0.443273	-0.267334
H60	H	0.822610	-0.456281	-0.191608
H61	H	0.848935	-0.384625	-0.331893
H62	H	0.885939	-0.494080	-0.340248
H63	H	0.968441	0.172363	0.566843
H64	H	0.938332	-0.568429	-0.281940
O65	O	0.795795	0.022078	0.593069
C66	C	0.797044	0.021457	0.740526
H67	H	0.845749	0.054155	0.775400
H68	H	0.736512	0.052798	0.778233
H69	H	0.809879	-0.043083	0.787184
H70	H	0.835754	0.153380	0.394129
H71	H	1.072936	0.061888	0.405139
H72	H	1.044771	-0.067877	0.595278
O73	O	0.935727	-0.723862	-0.283271
C74	C	0.936604	-0.669963	-0.401630
H75	H	0.962798	-0.616401	-0.370935
H76	H	0.974809	-0.701399	-0.486522
H77	H	0.872917	-0.648505	-0.443141
O78	O	0.686333	0.206153	-0.024664
C79	C	0.733767	0.208022	0.095549
H80	H	0.754508	0.144410	0.143364
H81	H	0.788105	0.235689	0.065125
H82	H	0.697048	0.245477	0.175362
H83	H	0.315059	0.145698	-0.017592
H84	H	0.935790	-0.717516	0.195941
O85	O	0.194173	-0.120751	0.014778
C86	C	0.220292	-0.165933	0.140622
H87	H	0.237513	-0.124679	0.219830
H88	H	0.170029	-0.196004	0.184660
H89	H	0.274453	-0.213649	0.119141
O90	O	0.909260	-0.098239	0.416340
C91	C	0.833375	-0.108869	0.465078
H92	H	0.795527	-0.048088	0.483972
H93	H	0.802531	-0.138951	0.383387
H94	H	0.840701	-0.148163	0.567281
H95	H	0.715920	-0.068014	0.008200
H96	H	0.349778	-0.117472	0.014154
O97	O	0.938312	-0.562038	0.197231
C98	C	0.869065	-0.568394	0.275114
H99	H	0.845079	-0.623484	0.245693
H100	H	0.884527	-0.574307	0.391772
H101	H	0.821596	-0.512531	0.250858
O102	O	0.156522	0.165297	-0.020005
C103	C	0.202518	0.226494	-0.027358
H104	H	0.264509	0.202165	-0.068446
H105	H	0.171838	0.278452	-0.101134
H106	H	0.208401	0.248350	0.081556
H107	H	0.466596	-0.051484	0.006174
H108	H	0.413759	0.136972	-0.016517
H109	H	0.944575	-0.197005	-0.206248
O110	O	0.942023	-0.352449	-0.207567
C111	C	0.942938	-0.298558	-0.325926
H112	H	0.969081	-0.244974	-0.295190
H113	H	0.981207	-0.329989	-0.410750
H114	H	0.879268	-0.277135	-0.367546
H115	H	0.942027	-0.346094	0.271623
O116	O	0.944670	-0.190654	0.272954
C117	C	0.943733	-0.244538	0.391315
H118	H	0.967951	-0.308135	0.361825
H119	H	0.982741	-0.228469	0.478044
H120	H	0.879752	-0.240583	0.429787
