data_functionalizedCrystal
_audit_creation_method	'MofGen! by Chris Wilmer'
_symmetry_space_group_name_H-M	'P1'
_symmetry_Int_Tables_number	1
_symmetry_cell_setting	triclinic
loop_
_symmetry_equiv_pos_as_xyz
  x,y,z
_cell_length_a	10.540539
_cell_length_b	17.038272
_cell_length_c	9.616153
_cell_angle_alpha	89.997688
_cell_angle_beta	89.995174
_cell_angle_gamma	87.818524
loop_
_atom_site_label
_atom_site_type_symbol
_atom_site_fract_x
_atom_site_fract_y
_atom_site_fract_z
O1	O	1.696176	0.110247	-0.115581
O2	O	1.327732	0.120634	-0.115599
O3	O	1.509764	0.001613	-0.115579
O4	O	1.514144	0.229269	-0.115601
O5	O	1.509738	0.001615	0.115712
O6	O	1.327705	0.120637	0.115693
O7	O	1.696149	0.110249	0.115710
Zn8	Zn	1.511923	0.115443	0.152424
Zn9	Zn	1.511958	0.115440	-0.152313
O10	O	1.514117	0.229271	0.115690
C11	C	1.280343	0.119857	0.000045
C12	C	1.139177	0.117526	0.000039
C13	C	0.947420	0.028219	0.000587
C14	C	1.094259	0.030581	0.000051
C15	C	1.081423	0.159366	-0.132039
C16	C	0.934602	0.156399	-0.132135
C17	C	0.934248	0.158170	0.130886
C18	C	1.081305	0.158971	0.132618
C19	C	1.505768	-0.027537	0.000066
C20	C	1.493883	-0.114398	0.000065
C21	C	1.602994	-0.163886	0.000072
C22	C	1.591820	-0.245501	0.000058
C23	C	1.471534	-0.277626	0.000048
C24	C	1.362416	-0.228133	0.000037
C25	C	1.373591	-0.146519	0.000041
C26	C	1.432055	-0.523611	0.000027
C27	C	1.420888	-0.605231	0.000027
C28	C	1.650293	-0.622593	0.000046
C29	C	1.661457	-0.540977	0.000058
C30	C	1.552339	-0.491491	0.000040
C31	C	1.460110	-0.361050	0.000038
C32	C	1.563764	-0.408069	0.000040
C33	C	1.743538	0.111027	0.000063
C34	C	1.884704	0.113358	0.000061
C35	C	1.518114	0.258421	0.000042
C36	C	1.529998	0.345282	0.000034
N37	N	1.511909	0.115445	0.360398
N38	N	1.511982	0.115432	-0.360287
C39	C	1.414198	0.178900	0.580758
C40	C	1.414448	0.179138	0.419590
C41	C	1.646364	0.134015	0.418852
C42	C	1.645842	0.134465	0.580070
C43	C	1.476466	0.033212	0.580316
C44	C	1.473469	0.033745	0.419089
H45	H	1.119404	0.128406	0.230328
O46	O	1.134238	0.120858	-0.262239
H47	H	1.184561	0.164806	-0.324615
O48	O	1.732732	-0.129238	0.000086
H49	H	1.743315	-0.092463	-0.094177
H50	H	0.915620	-0.006128	0.095308
O51	O	0.878782	0.239223	-0.140084
H52	H	0.773600	0.237726	-0.140200
O53	O	1.282434	0.164353	0.367238
H54	H	1.247828	0.215023	0.303339
O55	O	1.709501	-0.298879	0.000088
H56	H	1.795020	-0.262829	0.000121
H57	H	1.739130	-0.662893	0.000058
H58	H	0.892879	0.220970	0.131773
O59	O	0.893430	0.115424	-0.262897
H60	H	0.830558	0.155926	-0.324539
H61	H	1.362173	-0.387215	0.000033
O62	O	1.791198	-0.506333	0.000072
H63	H	1.780637	-0.441269	0.000089
O64	O	0.903191	-0.017101	-0.124156
H65	H	0.836739	0.020750	-0.186533
O66	O	1.121225	0.242936	0.143195
H67	H	1.183204	0.256502	0.053715
H68	H	1.438038	0.240138	0.381006
O69	O	1.745532	0.074456	0.368070
H70	H	1.818993	0.104818	0.307934
H71	H	1.314247	0.167898	0.619566
H72	H	1.132922	-0.002574	-0.094786
O73	O	1.118910	0.243944	-0.138558
H74	H	1.076893	0.272158	-0.232779
O75	O	1.445087	0.259250	0.634375
H76	H	1.529783	0.254179	0.702828
O77	O	1.342392	0.015103	0.368494
H78	H	1.347652	-0.040205	0.307429
O79	O	1.685512	0.213919	0.629872
H80	H	1.704881	0.251662	0.538808
H81	H	0.900066	0.130034	0.231000
O82	O	1.291137	-0.639874	0.000014
H83	H	1.280543	-0.676634	0.094296
O84	O	1.693501	-0.373427	0.000045
H85	H	1.704064	-0.336666	0.094322
O86	O	1.745727	0.075622	0.631744
H87	H	1.794196	0.046975	0.541579
H88	H	1.343202	-0.483328	0.000013
H89	H	1.676794	0.193323	0.378457
H90	H	1.264477	-0.254296	0.000020
H91	H	1.539379	-0.015754	0.378802
O92	O	1.255910	-0.093138	0.000049
H93	H	1.170390	-0.129186	0.000057
H94	H	1.380080	0.015538	0.621051
H95	H	1.547672	-0.014028	0.618440
H96	H	1.133791	-0.002340	0.094731
