data_functionalizedCrystal
_audit_creation_method	'MofGen! by Chris Wilmer'
_symmetry_space_group_name_H-M	'P1'
_symmetry_Int_Tables_number	1
_symmetry_cell_setting	triclinic
loop_
_symmetry_equiv_pos_as_xyz
  x,y,z
_cell_length_a	23.532355
_cell_length_b	23.532407
_cell_length_c	22.010155
_cell_angle_alpha	89.999577
_cell_angle_beta	89.997414
_cell_angle_gamma	82.838088
loop_
_atom_site_label
_atom_site_type_symbol
_atom_site_fract_x
_atom_site_fract_y
_atom_site_fract_z
O1	O	0.755283	0.068986	-0.050449
O2	O	1.255283	0.568986	0.449551
O3	O	0.589415	0.079020	-0.050469
O4	O	1.089415	0.579020	0.449531
O5	O	0.677351	-0.008929	-0.050447
O6	O	1.177351	0.491071	0.449553
O7	O	0.667347	0.156936	-0.050470
O8	O	1.167347	0.656936	0.449530
O9	O	0.677335	-0.008916	0.050603
O10	O	1.177335	0.491084	0.550603
O11	O	0.589399	0.079033	0.050582
O12	O	1.089399	0.579033	0.550582
O13	O	0.755267	0.068999	0.050602
O14	O	1.255267	0.568999	0.550602
Cu15	Cu	0.672332	0.074018	0.059818
Cu16	Cu	1.172332	0.574018	0.559818
Cu17	Cu	0.672351	0.074002	-0.059685
Cu18	Cu	1.172351	0.574002	0.440315
O19	O	0.667331	0.156949	0.050580
O20	O	1.167331	0.656949	0.550580
C21	C	0.568191	0.078776	0.000054
C22	C	1.068191	0.578776	0.500054
C23	C	0.504972	0.078022	0.000047
C24	C	1.004972	0.578022	0.500047
C25	C	0.112950	0.073291	0.055155
C26	C	0.612950	0.573291	0.555155
C27	C	0.053550	0.072574	0.055158
C28	C	0.553550	0.572574	0.555158
O29	O	0.022824	0.072189	0.102003
O30	O	0.522824	0.572189	0.602003
N31	N	0.023850	0.072211	0.000076
N32	N	0.523850	0.572211	0.500076
C33	C	0.053554	0.072559	-0.055013
C34	C	0.553554	0.572559	0.444987
O35	O	0.022838	0.072184	-0.101864
O36	O	0.522838	0.572184	0.398136
C37	C	0.112953	0.073273	-0.055015
C38	C	0.612953	0.573273	0.444985
C39	C	0.142649	0.073641	0.000071
C40	C	0.642649	0.573641	0.500071
C41	C	0.142646	0.073659	0.110237
C42	C	0.642646	0.573659	0.610237
C43	C	0.202041	0.074378	0.110234
C44	C	0.702041	0.574378	0.610234
C45	C	0.231740	0.074728	0.055150
C46	C	0.731740	0.574728	0.555150
C47	C	0.202044	0.074360	0.000069
C48	C	0.702044	0.574360	0.500069
C49	C	0.142656	0.073617	-0.110102
C50	C	0.642656	0.573617	0.389898
C51	C	0.202059	0.074330	-0.110099
C52	C	0.702059	0.574330	0.389901
C53	C	0.231755	0.074699	-0.055014
C54	C	0.731755	0.574699	0.444986
C55	C	0.291138	0.075429	-0.055018
C56	C	0.791138	0.575429	0.444982
N57	N	0.320838	0.075792	0.000064
N58	N	0.820838	0.575792	0.500064
C59	C	0.291139	0.075441	0.055148
C60	C	0.791139	0.575441	0.555148
C61	C	-0.071188	0.071060	-0.055005
C62	C	0.428812	0.571060	0.444995
C63	C	-0.130586	0.070351	-0.055004
C64	C	0.369414	0.570351	0.444996
C65	C	-0.130585	0.070364	0.055167
C66	C	0.369415	0.570364	0.555167
C67	C	-0.071187	0.071078	0.055165
C68	C	0.428813	0.571078	0.555165
C69	C	-0.041488	0.071423	0.000077
C70	C	0.458512	0.571423	0.500077
C71	C	0.415873	0.076951	0.055138
C72	C	0.915873	0.576951	0.555138
C73	C	0.475273	0.077672	0.055131
C74	C	0.975273	0.577672	0.555131
C75	C	0.475268	0.077655	-0.055040
C76	C	0.975268	0.577655	0.444960
C77	C	0.415872	0.076938	-0.055032
C78	C	0.915872	0.576938	0.444968
C79	C	0.386177	0.076583	0.000061
C80	C	0.886177	0.576583	0.500061
O81	O	0.321902	0.075811	-0.101839
O82	O	0.821902	0.575811	0.398161
O83	O	0.321863	0.075809	0.101992
O84	O	0.821863	0.575809	0.601992
C85	C	0.677088	-0.030139	0.000080
C86	C	1.177088	0.469861	0.500080
C87	C	0.676322	-0.093356	0.000084
C88	C	1.176322	0.406644	0.500084
C89	C	0.723557	-0.492468	0.000057
C90	C	1.223557	0.007532	0.500057
C91	C	0.722845	-0.551868	0.000052
C92	C	1.222845	-0.051868	0.500052
O93	O	0.766632	-0.588620	0.000035
O94	O	1.266632	-0.088620	0.500035
N95	N	0.670568	-0.574484	0.000046
N96	N	1.170568	-0.074484	0.500046
C97	C	0.618998	-0.537697	0.000039
C98	C	1.118998	-0.037697	0.500039
O99	O	0.574467	-0.562388	0.000033
O100	O	1.074467	-0.062388	0.500033
C101	C	0.619710	-0.478298	0.000039
C102	C	1.119710	0.021702	0.500039
C103	C	0.671991	-0.455685	0.000051
C104	C	1.171991	0.044315	0.500051
C105	C	0.775834	-0.469854	0.000068
C106	C	1.275834	0.030146	0.500068
C107	C	0.776545	-0.410458	0.000074
C108	C	1.276545	0.089542	0.500074
C109	C	0.724979	-0.373676	0.000068
C110	C	1.224979	0.126324	0.500068
C111	C	0.672703	-0.396289	0.000057
C112	C	1.172703	0.103711	0.500057
C113	C	0.568141	-0.441512	0.000027
C114	C	1.068141	0.058488	0.500027
C115	C	0.568858	-0.382110	0.000027
C116	C	1.068858	0.117890	0.500027
C117	C	0.621139	-0.359497	0.000039
C118	C	1.121139	0.140503	0.500039
C119	C	0.621848	-0.300110	0.000057
C120	C	1.121848	0.199890	0.500057
N121	N	0.674126	-0.277494	0.000063
N122	N	1.174126	0.222506	0.500063
C123	C	0.725691	-0.314277	0.000069
C124	C	1.225691	0.185723	0.500069
C125	C	0.617507	-0.662439	0.000037
C126	C	1.117507	-0.162439	0.500037
C127	C	0.616794	-0.721837	0.000041
C128	C	1.116794	-0.221837	0.500041
C129	C	0.720642	-0.736004	0.000053
C130	C	1.220642	-0.236004	0.500053
C131	C	0.721354	-0.676605	0.000053
C132	C	1.221354	-0.176605	0.500053
C133	C	0.669784	-0.639823	0.000043
C134	C	1.169784	-0.139823	0.500043
C135	C	0.727181	-0.189540	0.000082
C136	C	1.227181	0.310460	0.500082
C137	C	0.727888	-0.130138	0.000090
C138	C	1.227888	0.369862	0.500090
C139	C	0.624041	-0.115977	0.000074
C140	C	1.124041	0.384023	0.500074
C141	C	0.623334	-0.175373	0.000069
C142	C	1.123334	0.324627	0.500069
C143	C	0.674909	-0.212154	0.000071
C144	C	1.174909	0.287846	0.500071
O145	O	0.578084	-0.263323	0.000072
O146	O	1.078084	0.236677	0.500072
O147	O	0.770216	-0.289577	0.000067
O148	O	1.270216	0.210423	0.500067
C149	C	0.776491	0.069244	0.000078
C150	C	1.276491	0.569244	0.500078
C151	C	0.839710	0.069998	0.000081
C152	C	1.339710	0.569998	0.500081
C153	C	0.667594	0.178158	0.000052
C154	C	1.167594	0.678158	0.500052
C155	C	0.668360	0.241375	0.000043
C156	C	1.168360	0.741375	0.500043
N157	N	0.672323	0.074028	0.143871
N158	N	1.172323	0.574028	0.643871
N159	N	0.672364	0.073987	-0.143738
N160	N	1.172364	0.573987	0.356262
C161	C	0.711291	0.035063	0.563660
C162	C	1.211291	0.535063	1.063660
C163	C	0.711293	0.035059	0.627267
C164	C	1.211293	0.535059	1.127267
O165	O	0.744402	0.001938	0.660167
O166	O	1.244402	0.501938	1.160167
N167	N	0.672350	0.073990	0.659078
N168	N	1.172350	0.573990	1.159078
C169	C	0.633398	0.112923	0.627277
C170	C	1.133398	0.612923	1.127277
O171	O	0.600274	0.146036	0.660175
O172	O	1.100274	0.646036	1.160175
C173	C	0.633393	0.112924	0.563671
C174	C	1.133393	0.612924	1.063671
C175	C	0.672343	0.073995	0.531864
C176	C	1.172343	0.573995	1.031864
C177	C	0.750236	-0.003863	0.531853
C178	C	1.250236	0.496137	1.031853
C179	C	0.750234	-0.003858	0.468249
C180	C	1.250234	0.496142	0.968249
C181	C	0.711286	0.035073	0.436453
C182	C	1.211286	0.535073	0.936453
C183	C	0.672341	0.074000	0.468261
C184	C	1.172341	0.574000	0.968261
C185	C	0.594439	0.151854	0.531872
C186	C	1.094439	0.651854	1.031872
C187	C	0.594437	0.151851	0.468261
C188	C	1.094437	0.651851	0.968261
C189	C	0.633387	0.112922	0.436454
C190	C	1.133387	0.612922	0.936454
C191	C	0.633391	0.112936	0.372861
C192	C	1.133391	0.612936	0.872861
N193	N	0.672334	0.074005	0.341051
N194	N	1.172334	0.574005	0.841051
C195	C	0.711282	0.035074	0.372847
C196	C	1.211282	0.535074	0.872847
C197	C	0.633411	0.112918	0.760855
C198	C	1.133411	0.612918	1.260855
C199	C	0.633418	0.112921	0.824461
C200	C	1.133418	0.612921	1.324461
C201	C	0.711313	0.035056	0.824446
C202	C	1.211313	0.535056	1.324446
C203	C	0.711308	0.035057	0.760840
C204	C	1.211308	0.535057	1.260840
C205	C	0.672354	0.073988	0.729045
C206	C	1.172354	0.573988	1.229045
C207	C	0.711275	0.035087	0.239276
C208	C	1.211275	0.535087	0.739276
C209	C	0.711270	0.035097	0.175667
C210	C	1.211270	0.535097	0.675667
C211	C	0.633374	0.112959	0.175687
C212	C	1.133374	0.612959	0.675687
C213	C	0.633380	0.112952	0.239290
C214	C	1.133380	0.612952	0.739290
C215	C	0.672332	0.074011	0.271083
C216	C	1.172332	0.574011	0.771083
O217	O	0.600297	0.146039	0.339921
O218	O	1.100297	0.646039	0.839921
O219	O	0.744395	0.001961	0.339941
O220	O	1.244395	0.501961	0.839941
H221	H	-0.047012	0.071378	0.100021
H222	H	0.452988	0.571378	0.600021
H223	H	0.601691	0.144625	0.734971
H224	H	1.101691	0.644625	1.234971
H225	H	0.562723	0.183554	0.557760
H226	H	1.062723	0.683554	1.057760
H227	H	0.817827	-0.499797	0.000070
H228	H	1.317827	0.000203	0.500070
H229	H	0.526863	-0.352164	0.000018
H230	H	1.026863	0.147836	0.500018
Cl231	Cl	0.792019	-0.235770	0.000084
Cl232	Cl	1.292019	0.264230	0.500084
H233	H	0.763925	-0.658198	0.000063
H234	H	1.263925	-0.158198	0.500063
Cl235	Cl	0.545462	0.200796	0.428295
Cl236	Cl	1.045462	0.700796	0.928295
Cl237	Cl	-0.167932	0.069921	0.124417
Cl238	Cl	0.332068	0.569921	0.624417
Cl239	Cl	0.557608	-0.203802	0.000066
Cl240	Cl	1.057608	0.296198	0.500066
Cl241	Cl	-0.167912	0.069899	-0.124257
Cl242	Cl	0.332088	0.569899	0.375743
Cl243	Cl	0.512601	0.078137	0.124387
Cl244	Cl	1.012601	0.578137	0.624387
H245	H	0.391701	0.076667	0.100001
H246	H	0.891701	0.576667	0.600001
H247	H	0.582057	-0.086018	0.000072
H248	H	1.082057	0.413982	0.500072
Cl249	Cl	0.760240	-0.013845	0.135684
Cl250	Cl	1.260240	0.486155	0.635684
Cl251	Cl	-0.033859	0.071502	-0.124265
Cl252	Cl	0.466141	0.571502	0.375735
Cl253	Cl	0.584419	0.161899	0.279274
Cl254	Cl	1.084419	0.661899	0.779274
Cl255	Cl	0.512615	0.078092	-0.124285
Cl256	Cl	1.012615	0.578092	0.375715
H257	H	0.742992	0.003377	0.265154
H258	H	1.242992	0.503377	0.765154
Cl259	Cl	0.105320	0.073222	0.179495
Cl260	Cl	0.605320	0.573222	0.679495
Cl261	Cl	0.105339	0.073152	-0.179358
Cl262	Cl	0.605339	0.573152	0.320642
H263	H	0.743025	0.003355	0.850346
H264	H	1.243025	0.503355	1.350346
H265	H	0.226236	0.074612	-0.154960
H266	H	0.726236	0.574612	0.345040
Cl267	Cl	0.584413	0.161900	0.135705
Cl268	Cl	1.084413	0.661900	0.635705
H269	H	0.391691	0.076647	-0.099888
H270	H	0.891691	0.576647	0.400112
Cl271	Cl	0.793617	-0.101715	0.000104
Cl272	Cl	1.293617	0.398285	0.500104
Cl273	Cl	0.842273	-0.382040	0.000072
Cl274	Cl	1.342273	0.117960	0.500072
Cl275	Cl	0.785467	-0.782256	0.000056
Cl276	Cl	1.285467	-0.282256	0.500056
H277	H	0.781949	-0.035560	0.442356
H278	H	1.281949	0.464440	0.942356
Cl279	Cl	0.551067	-0.750257	0.000037
Cl280	Cl	1.051067	-0.250257	0.500037
Cl281	Cl	0.552670	-0.616204	0.000030
Cl282	Cl	1.052670	-0.116204	0.500030
Cl283	Cl	0.799206	-0.052812	0.571814
Cl284	Cl	1.299206	0.447188	1.071814
Cl285	Cl	0.760273	-0.013886	0.720861
Cl286	Cl	1.260273	0.486114	1.220861
H287	H	0.525569	-0.459912	0.000014
H288	H	1.025569	0.040088	0.500014
H289	H	0.226214	0.074674	0.155091
H290	H	0.726214	0.574674	0.655091
Cl291	Cl	0.584459	0.161870	0.864440
Cl292	Cl	1.084459	0.661870	1.364440
