data_functionalizedCrystal
_audit_creation_method	'MofGen! by Chris Wilmer'
_symmetry_space_group_name_H-M	'P1'
_symmetry_Int_Tables_number	1
_symmetry_cell_setting	triclinic
loop_
_symmetry_equiv_pos_as_xyz
  x,y,z
_cell_length_a	19.188933
_cell_length_b	19.188930
_cell_length_c	16.176319
_cell_angle_alpha	89.988074
_cell_angle_beta	89.993996
_cell_angle_gamma	83.145175
loop_
_atom_site_label
_atom_site_type_symbol
_atom_site_fract_x
_atom_site_fract_y
_atom_site_fract_z
O1	O	0.926147	0.087176	-0.068728
O2	O	1.426147	0.587176	0.431272
O3	O	0.722836	0.098909	-0.068737
O4	O	1.222836	0.598909	0.431263
O5	O	0.830358	-0.008613	-0.068716
O6	O	1.330358	0.491387	0.431284
O7	O	0.818624	0.194698	-0.068749
O8	O	1.318624	0.694698	0.431251
O9	O	0.830343	-0.008620	0.068777
O10	O	1.330343	0.491380	0.568777
O11	O	0.722821	0.098902	0.068756
O12	O	1.222821	0.598902	0.568756
O13	O	0.926132	0.087169	0.068765
O14	O	1.426132	0.587169	0.568765
Cu15	Cu	0.824475	0.093035	0.081315
Cu16	Cu	1.324475	0.593035	0.581315
Cu17	Cu	0.824492	0.093043	-0.081287
Cu18	Cu	1.324492	0.593043	0.418713
O19	O	0.818609	0.194691	0.068744
O20	O	1.318609	0.694691	0.568744
C21	C	0.696817	0.098525	0.000008
C22	C	1.196817	0.598525	0.500008
C23	C	0.619313	0.097384	0.000006
C24	C	1.119313	0.597384	0.500006
C25	C	0.066065	0.089242	-0.074932
C26	C	0.566065	0.589242	0.425068
C27	C	0.138890	0.090310	-0.074935
C28	C	0.638890	0.590310	0.425065
C29	C	0.175299	0.090844	0.000012
C30	C	0.675299	0.590844	0.500012
C31	C	0.138880	0.090291	0.074968
C32	C	0.638880	0.590291	0.574968
C33	C	0.066058	0.089216	0.074970
C34	C	0.566058	0.589216	0.574970
N35	N	0.284313	0.132260	0.055792
N36	N	0.784313	0.632260	0.555792
N37	N	0.353490	0.133283	0.055786
N38	N	0.853490	0.633283	0.555786
C39	C	0.394707	0.094082	0.000013
C40	C	0.894707	0.594082	0.500013
N41	N	0.364132	0.053828	-0.055766
N42	N	0.864132	0.553828	0.444234
N43	N	0.294948	0.052809	-0.055762
N44	N	0.794948	0.552809	0.444238
C45	C	0.254262	0.092009	0.000019
C46	C	0.754262	0.592009	0.500019
C47	C	0.510082	0.095788	-0.074942
C48	C	1.010082	0.595788	0.425058
C49	C	0.582909	0.096851	-0.074942
C50	C	1.082909	0.596851	0.425058
C51	C	0.582896	0.096840	0.074963
C52	C	1.082896	0.596840	0.574963
C53	C	0.510072	0.095769	0.074961
C54	C	1.010072	0.595769	0.574961
C55	C	0.473669	0.095246	0.000006
C56	C	0.973669	0.595246	0.500006
C57	C	0.829971	-0.034628	0.000033
C58	C	1.329971	0.465372	0.500033
C59	C	0.828830	-0.112132	0.000040
C60	C	1.328830	0.387868	0.500040
C61	C	0.891921	-0.157056	0.000046
C62	C	1.391921	0.342944	0.500046
C63	C	0.890849	-0.229880	0.000033
C64	C	1.390849	0.270120	0.500033
C65	C	0.826683	-0.257777	0.000030
C66	C	1.326683	0.242223	0.500030
C67	C	0.763584	-0.212843	0.000018
C68	C	1.263584	0.287157	0.500018
C69	C	0.764658	-0.140021	0.000023
C70	C	1.264658	0.359979	0.500023
N71	N	0.777631	-0.365784	0.046819
N72	N	1.277631	0.134216	0.546819
N73	N	0.776616	-0.434963	0.046816
N74	N	1.276616	0.065037	0.546816
C75	C	0.823445	-0.477185	0.000013
C76	C	1.323445	0.022815	0.500013
N77	N	0.871339	-0.447617	-0.046777
N78	N	1.371339	0.052383	0.453223
N79	N	0.872357	-0.378432	-0.046770
N80	N	1.372357	0.121568	0.453230
C81	C	0.825512	-0.336739	0.000024
C82	C	1.325512	0.163261	0.500024
C83	C	0.885378	-0.601073	0.000004
C84	C	1.385378	-0.101073	0.500004
C85	C	0.884304	-0.673898	-0.000014
C86	C	1.384304	-0.173898	0.499986
C87	C	0.757037	-0.656860	-0.000021
C88	C	1.257037	-0.156860	0.499979
C89	C	0.758113	-0.584037	-0.000011
C90	C	1.258113	-0.084037	0.499989
C91	C	0.822286	-0.556148	0.000006
C92	C	1.322286	-0.056148	0.500006
C93	C	0.952150	0.087553	0.000017
C94	C	1.452150	0.587553	0.500017
C95	C	1.029655	0.088694	0.000015
C96	C	1.529655	0.588694	0.500015
C97	C	0.818997	0.220705	-0.000007
C98	C	1.318997	0.720705	0.499993
C99	C	0.820137	0.298210	-0.000019
C100	C	1.320137	0.798210	0.499981
N101	N	0.824468	0.093029	0.195680
N102	N	1.324468	0.593029	0.695680
N103	N	0.824505	0.093043	-0.195652
N104	N	1.324505	0.593043	0.304348
C105	C	0.872093	0.045437	0.238953
C106	C	1.372093	0.545437	0.738953
C107	C	0.872097	0.045437	0.325500
C108	C	1.372097	0.545437	0.825500
C109	C	0.824478	0.093031	0.368773
C110	C	1.324478	0.593031	0.868773
C111	C	0.776847	0.140625	0.325493
C112	C	1.276847	0.640625	0.825493
C113	C	0.776841	0.140622	0.238948
C114	C	1.276841	0.640622	0.738948
C115	C	0.776871	0.140638	0.674521
C116	C	1.276871	0.640638	1.174521
C117	C	0.776883	0.140639	0.761073
C118	C	1.276883	0.640639	1.261073
C119	C	0.872127	0.045453	0.761074
C120	C	1.372127	0.545453	1.261074
C121	C	0.872121	0.045450	0.674529
C122	C	1.372121	0.545450	1.174529
C123	C	0.824488	0.093040	0.631257
C124	C	1.324488	0.593040	1.131257
C125	C	0.824484	0.093040	0.537413
C126	C	1.324484	0.593040	1.037413
C127	C	0.824485	0.093036	0.462615
C128	C	1.324485	0.593036	0.962615
H129	H	0.480426	0.095325	0.135991
H130	H	0.980426	0.595325	0.635991
H131	H	0.706738	-0.547459	-0.000012
H132	H	1.206738	-0.047459	0.499988
H133	H	0.910873	0.006683	0.203727
H134	H	1.410873	0.506683	0.703727
C135	C	0.622501	0.097303	-0.156292
C136	C	1.122501	0.597303	0.343708
C137	C	0.672333	0.037855	-0.160682
C138	C	1.172333	0.537855	0.339318
C139	C	0.708813	0.038244	-0.235614
C140	C	1.208813	0.538244	0.264386
H141	H	0.645525	0.138381	-0.159487
H142	H	1.145525	0.638381	0.340513
H143	H	0.590416	0.096802	-0.200954
H144	H	1.090416	0.596802	0.299046
H145	H	0.704413	0.038363	-0.116032
H146	H	1.204413	0.538363	0.383968
H147	H	0.649328	-0.003232	-0.157501
H148	H	1.149328	0.496768	0.342499
H149	H	0.676728	0.037742	-0.280276
H150	H	1.176728	0.537742	0.219724
H151	H	0.731833	0.079324	-0.238802
H152	H	1.231833	0.579324	0.261198
H153	H	0.742624	-0.002094	-0.238606
H154	H	1.242624	0.497906	0.261394
C155	C	0.696102	-0.091325	-0.000107
C156	C	1.196102	0.408675	0.499893
C157	C	0.657451	-0.103893	-0.070839
C158	C	1.157451	0.396107	0.429161
C159	C	0.594290	-0.059053	-0.070980
C160	C	1.094290	0.440947	0.429020
H161	H	0.705831	-0.043936	-0.000143
H162	H	1.205831	0.456064	0.499857
H163	H	0.669736	-0.099781	0.047812
H164	H	1.169736	0.400219	0.547812
H165	H	0.683811	-0.095431	-0.118745
H166	H	1.183811	0.404569	0.381255
H167	H	0.647703	-0.151273	-0.070818
H168	H	1.147703	0.348727	0.429182
H169	H	0.567924	-0.067509	-0.023061
H170	H	1.067924	0.432491	0.476939
H171	H	0.604026	-0.011666	-0.071013
H172	H	1.104026	0.488334	0.428987
H173	H	0.568055	-0.067579	-0.118966
H174	H	1.068055	0.432421	0.381034
C175	C	0.725277	0.192352	0.627447
C176	C	1.225277	0.692352	1.127447
C177	C	0.762334	0.234989	0.577728
C178	C	1.262334	0.734989	1.077728
C179	C	0.714829	0.282637	0.534342
C180	C	1.214829	0.782637	1.034342
H181	H	0.696905	0.220766	0.665525
H182	H	1.196905	0.720766	1.165525
H183	H	0.696293	0.167334	0.593651
H184	H	1.196293	0.667334	1.093651
H185	H	0.791306	0.260006	0.611521
H186	H	1.291306	0.760006	1.111521
H187	H	0.790703	0.206595	0.539634
H188	H	1.290703	0.706595	1.039634
H189	H	0.685844	0.257618	0.500545
H190	H	1.185844	0.757618	1.000545
H191	H	0.686460	0.311046	0.572426
H192	H	1.186460	0.811046	1.072426
H193	H	0.739965	0.311567	0.500597
H194	H	1.239965	0.811567	1.000597
H195	H	0.036431	0.088814	-0.135966
H196	H	0.536431	0.588814	0.364034
H197	H	0.937631	-0.578365	0.000014
H198	H	1.437631	-0.078365	0.500014
H199	H	0.910899	0.006696	0.639299
H200	H	1.410899	0.506696	1.139299
C201	C	0.178301	0.090951	-0.156396
C202	C	0.678301	0.590951	0.343604
C203	C	0.130831	0.090282	-0.222036
C204	C	0.630831	0.590282	0.277964
C205	C	0.167107	0.090885	-0.297089
C206	C	0.667107	0.590885	0.202911
H207	H	0.212164	0.050679	-0.159634
H208	H	0.712164	0.550679	0.340366
H209	H	0.201237	0.132096	-0.159548
H210	H	0.701237	0.632096	0.340452
H211	H	0.107906	0.049141	-0.218886
H212	H	0.607906	0.549141	0.281114
H213	H	0.096967	0.130550	-0.218825
H214	H	0.596967	0.630550	0.281175
H215	H	0.190043	0.132031	-0.300241
H216	H	0.690043	0.632031	0.199759
H217	H	0.200969	0.050613	-0.300319
H218	H	0.700969	0.550613	0.199681
H219	H	0.134903	0.090438	-0.341635
H220	H	0.634903	0.590438	0.158365
C221	C	0.622520	0.097307	0.156277
C222	C	1.122520	0.597307	0.656277
C223	C	0.672376	0.037877	0.160652
C224	C	1.172376	0.537877	0.660652
C225	C	0.708900	0.038285	0.235543
C226	C	1.208900	0.538285	0.735543
H227	H	0.590485	0.096794	0.200982
H228	H	1.090485	0.596794	0.700982
H229	H	0.645523	0.138411	0.159398
H230	H	1.145523	0.638411	0.659398
H231	H	0.649374	-0.003216	0.157539
H232	H	1.149374	0.496784	0.657539
H233	H	0.704425	0.038377	0.115963
H234	H	1.204425	0.538377	0.615963
H235	H	0.731903	0.079388	0.238664
H236	H	1.231903	0.579388	0.738664
H237	H	0.676860	0.037773	0.280243
H238	H	1.176860	0.537773	0.780243
H239	H	0.742736	-0.002034	0.238518
H240	H	1.242736	0.497966	0.738518
C241	C	0.959276	-0.278781	0.000006
C242	C	1.459276	0.221219	0.500006
C243	C	0.944599	-0.348525	-0.000018
C244	C	1.444599	0.151475	0.499982
C245	C	1.007615	-0.393590	-0.000052
C246	C	1.507615	0.106410	0.499948
H247	H	0.985637	-0.270447	0.047946
H248	H	1.485637	0.229553	0.547946
H249	H	0.985615	-0.270383	-0.047954
H250	H	1.485615	0.229617	0.452046
H251	H	0.918272	-0.356920	0.047937
H252	H	1.418272	0.143080	0.547937
H253	H	0.918248	-0.356882	-0.047955
H254	H	1.418248	0.143118	0.452045
H255	H	1.033954	-0.385191	-0.048012
H256	H	1.533954	0.114809	0.451988
H257	H	1.033972	-0.385249	0.047889
H258	H	1.533972	0.114751	0.547889
H259	H	0.997666	-0.440915	-0.000077
H260	H	1.497666	0.059085	0.499923
H261	H	0.910876	0.006684	0.360733
H262	H	1.410876	0.506684	0.860733
C263	C	0.952882	-0.722560	0.000034
C264	C	1.452882	-0.222560	0.500034
C265	C	1.009307	-0.682545	0.000073
C266	C	1.509307	-0.182545	0.500073
C267	C	1.072493	-0.727349	0.000130
C268	C	1.572493	-0.227349	0.500130
H269	H	0.955219	-0.751327	-0.047903
H270	H	1.455219	-0.251327	0.452097
H271	H	0.955137	-0.751324	0.047998
H272	H	1.455137	-0.251324	0.547998
H273	H	1.007054	-0.653794	-0.047885
H274	H	1.507054	-0.153794	0.452115
H275	H	1.006994	-0.653780	0.048006
H276	H	1.506994	-0.153780	0.548006
H277	H	1.074747	-0.756113	0.048093
H278	H	1.574747	-0.256113	0.548093
H279	H	1.074822	-0.756113	-0.047808
H280	H	1.574822	-0.256113	0.452192
H281	H	1.110784	-0.700206	0.000164
H282	H	1.610784	-0.200206	0.500164
C283	C	0.961664	-0.126913	0.000016
C284	C	1.461664	0.373087	0.500016
C285	C	1.016687	-0.181848	-0.000002
C286	C	1.516687	0.318152	0.499998
C287	C	1.080943	-0.154106	-0.000042
C288	C	1.580943	0.345894	0.499958
H289	H	0.964821	-0.098879	0.047952
H290	H	1.464821	0.401121	0.547952
H291	H	0.964774	-0.098870	-0.047949
H292	H	1.464774	0.401130	0.452051
H293	H	1.013578	-0.209879	0.047958
H294	H	1.513578	0.290121	0.547958
H295	H	1.013553	-0.209886	-0.047934
H296	H	1.513553	0.290114	0.452066
H297	H	1.084053	-0.126063	-0.048006
H298	H	1.584053	0.373937	0.451994
H299	H	1.084094	-0.126072	0.047895
H300	H	1.584094	0.373928	0.547895
H301	H	1.118284	-0.191375	-0.000061
H302	H	1.618284	0.308625	0.499939
C303	C	0.687440	-0.687274	0.000012
C304	C	1.187440	-0.187274	0.500012
C305	C	0.700002	-0.760665	0.000026
C306	C	1.200002	-0.260665	0.500026
C307	C	0.635905	-0.788710	0.000062
C308	C	1.135905	-0.288710	0.500062
H309	H	0.661425	-0.671905	-0.047923
H310	H	1.161425	-0.171905	0.452077
H311	H	0.661458	-0.671892	0.047977
H312	H	1.161458	-0.171892	0.547977
H313	H	0.725974	-0.776042	-0.047934
H314	H	1.225974	-0.276042	0.452066
H315	H	0.726007	-0.776054	0.047957
H316	H	1.226007	-0.276054	0.547957
H317	H	0.609922	-0.773327	0.048027
H318	H	1.109922	-0.273327	0.548027
H319	H	0.609895	-0.773335	-0.047874
H320	H	1.109895	-0.273335	0.452126
H321	H	0.644419	-0.838508	0.000079
H322	H	1.144419	-0.338508	0.500079
H323	H	0.711340	-0.235562	0.000014
H324	H	1.211340	0.264438	0.500014
H325	H	0.480442	0.095360	-0.135975
H326	H	0.980442	0.595360	0.364025
H327	H	0.910910	0.006699	0.796315
H328	H	1.410910	0.506699	1.296315
H329	H	0.738059	0.179374	0.203715
H330	H	1.238059	0.679374	0.703715
H331	H	0.738072	0.179375	0.360730
H332	H	1.238072	0.679375	0.860730
H333	H	0.168529	0.090725	0.135991
H334	H	0.668529	0.590725	0.635991
C335	C	0.725095	0.192342	0.807907
C336	C	1.225095	0.692342	1.307907
C337	C	0.683365	0.234006	0.751488
C338	C	1.183365	0.734006	1.251488
C339	C	0.635648	0.281633	0.794601
C340	C	1.135648	0.781633	1.294601
H341	H	0.750037	0.221416	0.841656
H342	H	1.250037	0.721416	1.341656
H343	H	0.696081	0.167309	0.841666
H344	H	1.196081	0.667309	1.341666
H345	H	0.712375	0.259037	0.717744
H346	H	1.212375	0.759037	1.217744
H347	H	0.658407	0.204952	0.717737
H348	H	1.158407	0.704952	1.217737
H349	H	0.606633	0.256600	0.828361
H350	H	1.106633	0.756600	1.328361
H351	H	0.660596	0.310702	0.828349
H352	H	1.160596	0.810702	1.328349
H353	H	0.607324	0.309904	0.756329
H354	H	1.107324	0.809904	1.256329
H355	H	0.036412	0.088772	0.136002
H356	H	0.536412	0.588772	0.636002
