data_functionalizedCrystal
_audit_creation_method	'MofGen! by Chris Wilmer'
_symmetry_space_group_name_H-M	'P1'
_symmetry_Int_Tables_number	1
_symmetry_cell_setting	triclinic
loop_
_symmetry_equiv_pos_as_xyz
  x,y,z
_cell_length_a	10.654550
_cell_length_b	15.455313
_cell_length_c	10.654550
_cell_angle_alpha	87.308851
_cell_angle_beta	84.484931
_cell_angle_gamma	92.703897
loop_
_atom_site_label
_atom_site_type_symbol
_atom_site_fract_x
_atom_site_fract_y
_atom_site_fract_z
O1	O	1.673293	0.072066	0.170958
O2	O	1.307816	0.072082	0.187763
O3	O	1.498957	0.072068	-0.003378
O4	O	1.482152	0.072079	0.362100
O5	O	1.488027	-0.072194	0.007507
O6	O	1.296885	-0.072180	0.198648
O7	O	1.662363	-0.072196	0.181843
Cu8	Cu	1.478626	-0.085360	0.191240
Cu9	Cu	1.491553	0.085246	0.178367
O10	O	1.471221	-0.072182	0.372985
C11	C	1.255553	-0.000047	0.191972
C12	C	1.116110	-0.000041	0.188279
N13	N	1.469543	-0.205355	0.200293
C14	C	1.036625	-0.000040	0.300821
C15	C	0.905603	-0.000055	0.297345
C16	C	0.933565	-0.000069	0.068777
C17	C	1.064584	-0.000060	0.072254
C18	C	1.550775	-0.250755	0.119120
C19	C	1.543918	-0.341562	0.125978
C20	C	1.455833	-0.386968	0.214016
C21	C	1.374593	-0.341562	0.295193
C22	C	1.381445	-0.250756	0.288328
C23	C	1.426257	-0.658547	0.243615
C24	C	1.419413	-0.749359	0.250477
C25	C	1.588738	-0.749354	0.081260
C26	C	1.595587	-0.658546	0.074407
C27	C	1.514342	-0.613148	0.155579
N28	N	1.448825	-0.479788	0.221031
N29	N	1.521345	-0.520330	0.148557
C30	C	1.714626	-0.000065	0.177635
C31	C	1.854069	-0.000065	0.181327
C32	C	1.492258	-0.000062	-0.044733
C33	C	1.488566	-0.000061	-0.184177
N34	N	1.500645	0.205241	0.169304
C35	C	1.601107	-0.000065	-0.263662
C36	C	1.597632	-0.000055	-0.394684
C37	C	1.369063	-0.000038	-0.366722
C38	C	1.372541	-0.000043	-0.235703
C39	C	1.477921	-0.000050	0.414340
C40	C	1.481613	-0.000046	0.553783
H41	H	0.840890	-0.000056	0.388988
H42	H	1.280891	-0.000037	-0.170983
C43	C	1.647671	-0.200813	0.022274
C44	C	1.737018	-0.250757	-0.067019
C45	C	1.833914	-0.200819	-0.163871
C46	C	1.841462	-0.100936	-0.171429
C47	C	1.752112	-0.050986	-0.082132
C48	C	1.655216	-0.100925	0.014719
H49	H	1.731434	-0.324702	-0.061427
H50	H	1.900057	-0.237796	-0.229974
H51	H	1.913190	-0.063969	-0.243124
H52	H	1.757696	0.022958	-0.087725
H53	H	1.589073	-0.063948	0.080822
C54	C	1.692474	-0.608597	-0.022439
C55	C	1.781834	-0.658527	-0.111739
C56	C	1.878724	-0.608575	-0.208581
C57	C	1.886254	-0.508692	-0.216123
C58	C	1.796891	-0.458756	-0.126819
C59	C	1.700001	-0.508708	-0.029977
H60	H	1.776263	-0.732471	-0.106159
H61	H	1.944876	-0.645541	-0.274689
H62	H	1.957977	-0.471714	-0.287811
H63	H	1.802462	-0.384812	-0.132399
H64	H	1.633848	-0.471742	0.036131
H65	H	1.689274	-0.000057	-0.459396
C66	C	1.322508	-0.799304	0.347323
C67	C	1.233142	-0.749364	0.436605
C68	C	1.136244	-0.799307	0.533449
C69	C	1.128711	-0.899190	0.541011
C70	C	1.218080	-0.949135	0.451726
C71	C	1.314978	-0.899192	0.354882
H72	H	1.238716	-0.675420	0.431010
H73	H	1.070088	-0.762334	0.599543
H74	H	1.056982	-0.936161	0.612700
H75	H	1.212506	-1.023080	0.457321
H76	H	1.381134	-0.936166	0.288788
C77	C	1.277697	-0.391503	0.392039
C78	C	1.270213	-0.491386	0.399661
C79	C	1.173318	-0.541324	0.496513
C80	C	1.083906	-0.491380	0.585742
C81	C	1.091387	-0.391492	0.578122
C82	C	1.188282	-0.341553	0.481271
H83	H	1.336404	-0.528363	0.333606
H84	H	1.167780	-0.615269	0.502153
H85	H	1.012178	-0.528348	0.657437
H86	H	1.025196	-0.354515	0.644178
H87	H	1.193819	-0.267609	0.475631
H88	H	0.891595	-0.000090	-0.025687
H89	H	1.078572	-0.000031	0.395296
H90	H	1.129304	-0.000063	-0.019396
H91	H	1.610063	-0.378526	0.059880
H92	H	1.654882	-0.786325	0.015172
H93	H	1.360106	-0.621591	0.309711
H94	H	1.315295	-0.213792	0.354426
H95	H	1.695583	-0.000078	-0.221714
H96	H	1.274599	-0.000026	-0.408691
