data_functionalizedCrystal
_audit_creation_method	'MofGen! by Chris Wilmer'
_symmetry_space_group_name_H-M	'P1'
_symmetry_Int_Tables_number	1
_symmetry_cell_setting	triclinic
loop_
_symmetry_equiv_pos_as_xyz
  x,y,z
_cell_length_a	14.044191
_cell_length_b	14.044220
_cell_length_c	9.130307
_cell_angle_alpha	89.996087
_cell_angle_beta	89.998856
_cell_angle_gamma	93.190327
loop_
_atom_site_label
_atom_site_type_symbol
_atom_site_fract_x
_atom_site_fract_y
_atom_site_fract_z
O1	O	1.277171	0.230197	-0.121735
O2	O	1.000499	0.221885	-0.121753
O3	O	1.134682	0.087705	-0.121730
O4	O	1.142988	0.364377	-0.121758
O5	O	1.134672	0.087705	0.121869
O6	O	1.000488	0.221884	0.121846
O7	O	1.277161	0.230197	0.121864
Cu8	Cu	1.138824	0.226040	0.144097
Cu9	Cu	1.138836	0.226041	-0.143987
O10	O	1.142977	0.364376	0.121841
C11	C	0.964872	0.218248	0.000044
C12	C	0.858728	0.207401	0.000037
C13	C	0.613270	0.264501	0.000046
C14	C	0.664395	0.187585	0.000051
C15	C	0.772532	0.198613	0.000044
C16	C	0.505123	0.253474	0.000054
C17	C	1.131041	0.052083	0.000070
C18	C	1.120197	-0.054060	0.000071
C19	C	1.100370	-0.248398	0.000048
C20	C	1.177285	-0.299526	0.000049
C21	C	1.166253	-0.407663	0.000037
C22	C	1.111400	-0.140252	0.000061
C23	C	1.312788	0.233834	0.000063
C24	C	1.418931	0.244681	0.000060
C25	C	1.146618	0.399998	0.000037
C26	C	1.157463	0.506142	0.000027
N27	N	1.138822	0.226040	0.346720
N28	N	1.138844	0.226035	-0.346610
C29	C	1.257720	0.107261	0.653370
C30	C	1.317148	0.047870	0.576693
C31	C	1.317136	0.047867	0.423360
C32	C	1.257691	0.107262	0.346700
C33	C	1.198263	0.166653	0.423377
C34	C	1.198279	0.166648	0.576714
C35	C	1.079394	0.285430	0.423397
C36	C	1.079399	0.285430	0.576730
C37	C	1.019949	0.344826	0.346737
C38	C	0.960514	0.404213	0.423414
C39	C	0.960528	0.404213	0.576756
C40	C	1.019971	0.344821	0.653407
H41	H	1.026242	-0.285837	0.000040
C42	C	1.257724	0.107257	0.822032
H43	H	1.213812	0.151129	0.856718
H44	H	1.319848	0.125516	0.856714
H45	H	1.239496	0.045119	0.856718
H46	H	1.365550	-0.000488	0.639123
C47	C	1.382503	-0.017462	0.339012
H48	H	1.417905	-0.052839	0.406622
H49	H	1.425137	0.020267	0.279177
H50	H	1.344787	-0.060133	0.279216
C51	C	0.663846	0.364641	0.000013
H52	H	0.730945	0.359008	-0.000005
H53	H	0.645911	0.398355	0.084951
H54	H	0.645903	0.398334	-0.084956
C55	C	1.019932	0.344821	0.178075
H56	H	1.063831	0.300937	0.143385
H57	H	1.038148	0.406952	0.143369
H58	H	0.957800	0.326550	0.143416
C59	C	1.277436	-0.248958	0.000074
H60	H	1.324243	-0.295259	0.000066
H61	H	1.284917	-0.210220	0.085027
H62	H	1.284935	-0.210205	-0.084880
C63	C	1.257686	0.107272	0.178038
H64	H	1.213778	0.151154	0.143364
H65	H	1.239469	0.045142	0.143345
H66	H	1.319811	0.125549	0.143350
C67	C	0.895134	0.469539	0.339088
H68	H	0.903638	0.461030	0.236788
H69	H	0.910881	0.534140	0.364212
H70	H	0.830539	0.453732	0.364224
H71	H	0.912138	0.452580	0.639179
H72	H	0.626952	0.113452	-0.000044
C73	C	1.019991	0.344820	0.822069
H74	H	1.063910	0.300947	0.856737
H75	H	0.957874	0.326559	0.856784
H76	H	1.038225	0.406957	0.856741
