data_functionalizedCrystal
_audit_creation_method	'MofGen! by Chris Wilmer'
_symmetry_space_group_name_H-M	'P1'
_symmetry_Int_Tables_number	1
_symmetry_cell_setting	triclinic
loop_
_symmetry_equiv_pos_as_xyz
  x,y,z
_cell_length_a	16.109301
_cell_length_b	17.038272
_cell_length_c	15.186229
_cell_angle_alpha	89.995962
_cell_angle_beta	89.999362
_cell_angle_gamma	87.286518
loop_
_atom_site_label
_atom_site_type_symbol
_atom_site_fract_x
_atom_site_fract_y
_atom_site_fract_z
O1	O	1.110268	0.100495	-0.073174
O2	O	1.610268	0.600495	0.426826
O3	O	0.869094	0.113001	-0.073188
O4	O	1.369094	0.613001	0.426812
O5	O	0.988247	-0.007067	-0.073174
O6	O	1.488247	0.492933	0.426826
O7	O	0.991114	0.220563	-0.073187
O8	O	1.491114	0.720563	0.426813
O9	O	0.988239	-0.007069	0.073284
O10	O	1.488239	0.492931	0.573284
O11	O	0.869085	0.113000	0.073270
O12	O	1.369085	0.613000	0.573270
O13	O	1.110259	0.100493	0.073284
O14	O	1.610259	0.600493	0.573284
Zn15	Zn	0.989671	0.106746	0.096530
Zn16	Zn	1.489671	0.606746	0.596530
Zn17	Zn	0.989682	0.106748	-0.096434
Zn18	Zn	1.489682	0.606748	0.403566
O19	O	0.991105	0.220562	0.073270
O20	O	1.491105	0.720562	0.573270
C21	C	0.838079	0.112494	0.000039
C22	C	1.338079	0.612494	0.500039
C23	C	0.745676	0.110975	0.000034
C24	C	1.245676	0.610975	0.500034
C25	C	0.985636	-0.036196	0.000055
C26	C	1.485636	0.463804	0.500055
C27	C	0.977857	-0.122989	0.000054
C28	C	1.477857	0.377011	0.500054
C29	C	0.528212	0.178690	0.000040
C30	C	1.028212	0.678690	0.500040
C31	C	0.441390	0.177257	0.000046
C32	C	0.941390	0.677257	0.500046
C33	C	0.451147	0.034799	0.000051
C34	C	0.951147	0.534799	0.500051
C35	C	0.537968	0.036233	0.000051
C36	C	1.037968	0.536233	0.500051
C37	C	0.576498	0.108181	0.000042
C38	C	1.076498	0.608181	0.500042
C39	C	0.402855	0.105314	0.000047
C40	C	0.902855	0.605314	0.500047
C41	C	0.308719	0.103759	0.000053
C42	C	0.808719	0.603759	0.500053
C43	C	0.670640	0.109736	0.000037
C44	C	1.170640	0.609736	0.500037
C45	C	1.049277	-0.173104	0.000059
C46	C	1.549277	0.326896	0.500059
C47	C	1.041963	-0.254654	0.000050
C48	C	1.541963	0.245346	0.500050
C49	C	0.963228	-0.286089	0.000043
C50	C	1.463228	0.213911	0.500043
C51	C	0.891802	-0.235967	0.000035
C52	C	1.391802	0.264033	0.500035
C53	C	0.899116	-0.154418	0.000038
C54	C	1.399116	0.345582	0.500038
C55	C	0.937385	-0.531846	0.000029
C56	C	1.437385	-0.031846	0.500029
C57	C	0.930076	-0.613402	0.000029
C58	C	1.430076	-0.113402	0.500029
C59	C	1.080238	-0.632083	0.000043
C60	C	1.580238	-0.132083	0.500043
C61	C	1.087546	-0.550532	0.000051
C62	C	1.587546	-0.050532	0.500051
C63	C	1.016120	-0.500418	0.000038
C64	C	1.516120	-0.000418	0.500038
C65	C	0.955749	-0.369446	0.000037
C66	C	1.455749	0.130554	0.500037
C67	C	1.023599	-0.417062	0.000038
C68	C	1.523599	0.082938	0.500038
C69	C	1.141274	0.101001	0.000055
C70	C	1.641274	0.601001	0.500055
C71	C	1.233677	0.102519	0.000054
C72	C	1.733677	0.602519	0.500054
C73	C	0.993717	0.249691	0.000039
C74	C	1.493717	0.749691	0.500039
C75	C	1.001496	0.336484	0.000034
C76	C	1.501496	0.836484	0.500034
N77	N	0.989669	0.106744	0.228223
N78	N	1.489669	0.606744	0.728223
N79	N	0.989690	0.106744	-0.228126
N80	N	1.489690	0.606744	0.271874
C81	C	1.042451	0.053596	0.453952
C82	C	1.542451	0.553596	0.953952
C83	C	1.042453	0.053594	0.546141
C84	C	1.542453	0.553594	1.046141
C85	C	0.936902	0.159895	0.546138
C86	C	1.436902	0.659895	1.046138
C87	C	0.936896	0.159893	0.453950
C88	C	1.436896	0.659893	0.953950
C89	C	0.989675	0.106744	0.407859
C90	C	1.489675	0.606744	0.907859
C91	C	0.989684	0.106745	0.592237
C92	C	1.489684	0.606745	1.092237
C93	C	0.989686	0.106743	0.692193
C94	C	1.489686	0.606743	1.192193
C95	C	0.989672	0.106744	0.307897
C96	C	1.489672	0.606744	0.807897
H97	H	0.559580	0.237274	0.000039
H98	H	1.059580	0.737274	0.500039
O99	O	0.394609	0.245822	0.000002
O100	O	0.894609	0.745822	0.500002
C101	C	0.394100	0.387271	0.000046
C102	C	0.894100	0.887271	0.500046
C103	C	0.447177	0.309676	0.000072
C104	C	0.947177	0.809676	0.500072
H105	H	0.436579	0.438917	0.000121
H106	H	0.936579	0.938917	0.500121
H107	H	0.353226	0.390217	-0.061259
H108	H	0.853226	0.890217	0.438741
H109	H	0.353190	0.390118	0.061325
H110	H	0.853190	0.890118	0.561325
H111	H	0.488135	0.306777	-0.061165
H112	H	0.988135	0.806777	0.438835
H113	H	0.487996	0.306762	0.061418
H114	H	0.987996	0.806762	0.561418
O115	O	0.885541	0.211419	0.409129
O116	O	1.385541	0.711419	0.909129
C117	C	0.773210	0.228028	0.305005
C118	C	1.273210	0.728028	0.805005
C119	C	0.831301	0.169595	0.355726
C120	C	1.331301	0.669595	0.855726
H121	H	0.729354	0.194236	0.261802
H122	H	1.229354	0.694236	0.761802
H123	H	0.735432	0.266011	0.353739
H124	H	1.235432	0.766011	0.853739
H125	H	0.811886	0.267104	0.261876
H126	H	1.311886	0.767104	0.761876
H127	H	0.792689	0.130467	0.398856
H128	H	1.292689	0.630467	0.898856
H129	H	0.869082	0.131667	0.306944
H130	H	1.369082	0.631667	0.806944
O131	O	0.413584	-0.035019	0.000014
O132	O	0.913584	0.464981	0.500014
C133	C	0.284157	-0.100364	0.000064
C134	C	0.784157	0.399636	0.500064
C135	C	0.326587	-0.021240	0.000088
C136	C	0.826587	0.478760	0.500088
H137	H	0.213814	-0.089252	0.000142
H138	H	0.713814	0.410748	0.500142
H139	H	0.303574	-0.135216	-0.061242
H140	H	0.803574	0.364784	0.438758
H141	H	0.303681	-0.135209	0.061343
H142	H	0.803681	0.364791	0.561343
H143	H	0.307084	0.013668	-0.061150
H144	H	0.807084	0.513668	0.438850
H145	H	0.307170	0.013552	0.061434
H146	H	0.807170	0.513552	0.561434
H147	H	1.113392	-0.147517	0.000071
H148	H	1.613392	0.352483	0.500071
O149	O	0.584755	-0.032336	0.000013
O150	O	1.084755	0.467664	0.500013
C151	C	0.585278	-0.173786	0.000072
C152	C	1.085278	0.326214	0.500072
C153	C	0.532193	-0.096195	0.000090
C154	C	1.032193	0.403805	0.500090
H155	H	0.542804	-0.225436	0.000153
H156	H	1.042804	0.274564	0.500153
H157	H	0.626152	-0.176726	-0.061233
H158	H	1.126152	0.323274	0.438767
H159	H	0.626186	-0.176631	0.061351
H160	H	1.126186	0.323369	0.561351
H161	H	0.491236	-0.093298	-0.061147
H162	H	0.991236	0.406702	0.438853
H163	H	0.491373	-0.093287	0.061436
H164	H	0.991373	0.406713	0.561436
H165	H	1.100122	-0.295455	0.000056
H166	H	1.600122	0.204545	0.500056
H167	H	1.151661	-0.524945	0.000057
H168	H	1.651661	-0.024945	0.500057
O169	O	1.093601	0.001890	0.590954
O170	O	1.593601	0.501890	1.090954
C171	C	1.103762	-0.104853	0.695083
C172	C	1.603762	0.395147	1.195083
C173	C	1.045740	-0.046352	0.644373
C174	C	1.545740	0.453648	1.144373
H175	H	1.065091	-0.143861	0.738298
H176	H	1.565091	0.356139	1.238298
H177	H	1.141465	-0.142895	0.646342
H178	H	1.641465	0.357105	1.146342
H179	H	1.147698	-0.071070	0.738199
H180	H	1.647698	0.428930	1.238199
H181	H	1.001754	-0.080072	0.601256
H182	H	1.501754	0.419928	1.101256
H183	H	1.008096	-0.008311	0.693162
H184	H	1.508096	0.491689	1.193162
H185	H	0.893932	0.203169	0.583674
H186	H	1.393932	0.703169	1.083674
H187	H	1.138389	-0.672894	0.000051
H188	H	1.638389	-0.172894	0.500051
O189	O	0.853524	-0.643808	-0.000027
O190	O	1.353524	-0.143808	0.499973
C191	C	0.705354	-0.616677	-0.000008
C192	C	1.205354	-0.116677	0.499992
C193	C	0.791991	-0.582137	0.000036
C194	C	1.291991	-0.082137	0.500036
H195	H	0.655582	-0.566834	0.000061
H196	H	1.155582	-0.066834	0.500061
H197	H	0.698137	-0.654358	-0.061316
H198	H	1.198137	-0.154358	0.438684
H199	H	0.698210	-0.654420	0.061268
H200	H	1.198210	-0.154420	0.561268
H201	H	0.799195	-0.544359	-0.061199
H202	H	1.299195	-0.044359	0.438801
H203	H	0.799169	-0.544501	0.061384
H204	H	1.299169	-0.044501	0.561384
H205	H	0.879224	-0.491053	0.000019
H206	H	1.379224	0.008947	0.500019
H207	H	0.827693	-0.261567	0.000023
H208	H	1.327693	0.238433	0.500023
H209	H	1.085425	0.010318	0.416427
H210	H	1.585425	0.510318	0.916427
H211	H	0.840958	-0.113615	0.000033
H212	H	1.340958	0.386385	0.500033
H213	H	1.087705	-0.391465	0.000025
H214	H	1.587705	0.108535	0.500025
H215	H	0.891642	-0.395049	0.000032
H216	H	1.391642	0.104951	0.500032
