data_functionalizedCrystal
_audit_creation_method	'MofGen! by Chris Wilmer'
_symmetry_space_group_name_H-M	'P1'
_symmetry_Int_Tables_number	1
_symmetry_cell_setting	triclinic
loop_
_symmetry_equiv_pos_as_xyz
  x,y,z
_cell_length_a	12.759394
_cell_length_b	12.759395
_cell_length_c	12.594509
_cell_angle_alpha	89.982451
_cell_angle_beta	89.970631
_cell_angle_gamma	90.014682
loop_
_atom_site_label
_atom_site_type_symbol
_atom_site_fract_x
_atom_site_fract_y
_atom_site_fract_z
Zn1	Zn	-0.418239	1.606248	-0.601744
Zn2	Zn	-0.593949	1.606144	-0.423762
Zn3	Zn	-0.418284	1.430552	-0.423785
Zn4	Zn	-0.593876	1.430538	-0.601704
O5	O	-0.506087	1.518371	-0.512749
O6	O	-0.441559	1.753255	-0.578142
O7	O	-0.570696	1.582814	-0.274819
O8	O	-0.271257	1.453908	-0.447418
O9	O	-0.570653	1.753179	-0.447379
O10	O	-0.271224	1.582991	-0.578164
O11	O	-0.441636	1.453807	-0.274836
O12	O	-0.441565	1.283529	-0.447379
O13	O	-0.570528	1.453884	-0.750655
O14	O	-0.570572	1.283519	-0.578095
O15	O	-0.441488	1.582978	-0.750685
O16	O	-0.740961	1.582800	-0.447340
O17	O	-0.740907	1.453783	-0.578073
C18	C	-0.506066	1.245403	-0.512736
C19	C	-0.506083	1.128626	-0.512755
C20	C	-0.371875	1.128687	-0.649139
C21	C	-0.304784	1.073856	-0.717339
C22	C	-0.304803	0.964135	-0.717352
C23	C	-0.371917	0.909241	-0.649155
C24	C	-0.439008	0.964072	-0.580955
C25	C	-0.438985	1.073796	-0.580952
C26	C	-0.573209	0.964011	-0.444568
C27	C	-0.573198	1.073733	-0.444559
C28	C	-0.640324	0.909118	-0.376372
C29	C	-0.707422	0.963949	-0.308176
C30	C	-0.707401	1.073677	-0.308166
C31	C	-0.640289	1.128564	-0.376359
C32	C	-0.779055	1.518308	-0.512723
C33	C	-0.895831	1.518377	-0.512748
C34	C	-0.895834	1.652823	-0.376717
C35	C	-0.950696	1.720073	-0.308715
C36	C	-1.060417	1.720135	-0.308744
C37	C	-1.115279	1.652941	-0.376785
C38	C	-1.060418	1.585691	-0.444787
C39	C	-0.950693	1.585634	-0.444749
C40	C	-1.060415	1.451251	-0.580822
C41	C	-0.950694	1.451183	-0.580789
C42	C	-1.115277	1.384058	-0.648863
C43	C	-1.060415	1.316800	-0.716862
C44	C	-0.950687	1.316741	-0.716829
C45	C	-0.895832	1.383932	-0.648792
C46	C	-0.232054	1.518463	-0.512798
C47	C	-0.115277	1.518502	-0.512819
C48	C	-0.505995	1.518441	-0.790370
C49	C	-0.505956	1.518471	-0.908675
C50	C	-0.506109	1.792404	-0.512763
C51	C	-0.506118	1.909181	-0.512769
C52	C	-0.576101	1.448279	-0.977913
C53	C	-0.601771	1.544145	-1.048696
C54	C	-0.480222	1.422680	-1.048691
C55	C	-0.531677	1.614387	-0.977901
C56	C	-0.410083	1.492857	-0.977890
C57	C	-0.435717	1.588789	-1.048641
C58	C	-0.506103	1.518361	-0.236208
C59	C	-0.505846	1.518535	-0.117903
H60	H	-0.250165	0.919492	-0.772880
H61	H	-0.371918	0.819900	-0.649164
Cl62	Cl	-0.667822	1.356705	-0.929960
Cl63	Cl	-0.881727	1.232198	-0.802330
H64	H	-0.640332	0.819777	-0.376385
H65	H	-0.329076	1.471130	-0.946764
H66	H	-0.762057	0.919246	-0.252651
H67	H	-0.682802	1.565845	-1.079798
H68	H	-0.553489	1.695447	-0.946936
Cl69	Cl	-0.791746	1.142597	-0.222419
Cl70	Cl	-0.757895	1.384169	-0.649055
Cl71	Cl	-0.640261	1.266500	-0.376356
H72	H	-0.458502	1.341644	-1.079787
Cl73	Cl	-0.220415	1.142869	-0.803066
H74	H	-0.376351	1.648244	-1.079501
H75	H	-0.806493	1.652766	-0.376673
H76	H	-0.371848	1.218028	-0.649130
Cl77	Cl	-1.129390	1.804684	-0.223260
Cl78	Cl	-0.881722	1.804546	-0.223187
Cl79	Cl	-1.253215	1.652576	-0.376368
H80	H	-1.204618	1.384117	-0.648886
H81	H	-1.105093	1.262101	-0.772260
