data_functionalizedCrystal
_audit_creation_method	'MofGen! by Chris Wilmer'
_symmetry_space_group_name_H-M	'P1'
_symmetry_Int_Tables_number	1
_symmetry_cell_setting	triclinic
loop_
_symmetry_equiv_pos_as_xyz
  x,y,z
_cell_length_a	11.169416
_cell_length_b	11.169417
_cell_length_c	11.169409
_cell_angle_alpha	89.980176
_cell_angle_beta	89.968635
_cell_angle_gamma	90.011027
loop_
_atom_site_label
_atom_site_type_symbol
_atom_site_fract_x
_atom_site_fract_y
_atom_site_fract_z
Zn1	Zn	-0.477682	1.834964	-0.678551
Zn2	Zn	-0.144348	2.168297	-0.345218
Zn3	Zn	0.188985	2.501631	-0.011884
Zn4	Zn	-0.678422	1.834854	-0.477871
Zn5	Zn	-0.345089	2.168187	-0.144538
Zn6	Zn	-0.011756	2.501521	0.188795
Zn7	Zn	-0.477755	1.634250	-0.477885
Zn8	Zn	-0.144422	1.967583	-0.144552
Zn9	Zn	0.188912	2.300916	0.188781
Zn10	Zn	-0.678325	1.634258	-0.678516
Zn11	Zn	-0.344991	1.967591	-0.345183
Zn12	Zn	-0.011658	2.300925	-0.011849
O13	O	-0.578046	1.734581	-0.578206
O14	O	-0.244713	2.067915	-0.244872
O15	O	0.088621	2.401248	0.088461
O16	O	-0.504321	2.002899	-0.651939
O17	O	-0.170987	2.336232	-0.318606
O18	O	0.162346	2.669566	0.014728
O19	O	-0.651875	1.808194	-0.309923
O20	O	-0.318542	2.141527	0.023410
O21	O	0.014792	2.474861	0.356743
O22	O	-0.309796	1.660918	-0.504524
O23	O	0.023538	1.994251	-0.171191
O24	O	0.356871	2.327584	0.162142
O25	O	-0.651804	2.002818	-0.504500
O26	O	-0.318471	2.336152	-0.171167
O27	O	0.014863	2.669485	0.162166
O28	O	-0.309742	1.808381	-0.651953
O29	O	0.023592	2.141715	-0.318619
O30	O	0.356925	2.475048	0.014714
O31	O	-0.504445	1.660811	-0.309934
O32	O	-0.171112	1.994144	0.023400
O33	O	0.162221	2.327478	0.356733
O34	O	-0.504351	1.466301	-0.504491
O35	O	-0.171017	1.799635	-0.171157
O36	O	0.162316	2.132968	0.162176
O37	O	-0.651637	1.660931	-0.846470
O38	O	-0.318304	1.994265	-0.513137
O39	O	0.015029	2.327598	-0.179804
O40	O	-0.651708	1.466307	-0.651893
O41	O	-0.318375	1.799641	-0.318560
O42	O	0.014958	2.132974	0.014773
O43	O	-0.504226	1.808389	-0.846496
O44	O	-0.170893	2.141723	-0.513163
O45	O	0.162441	2.475056	-0.179829
O46	O	-0.846359	1.808202	-0.504467
O47	O	-0.513026	2.141535	-0.171133
O48	O	-0.179692	2.474869	0.162200
O49	O	-0.846287	1.660825	-0.651880
O50	O	-0.512954	1.994158	-0.318546
O51	O	-0.179621	2.327492	0.014787
C52	C	-0.578028	1.422757	-0.578190
C53	C	-0.244694	1.756090	-0.244857
C54	C	0.088639	2.089423	0.088476
C55	C	-0.578049	1.289357	-0.578212
C56	C	-0.244716	1.622690	-0.244879
C57	C	0.088618	1.956023	0.088454
C58	C	-0.889871	1.734535	-0.578194
C59	C	-0.556537	2.067868	-0.244861
C60	C	-0.223204	2.401202	0.088473
C61	C	-1.023271	1.734625	-0.578229
C62	C	-0.689937	2.067958	-0.244896
C63	C	-0.356604	2.401291	0.088438
C64	C	-0.265004	1.734661	-0.578244
C65	C	0.068330	2.067994	-0.244911
C66	C	0.401663	2.401327	0.088423
C67	C	-0.131604	1.734695	-0.578260
C68	C	0.201730	2.068028	-0.244927
C69	C	0.535063	2.401361	0.088406
C70	C	-0.577913	1.734674	-0.891248
C71	C	-0.244579	2.068007	-0.557915
C72	C	0.088754	2.401340	-0.224582
C73	C	-0.577856	1.734713	-1.024649
C74	C	-0.244523	2.068046	-0.691315
C75	C	0.088811	2.401379	-0.357982
C76	C	-0.578065	2.047624	-0.578222
C77	C	-0.244732	2.380957	-0.244889
C78	C	0.088602	2.714290	0.088445
C79	C	-0.578073	2.181024	-0.578229
C80	C	-0.244740	2.514357	-0.244896
C81	C	0.088593	2.847690	0.088438
C82	C	-0.578092	1.734559	-0.266381
C83	C	-0.244759	2.067892	0.066952
C84	C	0.088575	2.401225	0.400286
C85	C	-0.577811	1.734752	-0.132982
C86	C	-0.244477	2.068085	0.200352
C87	C	0.088856	2.401419	0.533685
