data_functionalizedCrystal
_audit_creation_method	'MofGen! by Chris Wilmer'
_symmetry_space_group_name_H-M	'P1'
_symmetry_Int_Tables_number	1
_symmetry_cell_setting	triclinic
loop_
_symmetry_equiv_pos_as_xyz
  x,y,z
_cell_length_a	19.077236
_cell_length_b	15.299816
_cell_length_c	19.076919
_cell_angle_alpha	77.689900
_cell_angle_beta	90.112677
_cell_angle_gamma	83.008515
loop_
_atom_site_label
_atom_site_type_symbol
_atom_site_fract_x
_atom_site_fract_y
_atom_site_fract_z
Zn1	Zn	1.100674	-0.327586	0.486529
Zn2	Zn	1.124025	-0.472208	0.389324
Zn3	Zn	0.987829	-0.327113	0.364242
Zn4	Zn	1.003402	-0.484247	0.503752
O5	O	1.053982	-0.402789	0.435962
O6	O	1.201479	-0.341930	0.476923
O7	O	1.109213	-0.447724	0.286931
O8	O	0.986508	-0.200890	0.362759
O9	O	1.218635	-0.448183	0.405507
O10	O	1.069415	-0.201238	0.452602
O11	O	1.009150	-0.341124	0.268504
O12	O	0.892187	-0.352798	0.379460
O13	O	1.013051	-0.468702	0.600534
O14	O	0.903629	-0.468244	0.481957
O15	O	1.084516	-0.353604	0.587879
O16	O	1.124314	-0.600091	0.422208
O17	O	1.035693	-0.608936	0.506278
C18	C	0.872573	-0.411777	0.429857
C19	C	0.794968	-0.415644	0.427264
C20	C	0.749587	-0.362236	0.463311
C21	C	0.676668	-0.365866	0.460869
C22	C	0.649132	-0.422908	0.422384
C23	C	0.694519	-0.476318	0.386333
C24	C	0.767436	-0.472683	0.388771
C25	C	0.432011	-0.439697	0.411091
C26	C	0.359089	-0.443329	0.408657
C27	C	0.341243	-0.332875	0.483192
C28	C	0.414162	-0.329250	0.485631
C29	C	0.459542	-0.382656	0.449577
N30	N	0.574598	-0.426622	0.419888
N31	N	0.534074	-0.378937	0.452069
C32	C	1.084246	-0.637258	0.468850
C33	C	1.097256	-0.737563	0.482946
C34	C	0.961448	-1.019866	0.335475
C35	C	0.949221	-0.925625	0.322233
C36	C	0.986229	-0.878605	0.362410
C37	C	1.035466	-0.925835	0.415831
C38	C	1.047690	-1.020086	0.429078
C39	C	1.072471	-0.878825	0.456013
C40	C	1.121707	-0.926055	0.509434
C41	C	1.133930	-1.020296	0.522679
C42	C	1.096922	-1.067317	0.482502
C43	C	1.060246	-0.784574	0.442766
C44	C	1.146488	-0.784793	0.536369
C45	C	1.158715	-0.879035	0.549611
C46	C	1.236100	-0.393766	0.442092
C47	C	1.313708	-0.389922	0.444704
C48	C	1.047916	-0.412549	0.620611
C49	C	1.045330	-0.416708	0.699298
C50	C	1.023619	-0.167404	0.402961
C51	C	1.010680	-0.067097	0.388899
C52	C	1.060057	-0.392999	0.252023
C53	C	1.062745	-0.388579	0.173306
C54	C	1.081322	-0.358740	0.729678
C55	C	1.078884	-0.362645	0.803612
C56	C	1.040458	-0.424524	0.847165
C57	C	1.004462	-0.482495	0.816780
C58	C	1.006896	-0.478585	0.742846
C59	C	1.029183	-0.442640	1.068987
C60	C	1.026753	-0.446547	1.142925
C61	C	1.101175	-0.326696	1.129752
C62	C	1.103609	-0.322795	1.055819
C63	C	1.067610	-0.380763	1.025440
N64	N	1.037967	-0.428519	0.922737
N65	N	1.070098	-0.376763	0.949868
H66	H	0.672093	-0.522759	0.354993
Cl67	Cl	0.824487	-0.539829	0.343454
H68	H	1.176622	-0.746510	0.569086
H69	H	1.134902	-0.272409	1.020363
H70	H	0.976271	-0.801869	0.351624
Cl71	Cl	1.112442	-1.185781	0.499004
H72	H	0.468951	-0.483185	0.381734
H73	H	1.174019	-1.058749	0.566181
Cl74	Cl	0.998352	-0.725210	0.375609
Cl75	Cl	0.887319	-0.866257	0.255085
Cl76	Cl	0.914920	-1.078982	0.284984
H77	H	1.112615	-0.308354	0.694222
Cl78	Cl	1.124169	-0.289805	0.841807
H79	H	1.198804	-0.917503	0.593108
H80	H	0.772001	-0.315789	0.494652
H81	H	1.130482	-0.279501	1.154495
Cl82	Cl	0.978438	-0.524339	1.197677
H83	H	0.999882	-0.489854	1.044264
Cl84	Cl	0.448773	-0.257542	0.534019
H85	H	0.977580	-0.525780	0.718111
Cl86	Cl	0.956151	-0.560283	0.871532
H87	H	0.304287	-0.289394	0.512545
Cl88	Cl	0.324476	-0.515068	0.360292
Cl89	Cl	0.619621	-0.298724	0.506189
