data_functionalizedCrystal
_audit_creation_method	'MofGen! by Chris Wilmer'
_symmetry_space_group_name_H-M	'P1'
_symmetry_Int_Tables_number	1
_symmetry_cell_setting	triclinic
loop_
_symmetry_equiv_pos_as_xyz
  x,y,z
_cell_length_a	27.732048
_cell_length_b	27.732048
_cell_length_c	26.210047
_cell_angle_alpha	90.018945
_cell_angle_beta	89.988763
_cell_angle_gamma	97.357345
loop_
_atom_site_label
_atom_site_type_symbol
_atom_site_fract_x
_atom_site_fract_y
_atom_site_fract_z
O1	O	0.057516	-0.640941	-0.042369
O2	O	0.066262	-0.500148	-0.042385
O3	O	-0.008508	-0.574917	-0.042367
O4	O	0.132286	-0.566172	-0.042387
O5	O	-0.008509	-0.574883	0.042491
O6	O	0.066261	-0.500113	0.042473
O7	O	0.057515	-0.640907	0.042489
Cu8	Cu	0.061888	-0.570507	0.050229
Cu9	Cu	0.061889	-0.570548	-0.050125
O10	O	0.132285	-0.566137	0.042471
C11	C	0.066078	-0.482124	0.000042
C12	C	0.065525	-0.428469	0.000036
C13	C	-0.026515	-0.574716	0.000064
C14	C	-0.080170	-0.574164	0.000068
N15	N	0.061887	-0.570482	0.120813
C16	C	-0.418985	-0.614867	0.000046
C17	C	-0.620645	-0.612816	0.000039
O18	O	-0.651900	-0.650037	0.000021
N19	N	-0.639768	-0.568481	0.000034
C20	C	-0.608474	-0.524656	0.000028
O21	O	-0.629367	-0.486899	0.000019
C22	C	-0.406815	-0.526707	0.000032
C23	C	-0.387694	-0.571045	0.000042
C24	C	-0.399864	-0.659202	0.000056
C25	C	-0.349452	-0.659714	0.000060
C26	C	-0.318161	-0.615892	0.000056
C27	C	-0.337282	-0.571557	0.000046
C28	C	-0.375521	-0.482882	0.000022
C29	C	-0.325104	-0.483399	0.000022
C30	C	-0.305983	-0.527737	0.000032
C31	C	-0.255580	-0.528247	0.000046
N32	N	-0.236456	-0.572583	0.000051
C33	C	-0.267747	-0.616405	0.000056
C34	C	-0.714348	-0.523582	0.000027
C35	C	-0.764762	-0.523069	0.000027
C36	C	-0.776930	-0.611230	0.000037
C37	C	-0.726514	-0.611742	0.000041
C38	C	-0.695224	-0.567917	0.000032
C39	C	-0.161878	-0.617477	0.000066
C40	C	-0.111461	-0.617986	0.000073
C41	C	-0.099298	-0.529825	0.000060
C42	C	-0.149710	-0.529316	0.000056
C43	C	-0.180999	-0.573146	0.000057
O44	O	-0.224296	-0.491047	0.000059
O45	O	-0.246844	-0.654156	0.000054
C46	C	-0.469397	-0.614355	0.000042
C47	C	-0.488518	-0.570021	0.000033
C48	C	-0.457228	-0.526198	0.000028
C49	C	-0.538933	-0.569508	0.000033
C50	C	-0.570223	-0.613330	0.000037
C51	C	-0.551100	-0.657665	0.000042
C52	C	-0.500688	-0.658177	0.000046
C53	C	-0.476351	-0.481863	0.000023
C54	C	-0.526764	-0.481355	0.000019
C55	C	-0.558054	-0.525177	0.000024
C56	C	0.150292	-0.566338	0.000040
C57	C	0.203947	-0.566891	0.000032
C58	C	0.057699	-0.658931	0.000061
C59	C	0.058252	-0.712586	0.000064
C60	C	0.106229	-0.089654	0.000053
C61	C	0.104178	0.112006	0.000057
O62	O	0.141398	0.143262	0.000074
N63	N	0.059843	0.131130	0.000063
C64	C	0.016017	0.099835	0.000071
O65	O	-0.021740	0.120728	0.000081
C66	C	0.018068	-0.101824	0.000069
C67	C	0.062407	-0.120944	0.000059
C68	C	0.150563	-0.108775	0.000043
C69	C	0.151075	-0.159187	0.000039
C70	C	0.107253	-0.190477	0.000045
C71	C	0.062919	-0.171356	0.000055
C72	C	-0.025757	-0.133117	0.000081
C73	C	-0.025240	-0.183534	0.000082
C74	C	0.019098	-0.202655	0.000071
C75	C	0.019609	-0.253059	0.000057
N76	N	0.063944	-0.272183	0.000051
C77	C	0.107766	-0.240892	0.000045
C78	C	0.014943	0.205709	0.000070
C79	C	0.014430	0.256124	0.000070
C80	C	0.102591	0.268291	0.000057
C81	C	0.103104	0.217876	0.000054
C82	C	0.059278	0.186585	0.000065
C83	C	0.108839	-0.346761	0.000036
C84	C	0.109347	-0.397178	0.000030
C85	C	0.021186	-0.409341	0.000045
C86	C	0.020678	-0.358929	0.000049
C87	C	0.064508	-0.327639	0.000046
O88	O	-0.017592	-0.284343	0.000046
O89	O	0.145518	-0.261794	0.000047
C90	C	0.105716	-0.039242	0.000057
C91	C	0.061382	-0.020120	0.000067
C92	C	0.017560	-0.051411	0.000073
C93	C	0.060869	0.030294	0.000066
C94	C	0.104691	0.061585	0.000060
C95	C	0.149026	0.042461	0.000054
C96	C	0.149539	-0.007951	0.000050
C97	C	-0.026775	-0.032287	0.000078
C98	C	-0.027284	0.018125	0.000082
C99	C	0.016538	0.049416	0.000076
N100	N	0.061886	-0.570577	-0.120709
C101	C	0.094981	-0.537408	0.526773
C102	C	0.094982	-0.537385	0.313114
O103	O	0.123115	-0.509207	0.285489
N104	N	0.061885	-0.570497	0.286397
C105	C	0.028785	-0.603615	0.313098
O106	O	0.000631	-0.631775	0.285471
C107	C	0.028783	-0.603636	0.526756
C108	C	0.061884	-0.570525	0.553470
C109	C	0.128080	-0.504299	0.553487
C110	C	0.128081	-0.504307	0.606898
C111	C	0.094984	-0.537424	0.633596
C112	C	0.061886	-0.570533	0.606881
C113	C	-0.004320	-0.636752	0.553456
C114	C	-0.004319	-0.636753	0.606873
C115	C	0.028783	-0.603642	0.633588
C116	C	0.028790	-0.603657	0.686990
N117	N	0.061886	-0.570545	0.713707
C118	C	0.094983	-0.537428	0.687010
C119	C	0.028789	-0.603603	0.200925
C120	C	0.028790	-0.603598	0.147511
C121	C	0.094986	-0.537367	0.147530
C122	C	0.094987	-0.537374	0.200945
C123	C	0.061885	-0.570491	0.227642
C124	C	0.094984	-0.537448	0.799178
C125	C	0.094983	-0.537460	0.852594
C126	C	0.028786	-0.603689	0.852569
C127	C	0.028787	-0.603679	0.799158
C128	C	0.061888	-0.570554	0.772463
O129	O	0.000667	-0.631817	0.714649
O130	O	0.123125	-0.509265	0.714646
C131	C	0.094980	-0.537400	0.473361
C132	C	0.061881	-0.570509	0.446647
C133	C	0.028784	-0.603626	0.473344
C134	C	0.061883	-0.570504	0.393233
C135	C	0.094980	-0.537388	0.366536
C136	C	0.128076	-0.504276	0.393253
C137	C	0.128077	-0.504283	0.446664
C138	C	-0.004312	-0.636738	0.446627
C139	C	-0.004310	-0.636728	0.393216
C140	C	0.028787	-0.603611	0.366519
H141	H	-0.095896	-0.654093	0.000082
Cl142	Cl	-0.285770	-0.428300	0.000010
H143	H	0.121937	-0.510474	0.777449
H144	H	-0.063392	0.033688	0.000086
Cl145	Cl	-0.059952	-0.474737	0.000053
H146	H	0.139207	0.202311	0.000049
H147	H	0.001838	-0.630646	0.777407
H148	H	0.121940	-0.510497	0.874343
Cl149	Cl	-0.173748	-0.473577	0.000053
Cl150	Cl	-0.012819	-0.645232	0.113933
H151	H	0.001839	-0.630654	0.874315
Cl152	Cl	-0.590446	-0.712755	0.000050
Cl153	Cl	0.157681	0.307637	0.000052
Cl154	Cl	-0.201205	-0.672579	0.000068
H155	H	-0.031276	-0.663720	0.628607
Cl156	Cl	-0.012828	-0.645240	0.234480
H157	H	-0.485125	-0.694282	0.000054
Cl158	Cl	0.205662	-0.069446	0.000033
H159	H	-0.542327	-0.445246	0.000016
H160	H	-0.425336	-0.694889	0.000058
H161	H	0.121941	-0.510412	0.222693
Cl162	Cl	-0.702482	-0.667483	0.000053
Cl163	Cl	0.169685	-0.462645	0.359680
H164	H	-0.062462	-0.057760	0.000085
Cl165	Cl	-0.325422	-0.715456	0.000058
H166	H	0.155032	-0.477321	0.468411
H167	H	-0.450879	-0.446177	0.000018
Cl168	Cl	-0.045923	-0.678375	0.480183
Cl169	Cl	0.165091	-0.421212	0.000015
H170	H	0.184708	0.067947	0.000047
Cl171	Cl	0.163940	-0.307434	0.000032
Cl172	Cl	0.169693	-0.462677	0.640476
Cl173	Cl	-0.045937	-0.678378	0.519883
H174	H	-0.031265	-0.663695	0.371469
Cl175	Cl	-0.035062	-0.334890	0.000065
H176	H	-0.061861	-0.117558	0.000090
H177	H	-0.060929	-0.209009	0.000091
H178	H	0.155032	-0.477329	0.531755
H179	H	-0.021674	0.271687	0.000070
Cl180	Cl	0.205281	-0.031981	0.000038
Cl181	Cl	0.136593	-0.495734	0.113958
Cl182	Cl	0.206818	-0.183216	0.000029
H183	H	-0.802415	-0.646911	0.000041
H184	H	-0.780325	-0.486964	0.000028
Cl185	Cl	-0.675018	-0.468481	0.000017
Cl186	Cl	-0.040158	0.166379	0.000082
H187	H	-0.014492	-0.434827	0.000048
Cl188	Cl	-0.399546	-0.427139	0.000007
