data_functionalizedCrystal
_audit_creation_method	'MofGen! by Chris Wilmer'
_symmetry_space_group_name_H-M	'P1'
_symmetry_Int_Tables_number	1
_symmetry_cell_setting	triclinic
loop_
_symmetry_equiv_pos_as_xyz
  x,y,z
_cell_length_a	21.395362
_cell_length_b	12.827892
_cell_length_c	12.827893
_cell_angle_alpha	90.007453
_cell_angle_beta	90.025165
_cell_angle_gamma	90.031272
loop_
_atom_site_label
_atom_site_type_symbol
_atom_site_fract_x
_atom_site_fract_y
_atom_site_fract_z
Zn1	Zn	0.957810	-0.415770	0.591444
Zn2	Zn	0.957775	-0.590479	0.416705
Zn3	Zn	0.853059	-0.415801	0.416653
Zn4	Zn	0.853022	-0.590518	0.591339
O5	O	0.905416	-0.503142	0.504035
O6	O	1.045483	-0.438916	0.568330
O7	O	0.943885	-0.567305	0.270462
O8	O	0.866985	-0.269561	0.439862
O9	O	1.045457	-0.567274	0.439950
O10	O	0.943945	-0.269538	0.568280
O11	O	0.866951	-0.438969	0.270424
O12	O	0.765376	-0.439007	0.439760
O13	O	0.866922	-0.567341	0.737589
O14	O	0.765349	-0.567371	0.568101
O15	O	0.943909	-0.438954	0.737666
O16	O	0.943849	-0.736720	0.439848
O17	O	0.866887	-0.736749	0.568152
C18	C	0.742629	-0.503197	0.503914
C19	C	0.672988	-0.503246	0.503887
C20	C	0.640277	-0.570174	0.570614
C21	C	0.574841	-0.570148	0.570661
C22	C	0.542119	-0.503206	0.503961
C23	C	0.574838	-0.436265	0.437230
C24	C	0.640272	-0.436286	0.437192
C25	C	0.438412	-0.494778	0.409884
C26	C	0.372979	-0.494765	0.409919
C27	C	0.340299	-0.503138	0.504077
C28	C	0.373059	-0.511545	0.598202
C29	C	0.438494	-0.511565	0.598165
C30	C	0.471167	-0.503176	0.503995
C31	C	0.236635	-0.570041	0.570860
C32	C	0.171199	-0.570008	0.570909
C33	C	0.171197	-0.436131	0.437468
C34	C	0.236632	-0.436158	0.437429
C35	C	0.269347	-0.503119	0.504124
C36	C	0.905377	-0.774652	0.504017
C37	C	0.905418	-0.890805	0.504044
C38	C	0.943546	-0.942541	0.440626
C39	C	0.943589	-1.062591	0.440652
C40	C	1.068840	-0.503087	0.504158
C41	C	1.138481	-0.503064	0.504210
C42	C	0.905415	-0.503148	0.776605
C43	C	0.905414	-0.503151	0.892759
C44	C	0.905473	-0.230572	0.504077
C45	C	0.905497	-0.114419	0.504094
C46	C	0.943479	-0.566649	0.944562
C47	C	0.943480	-0.566653	1.064612
C48	C	0.905413	-0.503160	1.232525
C49	C	0.905414	-0.503157	1.116372
H50	H	0.666909	-0.624697	0.624924
C51	C	0.538849	-0.643780	0.644058
C52	C	0.574834	-0.717433	0.717416
C53	C	0.538844	-0.791067	0.790810
C54	C	0.466869	-0.791046	0.790845
C55	C	0.430880	-0.717390	0.717484
C56	C	0.466870	-0.643757	0.644090
H57	H	0.628118	-0.717451	0.717393
H58	H	0.565486	-0.845592	0.845117
H59	H	0.440227	-0.845554	0.845176
H60	H	0.377596	-0.717372	0.717508
H61	H	0.440228	-0.589231	0.589783
C62	C	0.474531	-0.520802	0.701695
C63	C	0.546506	-0.520823	0.701649
C64	C	0.582544	-0.530056	0.805181
C65	C	0.546606	-0.539267	0.908759
C66	C	0.474627	-0.539245	0.908808
C67	C	0.438590	-0.530013	0.805277
H68	H	0.573113	-0.514005	0.624972
H69	H	0.635827	-0.530072	0.805144
H70	H	0.573283	-0.546101	0.985399
H71	H	0.448021	-0.546064	0.985486
H72	H	0.385306	-0.529997	0.805314
H73	H	0.144555	-0.381620	0.383165
C74	C	0.987606	-0.882320	0.367250
C75	C	0.960431	-0.807335	0.285202
C76	C	1.004493	-0.747116	0.211826
C77	C	1.075730	-0.761882	0.220498
C78	C	1.102908	-0.836871	0.302550
C79	C	1.058846	-0.897090	0.375926
H80	H	0.907695	-0.796402	0.278779
H81	H	0.984374	-0.691605	0.151086
H82	H	1.108347	-0.717305	0.166181
H83	H	1.155644	-0.847805	0.308973
H84	H	1.078965	-0.952601	0.436666
C85	C	0.861359	-0.951023	0.577424
C86	C	0.812259	-1.026194	0.531987
C87	C	0.768198	-1.086409	0.605369
C88	C	0.773239	-1.071453	0.724189
C89	C	0.822341	-0.996278	0.769632
C90	C	0.866402	-0.936063	0.696249
H91	H	0.808526	-1.037269	0.444024
H92	H	0.731849	-1.142058	0.571729
H93	H	0.740623	-1.116027	0.778511
H94	H	0.826074	-0.985203	0.857595
H95	H	0.902751	-0.880414	0.729890
C96	C	0.987508	-0.640092	0.884422
C97	C	1.031601	-0.713646	0.944331
C98	C	1.075631	-0.787091	0.884194
C99	C	1.075568	-0.786982	0.764149
C100	C	1.031473	-0.713425	0.704233
C101	C	0.987443	-0.639980	0.764370
H102	H	1.031649	-0.713730	1.033202
H103	H	1.108273	-0.841543	0.928548
H104	H	1.108162	-0.841351	0.719632
H105	H	1.031425	-0.713342	0.615362
H106	H	0.954801	-0.585528	0.720016
H107	H	0.872821	-0.448794	1.071829
H108	H	0.263265	-0.381664	0.383087
C109	C	0.336942	-0.485519	0.306389
C110	C	0.291906	-0.572876	0.272514
C111	C	0.255870	-0.563629	0.168982
C112	C	0.264871	-0.467025	0.099324
C113	C	0.309909	-0.379661	0.133198
C114	C	0.345945	-0.388908	0.236730
H115	H	0.285242	-0.644395	0.324079
H116	H	0.222530	-0.628303	0.143907
H117	H	0.238195	-0.460180	0.022684
H118	H	0.316574	-0.308143	0.081632
H119	H	0.379285	-0.324234	0.261805
C120	C	0.987690	-1.122687	0.367299
C121	C	1.058916	-1.107643	0.375960
C122	C	1.103019	-1.167742	0.302604
C123	C	1.075897	-1.242884	0.220587
C124	C	1.004667	-1.257931	0.211923
C125	C	0.960564	-1.197833	0.285279
H126	H	1.078997	-1.052016	0.436676
H127	H	1.155748	-1.156602	0.309018
H128	H	1.108544	-1.287372	0.166284
H129	H	0.984586	-1.313559	0.151206
H130	H	0.907835	-1.208972	0.278865
C131	C	0.861386	-0.429708	0.952898
C132	C	0.812227	-0.475077	1.027917
C133	C	0.768197	-0.401631	1.088054
C134	C	0.773326	-0.282817	1.073172
C135	C	0.822487	-0.237442	0.998150
C136	C	0.866517	-0.310887	0.938013
H137	H	0.808428	-0.563035	1.038937
H138	H	0.731805	-0.435221	1.143590
H139	H	0.740732	-0.228448	1.117689
H140	H	0.826286	-0.149483	0.987130
H141	H	0.902909	-0.277297	0.882477
H142	H	0.346453	-0.518361	0.674875
H143	H	0.976068	-0.621018	1.109162
C144	C	0.474356	-0.485560	0.306302
C145	C	0.438325	-0.476323	0.202771
C146	C	0.474269	-0.467100	0.099195
C147	C	0.546244	-0.467114	0.099149
C148	C	0.582279	-0.476352	0.202685
C149	C	0.546335	-0.485575	0.306261
H150	H	0.385041	-0.476313	0.202801
H151	H	0.447593	-0.460262	0.022551
H152	H	0.572852	-0.460287	0.022476
H153	H	0.635563	-0.476362	0.202655
H154	H	0.573011	-0.492413	0.382905
H155	H	0.263273	-0.624559	0.625172
H156	H	0.144566	-0.624507	0.625252
H157	H	0.548192	-0.381759	0.382924
H158	H	0.872850	-1.069935	0.558388
H159	H	0.666905	-0.381782	0.382855
