data_functionalizedCrystal
_audit_creation_method	'MofGen! by Chris Wilmer'
_symmetry_space_group_name_H-M	'P1'
_symmetry_Int_Tables_number	1
_symmetry_cell_setting	triclinic
loop_
_symmetry_equiv_pos_as_xyz
  x,y,z
_cell_length_a	16.109301
_cell_length_b	23.532407
_cell_length_c	15.186229
_cell_angle_alpha	89.991614
_cell_angle_beta	89.999362
_cell_angle_gamma	83.155079
loop_
_atom_site_label
_atom_site_type_symbol
_atom_site_fract_x
_atom_site_fract_y
_atom_site_fract_z
O1	O	1.102555	0.073202	-0.073182
O2	O	0.860421	0.082312	-0.073197
O3	O	0.988790	-0.005148	-0.073173
O4	O	0.974187	0.160662	-0.073206
O5	O	0.988781	-0.005149	0.073284
O6	O	0.860413	0.082311	0.073260
O7	O	1.102547	0.073201	0.073275
Zn8	Zn	0.981478	0.077755	0.096521
Zn9	Zn	0.981490	0.077757	-0.096443
O10	O	0.974178	0.160660	0.073251
C11	C	0.829445	0.081942	0.000030
C12	C	0.737159	0.080836	0.000025
C13	C	0.988414	-0.026366	0.000058
C14	C	0.987296	-0.089587	0.000064
C15	C	0.514498	0.130160	0.000025
C16	C	0.427786	0.129116	0.000031
C17	C	0.448476	0.025348	0.000048
C18	C	0.535187	0.026393	0.000048
C19	C	0.568195	0.078801	0.000032
C20	C	0.394773	0.076712	0.000038
C21	C	0.300755	0.075580	0.000044
C22	C	0.662218	0.079933	0.000028
C23	C	1.056249	-0.488436	0.000021
C24	C	1.055210	-0.547840	0.000014
O25	O	1.119130	-0.584349	-0.000015
N26	N	0.978895	-0.570748	0.000010
C27	C	0.903614	-0.534248	0.000003
O28	O	0.838607	-0.559187	-0.000002
C29	C	0.904654	-0.474845	0.000004
C30	C	0.980973	-0.451941	0.000017
C31	C	1.132562	-0.465531	0.000033
C32	C	1.133601	-0.406131	0.000041
C33	C	1.058325	-0.369636	0.000037
C34	C	0.982012	-0.392541	0.000025
C35	C	0.829373	-0.438346	-0.000009
C36	C	0.830419	-0.378940	-0.000009
C37	C	0.906739	-0.356036	0.000004
C38	C	0.907774	-0.296645	0.000030
N39	N	0.984089	-0.273738	0.000034
C40	C	1.059365	-0.310233	0.000038
C41	C	0.901437	-0.658998	0.000001
C42	C	0.900396	-0.718400	0.000007
C43	C	1.051993	-0.731988	0.000016
C44	C	1.053032	-0.672585	0.000016
C45	C	0.977752	-0.636091	0.000005
C46	C	1.061539	-0.185488	0.000056
C47	C	1.062571	-0.126082	0.000068
C48	C	0.910975	-0.112499	0.000055
C49	C	0.909943	-0.171900	0.000047
C50	C	0.985232	-0.208394	0.000045
O51	O	0.843888	-0.260102	0.000055
O52	O	1.124361	-0.285285	0.000031
C53	C	1.133523	0.073570	0.000046
C54	C	1.225809	0.074677	0.000046
C55	C	0.974554	0.181878	0.000018
C56	C	0.975672	0.245100	0.000006
N57	N	0.981477	0.077754	0.228214
N58	N	0.981498	0.077754	-0.228136
C59	C	1.038337	0.039040	0.453947
C60	C	1.038340	0.039039	0.546137
C61	C	0.924631	0.116470	0.546124
C62	C	0.924625	0.116468	0.453936
C63	C	0.981483	0.077754	0.407850
C64	C	0.981492	0.077754	0.592228
C65	C	0.981494	0.077753	0.692184
C66	C	0.981480	0.077754	0.307888
H67	H	0.541371	0.172834	0.000019
C68	C	0.817619	-0.743374	0.000045
C69	C	0.832808	-0.803208	0.000060
C70	C	0.756572	-0.826231	0.000101
H71	H	0.786588	-0.730899	-0.051016
H72	H	0.786636	-0.730884	0.051137
H73	H	0.863778	-0.815693	-0.051027
H74	H	0.863827	-0.815699	0.051117
H75	H	0.725589	-0.813741	0.051193
H76	H	0.725547	-0.813752	-0.050961
H77	H	0.766867	-0.866830	0.000119
C78	C	0.593535	-0.029355	0.000235
C79	C	0.643903	-0.031794	0.075597
C80	C	0.697655	-0.083140	0.075807
H81	H	0.627871	-0.031155	-0.050777
H82	H	0.561489	-0.060733	0.000286
H83	H	0.675946	-0.000424	0.075538
H84	H	0.609590	-0.030003	0.126621
H85	H	0.665609	-0.114518	0.075858
H86	H	0.731985	-0.084936	0.024792
H87	H	0.731831	-0.084804	0.126943
C88	C	0.827145	-0.196852	-0.000096
C89	C	0.822135	-0.230555	-0.075443
C90	C	0.745879	-0.253551	-0.075609
H91	H	0.782390	-0.166667	-0.000139
H92	H	0.823578	-0.219785	0.050944
H93	H	0.825694	-0.207623	-0.126470
H94	H	0.866873	-0.260748	-0.075417
H95	H	0.742312	-0.276484	-0.024568
H96	H	0.701130	-0.223363	-0.075649
H97	H	0.742473	-0.276425	-0.126726
H98	H	0.384069	0.170939	0.000027
C99	C	0.412475	-0.031491	0.000012
C100	C	0.325044	-0.021415	-0.000016
C101	C	0.291853	-0.073763	-0.000063
H102	H	0.430842	-0.052684	0.051074
H103	H	0.430891	-0.052641	-0.051079
H104	H	0.306635	-0.000274	0.051069
H105	H	0.306653	-0.000231	-0.051074
H106	H	0.310269	-0.094912	-0.051154
H107	H	0.310226	-0.094951	0.051000
H108	H	0.232529	-0.066933	-0.000090
H109	H	1.113286	-0.761714	0.000015
C110	C	1.216490	-0.381302	-0.000137
C111	C	1.261952	-0.399839	-0.075498
C112	C	1.338313	-0.376978	-0.075701
H113	H	1.247562	-0.393824	0.050876
H114	H	1.206378	-0.340695	-0.000183
H115	H	1.272067	-0.440438	-0.075443
H116	H	1.230906	-0.387318	-0.126522
H117	H	1.328200	-0.336370	-0.075747
H118	H	1.369377	-0.389501	-0.024685
H119	H	1.369165	-0.389548	-0.126835
C120	C	1.145352	-0.101106	0.000121
C121	C	1.130158	-0.041271	0.000151
C122	C	1.206392	-0.018246	0.000209
H123	H	1.176389	-0.113564	-0.050937
H124	H	1.176330	-0.113610	0.051215
H125	H	1.099193	-0.028773	-0.050938
H126	H	1.099133	-0.028797	0.051206
H127	H	1.237370	-0.030750	0.051303
H128	H	1.237423	-0.030708	-0.050850
H129	H	1.196093	0.022354	0.000237
H130	H	1.122847	-0.215195	0.000051
C131	C	1.214274	-0.505175	-0.000142
C132	C	1.218138	-0.539661	-0.075501
C133	C	1.293409	-0.576178	-0.075691
H134	H	1.217102	-0.528688	0.050872
H135	H	1.259888	-0.483037	-0.000184
H136	H	1.172536	-0.561797	-0.075451
H137	H	1.215324	-0.516163	-0.126527
H138	H	1.339023	-0.554040	-0.075732
H139	H	1.296230	-0.599687	-0.024673
H140	H	1.296044	-0.599577	-0.126824
C141	C	1.135980	-0.647831	-0.000025
C142	C	1.201674	-0.692513	-0.000043
C143	C	1.278100	-0.669735	-0.000096
H144	H	1.139658	-0.624952	0.051031
H145	H	1.139586	-0.624955	-0.051121
H146	H	1.198069	-0.715380	0.051048
H147	H	1.198023	-0.715396	-0.051096
H148	H	1.281706	-0.646859	-0.051192
H149	H	1.281770	-0.646857	0.050961
H150	H	1.322683	-0.700048	-0.000116
H151	H	0.840130	-0.629287	-0.000001
C152	C	0.746424	-0.463092	-0.000073
C153	C	0.680734	-0.418407	-0.000105
C154	C	0.604305	-0.441179	-0.000177
H155	H	0.742731	-0.485980	0.050982
H156	H	0.742824	-0.485959	-0.051170
H157	H	0.684332	-0.395550	0.050987
H158	H	0.684399	-0.395515	-0.051156
H159	H	0.600705	-0.464046	-0.051274
H160	H	0.600621	-0.464067	0.050879
H161	H	0.559726	-0.410864	-0.000207
H162	H	0.769115	-0.349228	-0.000019
C163	C	1.100098	-0.003060	0.404069
C164	C	1.149873	-0.036974	0.464175
C165	C	1.206768	-0.075770	0.418263
H166	H	1.134616	0.017365	0.368094
H167	H	1.070406	-0.026804	0.368135
H168	H	1.179564	-0.013232	0.500094
H169	H	1.115379	-0.057411	0.500152
H170	H	1.177076	-0.099514	0.382329
H171	H	1.241280	-0.055340	0.382289
H172	H	1.240542	-0.098789	0.459038
H173	H	0.849688	-0.082774	0.000055
H174	H	1.084635	0.007514	0.583666
H175	H	0.878340	0.147991	0.583657
H176	H	0.878323	0.147994	0.416402
