data_functionalizedCrystal
_audit_creation_method	'MofGen! by Chris Wilmer'
_symmetry_space_group_name_H-M	'P1'
_symmetry_Int_Tables_number	1
_symmetry_cell_setting	triclinic
loop_
_symmetry_equiv_pos_as_xyz
  x,y,z
_cell_length_a	18.050582
_cell_length_b	13.897449
_cell_length_c	13.897448
_cell_angle_alpha	90.018519
_cell_angle_beta	89.979070
_cell_angle_gamma	89.983584
loop_
_atom_site_label
_atom_site_type_symbol
_atom_site_fract_x
_atom_site_fract_y
_atom_site_fract_z
Zn1	Zn	-0.419951	1.474636	-0.384055
Zn2	Zn	-0.169951	1.724636	-0.134055
Zn3	Zn	0.080049	1.974636	0.115945
Zn4	Zn	0.330049	2.224636	0.365945
Zn5	Zn	-0.295764	1.474550	-0.545349
Zn6	Zn	-0.045764	1.724550	-0.295349
Zn7	Zn	0.204236	1.974550	-0.045349
Zn8	Zn	0.454236	2.224550	0.204651
Zn9	Zn	-0.295772	1.313345	-0.384072
Zn10	Zn	-0.045772	1.563345	-0.134072
Zn11	Zn	0.204228	1.813345	0.115928
Zn12	Zn	0.454228	2.063345	0.365928
Zn13	Zn	-0.419909	1.313307	-0.545312
Zn14	Zn	-0.169909	1.563307	-0.295312
Zn15	Zn	0.080091	1.813307	-0.045312
Zn16	Zn	0.330091	2.063307	0.204688
O17	O	-0.357849	1.393960	-0.464697
O18	O	-0.107849	1.643960	-0.214697
O19	O	0.142151	1.893960	0.035303
O20	O	0.392151	2.143960	0.285303
O21	O	-0.403491	1.609606	-0.405459
O22	O	-0.153491	1.859606	-0.155459
O23	O	0.096509	2.109606	0.094541
O24	O	0.346509	2.359606	0.344541
O25	O	-0.191841	1.453145	-0.523979
O26	O	0.058159	1.703145	-0.273979
O27	O	0.308159	1.953145	-0.023979
O28	O	0.558159	2.203145	0.226021
O29	O	-0.312264	1.334793	-0.249088
O30	O	-0.062264	1.584793	0.000912
O31	O	0.187736	1.834793	0.250912
O32	O	0.437736	2.084793	0.500912
O33	O	-0.312252	1.609543	-0.523962
O34	O	-0.062252	1.859543	-0.273962
O35	O	0.187748	2.109543	-0.023962
O36	O	0.437748	2.359543	0.226038
O37	O	-0.403498	1.453293	-0.249076
O38	O	-0.153498	1.703293	0.000924
O39	O	0.096502	1.953293	0.250924
O40	O	0.346502	2.203293	0.500924
O41	O	-0.191846	1.334709	-0.405489
O42	O	0.058154	1.584709	-0.155489
O43	O	0.308154	1.834709	0.094511
O44	O	0.558154	2.084709	0.344511
O45	O	-0.312225	1.178358	-0.405453
O46	O	-0.062225	1.428358	-0.155453
O47	O	0.187775	1.678358	0.094547
O48	O	0.437775	1.928358	0.344547
O49	O	-0.523840	1.334728	-0.523898
O50	O	-0.273840	1.584728	-0.273898
O51	O	-0.023840	1.834728	-0.023898
O52	O	0.226160	2.084728	0.226102
O53	O	-0.403428	1.178330	-0.523915
O54	O	-0.153428	1.428330	-0.273915
O55	O	0.096572	1.678330	-0.023915
O56	O	0.346572	1.928330	0.226085
O57	O	-0.523870	1.453256	-0.405423
O58	O	-0.273870	1.703256	-0.155423
O59	O	-0.023870	1.953256	0.094577
O60	O	0.226130	2.203256	0.344577
O61	O	-0.312212	1.453109	-0.680326
O62	O	-0.062212	1.703109	-0.430326
O63	O	0.187788	1.953109	-0.180326
O64	O	0.437788	2.203109	0.069674
O65	O	-0.403421	1.334644	-0.680299
O66	O	-0.153421	1.584644	-0.430299
O67	O	0.096579	1.834644	-0.180299
O68	O	0.346579	2.084644	0.069701
C69	C	-0.357823	1.143345	-0.464682
C70	C	-0.107823	1.393345	-0.214682
C71	C	0.142177	1.643345	0.035318
C72	C	0.392177	1.893345	0.285318
C73	C	-0.357830	1.036131	-0.464699
C74	C	-0.107830	1.286131	-0.214699
C75	C	0.142170	1.536131	0.035301
C76	C	0.392170	1.786131	0.285301
C77	C	-0.357842	0.949061	-0.464702
C78	C	-0.107842	1.199061	-0.214702
C79	C	0.142158	1.449061	0.035298
C80	C	0.392158	1.699061	0.285298
C81	C	-0.357865	0.839829	-0.464709
C82	C	-0.107865	1.089829	-0.214709
C83	C	0.142135	1.339829	0.035291
C84	C	0.392135	1.589829	0.285291
C85	C	-0.551555	1.393997	-0.464654
C86	C	-0.301555	1.643997	-0.214654
C87	C	-0.051555	1.893997	0.035346
C88	C	0.198445	2.143997	0.285346
C89	C	-0.634100	1.394013	-0.464636
C90	C	-0.384100	1.644013	-0.214636
C91	C	-0.134100	1.894013	0.035364
C92	C	0.115900	2.144013	0.285364
C93	C	-0.833535	1.329607	-0.528975
C94	C	-0.583535	1.579607	-0.278975
C95	C	-0.333535	1.829607	-0.028975
C96	C	-0.083535	2.079607	0.221025
C97	C	-0.882928	1.417615	-0.552552
C98	C	-0.632928	1.667615	-0.302552
C99	C	-0.382928	1.917615	-0.052552
C100	C	-0.132928	2.167615	0.197448
C101	C	-0.785231	1.394061	-0.464563
C102	C	-0.535231	1.644061	-0.214563
C103	C	-0.285231	1.894061	0.035437
C104	C	-0.035231	2.144061	0.285437
C105	C	-0.882919	1.306102	-0.440959
C106	C	-0.632919	1.556102	-0.190959
C107	C	-0.382919	1.806102	0.059041
C108	C	-0.132919	2.056102	0.309041
C109	C	-0.931216	1.394099	-0.464493
C110	C	-0.681216	1.644099	-0.214493
C111	C	-0.431216	1.894099	0.035507
C112	C	-0.181216	2.144099	0.285507
C113	C	-0.833537	1.482115	-0.488186
C114	C	-0.583537	1.732115	-0.238186
C115	C	-0.333537	1.982115	0.011814
C116	C	-0.083537	2.232115	0.261814
C117	C	-0.833524	1.370542	-0.376551
C118	C	-0.583524	1.620542	-0.126551
C119	C	-0.333524	1.870542	0.123449
C120	C	-0.083524	2.120542	0.373449
C121	C	-0.882895	1.458611	-0.400095
C122	C	-0.632895	1.708611	-0.150095
C123	C	-0.382895	1.958611	0.099905
C124	C	-0.132895	2.208611	0.349905
C125	C	-0.701133	1.394038	-0.464605
C126	C	-0.451133	1.644038	-0.214605
C127	C	-0.201133	1.894038	0.035395
C128	C	0.048867	2.144038	0.285395
C129	C	-1.015313	1.394132	-0.464451
C130	C	-0.765313	1.644132	-0.214451
C131	C	-0.515313	1.894132	0.035549
C132	C	-0.265313	2.144132	0.285549
C133	C	-0.164897	1.393977	-0.464670
C134	C	0.085103	1.643977	-0.214670
C135	C	0.335103	1.893977	0.035330
C136	C	0.585103	2.143977	0.285330
C137	C	-0.082351	1.394148	-0.464417
C138	C	0.167649	1.644148	-0.214417
C139	C	0.417649	1.894148	0.035583
C140	C	0.667649	2.144148	0.285583
C141	C	-0.357827	1.393889	-0.715311
C142	C	-0.107827	1.643889	-0.465311
C143	C	0.142173	1.893889	-0.215311
C144	C	0.392173	2.143889	0.034689
C145	C	-0.357843	1.393947	-0.822525
C146	C	-0.107843	1.643947	-0.572525
C147	C	0.142157	1.893947	-0.322525
C148	C	0.392157	2.143947	-0.072525
C149	C	-0.357875	1.645552	-0.464713
C150	C	-0.107875	1.895552	-0.214713
C151	C	0.142125	2.145552	0.035287
C152	C	0.392125	2.395552	0.285287
C153	C	-0.357887	1.752766	-0.464719
C154	C	-0.107887	2.002766	-0.214719
C155	C	0.142113	2.252766	0.035281
C156	C	0.392113	2.502766	0.285281
C157	C	-0.357890	1.394049	-1.018820
C158	C	-0.107890	1.644049	-0.768820
C159	C	0.142110	1.894049	-0.518820
C160	C	0.392110	2.144049	-0.268820
C161	C	-0.357866	1.393989	-0.909588
C162	C	-0.107866	1.643989	-0.659588
C163	C	0.142134	1.893989	-0.409588
C164	C	0.392134	2.143989	-0.159588
C165	C	-0.357887	1.394056	-0.213104
C166	C	-0.107887	1.644056	0.036896
C167	C	0.142113	1.894056	0.286896
C168	C	0.392113	2.144056	0.536896
C169	C	-0.357903	1.394098	-0.105890
C170	C	-0.107903	1.644098	0.144110
C171	C	0.142097	1.894098	0.394110
C172	C	0.392097	2.144098	0.644110
H173	H	-0.811862	1.275152	-0.583517
H174	H	-0.561862	1.525152	-0.333517
H175	H	-0.311862	1.775152	-0.083517
H176	H	-0.061862	2.025152	0.166483
H177	H	-0.904611	1.231700	-0.421023
H178	H	-0.654611	1.481700	-0.171023
H179	H	-0.404611	1.731700	0.078977
H180	H	-0.154611	1.981700	0.328977
H181	H	-0.904629	1.437531	-0.626952
H182	H	-0.654629	1.687531	-0.376952
H183	H	-0.404629	1.937531	-0.126952
H184	H	-0.154629	2.187531	0.123048
C185	C	-0.804363	1.582667	-0.515188
C186	C	-0.554363	1.832667	-0.265188
C187	C	-0.304363	2.082667	-0.015188
C188	C	-0.054363	2.332667	0.234812
H189	H	-0.751733	1.582034	-0.515066
H190	H	-0.501733	1.832034	-0.265066
H191	H	-0.251733	2.082034	-0.015066
H192	H	-0.001733	2.332034	0.234934
H193	H	-0.821669	1.628468	-0.469671
H194	H	-0.571669	1.878468	-0.219671
H195	H	-0.321669	2.128468	0.030329
H196	H	-0.071669	2.378468	0.280329
H197	H	-0.821679	1.599525	-0.577488
H198	H	-0.571679	1.849525	-0.327488
H199	H	-0.321679	2.099525	-0.077488
H200	H	-0.071679	2.349525	0.172512
C201	C	-0.911997	1.532345	-0.326473
C202	C	-0.661997	1.782345	-0.076473
C203	C	-0.411997	2.032345	0.173527
C204	C	-0.161997	2.282345	0.423527
H205	H	-0.894997	1.594785	-0.343374
H206	H	-0.644997	1.844785	-0.093374
H207	H	-0.394997	2.094785	0.156626
H208	H	-0.144997	2.344785	0.406626
H209	H	-0.894333	1.516158	-0.264165
H210	H	-0.644333	1.766158	-0.014165
H211	H	-0.394333	2.016158	0.235835
H212	H	-0.144333	2.266158	0.485835
H213	H	-0.964624	1.531594	-0.326478
H214	H	-0.714624	1.781594	-0.076478
H215	H	-0.464624	2.031594	0.173522
H216	H	-0.214624	2.281594	0.423522
C217	C	-0.804178	1.343604	-0.276077
C218	C	-0.554178	1.593604	-0.026077
C219	C	-0.304178	1.843604	0.223923
C220	C	-0.054178	2.093604	0.473923
H221	H	-0.821056	1.281042	-0.259424
H222	H	-0.571056	1.531042	-0.009424
H223	H	-0.321056	1.781042	0.240576
H224	H	-0.071056	2.031042	0.490576
H225	H	-0.821814	1.388765	-0.230134
H226	H	-0.571814	1.638765	0.019866
H227	H	-0.321814	1.888765	0.269866
H228	H	-0.071814	2.138765	0.519866
H229	H	-0.751554	1.344364	-0.276693
H230	H	-0.501554	1.594364	-0.026693
H231	H	-0.251554	1.844364	0.223307
H232	H	-0.001554	2.094364	0.473307
