data_functionalizedCrystal
_audit_creation_method	'MofGen! by Chris Wilmer'
_symmetry_space_group_name_H-M	'P1'
_symmetry_Int_Tables_number	1
_symmetry_cell_setting	triclinic
loop_
_symmetry_equiv_pos_as_xyz
  x,y,z
_cell_length_a	16.959455
_cell_length_b	21.295417
_cell_length_c	16.959447
_cell_angle_alpha	89.964807
_cell_angle_beta	89.985678
_cell_angle_gamma	90.027454
loop_
_atom_site_label
_atom_site_type_symbol
_atom_site_fract_x
_atom_site_fract_y
_atom_site_fract_z
Zn1	Zn	1.208326	-0.250648	-0.446882
Zn2	Zn	1.458326	-0.000648	-0.196882
Zn3	Zn	1.708326	0.249352	0.053118
Zn4	Zn	1.958326	0.499352	0.303118
Zn5	Zn	1.208225	-0.355925	-0.314692
Zn6	Zn	1.458225	-0.105925	-0.064692
Zn7	Zn	1.708225	0.144075	0.185308
Zn8	Zn	1.958225	0.394075	0.435308
Zn9	Zn	1.076155	-0.250668	-0.314719
Zn10	Zn	1.326155	-0.000668	-0.064719
Zn11	Zn	1.576155	0.249332	0.185281
Zn12	Zn	1.826155	0.499332	0.435281
Zn13	Zn	1.076096	-0.355878	-0.446831
Zn14	Zn	1.326096	-0.105878	-0.196831
Zn15	Zn	1.576096	0.144122	0.053169
Zn16	Zn	1.826096	0.394122	0.303169
O17	O	1.142200	-0.303280	-0.380781
O18	O	1.392200	-0.053280	-0.130781
O19	O	1.642200	0.196720	0.119219
O20	O	1.892200	0.446720	0.369219
O21	O	1.318924	-0.264625	-0.429357
O22	O	1.568924	-0.014625	-0.179357
O23	O	1.818924	0.235375	0.070643
O24	O	2.068924	0.485375	0.320643
O25	O	1.190688	-0.341990	-0.204085
O26	O	1.440688	-0.091990	0.045915
O27	O	1.690688	0.158010	0.295915
O28	O	1.940688	0.408010	0.545915
O29	O	1.093755	-0.162576	-0.332284
O30	O	1.343755	0.087424	-0.082284
O31	O	1.593755	0.337424	0.167716
O32	O	1.843755	0.587424	0.417716
O33	O	1.318849	-0.341971	-0.332237
O34	O	1.568849	-0.091971	-0.082237
O35	O	1.818849	0.158029	0.167763
O36	O	2.068849	0.408029	0.417763
O37	O	1.190861	-0.162561	-0.429383
O38	O	1.440861	0.087439	-0.179383
O39	O	1.690861	0.337439	0.070617
O40	O	1.940861	0.587439	0.320617
O41	O	1.093657	-0.264658	-0.204105
O42	O	1.343657	-0.014658	0.045895
O43	O	1.593657	0.235342	0.295895
O44	O	1.843657	0.485342	0.545895
O45	O	0.965536	-0.264613	-0.332234
O46	O	1.215536	-0.014613	-0.082234
O47	O	1.465536	0.235387	0.167766
O48	O	1.715536	0.485387	0.417766
O49	O	1.093654	-0.341891	-0.557448
O50	O	1.343654	-0.091891	-0.307448
O51	O	1.593654	0.158109	-0.057448
O52	O	1.843654	0.408109	0.192552
O53	O	0.965493	-0.341910	-0.429296
O54	O	1.215493	-0.091910	-0.179296
O55	O	1.465493	0.158090	0.070704
O56	O	1.715493	0.408090	0.320704
O57	O	1.190803	-0.264579	-0.557486
O58	O	1.440803	-0.014579	-0.307486
O59	O	1.690803	0.235421	-0.057486
O60	O	1.940803	0.485421	0.192514
O61	O	1.190630	-0.444008	-0.332188
O62	O	1.440630	-0.194008	-0.082188
O63	O	1.690630	0.055992	0.167812
O64	O	1.940630	0.305992	0.417812
O65	O	1.093555	-0.443973	-0.429269
O66	O	1.343555	-0.193973	-0.179269
O67	O	1.593555	0.056027	0.070731
O68	O	1.843555	0.306027	0.320731
C69	C	0.936834	-0.303259	-0.380763
C70	C	1.186834	-0.053259	-0.130763
C71	C	1.436834	0.196741	0.119237
C72	C	1.686834	0.446741	0.369237
C73	C	0.848978	-0.303265	-0.380774
C74	C	1.098978	-0.053265	-0.130774
C75	C	1.348978	0.196735	0.119226
C76	C	1.598978	0.446735	0.369226
C77	C	0.477500	-0.262998	-0.330347
C78	C	0.727500	-0.012998	-0.080347
C79	C	0.977500	0.237002	0.169653
C80	C	1.227500	0.487002	0.419653
C81	C	0.477504	-0.343613	-0.431261
C82	C	0.727504	-0.093613	-0.181261
C83	C	0.977504	0.156387	0.068739
C84	C	1.227504	0.406387	0.318739
C85	C	0.560050	-0.343604	-0.431256
C86	C	0.810050	-0.093604	-0.181256
C87	C	1.060050	0.156396	0.068744
C88	C	1.310050	0.406396	0.318744
C89	C	0.601325	-0.303292	-0.380795
C90	C	0.851325	-0.053292	-0.130795
C91	C	1.101325	0.196708	0.119205
C92	C	1.351325	0.446708	0.369205
C93	C	0.560054	-0.262989	-0.330339
C94	C	0.810054	-0.012989	-0.080339
C95	C	1.060054	0.237011	0.169661
C96	C	1.310054	0.487011	0.419661
C97	C	0.601327	-0.383911	-0.481705
C98	C	0.851327	-0.133911	-0.231705
C99	C	1.101327	0.116089	0.018295
C100	C	1.351327	0.366089	0.268295
C101	C	0.683877	-0.383904	-0.481702
C102	C	0.933877	-0.133904	-0.231702
C103	C	1.183877	0.116096	0.018298
C104	C	1.433877	0.366096	0.268298
C105	C	0.725154	-0.343588	-0.431244
C106	C	0.975154	-0.093588	-0.181244
C107	C	1.225154	0.156412	0.068756
C108	C	1.475154	0.406412	0.318756
C109	C	0.683878	-0.303283	-0.380787
C110	C	0.933878	-0.053283	-0.130787
C111	C	1.183878	0.196717	0.119213
C112	C	1.433878	0.446717	0.369213
C113	C	0.725153	-0.262971	-0.330326
C114	C	0.975153	-0.012971	-0.080326
C115	C	1.225153	0.237029	0.169674
C116	C	1.475153	0.487029	0.419674
C117	C	0.683879	-0.222662	-0.279871
C118	C	0.933879	0.027338	-0.029871
C119	C	1.183879	0.277338	0.220129
C120	C	1.433879	0.527338	0.470129
C121	C	0.601330	-0.222673	-0.279881
C122	C	0.851330	0.027327	-0.029881
C123	C	1.101330	0.277327	0.220119
C124	C	1.351330	0.527327	0.470119
C125	C	0.807702	-0.343577	-0.431235
C126	C	1.057702	-0.093577	-0.181235
C127	C	1.307702	0.156423	0.068765
C128	C	1.557702	0.406423	0.318765
C129	C	0.807707	-0.262962	-0.330318
C130	C	1.057707	-0.012962	-0.080318
C131	C	1.307707	0.237038	0.169682
C132	C	1.557707	0.487038	0.419682
C133	C	1.142097	-0.466831	-0.380737
C134	C	1.392097	-0.216831	-0.130737
C135	C	1.642097	0.033169	0.119263
C136	C	1.892097	0.283169	0.369263
C137	C	1.142125	-0.536799	-0.380745
C138	C	1.392125	-0.286799	-0.130745
C139	C	1.642125	-0.036799	0.119255
C140	C	1.892125	0.213201	0.369255
C141	C	1.192717	-0.569663	-0.330246
C142	C	1.442717	-0.319663	-0.080246
C143	C	1.692717	-0.069663	0.169754
C144	C	1.942717	0.180337	0.419754
C145	C	1.192754	-0.635406	-0.330264
C146	C	1.442754	-0.385406	-0.080264
C147	C	1.692754	-0.135406	0.169736
C148	C	1.942754	0.114594	0.419736
C149	C	1.142185	-0.668282	-0.380772
C150	C	1.392185	-0.418282	-0.130772
C151	C	1.642185	-0.168282	0.119228
C152	C	1.892185	0.081718	0.369228
C153	C	1.091589	-0.635410	-0.431281
C154	C	1.341589	-0.385410	-0.181281
C155	C	1.591589	-0.135410	0.068719
C156	C	1.841589	0.114590	0.318719
C157	C	1.091559	-0.569669	-0.431267
C158	C	1.341559	-0.319669	-0.181267
C159	C	1.591559	-0.069669	0.068733
C160	C	1.841559	0.180331	0.318733
N161	N	1.073038	-0.771544	-0.386792
N162	N	1.323038	-0.521544	-0.136792
N163	N	1.573038	-0.271544	0.113208
N164	N	1.823038	-0.021544	0.363208
N165	N	1.073069	-0.833996	-0.386800
N166	N	1.323069	-0.583996	-0.136800
N167	N	1.573069	-0.333996	0.113200
N168	N	1.823069	-0.083996	0.363200
C169	C	1.142273	-0.866357	-0.380818
C170	C	1.392273	-0.616357	-0.130818
C171	C	1.642273	-0.366357	0.119182
C172	C	1.892273	-0.116357	0.369182
N173	N	1.211448	-0.833907	-0.374811
N174	N	1.461448	-0.583907	-0.124811
N175	N	1.711448	-0.333907	0.125189
N176	N	1.961448	-0.083907	0.375189
N177	N	1.211416	-0.771449	-0.374798
N178	N	1.461416	-0.521449	-0.124798
N179	N	1.711416	-0.271449	0.125202
N180	N	1.961416	-0.021449	0.375202
C181	C	1.142212	-0.739567	-0.380793
C182	C	1.392212	-0.489567	-0.130793
C183	C	1.642212	-0.239567	0.119207
C184	C	1.892212	0.010433	0.369207
C185	C	1.192910	-0.970506	-0.330335
C186	C	1.442910	-0.720506	-0.080335
C187	C	1.692910	-0.470506	0.169665
C188	C	1.942910	-0.220506	0.419665
C189	C	1.192948	-1.036249	-0.330359
C190	C	1.442948	-0.786249	-0.080359
C191	C	1.692948	-0.536249	0.169641
C192	C	1.942948	-0.286249	0.419641
C193	C	1.091777	-1.036253	-0.431371
C194	C	1.341777	-0.786253	-0.181371
C195	C	1.591777	-0.536253	0.068629
C196	C	1.841777	-0.286253	0.318629
C197	C	1.091745	-0.970510	-0.431352
C198	C	1.341745	-0.720510	-0.181352
C199	C	1.591745	-0.470510	0.068648
C200	C	1.841745	-0.220510	0.318648
C201	C	1.142311	-0.937641	-0.380830
C202	C	1.392311	-0.687641	-0.130830
C203	C	1.642311	-0.437641	0.119170
C204	C	1.892311	-0.187641	0.369170
C205	C	1.348369	-0.303301	-0.380800
C206	C	1.598369	-0.053301	-0.130800
C207	C	1.848369	0.196699	0.119200
C208	C	2.098369	0.446699	0.369200
C209	C	1.436225	-0.303310	-0.380808
C210	C	1.686225	-0.053310	-0.130808
C211	C	1.936225	0.196690	0.119192
C212	C	2.186225	0.446690	0.369192
C213	C	1.142233	-0.303228	-0.586949
C214	C	1.392233	-0.053228	-0.336949
C215	C	1.642233	0.196772	-0.086949
C216	C	1.892233	0.446772	0.163051
C217	C	1.142247	-0.303205	-0.674806
C218	C	1.392247	-0.053205	-0.424806
C219	C	1.642247	0.196795	-0.174806
C220	C	1.892247	0.446795	0.075194
C221	C	1.142326	-0.139089	-0.380842
C222	C	1.392326	0.110911	-0.130842
C223	C	1.642326	0.360911	0.119158
C224	C	1.892326	0.610911	0.369158
C225	C	1.142379	-0.069121	-0.380868
C226	C	1.392379	0.180879	-0.130868
C227	C	1.642379	0.430879	0.119132
C228	C	1.892379	0.680879	0.369132
C229	C	1.091760	-0.343392	-1.046265
C230	C	1.341760	-0.093392	-0.796265
C231	C	1.591760	0.156608	-0.546265
C232	C	1.841760	0.406608	-0.296265
C233	C	1.192923	-0.262886	-1.046299
C234	C	1.442923	-0.012886	-0.796299
C235	C	1.692923	0.237114	-0.546299
C236	C	1.942923	0.487114	-0.296299
C237	C	1.192902	-0.262900	-0.963753
C238	C	1.442902	-0.012900	-0.713753
C239	C	1.692902	0.237100	-0.463753
C240	C	1.942902	0.487100	-0.213753
C241	C	1.142310	-0.303160	-0.922459
C242	C	1.392310	-0.053160	-0.672459
C243	C	1.642310	0.196840	-0.422459
C244	C	1.892310	0.446840	-0.172459
C245	C	1.091740	-0.343407	-0.963711
C246	C	1.341740	-0.093407	-0.713711
C247	C	1.591740	0.156593	-0.463711
C248	C	1.841740	0.406593	-0.213711
C249	C	1.243478	-0.222658	-0.922495
C250	C	1.493478	0.027342	-0.672495
C251	C	1.743478	0.277342	-0.422495
C252	C	1.993478	0.527342	-0.172495
C253	C	1.243459	-0.222670	-0.839944
C254	C	1.493459	0.027330	-0.589944
C255	C	1.743459	0.277330	-0.339944
C256	C	1.993459	0.527330	-0.089944
C257	C	1.192863	-0.262928	-0.798648
C258	C	1.442863	-0.012928	-0.548648
C259	C	1.692863	0.237072	-0.298648
C260	C	1.942863	0.487072	-0.048648
C261	C	1.142289	-0.303176	-0.839906
C262	C	1.392289	-0.053176	-0.589906
C263	C	1.642289	0.196824	-0.339906
C264	C	1.892289	0.446824	-0.089906
C265	C	1.091698	-0.343437	-0.798612
C266	C	1.341698	-0.093437	-0.548612
C267	C	1.591698	0.156563	-0.298612
C268	C	1.841698	0.406563	-0.048612
C269	C	1.041120	-0.383682	-0.839867
C270	C	1.291120	-0.133682	-0.589867
C271	C	1.541120	0.116318	-0.339867
C272	C	1.791120	0.366318	-0.089867
C273	C	1.041143	-0.383665	-0.922416
C274	C	1.291143	-0.133665	-0.672416
C275	C	1.541143	0.116335	-0.422416
C276	C	1.791143	0.366335	-0.172416
C277	C	1.192839	-0.262945	-0.716100
C278	C	1.442839	-0.012945	-0.466100
C279	C	1.692839	0.237055	-0.216100
C280	C	1.942839	0.487055	0.033900
C281	C	1.091677	-0.343453	-0.716058
C282	C	1.341677	-0.093453	-0.466058
C283	C	1.591677	0.156547	-0.216058
C284	C	1.841677	0.406547	0.033942
C285	C	1.142213	-0.303286	-0.175415
C286	C	1.392213	-0.053286	0.074585
C287	C	1.642213	0.196714	0.324585
C288	C	1.892213	0.446714	0.574585
C289	C	1.142352	-0.303131	-0.087559
C290	C	1.392352	-0.053131	0.162441
C291	C	1.642352	0.196869	0.412441
C292	C	1.892352	0.446869	0.662441
H293	H	0.841304	-0.376398	-0.472312
H294	H	1.091304	-0.126398	-0.222312
H295	H	1.341304	0.123602	0.027688
H296	H	1.591304	0.373602	0.277688
H297	H	1.050579	-0.376157	-1.079859
H298	H	1.300579	-0.126157	-0.829859
H299	H	1.550579	0.123843	-0.579859
H300	H	1.800579	0.373843	-0.329859
H301	H	1.233892	-0.542903	-0.289110
H302	H	1.483892	-0.292903	-0.039110
H303	H	1.733892	-0.042903	0.210890
H304	H	1.983892	0.207097	0.460890
H305	H	0.999931	-0.416465	-0.806235
H306	H	1.249931	-0.166465	-0.556235
H307	H	1.499931	0.083535	-0.306235
H308	H	1.749931	0.333535	-0.056235
H309	H	0.443893	-0.376437	-0.472339
H310	H	0.693893	-0.126437	-0.222339
H311	H	0.943893	0.123563	0.027661
H312	H	1.193893	0.373563	0.277661
H313	H	0.567714	-0.416735	-0.522782
H314	H	0.817714	-0.166735	-0.272782
H315	H	1.067714	0.083265	-0.022782
H316	H	1.317714	0.333265	0.227218
H317	H	1.284642	-0.189899	-0.806360
H318	H	1.534642	0.060101	-0.556360
H319	H	1.784642	0.310101	-0.306360
H320	H	2.034642	0.560101	-0.056360
H321	H	1.234086	-0.943742	-0.289200
H322	H	1.484086	-0.693742	-0.039200
H323	H	1.734086	-0.443742	0.210800
H324	H	1.984086	-0.193742	0.460800
H325	H	1.050471	-0.376232	-0.682442
H326	H	1.300471	-0.126232	-0.432442
H327	H	1.550471	0.123768	-0.182442
H328	H	1.800471	0.373768	0.067558
H329	H	1.233954	-0.662168	-0.289142
H330	H	1.483954	-0.412168	-0.039142
H331	H	1.733954	-0.162168	0.210858
H332	H	1.983954	0.087832	0.460858
H333	H	0.717476	-0.416725	-0.522785
H334	H	0.967476	-0.166725	-0.272785
H335	H	1.217476	0.083275	-0.022785
H336	H	1.467476	0.333275	0.227215
H337	H	1.234021	-0.230179	-0.682513
H338	H	1.484021	0.019821	-0.432513
H339	H	1.734021	0.269821	-0.182513
H340	H	1.984021	0.519821	0.067487
H341	H	1.234117	-0.230111	-1.079925
H342	H	1.484117	0.019889	-0.829925
H343	H	1.734117	0.269889	-0.579925
H344	H	1.984117	0.519889	-0.329925
H345	H	0.443891	-0.230178	-0.289270
H346	H	0.693891	0.019822	-0.039270
H347	H	0.943891	0.269822	0.210730
H348	H	1.193891	0.519822	0.460730
H349	H	1.050417	-0.662182	-0.472406
H350	H	1.300417	-0.412182	-0.222406
H351	H	1.550417	-0.162182	0.027594
H352	H	1.800417	0.087818	0.277594
H353	H	1.284672	-0.189883	-0.956122
H354	H	1.534672	0.060117	-0.706122
H355	H	1.784672	0.310117	-0.456122
H356	H	2.034672	0.560117	-0.206122
H357	H	1.050606	-1.063020	-0.472499
H358	H	1.300606	-0.813020	-0.222499
H359	H	1.550606	-0.563020	0.027501
H360	H	1.800606	-0.313020	0.277501
H361	H	0.841307	-0.230131	-0.289230
H362	H	1.091307	0.019869	-0.039230
H363	H	1.341307	0.269869	0.210770
H364	H	1.591307	0.519869	0.460770
H365	H	0.717496	-0.189843	-0.238783
H366	H	0.967496	0.060157	0.011217
H367	H	1.217496	0.310157	0.261217
H368	H	1.467496	0.560157	0.511217
H369	H	1.234151	-1.063006	-0.289238
H370	H	1.484151	-0.813006	-0.039238
H371	H	1.734151	-0.563006	0.210762
H372	H	1.984151	-0.313006	0.460762
H373	H	0.999968	-0.416433	-0.956013
H374	H	1.249968	-0.166433	-0.706013
H375	H	1.499968	0.083567	-0.456013
H376	H	1.749968	0.333567	-0.206013
H377	H	0.567717	-0.189857	-0.238803
H378	H	0.817717	0.060143	0.011197
H379	H	1.067717	0.310143	0.261197
H380	H	1.317717	0.560143	0.511197
H381	H	1.050361	-0.542911	-0.472390
H382	H	1.300361	-0.292911	-0.222390
H383	H	1.550361	-0.042911	0.027610
H384	H	1.800361	0.207089	0.277610
H385	H	1.050545	-0.943751	-0.472469
H386	H	1.300545	-0.693751	-0.222469
H387	H	1.550545	-0.443751	0.027531
H388	H	1.800545	-0.193751	0.277531
