data_functionalizedCrystal
_audit_creation_method	'MofGen! by Chris Wilmer'
_symmetry_space_group_name_H-M	'P1'
_symmetry_Int_Tables_number	1
_symmetry_cell_setting	triclinic
loop_
_symmetry_equiv_pos_as_xyz
  x,y,z
_cell_length_a	19.188930
_cell_length_b	19.188930
_cell_length_c	10.268362
_cell_angle_alpha	89.989600
_cell_angle_beta	89.981535
_cell_angle_gamma	83.144779
loop_
_atom_site_label
_atom_site_type_symbol
_atom_site_fract_x
_atom_site_fract_y
_atom_site_fract_z
O1	O	0.926145	0.087168	-0.108733
O2	O	1.259478	0.420501	0.224600
O3	O	1.592812	0.753835	0.557933
O4	O	0.722834	0.098902	-0.108646
O5	O	1.056167	0.432236	0.224687
O6	O	1.389500	0.765569	0.558021
O7	O	0.830356	-0.008620	-0.108667
O8	O	1.163690	0.324713	0.224666
O9	O	1.497023	0.658046	0.558000
O10	O	0.818622	0.194691	-0.108713
O11	O	1.151955	0.528024	0.224621
O12	O	1.485289	0.861358	0.557954
O13	O	0.830347	-0.008625	0.107934
O14	O	1.163680	0.324709	0.441267
O15	O	1.497014	0.658042	0.774600
O16	O	0.722824	0.098898	0.107955
O17	O	1.056158	0.432231	0.441288
O18	O	1.389491	0.765565	0.774621
O19	O	0.926136	0.087164	0.107867
O20	O	1.259469	0.420497	0.441201
O21	O	1.592802	0.753830	0.774534
Cu22	Cu	0.824479	0.093031	0.127688
Cu23	Cu	1.157812	0.426364	0.461022
Cu24	Cu	1.491146	0.759697	0.794355
Cu25	Cu	0.824490	0.093036	-0.128467
Cu26	Cu	1.157823	0.426369	0.204866
Cu27	Cu	1.491157	0.759702	0.538200
O28	O	0.818613	0.194687	0.107888
O29	O	1.151946	0.528020	0.441221
O30	O	1.485279	0.861353	0.774555
C31	C	0.696818	0.098520	-0.000334
C32	C	1.030151	0.431854	0.332999
C33	C	1.363485	0.765187	0.666332
C34	C	0.619313	0.097380	-0.000300
C35	C	0.952647	0.430713	0.333034
C36	C	1.285980	0.764046	0.666367
C37	C	0.574389	0.160470	-0.000334
C38	C	0.907723	0.493804	0.332999
C39	C	1.241056	0.827137	0.666332
C40	C	0.501566	0.159399	-0.000349
C41	C	0.834899	0.492732	0.332985
C42	C	1.168232	0.826065	0.666318
C43	C	0.473669	0.095233	-0.000354
C44	C	0.807002	0.428566	0.332979
C45	C	1.140336	0.761899	0.666313
C46	C	0.518603	0.032133	-0.000312
C47	C	0.851936	0.365467	0.333021
C48	C	1.185270	0.698800	0.666355
C49	C	0.591425	0.033207	-0.000285
C50	C	0.924758	0.366540	0.333048
C51	C	1.258092	0.699874	0.666382
N52	N	0.365692	0.046187	-0.074114
N53	N	0.699025	0.379520	0.259219
N54	N	1.032359	0.712854	0.592553
N55	N	0.296513	0.045172	-0.074143
N56	N	0.629847	0.378505	0.259191
N57	N	0.963180	0.711838	0.592524
C58	C	0.254260	0.091994	-0.000433
C59	C	0.587594	0.425328	0.332900
C60	C	0.920927	0.758661	0.666234
N61	N	0.283798	0.139882	0.073290
N62	N	0.617131	0.473215	0.406623
N63	N	0.950465	0.806548	0.739957
N64	N	0.352983	0.140899	0.073313
N65	N	0.686316	0.474233	0.406646
N66	N	1.019649	0.807566	0.739979
C67	C	0.394707	0.094062	-0.000383
C68	C	0.728040	0.427395	0.332951
C69	C	1.061373	0.760728	0.666284
C70	C	0.130372	0.153928	-0.000481
C71	C	0.463705	0.487261	0.332852
C72	C	0.797039	0.820594	0.666186
C73	C	0.057547	0.152853	-0.000487
C74	C	0.390881	0.486187	0.332846
C75	C	0.724214	0.819520	0.666180
C76	C	0.074586	0.025586	-0.000464
C77	C	0.407919	0.358920	0.332870
C78	C	0.741253	0.692253	0.666203
C79	C	0.147409	0.026662	-0.000445
C80	C	0.480743	0.359996	0.332889
C81	C	0.814076	0.693329	0.666222
C82	C	0.175298	0.090835	-0.000460
C83	C	0.508631	0.424168	0.332874
C84	C	0.841964	0.757502	0.666207
C85	C	0.829972	-0.034634	-0.000363
C86	C	1.163305	0.298700	0.332971
C87	C	1.496638	0.632033	0.666304
C88	C	0.828831	-0.112138	-0.000351
C89	C	1.162164	0.221195	0.332982
C90	C	1.495498	0.554529	0.666316
C91	C	0.891922	-0.157062	-0.000372
C92	C	1.225255	0.176271	0.332962
C93	C	1.558588	0.509605	0.666295
C94	C	0.890850	-0.229886	-0.000392
C95	C	1.224184	0.103448	0.332941
C96	C	1.557517	0.436781	0.666274
C97	C	0.826684	-0.257782	-0.000366
C98	C	1.160017	0.075551	0.332968
C99	C	1.493351	0.408884	0.666301
C100	C	0.763585	-0.212849	-0.000352
C101	C	1.096918	0.120485	0.332981
C102	C	1.430252	0.453818	0.666315
C103	C	0.764658	-0.140026	-0.000345
C104	C	1.097992	0.193307	0.332989
C105	C	1.431325	0.526640	0.666322
N106	N	0.777634	-0.365789	0.073369
N107	N	1.110967	-0.032456	0.406702
N108	N	1.444300	0.300878	0.740035
N109	N	0.776618	-0.434967	0.073365
N110	N	1.109951	-0.101634	0.406698
N111	N	1.443285	0.231699	0.740031
C112	C	0.823446	-0.477191	-0.000391
C113	C	1.156779	-0.143858	0.332943
C114	C	1.490113	0.189476	0.666276
N115	N	0.871338	-0.447624	-0.074125
N116	N	1.204672	-0.114291	0.259208
N117	N	1.538005	0.219043	0.592542
N118	N	0.872356	-0.378439	-0.074115
N119	N	1.205689	-0.045106	0.259218
N120	N	1.539022	0.288227	0.592552
C121	C	0.825513	-0.336745	-0.000374
C122	C	1.158846	-0.003412	0.332959
C123	C	1.492180	0.329922	0.666292
C124	C	0.885379	-0.601079	-0.000435
C125	C	1.218712	-0.267746	0.332898
C126	C	1.552046	0.065587	0.666231
C127	C	0.884305	-0.673904	-0.000464
C128	C	1.217638	-0.340571	0.332870
C129	C	1.550971	-0.007238	0.666203
C130	C	0.757038	-0.656865	-0.000411
C131	C	1.090371	-0.323532	0.332923
C132	C	1.423704	0.009801	0.666256
C133	C	0.758114	-0.584042	-0.000395
C134	C	1.091447	-0.250709	0.332938
C135	C	1.424781	0.082624	0.666271
C136	C	0.822286	-0.556154	-0.000401
C137	C	1.155620	-0.222821	0.332932
C138	C	1.488953	0.110513	0.666265
C139	C	0.952151	0.087546	-0.000448
C140	C	1.285485	0.420879	0.332886
C141	C	1.618818	0.754213	0.666219
C142	C	1.029656	0.088687	-0.000490
C143	C	1.362989	0.422020	0.332843
C144	C	1.696322	0.755353	0.666176
C145	C	0.818997	0.220700	-0.000419
C146	C	1.152331	0.554033	0.332914
C147	C	1.485664	0.887366	0.666248
C148	C	0.820138	0.298204	-0.000439
C149	C	1.153471	0.631538	0.332894
C150	C	1.486805	0.964871	0.666227
N151	N	0.824476	0.093026	0.307854
N152	N	1.157810	0.426360	0.641187
N153	N	1.491143	0.759693	0.974521
N154	N	0.824498	0.093034	-0.308633
N155	N	1.157832	0.426368	0.024700
N156	N	1.491165	0.759701	0.358034
C157	C	0.824487	0.093034	0.573525
C158	C	1.157820	0.426368	0.906858
C159	C	1.491153	0.759701	1.240191
C160	C	0.824479	0.093032	0.425687
C161	C	1.157812	0.426365	0.759020
C162	C	1.491145	0.759699	1.092353
H163	H	0.628003	-0.018171	-0.000257
H164	H	0.961336	0.315162	0.333076
H165	H	1.294670	0.648496	0.666409
H166	H	0.937632	-0.578372	-0.000446
H167	H	1.270966	-0.245038	0.332887
H168	H	1.604299	0.088295	0.666220
H169	H	0.464982	0.210776	-0.000373
H170	H	0.798315	0.544110	0.332960
H171	H	1.131648	0.877443	0.666294
C172	C	0.106218	0.279617	-0.000492
C173	C	0.439552	0.612950	0.332842
C174	C	0.772885	0.946283	0.666175
C175	C	0.161033	0.224464	-0.000477
C176	C	0.494366	0.557797	0.332856
C177	C	0.827700	0.891131	0.666189
H178	H	0.125147	0.323162	-0.000481
H179	H	0.458481	0.656495	0.332853
H180	H	0.791814	0.989829	0.666186
H181	H	0.078190	0.276555	-0.076028
H182	H	0.411523	0.609889	0.257305
H183	H	0.744856	0.943222	0.590639
H184	H	0.078150	0.276542	0.075040
H185	H	0.411483	0.609875	0.408373
H186	H	0.744817	0.943209	0.741706
H187	H	0.189098	0.227536	-0.076014
H188	H	0.522432	0.560869	0.257320
H189	H	0.855765	0.894202	0.590653
H190	H	0.189073	0.227527	0.075067
H191	H	0.522407	0.560860	0.408400
H192	H	0.855740	0.894193	0.741734
C193	C	0.414536	-0.026019	-0.000367
C194	C	0.747869	0.307314	0.332967
C195	C	1.081202	0.640648	0.666300
C196	C	0.487942	-0.038399	-0.000326
C197	C	0.821275	0.294934	0.333008
C198	C	1.154608	0.628267	0.666341
H199	H	0.395609	-0.069566	-0.000379
H200	H	0.728943	0.263768	0.332954
H201	H	1.062276	0.597101	0.666287
H202	H	0.399083	-0.000057	0.075152
H203	H	0.732417	0.333276	0.408485
H204	H	1.065750	0.666609	0.741818
H205	H	0.399132	-0.000047	-0.075916
H206	H	0.732465	0.333286	0.257418
H207	H	1.065799	0.666620	0.590751
H208	H	0.503346	-0.064367	0.075229
H209	H	0.836679	0.268966	0.408562
H210	H	1.170013	0.602300	0.741895
H211	H	0.503401	-0.064372	-0.075852
H212	H	0.836734	0.268961	0.257481
H213	H	1.170067	0.602294	0.590815
H214	H	0.020970	0.204232	-0.000508
H215	H	0.354303	0.537565	0.332826
H216	H	0.687637	0.870898	0.666159
H217	H	0.183988	-0.024713	-0.000424
H218	H	0.517321	0.308620	0.332910
H219	H	0.850654	0.641954	0.666243
H220	H	0.711340	-0.235567	-0.000333
H221	H	1.044674	0.097767	0.333000
H222	H	1.378007	0.431100	0.666333
C223	C	0.956942	-0.765657	-0.111857
C224	C	1.290275	-0.432324	0.221476
C225	C	1.623608	-0.098990	0.554809
C226	C	0.953662	-0.723286	-0.000497
C227	C	1.286995	-0.389953	0.332837
C228	C	1.620328	-0.056619	0.666170
H229	H	0.999763	-0.796140	-0.111880
H230	H	1.333096	-0.462806	0.221453
H231	H	1.666430	-0.129473	0.554787
H232	H	0.918579	-0.792691	-0.111844
H233	H	1.251913	-0.459358	0.221489
H234	H	1.585246	-0.126024	0.554823
H235	H	0.954719	-0.736874	-0.187373
H236	H	1.288052	-0.403540	0.145961
H237	H	1.621385	-0.070207	0.479294
H238	H	0.955879	-0.752069	0.075019
H239	H	1.289213	-0.418736	0.408353
H240	H	1.622546	-0.085403	0.741686
H241	H	0.992035	-0.696250	-0.000498
H242	H	1.325368	-0.362917	0.332835
H243	H	1.658701	-0.029583	0.666169
C244	C	-0.029475	-0.032568	-0.000510
C245	C	0.303858	0.300765	0.332824
C246	C	0.637191	0.634099	0.666157
C247	C	0.043931	-0.044948	-0.000477
C248	C	0.377264	0.288386	0.332856
C249	C	0.710597	0.621719	0.666190
H250	H	-0.048401	-0.076115	-0.000524
H251	H	0.284932	0.257218	0.332809
H252	H	0.618266	0.590552	0.666143
H253	H	-0.044926	-0.006608	0.075012
H254	H	0.288408	0.326725	0.408346
H255	H	0.621741	0.660058	0.741679
H256	H	-0.044882	-0.006594	-0.076055
H257	H	0.288452	0.326739	0.257278
H258	H	0.621785	0.660072	0.590612
H259	H	0.059338	-0.070917	0.075074
H260	H	0.392671	0.262416	0.408407
H261	H	0.726004	0.595750	0.741741
H262	H	0.059388	-0.070918	-0.076007
H263	H	0.392721	0.262415	0.257327
H264	H	0.726054	0.595748	0.590660
H265	H	0.704792	-0.679578	-0.000395
H266	H	1.038126	-0.346245	0.332938
H267	H	1.371459	-0.012911	0.666271
H268	H	0.706738	-0.547464	-0.000371
H269	H	1.040072	-0.214131	0.332962
H270	H	1.373405	0.119203	0.666296
C271	C	1.016756	-0.239421	-0.000410
C272	C	1.350089	0.093913	0.332923
C273	C	1.683423	0.427246	0.666257
C274	C	0.960204	-0.279278	-0.000406
C275	C	1.293538	0.054055	0.332928
C276	C	1.626871	0.387389	0.666261
H277	H	1.059571	-0.269913	-0.000409
H278	H	1.392904	0.063420	0.332924
H279	H	1.726238	0.396753	0.666257
H280	H	1.014539	-0.210658	-0.075938
H281	H	1.347872	0.122675	0.257396
H282	H	1.681205	0.456008	0.590729
H283	H	1.014516	-0.210668	0.075130
H284	H	1.347849	0.122665	0.408463
H285	H	1.681183	0.455999	0.741797
H286	H	0.962441	-0.308027	-0.075951
H287	H	1.295775	0.025306	0.257382
H288	H	1.629108	0.358639	0.590716
H289	H	0.962423	-0.308053	0.075130
H290	H	1.295756	0.025281	0.408463
H291	H	1.629089	0.358614	0.741796
H292	H	0.713281	-0.103448	-0.000327
H293	H	1.046614	0.229885	0.333006
H294	H	1.379947	0.563218	0.666339
C295	C	0.550227	0.286159	-0.000356
C296	C	0.883560	0.619493	0.332978
C297	C	1.216894	0.952826	0.666311
C298	C	0.605043	0.231008	-0.000329
C299	C	0.938377	0.564341	0.333004
C300	C	1.271710	0.897675	0.666337
H301	H	0.569154	0.329705	-0.000342
H302	H	0.902488	0.663039	0.332992
H303	H	1.235821	0.996372	0.666325
H304	H	0.522203	0.283096	-0.075898
H305	H	0.855537	0.616429	0.257436
H306	H	1.188870	0.949763	0.590769
H307	H	0.522154	0.283084	0.075170
H308	H	0.855488	0.616418	0.408503
H309	H	1.188821	0.949751	0.741836
H310	H	0.633113	0.234080	-0.075860
H311	H	0.966446	0.567413	0.257473
H312	H	1.299780	0.900747	0.590806
H313	H	0.633079	0.234073	0.075220
H314	H	0.966412	0.567406	0.408554
H315	H	1.299746	0.900740	0.741887
H316	H	0.944176	-0.134360	-0.000381
H317	H	1.277509	0.198973	0.332952
H318	H	1.610843	0.532306	0.666285
