data_functionalizedCrystal
_audit_creation_method	'MofGen! by Chris Wilmer'
_symmetry_space_group_name_H-M	'P1'
_symmetry_Int_Tables_number	1
_symmetry_cell_setting	triclinic
loop_
_symmetry_equiv_pos_as_xyz
  x,y,z
_cell_length_a	16.959455
_cell_length_b	12.645330
_cell_length_c	16.959447
_cell_angle_alpha	89.971713
_cell_angle_beta	89.983056
_cell_angle_gamma	90.009593
loop_
_atom_site_label
_atom_site_type_symbol
_atom_site_fract_x
_atom_site_fract_y
_atom_site_fract_z
Zn1	Zn	1.208445	-0.422104	-0.446920
Zn2	Zn	1.708445	0.077896	0.053080
Zn3	Zn	1.208379	-0.599396	-0.314747
Zn4	Zn	1.708379	-0.099396	0.185253
Zn5	Zn	1.076267	-0.422137	-0.314758
Zn6	Zn	1.576267	0.077863	0.185242
Zn7	Zn	1.076255	-0.599316	-0.446885
Zn8	Zn	1.576255	-0.099316	0.053115
O9	O	1.142337	-0.510738	-0.380828
O10	O	1.642337	-0.010738	0.119172
O11	O	1.319047	-0.445641	-0.429397
O12	O	1.819047	0.054359	0.070603
O13	O	1.190831	-0.575929	-0.204137
O14	O	1.690831	-0.075929	0.295863
O15	O	1.093834	-0.273786	-0.332309
O16	O	1.593834	0.226214	0.167691
O17	O	1.318998	-0.575897	-0.332290
O18	O	1.818998	-0.075897	0.167710
O19	O	1.190944	-0.273761	-0.429408
O20	O	1.690944	0.226239	0.070592
O21	O	1.093770	-0.445698	-0.204145
O22	O	1.593770	0.054302	0.295855
O23	O	0.965655	-0.445621	-0.332275
O24	O	1.465655	0.054379	0.167725
O25	O	1.093813	-0.575761	-0.557501
O26	O	1.593813	-0.075761	-0.057501
O27	O	0.965646	-0.575794	-0.429348
O28	O	1.465646	-0.075794	0.070652
O29	O	1.190932	-0.445564	-0.557527
O30	O	1.690932	0.054436	-0.057527
O31	O	1.190819	-0.747733	-0.332256
O32	O	1.690819	-0.247733	0.167744
O33	O	1.093749	-0.747674	-0.429337
O34	O	1.593749	-0.247674	0.070663
C35	C	0.936970	-0.510703	-0.380809
C36	C	1.436970	-0.010703	0.119191
C37	C	0.849114	-0.510714	-0.380820
C38	C	1.349114	-0.010714	0.119180
C39	C	1.142297	-0.786168	-0.380809
C40	C	1.642297	-0.286168	0.119191
C41	C	1.142352	-0.903998	-0.380827
C42	C	1.642352	-0.403998	0.119173
C43	C	0.477618	-0.442902	-0.330387
C44	C	0.977618	0.057098	0.169613
C45	C	0.477658	-0.578662	-0.431313
C46	C	0.977658	-0.078662	0.068687
C47	C	0.560204	-0.578647	-0.431308
C48	C	1.060204	-0.078647	0.068692
C49	C	0.601461	-0.510759	-0.380841
C50	C	1.101461	-0.010759	0.119159
C51	C	0.560172	-0.442887	-0.330379
C52	C	1.060172	0.057113	0.169621
C53	C	0.601499	-0.646525	-0.481764
C54	C	1.101499	-0.146525	0.018236
C55	C	0.684050	-0.646514	-0.481761
C56	C	1.184050	-0.146514	0.018239
C57	C	0.725308	-0.578620	-0.431297
C58	C	1.225308	-0.078620	0.068703
C59	C	0.684014	-0.510744	-0.380833
C60	C	1.184014	-0.010744	0.119167
C61	C	0.725271	-0.442857	-0.330366
C62	C	1.225271	0.057143	0.169634
C63	C	0.683979	-0.374975	-0.279906
C64	C	1.183979	0.125025	0.220094
C65	C	0.601430	-0.374993	-0.279915
C66	C	1.101430	0.125007	0.220085
C67	C	0.807857	-0.578602	-0.431288
C68	C	1.307857	-0.078602	0.068712
C69	C	0.807825	-0.442842	-0.330358
C70	C	1.307825	0.057158	0.169642
C71	C	1.203321	-1.071555	-0.319629
C72	C	1.703321	-0.571555	0.180371
C73	C	1.203520	-0.948994	-0.319779
C74	C	1.703520	-0.448994	0.180221
C75	C	1.164938	-0.948379	-0.464146
C76	C	1.664938	-0.448379	0.035854
C77	C	1.165422	-1.070977	-0.463821
C78	C	1.665422	-0.570977	0.036179
C79	C	1.058773	-1.071320	-0.359528
C80	C	1.558773	-0.571320	0.140472
C81	C	1.059174	-0.948716	-0.357659
C82	C	1.559174	-0.448716	0.142341
C83	C	1.348505	-0.510774	-0.380846
C84	C	1.848505	-0.010774	0.119154
C85	C	1.436361	-0.510790	-0.380854
C86	C	1.936361	-0.010790	0.119146
C87	C	1.142379	-0.510650	-0.586996
C88	C	1.642379	-0.010650	-0.086996
C89	C	1.142397	-0.510613	-0.674852
C90	C	1.642397	-0.010613	-0.174852
C91	C	1.142398	-0.234233	-0.380864
C92	C	1.642398	0.265767	0.119136
C93	C	1.142424	-0.116403	-0.380879
C94	C	1.642424	0.383597	0.119121
C95	C	1.091931	-0.442696	-1.046339
C96	C	1.591931	0.057304	-0.546339
C97	C	1.193002	-0.578306	-1.046318
C98	C	1.693002	-0.078306	-0.546318
C99	C	1.192988	-0.578331	-0.963772
C100	C	1.692988	-0.078331	-0.463772
C101	C	1.142444	-0.510538	-0.922506
C102	C	1.642444	-0.010538	-0.422506
C103	C	1.091914	-0.442721	-0.963785
C104	C	1.591914	0.057279	-0.463785
C105	C	1.243512	-0.646155	-0.922486
C106	C	1.743512	-0.146155	-0.422486
C107	C	1.243500	-0.646183	-0.839935
C108	C	1.743500	-0.146183	-0.339935
C109	C	1.192959	-0.578384	-0.798667
C110	C	1.692959	-0.078384	-0.298667
C111	C	1.142428	-0.510563	-0.839952
C112	C	1.642428	-0.010563	-0.339952
C113	C	1.091884	-0.442770	-0.798686
C114	C	1.591884	0.057230	-0.298686
C115	C	1.041355	-0.374943	-0.839969
C116	C	1.541355	0.125057	-0.339969
C117	C	1.041374	-0.374921	-0.922517
C118	C	1.541374	0.125079	-0.422517
C119	C	1.192941	-0.578406	-0.716119
C120	C	1.692941	-0.078406	-0.216119
C121	C	1.091867	-0.442795	-0.716132
C122	C	1.591867	0.057205	-0.216132
C123	C	1.142340	-0.510750	-0.175461
C124	C	1.642340	-0.010750	0.324539
C125	C	1.142475	-0.510489	-0.087605
C126	C	1.642475	-0.010489	0.412395
H127	H	0.841410	-0.387552	-0.289266
H128	H	1.341410	0.112448	0.210734
H129	H	0.443994	-0.387631	-0.289305
H130	H	0.943994	0.112369	0.210695
H131	H	0.717581	-0.319705	-0.238812
H132	H	1.217581	0.180295	0.261188
H133	H	1.189367	-1.101108	-0.257669
H134	H	1.689367	-0.601108	0.242331
H135	H	1.284642	-0.701414	-0.806329
H136	H	1.784642	-0.201414	-0.306329
H137	H	0.841473	-0.633873	-0.472369
H138	H	1.341473	-0.133873	0.027631
H139	H	0.567803	-0.319729	-0.238832
H140	H	1.067803	0.180271	0.261168
H141	H	0.444062	-0.633939	-0.472397
H142	H	0.944062	-0.133939	0.027603
H143	H	1.013400	-1.100323	-0.404138
H144	H	1.513400	-0.600323	0.095862
H145	H	1.050711	-0.387584	-0.682539
H146	H	1.550711	0.112416	-0.182539
H147	H	1.011354	-0.918097	-0.398999
H148	H	1.511354	-0.418097	0.101001
H149	H	1.189389	-0.918992	-0.257999
H150	H	1.689389	-0.418992	0.242001
Br151	Br	0.972762	-0.282942	-0.783955
Br152	Br	1.472762	0.217058	-0.283955
H153	H	1.284653	-0.701360	-0.956091
H154	H	1.784653	-0.201360	-0.456091
Br155	Br	1.306036	-1.122775	-0.342900
Br156	Br	1.806036	-0.622775	0.157100
Br157	Br	1.261500	-0.670460	-0.660094
Br158	Br	1.761500	-0.170460	-0.160094
Br159	Br	0.972805	-0.282881	-0.978549
Br160	Br	1.472805	0.217119	-0.478549
H161	H	1.050794	-0.387469	-1.079955
H162	H	1.550794	0.112531	-0.579955
H163	H	0.717663	-0.701787	-0.522849
H164	H	1.217663	-0.201787	-0.022849
H165	H	0.567901	-0.701803	-0.522846
H166	H	1.067901	-0.201803	-0.022846
Br167	Br	1.030782	-0.900383	-0.255464
Br168	Br	1.530782	-0.400383	0.244536
H169	H	1.265477	-0.919590	-0.333901
H170	H	1.765477	-0.419590	0.166099
Br171	Br	1.267333	-1.118513	-0.493965
Br172	Br	1.767333	-0.618513	0.006035
H173	H	1.123010	-1.100640	-0.511029
H174	H	1.623010	-0.600640	-0.011029
H175	H	1.121934	-0.919229	-0.511004
H176	H	1.621934	-0.419229	-0.011004
Br177	Br	1.261584	-0.670319	-1.102322
Br178	Br	1.761584	-0.170319	-0.602322
H179	H	1.225392	-0.917595	-0.482534
H180	H	1.725392	-0.417595	0.017466
H181	H	1.038234	-1.102330	-0.299830
H182	H	1.538234	-0.602330	0.200170
