data_functionalizedCrystal
_audit_creation_method	'MofGen! by Chris Wilmer'
_symmetry_space_group_name_H-M	'P1'
_symmetry_Int_Tables_number	1
_symmetry_cell_setting	triclinic
loop_
_symmetry_equiv_pos_as_xyz
  x,y,z
_cell_length_a	10.540539
_cell_length_b	10.654541
_cell_length_c	9.730217
_cell_angle_alpha	89.997631
_cell_angle_beta	90.002970
_cell_angle_gamma	95.495290
loop_
_atom_site_label
_atom_site_type_symbol
_atom_site_fract_x
_atom_site_fract_y
_atom_site_fract_z
O1	O	0.178287	-1.667905	0.114241
O2	O	0.195277	-1.302432	0.114252
O3	O	0.002073	-1.493507	0.114244
O4	O	0.371492	-1.476831	0.114248
O5	O	0.002065	-1.493493	-0.114336
O6	O	0.195270	-1.302418	-0.114328
O7	O	0.178279	-1.667891	-0.114339
Zn8	Zn	0.186773	-1.485153	-0.150626
Zn9	Zn	0.186783	-1.485171	0.150538
O10	O	0.371484	-1.476817	-0.114332
C11	C	0.194027	-1.255627	-0.000036
C12	C	0.190296	-1.116182	-0.000032
C13	C	-0.045234	-1.492249	-0.000043
C14	C	-0.186180	-1.488508	-0.000036
C15	C	0.179530	-1.714697	-0.000048
C16	C	0.183260	-1.854142	-0.000043
C17	C	-0.369554	-1.345136	0.000482
C18	C	-0.222938	-1.348929	-0.000033
C19	C	-0.247867	-1.555671	-0.130568
C20	C	-0.394410	-1.550908	-0.130678
C21	C	-0.394921	-1.553762	0.129260
C22	C	-0.247939	-1.555048	0.130986
C23	C	0.418790	-1.478074	-0.000041
C24	C	0.559737	-1.481816	-0.000040
N25	N	0.186765	-1.485150	-0.356162
C26	C	0.421325	-1.088292	-0.000012
C27	C	0.535081	-1.008838	0.000003
C28	C	0.531569	-0.877819	0.000004
C29	C	0.414286	-0.826252	-0.000014
C30	C	0.300530	-0.905707	-0.000029
C31	C	0.304055	-1.036727	-0.000026
C32	C	0.069504	-0.933596	-0.000059
C33	C	0.073014	-1.064615	-0.000050
C34	C	-0.047778	-0.882029	-0.000077
C35	C	-0.161538	-0.961484	-0.000082
C36	C	-0.158020	-1.092511	-0.000082
C37	C	-0.040742	-1.144070	-0.000065
C38	C	0.031333	-1.331450	-0.356215
C39	C	-0.046386	-1.254614	-0.428181
C40	C	-0.046386	-1.254633	-0.572061
C41	C	0.031344	-1.331493	-0.643978
C42	C	0.109063	-1.408329	-0.572012
C43	C	0.109051	-1.408305	-0.428129
C44	C	0.264500	-1.562020	-0.571959
C45	C	0.264495	-1.562010	-0.428079
C46	C	0.342230	-1.638880	-0.643876
C47	C	0.419944	-1.715725	-0.571909
C48	C	0.419940	-1.715704	-0.428021
C49	C	0.342214	-1.638846	-0.356113
N50	N	0.186781	-1.485184	0.356075
H51	H	-0.180312	-1.296081	0.093538
F52	F	-0.279098	-1.177063	-0.000108
F53	F	0.425073	-1.227734	0.000009
F54	F	-0.409443	-1.273165	-0.120846
H55	H	-0.207059	-1.505905	0.227550
F56	F	0.031313	-1.331438	-0.203085
F57	F	0.342237	-1.638889	-0.797006
F58	F	0.652640	-0.793255	0.000009
H59	H	-0.109665	-1.192060	-0.630656
F60	F	-0.218701	-1.689650	-0.136921
F61	F	0.342198	-1.638822	-0.202983
F62	F	-0.129103	-1.172813	-0.351633
F63	F	-0.168332	-1.279349	-0.122534
F64	F	-0.192173	-1.494676	-0.257533
H65	H	0.031348	-1.331490	-0.761132
F66	F	0.410554	-0.686809	-0.000033
F67	F	0.502670	-1.797506	-0.648455
F68	F	0.659896	-1.063728	0.000023
F69	F	-0.406902	-1.273071	0.122835
F70	F	-0.431253	-1.486009	-0.258209
H71	H	-0.050630	-0.775346	-0.000083
H72	H	-0.037867	-1.250751	-0.000049
F73	F	0.502665	-1.797481	-0.351440
H74	H	-0.442416	-1.651290	-0.136603
H75	H	-0.223755	-1.656812	0.138865
F76	F	-0.436122	-1.494715	0.258577
F77	F	-0.456698	-1.685536	0.130407
H78	H	-0.257019	-0.919487	-0.000096
