data_functionalizedCrystal
_audit_creation_method	'MofGen! by Chris Wilmer'
_symmetry_space_group_name_H-M	'P1'
_symmetry_Int_Tables_number	1
_symmetry_cell_setting	triclinic
loop_
_symmetry_equiv_pos_as_xyz
  x,y,z
_cell_length_a	34.408637
_cell_length_b	34.407814
_cell_length_c	34.404193
_cell_angle_alpha	60.004510
_cell_angle_beta	60.009006
_cell_angle_gamma	59.994604
loop_
_atom_site_label
_atom_site_type_symbol
_atom_site_fract_x
_atom_site_fract_y
_atom_site_fract_z
O1	O	0.053973	-0.567860	0.474801
O2	O	0.553973	-0.067860	0.974801
O3	O	0.020377	-0.442124	0.382567
O4	O	0.520377	0.057876	0.882567
O5	O	0.100004	-0.521670	0.382483
O6	O	0.600004	-0.021670	0.882483
O7	O	-0.025653	-0.488314	0.474886
O8	O	0.474347	0.011686	0.974886
O9	O	0.126426	-0.495253	0.408816
O10	O	0.626426	0.004747	0.908816
O11	O	0.046800	-0.415707	0.408900
O12	O	0.546800	0.084293	0.908900
O13	O	0.080396	-0.541443	0.501134
O14	O	0.580396	-0.041443	1.001134
Zn15	Zn	0.067793	-0.474381	0.459198
Zn16	Zn	0.567793	0.025619	0.959198
Zn17	Zn	0.032980	-0.509186	0.424503
Zn18	Zn	0.532980	-0.009186	0.924503
O19	O	0.000769	-0.461897	0.501219
O20	O	0.500769	0.038103	1.001219
N21	N	0.091552	-0.450631	0.482879
N22	N	0.591552	0.049369	0.982879
N23	N	0.009225	-0.532940	0.400823
N24	N	0.509225	-0.032940	0.900823
C25	C	0.142848	-0.268847	0.534081
C26	C	0.642848	0.231153	1.034081
C27	C	0.142979	-0.399386	0.664559
C28	C	0.642979	0.100614	1.164559
C29	C	0.142862	-0.399365	0.534081
C30	C	0.642862	0.100635	1.034081
C31	C	0.273409	-0.399338	0.533986
C32	C	0.773409	0.100662	1.033986
C33	C	0.157225	-0.311914	0.548422
C34	C	0.657225	0.188086	1.048422
C35	C	0.157300	-0.385019	0.621491
C36	C	0.657300	0.114981	1.121491
C37	C	0.230339	-0.384991	0.548370
C38	C	0.730339	0.115009	1.048370
C39	C	0.157235	-0.385007	0.548422
C40	C	0.657235	0.114993	1.048422
C41	C	0.124548	-0.214028	0.515827
C42	C	0.624548	0.285972	1.015827
C43	C	0.124571	-0.417639	0.515827
C44	C	0.624571	0.082361	1.015827
C45	C	0.175526	-0.366733	0.566676
C46	C	0.675526	0.133267	1.066676
C47	C	0.353121	-0.385580	0.491988
C48	C	0.853121	0.114420	0.991988
C49	C	0.402952	-0.402180	0.475348
C50	C	0.902952	0.097820	0.975348
C51	C	0.402981	-0.482812	0.506096
C52	C	0.902981	0.017188	1.006096
C53	C	0.353151	-0.466211	0.522737
C54	C	0.853151	0.033789	1.022737
C55	C	0.136544	-0.189099	0.466839
C56	C	0.636544	0.310901	0.966839
C57	C	0.119905	-0.139265	0.450247
C58	C	0.619905	0.360735	0.950247
C59	C	0.079280	-0.139291	0.531632
C60	C	0.579280	0.360709	1.031632
C61	C	0.095918	-0.189125	0.548224
C62	C	0.595918	0.310875	1.048224
C63	C	0.075577	-0.405615	0.527900
C64	C	0.575577	0.094385	1.027900
C65	C	0.058953	-0.422228	0.511301
C66	C	0.558953	0.077772	1.011301
C67	C	0.140315	-0.462889	0.470566
C68	C	0.640315	0.037111	0.970566
C69	C	0.156941	-0.446276	0.487159
C70	C	0.656941	0.053724	0.987159
C71	C	0.075772	-0.405653	0.744326
C72	C	0.575772	0.094347	1.244326
C73	C	0.059206	-0.422280	0.794159
C74	C	0.559206	0.077720	1.294159
C75	C	0.140607	-0.462951	0.794094
C76	C	0.640607	0.037049	1.294094
C77	C	0.157172	-0.446325	0.744260
C78	C	0.657172	0.053675	1.244260
C79	C	0.124753	-0.417674	0.719377
C80	C	0.624753	0.082326	1.219377
C81	C	0.328223	-0.417595	0.515681
C82	C	0.828223	0.082405	1.015681
C83	C	-0.172390	-0.583988	0.349141
C84	C	0.327610	-0.083988	0.849141
C85	C	-0.041751	-0.584138	0.218783
C86	C	0.458249	-0.084138	0.718783
C87	C	-0.041941	-0.584130	0.349402
C88	C	0.458059	-0.084130	0.849402
C89	C	-0.041957	-0.714607	0.349338
C90	C	0.458043	-0.214607	0.849338
C91	C	-0.129326	-0.598388	0.334853
C92	C	0.370674	-0.098388	0.834853
C93	C	-0.056165	-0.598473	0.261852
C94	C	0.443835	-0.098473	0.761852
C95	C	-0.056282	-0.671535	0.334962
C96	C	0.443718	-0.171535	0.834962
C97	C	-0.056272	-0.598469	0.334999
C98	C	0.443728	-0.098469	0.834999
C99	C	-0.227205	-0.565659	0.367327
C100	C	0.272795	-0.065659	0.867327
C101	C	-0.023703	-0.565882	0.367734
C102	C	0.476297	-0.065882	0.867734
C103	C	-0.074511	-0.616717	0.316667
C104	C	0.425489	-0.116717	0.816667
C105	C	-0.055754	-0.794298	0.391257
C106	C	0.444246	-0.294298	0.891257
C107	C	-0.039181	-0.844132	0.407888
C108	C	0.460819	-0.344132	0.907888
C109	C	0.041447	-0.844215	0.377269
C110	C	0.541447	-0.344215	0.877269
C111	C	0.024873	-0.794381	0.360637
C112	C	0.524873	-0.294381	0.860637
C113	C	-0.252183	-0.577666	0.416302
C114	C	0.247817	-0.077666	0.916302
C115	C	-0.302014	-0.561001	0.432833
C116	C	0.197986	-0.061001	0.932833
C117	C	-0.301886	-0.520329	0.351410
C118	C	0.198114	-0.020329	0.851410
C119	C	-0.252055	-0.536994	0.334880
C120	C	0.247945	-0.036994	0.834880
C121	C	-0.035709	-0.516892	0.355682
C122	C	0.464291	-0.016892	0.855682
C123	C	-0.019129	-0.500308	0.372353
C124	C	0.480871	-0.000308	0.872353
C125	C	0.021465	-0.581700	0.413115
C126	C	0.521465	-0.081700	0.913115
C127	C	0.004884	-0.598286	0.396450
C128	C	0.504884	-0.098286	0.896450
C129	C	-0.035389	-0.516907	0.139026
C130	C	0.464611	-0.016907	0.639026
C131	C	-0.018707	-0.500324	0.089193
C132	C	0.481293	-0.000324	0.589193
C133	C	0.021949	-0.581721	0.089240
C134	C	0.521949	-0.081721	0.589240
C135	C	0.005268	-0.598303	0.139074
C136	C	0.505268	-0.098303	0.639074
C137	C	-0.023402	-0.565894	0.163965
C138	C	0.476598	-0.065894	0.663965
C139	C	-0.023728	-0.769425	0.367633
C140	C	0.476272	-0.269425	0.867633
N141	N	0.427173	-0.450553	0.482630
N142	N	0.927173	0.049447	0.982630
O143	O	0.589997	-0.458460	0.365361
O144	O	1.089997	0.041540	0.865361
O145	O	0.590185	-0.550997	0.490963
O146	O	1.090185	-0.050997	0.990963
O147	O	0.590104	-0.550786	0.411309
O148	O	1.090104	-0.050786	0.911309
O149	O	0.590077	-0.458671	0.445016
O150	O	1.090077	0.041329	0.945016
O151	O	0.510940	-0.524462	0.437777
O152	O	1.010940	-0.024462	0.937777
O153	O	0.511020	-0.524674	0.517432
O154	O	1.011020	-0.024674	1.017432
O155	O	0.510832	-0.432136	0.391830
O156	O	1.010832	0.067864	0.891830
Zn157	Zn	0.498357	-0.474225	0.458833
Zn158	Zn	0.998357	0.025775	0.958833
Zn159	Zn	0.602660	-0.508908	0.423960
Zn160	Zn	1.102660	-0.008908	0.923960
O161	O	0.510913	-0.432348	0.471484
O162	O	1.010913	0.067652	0.971484
N163	N	0.673844	-0.532580	0.400158
N164	N	1.173844	-0.032580	0.900158
N165	N	0.091520	-0.115070	0.482873
N166	N	0.591520	0.384930	0.982873
O167	O	-0.025663	0.047841	0.474857
O168	O	0.474337	0.547841	0.974857
O169	O	0.099940	0.047877	0.382299
O170	O	0.599940	0.547877	0.882299
O171	O	0.020247	0.047844	0.382560
O172	O	0.520247	0.547844	0.882560
O173	O	0.054030	0.047874	0.474596
O174	O	0.554030	0.547874	0.974596
O175	O	0.046674	-0.031326	0.408942
O176	O	0.546674	0.468674	0.908942
O177	O	0.126367	-0.031293	0.408680
O178	O	0.626367	0.468707	0.908680
O179	O	0.000764	-0.031329	0.501238
O180	O	0.500764	0.468671	1.001238
Zn181	Zn	0.067761	-0.043881	0.459148
Zn182	Zn	0.567761	0.456119	0.959148
Zn183	Zn	0.032943	0.060429	0.424389
Zn184	Zn	0.532943	0.560429	0.924389
O185	O	0.080457	-0.031296	0.500977
O186	O	0.580457	0.468704	1.000977
N187	N	0.009178	0.131618	0.400665
N188	N	0.509178	0.631618	0.900665
N189	N	0.091852	-0.450680	0.818332
N190	N	0.591852	0.049320	1.318332
O191	O	0.083862	-0.567845	0.981235
O192	O	0.583862	-0.067845	1.481235
O193	O	-0.008657	-0.442198	0.981276
O194	O	0.491343	0.057802	1.481276
O195	O	-0.008441	-0.521875	0.981252
O196	O	0.491559	-0.021875	1.481252
O197	O	0.083646	-0.488168	0.981258
O198	O	0.583646	0.011832	1.481258
O199	O	0.017919	-0.495468	0.902085
O200	O	0.517919	0.004532	1.402085
O201	O	0.017703	-0.415791	0.902109
O202	O	0.517703	0.084209	1.402109
O203	O	0.110222	-0.541438	0.902067
O204	O	0.610222	-0.041438	1.402067
Zn205	Zn	0.068148	-0.474422	0.889518
Zn206	Zn	0.568148	0.025578	1.389518
Zn207	Zn	0.033417	-0.509214	0.993825
Zn208	Zn	0.533417	-0.009214	1.493825
O209	O	0.110006	-0.461761	0.902091
O210	O	0.610006	0.038239	1.402091
N211	N	0.009712	-0.532961	1.065011
N212	N	0.509712	-0.032961	1.565011
C213	C	0.030439	-0.413071	0.383027
C214	C	0.530439	0.086929	0.883027
C215	C	0.129046	-0.511580	0.382922
C216	C	0.629046	-0.011580	0.882922
C217	C	0.070334	-0.570496	0.500675
C218	C	0.570334	-0.070496	1.000675
C219	C	-0.028274	-0.471987	0.500780
C220	C	0.471726	0.028013	1.000780
C221	C	0.550625	-0.550579	0.520021
C222	C	1.050625	-0.050579	1.020021
C223	C	0.550527	-0.550317	0.421379
C224	C	1.050527	-0.050317	0.921379
C225	C	0.550389	-0.432554	0.362773
C226	C	1.050389	0.067446	0.862773
C227	C	0.550491	-0.432816	0.461414
C228	C	1.050491	0.067184	0.961414
C229	C	0.128944	0.008394	0.382712
C230	C	0.628944	0.508394	0.882712
C231	C	0.030287	0.008256	0.383068
C232	C	0.530287	0.508256	0.883068
C233	C	-0.028273	0.008252	0.500793
C234	C	0.471727	0.508252	1.000793
C235	C	0.070417	0.008292	0.500470
C236	C	0.570417	0.508292	1.000470
C237	C	-0.008218	-0.413165	0.941698
C238	C	0.491782	0.086835	1.441698
C239	C	-0.007945	-0.511830	0.941653
C240	C	0.492055	-0.011830	1.441653
C241	C	0.109783	-0.570471	0.941646
C242	C	0.609783	-0.070471	1.441646
C243	C	0.109516	-0.471800	0.941673
C244	C	0.609516	0.028200	1.441673
H245	H	0.019320	-0.412483	0.814467
H246	H	0.519320	0.087517	1.314467
H247	H	0.019058	-0.412426	0.521121
H248	H	0.519058	0.087574	1.021121
C249	C	-0.047458	-0.364417	0.941707
C250	C	0.452542	0.135583	1.441707
H251	H	-0.075090	-0.364371	0.941703
H252	H	0.424910	0.135629	1.441703
H253	H	-0.054943	-0.358606	0.969316
H254	H	0.445057	0.141394	1.469316
H255	H	-0.036550	-0.340198	0.914097
H256	H	0.463450	0.159802	1.414097
H257	H	0.197059	-0.456117	0.723950
H258	H	0.697059	0.043883	1.223950
H259	H	0.550540	-0.579254	0.414165
H260	H	1.050540	-0.079254	0.914165
C261	C	-0.047014	-0.521551	0.941606
C262	C	0.452986	-0.021551	1.441606
H263	H	-0.074719	-0.494032	0.941609
H264	H	0.425281	0.005968	1.441609
H265	H	-0.036006	-0.529096	0.913985
H266	H	0.463994	-0.029096	1.413985
H267	H	-0.054424	-0.547521	0.969203
H268	H	0.445576	-0.047521	1.469203
C269	C	-0.077027	-0.462393	0.539979
C270	C	0.422973	0.037607	1.039979
H271	H	-0.077100	-0.489954	0.567638
H272	H	0.422900	0.010046	1.067638
H273	H	-0.082819	-0.436442	0.547426
H274	H	0.417181	0.063558	1.047426
H275	H	-0.101243	-0.454870	0.529057
H276	H	0.398757	0.045130	1.029057
C277	C	0.177799	-0.521179	0.343722
C278	C	0.677799	-0.021179	0.843722
H279	H	0.197778	-0.552685	0.355263
H280	H	0.697778	-0.052685	0.855263
H281	H	0.173636	-0.517599	0.316679
H282	H	0.673636	-0.017599	0.816679
H283	H	0.192066	-0.499176	0.335047
H284	H	0.692066	0.000824	0.835047
H285	H	0.550329	-0.403500	0.326702
H286	H	1.050329	0.096500	0.826702
H287	H	0.164941	0.008624	0.353583
H288	H	0.664941	0.508624	0.853583
H289	H	0.550674	-0.579628	0.556096
H290	H	1.050674	-0.079628	1.056096
C291	C	0.550476	-0.393723	0.471155
C292	C	1.050476	0.106277	0.971155
H293	H	0.550513	-0.405360	0.502667
H294	H	1.050513	0.094640	1.002667
H295	H	0.578057	-0.385026	0.449175
H296	H	1.078057	0.114974	0.949175
H297	H	0.522841	-0.366668	0.467639
H298	H	1.022841	0.133332	0.967639
C299	C	0.080026	-0.619290	0.539809
C300	C	0.580026	-0.119290	1.039809
H301	H	0.111538	-0.639223	0.528212
H302	H	0.611538	-0.139223	1.028212
H303	H	0.076476	-0.615169	0.566864
H304	H	0.576476	-0.115169	1.066864
H305	H	0.058047	-0.633585	0.548487
H306	H	0.558047	-0.133585	1.048487
C307	C	0.020518	0.008242	0.344006
C308	C	0.520518	0.508242	0.844006
H309	H	-0.011001	0.008227	0.355657
H310	H	0.488999	0.508227	0.855657
H311	H	0.024046	0.035850	0.316931
H312	H	0.524046	0.535850	0.816931
H313	H	0.042478	-0.019370	0.335338
H314	H	0.542478	0.480630	0.835338
C315	C	0.149025	-0.619217	0.941627
C316	C	0.649025	-0.119217	1.441627
H317	H	0.137528	-0.639219	0.941624
H318	H	0.637528	-0.139219	1.441624
H319	H	0.176068	-0.615044	0.914018
H320	H	0.676068	-0.115044	1.414018
H321	H	0.157682	-0.633465	0.969236
H322	H	0.657682	-0.133465	1.469236
H323	H	-0.064344	0.008241	0.529850
H324	H	0.435656	0.508241	1.029850
H325	H	0.138447	-0.464586	0.941669
H326	H	0.638447	0.035414	1.441669
C327	C	0.040109	-0.374138	0.716959
C328	C	0.540109	0.125862	1.216959
H329	H	0.008565	-0.369363	0.738956
H330	H	0.508565	0.130637	1.238956
H331	H	0.044877	-0.344264	0.697520
H332	H	0.544877	0.155736	1.197520
H333	H	0.044881	-0.389353	0.697523
H334	H	0.544881	0.110647	1.197523
C335	C	0.176267	-0.494432	0.821464
C336	C	0.676267	0.005568	1.321464
H337	H	0.207812	-0.499204	0.799468
H338	H	0.707812	0.000796	1.299468
H339	H	0.171478	-0.479200	0.840892
H340	H	0.671478	0.020800	1.340892
H341	H	0.171516	-0.524315	0.840911
H342	H	0.671516	-0.024315	1.340911
C343	C	0.080186	0.008301	0.539535
C344	C	0.580186	0.508301	1.039535
H345	H	0.052683	0.008298	0.567247
H346	H	0.552683	0.508298	1.067247
H347	H	0.106164	-0.019300	0.546929
H348	H	0.606164	0.480700	1.046929
H349	H	0.087729	0.035920	0.528528
H350	H	0.587729	0.535920	1.028528
C351	C	0.039972	-0.374112	0.559428
C352	C	0.539972	0.125888	1.059428
H353	H	0.056890	-0.365943	0.567588
H354	H	0.556890	0.134057	1.067588
H355	H	0.020512	-0.345934	0.542539
H356	H	0.520512	0.154066	1.042539
H357	H	0.020553	-0.391029	0.587615
H358	H	0.520553	0.108971	1.087615
C359	C	0.175925	-0.494391	0.439034
C360	C	0.675925	0.005609	0.939034
H361	H	0.207485	-0.499170	0.434221
H362	H	0.707485	0.000830	0.934221
H363	H	0.171153	-0.524264	0.454247
H364	H	0.671153	-0.024264	0.954247
H365	H	0.171109	-0.479166	0.409175
H366	H	0.671109	0.020834	0.909175
H367	H	0.196836	-0.456064	0.477324
H368	H	0.696836	0.043936	0.977324
H369	H	0.423275	-0.522397	0.511838
H370	H	0.923275	-0.022397	1.011838
C371	C	0.325766	-0.501430	0.548796
C372	C	0.825766	-0.001430	1.048796
H373	H	0.347753	-0.532759	0.550608
H374	H	0.847753	-0.032759	1.050608
H375	H	0.306348	-0.500168	0.580020
H376	H	0.806348	-0.000168	1.080020
H377	H	0.306309	-0.493094	0.531829
H378	H	0.806309	0.006906	1.031829
H379	H	0.332825	-0.345993	0.486242
H380	H	0.832825	0.154007	0.986242
C381	C	0.430345	-0.366965	0.449282
C382	C	0.930345	0.133035	0.949282
H383	H	0.463592	-0.383817	0.440385
H384	H	0.963592	0.116183	0.940385
H385	H	0.422151	-0.344146	0.421600
H386	H	0.922151	0.155854	0.921600
H387	H	0.422196	-0.351214	0.469786
H388	H	0.922196	0.148786	0.969786
C389	C	0.168032	-0.216489	0.431201
C390	C	0.668032	0.283511	0.931201
H391	H	0.172787	-0.194504	0.399649
H392	H	0.672787	0.305496	0.899649
H393	H	0.197914	-0.235923	0.435963
H394	H	0.697914	0.264077	0.935963
H395	H	0.152816	-0.235934	0.436003
H396	H	0.652816	0.264066	0.936003
H397	H	0.023260	-0.376951	0.354059
H398	H	0.523260	0.123049	0.854059
H399	H	0.055974	-0.119015	0.558014
H400	H	0.555974	0.380985	1.058014
C401	C	0.133097	-0.111840	0.396360
C402	C	0.633097	0.388160	0.896360
H403	H	0.119084	-0.078594	0.391118
H404	H	0.619084	0.421406	0.891118
H405	H	0.166716	-0.119993	0.382342
H406	H	0.666716	0.380007	0.882342
H407	H	0.121620	-0.120008	0.382378
H408	H	0.621620	0.379992	0.882378
C409	C	0.082723	-0.216545	0.602110
C410	C	0.582723	0.283455	1.102110
H411	H	0.096728	-0.249792	0.607353
H412	H	0.596728	0.250208	1.107353
H413	H	0.094194	-0.208377	0.616096
H414	H	0.594194	0.291623	1.116096
H415	H	0.049102	-0.208389	0.616123
H416	H	0.549102	0.291611	1.116123
C417	C	-0.031905	-0.446437	0.061765
C418	C	0.468095	0.053563	0.561765
H419	H	-0.051373	-0.429514	0.083729
H420	H	0.448627	0.070486	0.583729
H421	H	-0.003716	-0.438294	0.042369
H422	H	0.496284	0.061706	0.542369
H423	H	-0.048775	-0.438256	0.042281
H424	H	0.451225	0.061744	0.542281
H425	H	0.045284	-0.608113	0.068976
H426	H	0.545284	-0.108113	0.568976
C427	C	-0.066925	-0.481255	0.166402
C428	C	0.433075	0.018745	0.666402
H429	H	-0.071672	-0.449705	0.144410
H430	H	0.428328	0.050295	0.644410
H431	H	-0.096808	-0.486007	0.185796
H432	H	0.403192	0.013993	0.685796
H433	H	-0.051743	-0.486055	0.185883
H434	H	0.448257	0.013945	0.685883
H435	H	0.015032	-0.638195	0.159378
H436	H	0.515032	-0.138195	0.659378
H437	H	-0.028907	-0.460416	0.362542
H438	H	0.471093	0.039584	0.862542
C439	C	-0.067169	-0.481249	0.324112
C440	C	0.432831	0.018751	0.824112
H441	H	-0.075324	-0.498143	0.315911
H442	H	0.424676	0.001857	0.815911
H443	H	-0.095353	-0.461792	0.340995
H444	H	0.404647	0.038208	0.840995
H445	H	-0.050235	-0.461827	0.295950
H446	H	0.449765	0.038173	0.795950
C447	C	0.052913	-0.617348	0.444699
C448	C	0.552913	-0.117348	0.944699
H449	H	0.057687	-0.648899	0.449489
H450	H	0.557687	-0.148899	0.949489
H451	H	0.082789	-0.612594	0.429535
H452	H	0.582789	-0.112594	0.929535
H453	H	0.037657	-0.612544	0.474566
H454	H	0.537657	-0.112544	0.974566
H455	H	0.050956	-0.774133	0.341399
H456	H	0.550956	-0.274133	0.841399
C457	C	0.018090	-0.652175	0.409702
C458	C	0.518090	-0.152175	0.909702
H459	H	0.004118	-0.657412	0.395665
H460	H	0.504118	-0.157412	0.895665
H461	H	0.051711	-0.666204	0.398295
H462	H	0.551711	-0.166204	0.898295
H463	H	0.006578	-0.666151	0.443325
H464	H	0.506578	-0.166151	0.943325
C465	C	0.094907	-0.871666	0.369573
C466	C	0.594907	-0.371666	0.869573
H467	H	0.111609	-0.849715	0.353118
H468	H	0.611609	-0.349715	0.853118
H469	H	0.099486	-0.891105	0.399535
H470	H	0.599486	-0.391105	0.899535
H471	H	0.106611	-0.891110	0.351310
H472	H	0.606611	-0.391110	0.851310
H473	H	-0.065262	-0.864385	0.427124
H474	H	0.434738	-0.364385	0.927124
H475	H	-0.095331	-0.773979	0.396956
H476	H	0.404669	-0.273979	0.896956
H477	H	-0.322352	-0.570775	0.472713
H478	H	0.177648	-0.070775	0.972713
C479	C	-0.224852	-0.609194	0.451995
C480	C	0.275148	-0.109194	0.951995
H481	H	-0.246866	-0.613951	0.483531
H482	H	0.253134	-0.113951	0.983531
H483	H	-0.205420	-0.639075	0.447231
H484	H	0.294580	-0.139075	0.947231
H485	H	-0.205412	-0.594001	0.447246
H486	H	0.294588	-0.094001	0.947246
H487	H	-0.322118	-0.496994	0.324987
H488	H	0.177882	0.003006	0.824987
C489	C	-0.224582	-0.523787	0.281007
C490	C	0.275418	-0.023787	0.781007
H491	H	-0.246521	-0.504330	0.264052
H492	H	0.253479	-0.004330	0.764052
H493	H	-0.205136	-0.506909	0.272877
H494	H	0.294864	-0.006909	0.772877
H495	H	-0.205146	-0.551978	0.272854
H496	H	0.294854	-0.051978	0.772854
