data_functionalizedCrystal
_audit_creation_method	'MofGen! by Chris Wilmer'
_symmetry_space_group_name_H-M	'P1'
_symmetry_Int_Tables_number	1
_symmetry_cell_setting	triclinic
loop_
_symmetry_equiv_pos_as_xyz
  x,y,z
_cell_length_a	12.827893
_cell_length_b	16.625546
_cell_length_c	12.827885
_cell_angle_alpha	90.035124
_cell_angle_beta	90.019272
_cell_angle_gamma	90.022439
loop_
_atom_site_label
_atom_site_type_symbol
_atom_site_fract_x
_atom_site_fract_y
_atom_site_fract_z
Zn1	Zn	1.597618	-0.320963	0.590810
Zn2	Zn	1.930952	0.012370	0.924143
Zn3	Zn	2.264285	0.345703	1.257477
Zn4	Zn	1.597491	-0.455817	0.416054
Zn5	Zn	1.930824	-0.122484	0.749387
Zn6	Zn	2.264157	0.210849	1.082721
Zn7	Zn	1.422860	-0.321002	0.416084
Zn8	Zn	1.756193	0.012331	0.749417
Zn9	Zn	2.089526	0.345664	1.082750
Zn10	Zn	1.422823	-0.455757	0.590754
Zn11	Zn	1.756157	-0.122424	0.924087
Zn12	Zn	2.089490	0.210909	1.257421
O13	O	1.510198	-0.388385	0.503425
O14	O	1.843531	-0.055052	0.836759
O15	O	2.176865	0.278282	1.170092
O16	O	1.743837	-0.338861	0.567639
O17	O	2.077171	-0.005527	0.900973
O18	O	2.410504	0.327806	1.234306
O19	O	1.574287	-0.437976	0.269822
O20	O	1.907621	-0.104642	0.603155
O21	O	2.240954	0.228691	0.936488
O22	O	1.446110	-0.208165	0.439297
O23	O	1.779444	0.125168	0.772631
O24	O	2.112777	0.458502	1.105964
O25	O	1.743744	-0.437937	0.439247
O26	O	2.077077	-0.104604	0.772580
O27	O	2.410410	0.228729	1.105913
O28	O	1.574505	-0.208136	0.567668
O29	O	1.907838	0.125197	0.901001
O30	O	2.241171	0.458531	1.234335
O31	O	1.445987	-0.338928	0.269843
O32	O	1.779320	-0.005594	0.603177
O33	O	2.112653	0.327739	0.936510
O34	O	1.276619	-0.338869	0.439243
O35	O	1.609952	-0.005536	0.772576
O36	O	1.943285	0.327797	1.105910
O37	O	1.446048	-0.437835	0.736997
O38	O	1.779382	-0.104502	1.070331
O39	O	2.112715	0.228831	1.403664
O40	O	1.276592	-0.437873	0.567572
O41	O	1.609925	-0.104540	0.900906
O42	O	1.943259	0.228793	1.234239
O43	O	1.574469	-0.338802	0.737039
O44	O	1.907803	-0.005469	1.070372
O45	O	2.241136	0.327864	1.403705
O46	O	1.574252	-0.568642	0.439192
O47	O	1.907586	-0.235309	0.772526
O48	O	2.240919	0.098025	1.105859
O49	O	1.445925	-0.568598	0.567544
O50	O	1.779258	-0.235265	0.900877
O51	O	2.112591	0.098069	1.234210
C52	C	1.238688	-0.388370	0.503405
C53	C	1.572021	-0.055036	0.836739
C54	C	1.905355	0.278297	1.170072
C55	C	1.122535	-0.388382	0.503422
C56	C	1.455868	-0.055049	0.836755
C57	C	1.789202	0.278284	1.170088
C58	C	1.510099	-0.597876	0.503382
C59	C	1.843432	-0.264543	0.836715
C60	C	2.176766	0.068791	1.170048
C61	C	1.510152	-0.687497	0.503398
C62	C	1.843486	-0.354164	0.836731
C63	C	2.176819	-0.020830	1.170064
C64	C	1.070765	-0.437449	0.566825
C65	C	1.404098	-0.104116	0.900159
C66	C	1.737431	0.229217	1.233492
C67	C	0.950714	-0.437464	0.566844
C68	C	1.284048	-0.104130	0.900177
C69	C	1.617381	0.229203	1.233510
C70	C	1.510335	-1.015673	0.503507
C71	C	1.843668	-0.682339	0.836840
C72	C	2.177001	-0.349006	1.170173
C73	C	1.510281	-0.924364	0.503479
C74	C	1.843614	-0.591031	0.836813
C75	C	2.176947	-0.257698	1.170146
C76	C	1.510243	-0.851588	0.503452
C77	C	1.843576	-0.518254	0.836785
C78	C	2.176909	-0.184921	1.170118
C79	C	1.510190	-0.760274	0.503425
C80	C	1.843524	-0.426940	0.836759
C81	C	2.176857	-0.093607	1.170092
C82	C	1.782768	-0.388401	0.503446
C83	C	2.116101	-0.055068	0.836779
C84	C	2.449435	0.278265	1.170113
C85	C	1.898921	-0.388408	0.503455
C86	C	2.232255	-0.055075	0.836788
C87	C	2.565588	0.278258	1.170121
C88	C	1.510269	-0.388308	0.775996
C89	C	1.843602	-0.054974	1.109329
C90	C	2.176936	0.278359	1.442662
C91	C	1.510299	-0.388275	0.892149
C92	C	1.843633	-0.054941	1.225482
C93	C	2.176966	0.278392	1.558816
C94	C	1.510326	-0.178076	0.503492
C95	C	1.843659	0.155257	0.836825
C96	C	2.176992	0.488590	1.170159
C97	C	1.510380	-0.088455	0.503521
C98	C	1.843713	0.244878	0.836854
C99	C	2.177047	0.578212	1.170187
C100	C	1.510187	-0.388404	0.231915
C101	C	1.843521	-0.055071	0.565249
C102	C	2.176854	0.278263	0.898582
C103	C	1.510359	-0.388210	0.115763
C104	C	1.843693	-0.054877	0.449096
C105	C	2.177026	0.278457	0.782429
C106	C	1.573853	-0.339261	0.943954
C107	C	1.907186	-0.005927	1.277287
C108	C	2.240520	0.327406	1.610621
C109	C	1.573886	-0.339225	1.064004
C110	C	1.907219	-0.005892	1.397338
C111	C	2.240553	0.327441	1.730671
H112	H	0.906193	-0.479474	0.621123
H113	H	1.239526	-0.146140	0.954456
H114	H	1.572860	0.187193	1.287789
H115	H	1.628236	-0.297321	0.899429
H116	H	1.961569	0.036012	1.232763
H117	H	2.294902	0.369346	1.566096
O118	O	1.129784	-0.493069	0.638722
O119	O	1.463117	-0.159736	0.972055
O120	O	1.796451	0.173597	1.305389
H121	H	1.108877	-0.556357	0.620692
H122	H	1.442210	-0.223024	0.954025
H123	H	1.775543	0.110310	1.287359
H124	H	1.628300	-0.297265	1.108555
H125	H	1.961633	0.036068	1.441889
H126	H	2.294967	0.369401	1.775222
O127	O	0.957868	-0.332758	0.431535
O128	O	1.291202	0.000575	0.764869
O129	O	1.624535	0.333909	1.098202
H130	H	1.007627	-0.291799	0.478435
H131	H	1.340961	0.041534	0.811768
H132	H	1.674294	0.374867	1.145101
O133	O	1.063516	-0.332757	0.431532
O134	O	1.396849	0.000576	0.764865
O135	O	1.730182	0.333910	1.098199
H136	H	1.084418	-0.269471	0.449579
H137	H	1.417751	0.063863	0.782912
H138	H	1.751084	0.397196	1.116245
O139	O	1.438261	-0.443795	1.056779
O140	O	1.771594	-0.110462	1.390112
O141	O	2.104928	0.222871	1.723445
H142	H	1.485023	-0.484805	1.007031
H143	H	1.818356	-0.151471	1.340364
H144	H	2.151690	0.181862	1.673698
O145	O	1.438246	-0.443822	0.951116
O146	O	1.771579	-0.110489	1.284450
O147	O	2.104913	0.222844	1.617783
H148	H	1.456096	-0.507128	0.930208
H149	H	1.789429	-0.173794	1.263541
H150	H	2.122763	0.159539	1.596874
