data_functionalizedCrystal
_audit_creation_method	'MofGen! by Chris Wilmer'
_symmetry_space_group_name_H-M	'P1'
_symmetry_Int_Tables_number	1
_symmetry_cell_setting	triclinic
loop_
_symmetry_equiv_pos_as_xyz
  x,y,z
_cell_length_a	19.805407
_cell_length_b	19.120786
_cell_length_c	19.805399
_cell_angle_alpha	87.531070
_cell_angle_beta	89.980427
_cell_angle_gamma	92.465080
loop_
_atom_site_label
_atom_site_type_symbol
_atom_site_fract_x
_atom_site_fract_y
_atom_site_fract_z
Zn1	Zn	1.023244	-0.279646	-0.371215
Zn2	Zn	1.523244	0.220354	0.128785
Zn3	Zn	1.018332	-0.397105	-0.253195
Zn4	Zn	1.518332	0.102895	0.246805
Zn5	Zn	0.910058	-0.279666	-0.258039
Zn6	Zn	1.410058	0.220334	0.241961
Zn7	Zn	0.905197	-0.397068	-0.366343
Zn8	Zn	1.405197	0.102932	0.133657
O9	O	0.964208	-0.338371	-0.312198
O10	O	1.464208	0.161629	0.187802
O11	O	1.117309	-0.295235	-0.355571
O12	O	1.617309	0.204765	0.144429
O13	O	1.003948	-0.381550	-0.159120
O14	O	1.503948	0.118450	0.340880
O15	O	0.929162	-0.181373	-0.277118
O16	O	1.429162	0.318627	0.222882
O17	O	1.113700	-0.381532	-0.268862
O18	O	1.613700	0.118468	0.231138
O19	O	1.012320	-0.181359	-0.360269
O20	O	1.512320	0.318641	0.139731
O21	O	0.924399	-0.295268	-0.162679
O22	O	1.424399	0.204732	0.337321
O23	O	0.814697	-0.295232	-0.272394
O24	O	1.314697	0.204768	0.227606
O25	O	0.920877	-0.381468	-0.461707
O26	O	1.420877	0.118532	0.038293
O27	O	0.811125	-0.381487	-0.351965
O28	O	1.311125	0.118513	0.148035
O29	O	1.007606	-0.295199	-0.465287
O30	O	1.507606	0.204801	0.034713
O31	O	0.999234	-0.495390	-0.264138
O32	O	1.499234	0.004610	0.235862
O33	O	0.916114	-0.495363	-0.347268
O34	O	1.416114	0.004637	0.152732
C35	C	0.788352	-0.338358	-0.312177
C36	C	1.288352	0.161642	0.187823
C37	C	0.713120	-0.338369	-0.312183
C38	C	1.213120	0.161631	0.187817
C39	C	0.675931	-0.383350	-0.353543
C40	C	1.175931	0.116650	0.146457
C41	C	0.605242	-0.383351	-0.353552
C42	C	1.105242	0.116649	0.146448
C43	C	0.571744	-0.338374	-0.312198
C44	C	1.071744	0.161626	0.187802
C45	C	0.608938	-0.293389	-0.270837
C46	C	1.108938	0.206611	0.229163
C47	C	0.679625	-0.293385	-0.270831
C48	C	1.179625	0.206615	0.229169
C49	C	0.323864	-0.293404	-0.270859
C50	C	0.823864	0.206596	0.229141
C51	C	0.253172	-0.293414	-0.270866
C52	C	0.753172	0.206586	0.229134
C53	C	0.249481	-0.383371	-0.353579
C54	C	0.749481	0.116629	0.146421
C55	C	0.320169	-0.383366	-0.353574
C56	C	0.820169	0.116634	0.146426
C57	C	0.357356	-0.338378	-0.312216
C58	C	0.857356	0.161622	0.187784
C59	C	0.434005	-0.338377	-0.312207
C60	C	0.934005	0.161623	0.187793
C61	C	0.495097	-0.338379	-0.312203
C62	C	0.995097	0.161621	0.187797
C63	C	0.956632	-0.520862	-0.304663
C64	C	1.456632	-0.020862	0.195337
C65	C	0.953453	-0.598933	-0.301462
C66	C	1.453453	-0.098933	0.198538
C67	C	0.995223	-0.635543	-0.343286
C68	C	1.495223	-0.135543	0.156714
C69	C	0.992234	-0.708898	-0.340279
C70	C	1.492234	-0.208898	0.159721
C71	C	0.947477	-0.745642	-0.295446
C72	C	1.447477	-0.245642	0.204554
C73	C	0.905703	-0.709027	-0.253621
C74	C	1.405703	-0.209027	0.246379
C75	C	0.908689	-0.635673	-0.256631
C76	C	1.408689	-0.135673	0.243369
C77	C	0.936292	-0.967128	-0.284192
C78	C	1.436292	-0.467128	0.215808
C79	C	0.933310	-1.040487	-0.281184
C80	C	1.433310	-0.540487	0.218816
C81	C	1.019840	-1.040353	-0.367844
C82	C	1.519840	-0.540353	0.132156
C83	C	1.022826	-0.966997	-0.370847
C84	C	1.522826	-0.466997	0.129153
C85	C	0.981049	-0.930389	-0.329025
C86	C	1.481049	-0.430389	0.170975
C87	C	0.944422	-0.820624	-0.292370
C88	C	1.444422	-0.320624	0.207630
C89	C	0.984101	-0.855409	-0.332104
C90	C	1.484101	-0.355409	0.167896
C91	C	1.140750	-0.338385	-0.312220
C92	C	1.640750	0.161615	0.187780
C93	C	1.215982	-0.338391	-0.312229
C94	C	1.715982	0.161609	0.187771
C95	C	0.964247	-0.338327	-0.488743
C96	C	1.464247	0.161673	0.011257
C97	C	0.964264	-0.338308	-0.563976
C98	C	1.464264	0.161692	-0.063976
C99	C	0.971831	-0.155168	-0.319777
C100	C	1.471831	0.344832	0.180223
C101	C	0.975080	-0.077097	-0.323007
C102	C	1.475080	0.422903	0.176993
C103	C	1.009425	-0.293386	-0.601185
C104	C	1.509425	0.206614	-0.101185
C105	C	1.009433	-0.293365	-0.671874
C106	C	1.509433	0.206635	-0.171874
C107	C	0.964283	-0.338271	-0.705353
C108	C	1.464283	0.161729	-0.205353
C109	C	0.919117	-0.383196	-0.668139
C110	C	1.419117	0.116804	-0.168139
C111	C	0.919107	-0.383212	-0.597451
C112	C	1.419107	0.116788	-0.097451
C113	C	0.919158	-0.383131	-0.953215
C114	C	1.419158	0.116869	-0.453215
C115	C	0.919173	-0.383112	-1.023908
C116	C	1.419173	0.116888	-0.523908
C117	C	1.009484	-0.293283	-1.027638
C118	C	1.509484	0.206717	-0.527638
C119	C	1.009474	-0.293300	-0.956950
C120	C	1.509474	0.206700	-0.456950
C121	C	0.964306	-0.338221	-0.919742
C122	C	1.464306	0.161779	-0.419742
C123	C	0.964297	-0.338242	-0.843093
C124	C	1.464297	0.161758	-0.343093
C125	C	0.964294	-0.338255	-0.782001
C126	C	1.464294	0.161745	-0.282001
C127	C	0.964209	-0.338365	-0.136342
C128	C	1.464209	0.161635	0.363658
C129	C	0.964331	-0.338186	-0.061118
C130	C	1.464331	0.161814	0.438882
H131	H	0.354134	-0.256778	-0.237177
H132	H	0.854134	0.243222	0.262823
O133	O	1.038683	-0.599744	-0.386778
O134	O	1.538683	-0.099744	0.113222
C135	C	1.081604	-0.486682	-0.429856
C136	C	1.581604	0.013318	0.070144
C137	C	1.032368	-0.527134	-0.380555
C138	C	1.532368	-0.027134	0.119445
H139	H	1.076505	-0.427970	-0.424852
H140	H	1.576505	0.072030	0.075148
H141	H	1.135621	-0.501012	-0.417434
H142	H	1.635621	-0.001012	0.082566
H143	H	1.069103	-0.501125	-0.483821
H144	H	1.569103	-0.001125	0.016179
H145	H	1.044807	-0.512712	-0.326573
H146	H	1.544807	-0.012712	0.173427
H147	H	0.978366	-0.512800	-0.393036
H148	H	1.478366	-0.012800	0.106964
H149	H	1.026252	-0.738703	-0.374331
H150	H	1.526252	-0.238703	0.125669
H151	H	0.907983	-0.850549	-0.255865
H152	H	1.407983	-0.350549	0.244135
O153	O	0.875252	-0.426823	-0.917179
O154	O	1.375252	0.073177	-0.417179
C155	C	0.785623	-0.515867	-0.920947
C156	C	1.285623	-0.015867	-0.420947
C157	C	0.835330	-0.466437	-0.961843
C158	C	1.335330	0.033563	-0.461843
H159	H	0.753323	-0.547897	-0.957041
H160	H	1.253323	-0.047897	-0.457041
H161	H	0.815111	-0.552658	-0.886345
H162	H	1.315111	-0.052658	-0.386345
H163	H	0.751602	-0.483597	-0.889174
H164	H	1.251602	0.016403	-0.389174
H165	H	0.869363	-0.498650	-0.993655
H166	H	1.369363	0.001350	-0.493655
H167	H	0.805800	-0.429644	-0.996403
H168	H	1.305800	0.070356	-0.496403
H169	H	0.874675	-0.605866	-0.222575
H170	H	1.374675	-0.105866	0.277425
H171	H	0.219194	-0.419999	-0.387258
H172	H	0.719194	0.080001	0.112742
O173	O	0.708441	-0.426965	-0.393815
O174	O	1.208441	0.073035	0.106185
C175	C	0.728663	-0.461240	-0.507478
C176	C	1.228663	0.038760	-0.007478
C177	C	0.691820	-0.411793	-0.461945
C178	C	1.191820	0.088207	0.038055
H179	H	0.715226	-0.449001	-0.562569
H180	H	1.215226	0.050999	-0.062569
H181	H	0.785581	-0.453511	-0.500429
H182	H	1.285581	0.046489	-0.000429
H183	H	0.712418	-0.517857	-0.493132
H184	H	1.212418	-0.017857	0.006868
H185	H	0.708008	-0.355157	-0.476262
H186	H	1.208008	0.144843	0.023738
H187	H	0.634908	-0.419583	-0.469000
H188	H	1.134908	0.080417	0.031000
O189	O	0.576364	-0.249797	-0.230592
O190	O	1.076364	0.250203	0.269408
C191	C	0.496880	-0.240222	-0.139657
C192	C	0.996880	0.259778	0.360343
C193	C	0.533736	-0.289670	-0.185178
C194	C	1.033736	0.210330	0.314822
H195	H	0.462396	-0.272438	-0.102938
H196	H	0.962396	0.227562	0.397062
H197	H	0.535572	-0.208081	-0.110045
H198	H	1.035572	0.291919	0.389955
H199	H	0.465352	-0.203529	-0.172325
H200	H	0.965352	0.296471	0.327675
H201	H	0.565264	-0.326405	-0.152560
H202	H	1.065264	0.173595	0.347440
H203	H	0.495010	-0.321761	-0.214794
H204	H	0.995010	0.178239	0.285206
O205	O	1.053450	-0.249714	-1.063750
O206	O	1.553450	0.250286	-0.563750
C207	C	1.170005	-0.215596	-1.086781
C208	C	1.670005	0.284404	-0.586781
C209	C	1.120290	-0.264989	-1.045854
C210	C	1.620290	0.235011	-0.545854
H211	H	1.224056	-0.227918	-1.072317
H212	H	1.724056	0.272082	-0.572317
H213	H	1.162316	-0.223295	-1.143062
H214	H	1.662316	0.276705	-0.643062
H215	H	1.160440	-0.158967	-1.075228
H216	H	1.660440	0.341033	-0.575228
H217	H	1.129825	-0.321637	-1.057350
H218	H	1.629825	0.178363	-0.557350
H219	H	1.127990	-0.257229	-0.989585
H220	H	1.627990	0.242771	-0.489585
O221	O	0.875164	-0.426744	-0.700630
O222	O	1.375164	0.073256	-0.200630
C223	C	0.758616	-0.460855	-0.720791
C224	C	1.258616	0.039145	-0.220791
C225	C	0.808317	-0.411479	-0.683970
C226	C	1.308317	0.088521	-0.183970
H227	H	0.704561	-0.448542	-0.707325
H228	H	1.204561	0.051458	-0.207325
H229	H	0.766322	-0.453128	-0.777714
H230	H	1.266322	0.046872	-0.277714
H231	H	0.768179	-0.517491	-0.704556
H232	H	1.268179	-0.017491	-0.204556
H233	H	0.798785	-0.354825	-0.700150
H234	H	1.298785	0.145175	-0.200150
H235	H	0.800600	-0.419267	-0.627055
H236	H	1.300600	0.080733	-0.127055
O237	O	0.220552	-0.249691	-0.230786
O238	O	0.720552	0.250309	0.269214
C239	C	0.144684	-0.154845	-0.225752
C240	C	0.644684	0.345155	0.274248
C241	C	0.181576	-0.204317	-0.271219
C242	C	0.681576	0.295683	0.228781
H243	H	0.113174	-0.118138	-0.258425
H244	H	0.613174	0.381862	0.241575
H245	H	0.110201	-0.187018	-0.188999
H246	H	0.610201	0.312982	0.311001
H247	H	0.183411	-0.122720	-0.196170
H248	H	0.683411	0.377280	0.303830
H249	H	0.142897	-0.236453	-0.300845
H250	H	0.642897	0.263547	0.199155
H251	H	0.216071	-0.172104	-0.307930
H252	H	0.716071	0.327896	0.192070
H253	H	0.882326	-0.419786	-0.567156
H254	H	1.382326	0.080214	-0.067156
O255	O	0.715649	-0.249672	-0.230587
O256	O	1.215649	0.250328	0.269413
C257	C	0.711855	-0.160420	-0.148569
C258	C	1.211855	0.339580	0.351431
C259	C	0.670976	-0.209902	-0.194100
C260	C	1.170976	0.290098	0.305900
H261	H	0.675755	-0.128243	-0.119068
H262	H	1.175755	0.371757	0.380932
H263	H	0.743580	-0.192586	-0.111752
H264	H	1.243580	0.307414	0.388248
H265	H	0.746502	-0.123763	-0.181222
H266	H	1.246502	0.376237	0.318778
H267	H	0.636292	-0.246569	-0.161501
H268	H	1.136292	0.253431	0.338499
H269	H	0.639295	-0.177693	-0.230921
H270	H	1.139295	0.322307	0.269079
H271	H	1.059270	-0.937082	-0.407354
H272	H	1.559270	-0.437082	0.092646
H273	H	1.020540	-0.825490	-0.368610
H274	H	1.520540	-0.325490	0.131390
H275	H	1.046209	-0.256786	-0.702167
H276	H	1.546209	0.243214	-0.202167
O277	O	1.060347	-1.076023	-0.408445
O278	O	1.560347	-0.576023	0.091555
C279	C	1.094125	-1.188970	-0.442192
C280	C	1.594125	-0.688970	0.057808
C281	C	1.048202	-1.148661	-0.396179
C282	C	1.548202	-0.648661	0.103821
H283	H	1.084332	-1.247704	-0.432281
H284	H	1.584332	-0.747704	0.067719
H285	H	1.082789	-1.174575	-0.497363
H286	H	1.582789	-0.674575	0.002637
H287	H	1.149293	-1.174463	-0.430961
H288	H	1.649293	-0.674463	0.069039
H289	H	0.993019	-1.163147	-0.407350
H290	H	1.493019	-0.663147	0.092650
H291	H	1.059596	-1.163059	-0.341022
H292	H	1.559596	-0.663059	0.158978
O293	O	0.889891	-1.076290	-0.237646
O294	O	1.389891	-0.576290	0.262354
C295	C	0.846929	-1.189358	-0.194627
C296	C	1.346929	-0.689358	0.305373
C297	C	0.896134	-1.148899	-0.243953
C298	C	1.396134	-0.648899	0.256047
H299	H	0.851949	-1.248070	-0.199719
H300	H	1.351949	-0.748070	0.300281
H301	H	0.859432	-1.175008	-0.140635
H302	H	1.359432	-0.675008	0.359365
H303	H	0.792936	-1.174943	-0.207045
H304	H	1.292936	-0.674943	0.292955
H305	H	0.950143	-1.163293	-0.231597
H306	H	1.450143	-0.663293	0.268403
H307	H	0.883573	-1.163253	-0.297930
H308	H	1.383573	-0.663253	0.202070
O309	O	0.895694	-0.931681	-0.243491
O310	O	1.395694	-0.431681	0.256509
C311	C	0.809538	-0.939562	-0.157234
C312	C	1.309538	-0.439562	0.342766
C313	C	0.855487	-0.979797	-0.203285
C314	C	1.355487	-0.479797	0.296715
H315	H	0.777009	-0.978446	-0.124726
H316	H	1.277009	-0.478446	0.375274
H317	H	0.842003	-0.905235	-0.123236
H318	H	1.342003	-0.405235	0.376764
H319	H	0.775550	-0.905211	-0.189689
H320	H	1.275550	-0.405211	0.310311
H321	H	0.889482	-1.014186	-0.170883
H322	H	1.389482	-0.514186	0.329117
H323	H	0.822981	-1.014079	-0.237286
H324	H	1.322981	-0.514079	0.262714
O325	O	0.862190	-0.744797	-0.210160
O326	O	1.362190	-0.244797	0.289840
C327	C	0.767414	-0.827673	-0.197566
C328	C	1.267414	-0.327673	0.302434
C329	C	0.816656	-0.787223	-0.246862
C330	C	1.316656	-0.287223	0.253138
H331	H	0.730579	-0.861973	-0.227221
H332	H	1.230579	-0.361973	0.272779
H333	H	0.797075	-0.862055	-0.160804
H334	H	1.297075	-0.362055	0.339196
H335	H	0.738104	-0.788892	-0.168177
H336	H	1.238104	-0.288892	0.331823
H337	H	0.845979	-0.825954	-0.276298
H338	H	1.345979	-0.325954	0.223702
H339	H	0.786957	-0.752831	-0.283581
H340	H	1.286957	-0.252831	0.216419
H341	H	1.046194	-0.256820	-0.573932
H342	H	1.546194	0.243180	-0.073932
O343	O	1.053235	-0.249633	-0.924362
O344	O	1.553235	0.250367	-0.424362
C345	C	1.066251	-0.154777	-0.848529
C346	C	1.566251	0.345223	-0.348529
C347	C	1.016623	-0.204206	-0.885376
C348	C	1.516623	0.295794	-0.385376
H349	H	1.036670	-0.118027	-0.817011
H350	H	1.536670	0.381973	-0.317011
H351	H	1.100294	-0.186982	-0.814057
H352	H	1.600294	0.313018	-0.314057
H353	H	1.098538	-0.122697	-0.887284
H354	H	1.598538	0.377303	-0.387284
H355	H	0.984292	-0.236297	-0.846670
H356	H	1.484292	0.263703	-0.346670
H357	H	0.982626	-0.171960	-0.919860
H358	H	1.482626	0.328040	-0.419860
O359	O	0.569095	-0.426950	-0.393803
O360	O	1.069095	0.073050	0.106197
C361	C	0.488906	-0.436546	-0.484761
C362	C	0.988906	0.063454	0.015239
C363	C	0.529814	-0.387088	-0.439230
C364	C	1.029814	0.112912	0.060770
H365	H	0.457127	-0.404339	-0.521490
H366	H	0.957127	0.095661	-0.021490
H367	H	0.524965	-0.468680	-0.514360
H368	H	1.024965	0.031320	-0.014360
H369	H	0.454306	-0.473246	-0.452100
H370	H	0.954306	0.026754	0.047900
H371	H	0.564416	-0.350346	-0.471840
H372	H	1.064416	0.149654	0.028160
H373	H	0.493716	-0.355003	-0.409626
H374	H	0.993716	0.144997	0.090374
O375	O	0.352603	-0.427078	-0.393809
O376	O	0.852603	0.072922	0.106191
C377	C	0.341479	-0.516333	-0.475827
C378	C	0.841479	-0.016333	0.024173
C379	C	0.304664	-0.466855	-0.430303
C380	C	0.804664	0.033145	0.069697
H381	H	0.302736	-0.548515	-0.505335
H382	H	0.802736	-0.048515	-0.005335
H383	H	0.375903	-0.484163	-0.512639
H384	H	0.875903	0.015837	-0.012639
H385	H	0.373059	-0.552985	-0.443168
H386	H	0.873059	-0.052985	0.056832
H387	H	0.273048	-0.430193	-0.462908
H388	H	0.773048	0.069807	0.037092
H389	H	0.270281	-0.499069	-0.393488
H390	H	0.770281	0.000931	0.106512
H391	H	0.882404	-0.419682	-1.051164
H392	H	1.382404	0.080318	-0.551164
