data_functionalizedCrystal
_audit_creation_method	'MofGen! by Chris Wilmer'
_symmetry_space_group_name_H-M	'P1'
_symmetry_Int_Tables_number	1
_symmetry_cell_setting	triclinic
loop_
_symmetry_equiv_pos_as_xyz
  x,y,z
_cell_length_a	16.625547
_cell_length_b	13.897448
_cell_length_c	13.897441
_cell_angle_alpha	89.969401
_cell_angle_beta	89.973876
_cell_angle_gamma	90.017629
loop_
_atom_site_label
_atom_site_type_symbol
_atom_site_fract_x
_atom_site_fract_y
_atom_site_fract_z
Zn1	Zn	1.232718	-0.383986	-0.545520
Zn2	Zn	1.232629	-0.545307	-0.384221
Zn3	Zn	1.097876	-0.384028	-0.384223
Zn4	Zn	1.097861	-0.545240	-0.545459
O5	O	1.165271	-0.464640	-0.464856
O6	O	1.345538	-0.405396	-0.524148
O7	O	1.214723	-0.523959	-0.249240
O8	O	1.115807	-0.249041	-0.405646
O9	O	1.345473	-0.523918	-0.405643
O10	O	1.214874	-0.249010	-0.524150
O11	O	1.115721	-0.405468	-0.249241
O12	O	0.985042	-0.405403	-0.405587
O13	O	1.115781	-0.523804	-0.680449
O14	O	0.985031	-0.523845	-0.524046
O15	O	1.214859	-0.405331	-0.680494
O16	O	1.214708	-0.680280	-0.405583
O17	O	1.115695	-0.680231	-0.524044
C18	C	0.955780	-0.464622	-0.464810
C19	C	0.866159	-0.464637	-0.464814
C20	C	1.165212	-0.715255	-0.464828
C21	C	1.165261	-0.822469	-0.464848
C22	C	1.165345	-1.018764	-0.464909
C23	C	1.165296	-0.909531	-0.464878
C24	C	0.793377	-0.464639	-0.464826
C25	C	0.702068	-0.464644	-0.464850
C26	C	0.629292	-0.464653	-0.464874
C27	C	0.537977	-0.464659	-0.464897
C28	C	1.375580	-0.464660	-0.464902
C29	C	1.465201	-0.464668	-0.464922
C30	C	1.165328	-0.464555	-0.716449
C31	C	1.165353	-0.464519	-0.823663
C32	C	1.165352	-0.213047	-0.464905
C33	C	1.165387	-0.105833	-0.464926
C34	C	1.165374	-0.464453	-1.019958
C35	C	1.165360	-0.464492	-0.910726
C36	C	1.165260	-0.464656	-0.214241
C37	C	1.165392	-0.464420	-0.107028
