data_functionalizedCrystal
_audit_creation_method	'MofGen! by Chris Wilmer'
_symmetry_space_group_name_H-M	'P1'
_symmetry_Int_Tables_number	1
_symmetry_cell_setting	triclinic
loop_
_symmetry_equiv_pos_as_xyz
  x,y,z
_cell_length_a	23.532407
_cell_length_b	10.654550
_cell_length_c	9.130313
_cell_angle_alpha	89.997153
_cell_angle_beta	90.001628
_cell_angle_gamma	83.666804
loop_
_atom_site_label
_atom_site_type_symbol
_atom_site_fract_x
_atom_site_fract_y
_atom_site_fract_z
O1	O	-0.756252	-0.152435	0.121616
O2	O	-0.590533	-0.174492	0.121659
O3	O	-0.677203	0.019396	0.121628
O4	O	-0.669582	-0.346324	0.121648
O5	O	-0.677196	0.019396	-0.121971
O6	O	-0.590526	-0.174492	-0.121940
O7	O	-0.756246	-0.152436	-0.121983
Cu8	Cu	-0.673385	-0.163464	-0.144204
Cu9	Cu	-0.673393	-0.163464	0.143880
O10	O	-0.669576	-0.346324	-0.121951
C11	C	-0.569310	-0.173931	-0.000135
C12	C	-0.506082	-0.172242	-0.000119
C13	C	-0.676640	0.066176	-0.000171
C14	C	-0.674966	0.205567	-0.000168
C15	C	-0.777469	-0.152997	-0.000185
C16	C	-0.840697	-0.154686	-0.000192
C17	C	-0.107657	-0.276389	-0.000179
C18	C	-0.048247	-0.274820	-0.000188
O19	O	-0.012131	-0.371366	-0.000236
N20	N	-0.024869	-0.159554	-0.000192
C21	C	-0.060906	-0.045849	-0.000202
O22	O	-0.035567	0.052339	-0.000208
C23	C	-0.120315	-0.047419	-0.000203
C24	C	-0.143689	-0.162693	-0.000185
C25	C	-0.131031	-0.391654	-0.000162
C26	C	-0.190438	-0.393222	-0.000150
C27	C	-0.226470	-0.279525	-0.000156
C28	C	-0.203095	-0.164261	-0.000173
C29	C	-0.156351	0.066285	-0.000224
C30	C	-0.215764	0.064705	-0.000226
C31	C	-0.239138	-0.050569	-0.000207
C32	C	-0.298534	-0.052133	-0.000166
N33	N	-0.321911	-0.167399	-0.000162
C34	C	-0.285879	-0.281095	-0.000157
C35	C	0.063858	-0.042560	-0.000202
C36	C	0.123266	-0.040989	-0.000190
C37	C	0.135922	-0.269961	-0.000179
C38	C	0.076512	-0.271531	-0.000180
C39	C	0.040481	-0.157827	-0.000198
C40	C	-0.410637	-0.284380	-0.000131
C41	C	-0.470049	-0.285938	-0.000113
C42	C	-0.482700	-0.056967	-0.000132
C43	C	-0.423293	-0.055408	-0.000142
C44	C	-0.387262	-0.169125	-0.000147
O45	O	-0.334684	0.044362	-0.000125
O46	O	-0.311227	-0.379267	-0.000171
C47	C	-0.670138	-0.393104	-0.000149
C48	C	-0.671812	-0.532494	-0.000142
N49	N	-0.673384	-0.163463	-0.346826
C50	C	-0.725996	0.286669	-0.000181
C51	C	-0.724419	0.417640	-0.000163
C52	C	-0.620779	0.386393	-0.000125
C53	C	-0.622356	0.255425	-0.000133
C54	C	-0.708222	-0.239242	-0.423478
C55	C	-0.708231	-0.239234	-0.576815
C56	C	-0.638560	-0.087667	-0.576835
C57	C	-0.638554	-0.087669	-0.423501
N58	N	-0.673399	-0.163454	0.346503
H59	H	-0.489077	-0.379812	-0.000097
N60	N	-0.398073	0.068913	-0.000170
H61	H	-0.373698	0.074674	0.090118
H62	H	-0.429945	0.140633	-0.000226
N63	N	-0.782738	0.232897	-0.000212
H64	H	-0.785707	0.179243	0.090081
H65	H	-0.785663	0.179328	-0.090583
N66	N	-0.371775	-0.407019	-0.000124
H67	H	-0.346847	-0.411477	-0.090430
H68	H	-0.395638	-0.480207	-0.000053
H69	H	0.034524	0.050038	-0.000203
H70	H	-0.610202	-0.025960	-0.639282
N71	N	-0.564040	0.440181	-0.000108
H72	H	-0.541657	0.410561	-0.090405
H73	H	-0.541707	0.410543	0.090259
H74	H	-0.137331	0.160153	-0.000240
H75	H	-0.736600	-0.300939	-0.639217
N76	N	-0.600981	-0.005924	-0.340813
H77	H	-0.578915	0.042085	-0.412651
H78	H	-0.573356	-0.060986	-0.277191
H79	H	-0.765973	0.483669	-0.000170
H80	H	-0.209463	-0.487090	-0.000134
H81	H	-0.580798	0.189387	-0.000118
N82	N	-0.745788	-0.320982	-0.340775
H83	H	-0.767860	-0.368983	-0.412607
H84	H	-0.773409	-0.265918	-0.277154
H85	H	0.165270	-0.362539	-0.000181
N86	N	-0.092173	-0.514294	-0.000239
H87	H	-0.116005	-0.587540	-0.000256
H88	H	-0.067234	-0.518683	0.090043
H89	H	0.057486	-0.365397	-0.000173
H90	H	-0.245099	0.157299	-0.000242
N91	N	0.148473	0.083341	-0.000183
H92	H	0.116627	0.155123	-0.000184
H93	H	0.172843	0.088987	-0.090493
H94	H	-0.512048	0.035602	-0.000131
