data_functionalizedCrystal
_audit_creation_method	'MofGen! by Chris Wilmer'
_symmetry_space_group_name_H-M	'P1'
_symmetry_Int_Tables_number	1
_symmetry_cell_setting	triclinic
loop_
_symmetry_equiv_pos_as_xyz
  x,y,z
_cell_length_a	10.654546
_cell_length_b	14.519731
_cell_length_c	9.730223
_cell_angle_alpha	89.997677
_cell_angle_beta	89.998853
_cell_angle_gamma	84.086168
loop_
_atom_site_label
_atom_site_type_symbol
_atom_site_fract_x
_atom_site_fract_y
_atom_site_fract_z
O1	O	1.666605	0.129512	-0.114323
O2	O	1.301008	0.141856	-0.114320
O3	O	1.493486	0.001497	-0.114309
O4	O	1.474127	0.269871	-0.114334
O5	O	1.493484	0.001500	0.114271
O6	O	1.301006	0.141860	0.114260
O7	O	1.666602	0.129515	0.114256
Zn8	Zn	1.483804	0.135688	0.150550
Zn9	Zn	1.483807	0.135683	-0.150614
O10	O	1.474125	0.269874	0.114246
C11	C	1.254218	0.140952	-0.000029
C12	C	1.114800	0.138242	-0.000028
C13	C	1.492578	-0.032866	-0.000019
C14	C	1.489860	-0.135260	-0.000018
C15	C	1.049319	0.136958	-0.124633
C16	C	0.918322	0.134405	-0.124644
C17	C	0.918301	0.134416	0.124567
C18	C	1.049294	0.136976	0.124576
C19	C	1.049331	0.136948	-0.268513
C20	C	0.918334	0.134394	-0.268523
C21	C	1.487651	-0.218415	-0.000021
C22	C	1.484891	-0.322738	-0.000032
C23	C	1.482701	-0.405889	-0.000041
C24	C	1.479941	-0.510219	-0.000048
C25	C	1.713393	0.130419	-0.000037
C26	C	1.852811	0.133129	-0.000048
C27	C	1.475033	0.304237	-0.000047
C28	C	1.477751	0.406631	-0.000057
N29	N	1.483811	0.135691	0.356087
N30	N	1.483810	0.135673	-0.356150
C31	C	1.569062	0.073561	0.428017
C32	C	1.569059	0.073550	0.571900
C33	C	1.398550	0.197806	0.571909
C34	C	1.398548	0.197812	0.428029
C35	C	1.667508	0.001825	0.428014
C36	C	1.667504	0.001814	0.571896
H37	H	0.864949	0.133386	0.226015
H38	H	1.073531	0.202064	-0.323761
H39	H	1.329119	0.248395	0.369464
H40	H	1.637628	-0.065172	0.616518
O41	O	1.315855	0.258117	0.642009
C42	C	1.334109	0.244772	0.784427
H43	H	1.433871	0.210985	0.804078
H44	H	1.262927	0.198026	0.825252
C45	C	1.192912	0.380477	0.834171
C46	C	1.315445	0.338987	0.858306
H47	H	1.181394	0.438592	0.879745
H48	H	1.180609	0.389467	0.738221
H49	H	1.133608	0.341513	0.868191
H50	H	1.374746	0.377945	0.824270
H51	H	1.327757	0.330006	0.954252
O52	O	1.782401	0.020614	0.618725
C53	C	1.782172	0.020587	0.763628
H54	H	1.705857	-0.022459	0.802503
H55	H	1.762333	0.094678	0.802703
C56	C	2.005539	0.031494	0.768867
C57	C	1.911815	-0.021383	0.816614
H58	H	2.085510	0.005609	0.801553
H59	H	2.005694	0.031515	0.671243
H60	H	1.988990	0.093233	0.801433
H61	H	1.928356	-0.083117	0.784033
H62	H	1.911666	-0.021416	0.914234
O63	O	1.112714	0.138190	0.245740
C64	C	1.026799	0.136546	0.355710
H65	H	0.938564	0.105570	0.319183
H66	H	0.999846	0.210135	0.393995
C67	C	1.196922	0.115236	0.518320
C68	C	1.088555	0.077183	0.473460
H69	H	1.235016	0.078622	0.590958
H70	H	1.254805	0.116347	0.444233
H71	H	1.174445	0.176559	0.550215
H72	H	1.111034	0.015866	0.441551
H73	H	1.030676	0.076061	0.547545
O74	O	1.111863	0.058552	-0.321530
C75	C	1.193869	0.015867	-0.221255
H76	H	1.159095	0.038829	-0.114620
H77	H	1.292967	0.036812	-0.237906
C78	C	1.239266	-0.118271	-0.364246
C79	C	1.196550	-0.090075	-0.233274
H80	H	1.240926	-0.183621	-0.371662
H81	H	1.184021	-0.089512	-0.431806
H82	H	1.321844	-0.100809	-0.378107
H83	H	1.113968	-0.107527	-0.219423
H84	H	1.251782	-0.118839	-0.165712
H85	H	1.758478	0.024285	0.383384
O86	O	0.855961	0.212694	-0.322034
C87	C	0.895020	0.223893	-0.458933
H88	H	0.934353	0.153894	-0.502377
H89	H	0.971312	0.273447	-0.461732
C90	C	0.733190	0.349717	-0.492652
C91	C	0.781488	0.263741	-0.546013
H92	H	0.663160	0.374301	-0.546367
H93	H	0.706877	0.342175	-0.400419
H94	H	0.796778	0.391001	-0.494987
H95	H	0.717906	0.222456	-0.543661
H96	H	0.807788	0.271277	-0.638248
H97	H	1.646739	-0.069059	0.388966
H98	H	0.894139	0.069273	-0.323759
