data_functionalizedCrystal
_audit_creation_method	'MofGen! by Chris Wilmer'
_symmetry_space_group_name_H-M	'P1'
_symmetry_Int_Tables_number	1
_symmetry_cell_setting	triclinic
loop_
_symmetry_equiv_pos_as_xyz
  x,y,z
_cell_length_a	16.959455
_cell_length_b	19.121063
_cell_length_c	19.121605
_cell_angle_alpha	90.075163
_cell_angle_beta	87.545906
_cell_angle_gamma	92.465894
loop_
_atom_site_label
_atom_site_type_symbol
_atom_site_fract_x
_atom_site_fract_y
_atom_site_fract_z
Zn1	Zn	1.215354	-0.262268	-0.408276
Zn2	Zn	1.548687	0.071065	-0.074943
Zn3	Zn	1.882021	0.404399	0.258390
Zn4	Zn	1.204000	-0.384509	-0.296033
Zn5	Zn	1.537334	-0.051176	0.037300
Zn6	Zn	1.870667	0.282158	0.370634
Zn7	Zn	1.077313	-0.267282	-0.291055
Zn8	Zn	1.410646	0.066051	0.042278
Zn9	Zn	1.743980	0.399384	0.375612
Zn10	Zn	1.077741	-0.379465	-0.413232
Zn11	Zn	1.411074	-0.046132	-0.079898
Zn12	Zn	1.744407	0.287202	0.253435
O13	O	1.143602	-0.323381	-0.352149
O14	O	1.476935	0.009952	-0.018816
O15	O	1.810269	0.343286	0.314518
O16	O	1.324459	-0.278496	-0.393396
O17	O	1.657792	0.054838	-0.060063
O18	O	1.991125	0.388171	0.273270
O19	O	1.182264	-0.373168	-0.197267
O20	O	1.515598	-0.039835	0.136067
O21	O	1.848931	0.293499	0.469400
O22	O	1.100197	-0.168510	-0.302447
O23	O	1.433531	0.164823	0.030886
O24	O	1.766864	0.498157	0.364219
O25	O	1.316117	-0.368306	-0.310932
O26	O	1.649450	-0.034972	0.022402
O27	O	1.982784	0.298361	0.355735
O28	O	1.201615	-0.164826	-0.388569
O29	O	1.534949	0.168507	-0.055236
O30	O	1.868282	0.501841	0.278097
O31	O	1.089188	-0.287042	-0.193609
O32	O	1.422521	0.046291	0.139724
O33	O	1.755855	0.379624	0.473057
O34	O	0.966759	-0.282151	-0.307252
O35	O	1.300092	0.051182	0.026081
O36	O	1.633426	0.384515	0.359414
O37	O	1.100926	-0.359709	-0.510680
O38	O	1.434259	-0.026376	-0.177347
O39	O	1.767593	0.306958	0.155987
O40	O	0.967073	-0.364571	-0.397015
O41	O	1.300407	-0.031238	-0.063682
O42	O	1.633740	0.302095	0.269651
O43	O	1.202030	-0.273605	-0.507039
O44	O	1.535363	0.059728	-0.173706
O45	O	1.868697	0.393062	0.159627
O46	O	1.182679	-0.481947	-0.315737
O47	O	1.516012	-0.148614	0.017597
O48	O	1.849346	0.184720	0.350930
O49	O	1.089917	-0.478241	-0.401842
O50	O	1.423250	-0.144908	-0.068509
O51	O	1.756583	0.188425	0.264824
C52	C	0.938236	-0.323359	-0.352132
C53	C	1.271569	0.009975	-0.018799
C54	C	1.604903	0.343308	0.314535
C55	C	0.850380	-0.323365	-0.352142
C56	C	1.183713	0.009968	-0.018809
C57	C	1.517046	0.343301	0.314525
C58	C	0.478722	-0.280424	-0.305501
C59	C	0.812055	0.052909	0.027832
C60	C	1.145389	0.386242	0.361165
C61	C	0.479084	-0.366394	-0.398839
C62	C	0.812418	-0.033061	-0.065506
C63	C	1.145751	0.300273	0.267828
C64	C	0.561631	-0.366384	-0.398834
C65	C	0.894964	-0.033051	-0.065501
C66	C	1.228297	0.300283	0.267832
C67	C	0.602726	-0.323394	-0.352162
C68	C	0.936059	0.009939	-0.018828
C69	C	1.269393	0.343272	0.314505
C70	C	0.561276	-0.280415	-0.305494
C71	C	0.894609	0.052919	0.027839
C72	C	1.227942	0.386252	0.361173
C73	C	0.603087	-0.409368	-0.445496
C74	C	0.936420	-0.076035	-0.112163
C75	C	1.269754	0.257298	0.221170
C76	C	0.685638	-0.409361	-0.445493
C77	C	1.018971	-0.076027	-0.112160
C78	C	1.352305	0.257306	0.221174
C79	C	0.726735	-0.366367	-0.398823
C80	C	1.060069	-0.033034	-0.065490
C81	C	1.393402	0.300300	0.267843
C82	C	0.685280	-0.323385	-0.352154
C83	C	1.018613	0.009949	-0.018821
C84	C	1.351946	0.343282	0.314512
C85	C	0.726375	-0.280395	-0.305482
C86	C	1.059709	0.052938	0.027852
C87	C	1.393042	0.386272	0.361185
C88	C	0.684922	-0.237409	-0.258815
C89	C	1.018255	0.095925	0.074518
C90	C	1.351588	0.429258	0.407851
C91	C	0.602373	-0.237421	-0.258824
C92	C	0.935706	0.095913	0.074509
C93	C	1.269040	0.429246	0.407842
C94	C	0.809284	-0.366355	-0.398814
C95	C	1.142617	-0.033022	-0.065481
C96	C	1.475951	0.300312	0.267852
C97	C	0.808929	-0.280385	-0.305474
C98	C	1.142262	0.052948	0.027859
C99	C	1.475596	0.386281	0.361193
C100	C	1.135134	-0.505532	-0.359883
C101	C	1.468468	-0.172198	-0.026549
C102	C	1.801801	0.161135	0.306784
C103	C	1.131585	-0.583455	-0.363215
C104	C	1.464919	-0.250122	-0.029881
C105	C	1.798252	0.083211	0.303452
C106	C	1.178256	-0.621969	-0.319987
C107	C	1.511589	-0.288635	0.013347
C108	C	1.844922	0.044698	0.346680
C109	C	1.174923	-0.695186	-0.323124
C110	C	1.508256	-0.361853	0.010209
C111	C	1.841589	-0.028519	0.343542
C112	C	1.124915	-0.729889	-0.369487
C113	C	1.458248	-0.396555	-0.036154
C114	C	1.791581	-0.063222	0.297179
C115	C	1.078243	-0.691370	-0.412720
C116	C	1.411576	-0.358037	-0.079387
C117	C	1.744909	-0.024704	0.253947
C118	C	1.081580	-0.618154	-0.409585
C119	C	1.414914	-0.284821	-0.076252
C120	C	1.748247	0.048513	0.257081
C121	C	1.112423	-0.950859	-0.381196
C122	C	1.445756	-0.617525	-0.047863
C123	C	1.779089	-0.284192	0.285470
C124	C	1.109087	-1.024080	-0.384326
C125	C	1.442420	-0.690747	-0.050993
C126	C	1.775753	-0.357414	0.282340
C127	C	1.205768	-1.027891	-0.294731
C128	C	1.539102	-0.694558	0.038602
C129	C	1.872435	-0.361224	0.371935
C130	C	1.209098	-0.954673	-0.291598
C131	C	1.542431	-0.621340	0.041736
C132	C	1.875765	-0.288007	0.375069
C133	C	1.162429	-0.916161	-0.334833
C134	C	1.495762	-0.582828	-0.001500
C135	C	1.829096	-0.249494	0.331834
C136	C	1.121505	-0.804729	-0.372694
C137	C	1.454838	-0.471395	-0.039361
C138	C	1.788172	-0.138062	0.293973
C139	C	1.165844	-0.841322	-0.331629
C140	C	1.499177	-0.507989	0.001704
C141	C	1.832510	-0.174656	0.335037
C142	C	1.349770	-0.323404	-0.352166
C143	C	1.683103	0.009929	-0.018833
C144	C	2.016437	0.343263	0.314500
C145	C	1.437626	-0.323414	-0.352174
C146	C	1.770960	0.009919	-0.018841
C147	C	2.104293	0.343253	0.314493
C148	C	1.152792	-0.315535	-0.535009
C149	C	1.486125	0.017798	-0.201675
C150	C	1.819459	0.351132	0.131658
C151	C	1.156708	-0.312192	-0.612933
C152	C	1.490042	0.021142	-0.279599
C153	C	1.823375	0.354475	0.053734
C154	C	1.152125	-0.140519	-0.344400
C155	C	1.485458	0.192815	-0.011067
C156	C	1.818792	0.526148	0.322266
C157	C	1.155757	-0.062594	-0.341098
C158	C	1.489090	0.270740	-0.007765
C159	C	1.822424	0.604073	0.325568
C160	C	1.181538	-0.291036	-1.053560
C161	C	1.514871	0.042298	-0.720227
C162	C	1.848205	0.375631	-0.386893
C163	C	1.177853	-0.294180	-0.980342
C164	C	1.511187	0.039153	-0.647009
C165	C	1.844520	0.372486	-0.313676
C166	C	1.123368	-0.340579	-0.945632
C167	C	1.456701	-0.007245	-0.612299
C168	C	1.790034	0.326088	-0.278966
C169	C	1.072569	-0.383840	-0.984144
C170	C	1.405902	-0.050507	-0.650811
C171	C	1.739236	0.282827	-0.317477
C172	C	1.076258	-0.380698	-1.057361
C173	C	1.409592	-0.047365	-0.724027
C174	C	1.742925	0.285969	-0.390694
C175	C	1.109599	-0.352311	-0.724661
C176	C	1.442932	-0.018978	-0.391328
C177	C	1.776265	0.314356	-0.057994
C178	C	1.105912	-0.355448	-0.651439
C179	C	1.439245	-0.022115	-0.318106
C180	C	1.772579	0.311219	0.015228
C181	C	1.211197	-0.265789	-0.647642
C182	C	1.544531	0.067544	-0.314309
C183	C	1.877864	0.400878	0.019024
C184	C	1.214879	-0.262648	-0.720860
C185	C	1.548212	0.070685	-0.387527
C186	C	1.881545	0.404018	-0.054194
C187	C	1.164083	-0.305912	-0.759366
C188	C	1.497416	0.027421	-0.426033
C189	C	1.830750	0.360755	-0.092699
C190	C	1.119598	-0.343793	-0.870792
C191	C	1.452932	-0.010460	-0.537459
C192	C	1.786265	0.322874	-0.204125
C193	C	1.167857	-0.302701	-0.834205
C194	C	1.501190	0.030632	-0.500872
C195	C	1.834523	0.363966	-0.167538
C196	C	1.134496	-0.331146	-0.169998
C197	C	1.467829	0.002187	0.163335
C198	C	1.801162	0.335521	0.496668
C199	C	1.130742	-0.334292	-0.092066
C200	C	1.464075	-0.000959	0.241267
C201	C	1.797408	0.332375	0.574600
H202	H	0.719383	-0.444362	-0.483492
H203	H	1.052716	-0.111029	-0.150159
H204	H	1.386049	0.222304	0.183175
F205	F	1.047919	-0.404834	-0.614500
F206	F	1.381252	-0.071501	-0.281167
F207	F	1.714586	0.261832	0.052167
H208	H	1.243765	-1.059255	-0.259533
H209	H	1.577098	-0.725922	0.073801
H210	H	1.910431	-0.392589	0.407134
F211	F	1.225845	-0.253325	-0.871147
F212	F	1.559179	0.080008	-0.537814
F213	F	1.892512	0.413342	-0.204481
H214	H	0.568614	-0.202424	-0.220830
H215	H	0.901947	0.130909	0.112503
H216	H	1.235281	0.464242	0.445836
F217	F	0.434605	-0.234674	-0.255842
F218	F	0.767938	0.098659	0.077492
F219	F	1.101272	0.431993	0.410825
F220	F	1.265250	-0.219744	-0.606657
F221	F	1.598583	0.113589	-0.273324
F222	F	1.931916	0.446923	0.060010
F223	F	1.224598	-0.736171	-0.277117
F224	F	1.557931	-0.402838	0.056216
F225	F	1.891265	-0.069505	0.389550
H226	H	0.718392	-0.202410	-0.220812
H227	H	1.051725	0.130924	0.112522
H228	H	1.385059	0.464257	0.445855
H229	H	0.445619	-0.401398	-0.436834
H230	H	0.778952	-0.068065	-0.103500
H231	H	1.112286	0.265268	0.229833
H232	H	0.569620	-0.444373	-0.483490
H233	H	0.902954	-0.111040	-0.150156
H234	H	1.236287	0.222293	0.183177
H235	H	1.037529	-0.719631	-0.450473
H236	H	1.370862	-0.386298	-0.117139
H237	H	1.704195	-0.052964	0.216194
F238	F	0.853398	-0.412105	-0.448473
F239	F	1.186731	-0.078771	-0.115139
F240	F	1.520065	0.254562	0.218194
H241	H	1.218974	-0.593719	-0.282230
H242	H	1.552307	-0.260385	0.051103
H243	H	1.885640	0.072948	0.384437
H244	H	1.249818	-0.926420	-0.253846
H245	H	1.583152	-0.593087	0.079488
H246	H	1.916485	-0.259753	0.412821
H247	H	1.068374	-1.052333	-0.422093
H248	H	1.401708	-0.718999	-0.088760
H249	H	1.735041	-0.385666	0.244574
H250	H	1.075235	-0.381569	-0.842523
H251	H	1.408568	-0.048236	-0.509190
H252	H	1.741901	0.285097	-0.175856
F253	F	1.031910	-0.577166	-0.455596
F254	F	1.365243	-0.243832	-0.122263
F255	F	1.698576	0.089501	0.211070
H256	H	1.074421	-0.919508	-0.416399
H257	H	1.407755	-0.586175	-0.083066
H258	H	1.741088	-0.252841	0.250268
F259	F	1.239522	-0.241645	-1.090494
F260	F	1.572856	0.091688	-0.757161
F261	F	1.906189	0.425022	-0.423827
H262	H	1.206563	-0.813065	-0.293883
H263	H	1.539897	-0.479732	0.039450
H264	H	1.873230	-0.146398	0.372783
H265	H	1.068236	-0.387538	-0.756003
H266	H	1.401570	-0.054205	-0.422670
H267	H	1.734903	0.279128	-0.089337
H268	H	1.080787	-0.832992	-0.410441
H269	H	1.414120	-0.499659	-0.077108
H270	H	1.747453	-0.166325	0.256225
F271	F	1.014583	-0.433223	-0.947201
F272	F	1.347916	-0.099889	-0.613868
F273	F	1.681250	0.233444	-0.280535
F274	F	1.231919	-0.248141	-0.939364
F275	F	1.565252	0.085192	-0.606031
F276	F	1.898585	0.418525	-0.272697
F277	F	1.272903	-0.213296	-0.757797
F278	F	1.606236	0.120038	-0.424464
F279	F	1.939569	0.453371	-0.091131
F280	F	1.022195	-0.426739	-1.098342
F281	F	1.355528	-0.093406	-0.765009
F282	F	1.688862	0.239928	-0.431675
H283	H	0.842384	-0.245373	-0.267471
H284	H	1.175717	0.087960	0.065862
H285	H	1.509050	0.421294	0.399195
