data_functionalizedCrystal
_audit_creation_method	'MofGen! by Chris Wilmer'
_symmetry_space_group_name_H-M	'P1'
_symmetry_Int_Tables_number	1
_symmetry_cell_setting	triclinic
loop_
_symmetry_equiv_pos_as_xyz
  x,y,z
_cell_length_a	10.489741
_cell_length_b	9.565339
_cell_length_c	10.489741
_cell_angle_alpha	90.000516
_cell_angle_beta	84.539174
_cell_angle_gamma	89.999100
loop_
_atom_site_label
_atom_site_type_symbol
_atom_site_fract_x
_atom_site_fract_y
_atom_site_fract_z
O1	O	1.694053	-0.116173	0.179959
O2	O	1.322857	-0.116194	0.196852
O3	O	1.516901	-0.116175	0.002807
O4	O	1.500009	-0.116192	0.374003
O5	O	1.516886	0.116345	0.002819
O6	O	1.322842	0.116326	0.196864
O7	O	1.694038	0.116347	0.179971
Zn8	Zn	1.508437	0.153254	0.188419
Zn9	Zn	1.508458	-0.153101	0.188403
O10	O	1.499993	0.116328	0.374015
C11	C	1.275318	0.000063	0.195582
C12	C	1.133688	0.000055	0.191765
C13	C	1.065548	0.000074	0.068300
C14	C	0.973429	-0.114571	0.126617
C15	C	0.973448	0.114676	0.126659
C16	C	1.043435	-0.114684	0.250133
C17	C	1.043463	0.114665	0.250157
C18	C	0.951371	-0.000007	0.308564
C19	C	1.515618	0.000084	-0.044718
C20	C	1.511801	0.000082	-0.186348
C21	C	1.741577	0.000087	0.181241
C22	C	1.883206	0.000086	0.185058
N23	N	1.508433	0.362334	0.188429
N24	N	1.508472	-0.362180	0.188383
C25	C	1.418666	0.453528	0.278138
C26	C	1.534163	0.546712	0.303949
C27	C	1.392986	0.546704	0.162629
C28	C	1.623988	0.453466	0.214298
C29	C	1.482735	0.453451	0.072928
C30	C	1.598314	0.546593	0.098690
C31	C	1.388336	0.000064	-0.254488
C32	C	1.446652	0.114712	-0.346604
C33	C	1.446696	-0.114534	-0.346591
C34	C	1.570168	0.114824	-0.276599
C35	C	1.570195	-0.114525	-0.276576
C36	C	1.628600	0.000150	-0.368665
C37	C	1.501277	0.000066	0.421541
C38	C	1.505094	0.000059	0.563170
H39	H	0.901947	-0.000074	0.410168
H40	H	1.622398	-0.211451	-0.245536
H41	H	1.115238	-0.000065	-0.033196
H42	H	1.674328	0.587199	0.022802
H43	H	1.342823	0.412665	0.354073
C44	C	1.251205	0.000189	-0.187418
H45	H	1.238478	-0.081312	-0.136021
H46	H	1.239083	0.080865	-0.134853
H47	H	1.191449	0.001066	-0.250017
C48	C	1.453287	0.398052	-0.058951
H49	H	1.371170	0.429918	-0.077138
H50	H	1.516227	0.431300	-0.122871
H51	H	1.454263	0.298745	-0.058193
H52	H	1.555926	0.587676	0.401606
H53	H	1.295338	0.587664	0.140828
H54	H	1.622356	0.211859	-0.245762
C55	C	0.931526	-0.245494	0.056042
H56	H	0.970987	-0.245354	-0.029319
H57	H	0.956645	-0.326911	0.099078
H58	H	0.841089	-0.244966	0.054802
C59	C	0.931594	0.245614	0.056072
H60	H	0.971079	0.245465	-0.029279
H61	H	0.841164	0.245135	0.054826
H62	H	0.956746	0.327025	0.099111
H63	H	1.394405	0.211633	-0.377611
C64	C	1.085075	-0.245751	0.320669
H65	H	1.175432	-0.244980	0.322637
H66	H	1.044948	-0.246050	0.405760
H67	H	1.060553	-0.327082	0.277114
H68	H	1.074503	0.211590	0.302360
C69	C	1.765848	0.000243	-0.435447
H70	H	1.809487	0.081758	-0.411489
H71	H	1.810042	-0.080421	-0.410412
H72	H	1.762682	-0.000520	-0.525653
H73	H	1.721659	0.412683	0.236217
H74	H	1.394447	-0.211470	-0.377560
