data_functionalizedCrystal
_audit_creation_method	'MofGen! by Chris Wilmer'
_symmetry_space_group_name_H-M	'P1'
_symmetry_Int_Tables_number	1
_symmetry_cell_setting	triclinic
loop_
_symmetry_equiv_pos_as_xyz
  x,y,z
_cell_length_a	23.532361
_cell_length_b	22.610064
_cell_length_c	23.532407
_cell_angle_alpha	89.999397
_cell_angle_beta	97.160827
_cell_angle_gamma	90.003897
loop_
_atom_site_label
_atom_site_type_symbol
_atom_site_fract_x
_atom_site_fract_y
_atom_site_fract_z
O1	O	0.755281	0.049131	-0.069001
O2	O	1.088614	0.382465	0.264333
O3	O	1.421947	0.715798	0.597666
O4	O	0.589414	0.049146	-0.079032
O5	O	0.922747	0.382480	0.254302
O6	O	1.256080	0.715813	0.587635
O7	O	0.677349	0.049127	0.008916
O8	O	1.010682	0.382461	0.342250
O9	O	1.344016	0.715794	0.675583
O10	O	0.667345	0.049150	-0.156949
O11	O	1.000679	0.382483	0.176385
O12	O	1.334012	0.715817	0.509718
O13	O	0.677333	-0.049242	0.008903
O14	O	1.010667	0.284092	0.342237
O15	O	1.344000	0.617425	0.675570
O16	O	0.589398	-0.049223	-0.079045
O17	O	0.922731	0.284110	0.254289
O18	O	1.256065	0.617444	0.587622
O19	O	0.755265	-0.049238	-0.069014
O20	O	1.088599	0.284095	0.264320
O21	O	1.421932	0.617429	0.597653
Zn22	Zn	0.672329	-0.064849	-0.074031
Zn23	Zn	1.005662	0.268485	0.259302
Zn24	Zn	1.338996	0.601818	0.592636
Zn25	Zn	0.672350	0.064757	-0.074014
Zn26	Zn	1.005683	0.398090	0.259319
Zn27	Zn	1.339016	0.731424	0.592652
O28	O	0.667330	-0.049219	-0.156962
O29	O	1.000663	0.284114	0.176372
O30	O	1.333997	0.617447	0.509705
C31	C	0.568189	-0.000037	-0.078787
C32	C	0.901523	0.333297	0.254546
C33	C	1.234856	0.666630	0.587880
C34	C	0.504971	-0.000031	-0.078032
C35	C	0.838304	0.333302	0.255302
C36	C	1.171637	0.666635	0.588635
N37	N	0.672319	-0.153301	-0.074042
N38	N	1.005653	0.180032	0.259291
N39	N	1.338986	0.513366	0.592624
C40	C	0.231736	0.053586	-0.074721
C41	C	0.565069	0.386919	0.258612
C42	C	0.898402	0.720252	0.591945
C43	C	0.291135	0.053587	-0.075436
C44	C	0.624469	0.386921	0.257897
C45	C	0.957802	0.720254	0.591230
O46	O	0.321868	0.099189	-0.075780
O47	O	0.655202	0.432522	0.257553
O48	O	0.988535	0.765856	0.590886
N49	N	0.320832	-0.000034	-0.075804
N50	N	0.654166	0.333299	0.257529
N51	N	0.987499	0.666633	0.590862
C52	C	0.291128	-0.053660	-0.075452
C53	C	0.624461	0.279673	0.257882
C54	C	0.957794	0.613006	0.591215
O55	O	0.321842	-0.099269	-0.075830
O56	O	0.655175	0.234064	0.257503
O57	O	0.988508	0.567398	0.590837
C58	C	0.231730	-0.053661	-0.074733
C59	C	0.565063	0.279672	0.258601
C60	C	0.898396	0.613006	0.591934
C61	C	0.202035	-0.000036	-0.074370
C62	C	0.535368	0.333297	0.258963
C63	C	0.868701	0.666630	0.592296
C64	C	0.202041	0.107206	-0.074358
C65	C	0.535374	0.440539	0.258975
C66	C	0.868707	0.773873	0.592308
C67	C	0.142645	0.107204	-0.073644
C68	C	0.475978	0.440538	0.259689
C69	C	0.809312	0.773871	0.593022
C70	C	0.112944	0.053582	-0.073294
C71	C	0.446277	0.386915	0.260040
C72	C	0.779611	0.720249	0.593373
C73	C	0.142639	-0.000038	-0.073657
C74	C	0.475972	0.333295	0.259677
C75	C	0.809305	0.666628	0.593010
C76	C	0.202026	-0.107287	-0.074376
C77	C	0.535360	0.226047	0.258957
C78	C	0.868693	0.559380	0.592291
C79	C	0.142624	-0.107283	-0.073656
C80	C	0.475958	0.226050	0.259677
C81	C	0.809291	0.559384	0.593010
C82	C	0.112929	-0.053658	-0.073294
C83	C	0.446263	0.279675	0.260039
C84	C	0.779596	0.613008	0.593373
C85	C	0.053542	-0.053662	-0.072592
C86	C	0.386875	0.279671	0.260741
C87	C	0.720209	0.613005	0.594075
N88	N	0.023845	-0.000041	-0.072224
N89	N	0.357178	0.333292	0.261110
N90	N	0.690512	0.666626	0.594443
C91	C	0.053546	0.053581	-0.072575
C92	C	0.386879	0.386915	0.260759
C93	C	0.720212	0.720248	0.594092
C94	C	0.415868	-0.053654	-0.076961
C95	C	0.749201	0.279679	0.256373
C96	C	1.082534	0.613012	0.589706
C97	C	0.475264	-0.053654	-0.077684
C98	C	0.808598	0.279679	0.255650
C99	C	1.141931	0.613013	0.588983
C100	C	0.475268	0.053594	-0.077667
C101	C	0.808601	0.386927	0.255666
C102	C	1.141935	0.720261	0.589000
C103	C	0.415870	0.053593	-0.076948
C104	C	0.749203	0.386926	0.256385
C105	C	1.082537	0.720260	0.589719
C106	C	0.386171	-0.000033	-0.076593
C107	C	0.719504	0.333300	0.256741
C108	C	1.052837	0.666634	0.590074
C109	C	-0.071190	0.053573	-0.071076
C110	C	0.262144	0.386907	0.262257
C111	C	0.595477	0.720240	0.595591
C112	C	-0.130591	0.053567	-0.070365
C113	C	0.202742	0.386900	0.262969
C114	C	0.536076	0.720234	0.596302
C115	C	-0.130589	-0.053680	-0.070378
C116	C	0.202744	0.279653	0.262955
C117	C	0.536077	0.612986	0.596288
C118	C	-0.071193	-0.053674	-0.071093
C119	C	0.262140	0.279659	0.262241
C120	C	0.595473	0.612992	0.595574
C121	C	-0.041495	-0.000043	-0.071440
C122	C	0.291838	0.333291	0.261894
C123	C	0.625172	0.666624	0.595227
O124	O	0.022772	-0.099240	-0.072245
O125	O	0.356105	0.234093	0.261088
O126	O	0.689438	0.567426	0.594422
O127	O	0.022825	0.099182	-0.072189
O128	O	0.356159	0.432516	0.261145
O129	O	0.689492	0.765849	0.594478
C130	C	0.711289	-0.561951	-0.035077
C131	C	1.044622	-0.228618	0.298257
C132	C	1.377956	0.104716	0.631590
C133	C	0.711292	-0.623871	-0.035073
C134	C	1.044625	-0.290537	0.298261
C135	C	1.377959	0.042796	0.631594
O136	O	0.744401	-0.655897	-0.001951
O137	O	1.077734	-0.322563	0.331382
O138	O	1.411068	0.010770	0.664715
N139	N	0.672349	-0.654838	-0.074002
N140	N	1.005683	-0.321505	0.259331
N141	N	1.339016	0.011828	0.592664
C142	C	0.633397	-0.623883	-0.112935
C143	C	0.966730	-0.290549	0.220398
C144	C	1.300064	0.042784	0.553732
O145	O	0.600273	-0.655909	-0.146047
O146	O	0.933606	-0.322575	0.187286
O147	O	1.266940	0.010758	0.520620
C148	C	0.633392	-0.561964	-0.112936
C149	C	0.966725	-0.228631	0.220397
C150	C	1.300059	0.104703	0.553731
C151	C	0.672341	-0.531000	-0.074007
C152	C	1.005674	-0.197666	0.259326
C153	C	1.339008	0.135667	0.592659
C154	C	0.750235	-0.530986	0.003849
C155	C	1.083568	-0.197653	0.337182
C156	C	1.416901	0.135680	0.670516
C157	C	0.750232	-0.469071	0.003844
C158	C	1.083566	-0.135738	0.337177
C159	C	1.416899	0.197596	0.670511
C160	C	0.711284	-0.438120	-0.035087
C161	C	1.044618	-0.104786	0.298247
C162	C	1.377951	0.228547	0.631580
C163	C	0.672339	-0.469084	-0.074013
C164	C	1.005672	-0.135751	0.259321
C165	C	1.339005	0.197583	0.592654
C166	C	0.594438	-0.531009	-0.151865
C167	C	0.927771	-0.197676	0.181468
C168	C	1.261104	0.135657	0.514801
C169	C	0.594435	-0.469086	-0.151863
C170	C	0.927769	-0.135753	0.181471
C171	C	1.261102	0.197580	0.514804
C172	C	0.633385	-0.438122	-0.112934
C173	C	0.966718	-0.104789	0.220399
C174	C	1.300051	0.228545	0.553732
C175	C	0.633388	-0.376217	-0.112948
C176	C	0.966722	-0.042884	0.220385
C177	C	1.300055	0.290450	0.553718
N178	N	0.672331	-0.345250	-0.074018
N179	N	1.005665	-0.011916	0.259315
N180	N	1.338998	0.321417	0.592648
C181	C	0.711279	-0.376201	-0.035088
C182	C	1.044612	-0.042867	0.298246
C183	C	1.377946	0.290466	0.631579
C184	C	0.633410	-0.753916	-0.112929
C185	C	0.966744	-0.420583	0.220404
C186	C	1.300077	-0.087250	0.553737
C187	C	0.633418	-0.815834	-0.112932
C188	C	0.966751	-0.482501	0.220402
C189	C	1.300084	-0.149167	0.553735
C190	C	0.711312	-0.815818	-0.035068
C191	C	1.044645	-0.482484	0.298265
C192	C	1.377979	-0.149151	0.631598
C193	C	0.711307	-0.753899	-0.035069
C194	C	1.044640	-0.420566	0.298264
C195	C	1.377974	-0.087232	0.631597
C196	C	0.672353	-0.722949	-0.074000
C197	C	1.005686	-0.389615	0.259334
C198	C	1.339020	-0.056282	0.592667
C199	C	0.711272	-0.246173	-0.035102
C200	C	1.044605	0.087160	0.298232
C201	C	1.377938	0.420493	0.631565
C202	C	0.711267	-0.184252	-0.035112
C203	C	1.044601	0.149081	0.298222
C204	C	1.377934	0.482414	0.631555
C205	C	0.633371	-0.184274	-0.112973
C206	C	0.966705	0.149059	0.220361
C207	C	1.300038	0.482393	0.553694
C208	C	0.633377	-0.246190	-0.112965
C209	C	0.966711	0.087144	0.220369
C210	C	1.300044	0.420477	0.553702
C211	C	0.672330	-0.277138	-0.074024
C212	C	1.005663	0.056195	0.259309
C213	C	1.338996	0.389529	0.592642
O214	O	0.600295	-0.344152	-0.146051
O215	O	0.933628	-0.010819	0.187282
O216	O	1.266961	0.322515	0.520616
O217	O	0.744393	-0.344167	-0.001976
O218	O	1.077726	-0.010834	0.331357
O219	O	1.411059	0.322499	0.664690
C220	C	0.776489	-0.000054	-0.069258
C221	C	1.109823	0.333279	0.264075
C222	C	1.443156	0.666613	0.597408
C223	C	0.839708	-0.000055	-0.070014
C224	C	1.173041	0.333278	0.263320
C225	C	1.506375	0.666611	0.596653
C226	C	0.677086	-0.000059	0.030126
C227	C	1.010420	0.333275	0.363459
C228	C	1.343753	0.666608	0.696793
C229	C	0.676320	-0.000063	0.093343
C230	C	1.009654	0.333270	0.426676
C231	C	1.342987	0.666604	0.760009
N232	N	0.672364	0.153209	-0.073998
N233	N	1.005697	0.486543	0.259335
N234	N	1.339031	0.819876	0.592668
C235	C	0.667592	-0.000032	-0.178171
C236	C	1.000926	0.333302	0.155162
C237	C	1.334259	0.666635	0.488495
C238	C	0.668358	-0.000023	-0.241388
C239	C	1.001692	0.333310	0.091945
C240	C	1.335025	0.666643	0.425279
C241	C	0.723555	-0.000035	0.492454
C242	C	1.056888	0.333298	0.825787
C243	C	1.390222	0.666632	1.159120
C244	C	0.722844	-0.000030	0.551854
C245	C	1.056177	0.333303	0.885187
C246	C	1.389510	0.666636	1.218521
O247	O	0.766630	-0.000013	0.588606
O248	O	1.099964	0.333321	0.921939
O249	O	1.433297	0.666654	1.255272
N250	N	0.670566	-0.000026	0.574471
N251	N	1.003899	0.333307	0.907805
N252	N	1.337233	0.666641	1.241138
C253	C	0.618997	-0.000020	0.537685
C254	C	0.952330	0.333313	0.871018
C255	C	1.285663	0.666646	1.204352
O256	O	0.574465	-0.000016	0.562377
O257	O	0.907799	0.333318	0.895711
O258	O	1.241132	0.666651	1.229044
C259	C	0.619709	-0.000021	0.478286
C260	C	0.953042	0.333313	0.811619
C261	C	1.286375	0.666646	1.144953
C262	C	0.671990	-0.000031	0.455672
C263	C	1.005323	0.333302	0.789006
C264	C	1.338656	0.666636	1.122339
C265	C	0.775832	-0.000045	0.469839
C266	C	1.109165	0.333289	0.803173
C267	C	1.442498	0.666622	1.136506
C268	C	0.776543	-0.000050	0.410443
C269	C	1.109876	0.333283	0.743777
C270	C	1.443210	0.666616	1.077110
C271	C	0.724977	-0.000046	0.373662
C272	C	1.058311	0.333287	0.706995
C273	C	1.391644	0.666620	1.040328
C274	C	0.672701	-0.000037	0.396276
C275	C	1.006034	0.333297	0.729610
C276	C	1.339367	0.666630	1.062943
C277	C	0.568140	-0.000011	0.441501
C278	C	0.901473	0.333323	0.774834
C279	C	1.234807	0.666656	1.108168
C280	C	0.568857	-0.000011	0.382099
C281	C	0.902190	0.333323	0.715432
C282	C	1.235523	0.666656	1.048765
C283	C	0.621137	-0.000021	0.359485
C284	C	0.954471	0.333312	0.692818
C285	C	1.287804	0.666646	1.026151
C286	C	0.621847	-0.000038	0.300099
C287	C	0.955180	0.333295	0.633432
C288	C	1.288513	0.666628	0.966765
N289	N	0.674124	-0.000043	0.277481
N290	N	1.007457	0.333291	0.610815
N291	N	1.340791	0.666624	0.944148
C292	C	0.725690	-0.000047	0.314263
C293	C	1.059023	0.333287	0.647596
C294	C	1.392356	0.666620	0.980929
C295	C	0.617505	-0.000019	0.662427
C296	C	0.950839	0.333315	0.995761
C297	C	1.284172	0.666648	1.329094
C298	C	0.616793	-0.000023	0.721825
C299	C	0.950126	0.333311	1.055158
C300	C	1.283459	0.666644	1.388492
C301	C	0.720640	-0.000032	0.735990
C302	C	1.053973	0.333302	1.069323
C303	C	1.387306	0.666635	1.402657
C304	C	0.721352	-0.000032	0.676591
C305	C	1.054685	0.333301	1.009924
C306	C	1.388018	0.666635	1.343258
C307	C	0.669783	-0.000023	0.639810
C308	C	1.003116	0.333310	0.973143
C309	C	1.336449	0.666644	1.306477
C310	C	0.727179	-0.000059	0.189526
C311	C	1.060513	0.333274	0.522860
C312	C	1.393846	0.666608	0.856193
C313	C	0.727886	-0.000067	0.130124
C314	C	1.061219	0.333266	0.463458
C315	C	1.394553	0.666600	0.796791
C316	C	0.624039	-0.000055	0.115965
C317	C	0.957372	0.333278	0.449298
C318	C	1.290706	0.666612	0.782631
C319	C	0.623332	-0.000050	0.175361
C320	C	0.956665	0.333283	0.508695
C321	C	1.289999	0.666617	0.842028
C322	C	0.674907	-0.000050	0.212141
C323	C	1.008240	0.333283	0.545475
C324	C	1.341574	0.666617	0.878808
O325	O	0.578083	-0.000054	0.263312
O326	O	0.911416	0.333280	0.596645
O327	O	1.244749	0.666613	0.929979
O328	O	0.770214	-0.000043	0.289562
O329	O	1.103547	0.333290	0.622896
O330	O	1.436880	0.666623	0.956229
H331	H	-0.047016	0.097246	-0.071359
H332	H	0.286317	0.430579	0.261974
H333	H	0.619650	0.763912	0.595307
C334	C	0.551588	-0.435042	-0.194688
C335	C	0.884921	-0.101709	0.138645
C336	C	1.218255	0.231625	0.471979
H337	H	0.557159	-0.393730	-0.189116
H338	H	0.890492	-0.060397	0.144218
H339	H	1.223825	0.272937	0.477551
H340	H	0.557554	-0.445193	-0.232665
H341	H	0.890888	-0.111860	0.100668
H342	H	1.224221	0.221474	0.434002
H343	H	0.513615	-0.445195	-0.188695
H344	H	0.846948	-0.111861	0.144638
H345	H	1.180281	0.221472	0.477972
H346	H	0.601667	-0.271401	-0.144669
H347	H	0.935000	0.061932	0.188664
H348	H	1.268333	0.395265	0.521997
H349	H	0.118445	-0.150953	-0.073372
H350	H	0.451779	0.182380	0.259961
H351	H	0.785112	0.515714	0.593295
C352	C	0.793088	-0.435015	0.046652
C353	C	1.126421	-0.101682	0.379986
C354	C	1.459754	0.231652	0.713319
H355	H	0.787521	-0.393704	0.041073
H356	H	1.120854	-0.060371	0.374407
H357	H	1.454187	0.272963	0.707740
H358	H	0.787135	-0.445158	0.084636
H359	H	1.120469	-0.111824	0.417969
H360	H	1.453802	0.221509	0.751302
H361	H	0.831056	-0.445170	0.040646
H362	H	1.164389	-0.111837	0.373979
H363	H	1.497722	0.221496	0.707313
H364	H	0.763923	-0.000040	0.658183
H365	H	1.097257	0.333294	0.991517
H366	H	1.430590	0.666627	1.324850
H367	H	0.562721	-0.556212	-0.183564
H368	H	0.896055	-0.222879	0.149769
H369	H	1.229388	0.110455	0.483103
H370	H	0.769176	-0.000057	0.219466
H371	H	1.102510	0.333277	0.552799
H372	H	1.435843	0.666610	0.886133
H373	H	0.582056	-0.000054	0.086007
H374	H	0.915389	0.333279	0.419340
H375	H	1.248723	0.666613	0.752673
H376	H	0.601662	-0.159064	-0.144671
H377	H	0.934995	0.174270	0.188662
H378	H	1.268328	0.507603	0.521995
H379	H	0.742986	-0.159043	-0.003411
H380	H	1.076320	0.174290	0.329922
H381	H	1.409653	0.507624	0.663255
C382	C	-0.163261	-0.112660	-0.069944
C383	C	0.170072	0.220673	0.263390
C384	C	0.503406	0.554007	0.596723
H385	H	-0.202886	-0.104976	-0.069446
H386	H	0.130447	0.228357	0.263888
H387	H	0.463781	0.561690	0.597221
H388	H	-0.158081	-0.134725	-0.103263
H389	H	0.175252	0.198609	0.230071
H390	H	0.508586	0.531942	0.563404
H391	H	-0.148976	-0.134663	-0.036828
H392	H	0.184358	0.198671	0.296506
H393	H	0.517691	0.532004	0.629839
H394	H	0.770461	-0.000077	0.111716
H395	H	1.103794	0.333256	0.445049
H396	H	1.437128	0.666590	0.778382
C397	C	0.109990	0.166192	-0.073231
C398	C	0.443323	0.499525	0.260102
C399	C	0.776657	0.832859	0.593435
H400	H	0.136194	0.198123	-0.073535
H401	H	0.469527	0.531456	0.259799
H402	H	0.802861	0.864790	0.593132
H403	H	0.082280	0.168438	-0.106163
H404	H	0.415614	0.501772	0.227170
H405	H	0.748947	0.835105	0.560504
H406	H	0.091360	0.168412	-0.039728
H407	H	0.424693	0.501745	0.293606
H408	H	0.758027	0.835078	0.626939
C409	C	0.834052	-0.000050	0.385575
C410	C	1.167386	0.333283	0.718909
C411	C	1.500719	0.666616	1.052242
H412	H	0.864656	-0.000045	0.415995
H413	H	1.197990	0.333288	0.749328
H414	H	1.531323	0.666622	1.082661
H415	H	0.836493	-0.034352	0.362698
H416	H	1.169826	0.298981	0.696031
H417	H	1.503159	0.632314	1.029364
H418	H	0.836492	0.034259	0.362701
H419	H	1.169826	0.367592	0.696035
H420	H	1.503159	0.700926	1.029368
H421	H	-0.047016	-0.097340	-0.071399
H422	H	0.286317	0.235993	0.261934
H423	H	0.619651	0.569327	0.595268
H424	H	0.391696	0.097259	-0.076653
H425	H	0.725030	0.430592	0.256680
H426	H	1.058363	0.763926	0.590014
H427	H	-0.154766	0.097237	-0.070071
H428	H	0.178567	0.430570	0.263262
H429	H	0.511900	0.763903	0.596595
C430	C	0.832559	-0.000054	0.510291
C431	C	1.165892	0.333280	0.843624
C432	C	1.499225	0.666613	1.176957
H433	H	0.863790	-0.000064	0.488306
H434	H	1.197123	0.333269	0.821640
H435	H	1.530456	0.666603	1.154973
H436	H	0.834455	0.034247	0.533761
H437	H	1.167789	0.367580	0.867094
H438	H	1.501122	0.700914	1.200427
H439	H	0.834435	-0.034364	0.533753
H440	H	1.167768	0.298969	0.867086
H441	H	1.501101	0.632302	1.200419
H442	H	0.226217	0.150874	-0.074642
H443	H	0.559550	0.484207	0.258691
H444	H	0.892884	0.817541	0.592025
H445	H	0.742989	-0.271365	-0.003392
H446	H	1.076323	0.061969	0.329941
H447	H	1.409656	0.395302	0.663275
H448	H	0.580761	-0.000058	0.193774
H449	H	0.914094	0.333275	0.527108
H450	H	1.247427	0.666609	0.860441
C451	C	0.754149	-0.849872	0.007761
C452	C	1.087482	-0.516539	0.341094
C453	C	1.420816	-0.183205	0.674428
H454	H	0.748566	-0.891183	0.002188
H455	H	1.081899	-0.557849	0.335521
H456	H	1.415233	-0.224516	0.668854
H457	H	0.792124	-0.839725	0.001781
H458	H	1.125458	-0.506392	0.335114
H459	H	1.458791	-0.173058	0.668447
H460	H	0.748173	-0.839725	0.045739
H461	H	1.081507	-0.506392	0.379073
H462	H	1.414840	-0.173058	0.712406
H463	H	0.781951	-0.556182	0.035554
H464	H	1.115284	-0.222848	0.368887
H465	H	1.448617	0.110485	0.702220
H466	H	0.762627	-0.000032	0.765949
H467	H	1.095960	0.333301	1.099282
H468	H	1.429294	0.666634	1.432615
H469	H	0.574220	-0.000024	0.740232
H470	H	0.907554	0.333309	1.073565
H471	H	1.240887	0.666642	1.406898
C472	C	0.512131	-0.000001	0.341640
C473	C	0.845464	0.333332	0.674974
C474	C	1.178797	0.666665	1.008307
H475	H	0.520038	-0.000000	0.303024
H476	H	0.853371	0.333333	0.636358
H477	H	1.186704	0.666666	0.969691
H478	H	0.490672	-0.034300	0.348467
H479	H	0.824005	0.299034	0.681800
H480	H	1.157338	0.632367	1.015134
H481	H	0.490690	0.034312	0.348465
H482	H	0.824024	0.367645	0.681798
H483	H	1.157357	0.700978	1.015132
C484	C	0.234678	-0.166275	-0.074776
C485	C	0.568011	0.167058	0.258557
C486	C	0.901344	0.500392	0.591891
H487	H	0.208475	-0.198205	-0.074458
H488	H	0.541808	0.135128	0.258875
H489	H	0.875141	0.468462	0.592208
H490	H	0.253314	-0.168506	-0.108271
H491	H	0.586647	0.164828	0.225062
H492	H	0.919981	0.498161	0.558395
H493	H	0.262383	-0.168512	-0.041836
H494	H	0.595716	0.164821	0.291498
H495	H	0.929050	0.498154	0.624831
H496	H	0.499461	0.097256	-0.077952
H497	H	0.832795	0.430589	0.255381
H498	H	1.166128	0.763923	0.588714
C499	C	0.560775	-0.000020	0.621973
C500	C	0.894109	0.333313	0.955306
C501	C	1.227442	0.666647	1.288639
H502	H	0.529543	-0.000023	0.643954
H503	H	0.862876	0.333310	0.977288
H504	H	1.196209	0.666644	1.310621
H505	H	0.558893	0.034282	0.598504
H506	H	0.892226	0.367615	0.931837
H507	H	1.225560	0.700948	1.265171
H508	H	0.558889	-0.034330	0.598510
H509	H	0.892222	0.299004	0.931843
H510	H	1.225556	0.632337	1.265176
H511	H	0.743022	-0.728691	-0.003370
H512	H	1.076356	-0.395358	0.329963
H513	H	1.409689	-0.062025	0.663297
C514	C	0.590574	-0.849888	-0.155753
C515	C	0.923908	-0.516555	0.177580
C516	C	1.257241	-0.183221	0.510913
H517	H	0.567376	-0.822581	-0.178934
H518	H	0.900710	-0.489248	0.154400
H519	H	1.234043	-0.155914	0.487733
H520	H	0.610919	-0.874045	-0.179356
H521	H	0.944252	-0.540711	0.153978
H522	H	1.277586	-0.207378	0.487311
H523	H	0.566983	-0.874040	-0.135382
H524	H	0.900316	-0.540707	0.197951
H525	H	1.233649	-0.207373	0.531284
C526	C	0.510632	0.000008	0.466366
C527	C	0.843965	0.333341	0.799699
C528	C	1.177298	0.666674	1.133033
H529	H	0.517584	0.000006	0.507010
H530	H	0.850917	0.333339	0.840344
H531	H	1.184250	0.666672	1.173677
H532	H	0.489427	0.034316	0.453714
H533	H	0.822761	0.367649	0.787047
H534	H	1.156094	0.700983	1.120381
H535	H	0.489406	-0.034295	0.453719
H536	H	0.822739	0.299038	0.787053
H537	H	1.156072	0.632371	1.120386
C538	C	0.507922	-0.112641	-0.078085
C539	C	0.841255	0.220692	0.255249
C540	C	1.174589	0.554026	0.588582
H541	H	0.481721	-0.144573	-0.077769
H542	H	0.815055	0.188760	0.255565
H543	H	1.148388	0.522093	0.588898
H544	H	0.526562	-0.114871	-0.111578
H545	H	0.859896	0.218463	0.221756
H546	H	1.193229	0.551796	0.555089
H547	H	0.535624	-0.114874	-0.045142
H548	H	0.868958	0.218459	0.288191
H549	H	1.202291	0.551792	0.621525
H550	H	0.391689	-0.097326	-0.076678
H551	H	0.725023	0.236008	0.256655
H552	H	1.058356	0.569341	0.589988
H553	H	0.601691	-0.728720	-0.144636
H554	H	0.935024	-0.395386	0.188698
H555	H	1.268357	-0.062053	0.522031
