data_functionalizedCrystal
_audit_creation_method	'MofGen! by Chris Wilmer'
_symmetry_space_group_name_H-M	'P1'
_symmetry_Int_Tables_number	1
_symmetry_cell_setting	triclinic
loop_
_symmetry_equiv_pos_as_xyz
  x,y,z
_cell_length_a	14.519709
_cell_length_b	17.038272
_cell_length_c	13.596369
_cell_angle_alpha	89.993837
_cell_angle_beta	90.000291
_cell_angle_gamma	87.395851
loop_
_atom_site_label
_atom_site_type_symbol
_atom_site_fract_x
_atom_site_fract_y
_atom_site_fract_z
O1	O	1.231711	0.102502	-0.081664
O2	O	1.731711	0.602502	0.418336
O3	O	0.964158	0.114573	-0.081694
O4	O	1.464158	0.614573	0.418306
O5	O	1.096344	-0.005280	-0.081671
O6	O	1.596344	0.494720	0.418329
O7	O	1.099525	0.222356	-0.081686
O8	O	1.599525	0.722356	0.418314
O9	O	1.096330	-0.005286	0.081912
O10	O	1.596330	0.494714	0.581912
O11	O	0.964143	0.114567	0.081889
O12	O	1.464143	0.614567	0.581889
O13	O	1.231696	0.102496	0.081919
O14	O	1.731696	0.602496	0.581919
Zn15	Zn	1.097918	0.108530	0.107877
Zn16	Zn	1.597918	0.608530	0.607877
Zn17	Zn	1.097937	0.108539	-0.107651
Zn18	Zn	1.597937	0.608539	0.392349
O19	O	1.099510	0.222349	0.081897
O20	O	1.599510	0.722349	0.581897
C21	C	0.929748	0.114008	0.000094
C22	C	1.429748	0.614008	0.500094
C23	C	0.827237	0.112322	0.000083
C24	C	1.327237	0.612322	0.500083
C25	C	1.093444	-0.034416	0.000120
C26	C	1.593444	0.465584	0.500120
C27	C	1.084814	-0.121223	0.000119
C28	C	1.584814	0.378777	0.500119
C29	C	0.451867	0.106116	0.000128
C30	C	0.951867	0.606116	0.500128
C31	C	0.556307	0.107839	0.000115
C32	C	1.056307	0.607839	0.500115
C33	C	0.639549	0.109219	0.000104
C34	C	1.139549	0.609219	0.500104
C35	C	0.743995	0.110942	0.000093
C36	C	1.243995	0.610942	0.500093
C37	C	1.164047	-0.171209	0.000129
C38	C	1.664047	0.328791	0.500129
C39	C	1.155933	-0.252773	0.000118
C40	C	1.655933	0.247227	0.500118
C41	C	1.068585	-0.284349	0.000105
C42	C	1.568585	0.215651	0.500105
C43	C	0.989347	-0.234357	0.000092
C44	C	1.489347	0.265643	0.500092
C45	C	0.997462	-0.152795	0.000096
C46	C	1.497462	0.347205	0.500096
C47	C	1.039916	-0.530153	0.000089
C48	C	1.539916	-0.030153	0.500089
C49	C	1.031807	-0.611722	0.000088
C50	C	1.531807	-0.111722	0.500088
C51	C	1.198394	-0.630132	0.000112
C52	C	1.698394	-0.130132	0.500112
C53	C	1.206502	-0.548568	0.000122
C54	C	1.706502	-0.048568	0.500122
C55	C	1.127263	-0.498583	0.000104
C56	C	1.627263	0.001417	0.500104
C57	C	1.060289	-0.367720	0.000098
C58	C	1.560289	0.132280	0.500098
C59	C	1.135560	-0.415213	0.000104
C60	C	1.635560	0.084787	0.500104
C61	C	1.266107	0.103062	0.000129
C62	C	1.766107	0.603062	0.500129
C63	C	1.368617	0.104748	0.000134
C64	C	1.868617	0.604748	0.500134
C65	C	1.102410	0.251486	0.000103
C66	C	1.602410	0.751486	0.500103
C67	C	1.111040	0.338292	0.000098
C68	C	1.611040	0.838292	0.500098
N69	N	1.097911	0.108524	0.254968
N70	N	1.597911	0.608524	0.754968
N71	N	1.097950	0.108539	-0.254743
N72	N	1.597950	0.608539	0.245257
C73	C	1.097936	0.108540	0.656259
C74	C	1.597936	0.608540	1.156259
C75	C	1.097926	0.108538	0.544608
C76	C	1.597926	0.608538	1.044608
C77	C	1.097924	0.108533	0.455617
C78	C	1.597924	0.608533	0.955617
C79	C	1.097913	0.108530	0.343959
C80	C	1.597913	0.608530	0.843959
H81	H	1.235175	-0.145506	0.000145
H82	H	1.735175	0.354494	0.500145
H83	H	0.975394	-0.489465	0.000074
H84	H	1.475394	0.010535	0.500074
H85	H	0.960675	-0.637427	0.000093
H86	H	1.460675	-0.137427	0.500093
H87	H	1.262906	-0.670838	0.000125
H88	H	1.762906	-0.170838	0.500125
C89	C	1.242068	-0.306913	0.000187
C90	C	1.742068	0.193087	0.500187
C91	C	1.320300	-0.261803	0.000234
C92	C	1.820300	0.238197	0.500234
C93	C	1.399668	-0.311649	0.000311
C94	C	1.899668	0.188351	0.500311
H95	H	1.242509	-0.339125	-0.056843
H96	H	1.742509	0.160875	0.443157
H97	H	1.242406	-0.339107	0.057254
H98	H	1.742406	0.160893	0.557254
H99	H	1.319963	-0.229622	-0.056827
H100	H	1.819963	0.270378	0.443173
H101	H	1.319890	-0.229592	0.057260
H102	H	1.819890	0.270408	0.557260
H103	H	1.400005	-0.343843	0.057378
H104	H	1.900005	0.156157	0.557378
H105	H	1.400099	-0.343859	-0.056720
H106	H	1.900099	0.156141	0.443280
H107	H	1.452757	-0.281049	0.000352
H108	H	1.952757	0.218951	0.500352
C109	C	1.301420	-0.514439	0.000090
C110	C	1.801420	-0.014439	0.500090
C111	C	1.369074	-0.575673	0.000075
C112	C	1.869074	-0.075673	0.500075
C113	C	1.456524	-0.544263	0.000041
C114	C	1.956524	-0.044263	0.500041
H115	H	1.308167	-0.483023	0.057125
H116	H	1.808167	0.016977	0.557125
H117	H	1.308107	-0.483018	-0.056973
H118	H	1.808107	0.016982	0.443027
H119	H	1.362391	-0.607080	0.057133
H120	H	1.862391	-0.107080	0.557133
H121	H	1.362358	-0.607093	-0.056955
H122	H	1.862358	-0.107093	0.443045
H123	H	1.463211	-0.512843	-0.057022
H124	H	1.963211	-0.012843	0.442978
H125	H	1.463261	-0.512848	0.057076
H126	H	1.963261	-0.012848	0.557076
H127	H	1.502438	-0.585805	0.000022
H128	H	2.002438	-0.085805	0.500022
C129	C	0.965374	-0.401854	0.000038
C130	C	1.465374	0.098146	0.500038
C131	C	0.897713	-0.340625	0.000010
C132	C	1.397713	0.159375	0.500010
C133	C	0.810267	-0.372041	-0.000063
C134	C	1.310267	0.127959	0.499937
H135	H	0.958613	-0.433287	0.057063
H136	H	1.458613	0.066713	0.557063
H137	H	0.958708	-0.433258	-0.057035
H138	H	1.458708	0.066742	0.442965
H139	H	0.904376	-0.309234	0.057076
H140	H	1.404376	0.190766	0.557076
H141	H	0.904443	-0.309187	-0.057011
H142	H	1.404443	0.190813	0.442989
H143	H	0.803601	-0.403446	-0.057136
H144	H	1.303601	0.096554	0.442864
H145	H	0.803516	-0.403474	0.056963
H146	H	1.303516	0.096526	0.556963
H147	H	0.764349	-0.330503	-0.000091
H148	H	1.264349	0.169497	0.499909
H149	H	0.918226	-0.260072	0.000075
H150	H	1.418226	0.239928	0.500075
H151	H	0.932942	-0.112096	0.000087
H152	H	1.432942	0.387904	0.500087
H153	H	1.206678	-0.389500	0.000093
H154	H	1.706678	0.110500	0.500093
