data_functionalizedCrystal
_audit_creation_method	'MofGen! by Chris Wilmer'
_symmetry_space_group_name_H-M	'P1'
_symmetry_Int_Tables_number	1
_symmetry_cell_setting	triclinic
loop_
_symmetry_equiv_pos_as_xyz
  x,y,z
_cell_length_a	14.908618
_cell_length_b	19.121266
_cell_length_c	19.122798
_cell_angle_alpha	85.292881
_cell_angle_beta	90.804463
_cell_angle_gamma	89.274997
loop_
_atom_site_label
_atom_site_type_symbol
_atom_site_fract_x
_atom_site_fract_y
_atom_site_fract_z
Zn1	Zn	-1.334521	0.359403	-0.472299
Zn2	Zn	-1.334298	0.472145	-0.359695
Zn3	Zn	-1.190917	0.347770	-0.347947
Zn4	Zn	-1.177762	0.469661	-0.469954
O5	O	-1.259375	0.412245	-0.412474
O6	O	-1.460102	0.380266	-0.463260
O7	O	-1.320690	0.451818	-0.259952
O8	O	-1.215565	0.251118	-0.360508
O9	O	-1.459938	0.463098	-0.380530
O10	O	-1.321071	0.259665	-0.451868
O11	O	-1.215348	0.360440	-0.251321
O12	O	-1.063562	0.358031	-0.358234
O13	O	-1.193145	0.458863	-0.568450
O14	O	-1.053897	0.447584	-0.447871
O15	O	-1.308315	0.377857	-0.570173
O16	O	-1.307935	0.570011	-0.378256
O17	O	-1.192929	0.568185	-0.459263
C18	C	-1.026160	0.401276	-0.401524
C19	C	-0.926388	0.396601	-0.396857
C20	C	-1.269810	0.229219	-0.405139
C21	C	-1.274257	0.151224	-0.402014
C22	C	-0.728890	0.481202	-0.481311
C23	C	-0.635145	0.476812	-0.476928
C24	C	-0.645152	0.383427	-0.383712
C25	C	-0.738897	0.387818	-0.388095
C26	C	-0.780762	0.436707	-0.436895
C27	C	-0.874509	0.441100	-0.441274
C28	C	-0.884514	0.347713	-0.348062
C29	C	-0.790769	0.343323	-0.343679
C30	C	-1.302434	-0.289849	-0.382249
C31	C	-1.298254	-0.216565	-0.385185
C32	C	-1.236282	-0.180873	-0.428825
C33	C	-1.178492	-0.218468	-0.469536
C34	C	-1.182678	-0.291751	-0.466604
C35	C	-1.220653	0.040346	-0.439793
C36	C	-1.216470	0.113634	-0.442721
C37	C	-1.336233	0.115532	-0.358370
C38	C	-1.340410	0.042248	-0.355438
C39	C	-1.282623	0.004659	-0.396152
C40	C	-1.232005	-0.105965	-0.431825
C41	C	-1.286905	-0.070247	-0.393155
C42	C	-0.493500	0.423251	-0.423462
C43	C	-0.593272	0.427927	-0.428130
C44	C	-1.249004	0.594560	-0.419796
C45	C	-1.244648	0.672561	-0.422956
C46	C	-1.269477	0.405088	-0.230178
C47	C	-1.273961	0.401858	-0.152192
C48	C	-1.249288	0.419381	-0.595482
C49	C	-1.244989	0.422421	-0.673469
C50	C	-1.302421	0.381429	0.288826
C51	C	-1.298185	0.384467	0.215551
C52	C	-1.236519	0.428501	0.179981
C53	C	-1.179081	0.469495	0.217692
C54	C	-1.183314	0.466453	0.290966
C55	C	-1.220755	0.439810	-0.041207
C56	C	-1.216528	0.442850	-0.114487
C57	C	-1.335632	0.357821	-0.116623
C58	C	-1.339863	0.354786	-0.043347
C59	C	-1.282421	0.395777	-0.005643
C60	C	-1.232189	0.431609	0.105082
C61	C	-1.286748	0.392665	0.069256
H62	H	-0.908594	0.480910	-0.481009
H63	H	-1.345310	-0.185962	-0.352037
H64	H	-1.173599	0.009747	-0.472943
Cl65	Cl	-1.380341	-0.334712	-0.327380
Cl66	Cl	-1.417389	0.299426	0.001363
H67	H	-1.128037	-0.189402	-0.505072
Cl68	Cl	-1.148543	0.491342	0.006184
Cl69	Cl	-0.569936	0.532749	-0.532769
Cl70	Cl	-1.364258	0.337302	0.113973
Cl71	Cl	-1.154673	0.486968	0.060360
H72	H	-0.926759	0.311484	-0.311894
H73	H	-1.383281	0.146145	-0.325224
Cl74	Cl	-1.418333	-0.002616	-0.300585
H75	H	-1.166015	0.142693	-0.478270
Cl76	Cl	-1.370427	0.332964	0.168149
Cl77	Cl	-0.781524	0.542668	-0.542651
Cl78	Cl	-0.592505	0.321961	-0.322379
H79	H	-1.382396	0.324447	-0.147330
H80	H	-1.181546	-0.076896	-0.467355
H81	H	-1.166310	0.478710	-0.143445
Cl82	Cl	-1.379952	0.326072	0.333534
Cl83	Cl	-1.110031	-0.339007	-0.517783
Cl84	Cl	-0.738129	0.281863	-0.282337
H85	H	-1.337366	-0.099310	-0.357627
H86	H	-1.128868	0.505346	0.188726
Cl87	Cl	-1.111107	0.517986	0.338368
