data_functionalizedCrystal
_audit_creation_method	'MofGen! by Chris Wilmer'
_symmetry_space_group_name_H-M	'P1'
_symmetry_Int_Tables_number	1
_symmetry_cell_setting	triclinic
loop_
_symmetry_equiv_pos_as_xyz
  x,y,z
_cell_length_a	27.731993
_cell_length_b	27.731996
_cell_length_c	12.376457
_cell_angle_alpha	101.172962
_cell_angle_beta	78.815802
_cell_angle_gamma	82.620891
loop_
_atom_site_label
_atom_site_type_symbol
_atom_site_fract_x
_atom_site_fract_y
_atom_site_fract_z
O1	O	0.650246	0.048086	-0.093709
O2	O	0.509454	0.056852	-0.093780
O3	O	0.584233	-0.017928	-0.093717
O4	O	0.575466	0.122866	-0.093771
O5	O	0.565545	0.000742	0.094279
O6	O	0.490766	0.075522	0.094217
O7	O	0.631558	0.066755	0.094288
Zn8	Zn	0.558195	0.074103	0.124101
Zn9	Zn	0.582817	0.049505	-0.123593
O10	O	0.556778	0.141535	0.094226
C11	C	0.482103	0.066006	0.000210
C12	C	0.428450	0.065461	0.000184
C13	C	0.055472	0.051359	-0.102237
C14	C	0.257132	0.053423	-0.102268
O15	O	0.291869	0.045016	-0.189423
N16	N	0.272165	0.063858	0.000206
C17	C	0.236781	0.073775	0.102696
O18	O	0.254195	0.082693	0.189856
C19	C	0.035122	0.071707	0.102726
C20	C	0.020091	0.061276	0.000245
C21	C	0.040440	0.040928	-0.204710
C22	C	-0.009973	0.040415	-0.204701
C23	C	-0.045353	0.050333	-0.102219
C24	C	-0.030322	0.060763	0.000254
C25	C	-0.000261	0.081621	0.205215
C26	C	-0.050678	0.081101	0.205213
C27	C	-0.065709	0.070671	0.102732
C28	C	-0.116115	0.070167	0.102745
N29	N	-0.131148	0.059732	0.000270
C30	C	-0.095768	0.049815	-0.102212
C31	C	0.342655	0.074861	0.102673
C32	C	0.393069	0.075378	0.102666
C33	C	0.413417	0.055026	-0.102299
C34	C	0.363001	0.054511	-0.102290
C35	C	0.327621	0.064425	0.000198
C36	C	-0.201638	0.048738	-0.102185
C37	C	-0.252056	0.048228	-0.102167
C38	C	-0.272399	0.068578	0.102797
C39	C	-0.221986	0.069091	0.102779
C40	C	-0.186606	0.059169	0.000279
O41	O	-0.150877	0.078565	0.189854
O42	O	-0.113191	0.040887	-0.189359
C43	C	0.105884	0.051872	-0.102246
C44	C	0.120916	0.062303	0.000227
C45	C	0.085535	0.072220	0.102709
C46	C	0.171330	0.062821	0.000220
C47	C	0.206711	0.052903	-0.102262
C48	C	0.191677	0.042468	-0.204736
C49	C	0.141265	0.041955	-0.204727
C50	C	0.100569	0.082656	0.205184
C51	C	0.150982	0.083168	0.205166
C52	C	0.186363	0.073251	0.102685
C53	C	0.574709	-0.026600	0.000285
C54	C	0.574165	-0.080255	0.000296
C55	C	0.580942	-0.423153	-0.102238
C56	C	0.578883	-0.624813	-0.102259
O57	O	0.587260	-0.659539	-0.189412
N58	N	0.568441	-0.639853	0.000217
C59	C	0.558509	-0.604475	0.102705
O60	O	0.549574	-0.621894	0.189867
C61	C	0.560564	-0.402815	0.102725
C62	C	0.571013	-0.387779	0.000242
C63	C	0.591389	-0.408116	-0.204712
C64	C	0.591907	-0.357704	-0.204706
C65	C	0.581977	-0.322330	-0.102225
C66	C	0.571530	-0.337367	0.000249
C67	C	0.550629	-0.367437	0.205212
C68	C	0.551143	-0.317020	0.205208
C69	C	0.561591	-0.301983	0.102725
C70	C	0.562118	-0.251581	0.102735
N71	N	0.572560	-0.236541	0.000260
C72	C	0.582490	-0.271915	-0.102221
C73	C	0.557431	-0.710350	0.102688
C74	C	0.556918	-0.760764	0.102683
C75	C	0.577292	-0.781099	-0.102282
C76	C	0.577808	-0.730684	-0.102276
C77	C	0.567874	-0.695309	0.000212
C78	C	0.583576	-0.166046	-0.102200
C79	C	0.584094	-0.115629	-0.102185
C80	C	0.563718	-0.095299	0.102779
C81	C	0.563202	-0.145711	0.102765
C82	C	0.573130	-0.181085	0.000266
O83	O	0.553741	-0.216828	0.189843
O84	O	0.591412	-0.254484	-0.189369
C85	C	0.580425	-0.473565	-0.102244
C86	C	0.569978	-0.488602	0.000230
C87	C	0.560049	-0.453228	0.102710
C88	C	0.569465	-0.539017	0.000225
C89	C	0.579395	-0.574391	-0.102255
C90	C	0.589838	-0.559351	-0.204731
C91	C	0.590355	-0.508939	-0.204725
C92	C	0.549606	-0.468268	0.205186
C93	C	0.549090	-0.518681	0.205172
C94	C	0.559020	-0.554055	0.102691
C95	C	0.658909	0.057601	0.000296
C96	C	0.712563	0.058145	0.000315
C97	C	0.566303	0.150207	0.000221
C98	C	0.566848	0.203861	0.000203
N99	N	0.541394	0.090890	0.293145
N100	N	0.599621	0.032714	-0.292637
C101	C	0.638621	-0.006264	0.648211
C102	C	0.650377	-0.018014	0.529881
C103	C	0.623132	0.009211	0.470691
C104	C	0.584129	0.048187	0.529843
C105	C	0.572375	0.059941	0.648185
C106	C	0.556886	0.075416	0.470665
C107	C	0.517883	0.114393	0.529817
C108	C	0.506131	0.126143	0.648147
C109	C	0.533375	0.098919	0.707337
C110	C	0.568641	0.063663	0.352323
C111	C	0.502395	0.129868	0.352297
C112	C	0.490639	0.141617	0.470627
H113	H	-0.172837	0.040659	-0.185651
H114	H	0.597925	-0.588162	-0.288174
Br115	Br	0.461443	0.041568	-0.241381
Br116	Br	0.598278	-0.095227	-0.241277
Br117	Br	-0.030363	0.026254	-0.343790
Br118	Br	0.088449	0.027465	-0.343811
H119	H	0.632706	-0.000357	0.374342
Br120	Br	0.675598	-0.043203	0.728539
Br121	Br	0.542749	-0.781166	0.241772
H122	H	0.011967	0.090113	0.288666
Br123	Br	0.517416	0.114862	0.867935
Br124	Br	0.534913	-0.539080	0.344269
Br125	Br	0.437707	0.194512	0.550916
H126	H	0.554699	-0.157955	0.186214
H127	H	0.480210	0.152038	0.304106
Br128	Br	0.703307	-0.070906	0.449605
H129	H	0.600397	0.031928	0.304172
Br130	Br	0.342608	0.040355	-0.241376
Br131	Br	0.536447	-0.387830	0.344305
H132	H	0.405301	0.083880	0.186116
H133	H	-0.209749	0.077594	0.186228
Br134	Br	0.453206	0.179047	0.728428
Br135	Br	0.543943	-0.662346	0.241792
Br136	Br	0.591989	-0.710283	-0.241364
Br137	Br	0.537659	-0.269013	0.344307
Br138	Br	0.294644	0.088323	0.241779
H139	H	-0.079484	0.089179	0.288674
H140	H	-0.301216	0.076655	0.186235
Br141	Br	0.239703	0.029012	-0.343818
Br142	Br	0.597050	-0.214045	-0.241306
H143	H	-0.264291	0.039735	-0.185623
H144	H	0.129032	0.033461	-0.288178
H145	H	0.163214	0.091667	0.288625
H146	H	0.555636	-0.066488	0.186216
H147	H	0.071766	0.090729	0.288638
H148	H	0.600413	-0.345467	-0.288158
Br149	Br	0.604867	-0.456116	-0.343812
H150	H	0.585378	-0.809910	-0.185725
H151	H	0.598863	-0.496702	-0.288177
H152	H	0.541520	-0.439470	0.288640
