data_functionalizedCrystal
_audit_creation_method	'MofGen! by Chris Wilmer'
_symmetry_space_group_name_H-M	'P1'
_symmetry_Int_Tables_number	1
_symmetry_cell_setting	triclinic
loop_
_symmetry_equiv_pos_as_xyz
  x,y,z
_cell_length_a	12.827893
_cell_length_b	12.827892
_cell_length_c	12.827885
_cell_angle_alpha	89.970214
_cell_angle_beta	89.980538
_cell_angle_gamma	90.015362
loop_
_atom_site_label
_atom_site_type_symbol
_atom_site_fract_x
_atom_site_fract_y
_atom_site_fract_z
Zn1	Zn	1.597672	-0.415983	-0.590849
Zn2	Zn	1.597565	-0.590761	-0.416109
Zn3	Zn	1.422912	-0.416034	-0.416122
Zn4	Zn	1.422898	-0.590683	-0.590809
O5	O	1.510262	-0.503365	-0.503472
O6	O	1.743893	-0.439179	-0.567680
O7	O	1.574358	-0.567637	-0.269875
O8	O	1.446145	-0.269791	-0.439322
O9	O	1.743815	-0.567587	-0.439300
O10	O	1.574540	-0.269754	-0.567693
O11	O	1.446042	-0.439266	-0.269884
O12	O	1.276674	-0.439190	-0.439284
O13	O	1.446121	-0.567455	-0.737050
O14	O	1.276664	-0.567504	-0.567625
O15	O	1.574526	-0.439104	-0.737080
O16	O	1.574345	-0.736986	-0.439261
O17	O	1.446018	-0.736929	-0.567612
C18	C	1.238752	-0.503345	-0.503452
C19	C	1.122599	-0.503362	-0.503469
C20	C	1.070837	-0.566954	-0.566878
C21	C	0.950786	-0.566973	-0.566896
C22	C	1.510196	-0.774875	-0.503454
C23	C	1.510264	-0.891028	-0.503481
C24	C	1.573840	-0.942807	-0.440039
C25	C	1.573911	-1.062857	-0.440066
C26	C	1.782832	-0.503386	-0.503493
C27	C	1.898985	-0.503395	-0.503502
C28	C	1.510334	-0.503265	-0.776043
C29	C	1.510365	-0.503222	-0.892196
C30	C	1.510356	-0.230795	-0.503514
C31	C	1.510396	-0.114642	-0.503531
C32	C	1.446890	-0.439688	-0.943985
C33	C	1.446920	-0.439642	-1.064036
C34	C	1.510250	-0.503390	-0.231962
C35	C	1.510422	-0.503138	-0.115810
H36	H	1.115398	-0.621381	-0.621155
C37	C	1.436799	-0.951205	-0.576886
N38	N	1.381462	-0.996528	-0.632175
C39	C	1.062404	-0.429825	-0.430145
N40	N	1.017066	-0.374436	-0.374915
H41	H	1.564729	-0.557583	-0.936734
C42	C	1.373450	-0.366238	-0.883822
N43	N	1.318138	-0.310908	-0.838508
C44	C	1.647302	-0.882630	-0.366632
N45	N	1.702634	-0.837307	-0.311338
C46	C	1.373503	-0.366154	-1.124201
N47	N	1.318201	-0.310802	-1.169521
C48	C	1.647443	-1.123009	-0.366683
N49	N	1.702831	-1.168319	-0.311410
C50	C	1.583843	-0.576628	-1.055651
N51	N	1.639142	-0.631982	-1.010332
H52	H	0.943493	-0.448952	-0.449208
C53	C	0.890652	-0.640528	-0.640239
N54	N	0.845357	-0.695930	-0.695484
H55	H	1.455959	-1.070121	-0.557845
