data_functionalizedCrystal
_audit_creation_method	'MofGen! by Chris Wilmer'
_symmetry_space_group_name_H-M	'P1'
_symmetry_Int_Tables_number	1
_symmetry_cell_setting	triclinic
loop_
_symmetry_equiv_pos_as_xyz
  x,y,z
_cell_length_a	27.440280
_cell_length_b	17.917603
_cell_length_c	27.440280
_cell_angle_alpha	89.992801
_cell_angle_beta	119.994759
_cell_angle_gamma	57.010959
loop_
_atom_site_label
_atom_site_type_symbol
_atom_site_fract_x
_atom_site_fract_y
_atom_site_fract_z
Zr1	Zr	0.539439	-0.102715	-0.466516
O2	O	0.648547	-0.227856	-0.384988
O3	O	0.435495	-0.064353	-0.491499
O4	O	0.546872	-0.227834	-0.486651
O5	O	0.529505	0.064582	-0.393672
O6	O	0.546862	-0.227815	-0.566854
O7	O	0.537169	-0.064376	-0.389837
O8	O	0.347627	0.064622	-0.575527
O9	O	0.728739	-0.227855	-0.384999
O10	O	0.476328	-0.047977	-0.562020
O11	O	0.470616	0.048249	-0.505027
O12	O	0.601749	-0.144229	-0.499319
O13	O	0.596037	-0.048003	-0.442326
Zr14	Zr	0.527198	0.102989	-0.600547
Zr15	Zr	0.539422	-0.102684	-0.594431
Zr16	Zr	0.527215	0.102958	-0.472632
Zr17	Zr	0.667336	-0.102712	-0.466532
Zr18	Zr	0.399301	0.102986	-0.600531
O19	O	0.631143	0.064627	-0.575564
O20	O	0.648523	-0.227813	-0.566867
O21	O	0.631167	0.064584	-0.393685
O22	O	0.418090	0.228130	-0.682075
O23	O	0.435471	-0.064310	-0.673378
O24	O	0.418114	0.228087	-0.500196
O25	O	0.537132	-0.064308	-0.673391
O26	O	0.519765	0.228108	-0.580412
O27	O	0.519776	0.228089	-0.500209
O28	O	0.529468	0.064650	-0.677226
O29	O	0.728726	-0.227831	-0.486674
O30	O	0.337911	0.228105	-0.580389
O31	O	0.337898	0.228129	-0.682064
O32	O	0.347614	0.064646	-0.677203
O33	O	0.719023	-0.064372	-0.389860
O34	O	0.719010	-0.064348	-0.491536
O35	O	0.464888	0.144503	-0.567744
O36	O	0.470600	0.048277	-0.624737
O37	O	0.596021	-0.047975	-0.562036
O38	O	0.590309	0.048251	-0.505043
C39	C	0.373338	0.000134	-0.533511
C40	C	0.319042	0.000133	-0.533504
C41	C	0.533340	0.000099	-0.373529
C42	C	0.533347	0.000086	-0.319226
C43	C	0.518029	0.257403	-0.541182
C44	C	0.512840	0.344716	-0.543779
C45	C	-0.014719	-0.050083	-0.563298
C46	C	-0.065743	-0.050081	-0.563304
O47	O	-0.089615	-0.092769	-0.588624
N48	N	-0.094240	0.000146	-0.533553
C49	C	-0.071717	0.050382	-0.503801
O50	O	-0.100642	0.093104	-0.478497
C51	C	-0.020698	0.050384	-0.503799
C52	C	0.007803	0.000146	-0.533546
C53	C	0.013781	-0.100317	-0.593043
C54	C	0.064803	-0.100320	-0.593037
C55	C	0.087324	-0.050091	-0.563285
C56	C	0.058825	0.000142	-0.533540
C57	C	0.001821	0.100624	-0.474051
C58	C	0.052844	0.100623	-0.474052
C59	C	0.081344	0.050385	-0.503799
C60	C	0.132368	0.050367	-0.503781
N61	N	0.160865	0.000141	-0.533532
C62	C	0.138344	-0.050089	-0.563283
C63	C	-0.178862	0.050374	-0.503807
C64	C	-0.229876	0.050367	-0.503805
C65	C	-0.223900	-0.050095	-0.563309
C66	C	-0.172880	-0.050092	-0.563307
C67	C	-0.150364	0.000147	-0.533557
C68	C	0.245493	-0.050094	-0.563267
C69	C	0.296521	-0.050096	-0.563256
C70	C	0.290537	0.050368	-0.503755
C71	C	0.239516	0.050367	-0.503763
C72	C	0.216994	0.000134	-0.533524
O73	O	0.156272	0.093037	-0.478476
O74	O	0.167268	-0.092794	-0.588590
C75	C	0.693299	0.000140	-0.533552
C76	C	0.747595	0.000141	-0.533559
C77	C	0.548608	-0.257129	-0.525881
C78	C	0.553798	-0.344442	-0.523284
C79	C	0.503361	0.504561	-0.548509
C80	C	0.563273	0.495720	-0.518555
C81	C	0.557999	0.584663	-0.521187
C82	C	0.508633	0.415612	-0.545878
C83	C	0.598799	-0.050118	-0.051803
C84	C	0.598803	-0.050123	-0.102822
O85	O	0.654480	-0.092826	-0.101375
N86	N	0.533336	0.000113	-0.161068
C87	C	0.467860	0.050365	-0.168295
O88	O	0.412175	0.093096	-0.222523
C89	C	0.467856	0.050375	-0.117278
C90	C	0.533328	0.000128	-0.059032
C91	C	0.664266	-0.100361	0.006440
C92	C	0.664262	-0.100357	0.057454
C93	C	0.598791	-0.050111	0.050226
C94	C	0.533324	0.000131	-0.008017
C95	C	0.402380	0.100632	-0.124506
C96	C	0.402382	0.100638	-0.073482
C97	C	0.467854	0.050391	-0.015236
C98	C	0.467849	0.050380	0.035769
N99	N	0.533316	0.000144	0.094015
C100	C	0.598787	-0.050102	0.101244
C101	C	0.467872	0.050343	-0.275433
C102	C	0.467876	0.050328	-0.326450
C103	C	0.598819	-0.050159	-0.260973
C104	C	0.598816	-0.050149	-0.209955
C105	C	0.533340	0.000107	-0.217187
C106	C	0.598773	-0.050092	0.208376
C107	C	0.598763	-0.050087	0.259392
C108	C	0.467820	0.050404	0.193911
C109	C	0.467829	0.050395	0.142899
C110	C	0.533312	0.000146	0.150135
O111	O	0.412200	0.093065	0.034369
O112	O	0.654462	-0.092814	0.155472
C113	C	0.533298	0.000168	0.306466
C114	C	0.533292	0.000159	0.252164
C115	C	0.373317	0.000172	-0.693513
C116	C	0.319014	0.000184	-0.747809
C117	C	0.358048	0.257400	-0.541161
C118	C	0.298563	0.344712	-0.543751
C119	C	0.358027	0.257438	-0.701164
C120	C	0.298535	0.344763	-0.758057
C121	C	0.708610	-0.257164	-0.365899
C122	C	0.768102	-0.344489	-0.309007
C123	C	0.693320	0.000102	-0.373550
C124	C	0.747623	0.000090	-0.319254
C125	C	0.708589	-0.257126	-0.525902
C126	C	0.768074	-0.344438	-0.523312
C127	C	0.296503	-0.050063	-0.740570
C128	C	0.245488	-0.050071	-0.791581
C129	C	0.216981	0.000174	-0.849832
C130	C	0.239497	0.050422	-0.857071
C131	C	0.290515	0.050424	-0.806060
C132	C	0.267638	0.435967	-0.577705
C133	C	0.211752	0.518015	-0.580136
C134	C	0.186789	0.508805	-0.548616
C135	C	0.217720	0.417540	-0.514658
C136	C	0.273608	0.335495	-0.512224
C137	C	0.273578	0.335543	-0.814529
C138	C	0.217687	0.417587	-0.867991
C139	C	0.186749	0.508850	-0.864978
C140	C	0.211711	0.518068	-0.808500
C141	C	0.267605	0.436025	-0.755040
C142	C	0.793065	-0.335269	-0.252534
C143	C	0.848973	-0.417313	-0.199072
C144	C	0.879913	-0.508576	-0.202085
C145	C	0.854948	-0.517794	-0.258563
C146	C	0.799045	-0.435751	-0.312024
C147	C	0.770140	0.050328	-0.326493
C148	C	0.821171	0.050314	-0.275481
C149	C	0.849680	0.000066	-0.217230
C150	C	0.827161	-0.050178	-0.209991
C151	C	0.776135	-0.050169	-0.261003
C152	C	0.793019	-0.335197	-0.554839
C153	C	0.848904	-0.417229	-0.552418
C154	C	0.879847	-0.508500	-0.518466
C155	C	0.854897	-0.517739	-0.486938
C156	C	0.799009	-0.435709	-0.489363
H157	H	0.227160	-0.090997	-0.587502
H158	H	0.880147	-0.592109	-0.261009
H159	H	0.414516	0.091321	0.095471
N160	N	0.126450	0.597332	-0.922643
H161	H	0.110631	0.656551	-0.912170
H162	H	0.144243	0.597286	-0.947182
H163	H	0.778705	-0.443246	-0.463688
H164	H	0.141281	0.575619	-0.550603
N165	N	0.772121	-0.445702	-0.372932
H166	H	0.800206	-0.515968	-0.366723
H167	H	0.719015	-0.413859	-0.396400
N168	N	0.221201	-0.104255	-0.783764
H169	H	0.184558	-0.096642	-0.824915
H170	H	0.264345	-0.174511	-0.759108
H171	H	0.925432	-0.575372	-0.158549
N172	N	0.190787	0.407610	-0.480669
H173	H	0.197775	0.439406	-0.450177
H174	H	0.137691	0.439414	-0.510314
H175	H	0.287917	0.443545	-0.709059
N176	N	0.331759	0.154829	-0.081285
H177	H	0.341686	0.147210	-0.040130
H178	H	0.300296	0.225086	-0.105939
H179	H	0.197369	0.410064	-0.913973
N180	N	0.306934	0.237117	-0.817787
H181	H	0.282637	0.243740	-0.861678
H182	H	0.360303	0.200879	-0.796905
N183	N	0.875808	-0.407239	-0.586421
H184	H	0.928913	-0.439045	-0.556829
H185	H	0.868760	-0.438999	-0.616926
N186	N	0.178339	0.616503	-0.805255
H187	H	0.139142	0.667070	-0.847694
H188	H	0.156753	0.624103	-0.782923
H189	H	0.287957	0.443485	-0.603373
N190	N	0.077123	0.154817	-0.441965
H191	H	0.099851	0.128459	-0.397478
H192	H	0.113744	0.147183	-0.446520
N193	N	0.178396	0.616442	-0.616765
H194	H	0.202688	0.609819	-0.636367
H195	H	0.125026	0.652679	-0.649246
H196	H	0.298781	0.261194	-0.484577
N197	N	0.430173	0.603059	-0.585105
H198	H	0.425278	0.639302	-0.557506
H199	H	0.425336	0.639223	-0.617591
N200	N	0.739407	0.104522	-0.389314
H201	H	0.751020	0.058448	-0.410505
H202	H	0.685197	0.155088	-0.413329
N203	N	0.759698	-0.236843	-0.249276
H204	H	0.784004	-0.243466	-0.205385
H205	H	0.766415	-0.200607	-0.270167
H206	H	0.618527	0.421352	-0.490932
N207	N	0.875891	-0.407359	-0.138162
H208	H	0.847799	-0.337093	-0.144371
H209	H	0.868914	-0.439218	-0.114678
H210	H	0.652081	-0.091009	0.306819
H211	H	0.839496	0.091232	-0.281386
N212	N	0.669398	-0.104290	0.216184
H213	H	0.710865	-0.136116	0.260826
H214	H	0.675125	-0.154799	0.197885
N215	N	0.940119	-0.596972	-0.515860
H216	H	0.951222	-0.577260	-0.540986
H217	H	0.984773	-0.636442	-0.472363
N218	N	0.734889	-0.154572	0.014247
H219	H	0.724971	-0.146967	-0.026905
H220	H	0.760610	-0.128200	0.036021
N221	N	0.734878	-0.154543	0.120273
H222	H	0.776348	-0.186366	0.117101
H223	H	0.734855	-0.108408	0.141422
H224	H	0.349066	0.141541	-0.171924
N225	N	-0.248196	-0.104273	-0.595399
H226	H	-0.284842	-0.096645	-0.590885
H227	H	-0.270893	-0.077884	-0.639873
N228	N	0.759644	-0.236763	-0.591471
H229	H	0.720451	-0.186189	-0.588230
H230	H	0.798153	-0.229161	-0.575306
N231	N	0.888278	-0.616184	-0.450316
H232	H	0.849818	-0.623883	-0.466466
H233	H	0.927474	-0.666679	-0.453578
H234	H	0.319714	-0.090990	-0.693143
H235	H	0.216279	0.091329	-0.904506
H236	H	0.757804	-0.091076	-0.255100
H237	H	0.414515	0.091310	0.188035
H238	H	-0.004553	-0.141218	-0.617274
N239	N	0.904715	0.000060	-0.162213
H240	H	0.914648	0.039516	-0.175644
H241	H	0.885228	0.028626	-0.138524
H242	H	0.850381	-0.091089	-0.162556
H243	H	0.319726	-0.091010	-0.587479
H244	H	0.088003	-0.141225	-0.617261
H245	H	-0.149678	-0.091000	-0.587530
H246	H	0.652130	-0.091070	-0.255095
N247	N	-0.260611	0.104545	-0.471718
H248	H	-0.220121	0.078187	-0.427229
H249	H	-0.285959	0.174812	-0.490242
N250	N	-0.154573	0.104553	-0.471707
H251	H	-0.100621	0.058474	-0.438897
H252	H	-0.166504	0.155120	-0.501897
N253	N	-0.028921	0.154827	-0.441976
H254	H	0.011565	0.128482	-0.397488
H255	H	-0.054268	0.225091	-0.460511
N256	N	0.208785	0.104532	-0.471668
H257	H	0.230801	0.136346	-0.452816
H258	H	0.154569	0.155049	-0.501856
H259	H	0.175438	0.000165	-0.891364
H260	H	0.308886	0.091261	-0.479529
H261	H	0.652129	-0.091065	-0.162532
N262	N	0.397261	0.104503	-0.389269
H263	H	0.355789	0.136329	-0.386100
H264	H	0.391531	0.155011	-0.413307
H265	H	0.414551	0.091263	-0.281330
N266	N	0.314789	0.104625	-0.813873
H267	H	0.288984	0.136453	-0.858516
H268	H	0.302904	0.155133	-0.795572
