data_functionalizedCrystal
_audit_creation_method	'MofGen! by Chris Wilmer'
_symmetry_space_group_name_H-M	'P1'
_symmetry_Int_Tables_number	1
_symmetry_cell_setting	triclinic
loop_
_symmetry_equiv_pos_as_xyz
  x,y,z
_cell_length_a	19.288867
_cell_length_b	19.288857
_cell_length_c	9.130313
_cell_angle_alpha	89.993335
_cell_angle_beta	89.997966
_cell_angle_gamma	83.135089
loop_
_atom_site_label
_atom_site_type_symbol
_atom_site_fract_x
_atom_site_fract_y
_atom_site_fract_z
O1	O	0.921344	0.086655	-0.121755
O2	O	0.719083	0.098342	-0.121770
O3	O	0.826061	-0.008632	-0.121744
O4	O	0.814366	0.193629	-0.121780
O5	O	0.826053	-0.008636	0.121854
O6	O	0.719076	0.098339	0.121829
O7	O	0.921337	0.086651	0.121844
Cu8	Cu	0.820206	0.092495	0.144079
Cu9	Cu	0.820214	0.092498	-0.144005
O10	O	0.814359	0.193626	0.121818
C11	C	0.693203	0.097964	0.000028
C12	C	0.616100	0.096834	0.000023
C13	C	0.060538	0.088700	-0.132745
C14	C	0.132986	0.089757	-0.132750
C15	C	0.169211	0.090287	0.000035
C16	C	0.132984	0.089742	0.132836
C17	C	0.060539	0.088678	0.132837
C18	C	0.278534	0.132654	0.101758
C19	C	0.350977	0.133722	0.101751
C20	C	0.392656	0.093566	0.000035
C21	C	0.361882	0.052351	-0.101699
C22	C	0.289437	0.051287	-0.101697
C23	C	0.247765	0.091441	0.000048
C24	C	0.507430	0.095253	-0.132764
C25	C	0.579880	0.096305	-0.132764
C26	C	0.579876	0.096298	0.132826
C27	C	0.507429	0.095238	0.132822
C28	C	0.471210	0.094719	0.000023
C29	C	0.825682	-0.034511	0.000056
C30	C	0.824555	-0.111614	0.000060
C31	C	0.824033	-0.147823	-0.132726
C32	C	0.822964	-0.220269	-0.132737
C33	C	0.822431	-0.256506	0.000046
C34	C	0.822950	-0.220287	0.132850
C35	C	0.824011	-0.147842	0.132857
C36	C	0.861430	-0.376738	0.101768
C37	C	0.860373	-0.449183	0.101756
C38	C	0.819154	-0.479951	0.000029
C39	C	0.779001	-0.438267	-0.101709
C40	C	0.780063	-0.365822	-0.101702
C41	C	0.821280	-0.335061	0.000053
C42	C	0.817472	-0.594714	-0.132778
C43	C	0.816399	-0.667161	-0.132783
C44	C	0.816391	-0.667179	0.132807
C45	C	0.817457	-0.594732	0.132808
C46	C	0.818001	-0.558505	0.000012
C47	C	0.947217	0.087029	0.000043
C48	C	1.024320	0.088159	0.000038
C49	C	0.814738	0.219504	0.000014
C50	C	0.815865	0.296608	0.000001
N51	N	0.820205	0.092492	0.346702
N52	N	0.820221	0.092496	-0.346628
C53	C	0.867590	0.045143	0.423365
C54	C	0.867597	0.045143	0.576702
C55	C	0.772830	0.139847	0.576698
C56	C	0.772821	0.139843	0.423364
H57	H	0.477940	0.094828	-0.240897
H58	H	0.893070	-0.483117	0.184592
O59	O	0.721704	0.190907	0.340658
H60	H	0.750824	0.224586	0.270756
H61	H	0.031054	0.088274	-0.240880
H62	H	0.745437	-0.463317	-0.184545
H63	H	0.906172	0.006586	0.360949
O64	O	0.918713	-0.005916	0.659394
H65	H	0.951664	-0.038835	0.580320
H66	H	0.734252	0.178400	0.639133
O67	O	0.818038	-0.555673	0.276028
H68	H	0.817496	-0.593040	0.368361
O69	O	0.172063	0.090349	-0.275971
H70	H	0.134706	0.089814	-0.368312
O71	O	0.736749	-0.320859	-0.211401
H72	H	0.707900	-0.354418	-0.282135
H73	H	0.824433	-0.118360	0.240990
H74	H	0.162483	0.090173	0.240950
O75	O	0.256242	0.006823	-0.211387
H76	H	0.297391	-0.020929	-0.282111
H77	H	0.376025	0.167299	0.184557
O78	O	0.468355	0.094668	0.276039
H79	H	0.505712	0.095221	0.368375
O80	O	0.406824	0.009030	-0.211413
H81	H	0.462371	0.016684	-0.194314
H82	H	0.609368	0.096741	-0.240897
H83	H	0.609369	0.096727	0.240942
H84	H	0.244604	0.165350	0.184604
H85	H	0.031050	0.088240	0.240969
H86	H	0.824473	-0.118331	-0.240859
O87	O	0.822403	-0.259338	-0.275960
H88	H	0.822962	-0.221976	-0.368298
H89	H	0.815970	-0.696641	-0.240918
O90	O	0.818042	-0.555632	-0.276000
H91	H	0.865165	-0.575876	-0.339688
O92	O	0.815822	-0.706251	0.276030
H93	H	0.815001	-0.762711	0.253719
O94	O	0.905894	-0.343554	0.211487
H95	H	0.933644	-0.384709	0.282210
H96	H	0.822514	-0.249795	0.240962
