data_functionalizedCrystal
_audit_creation_method	'MofGen! by Chris Wilmer'
_symmetry_space_group_name_H-M	'P1'
_symmetry_Int_Tables_number	1
_symmetry_cell_setting	triclinic
loop_
_symmetry_equiv_pos_as_xyz
  x,y,z
_cell_length_a	14.853558
_cell_length_b	17.038272
_cell_length_c	16.098691
_cell_angle_alpha	92.867641
_cell_angle_beta	93.045970
_cell_angle_gamma	87.371345
loop_
_atom_site_label
_atom_site_type_symbol
_atom_site_fract_x
_atom_site_fract_y
_atom_site_fract_z
O1	O	1.200221	0.098926	-0.069245
O2	O	1.700221	0.598926	0.430755
O3	O	0.938676	0.111094	-0.069249
O4	O	1.438676	0.611094	0.430751
O5	O	1.067894	-0.008807	-0.069241
O6	O	1.567894	0.491193	0.430759
O7	O	1.071002	0.218827	-0.069254
O8	O	1.571002	0.718827	0.430746
O9	O	1.075541	-0.002558	0.069269
O10	O	1.575541	0.497442	0.569269
O11	O	0.946322	0.117343	0.069260
O12	O	1.446322	0.617343	0.569260
O13	O	1.207867	0.105175	0.069264
O14	O	1.707867	0.605175	0.569264
Zn15	Zn	1.078309	0.112251	0.091253
Zn16	Zn	1.578309	0.612251	0.591253
Zn17	Zn	1.068234	0.104018	-0.091239
Zn18	Zn	1.568234	0.604018	0.408761
O19	O	1.078649	0.225076	0.069255
O20	O	1.578649	0.725076	0.569255
C21	C	0.908869	0.113669	0.000005
C22	C	1.408869	0.613669	0.500005
C23	C	0.808660	0.112020	0.000004
C24	C	1.308660	0.612020	0.500004
C25	C	0.757414	0.107841	-0.075501
C26	C	1.257414	0.607841	0.424499
C27	C	0.765748	0.114644	0.075507
C28	C	1.265748	0.614644	0.575507
C29	C	0.671597	0.113091	0.075509
C30	C	1.171597	0.613091	0.575509
C31	C	0.620351	0.108912	0.000004
C32	C	1.120351	0.608912	0.500004
C33	C	0.663255	0.106285	-0.075502
C34	C	1.163255	0.606285	0.424498
C35	C	0.628687	0.115710	0.151013
C36	C	1.128687	0.615710	0.651013
C37	C	0.534531	0.114156	0.151018
C38	C	1.034531	0.614156	0.651018
C39	C	0.483282	0.109982	0.075512
C40	C	0.983282	0.609982	0.575512
C41	C	0.526192	0.107357	0.000003
C42	C	1.026192	0.607357	0.500003
C43	C	0.474945	0.103177	-0.075501
C44	C	0.974945	0.603177	0.424499
C45	C	0.517853	0.100557	-0.151011
C46	C	1.017853	0.600557	0.348989
C47	C	0.612006	0.102112	-0.151007
C48	C	1.112006	0.602112	0.348993
C49	C	0.389129	0.108428	0.075508
C50	C	0.889129	0.608428	0.575508
C51	C	0.380786	0.101622	-0.075502
C52	C	0.880786	0.601622	0.424498
C53	C	1.068890	-0.034815	0.000014
C54	C	1.568890	0.465185	0.500014
C55	C	1.060454	-0.121618	0.000013
C56	C	1.560454	0.378382	0.500013
C57	C	1.137907	-0.171633	0.000015
C58	C	1.637907	0.328367	0.500015
C59	C	1.129975	-0.253194	0.000007
C60	C	1.629975	0.246806	0.500007
C61	C	1.044588	-0.284739	0.000003
C62	C	1.544588	0.215261	0.500003
C63	C	0.967129	-0.234718	-0.000001
C64	C	1.467129	0.265282	0.499999
C65	C	0.975062	-0.153158	0.000001
C66	C	1.475062	0.346842	0.500001
C67	C	1.016562	-0.530533	-0.000009
C68	C	1.516562	-0.030533	0.499991
C69	C	1.008635	-0.612099	-0.000008
C70	C	1.508635	-0.112099	0.499992
C71	C	1.171482	-0.630569	-0.000001
C72	C	1.671482	-0.130569	0.499999
C73	C	1.179408	-0.549007	0.000006
C74	C	1.679408	-0.049007	0.500006
C75	C	1.101948	-0.498994	-0.000003
C76	C	1.601948	0.001006	0.499997
C77	C	1.036478	-0.368107	-0.000002
C78	C	1.536478	0.131893	0.499998
C79	C	1.110059	-0.415628	-0.000003
C80	C	1.610059	0.084372	0.499997
C81	C	1.237674	0.102600	0.000008
C82	C	1.737674	0.602600	0.500008
C83	C	1.337882	0.104248	0.000004
C84	C	1.837882	0.604248	0.500004
C85	C	1.077653	0.251083	-0.000001
C86	C	1.577653	0.751083	0.499999
C87	C	1.086089	0.337887	-0.000006
C88	C	1.586089	0.837887	0.499994
N89	N	1.085190	0.117869	0.215799
N90	N	1.585190	0.617869	0.715799
C91	C	1.029298	0.072327	0.259410
C92	C	1.529298	0.572327	0.759410
C93	C	1.034135	0.076267	0.346597
C94	C	1.534135	0.576267	0.846597
C95	C	1.094871	0.125745	0.390171
C96	C	1.594871	0.625745	0.890171
C97	C	1.150766	0.171292	0.346554
C98	C	1.650766	0.671292	0.846554
C99	C	1.145923	0.167356	0.259369
C100	C	1.645923	0.667356	0.759369
C101	C	1.112405	0.140009	0.653413
C102	C	1.612405	0.640009	1.153413
C103	C	1.117246	0.143940	0.740604
C104	C	1.617246	0.643940	1.240604
C105	C	1.000614	0.048915	0.740641
C106	C	1.500614	0.548915	1.240641
C107	C	0.995780	0.044980	0.653454
C108	C	1.495780	0.544980	1.153454
C109	C	1.051672	0.090530	0.609845
C110	C	1.551672	0.590530	1.109845
C111	C	1.099819	0.129771	0.479290
C112	C	1.599819	0.629771	0.979290
C113	C	1.046719	0.086508	0.520728
C114	C	1.546719	0.586508	1.020728
N115	N	1.061353	0.098398	0.784215
N116	N	1.561353	0.598398	1.284215
H117	H	0.354197	0.110568	0.136987
H118	H	0.854197	0.610568	0.636987
H119	H	0.966956	-0.393800	-0.000004
H120	H	1.466956	0.106200	0.499996
F121	F	1.212412	-0.306420	0.000011
F122	F	1.712412	0.193580	0.500011
F123	F	0.982078	0.033855	0.474351
F124	F	1.482078	0.533855	0.974351
F125	F	0.917752	-0.645668	-0.000008
F126	F	1.417752	-0.145668	0.499992
H127	H	0.979843	0.032034	0.223938
H128	H	1.479843	0.532034	0.723938
H129	H	0.897605	-0.260408	-0.000010
H130	H	1.397605	0.239592	0.499990
H131	H	0.911991	-0.112437	-0.000001
H132	H	1.411991	0.387563	0.499999
F133	F	0.683231	0.120159	0.231365
F134	F	1.183231	0.620159	0.731365
F135	F	1.171870	0.188508	0.607012
F136	F	1.671870	0.688508	1.107012
H137	H	0.988622	0.039181	0.382101
H138	H	1.488622	0.539181	0.882101
F139	F	0.326252	0.097179	-0.155866
F140	F	0.826252	0.597179	0.344134
F141	F	1.215398	0.223957	0.392931
F142	F	1.715398	0.723957	0.892931
F143	F	0.931111	-0.007657	0.607086
F144	F	1.431111	0.492343	1.107086
F145	F	1.200930	-0.382054	-0.000004
F146	F	1.700930	0.117946	0.499996
H147	H	0.955109	0.011832	0.776157
H148	H	1.455109	0.511832	1.276157
F149	F	1.228788	-0.138068	0.000028
F150	F	1.728788	0.361932	0.500028
H151	H	1.166705	0.184234	0.776080
H152	H	1.666705	0.684234	1.276080
F153	F	1.205413	0.215827	0.212955
F154	F	1.705413	0.715827	0.712955
H155	H	1.149272	0.170053	0.514778
H156	H	1.649272	0.670053	1.014778
F157	F	0.657678	0.099315	-0.231363
F158	F	1.157678	0.599315	0.268637
F159	F	0.463303	0.096094	-0.231366
F160	F	0.963303	0.596094	0.268634
H161	H	0.807479	0.118041	0.136980
H162	H	1.307479	0.618041	0.636980
F163	F	0.803078	0.105053	-0.155860
F164	F	1.303078	0.605053	0.344140
H165	H	0.499604	0.116289	0.212503
H166	H	0.999604	0.616289	0.712503
H167	H	1.234545	-0.671299	0.000005
H168	H	1.734545	-0.171299	0.500005
F169	F	1.270286	-0.515443	-0.000011
F170	F	1.770286	-0.015443	0.499989
H171	H	0.953489	-0.489821	-0.000016
H172	H	1.453489	0.010179	0.499984
