data_functionalizedCrystal
_audit_creation_method	'MofGen! by Chris Wilmer'
_symmetry_space_group_name_H-M	'P1'
_symmetry_Int_Tables_number	1
_symmetry_cell_setting	triclinic
loop_
_symmetry_equiv_pos_as_xyz
  x,y,z
_cell_length_a	19.188933
_cell_length_b	17.038272
_cell_length_c	15.500227
_cell_angle_alpha	86.966746
_cell_angle_beta	87.166530
_cell_angle_gamma	92.871437
loop_
_atom_site_label
_atom_site_type_symbol
_atom_site_fract_x
_atom_site_fract_y
_atom_site_fract_z
O1	O	0.935238	-0.093960	-0.071916
O2	O	1.268571	0.239374	0.261417
O3	O	1.601904	0.572707	0.594751
O4	O	0.732743	-0.107095	-0.071924
O5	O	1.066076	0.226238	0.261409
O6	O	1.399410	0.559571	0.594743
O7	O	0.832787	0.013284	-0.071913
O8	O	1.166120	0.346617	0.261420
O9	O	1.499453	0.679950	0.594753
O10	O	0.835194	-0.214339	-0.071927
O11	O	1.168527	0.118995	0.261407
O12	O	1.501861	0.452328	0.594740
O13	O	0.826714	0.006007	0.071975
O14	O	1.160047	0.339341	0.405308
O15	O	1.493381	0.672674	0.738642
O16	O	0.726670	-0.114372	0.071964
O17	O	1.060004	0.218962	0.405297
O18	O	1.393337	0.552295	0.738631
O19	O	0.929165	-0.101236	0.071972
O20	O	1.262498	0.232097	0.405305
O21	O	1.595832	0.565431	0.738639
Cu22	Cu	0.827363	-0.108468	0.085106
Cu23	Cu	1.160697	0.224865	0.418439
Cu24	Cu	1.494030	0.558198	0.751773
Cu25	Cu	0.834545	-0.099863	-0.085058
Cu26	Cu	1.167878	0.233470	0.248275
Cu27	Cu	1.501211	0.566804	0.581609
O28	O	0.829121	-0.221615	0.071961
O29	O	1.162455	0.111718	0.405295
O30	O	1.495788	0.445052	0.738628
C31	C	0.703669	-0.110308	0.000019
C32	C	1.037003	0.223026	0.333352
C33	C	1.370336	0.556359	0.666686
C34	C	0.626086	-0.109030	0.000016
C35	C	0.959419	0.224304	0.333349
C36	C	1.292752	0.557637	0.666683
C37	C	0.075573	-0.095945	-0.078408
C38	C	0.408907	0.237389	0.254926
C39	C	0.742240	0.570722	0.588259
C40	C	0.148472	-0.097140	-0.078411
C41	C	0.481805	0.236193	0.254922
C42	C	0.815139	0.569526	0.588256
C43	C	0.181616	-0.101708	0.000022
C44	C	0.514950	0.231625	0.333355
C45	C	0.848283	0.564958	0.666689
C46	C	0.141857	-0.105061	0.078464
C47	C	0.475190	0.228273	0.411798
C48	C	0.808523	0.561606	0.745131
C49	C	0.068960	-0.103857	0.078466
C50	C	0.402293	0.229476	0.411799
C51	C	0.735627	0.562810	0.745132
N52	N	0.291053	-0.151032	0.058401
N53	N	0.624387	0.182302	0.391734
N54	N	0.957720	0.515635	0.725067
N55	N	0.360302	-0.152177	0.058394
N56	N	0.693636	0.181157	0.391728
N57	N	1.026969	0.514490	0.725061
C58	C	0.401250	-0.105333	0.000023
C59	C	0.734583	0.228000	0.333357
C60	C	1.067917	0.561333	0.666690
N61	N	0.370333	-0.057311	-0.058354
N62	N	0.703666	0.276022	0.274979
N63	N	1.036999	0.609355	0.608313
N64	N	0.301077	-0.056170	-0.058350
N65	N	0.634411	0.277164	0.274983
N66	N	0.967744	0.610497	0.608317
C67	C	0.260660	-0.103013	0.000030
C68	C	0.593994	0.230320	0.333363
C69	C	0.927327	0.563653	0.666696
C70	C	0.520046	-0.103272	-0.078418
C71	C	0.853379	0.230061	0.254916
C72	C	1.186713	0.563394	0.588249
C73	C	0.592946	-0.104463	-0.078418
C74	C	0.926280	0.228870	0.254915
C75	C	1.259613	0.562203	0.588249
C76	C	0.586329	-0.112391	0.078460
C77	C	0.919662	0.220942	0.411793
C78	C	1.252996	0.554275	0.745126
C79	C	0.513431	-0.111192	0.078458
C80	C	0.846764	0.222141	0.411791
C81	C	1.180097	0.555474	0.745124
C82	C	0.480294	-0.106637	0.000017
C83	C	0.813627	0.226697	0.333350
C84	C	1.146960	0.560030	0.666683
C85	C	0.827561	0.038767	0.000031
C86	C	1.160894	0.372100	0.333364
C87	C	1.494228	0.705434	0.666697
C88	C	0.821030	0.125540	0.000030
C89	C	1.154363	0.458873	0.333363
C90	C	1.487696	0.792206	0.666697
C91	C	0.958239	-0.098023	0.000027
C92	C	1.291572	0.235310	0.333361
C93	C	1.624905	0.568643	0.666694
C94	C	1.035823	-0.099301	0.000024
C95	C	1.369156	0.234032	0.333358
C96	C	1.702489	0.567366	0.666691
C97	C	0.834347	-0.247098	0.000015
C98	C	1.167680	0.086235	0.333349
C99	C	1.501014	0.419568	0.666682
C100	C	0.840879	-0.333871	0.000010
C101	C	1.174212	-0.000537	0.333344
C102	C	1.507545	0.332796	0.666677
N103	N	0.822317	-0.114520	0.204791
N104	N	1.155651	0.218813	0.538124
N105	N	1.488984	0.552147	0.871457
C106	C	0.880996	0.175841	0.000033
C107	C	1.214329	0.509174	0.333367
C108	C	1.547663	0.842507	0.666700
C109	C	0.874855	0.257372	0.000025
C110	C	1.208188	0.590706	0.333358
C111	C	1.541522	0.924039	0.666692
C112	C	0.808747	0.288601	0.000019
C113	C	1.142080	0.621935	0.333353
C114	C	1.475414	0.955268	0.666686
C115	C	0.748776	0.238294	0.000013
C116	C	1.082110	0.571627	0.333347
C117	C	1.415443	0.904961	0.666680
C118	C	0.754918	0.156764	0.000016
C119	C	1.088251	0.490097	0.333349
C120	C	1.421585	0.823431	0.666682
C121	C	0.787050	0.534292	0.000007
C122	C	1.120383	0.867626	0.333340
C123	C	1.453716	1.200959	0.666673
C124	C	0.780912	0.615828	0.000007
C125	C	1.114246	0.949162	0.333340
C126	C	1.447579	1.282495	0.666674
C127	C	0.906992	0.634901	0.000017
C128	C	1.240325	0.968235	0.333350
C129	C	1.573659	1.301568	0.666684
C130	C	0.913128	0.553369	0.000024
C131	C	1.246461	0.886702	0.333358
C132	C	1.579794	1.220035	0.666691
C133	C	0.853157	0.503069	0.000014
C134	C	1.186490	0.836402	0.333347
C135	C	1.519824	1.169736	0.666681
C136	C	0.802469	0.371940	0.000013
C137	C	1.135802	0.705273	0.333347
C138	C	1.469135	1.038606	0.666680
C139	C	0.859436	0.419733	0.000014
C140	C	1.192770	0.753066	0.333347
C141	C	1.526103	1.086399	0.666680
N142	N	0.839596	-0.093805	-0.204743
N143	N	1.172929	0.239528	0.128591
N144	N	1.506263	0.572862	0.461924
C145	C	0.864726	-0.063530	0.250072
C146	C	1.198059	0.269803	0.583405
C147	C	1.531393	0.603137	0.916738
C148	C	0.860917	-0.068114	0.340644
C149	C	1.194250	0.265219	0.673978
C150	C	1.527583	0.598553	1.007311
C151	C	0.814701	-0.123693	0.385934
C152	C	1.148035	0.209641	0.719267
C153	C	1.481368	0.542974	1.052600
C154	C	0.772288	-0.174685	0.340646
C155	C	1.105621	0.158648	0.673979
C156	C	1.438955	0.491982	1.007313
C157	C	0.776094	-0.170097	0.250075
C158	C	1.109428	0.163237	0.583409
C159	C	1.442761	0.496570	0.916742
C160	C	0.800989	-0.140209	0.659399
C161	C	1.134322	0.193124	0.992732
C162	C	1.467655	0.526458	1.326066
C163	C	0.797187	-0.144795	0.749976
C164	C	1.130520	0.188538	1.083310
C165	C	1.463854	0.521872	1.416643
C166	C	0.885815	-0.038223	0.749968
C167	C	1.219149	0.295111	1.083301
C168	C	1.552482	0.628444	1.416635
C169	C	0.889621	-0.033642	0.659396
C170	C	1.222954	0.299691	0.992729
C171	C	1.556287	0.633024	1.326062
C172	C	0.847204	-0.084632	0.614116
C173	C	1.180538	0.248701	0.947449
C174	C	1.513871	0.582035	1.280783
C175	C	0.810808	-0.128381	0.478513
C176	C	1.144141	0.204952	0.811847
C177	C	1.477475	0.538285	1.145180
C178	C	0.851095	-0.079939	0.521538
C179	C	1.184428	0.253394	0.854871
C180	C	1.517761	0.586728	1.188205
H181	H	0.048598	-0.092232	-0.142281
H182	H	0.381931	0.241102	0.191053
H183	H	0.715265	0.574435	0.524386
F184	F	0.177132	-0.109919	0.161938
F185	F	0.510465	0.223414	0.495272
F186	F	0.843799	0.556747	0.828605
H187	H	0.741560	-0.211617	0.213208
H188	H	1.074893	0.121716	0.546542
H189	H	1.408226	0.455050	0.879875
H190	H	0.481065	-0.113928	0.142326
H191	H	0.814398	0.219405	0.475659
H192	H	1.147732	0.552738	0.808992
H193	H	0.927253	0.011614	0.622523
H194	H	1.260586	0.344947	0.955856
H195	H	1.593919	0.678281	1.289189
F196	F	0.900276	-0.020787	0.473337
F197	F	1.233609	0.312546	0.806670
F198	F	1.566943	0.645880	1.140003
H199	H	0.493065	-0.099560	-0.142289
H200	H	0.826398	0.233773	0.191044
H201	H	1.159731	0.567107	0.524377
F202	F	0.970812	0.688439	0.000027
F203	F	1.304145	1.021773	0.333360
F204	F	1.637479	1.355106	0.666693
F205	F	0.761624	-0.187533	0.526719
F206	F	1.094958	0.145800	0.860052
F207	F	1.428291	0.479134	1.193385
F208	F	0.635253	-0.100883	-0.161901
F209	F	0.968586	0.232450	0.171433
F210	F	1.301919	0.565783	0.504766
F211	F	0.190786	-0.093569	-0.161892
F212	F	0.524119	0.239764	0.171441
F213	F	0.857453	0.573098	0.504774
F214	F	0.026653	-0.107432	0.161947
F215	F	0.359986	0.225902	0.495281
F216	F	0.693319	0.559235	0.828614
F217	F	0.929791	0.386495	0.000015
F218	F	1.263125	0.719828	0.333348
F219	F	1.596458	1.053162	0.666681
H220	H	0.727076	0.641251	0.000016
H221	H	1.060409	0.974584	0.333350
H222	H	1.393743	1.307917	0.666683
F223	F	0.621599	-0.117243	0.161935
F224	F	0.954933	0.216091	0.495268
F225	F	1.288266	0.549424	0.828602
H226	H	0.748643	0.397375	0.000011
H227	H	1.081976	0.730709	0.333344
H228	H	1.415310	1.064042	0.666677
F229	F	0.951357	0.142612	0.000048
F230	F	1.284691	0.475945	0.333381
F231	F	1.618024	0.809279	0.666714
H232	H	0.706087	0.115809	0.000013
H233	H	1.039420	0.449142	0.333346
H234	H	1.372754	0.782476	0.666680
F235	F	0.723223	0.480770	-0.000007
F236	F	1.056556	0.814103	0.333327
F237	F	1.389890	1.147436	0.666660
H238	H	0.923686	0.298325	0.000030
H239	H	1.257020	0.631658	0.333363
H240	H	1.590353	0.964991	0.666696
H241	H	0.966960	0.527949	0.000029
H242	H	1.300293	0.861282	0.333362
H243	H	1.633626	1.194615	0.666696
H244	H	0.920348	0.003291	0.786843
H245	H	1.253681	0.336625	1.120176
H246	H	1.587014	0.669958	1.453510
F247	F	0.678419	0.271533	-0.000002
F248	F	1.011753	0.604866	0.333331
F249	F	1.345086	0.938199	0.666664
F250	F	0.913919	-0.004379	0.201880
F251	F	1.247252	0.328955	0.535213
F252	F	1.580585	0.662288	0.868546
H253	H	0.895449	-0.026593	0.377512
H254	H	1.228782	0.306740	0.710845
H255	H	1.562115	0.640073	1.044178
H256	H	0.759551	-0.190057	0.786847
H257	H	1.092885	0.143276	1.120180
H258	H	1.426218	0.476610	1.453514
F259	F	0.723098	-0.233833	0.388847
F260	F	1.056431	0.099500	0.722181
F261	F	1.389765	0.432834	1.055514
H262	H	0.766453	-0.181728	0.622540
H263	H	1.099786	0.151605	0.955873
H264	H	1.433120	0.484938	1.289206
