data_functionalizedCrystal
_audit_creation_method	'MofGen! by Chris Wilmer'
_symmetry_space_group_name_H-M	'P1'
_symmetry_Int_Tables_number	1
_symmetry_cell_setting	triclinic
loop_
_symmetry_equiv_pos_as_xyz
  x,y,z
_cell_length_a	21.395362
_cell_length_b	18.215405
_cell_length_c	18.215387
_cell_angle_alpha	89.906010
_cell_angle_beta	89.922988
_cell_angle_gamma	90.040762
loop_
_atom_site_label
_atom_site_type_symbol
_atom_site_fract_x
_atom_site_fract_y
_atom_site_fract_z
Zn1	Zn	0.958090	-0.292219	-0.416482
Zn2	Zn	0.957942	-0.415426	-0.293409
Zn3	Zn	0.853244	-0.292412	-0.293387
Zn4	Zn	0.853285	-0.415282	-0.416393
O5	O	0.905640	-0.353835	-0.354918
O6	O	1.045748	-0.308542	-0.400202
O7	O	0.943975	-0.399249	-0.190422
O8	O	0.867197	-0.189402	-0.309744
O9	O	1.045640	-0.399062	-0.309781
O10	O	0.944227	-0.189260	-0.400181
O11	O	0.867054	-0.308871	-0.190406
O12	O	0.765572	-0.308732	-0.309658
O13	O	0.867266	-0.398816	-0.519390
O14	O	0.765601	-0.399004	-0.400030
O15	O	0.944266	-0.308402	-0.519455
O16	O	0.944014	-0.518391	-0.309696
O17	O	0.867123	-0.518286	-0.400052
C18	C	0.742853	-0.353874	-0.354833
C19	C	0.673211	-0.353908	-0.354814
C20	C	0.640530	-0.400975	-0.401800
C21	C	0.575095	-0.400957	-0.401833
C22	C	0.542343	-0.353880	-0.354866
C23	C	0.575032	-0.306803	-0.307876
C24	C	0.640466	-0.306818	-0.307850
C25	C	0.438585	-0.348037	-0.288614
C26	C	0.373152	-0.348028	-0.288639
C27	C	0.340522	-0.353832	-0.354947
C28	C	0.373333	-0.359660	-0.421233
C29	C	0.438768	-0.359674	-0.421207
C30	C	0.471391	-0.353859	-0.354889
C31	C	0.236889	-0.400882	-0.401973
C32	C	0.171452	-0.400858	-0.402007
C33	C	0.171391	-0.306709	-0.308044
C34	C	0.236826	-0.306728	-0.308017
C35	C	0.269571	-0.353818	-0.354980
C36	C	0.905574	-0.545041	-0.354883
C37	C	0.905603	-0.626840	-0.354892
C38	C	0.945735	-0.815064	-0.307930
C39	C	0.945763	-0.891923	-0.307948
C40	C	0.865626	-0.891853	-0.401958
C41	C	0.865602	-0.814996	-0.401944
C42	C	0.905655	-0.776603	-0.354926
C43	C	0.905707	-0.930319	-0.354958
C44	C	0.905738	-1.013653	-0.354978
C45	C	0.905626	-0.693264	-0.354907
C46	C	1.069064	-0.353796	-0.355004
C47	C	1.138705	-0.353780	-0.355041
C48	C	0.905787	-0.353571	-0.546871
C49	C	0.905849	-0.353459	-0.628671
C50	C	0.905724	-0.161882	-0.354970
C51	C	0.905759	-0.080083	-0.354992
C52	C	0.905530	-0.354044	-0.163711
C53	C	0.905589	-0.353949	-0.081913
C54	C	0.945542	-0.306252	0.182917
C55	C	0.945497	-0.306334	0.106058
C56	C	0.865892	-0.401158	0.106505
C57	C	0.865935	-0.401072	0.183362
C58	C	0.905763	-0.353621	0.221566
C59	C	0.905676	-0.353787	0.067851
C60	C	0.905627	-0.353876	-0.015483
C61	C	0.905811	-0.353531	0.304905
H62	H	0.465147	-0.343308	-0.234614
O63	O	0.988394	-0.255238	0.064368
H64	H	1.020434	-0.287932	0.029355
O65	O	0.988494	-0.255073	0.224127
H66	H	0.977408	-0.197425	0.209249
H67	H	0.263551	-0.439222	-0.440217
H68	H	0.548362	-0.268471	-0.269637
O69	O	0.988999	-0.933403	-0.257266
H70	H	0.982297	-0.993297	-0.265182
O71	O	0.337764	-0.341738	-0.217151
H72	H	0.371445	-0.337688	-0.171039
H73	H	0.667075	-0.268488	-0.269588
H74	H	0.833015	-0.923121	-0.440238
O75	O	0.822937	-0.452338	0.065301
H76	H	0.829593	-0.444445	0.005364
O77	O	0.822362	-0.773504	-0.452623
H78	H	0.794504	-0.813111	-0.485308
O79	O	0.988946	-0.773660	-0.257230
H80	H	1.020808	-0.738545	-0.290219
H81	H	0.667187	-0.439319	-0.440042
O82	O	0.823010	-0.452143	0.225057
H83	H	0.795307	-0.485153	0.185581
H84	H	0.548480	-0.439285	-0.440097
H85	H	0.465480	-0.364418	-0.475179
H86	H	0.346768	-0.364385	-0.475228
H87	H	0.144725	-0.268374	-0.269807
O88	O	0.136197	-0.451723	-0.452590
H89	H	0.169963	-0.484508	-0.485198
H90	H	0.263436	-0.268404	-0.269752
