data_functionalizedCrystal
_audit_creation_method	'MofGen! by Chris Wilmer'
_symmetry_space_group_name_H-M	'P1'
_symmetry_Int_Tables_number	1
_symmetry_cell_setting	triclinic
loop_
_symmetry_equiv_pos_as_xyz
  x,y,z
_cell_length_a	21.295418
_cell_length_b	21.295417
_cell_length_c	18.215399
_cell_angle_alpha	90.032152
_cell_angle_beta	90.038883
_cell_angle_gamma	90.046319
loop_
_atom_site_label
_atom_site_type_symbol
_atom_site_fract_x
_atom_site_fract_y
_atom_site_fract_z
Zn1	Zn	0.962326	-0.250350	0.416469
Zn2	Zn	0.962237	-0.355621	0.293393
Zn3	Zn	0.857058	-0.250399	0.293375
Zn4	Zn	0.857018	-0.355614	0.416377
O5	O	0.909660	-0.302996	0.354904
O6	O	1.050403	-0.264297	0.400188
O7	O	0.948264	-0.341686	0.190407
O8	O	0.871075	-0.162303	0.309734
O9	O	1.050338	-0.341639	0.309765
O10	O	0.948415	-0.162267	0.400171
O11	O	0.870989	-0.264380	0.190393
O12	O	0.768963	-0.264373	0.309646
O13	O	0.871008	-0.341627	0.519374
O14	O	0.768934	-0.341675	0.400015
O15	O	0.948377	-0.264290	0.519441
O16	O	0.948226	-0.443710	0.309677
O17	O	0.870922	-0.443705	0.400033
C18	C	0.746108	-0.303029	0.354819
C19	C	0.676140	-0.303058	0.354800
C20	C	0.643275	-0.343363	0.401785
C21	C	0.577532	-0.343347	0.401818
C22	C	0.544657	-0.303034	0.354853
C23	C	0.577531	-0.262722	0.307865
C24	C	0.643272	-0.262734	0.307838
N25	N	0.441386	-0.298117	0.290486
N26	N	0.378935	-0.298109	0.290513
C27	C	0.346583	-0.302994	0.354931
N28	N	0.379042	-0.307899	0.419322
N29	N	0.441499	-0.307910	0.419294
C30	C	0.473372	-0.303016	0.354877
C31	C	0.242432	-0.343283	0.401956
C32	C	0.176688	-0.343263	0.401990
C33	C	0.176688	-0.262642	0.308030
C34	C	0.242430	-0.262658	0.308003
C35	C	0.275298	-0.302983	0.354964
C36	C	0.909577	-0.466548	0.354863
C37	C	0.909599	-0.536516	0.354870
C38	C	0.949887	-0.569364	0.307870
C39	C	0.949917	-0.635107	0.307886
C40	C	0.909647	-0.667998	0.354895
C41	C	0.869357	-0.635142	0.401904
C42	C	0.869333	-0.569401	0.401892
N43	N	0.854580	-0.771279	0.360477
N44	N	0.854604	-0.833731	0.360485
C45	C	0.909718	-0.866073	0.354938
N46	N	0.964807	-0.833604	0.349368
N47	N	0.964782	-0.771147	0.349356
C48	C	0.909669	-0.739284	0.354915
C49	C	0.950041	-0.970207	0.307953
C50	C	0.950071	-1.035950	0.307975
C51	C	0.869506	-1.035985	0.401989
C52	C	0.869481	-0.970242	0.401971
C53	C	0.909747	-0.937357	0.354949
C54	C	1.073850	-0.302963	0.354989
C55	C	1.143818	-0.302949	0.355025
C56	C	0.909698	-0.302953	0.546857
C57	C	0.909714	-0.302934	0.628655
C58	C	0.909760	-0.138806	0.354961
C59	C	0.909802	-0.068838	0.354985
C60	C	0.909658	-0.302994	0.163697
C61	C	0.909763	-0.302835	0.081899
C62	C	0.950015	-0.262627	0.816886
C63	C	0.950022	-0.262609	0.893744
C64	C	0.869458	-0.343144	0.893663
C65	C	0.869448	-0.343159	0.816806
C66	C	0.909730	-0.302901	0.778419
C67	C	0.909748	-0.302868	0.932135
C68	C	0.909756	-0.302848	1.015469
C69	C	0.909721	-0.302920	0.695080
H70	H	0.269194	-0.376114	0.440199
C71	C	0.825165	-0.387440	0.935891
C72	C	0.780858	-0.431747	0.893576
C73	C	0.736569	-0.476051	0.935802
C74	C	0.736588	-0.476048	1.020342
C75	C	0.780897	-0.431739	1.062661
C76	C	0.825185	-0.387435	1.020436
H77	H	0.780843	-0.431752	0.830990
H78	H	0.703769	-0.508852	0.904474
H79	H	0.703803	-0.508844	1.051600
H80	H	0.780912	-0.431735	1.125247
H81	H	0.857985	-0.354635	1.051764
H82	H	0.550760	-0.229898	0.269627
H83	H	0.550768	-0.376167	0.440081
H84	H	0.982813	-0.229845	0.785633
H85	H	0.836639	-0.375954	0.785486
C86	C	0.825059	-0.671320	0.453615
C87	C	0.825081	-0.743632	0.453629
C88	C	0.780785	-0.779809	0.505345
C89	C	0.736467	-0.743673	0.557047
C90	C	0.736444	-0.671356	0.557035
C91	C	0.780740	-0.635179	0.505319
H92	H	0.857889	-0.770386	0.415354
H93	H	0.780802	-0.833343	0.505353
H94	H	0.703676	-0.770453	0.595330
H95	H	0.703635	-0.644602	0.595310
H96	H	0.780722	-0.581646	0.505311
H97	H	0.982825	-0.229812	0.925061
H98	H	0.670032	-0.376197	0.440026
H99	H	0.149930	-0.376083	0.440255
H100	H	0.982726	-0.661857	0.269614
H101	H	0.149922	-0.229815	0.269794
C102	C	0.679427	-0.218402	0.256145
C103	C	0.670468	-0.146844	0.262306
C104	C	0.706624	-0.102513	0.210610
C105	C	0.751738	-0.129739	0.152754
C106	C	0.760699	-0.201300	0.146591
C107	C	0.724543	-0.245631	0.198287
H108	H	0.637070	-0.126687	0.305137
H109	H	0.699991	-0.049539	0.215172
H110	H	0.778503	-0.096922	0.114486
H111	H	0.794097	-0.221457	0.103760
H112	H	0.731177	-0.298605	0.193725
H113	H	0.982831	-0.943431	0.269667
C114	C	0.278587	-0.218334	0.256304
C115	C	0.242430	-0.173993	0.204638
C116	C	0.278586	-0.129667	0.152935
C117	C	0.350899	-0.129683	0.152899
C118	C	0.387060	-0.174025	0.204568
C119	C	0.350904	-0.218351	0.256270
H120	H	0.188896	-0.173980	0.204662
H121	H	0.251817	-0.096842	0.114687
H122	H	0.377664	-0.096870	0.114626
H123	H	0.440594	-0.174038	0.204543
H124	H	0.377673	-0.251176	0.294519
C125	C	0.994183	-0.533194	0.256148
C126	C	0.966918	-0.488070	0.198319
C127	C	1.011214	-0.451900	0.146597
C128	C	1.082776	-0.460855	0.152704
C129	C	1.110045	-0.505981	0.210536
C130	C	1.065749	-0.542151	0.262258
H131	H	0.913940	-0.481439	0.193796
H132	H	0.991027	-0.418494	0.103785
H133	H	1.115567	-0.434079	0.114416
H134	H	1.163023	-0.512612	0.215059
H135	H	1.085936	-0.575557	0.305069
C136	C	0.825010	-0.533264	0.453592
C137	C	0.753455	-0.542392	0.447484
C138	C	0.709131	-0.506254	0.499184
C139	C	0.736363	-0.460988	0.556991
C140	C	0.807921	-0.451858	0.563101
C141	C	0.852245	-0.487996	0.511402
H142	H	0.733293	-0.575902	0.404690
H143	H	0.656158	-0.513013	0.494661
H144	H	0.703551	-0.434237	0.595262
H145	H	0.828083	-0.418348	0.605896
H146	H	0.905218	-0.481238	0.515925
H147	H	0.982883	-1.062694	0.269703
H148	H	0.836720	-1.062764	0.440268
C149	C	0.825158	-0.934106	0.453668
C150	C	0.753602	-0.943233	0.447560
C151	C	0.709279	-0.907097	0.499263
C152	C	0.736511	-0.861836	0.557075
C153	C	0.808070	-0.852708	0.563185
C154	C	0.852393	-0.888843	0.511482
H155	H	0.733440	-0.976739	0.404763
H156	H	0.656306	-0.913855	0.494739
H157	H	0.703700	-0.835087	0.595348
H158	H	0.828232	-0.819201	0.605983
H159	H	0.905366	-0.882085	0.516006
