data_functionalizedCrystal
_audit_creation_method	'MofGen! by Chris Wilmer'
_symmetry_space_group_name_H-M	'P1'
_symmetry_Int_Tables_number	1
_symmetry_cell_setting	triclinic
loop_
_symmetry_equiv_pos_as_xyz
  x,y,z
_cell_length_a	13.897449
_cell_length_b	13.897448
_cell_length_c	13.897441
_cell_angle_alpha	90.027040
_cell_angle_beta	89.978743
_cell_angle_gamma	89.979604
loop_
_atom_site_label
_atom_site_type_symbol
_atom_site_fract_x
_atom_site_fract_y
_atom_site_fract_z
Zn1	Zn	1.474670	0.383972	-0.545467
Zn2	Zn	1.808003	0.717305	-0.212134
Zn3	Zn	2.141336	1.050639	0.121200
Zn4	Zn	1.474564	0.545291	-0.384176
Zn5	Zn	1.807898	0.878624	-0.050842
Zn6	Zn	2.141231	1.211958	0.282491
Zn7	Zn	1.313365	0.384014	-0.384178
Zn8	Zn	1.646698	0.717347	-0.050845
Zn9	Zn	1.980032	1.050681	0.282489
Zn10	Zn	1.313335	0.545229	-0.545421
Zn11	Zn	1.646669	0.878562	-0.212087
Zn12	Zn	1.980002	1.211896	0.121246
O13	O	1.393984	0.464627	-0.464810
O14	O	1.727317	0.797960	-0.131477
O15	O	2.060650	1.131293	0.201856
O16	O	1.609637	0.405380	-0.524090
O17	O	1.942971	0.738713	-0.190756
O18	O	2.276304	1.072046	0.142577
O19	O	1.453149	0.523941	-0.249194
O20	O	1.786483	0.857274	0.084139
O21	O	2.119816	1.190607	0.417472
O22	O	1.334819	0.249027	-0.405593
O23	O	1.668152	0.582360	-0.072260
O24	O	2.001485	0.915693	0.261073
O25	O	1.609560	0.523900	-0.405590
O26	O	1.942893	0.857233	-0.072256
O27	O	2.276227	1.190567	0.261077
O28	O	1.453329	0.248996	-0.524092
O29	O	1.786662	0.582329	-0.190759
O30	O	2.119995	0.915663	0.142575
O31	O	1.334717	0.405451	-0.249196
O32	O	1.668050	0.738785	0.084137
O33	O	2.001383	1.072118	0.417471
O34	O	1.178379	0.405391	-0.405549
O35	O	1.511713	0.738724	-0.072215
O36	O	1.845046	1.072058	0.261118
O37	O	1.334768	0.523795	-0.680409
O38	O	1.668102	0.857128	-0.347075
O39	O	2.001435	1.190461	-0.013742
O40	O	1.178358	0.523835	-0.524013
O41	O	1.511691	0.857169	-0.190680
O42	O	1.845024	1.190502	0.142654
O43	O	1.453300	0.405320	-0.680443
O44	O	1.786633	0.738653	-0.347109
O45	O	2.119967	1.071986	-0.013776
O46	O	1.453121	0.680264	-0.405545
O47	O	1.786454	1.013598	-0.072212
O48	O	2.119787	1.346931	0.261122
O49	O	1.334666	0.680219	-0.524011
O50	O	1.668000	1.013552	-0.190678
O51	O	2.001333	1.346886	0.142656
C52	C	1.143369	0.464612	-0.464777
C53	C	1.476703	0.797945	-0.131443
C54	C	1.810036	1.131278	0.201890
C55	C	1.036155	0.464629	-0.464785
C56	C	1.369489	0.797962	-0.131452
C57	C	1.702822	1.131295	0.201881
C58	C	0.949086	0.464632	-0.464801
C59	C	1.282419	0.797965	-0.131468
C60	C	1.615752	1.131298	0.201865
C61	C	0.839853	0.464639	-0.464831
C62	C	1.173186	0.797972	-0.131497
C63	C	1.506520	1.131305	0.201836
C64	C	1.393905	0.715241	-0.464794
C65	C	1.727238	1.048574	-0.131460
C66	C	2.060572	1.381908	0.201873
C67	C	1.393960	0.822455	-0.464819
C68	C	1.727293	1.155788	-0.131486
C69	C	2.060626	1.489121	0.201848
C70	C	1.394054	1.018750	-0.464888
C71	C	1.727388	1.352083	-0.131555
C72	C	2.060721	1.685417	0.201778
C73	C	1.393999	0.909517	-0.464853
C74	C	1.727332	1.242851	-0.131519
C75	C	2.060666	1.576184	0.201814
C76	C	1.645577	0.464642	-0.464845
C77	C	1.978910	0.797975	-0.131511
C78	C	2.312243	1.131309	0.201822
C79	C	1.752790	0.464649	-0.464859
C80	C	2.086124	0.797982	-0.131526
C81	C	2.419457	1.131315	0.201807
C82	C	1.394081	1.213034	-0.464859
C83	C	1.727414	1.546367	-0.131526
C84	C	2.060747	1.879700	0.201807
C85	C	1.394101	1.105820	-0.464909
C86	C	1.727434	1.439153	-0.131576
C87	C	2.060768	1.772486	0.201757
C88	C	1.394043	0.464546	-0.716403
C89	C	1.727376	0.797879	-0.383070
C90	C	2.060709	1.131212	-0.049737
C91	C	1.394068	0.464511	-0.823617
C92	C	1.727401	0.797844	-0.490284
C93	C	2.060734	1.131178	-0.156951
C94	C	1.394088	0.464484	-0.910687
C95	C	1.727421	0.797817	-0.577354
C96	C	2.060754	1.131150	-0.244021
C97	C	1.394115	0.464440	-1.019920
C98	C	1.727449	0.797774	-0.686587
C99	C	2.060782	1.131107	-0.353253
C100	C	1.393980	0.464638	-0.214196
C101	C	1.727314	0.797971	0.119137
C102	C	2.060647	1.131304	0.452471
C103	C	1.394142	0.464400	-0.106983
C104	C	1.727475	0.797734	0.226351
C105	C	2.060809	1.131067	0.559684
