data_functionalizedCrystal
_audit_creation_method	'MofGen! by Chris Wilmer'
_symmetry_space_group_name_H-M	'P1'
_symmetry_Int_Tables_number	1
_symmetry_cell_setting	triclinic
loop_
_symmetry_equiv_pos_as_xyz
  x,y,z
_cell_length_a	15.712078
_cell_length_b	15.944493
_cell_length_c	14.750779
_cell_angle_alpha	77.365253
_cell_angle_beta	106.492891
_cell_angle_gamma	101.528097
loop_
_atom_site_label
_atom_site_type_symbol
_atom_site_fract_x
_atom_site_fract_y
_atom_site_fract_z
O1	O	1.128022	0.473091	-0.079996
O2	O	0.876386	0.409143	-0.079955
O3	O	1.009100	0.320959	-0.079985
O4	O	0.995308	0.561275	-0.079967
O5	O	1.046616	0.296034	0.079657
O6	O	0.913903	0.384219	0.079687
O7	O	1.165539	0.448166	0.079646
Zn8	Zn	1.045677	0.412235	0.105013
Zn9	Zn	0.996247	0.445074	-0.105322
O10	O	1.032825	0.536350	0.079675
C11	C	0.862944	0.386234	-0.000129
C12	C	0.766997	0.355097	-0.000114
C13	C	1.027293	0.277029	-0.000168
C14	C	1.025600	0.183263	-0.000180
C15	C	0.399849	0.619450	-0.000160
C16	C	0.309686	0.590178	-0.000187
C17	C	0.330321	0.443487	-0.000200
C18	C	0.420487	0.472747	-0.000178
C19	C	0.455244	0.560729	-0.000158
C20	C	0.475882	0.414027	-0.000176
C21	C	0.566041	0.443284	-0.000149
C22	C	0.600805	0.531262	-0.000126
C23	C	0.545403	0.589987	-0.000131
C24	C	0.441125	0.326044	-0.000190
C25	C	0.496520	0.267324	-0.000187
C26	C	0.586679	0.296582	-0.000167
C27	C	0.621443	0.384560	-0.000144
C28	C	0.642082	0.237857	-0.000162
C29	C	0.732241	0.267115	-0.000135
C30	C	0.711602	0.413817	-0.000117
C31	C	1.103724	-0.028501	-0.000174
C32	C	1.043099	-0.079721	-0.078879
C33	C	1.022471	0.011578	-0.000168
C34	C	1.080069	-0.104277	0.078516
C35	C	1.019455	-0.154261	-0.000152
C36	C	0.961853	-0.038397	-0.078937
C37	C	0.998851	-0.062957	0.078528
C38	C	0.938162	-0.114160	-0.000196
C39	C	1.024210	0.107115	-0.000178
C40	C	1.017707	-0.249796	-0.000148
C41	C	1.178980	0.471075	-0.000182
C42	C	1.274925	0.502214	-0.000204
C43	C	1.014631	0.580280	-0.000144
C44	C	1.016323	0.674047	-0.000138
N45	N	1.079418	0.389824	0.248561
N46	N	0.962514	0.467480	-0.248871
C47	C	0.868280	0.530032	0.600426
C48	C	0.891930	0.514336	0.700920
C49	C	1.009472	0.436298	0.700856
C50	C	0.985830	0.451985	0.600361
C51	C	0.915234	0.498853	0.550153
C52	C	1.032783	0.420805	0.550088
C53	C	1.009145	0.436494	0.449601
C54	C	0.938553	0.483363	0.399386
C55	C	0.891596	0.514542	0.449666
C56	C	1.103383	0.373942	0.600297
C57	C	1.150336	0.342763	0.550024
C58	C	1.126694	0.358446	0.449535
C59	C	1.056103	0.405315	0.399321
C60	C	1.173652	0.327267	0.399255
C61	C	1.150014	0.342956	0.298768
C62	C	1.032465	0.421004	0.298834
H63	H	0.674220	0.555082	-0.000100
N64	N	1.085607	0.385742	0.755007
H65	H	1.142827	0.417026	0.737492
H66	H	1.093382	0.380543	0.826277
H67	H	1.061775	-0.087736	-0.145430
H68	H	0.834103	0.552699	0.408785
H69	H	0.810788	0.568189	0.559545
N70	N	1.249793	0.276720	0.453408
H71	H	1.307010	0.308009	0.435890
H72	H	1.257568	0.271525	0.524678
N73	N	0.895691	-0.000401	-0.167169
H74	H	0.928540	0.048547	-0.206322
H75	H	0.864569	-0.047016	-0.207035
N76	N	1.128882	0.357025	0.708680
H77	H	1.075865	0.322944	0.732911
H78	H	1.180752	0.322639	0.732780
H79	H	0.428149	0.691093	-0.000142
H80	H	0.613772	0.166220	-0.000166
N81	N	1.200656	0.309334	0.244537
H82	H	1.248963	0.277261	0.291590
H83	H	1.157768	0.268527	0.202851
H84	H	0.777345	0.219299	-0.000135
H85	H	0.980206	-0.054918	0.145081
H86	H	1.173693	0.008641	-0.000265
H87	H	0.739903	0.485460	-0.000099
N88	N	0.582897	0.684884	-0.000122
H89	H	0.534124	0.717649	-0.000133
H90	H	0.633742	0.690972	0.059071
N91	N	0.956319	0.471553	0.244674
H92	H	0.948473	0.476759	0.173388
H93	H	0.899146	0.440228	0.262261
H94	H	0.868110	-0.151137	-0.000227
N95	N	1.146249	-0.142393	0.166651
H96	H	1.208727	-0.110809	0.166566
H97	H	1.130099	-0.135850	0.226059
H98	H	1.207818	0.304605	0.590914
H99	H	0.264586	0.638002	-0.000184
H100	H	0.853689	0.539731	0.741847
H101	H	0.302012	0.371850	-0.000206
N102	N	0.913044	0.500272	0.291004
H103	H	0.861196	0.534690	0.266828
H104	H	0.966107	0.534316	0.266838
H105	H	0.367714	0.302224	-0.000199
N106	N	0.459033	0.172431	-0.000197
H107	H	0.393513	0.162804	-0.000210
H108	H	0.465409	0.154759	-0.059377
