data_functionalizedCrystal
_audit_creation_method	'MofGen! by Chris Wilmer'
_symmetry_space_group_name_H-M	'P1'
_symmetry_Int_Tables_number	1
_symmetry_cell_setting	triclinic
loop_
_symmetry_equiv_pos_as_xyz
  x,y,z
_cell_length_a	10.723023
_cell_length_b	14.519709
_cell_length_c	9.798715
_cell_angle_alpha	89.995905
_cell_angle_beta	89.996770
_cell_angle_gamma	84.073846
loop_
_atom_site_label
_atom_site_type_symbol
_atom_site_fract_x
_atom_site_fract_y
_atom_site_fract_z
O1	O	1.655978	0.129344	-0.113480
O2	O	2.155978	0.629344	0.386520
O3	O	1.292710	0.141726	-0.113486
O4	O	1.792710	0.641726	0.386514
O5	O	1.483976	0.001346	-0.113471
O6	O	1.983976	0.501346	0.386529
O7	O	1.464713	0.269724	-0.113496
O8	O	1.964713	0.769724	0.386504
O9	O	1.483961	0.001345	0.113511
O10	O	1.983961	0.501345	0.613511
O11	O	1.292696	0.141725	0.113496
O12	O	1.792696	0.641725	0.613496
O13	O	1.655964	0.129344	0.113502
O14	O	2.155964	0.629344	0.613502
Zn15	Zn	1.474328	0.135534	0.149537
Zn16	Zn	1.974328	0.635534	0.649537
Zn17	Zn	1.474346	0.135535	-0.149522
Zn18	Zn	1.974346	0.635535	0.350478
O19	O	1.464698	0.269724	0.113486
O20	O	1.964698	0.769724	0.613486
C21	C	1.246212	0.140825	0.000004
C22	C	1.746212	0.640825	0.500004
C23	C	1.107683	0.138129	0.000002
C24	C	1.607683	0.638129	0.500002
C25	C	1.045914	0.136927	0.117585
C26	C	1.545914	0.636927	0.617585
C27	C	0.902737	0.134141	0.117585
C28	C	1.402737	0.634141	0.617585
C29	C	1.483071	-0.033019	0.000020
C30	C	1.983071	0.466981	0.500020
C31	C	1.480381	-0.135414	0.000021
C32	C	1.980381	0.364586	0.500021
C33	C	1.470477	-0.510360	-0.000015
C34	C	1.970477	-0.010360	0.499985
C35	C	1.473227	-0.406038	-0.000004
C36	C	1.973227	0.093962	0.499996
C37	C	1.475428	-0.322890	0.000005
C38	C	1.975428	0.177110	0.500005
C39	C	1.478179	-0.218562	0.000012
C40	C	1.978179	0.281438	0.500012
C41	C	1.702462	0.130245	0.000008
C42	C	2.202462	0.630245	0.500008
C43	C	1.840992	0.132940	0.000001
C44	C	2.340992	0.632940	0.500001
C45	C	1.465603	0.304088	-0.000008
C46	C	1.965603	0.804088	0.499992
C47	C	1.468293	0.406483	-0.000018
C48	C	1.968293	0.906483	0.499982
N49	N	1.474324	0.135534	0.353637
N50	N	1.974324	0.635534	0.853637
N51	N	1.474360	0.135529	-0.353621
N52	N	1.974360	0.635529	0.146379
C53	C	1.554634	0.076332	0.421420
C54	C	2.054634	0.576332	0.921420
C55	C	1.554654	0.076329	0.578583
C56	C	2.054654	0.576329	1.078583
H57	H	0.849617	0.133113	0.218252
H58	H	1.349617	0.633113	0.718252
Br59	Br	1.359733	0.220005	0.450827
Br60	Br	1.859733	0.720005	0.950827
Br61	Br	1.134432	0.138644	0.285379
Br62	Br	1.634432	0.638644	0.785379
H63	H	1.623371	0.025646	0.363103
H64	H	2.123371	0.525646	0.863103
H65	H	0.894102	0.133979	-0.100671
H66	H	1.394102	0.633979	0.399329
H67	H	1.054567	0.137093	-0.100664
H68	H	1.554567	0.637093	0.399336
H69	H	1.623415	0.025647	0.636874
H70	H	2.123415	0.525647	1.136874
H71	H	1.405604	0.186219	0.588097
H72	H	1.905604	0.686219	1.088097
