data_functionalizedCrystal
_audit_creation_method	'MofGen! by Chris Wilmer'
_symmetry_space_group_name_H-M	'P1'
_symmetry_Int_Tables_number	1
_symmetry_cell_setting	triclinic
loop_
_symmetry_equiv_pos_as_xyz
  x,y,z
_cell_length_a	16.974800
_cell_length_b	16.992695
_cell_length_c	9.730223
_cell_angle_alpha	89.995280
_cell_angle_beta	93.653525
_cell_angle_gamma	87.021674
loop_
_atom_site_label
_atom_site_type_symbol
_atom_site_fract_x
_atom_site_fract_y
_atom_site_fract_z
O1	O	1.055459	0.099873	0.003147
O2	O	0.826057	0.112614	-0.022381
O3	O	0.939839	-0.007898	-0.009708
O4	O	0.941678	0.220385	-0.009526
O5	O	0.939831	-0.007901	0.218871
O6	O	0.826049	0.112610	0.206198
O7	O	1.055451	0.099870	0.231726
Zn8	Zn	0.940749	0.106240	0.255254
Zn9	Zn	0.940760	0.106244	-0.045909
O10	O	0.941670	0.220382	0.219053
C11	C	0.796564	0.112130	0.088627
C12	C	0.708696	0.110682	0.078849
C13	C	0.667416	0.109998	0.198857
C14	C	0.584855	0.108626	0.189674
C15	C	0.543575	0.107943	0.060481
C16	C	0.584862	0.108624	-0.059536
C17	C	0.667422	0.109991	-0.050351
C18	C	0.296659	0.103850	0.019651
C19	C	0.214093	0.102485	0.010476
C20	C	0.214092	0.102486	0.259686
C21	C	0.296653	0.103857	0.268860
C22	C	0.337932	0.104534	0.148843
N23	N	0.459185	0.106542	0.051091
N24	N	0.422322	0.105929	0.158234
C25	C	0.937469	-0.037110	0.104318
C26	C	0.930409	-0.124146	0.103532
C27	C	0.998525	-0.174463	0.111113
C28	C	0.991887	-0.256242	0.110361
C29	C	0.917132	-0.287702	0.102038
C30	C	0.849012	-0.237378	0.094452
C31	C	0.855651	-0.155601	0.095194
C32	C	0.889618	-0.531269	0.098957
C33	C	0.882984	-0.613053	0.098220
C34	C	1.025860	-0.631911	0.114127
C35	C	1.032492	-0.550131	0.114876
C36	C	0.964371	-0.499815	0.107283
N37	N	0.910346	-0.371294	0.101274
N38	N	0.971159	-0.416225	0.108037
C39	C	1.084944	0.100354	0.120715
C40	C	1.172813	0.101802	0.130484
C41	C	0.944040	0.249593	0.105024
C42	C	0.951100	0.336630	0.105801
N43	N	0.940748	0.106236	0.460790
N44	N	0.940767	0.106241	-0.251444
C45	C	0.991150	0.052896	0.538330
C46	C	0.991158	0.052896	0.682213
C47	C	0.890359	0.159584	0.671005
C48	C	0.890348	0.159579	0.527124
H49	H	0.330259	0.104399	-0.078075
H50	H	0.180473	0.101933	0.357397
H51	H	1.032198	0.009461	0.745343
N52	N	0.836002	0.217116	0.742551
H53	H	0.843658	0.209028	0.845466
H54	H	0.848643	0.272733	0.718788
H55	H	0.849301	0.203016	0.463986
H56	H	0.701019	0.110561	0.304060
H57	H	0.551249	0.108056	0.287398
H58	H	1.059397	-0.148856	0.117899
H59	H	1.081319	-0.672888	0.120306
N60	N	0.540344	0.107878	-0.198882
H61	H	0.481779	0.106909	-0.186493
H62	H	0.551433	0.156696	-0.252071
N63	N	0.802351	-0.646984	0.089240
H64	H	0.772282	-0.628630	0.001152
H65	H	0.808552	-0.706419	0.089989
H66	H	0.701031	0.110549	-0.148074
H67	H	1.093364	-0.524523	0.121654
N68	N	0.341174	0.104603	0.408203
H69	H	0.302494	0.103963	0.482837
H70	H	0.378775	0.056592	0.417827
H71	H	1.047354	-0.297208	0.116538
N72	N	0.169567	0.101755	-0.128874
H73	H	0.208244	0.102391	-0.203512
H74	H	0.138651	0.052610	-0.137732
H75	H	0.834149	-0.490310	0.092775
H76	H	0.788145	-0.262999	0.087666
H77	H	0.800183	-0.114632	0.089020
H78	H	1.032187	0.009460	0.484324
