data_functionalizedCrystal
_audit_creation_method	'MofGen! by Chris Wilmer'
_symmetry_space_group_name_H-M	'P1'
_symmetry_Int_Tables_number	1
_symmetry_cell_setting	triclinic
loop_
_symmetry_equiv_pos_as_xyz
  x,y,z
_cell_length_a	14.971486
_cell_length_b	10.654550
_cell_length_c	9.730223
_cell_angle_alpha	89.999490
_cell_angle_beta	89.995614
_cell_angle_gamma	84.049530
loop_
_atom_site_label
_atom_site_type_symbol
_atom_site_fract_x
_atom_site_fract_y
_atom_site_fract_z
O1	O	0.125631	1.666492	-0.114188
O2	O	0.625631	2.166492	0.385812
O3	O	0.137600	1.300885	-0.114213
O4	O	0.637600	1.800885	0.385787
O5	O	0.001468	1.493488	-0.114190
O6	O	0.501468	1.993488	0.385810
O7	O	0.261762	1.473890	-0.114211
O8	O	0.761762	1.973890	0.385789
O9	O	0.001465	1.493474	0.114390
O10	O	0.501465	1.993474	0.614390
O11	O	0.137597	1.300871	0.114366
O12	O	0.637597	1.800871	0.614366
O13	O	0.125628	1.666478	0.114392
O14	O	0.625628	2.166478	0.614392
Zn15	Zn	0.131612	1.483672	0.150671
Zn16	Zn	0.631612	1.983672	0.650671
Zn17	Zn	0.131616	1.483691	-0.150493
Zn18	Zn	0.631616	1.983691	0.349507
O19	O	0.261759	1.473875	0.114369
O20	O	0.761759	1.973875	0.614369
C21	C	0.136720	1.254090	0.000073
C22	C	0.636720	1.754090	0.500073
C23	C	0.134090	1.114675	0.000064
C24	C	0.634090	1.614675	0.500064
C25	C	0.214242	1.034329	0.000061
C26	C	0.714242	1.534329	0.500061
C27	C	0.211766	0.903335	0.000086
C28	C	0.711766	1.403335	0.500086
C29	C	0.048979	0.933044	0.000109
C30	C	0.548979	1.433044	0.500109
C31	C	0.051456	1.064036	0.000095
C32	C	0.551456	1.564036	0.500095
C33	C	-0.031863	1.492604	0.000099
C34	C	0.468137	1.992604	0.500099
C35	C	-0.131174	1.489978	0.000098
C36	C	0.368826	1.989978	0.500098
C37	C	-0.187783	1.603127	0.000107
C38	C	0.312217	2.103127	0.500107
C39	C	-0.281096	1.600651	0.000093
C40	C	0.218904	2.100651	0.500093
C41	C	-0.317798	1.485026	0.000080
C42	C	0.182202	1.985026	0.500080
C43	C	-0.261181	1.371868	0.000067
C44	C	0.238819	1.871868	0.500067
C45	C	-0.167870	1.374345	0.000071
C46	C	0.332130	1.874345	0.500071
C47	C	-0.455672	1.366714	0.000061
C48	C	0.044328	1.866714	0.500061
C49	C	-0.548989	1.364237	0.000060
C50	C	-0.048989	1.864237	0.500060
C51	C	-0.568898	1.593020	0.000083
C52	C	-0.068898	2.093020	0.500083
C53	C	-0.475587	1.595497	0.000087
C54	C	0.024413	2.095497	0.500087
C55	C	-0.418976	1.482339	0.000077
C56	C	0.081024	1.982339	0.500077
C57	C	0.295090	1.474759	0.000076
C58	C	0.795090	1.974759	0.500076
C59	C	0.394401	1.477385	0.000069
C60	C	0.894401	1.977385	0.500069
C61	C	0.126508	1.713274	0.000102
C62	C	0.626508	2.213274	0.500102
C63	C	0.129137	1.852689	0.000102
C64	C	0.629137	2.352689	0.500102
N65	N	0.131608	1.483669	0.356208
N66	N	0.631608	1.983669	0.856208
C67	C	0.071355	1.568982	0.428144
C68	C	0.571355	2.068982	0.928144
C69	C	0.071356	1.568993	0.572027
C70	C	0.571356	2.068993	1.072027
C71	C	0.191871	1.398375	0.572025
C72	C	0.691871	1.898375	1.072025
C73	C	0.191865	1.398358	0.428144
C74	C	0.691865	1.898358	0.928144
N75	N	0.131615	1.483697	0.643971
N76	N	0.631615	1.983697	1.143971
H77	H	0.281528	1.075554	0.000047
H78	H	0.781528	1.575554	0.500047
H79	H	0.022289	1.638445	0.369576
H80	H	0.522289	2.138445	0.869576
H81	H	0.022292	1.638461	0.630593
H82	H	0.522292	2.138461	1.130593
C83	C	-0.147421	1.730326	0.000121
C84	C	0.352579	2.230326	0.500121
N85	N	-0.117024	1.826136	0.000126
N86	N	0.382976	2.326136	0.500126
C87	C	0.258193	1.304560	0.349010
C88	C	0.758193	1.804560	0.849010
N89	N	0.308162	1.233933	0.289406
N90	N	0.808162	1.733933	0.789406
H91	H	0.277034	0.837922	0.000086
H92	H	0.777034	1.337922	0.500086
H93	H	-0.327185	1.692789	0.000103
H94	H	0.172815	2.192789	0.500103
H95	H	-0.445708	1.689649	0.000108
H96	H	0.054292	2.189649	0.500108
H97	H	-0.018299	0.891798	0.000142
H98	H	0.481701	1.391798	0.500142
H99	H	-0.013817	1.129457	0.000101
H100	H	0.486183	1.629457	0.500101
H101	H	0.240932	1.328919	0.630610
H102	H	0.740932	1.828919	1.130610
H103	H	-0.614995	1.685158	0.000087
H104	H	-0.114995	2.185158	0.500087
H105	H	-0.578868	1.270084	0.000071
H106	H	-0.078868	1.770084	0.500071
C107	C	-0.393402	1.242233	0.000057
C108	C	0.106598	1.742233	0.500057
N109	N	-0.346500	1.148476	0.000063
N110	N	0.153500	1.648476	0.500063
H111	H	-0.291071	1.277724	0.000047
H112	H	0.208929	1.777724	0.500047
H113	H	-0.121779	1.282207	0.000063
H114	H	0.378221	1.782207	0.500063
