data_functionalizedCrystal
_audit_creation_method	'MofGen! by Chris Wilmer'
_symmetry_space_group_name_H-M	'P1'
_symmetry_Int_Tables_number	1
_symmetry_cell_setting	triclinic
loop_
_symmetry_equiv_pos_as_xyz
  x,y,z
_cell_length_a	8.597366
_cell_length_b	17.019294
_cell_length_c	7.088929
_cell_angle_alpha	79.934307
_cell_angle_beta	103.954530
_cell_angle_gamma	84.889302
loop_
_atom_site_label
_atom_site_type_symbol
_atom_site_fract_x
_atom_site_fract_y
_atom_site_fract_z
O1	O	2.099259	0.109248	0.168836
O2	O	1.634328	0.122236	0.090107
O3	O	1.881725	-0.000074	0.151008
O4	O	1.851861	0.231558	0.107935
O5	O	1.914788	-0.016456	0.477128
O6	O	1.667391	0.105854	0.416227
O7	O	2.132322	0.092866	0.494956
Cu8	Cu	1.902875	0.097864	0.485369
Cu9	Cu	1.863774	0.117238	0.099694
O10	O	1.884924	0.215176	0.434055
C11	C	1.591405	0.113563	0.243452
C12	C	1.414252	0.112118	0.214507
C13	C	1.897776	-0.037903	0.318866
C14	C	1.896327	-0.126214	0.333161
C15	C	1.877627	-0.158768	0.162111
C16	C	1.876255	-0.241745	0.175546
C17	C	1.893594	-0.292167	0.360037
C18	C	1.912291	-0.259607	0.531099
C19	C	1.913651	-0.176631	0.517659
C20	C	1.890378	-0.543148	0.409508
C21	C	1.889021	-0.626130	0.422935
C22	C	1.852982	-0.608261	0.067381
C23	C	1.854354	-0.525284	0.053959
C24	C	1.873041	-0.492732	0.225020
C25	C	1.892197	-0.376983	0.373775
C26	C	1.874427	-0.407916	0.211277
C27	C	2.175244	0.101539	0.341607
C28	C	2.352395	0.102985	0.370539
C29	C	1.868873	0.253005	0.266193
C30	C	1.870321	0.341316	0.251885
N31	N	1.930388	0.084237	0.756634
N32	N	1.836274	0.130859	-0.171568
H33	H	1.434975	0.096271	0.526291
F34	F	1.306333	0.120883	0.010938
H35	H	1.863515	-0.117719	0.011880
F36	F	1.856353	-0.276387	-0.006510
F37	F	1.835902	-0.471627	-0.142400
H38	H	1.837764	-0.634775	-0.071888
F39	F	2.057902	0.021089	0.894765
H40	H	1.905627	-0.516656	0.548804
F41	F	1.907486	-0.679793	0.619305
H42	H	1.926399	-0.300667	0.681313
F43	F	1.933552	-0.141985	0.699715
H44	H	1.860298	-0.366858	0.061064
H45	H	1.906321	-0.418046	0.523989
H46	H	1.738736	0.179173	0.722760
