data_functionalizedCrystal
_audit_creation_method	'MofGen! by Chris Wilmer'
_symmetry_space_group_name_H-M	'P1'
_symmetry_Int_Tables_number	1
_symmetry_cell_setting	triclinic
loop_
_symmetry_equiv_pos_as_xyz
  x,y,z
_cell_length_a	23.532407
_cell_length_b	14.519709
_cell_length_c	12.996460
_cell_angle_alpha	89.999966
_cell_angle_beta	89.989202
_cell_angle_gamma	96.735588
loop_
_atom_site_label
_atom_site_type_symbol
_atom_site_fract_x
_atom_site_fract_y
_atom_site_fract_z
O1	O	0.074654	-1.222985	-0.085444
O2	O	0.324654	-0.972985	0.164556
O3	O	0.574654	-0.722985	0.414556
O4	O	0.824654	-0.472985	0.664556
O5	O	0.083445	-0.954405	-0.085477
O6	O	0.333445	-0.704405	0.164523
O7	O	0.583445	-0.454405	0.414523
O8	O	0.833445	-0.204405	0.664523
O9	O	-0.003845	-1.096794	-0.085440
O10	O	0.246155	-0.846794	0.164560
O11	O	0.496155	-0.596794	0.414560
O12	O	0.746155	-0.346794	0.664560
O13	O	0.161945	-1.080596	-0.085480
O14	O	0.411945	-0.830596	0.164520
O15	O	0.661945	-0.580596	0.414520
O16	O	0.911945	-0.330596	0.664520
O17	O	-0.003850	-1.096779	0.085693
O18	O	0.246150	-0.846779	0.335693
O19	O	0.496150	-0.596779	0.585693
O20	O	0.746150	-0.346779	0.835693
O21	O	0.083441	-0.954390	0.085657
O22	O	0.333441	-0.704390	0.335657
O23	O	0.583441	-0.454390	0.585657
O24	O	0.833441	-0.204390	0.835657
O25	O	0.074649	-1.222971	0.085690
O26	O	0.324649	-0.972971	0.335690
O27	O	0.574649	-0.722971	0.585690
O28	O	0.824649	-0.472971	0.835690
Cu29	Cu	0.079044	-1.088679	0.101299
Cu30	Cu	0.329044	-0.838679	0.351299
Cu31	Cu	0.579044	-0.588679	0.601299
Cu32	Cu	0.829044	-0.338679	0.851299
Cu33	Cu	0.079050	-1.088696	-0.101086
Cu34	Cu	0.329050	-0.838696	0.148914
Cu35	Cu	0.579050	-0.588696	0.398914
Cu36	Cu	0.829050	-0.338696	0.648914
O37	O	0.161940	-1.080581	0.085654
O38	O	0.411940	-0.830581	0.335654
O39	O	0.661940	-0.580581	0.585654
O40	O	0.911940	-0.330581	0.835654
C41	C	0.083033	-0.920042	0.000086
C42	C	0.333033	-0.670042	0.250086
C43	C	0.583033	-0.420042	0.500086
C44	C	0.833033	-0.170042	0.750086
C45	C	0.081805	-0.817676	0.000075
C46	C	0.331805	-0.567676	0.250075
C47	C	0.581805	-0.317676	0.500075
C48	C	0.831805	-0.067676	0.750075
C49	C	-0.025066	-1.096374	0.000129
C50	C	0.224934	-0.846374	0.250129
C51	C	0.474934	-0.596374	0.500129
C52	C	0.724934	-0.346374	0.750129
C53	C	-0.088288	-1.095134	0.000137
C54	C	0.161712	-0.845134	0.250137
C55	C	0.411712	-0.595134	0.500137
C56	C	0.661712	-0.345134	0.750137
C57	C	0.075061	-1.257333	0.000125
C58	C	0.325061	-1.007333	0.250125
C59	C	0.575061	-0.757333	0.500125
C60	C	0.825061	-0.507333	0.750125
C61	C	0.076289	-1.359700	0.000130
C62	C	0.326289	-1.109700	0.250130
C63	C	0.576289	-0.859700	0.500130
C64	C	0.826289	-0.609700	0.750130
C65	C	-0.487046	-1.171619	0.000090
C66	C	-0.237046	-0.921619	0.250090
C67	C	0.012954	-0.671619	0.500090
C68	C	0.262954	-0.421619	0.750090
C69	C	-0.546452	-1.170467	0.000082
C70	C	-0.296452	-0.920467	0.250082
C71	C	-0.046452	-0.670467	0.500082
C72	C	0.203548	-0.420467	0.750082
O73	O	-0.582876	-1.241369	0.000052
O74	O	-0.332876	-0.991369	0.250052
O75	O	-0.082876	-0.741369	0.500052
O76	O	0.167124	-0.491369	0.750052
N77	N	-0.569460	-1.085816	0.000072
N78	N	-0.319460	-0.835816	0.250072
N79	N	-0.069460	-0.585816	0.500072
N80	N	0.180540	-0.335816	0.750072
C81	C	-0.533059	-1.002312	0.000060
C82	C	-0.283059	-0.752312	0.250060
C83	C	-0.033059	-0.502312	0.500060
C84	C	0.216941	-0.252312	0.750060
O85	O	-0.558084	-0.930205	0.000050
O86	O	-0.308084	-0.680205	0.250050
O87	O	-0.058084	-0.430205	0.500050
O88	O	0.191916	-0.180205	0.750050
C89	C	-0.473655	-1.003465	0.000061
C90	C	-0.223655	-0.753465	0.250061
C91	C	0.026345	-0.503465	0.500061
C92	C	0.276345	-0.253465	0.750061
C93	C	-0.450650	-1.088121	0.000081
C94	C	-0.200650	-0.838121	0.250081
C95	C	0.049350	-0.588121	0.500081
C96	C	0.299350	-0.338121	0.750081
C97	C	-0.464041	-1.256268	0.000109
C98	C	-0.214041	-1.006268	0.250109
C99	C	0.035959	-0.756268	0.500109
C100	C	0.285959	-0.506268	0.750109
C101	C	-0.404640	-1.257420	0.000119
C102	C	-0.154640	-1.007420	0.250119
C103	C	0.095360	-0.757420	0.500119
C104	C	0.345360	-0.507420	0.750119
C105	C	-0.368244	-1.173922	0.000110
C106	C	-0.118244	-0.923922	0.250110
C107	C	0.131756	-0.673922	0.500110
C108	C	0.381756	-0.423922	0.750110
C109	C	-0.391249	-1.089273	0.000091
C110	C	-0.141249	-0.839273	0.250091
C111	C	0.108751	-0.589273	0.500091
C112	C	0.358751	-0.339273	0.750091
C113	C	-0.437255	-0.919962	0.000041
C114	C	-0.187255	-0.669962	0.250041
C115	C	0.062745	-0.419962	0.500041
C116	C	0.312745	-0.169962	0.750041
C117	C	-0.377847	-0.921123	0.000041
C118	C	-0.127847	-0.671123	0.250041
C119	C	0.122153	-0.421123	0.500041
C120	C	0.372153	-0.171123	0.750041
C121	C	-0.354843	-1.005779	0.000061
C122	C	-0.104843	-0.755779	0.250061
C123	C	0.145157	-0.505779	0.500061
C124	C	0.395157	-0.255779	0.750061
C125	C	-0.295451	-1.006927	0.000091
C126	C	-0.045451	-0.756927	0.250091
C127	C	0.204549	-0.506927	0.500091
C128	C	0.454549	-0.256927	0.750091
N129	N	-0.272443	-1.091578	0.000101
N130	N	-0.022443	-0.841578	0.250101
N131	N	0.227557	-0.591578	0.500101
N132	N	0.477557	-0.341578	0.750101
C133	C	-0.308839	-1.175075	0.000110
C134	C	-0.058839	-0.925075	0.250110
C135	C	0.191161	-0.675075	0.500110
C136	C	0.441161	-0.425075	0.750110
C137	C	-0.657813	-0.999897	0.000057
C138	C	-0.407813	-0.749897	0.250057
C139	C	-0.157813	-0.499897	0.500057
C140	C	0.092187	-0.249897	0.750057
C141	C	-0.717216	-0.998743	0.000064
C142	C	-0.467216	-0.748743	0.250064
C143	C	-0.217216	-0.498743	0.500064
C144	C	0.032784	-0.248743	0.750064
C145	C	-0.730604	-1.166898	0.000084
C146	C	-0.480604	-0.916898	0.250084
C147	C	-0.230604	-0.666898	0.500084
C148	C	0.019396	-0.416898	0.750084
C149	C	-0.671200	-1.168051	0.000084
C150	C	-0.421200	-0.918051	0.250084
C151	C	-0.171200	-0.668051	0.500084
C152	C	0.078800	-0.418051	0.750084
C153	C	-0.634804	-1.084548	0.000067
C154	C	-0.384804	-0.834548	0.250067
C155	C	-0.134804	-0.584548	0.500067
C156	C	0.115196	-0.334548	0.750067
C157	C	-0.184092	-1.177487	0.000132
C158	C	0.065908	-0.927487	0.250132
C159	C	0.315908	-0.677487	0.500132
C160	C	0.565908	-0.427487	0.750132
C161	C	-0.124685	-1.178632	0.000146
C162	C	0.125315	-0.928632	0.250146
C163	C	0.375315	-0.678632	0.500146
C164	C	0.625315	-0.428632	0.750146
C165	C	-0.111301	-1.010477	0.000121
C166	C	0.138699	-0.760477	0.250121
C167	C	0.388699	-0.510477	0.500121
C168	C	0.638699	-0.260477	0.750121
C169	C	-0.170703	-1.009332	0.000112
C170	C	0.079297	-0.759332	0.250112
C171	C	0.329297	-0.509332	0.500112
C172	C	0.579297	-0.259332	0.750112
C173	C	-0.207098	-1.092845	0.000114
C174	C	0.042902	-0.842845	0.250114
C175	C	0.292902	-0.592845	0.500114
C176	C	0.542902	-0.342845	0.750114
O177	O	-0.258992	-0.936062	0.000117
O178	O	-0.008992	-0.686062	0.250117
O179	O	0.241008	-0.436062	0.500117
O180	O	0.491008	-0.186062	0.750117
O181	O	-0.283806	-1.247171	0.000106
O182	O	-0.033806	-0.997171	0.250106
O183	O	0.216194	-0.747171	0.500106
O184	O	0.466194	-0.497171	0.750106
C185	C	0.183160	-1.081001	0.000082
C186	C	0.433160	-0.831001	0.250082
C187	C	0.683160	-0.581001	0.500082
C188	C	0.933160	-0.331001	0.750082
C189	C	0.246383	-1.082241	0.000067
C190	C	0.496383	-0.832241	0.250067
C191	C	0.746383	-0.582241	0.500067
C192	C	0.996383	-0.332241	0.750067
N193	N	0.079040	-1.088673	0.243647
N194	N	0.329040	-0.838673	0.493647
N195	N	0.579040	-0.588673	0.743647
N196	N	0.829040	-0.338673	0.993647
C197	C	0.077286	-0.442833	0.000123
C198	C	0.327286	-0.192833	0.250123
C199	C	0.577286	0.057167	0.500123
C200	C	0.827286	0.307167	0.750123
C201	C	0.078541	-0.547126	0.000109
C202	C	0.328541	-0.297126	0.250109
C203	C	0.578541	-0.047126	0.500109
C204	C	0.828541	0.202874	0.750109
C205	C	0.079545	-0.630251	0.000098
C206	C	0.329545	-0.380251	0.250098
C207	C	0.579545	-0.130251	0.500098
C208	C	0.829545	0.119749	0.750098
C209	C	0.080801	-0.734551	0.000086
C210	C	0.330801	-0.484551	0.250086
C211	C	0.580801	-0.234551	0.500086
C212	C	0.830801	0.015449	0.750086
N213	N	0.079050	-1.088709	-0.243433
N214	N	0.329050	-0.838709	0.006567
N215	N	0.579050	-0.588709	0.256567
N216	N	0.829050	-0.338709	0.506567
C217	C	0.079051	-1.088695	0.663461
C218	C	0.329051	-0.838695	0.913461
C219	C	0.579051	-0.588695	1.163461
C220	C	0.829051	-0.338695	1.413461
C221	C	0.079050	-1.088686	0.546656
C222	C	0.329050	-0.838686	0.796656
C223	C	0.579050	-0.588686	1.046656
C224	C	0.829050	-0.338686	1.296656
C225	C	0.079046	-1.088685	0.453557
C226	C	0.329046	-0.838685	0.703557
C227	C	0.579046	-0.588685	0.953557
C228	C	0.829046	-0.338685	1.203557
C229	C	0.079044	-1.088675	0.336745
C230	C	0.329044	-0.838675	0.586745
C231	C	0.579044	-0.588675	0.836745
C232	C	0.829044	-0.338675	1.086745
H233	H	-0.105958	-1.247572	0.000165
H234	H	0.144042	-0.997572	0.250165
H235	H	0.394042	-0.747572	0.500165
H236	H	0.644042	-0.497572	0.750165
Cl237	Cl	-0.776371	-1.271867	0.000088
Cl238	Cl	-0.526371	-1.021867	0.250088
Cl239	Cl	-0.276371	-0.771867	0.500088
Cl240	Cl	-0.026371	-0.521867	0.750088
H241	H	-0.652474	-1.236985	0.000100
H242	H	-0.402474	-0.986985	0.250100
H243	H	-0.152474	-0.736985	0.500100
H244	H	0.097526	-0.486985	0.750100
H245	H	-0.735940	-0.929808	0.000065
H246	H	-0.485940	-0.679808	0.250065
H247	H	-0.235940	-0.429808	0.500065
H248	H	0.014060	-0.179808	0.750065
H249	H	-0.348216	-0.853122	0.000025
H250	H	-0.098216	-0.603122	0.250025
H251	H	0.151784	-0.353122	0.500025
H252	H	0.401784	-0.103122	0.750025
H253	H	-0.628182	-0.931894	0.000052
H254	H	-0.378182	-0.681894	0.250052
H255	H	-0.128182	-0.431894	0.500052
H256	H	0.121818	-0.181894	0.750052
H257	H	-0.455975	-0.851027	0.000019
H258	H	-0.205975	-0.601027	0.250019
H259	H	0.044025	-0.351027	0.500019
H260	H	0.294025	-0.101027	0.750019
H261	H	-0.081657	-0.942496	0.000117
H262	H	0.168343	-0.692496	0.250117
H263	H	0.418343	-0.442496	0.500117
H264	H	0.668343	-0.192496	0.750117
Cl265	Cl	-0.229836	-1.282476	0.000136
Cl266	Cl	0.020164	-1.032476	0.250136
Cl267	Cl	0.270164	-0.782476	0.500136
Cl268	Cl	0.520164	-0.532476	0.750136
H269	H	-0.189434	-0.940399	0.000124
H270	H	0.060566	-0.690399	0.250124
H271	H	0.310566	-0.440399	0.500124
H272	H	0.560566	-0.190399	0.750124
H273	H	-0.385915	-1.326355	0.000131
H274	H	-0.135915	-1.076355	0.250131
H275	H	0.114085	-0.826355	0.500131
H276	H	0.364085	-0.576355	0.750131
H277	H	-0.493670	-1.324266	0.000112
H278	H	-0.243670	-1.074266	0.250112
H279	H	0.006330	-0.824266	0.500112
H280	H	0.256330	-0.574266	0.750112
