data_functionalizedCrystal
_audit_creation_method	'MofGen! by Chris Wilmer'
_symmetry_space_group_name_H-M	'P1'
_symmetry_Int_Tables_number	1
_symmetry_cell_setting	triclinic
loop_
_symmetry_equiv_pos_as_xyz
  x,y,z
_cell_length_a	9.065215
_cell_length_b	17.019294
_cell_length_c	8.140239
_cell_angle_alpha	86.117515
_cell_angle_beta	89.997810
_cell_angle_gamma	84.202625
loop_
_atom_site_label
_atom_site_type_symbol
_atom_site_fract_x
_atom_site_fract_y
_atom_site_fract_z
O1	O	1.957266	0.115651	-0.152952
O2	O	2.457266	0.615651	0.347048
O3	O	1.527723	0.125141	-0.154302
O4	O	2.027723	0.625141	0.345698
O5	O	1.754478	0.005649	-0.137386
O6	O	2.254478	0.505649	0.362614
O7	O	1.730512	0.235143	-0.169868
O8	O	2.230512	0.735143	0.330132
O9	O	1.754465	0.005648	0.135841
O10	O	2.254465	0.505648	0.635841
O11	O	1.527711	0.125140	0.118926
O12	O	2.027711	0.625140	0.618926
O13	O	1.957254	0.115650	0.120275
O14	O	2.457254	0.615650	0.620275
Zn15	Zn	1.742480	0.120395	0.162981
Zn16	Zn	2.242480	0.620395	0.662981
Zn17	Zn	1.742497	0.120396	-0.197008
Zn18	Zn	2.242497	0.620396	0.302992
O19	O	1.730499	0.235142	0.103360
O20	O	2.230499	0.735142	0.603360
C21	C	1.472755	0.124229	-0.017560
C22	C	1.972755	0.624229	0.482440
C23	C	1.308986	0.121504	-0.017177
C24	C	1.808986	0.621504	0.482823
C25	C	1.753563	-0.023747	0.003384
C26	C	2.253563	0.476253	0.503384
C27	C	1.750837	-0.111337	0.015771
C28	C	2.250837	0.388663	0.515771
C29	C	1.749567	-0.152482	-0.127345
C30	C	2.249567	0.347518	0.372655
C31	C	1.746996	-0.234781	-0.115702
C32	C	2.246996	0.265219	0.384298
C33	C	1.745706	-0.275935	0.039059
C34	C	2.245706	0.224065	0.539059
C35	C	1.746972	-0.234784	0.182186
C36	C	2.246972	0.265216	0.682186
C37	C	1.749532	-0.152486	0.170541
C38	C	2.249532	0.347514	0.670541
C39	C	1.737966	-0.524423	0.081670
C40	C	2.237966	-0.024423	0.581670
C41	C	1.735410	-0.606727	0.093304
C42	C	2.235410	-0.106727	0.593304
C43	C	1.735431	-0.606718	-0.204585
C44	C	2.235431	-0.106718	0.295415
C45	C	1.738000	-0.524419	-0.216216
C46	C	2.238000	-0.024419	0.283784
C47	C	1.739259	-0.483275	-0.073089
C48	C	2.239259	0.016725	0.426911
C49	C	1.743083	-0.360058	0.050964
C50	C	2.243083	0.139942	0.550964
C51	C	1.741871	-0.399152	-0.084996
C52	C	2.241871	0.100848	0.415004
C53	C	2.012222	0.116562	-0.016470
C54	C	2.512222	0.616562	0.483530
C55	C	2.175991	0.119288	-0.016864
C56	C	2.675991	0.619288	0.483136
C57	C	1.731414	0.264538	-0.037414
C58	C	2.231414	0.764538	0.462586
C59	C	1.734140	0.352128	-0.049812
C60	C	2.234140	0.852128	0.450188
N61	N	1.742480	0.120393	0.408664
N62	N	2.242480	0.620393	0.908664
N63	N	1.742509	0.120392	-0.442690
N64	N	2.242509	0.620392	0.057310
H65	H	1.745968	-0.268278	-0.232243
H66	H	2.245968	0.231722	0.267757
N67	N	1.739346	-0.480053	0.236034
N68	N	2.239346	0.019947	0.736034
H69	H	1.647496	-0.488639	0.302370
H70	H	2.147496	0.011361	0.802370
H71	H	1.830372	-0.500143	0.303848
H72	H	2.330372	-0.000143	0.803848
H73	H	1.742038	-0.393575	0.176971
H74	H	2.242038	0.106425	0.676971
H75	H	1.745913	-0.268298	0.308195
H76	H	2.245913	0.231702	0.808195
N77	N	1.734072	-0.651094	-0.358949
N78	N	2.234072	-0.151094	0.141051
H79	H	1.732254	-0.709474	-0.328096
H80	H	2.232254	-0.209474	0.171904
H81	H	1.643112	-0.630965	-0.426837
H82	H	2.143112	-0.130965	0.073163
H83	H	1.750546	-0.118986	0.287081
H84	H	2.250546	0.381014	0.787081
H85	H	1.739052	-0.490917	-0.342239
H86	H	2.239052	0.009083	0.157761
N87	N	1.743167	-0.354734	-0.251882
N88	N	2.243167	0.145266	0.248118
H89	H	1.835608	-0.326307	-0.262562
H90	H	2.335608	0.173693	0.237438
H91	H	1.741891	-0.393305	-0.340734
H92	H	2.241891	0.106695	0.159266
N93	N	1.734032	-0.651122	0.260229
N94	N	2.234032	-0.151122	0.760229
H95	H	1.643064	-0.631072	0.322514
H96	H	2.143064	-0.131072	0.822514
H97	H	1.732288	-0.709489	0.245728
H98	H	2.232288	-0.209489	0.745728
N99	N	1.750971	-0.108098	-0.294267
N100	N	2.250971	0.391902	0.205733
H101	H	1.749773	-0.146654	-0.383162
H102	H	2.249773	0.353346	0.116838
H103	H	1.660624	-0.068209	-0.306404
H104	H	2.160624	0.431791	0.193596
