data_functionalizedCrystal
_audit_creation_method	'MofGen! by Chris Wilmer'
_symmetry_space_group_name_H-M	'P1'
_symmetry_Int_Tables_number	1
_symmetry_cell_setting	triclinic
loop_
_symmetry_equiv_pos_as_xyz
  x,y,z
_cell_length_a	14.519709
_cell_length_b	14.971486
_cell_length_c	13.448316
_cell_angle_alpha	89.992514
_cell_angle_beta	90.004213
_cell_angle_gamma	83.647137
loop_
_atom_site_label
_atom_site_type_symbol
_atom_site_fract_x
_atom_site_fract_y
_atom_site_fract_z
O1	O	-1.223793	-0.117254	0.082563
O2	O	-0.955308	-0.131062	0.082593
O3	O	-1.096746	0.006038	0.082570
O4	O	-1.082354	-0.254354	0.082586
O5	O	-1.096743	0.006049	-0.082814
O6	O	-0.955305	-0.131051	-0.082790
O7	O	-1.223790	-0.117243	-0.082821
Cu8	Cu	-1.089547	-0.124146	-0.097907
Cu9	Cu	-1.089551	-0.124159	0.097679
O10	O	-1.082351	-0.254343	-0.082798
C11	C	-0.920947	-0.130413	-0.000095
C12	C	-0.818567	-0.128485	-0.000083
N13	N	-1.089554	-0.124163	0.235243
C14	C	-1.258151	-0.117892	-0.000131
C15	C	-1.360531	-0.119820	-0.000136
C16	C	-0.443675	-0.121386	-0.000129
C17	C	-0.547982	-0.123357	-0.000116
C18	C	-0.631118	-0.124935	-0.000105
C19	C	-0.735431	-0.126907	-0.000094
C20	C	-1.096101	0.039369	-0.000121
C21	C	-1.094172	0.138667	-0.000120
C22	C	-1.082996	-0.287674	-0.000104
C23	C	-1.084925	-0.386972	-0.000099
C24	C	-1.177264	0.195845	-0.000130
C25	C	-1.175446	0.289146	-0.000120
C26	C	-1.090536	0.325266	-0.000107
C27	C	-1.007438	0.268080	-0.000094
C28	C	-1.009257	0.174781	-0.000097
C29	C	-1.003653	0.462545	-0.000090
C30	C	-1.001834	0.555850	-0.000089
C31	C	-1.169842	0.576909	-0.000113
C32	C	-1.171661	0.483610	-0.000116
C33	C	-1.088563	0.426431	-0.000105
N34	N	-1.089551	-0.124135	-0.235471
C35	C	-1.152300	-0.063575	0.287273
C36	C	-1.152304	-0.063572	0.391377
C37	C	-1.089556	-0.124154	0.443448
C38	C	-1.026807	-0.184749	0.391410
C39	C	-1.026809	-0.184755	0.287309
C40	C	-1.026808	-0.184730	0.608390
C41	C	-1.026805	-0.184723	0.712499
C42	C	-1.152303	-0.063548	0.712458
C43	C	-1.152304	-0.063554	0.608357
C44	C	-1.089554	-0.124147	0.556326
H45	H	-1.243107	0.335698	-0.000131
H46	H	-0.975713	-0.234075	0.566031
O47	O	-0.965980	-0.243635	0.442100
C48	C	-1.015304	-0.299038	0.502311
H49	H	-1.087482	-0.263693	0.517894
H50	H	-0.976806	-0.313029	0.575520
H51	H	-1.021508	-0.365188	0.462208
O52	O	-1.254085	0.448417	0.000003
C53	C	-1.260172	0.395086	0.085668
H54	H	-1.187510	0.371965	0.114232
H55	H	-1.296999	0.333936	0.066398
H56	H	-1.300928	0.436231	0.145642
O57	O	-1.213287	-0.004628	0.441764
C58	C	-1.268680	0.048831	0.373482
H59	H	-1.230878	0.049986	0.299279
H60	H	-1.282805	0.120225	0.403544
H61	H	-1.337147	0.019511	0.362410
O62	O	-1.259689	0.160656	-0.000010
C63	C	-1.265778	0.107325	0.085654
H64	H	-1.193117	0.084198	0.114216
H65	H	-1.302610	0.046178	0.066385
H66	H	-1.306530	0.148471	0.145630
O67	O	-1.250480	0.632576	-0.000069
C68	C	-1.230672	0.722670	-0.000079
H69	H	-1.158231	0.726355	0.031241
H70	H	-1.283630	0.764843	0.047936
H71	H	-1.234138	0.749663	-0.079419
H72	H	-0.932692	0.585255	-0.000094
H73	H	-0.935985	0.415991	-0.000078
H74	H	-0.941595	0.128227	-0.000088
H75	H	-0.938303	0.297496	-0.000077
H76	H	-1.203392	-0.014238	0.244884
H77	H	-1.203393	-0.014219	0.565960
O78	O	-1.213021	-0.004433	0.762966
C79	C	-1.163483	0.050950	0.822961
H80	H	-1.091421	0.015403	0.838705
H81	H	-1.201971	0.065305	0.896104
H82	H	-1.157001	0.116924	0.782590
H83	H	-0.975711	-0.234056	0.754890
H84	H	-0.975716	-0.234093	0.244947
