data_functionalizedCrystal
_audit_creation_method	'MofGen! by Chris Wilmer'
_symmetry_space_group_name_H-M	'P1'
_symmetry_Int_Tables_number	1
_symmetry_cell_setting	triclinic
loop_
_symmetry_equiv_pos_as_xyz
  x,y,z
_cell_length_a	15.538191
_cell_length_b	17.699083
_cell_length_c	16.776229
_cell_angle_alpha	90.007545
_cell_angle_beta	90.009041
_cell_angle_gamma	65.277554
loop_
_atom_site_label
_atom_site_type_symbol
_atom_site_fract_x
_atom_site_fract_y
_atom_site_fract_z
O1	O	-1.250478	0.245973	-0.066293
O2	O	-0.750478	0.745973	0.433707
O3	O	-0.976019	0.158526	-0.066294
O4	O	-0.476019	0.658526	0.433706
O5	O	-1.121003	0.314557	-0.066286
O6	O	-0.621003	0.814557	0.433714
O7	O	-1.105495	0.089941	-0.066300
O8	O	-0.605495	0.589941	0.433700
O9	O	-1.120984	0.314559	0.066290
O10	O	-0.620984	0.814559	0.566290
O11	O	-0.976000	0.158528	0.066283
O12	O	-0.476000	0.658528	0.566283
O13	O	-1.250459	0.245975	0.066284
O14	O	-0.750459	0.745975	0.566284
Zn15	Zn	-1.113227	0.202252	0.087333
Zn16	Zn	-0.613227	0.702252	0.587333
Zn17	Zn	-1.113252	0.202249	-0.087343
Zn18	Zn	-0.613252	0.702249	0.412657
O19	O	-1.105475	0.089943	0.066276
O20	O	-0.605475	0.589943	0.566276
C21	C	-0.940893	0.149378	-0.000006
C22	C	-0.440893	0.649378	0.499994
C23	C	-0.836257	0.122125	-0.000006
C24	C	-0.336257	0.622125	0.499994
C25	C	-1.120438	0.342603	0.000002
C26	C	-0.620438	0.842603	0.500002
C27	C	-1.118771	0.426166	0.000002
C28	C	-0.618771	0.926166	0.500002
C29	C	-1.285585	0.255123	-0.000006
C30	C	-0.785585	0.755123	0.499994
C31	C	-1.390221	0.282375	-0.000011
C32	C	-0.890221	0.782375	0.499989
C33	C	-0.549086	0.392872	-0.000001
C34	C	-0.049086	0.892872	0.499999
C35	C	-0.450762	0.367245	-0.000004
C36	C	0.049238	0.867245	0.499996
C37	C	-0.427989	0.223099	-0.000012
C38	C	0.072011	0.723099	0.499988
C39	C	-0.526313	0.248714	-0.000006
C40	C	-0.026313	0.748714	0.499994
C41	C	-0.586855	0.333602	-0.000002
C42	C	-0.086855	0.833602	0.499998
C43	C	-0.564082	0.189444	-0.000007
C44	C	-0.064082	0.689444	0.499993
C45	C	-0.662398	0.215057	-0.000005
C46	C	-0.162398	0.715057	0.499995
C47	C	-0.722945	0.299940	-0.000003
C48	C	-0.222945	0.799940	0.499997
C49	C	-0.685171	0.359215	0.000000
C50	C	-0.185171	0.859215	0.500000
C51	C	-0.503539	0.104556	-0.000017
C52	C	-0.003539	0.604556	0.499983
C53	C	-0.541308	0.045286	-0.000017
C54	C	-0.041308	0.545286	0.499983
C55	C	-0.639625	0.070899	-0.000010
C56	C	-0.139625	0.570899	0.499990
C57	C	-0.700173	0.155782	-0.000007
C58	C	-0.200173	0.655782	0.499993
C59	C	-0.677400	0.011624	-0.000012
C60	C	-0.177400	0.511624	0.499988
C61	C	-0.775716	0.037238	-0.000011
C62	C	-0.275716	0.537238	0.499989
C63	C	-0.798489	0.181396	-0.000006
C64	C	-0.298489	0.681396	0.499994
C65	C	-1.106041	0.061897	-0.000014
C66	C	-0.606041	0.561897	0.499986
C67	C	-1.107708	-0.021665	-0.000020
C68	C	-0.607708	0.478335	0.499980
N69	N	-1.113216	0.202256	0.206544
N70	N	-0.613216	0.702256	0.706544
C71	C	-1.203873	0.498041	0.000004
C72	C	-0.703873	0.998041	0.500004
C73	C	-1.202301	0.576554	-0.000003
C74	C	-0.702301	1.076554	0.499997
C75	C	-1.115626	0.583192	-0.000006
C76	C	-0.615626	1.083192	0.499994
C77	C	-1.030517	0.511309	-0.000010
C78	C	-0.530517	1.011309	0.499990
C79	C	-1.032090	0.432797	-0.000008
C80	C	-0.532090	0.932797	0.499992
C81	C	-1.024171	0.827938	-0.000016
C82	C	-0.524171	1.327938	0.499984
C83	C	-1.022605	0.906458	-0.000015
C84	C	-0.522605	1.406458	0.499985
C85	C	-1.194382	0.971696	-0.000011
C86	C	-0.694382	1.471696	0.499989
C87	C	-1.195955	0.893184	-0.000010
C88	C	-0.695955	1.393184	0.499990
C89	C	-1.110847	0.821308	-0.000018
C90	C	-0.610847	1.321308	0.499982
C91	C	-1.112552	0.736175	-0.000012
C92	C	-0.612552	1.236175	0.499988
C93	C	-1.113919	0.668323	-0.000006
C94	C	-0.613919	1.168323	0.499994
N95	N	-1.113270	0.202253	-0.206554
N96	N	-0.613270	0.702253	0.293446
C97	C	-1.177434	0.271331	0.248264
C98	C	-0.677434	0.771331	0.748264
C99	C	-1.177440	0.271333	0.331716
C100	C	-0.677440	0.771333	0.831716
C101	C	-1.113230	0.202257	0.373447
C102	C	-0.613230	0.702257	0.873447
C103	C	-1.049005	0.133177	0.331720
C104	C	-0.549005	0.633177	0.831720
C105	C	-1.048996	0.133178	0.248270
C106	C	-0.548996	0.633178	0.748270
C107	C	-1.049039	0.133172	0.668268
C108	C	-0.549039	0.633172	1.168268
C109	C	-1.049055	0.133175	0.751724
C110	C	-0.549055	0.633175	1.251724
C111	C	-1.177483	0.271326	0.751714
C112	C	-0.677483	0.771326	1.251714
C113	C	-1.177474	0.271327	0.668264
C114	C	-0.677474	0.771327	1.168264
C115	C	-1.113246	0.202250	0.626545
C116	C	-0.613246	0.702250	1.126545
C117	C	-1.113240	0.202249	0.536056
C118	C	-0.613240	0.702249	1.036056
C119	C	-1.113240	0.202254	0.463934
C120	C	-0.613240	0.702254	0.963934
H121	H	-0.847785	0.250520	0.000003
H122	H	-0.347785	0.750520	0.500003
F123	F	-1.296126	0.490986	0.000015
F124	F	-0.796126	0.990986	0.500015
H125	H	-0.952019	0.911855	-0.000016
H126	H	-0.452019	1.411855	0.499984
F127	F	-1.288207	0.886126	-0.000007
F128	F	-0.788207	1.386126	0.499993
F129	F	-1.245787	0.344850	0.376119
F130	F	-0.745787	0.844850	0.876119
H131	H	-0.996765	0.076923	0.785699
H132	H	-0.496765	0.576923	1.285699
F133	F	-0.980643	0.059660	0.203869
F134	F	-0.480643	0.559660	0.703869
F135	F	-0.827583	0.327201	-0.000005
F136	F	-0.327583	0.827201	0.499995
F137	F	-0.980663	0.059663	0.376133
F138	F	-0.480663	0.559663	0.876133
H139	H	-0.996744	0.076926	0.634306
H140	H	-0.496744	0.576926	1.134306
F141	F	-1.284963	1.048198	-0.000005
F142	F	-0.784963	1.548198	0.499995
F143	F	-0.410570	0.430336	0.000007
F144	F	0.089430	0.930336	0.500007
H145	H	-0.423484	0.083705	-0.000021
H146	H	0.076516	0.583705	0.499979
F147	F	-0.749609	0.449562	0.000014
F148	F	-0.249609	0.949562	0.500014
F149	F	-1.245838	0.344847	0.796121
F150	F	-0.745838	0.844847	1.296121
F151	F	-0.476866	-0.045055	-0.000027
F152	F	0.023134	0.454945	0.499973
H153	H	-0.598383	0.461996	0.000007
H154	H	-0.098383	0.961996	0.500007
H155	H	-0.378683	0.153983	-0.000019
H156	H	0.121317	0.653983	0.499981
H157	H	-0.954870	0.769424	-0.000023
H158	H	-0.454870	1.269424	0.499977
H159	H	-0.806467	-0.011026	-0.000004
H160	H	-0.306467	0.488974	0.499996
F161	F	-0.612956	-0.078716	-0.000029
F162	F	-0.112956	0.421284	0.499971
H163	H	-1.271600	0.635075	-0.000000
H164	H	-0.771600	1.135075	0.500000
H165	H	-0.959944	0.516719	-0.000017
H166	H	-0.459944	1.016719	0.499983
H167	H	-0.962790	0.374274	-0.000010
H168	H	-0.462790	0.874274	0.499990
F169	F	-1.245781	0.344850	0.203860
F170	F	-0.745781	0.844850	0.703860
F171	F	-1.245816	0.344845	0.623855
F172	F	-0.745816	0.844845	1.123855
