data_functionalizedCrystal
_audit_creation_method	'MofGen! by Chris Wilmer'
_symmetry_space_group_name_H-M	'P1'
_symmetry_Int_Tables_number	1
_symmetry_cell_setting	triclinic
loop_
_symmetry_equiv_pos_as_xyz
  x,y,z
_cell_length_a	29.839134
_cell_length_b	29.839131
_cell_length_c	29.839125
_cell_angle_alpha	89.982291
_cell_angle_beta	89.978020
_cell_angle_gamma	90.036281
loop_
_atom_site_label
_atom_site_type_symbol
_atom_site_fract_x
_atom_site_fract_y
_atom_site_fract_z
Zn1	Zn	0.686720	-0.178978	-0.254125
Zn2	Zn	0.686652	-0.254090	-0.178995
Zn3	Zn	0.611602	-0.178968	-0.178995
Zn4	Zn	0.611550	-0.254075	-0.254083
O5	O	0.649131	-0.216528	-0.216549
O6	O	0.749578	-0.188952	-0.244176
O7	O	0.676690	-0.244127	-0.116128
O8	O	0.621617	-0.116102	-0.188978
O9	O	0.749528	-0.244137	-0.188979
O10	O	0.676805	-0.116109	-0.244176
O11	O	0.621551	-0.188935	-0.116127
O12	O	0.548728	-0.188921	-0.188938
O13	O	0.621528	-0.244111	-0.316956
O14	O	0.548690	-0.244101	-0.244105
O15	O	0.676755	-0.188937	-0.316987
O16	O	0.676639	-0.316955	-0.188938
O17	O	0.621462	-0.316944	-0.244105
C18	C	0.532408	-0.216509	-0.216517
C19	C	0.482474	-0.216511	-0.216514
C20	C	0.172820	-0.245303	-0.245240
C21	C	-0.014853	-0.245315	-0.245260
O22	O	-0.039127	-0.269774	-0.269665
N23	N	-0.038311	-0.216544	-0.216583
C24	C	-0.014848	-0.187766	-0.187902
O25	O	-0.039107	-0.163291	-0.163514
C26	C	0.172824	-0.187751	-0.187884
C27	C	0.196280	-0.216527	-0.216560
C28	C	0.196276	-0.274076	-0.273913
C29	C	0.243191	-0.274075	-0.273906
C30	C	0.266651	-0.245299	-0.245226
C31	C	0.243195	-0.216526	-0.216553
C32	C	0.196286	-0.158971	-0.159205
C33	C	0.243207	-0.158969	-0.159204
C34	C	0.266663	-0.187745	-0.187880
C35	C	0.313570	-0.187749	-0.187865
N36	N	0.337029	-0.216520	-0.216542
C37	C	0.313569	-0.245295	-0.245222
C38	C	-0.113379	-0.187776	-0.187912
C39	C	-0.160297	-0.187780	-0.187916
C40	C	-0.160298	-0.245329	-0.245275
C41	C	-0.113380	-0.245327	-0.245269
C42	C	-0.089921	-0.216547	-0.216589
C43	C	0.412095	-0.245290	-0.245205
C44	C	0.459014	-0.245287	-0.245194
C45	C	0.459012	-0.187736	-0.187837
C46	C	0.412096	-0.187740	-0.187846
C47	C	0.388639	-0.216519	-0.216534
O48	O	0.337873	-0.163299	-0.163477
O49	O	0.337836	-0.269759	-0.269613
C50	C	0.125905	-0.245304	-0.245247
C51	C	0.102449	-0.216531	-0.216574
C52	C	0.125909	-0.187755	-0.187893
C53	C	0.055531	-0.216535	-0.216577
C54	C	0.032071	-0.245310	-0.245258
C55	C	0.055529	-0.274082	-0.273934
C56	C	0.102445	-0.274080	-0.273927
C57	C	0.102451	-0.158984	-0.159217
C58	C	0.055535	-0.158989	-0.159226
C59	C	0.032075	-0.187764	-0.187906
C60	C	0.649050	-0.333250	-0.216527
C61	C	0.649056	-0.383185	-0.216533
C62	C	0.677914	-0.692821	-0.187866
C63	C	0.677969	-0.880494	-0.187883
O64	O	0.702441	-0.904753	-0.163493
N65	N	0.649224	-0.903970	-0.216583
C66	C	0.620465	-0.880524	-0.245283
O67	O	0.596020	-0.904798	-0.269698
C68	C	0.620412	-0.692852	-0.245268
C69	C	0.649156	-0.669379	-0.216563
C70	C	0.706656	-0.669348	-0.159164
C71	C	0.706640	-0.622433	-0.159158
C72	C	0.677882	-0.598990	-0.187854
C73	C	0.649140	-0.622463	-0.216557
C74	C	0.591656	-0.669407	-0.273969
C75	C	0.591646	-0.622486	-0.273964
C76	C	0.620390	-0.599013	-0.245259
C77	C	0.620367	-0.552106	-0.245248
N78	N	0.649112	-0.528630	-0.216548
C79	C	0.677869	-0.552072	-0.187851
C80	C	0.620494	-0.979055	-0.245289
C81	C	0.620507	-1.025973	-0.245292
C82	C	0.678012	-1.025939	-0.187893
C83	C	0.677996	-0.979021	-0.187887
C84	C	0.649239	-0.955579	-0.216589
C85	C	0.677834	-0.453547	-0.187841
C86	C	0.677814	-0.406627	-0.187836
C87	C	0.620311	-0.406664	-0.245237
C88	C	0.620329	-0.453580	-0.245240
C89	C	0.649094	-0.477020	-0.216540
O90	O	0.595912	-0.527818	-0.269629
O91	O	0.702318	-0.527791	-0.163447
C92	C	0.677930	-0.739737	-0.187872
C93	C	0.649188	-0.763210	-0.216574
C94	C	0.620430	-0.739767	-0.245271
C95	C	0.649200	-0.810128	-0.216578
C96	C	0.677958	-0.833570	-0.187881
C97	C	0.706703	-0.810094	-0.159181
C98	C	0.706687	-0.763179	-0.159175
C99	C	0.591685	-0.763243	-0.273971
C100	C	0.591703	-0.810158	-0.273974
C101	C	0.620461	-0.833601	-0.245277
C102	C	0.766309	-0.216547	-0.216582
C103	C	0.816244	-0.216555	-0.216596
C104	C	0.649143	-0.216524	-0.333728
C105	C	0.649148	-0.216522	-0.383662
C106	C	0.649225	-0.099349	-0.216582
C107	C	0.649265	-0.049415	-0.216595
C108	C	0.677935	-0.187718	-0.693325
C109	C	0.677957	-0.187680	-0.880998
O110	O	0.702399	-0.163232	-0.905279
N111	N	0.649208	-0.216402	-0.904448
C112	C	0.620449	-0.245133	-0.880976
O113	O	0.595993	-0.269559	-0.905228
C114	C	0.620424	-0.245169	-0.693304
C115	C	0.649179	-0.216448	-0.669857
C116	C	0.706687	-0.158999	-0.669877
C117	C	0.706683	-0.159011	-0.622962
C118	C	0.677927	-0.187741	-0.599494
C119	C	0.649175	-0.216460	-0.622941
C120	C	0.591663	-0.273898	-0.669833
C121	C	0.591659	-0.273903	-0.622912
C122	C	0.620414	-0.245183	-0.599465
C123	C	0.620415	-0.245202	-0.552558
N124	N	0.649164	-0.216480	-0.529108
C125	C	0.677920	-0.187749	-0.552576
C126	C	0.620464	-0.245113	-0.979507
C127	C	0.620471	-0.245105	-1.026425
C128	C	0.677979	-0.187650	-1.026443
C129	C	0.677974	-0.187661	-0.979524
C130	C	0.649214	-0.216391	-0.956057
C131	C	0.677910	-0.187776	-0.454050
C132	C	0.677904	-0.187792	-0.407130
C133	C	0.620395	-0.245244	-0.407116
C134	C	0.620401	-0.245230	-0.454032
C135	C	0.649161	-0.216493	-0.477497
O136	O	0.595982	-0.269633	-0.528248
O137	O	0.702366	-0.163320	-0.528316
C138	C	0.677939	-0.187706	-0.740240
C139	C	0.649187	-0.216425	-0.763688
C140	C	0.620431	-0.245155	-0.740219
C141	C	0.649194	-0.216417	-0.810605
C142	C	0.677950	-0.187686	-0.834074
C143	C	0.706699	-0.158964	-0.810624
C144	C	0.706695	-0.158976	-0.763708
C145	C	0.591682	-0.273877	-0.763669
C146	C	0.591689	-0.273864	-0.810585
C147	C	0.620445	-0.245133	-0.834053
C148	C	0.649145	-0.216499	-0.099827
C149	C	0.649227	-0.216374	-0.049893
H150	H	0.393001	-0.268723	-0.268566
C151	C	0.588787	-0.276832	-0.479833
C152	C	0.592426	-0.327905	-0.473382
C153	C	0.560813	-0.359507	-0.499183
C154	C	0.525562	-0.340036	-0.531436
C155	C	0.521922	-0.288960	-0.537889
C156	C	0.553534	-0.257358	-0.512087
H157	H	0.618522	-0.342321	-0.449505
H158	H	0.563508	-0.397317	-0.494406
H159	H	0.502161	-0.363430	-0.550535
H160	H	0.495825	-0.274544	-0.561765
H161	H	0.550839	-0.219549	-0.516865
H162	H	0.177180	-0.297509	-0.297271
H163	H	0.701327	-0.164374	-0.473150
C164	C	0.386288	-0.156090	-0.156304
C165	C	0.354068	-0.120851	-0.175847
C166	C	0.328262	-0.089196	-0.144309
C167	C	0.334677	-0.092780	-0.093229
C168	C	0.366899	-0.128021	-0.073684
C169	C	0.392705	-0.159675	-0.105221
H170	H	0.349318	-0.118196	-0.213662
H171	H	0.304409	-0.063109	-0.158778
H172	H	0.315574	-0.069348	-0.069883
H173	H	0.371649	-0.130675	-0.035869
H174	H	0.416558	-0.185763	-0.090752
H175	H	0.036441	-0.135556	-0.135871
C176	C	-0.087575	-0.156121	-0.156359
C177	C	-0.055349	-0.175533	-0.121049
C178	C	-0.029547	-0.143881	-0.089494
C179	C	-0.035971	-0.092815	-0.093248
C180	C	-0.068198	-0.073400	-0.128558
C181	C	-0.094000	-0.105052	-0.160114
H182	H	-0.050593	-0.213338	-0.118269
H183	H	-0.005690	-0.158254	-0.063354
H184	H	-0.016871	-0.069384	-0.069888
H185	H	-0.072955	-0.035595	-0.131339
H186	H	-0.117857	-0.090679	-0.186253
C187	C	0.588771	-0.276849	-0.381291
C188	C	0.553518	-0.257382	-0.349022
C189	C	0.521895	-0.288987	-0.323194
C190	C	0.525524	-0.340058	-0.329634
C191	C	0.560778	-0.359528	-0.361904
C192	C	0.592402	-0.327923	-0.387732
H193	H	0.550830	-0.219574	-0.344254
H194	H	0.495797	-0.274574	-0.299305
H195	H	0.502115	-0.363454	-0.310514
H196	H	0.563467	-0.397337	-0.366672
H197	H	0.618499	-0.342336	-0.411621
C198	C	0.709609	-0.156044	-1.052264
C199	C	0.709610	-0.156037	-1.103871
C200	C	0.741236	-0.124430	-1.129694
C201	C	0.772860	-0.092830	-1.103909
C202	C	0.772860	-0.092837	-1.052298
C203	C	0.741235	-0.124444	-1.026476
H204	H	0.686199	-0.179429	-1.122962
H205	H	0.741236	-0.124425	-1.167900
H206	H	0.796271	-0.069433	-1.123025
H207	H	0.796272	-0.069444	-1.033208
H208	H	0.741235	-0.124448	-0.988270
C209	C	-0.087580	-0.276978	-0.276814
C210	C	-0.094064	-0.328045	-0.273056
C211	C	-0.068267	-0.359696	-0.304604
C212	C	-0.035988	-0.340282	-0.339911
C213	C	-0.029503	-0.289213	-0.343671
C214	C	-0.055299	-0.257561	-0.312122
H215	H	-0.117960	-0.342419	-0.246918
H216	H	-0.073068	-0.397501	-0.301820
H217	H	-0.016892	-0.363712	-0.363264
H218	H	-0.005606	-0.274839	-0.369808
H219	H	-0.050499	-0.219757	-0.314906
C220	C	-0.186109	-0.276981	-0.276826
C221	C	-0.237717	-0.276980	-0.276828
C222	C	-0.263531	-0.308627	-0.308380
C223	C	-0.237736	-0.340276	-0.339929
C224	C	-0.186126	-0.340278	-0.339928
C225	C	-0.160312	-0.308631	-0.308376
H226	H	-0.256814	-0.253551	-0.253472
H227	H	-0.301736	-0.308625	-0.308380
H228	H	-0.256845	-0.363703	-0.363285
H229	H	-0.167029	-0.363708	-0.363284
H230	H	-0.122106	-0.308633	-0.308376
H231	H	0.262285	-0.297506	-0.297258
C232	C	0.560010	-0.596702	-0.305535
C233	C	0.579441	-0.564415	-0.340825
C234	C	0.547804	-0.538632	-0.372396
C235	C	0.496737	-0.545135	-0.368676
C236	C	0.477305	-0.577424	-0.333384
C237	C	0.508941	-0.603207	-0.301814
H238	H	0.617245	-0.559599	-0.343581
H239	H	0.562190	-0.514729	-0.398521
H240	H	0.473318	-0.526049	-0.392046
H241	H	0.439500	-0.582240	-0.330629
H242	H	0.494555	-0.627109	-0.275688
C243	C	0.738324	-0.127380	-0.737921
C244	C	0.734696	-0.076307	-0.744382
C245	C	0.766326	-0.044708	-0.718599
C246	C	0.801583	-0.064181	-0.686354
C247	C	0.805212	-0.115256	-0.679891
C248	C	0.773582	-0.146856	-0.705674
H249	H	0.708596	-0.061889	-0.768253
H250	H	0.763640	-0.006898	-0.723383
H251	H	0.824997	-0.040790	-0.667267
H252	H	0.831312	-0.129674	-0.656020
H253	H	0.776269	-0.184665	-0.700890
C254	C	0.170497	-0.127316	-0.127658
C255	C	0.176988	-0.076251	-0.131419
C256	C	0.151201	-0.044594	-0.099867
C257	C	0.118924	-0.064003	-0.064555
C258	C	0.112432	-0.115071	-0.060793
C259	C	0.138218	-0.146727	-0.092345
H260	H	0.200883	-0.061881	-0.157560
H261	H	0.156007	-0.006790	-0.102652
H262	H	0.099835	-0.040569	-0.041199
H263	H	0.088537	-0.129441	-0.034652
H264	H	0.133412	-0.184531	-0.089560
H265	H	-0.179390	-0.164352	-0.164561
H266	H	0.568268	-0.744160	-0.297340
H267	H	0.730093	-0.744071	-0.135801
C268	C	0.738307	-0.127412	-0.597172
C269	C	0.773563	-0.146881	-0.564924
C270	C	0.805187	-0.115278	-0.539137
C271	C	0.801554	-0.064206	-0.545599
C272	C	0.766297	-0.044734	-0.577849
C273	C	0.734673	-0.076337	-0.603636
H274	H	0.776254	-0.184690	-0.560139
H275	H	0.831287	-0.129693	-0.515264
H276	H	0.824964	-0.040812	-0.526510
H277	H	0.763606	-0.006925	-0.582634
H278	H	0.708573	-0.061922	-0.627509
H279	H	0.730104	-0.135601	-0.688980
H280	H	0.262305	-0.135529	-0.135852
C281	C	0.709601	-0.156066	-0.953735
C282	C	0.705976	-0.104993	-0.960196
C283	C	0.737604	-0.073395	-0.934409
C284	C	0.772857	-0.092869	-0.902160
C285	C	0.776484	-0.143945	-0.895697
C286	C	0.744856	-0.175543	-0.921484
H287	H	0.679878	-0.090574	-0.984070
H288	H	0.734919	-0.035585	-0.939193
H289	H	0.796270	-0.069478	-0.883071
H290	H	0.802581	-0.158363	-0.871824
H291	H	0.747541	-0.213352	-0.916700
C292	C	0.709435	-0.380808	-0.156260
C293	C	0.705809	-0.387288	-0.105185
C294	C	0.737430	-0.361471	-0.073611
C295	C	0.772677	-0.329173	-0.093111
C296	C	0.776305	-0.322692	-0.144188
C297	C	0.744684	-0.348509	-0.175762
H298	H	0.679716	-0.411197	-0.090748
H299	H	0.734745	-0.366269	-0.035800
H300	H	0.796085	-0.310062	-0.069737
H301	H	0.802398	-0.298782	-0.158625
H302	H	0.747370	-0.343711	-0.213573
H303	H	0.730115	-0.135573	-0.829740
H304	H	0.478121	-0.164309	-0.164485
H305	H	0.730117	-0.829189	-0.135814
C306	C	0.128242	-0.305732	-0.305474
C307	C	0.121753	-0.356798	-0.301717
C308	C	0.147546	-0.388451	-0.333266
C309	C	0.179828	-0.369039	-0.368573
C310	C	0.186317	-0.317970	-0.372331
C311	C	0.160524	-0.286317	-0.340782
H312	H	0.097855	-0.371170	-0.275580
H313	H	0.142742	-0.426255	-0.330484
H314	H	0.198921	-0.392470	-0.391928
H315	H	0.210215	-0.303598	-0.398468
H316	H	0.165329	-0.248513	-0.343564
H317	H	0.568233	-0.297294	-0.603808
C318	C	0.588857	-0.953274	-0.276861
C319	C	0.537790	-0.959779	-0.273137
C320	C	0.506151	-0.934002	-0.304709
C321	C	0.525578	-0.901720	-0.340006
C322	C	0.576647	-0.895213	-0.343731
C323	C	0.608286	-0.920990	-0.312159
H324	H	0.523407	-0.983678	-0.247007
H325	H	0.468347	-0.938818	-0.301951
H326	H	0.502157	-0.882638	-0.363377
H327	H	0.591030	-0.871315	-0.369861
H328	H	0.646091	-0.916174	-0.314918
C329	C	0.560038	-0.695217	-0.305550
C330	C	0.508968	-0.688807	-0.301834
C331	C	0.477349	-0.714615	-0.333418
C332	C	0.496800	-0.746833	-0.368717
C333	C	0.547873	-0.753245	-0.372434
C334	C	0.579492	-0.727437	-0.340850
H335	H	0.494567	-0.664956	-0.275702
H336	H	0.439541	-0.709869	-0.330666
H337	H	0.473393	-0.765938	-0.392097
H338	H	0.562274	-0.777096	-0.398566
H339	H	0.617300	-0.732183	-0.343602
H340	H	0.596925	-0.472692	-0.268615
H341	H	0.036420	-0.297513	-0.297286
H342	H	0.596895	-0.387570	-0.268600
H343	H	0.597061	-0.268497	-1.045512
C344	C	0.709472	-0.479326	-0.156269
C345	C	0.705834	-0.472894	-0.105194
C346	C	0.737469	-0.498674	-0.073619
C347	C	0.772742	-0.530886	-0.093120
C348	C	0.776381	-0.537319	-0.144198
C349	C	0.744746	-0.511540	-0.175772
H350	H	0.679721	-0.449048	-0.090756
H351	H	0.734774	-0.493912	-0.035808
H352	H	0.796160	-0.549970	-0.069747
H353	H	0.802494	-0.561166	-0.158636
H354	H	0.747441	-0.516302	-0.213583
H355	H	0.730047	-0.603324	-0.135785
C356	C	0.738292	-0.695129	-0.127593
C357	C	0.734655	-0.688691	-0.076518
C358	C	0.766291	-0.714468	-0.044942
C359	C	0.801564	-0.746681	-0.064440
C360	C	0.805202	-0.753120	-0.115517
C361	C	0.773566	-0.727344	-0.147094
H362	H	0.708543	-0.664844	-0.062082
H363	H	0.763597	-0.709701	-0.007131
H364	H	0.824982	-0.765762	-0.041066
H365	H	0.831314	-0.776968	-0.129954
H366	H	0.776259	-0.732110	-0.184904
H367	H	0.121547	-0.135551	-0.135861
C368	C	0.709535	-0.156195	-0.381339
C369	C	0.705908	-0.105122	-0.387795
C370	C	0.737537	-0.073526	-0.362006
C371	C	0.772793	-0.093004	-0.329762
C372	C	0.776421	-0.144080	-0.323305
C373	C	0.744792	-0.175676	-0.349094
H374	H	0.679809	-0.090701	-0.411665
H375	H	0.734851	-0.035716	-0.366786
H376	H	0.796206	-0.069615	-0.310671
H377	H	0.802520	-0.158501	-0.299434
H378	H	0.747478	-0.213486	-0.344314
H379	H	0.701402	-0.959912	-0.164514
C380	C	0.588885	-1.051790	-0.276865
C381	C	0.557255	-1.025997	-0.308430
C382	C	0.525634	-1.051813	-0.340006
C383	C	0.525643	-1.103420	-0.340017
C384	C	0.557273	-1.129216	-0.308449
C385	C	0.588894	-1.103400	-0.276873
H386	H	0.557248	-0.987792	-0.308424
H387	H	0.502219	-1.032717	-0.363374
H388	H	0.502235	-1.122530	-0.363391
H389	H	0.557280	-1.167422	-0.308456
H390	H	0.612309	-1.122496	-0.253505
H391	H	0.597044	-0.268511	-0.960404
H392	H	0.701427	-1.045034	-0.164527
C393	C	0.560052	-0.305457	-0.836371
C394	C	0.563665	-0.356531	-0.829915
C395	C	0.532024	-0.388119	-0.855699
C396	C	0.496769	-0.368632	-0.887938
C397	C	0.493154	-0.317555	-0.894395
C398	C	0.524795	-0.285968	-0.868612
H399	H	0.589764	-0.370959	-0.806049
H400	H	0.534700	-0.425929	-0.850919
H401	H	0.473346	-0.392015	-0.907025
H402	H	0.467054	-0.303127	-0.918262
H403	H	0.522119	-0.248157	-0.873392
H404	H	0.568265	-0.297274	-0.744566
H405	H	0.568248	-0.297285	-0.688916
H406	H	0.478110	-0.268721	-0.268545
H407	H	0.568292	-0.829266	-0.297349
