data_functionalizedCrystal
_audit_creation_method	'MofGen! by Chris Wilmer'
_symmetry_space_group_name_H-M	'P1'
_symmetry_Int_Tables_number	1
_symmetry_cell_setting	triclinic
loop_
_symmetry_equiv_pos_as_xyz
  x,y,z
_cell_length_a	18.101398
_cell_length_b	12.759399
_cell_length_c	12.759393
_cell_angle_alpha	90.030906
_cell_angle_beta	89.981912
_cell_angle_gamma	89.986732
loop_
_atom_site_label
_atom_site_type_symbol
_atom_site_fract_x
_atom_site_fract_y
_atom_site_fract_z
Zn1	Zn	1.132231	0.418267	-0.593937
Zn2	Zn	1.132153	0.593983	-0.418256
Zn3	Zn	1.008381	0.418313	-0.418281
Zn4	Zn	1.008375	0.593899	-0.593902
O5	O	1.070285	0.506116	-0.506094
O6	O	1.235853	0.441592	-0.570637
O7	O	1.115705	0.570734	-0.271238
O8	O	1.024846	0.271286	-0.441607
O9	O	1.235796	0.570690	-0.441565
O10	O	1.115837	0.271252	-0.570661
O11	O	1.024770	0.441670	-0.271257
O12	O	0.904748	0.441589	-0.441573
O13	O	1.024834	0.570547	-0.740928
O14	O	0.904743	0.570591	-0.570601
O15	O	1.115831	0.441511	-0.740954
O16	O	1.115698	0.740993	-0.441531
O17	O	1.024759	0.740931	-0.570577
C18	C	0.877874	0.506087	-0.506087
C19	C	0.795560	0.506100	-0.506109
C20	C	0.644852	0.506119	-0.506107
C21	C	0.613520	0.587409	-0.587162
C22	C	0.527902	0.587738	-0.586922
C23	C	0.496469	0.506138	-0.506107
C24	C	0.527523	0.535696	-0.395251
C25	C	0.613168	0.536274	-0.395720
C26	C	0.613310	0.395071	-0.534940
C27	C	0.527660	0.395679	-0.537381
C28	C	0.412610	0.506148	-0.506100
C29	C	0.728711	0.506113	-0.506106
C30	C	1.070240	0.779083	-0.506070
C31	C	1.070288	0.895860	-0.506095
C32	C	1.070340	0.506015	-0.780128
C33	C	1.070364	0.505972	-0.896904
C34	C	1.263447	0.506145	-0.506102
C35	C	1.345761	0.506158	-0.506105
C36	C	1.070351	0.232082	-0.506141
C37	C	1.070379	0.115306	-0.506161
C38	C	1.117694	0.950719	-0.438977
C39	C	1.117742	1.060443	-0.439012
C40	C	1.022971	1.060439	-0.573287
C41	C	1.022927	0.950717	-0.573256
C42	C	1.117749	0.438772	-0.951781
C43	C	1.117762	0.438727	-1.061506
C44	C	1.023002	0.573090	-1.061466
C45	C	1.022986	0.573129	-0.951744
C46	C	1.070272	0.506140	-0.233127
C47	C	1.070392	0.505887	-0.116351
H48	H	0.506907	0.569299	-0.669107
H49	H	0.984323	0.906048	-0.627916
Br50	Br	0.491743	0.669490	-0.353930
Br51	Br	0.647716	0.441849	-0.291579
H52	H	0.984394	0.627850	-0.907061
Br53	Br	1.181969	0.876272	-0.347832
H54	H	1.156325	0.384085	-0.907134
Br55	Br	0.649351	0.350064	-0.667402
Br56	Br	0.647913	0.557065	-0.724568
Br57	Br	0.493592	0.440041	-0.291822
H58	H	1.156345	1.105104	-0.384360
Br59	Br	0.958709	0.664231	-1.135897
H60	H	0.635023	0.669229	-0.568265
H61	H	0.507395	0.670030	-0.567793
Br62	Br	1.182079	0.347531	-1.135978
H63	H	0.507367	0.373382	-0.618966
Br64	Br	0.646435	0.671554	-0.355126
Br65	Br	0.491991	0.289392	-0.446247
Br66	Br	0.958698	1.134894	-0.664428
H67	H	0.633573	0.334511	-0.475909
