data_functionalizedCrystal
_audit_creation_method	'MofGen! by Chris Wilmer'
_symmetry_space_group_name_H-M	'P1'
_symmetry_Int_Tables_number	1
_symmetry_cell_setting	triclinic
loop_
_symmetry_equiv_pos_as_xyz
  x,y,z
_cell_length_a	21.606444
_cell_length_b	15.698487
_cell_length_c	21.606444
_cell_angle_alpha	89.999738
_cell_angle_beta	60.000495
_cell_angle_gamma	60.002640
loop_
_atom_site_label
_atom_site_type_symbol
_atom_site_fract_x
_atom_site_fract_y
_atom_site_fract_z
Zr1	Zr	0.677455	0.820648	-0.081232
O2	O	0.806566	0.684643	-0.180054
O3	O	0.548339	0.862336	-0.050937
O4	O	0.677451	0.862347	-0.180055
O5	O	0.677458	0.684629	0.050914
O6	O	0.677454	1.002528	-0.180057
O7	O	0.677454	0.684632	-0.050936
O8	O	0.446496	1.002509	0.050911
O9	O	0.908416	0.684648	-0.180054
O10	O	0.601450	0.984737	-0.038019
O11	O	0.601451	0.880119	0.037992
O12	O	0.753464	0.880132	-0.114028
O13	O	0.753466	0.775514	-0.038017
Zr14	Zr	0.677466	1.044216	0.081204
Zr15	Zr	0.677459	1.044221	-0.081235
Zr16	Zr	0.677462	0.820643	0.081206
Zr17	Zr	0.839894	0.820656	-0.081233
Zr18	Zr	0.515026	1.044207	0.081205
O19	O	0.806581	1.002527	0.050909
O20	O	0.806571	1.002535	-0.180057
O21	O	0.806576	0.684636	0.050913
O22	O	0.548355	1.180221	0.180026
O23	O	0.548345	1.180228	-0.050941
O24	O	0.548349	0.862329	0.180029
O25	O	0.677462	1.180234	-0.050942
O26	O	0.677469	1.002517	0.180027
O27	O	0.677467	0.862336	0.180029
O28	O	0.677467	1.180231	0.050908
O29	O	0.908419	0.862359	-0.180056
O30	O	0.446501	1.002505	0.180028
O31	O	0.446504	1.180215	0.180026
O32	O	0.446499	1.180219	0.050909
O33	O	0.908422	0.684644	-0.050937
O34	O	0.908425	0.862355	-0.050939
O35	O	0.601456	0.984732	0.114000
O36	O	0.601455	1.089350	0.037989
O37	O	0.753469	0.984745	-0.038020
O38	O	0.753471	0.880127	0.037991
C39	C	0.474273	0.932421	-0.000013
C40	C	0.405314	0.932418	-0.000013
C41	C	-0.017996	0.987057	-0.039691
C42	C	0.046804	0.987049	-0.039694
C43	C	0.079202	0.932436	-0.000017
C44	C	0.046803	0.877819	0.039660
C45	C	-0.017992	0.877821	0.039658
C46	C	0.308113	0.877808	0.039667
C47	C	0.372911	0.877812	0.039667
C48	C	0.372910	0.987036	-0.039685
C49	C	0.308115	0.987038	-0.039686
C50	C	0.275725	0.932417	-0.000014
C51	C	0.205462	0.932424	-0.000012
C52	C	0.149459	0.932434	-0.000014
C53	C	0.677455	0.652776	-0.000011
C54	C	0.677454	0.557864	-0.000010
C55	C	0.677469	0.384079	-0.000017
C56	C	0.677464	0.480783	-0.000015
C57	C	0.880647	0.932442	-0.000015
C58	C	0.949607	0.932446	-0.000015
C59	C	0.677452	0.932438	-0.203200
C60	C	0.677449	0.932440	-0.272159
C61	C	0.677465	1.212087	-0.000017
C62	C	0.677467	1.307000	-0.000018
C63	C	0.756821	0.877823	-0.735145
C64	C	0.756819	0.877821	-0.670348
C65	C	0.677466	0.932425	-0.598275
C66	C	0.598111	0.987027	-0.591000
C67	C	0.598114	0.987022	-0.655796
C68	C	0.598096	0.987044	-0.329682
C69	C	0.598098	0.987047	-0.264883
C70	C	0.756800	0.877843	-0.344233
C71	C	0.756804	0.877838	-0.409030
C72	C	0.677449	0.932435	-0.401749
C73	C	0.677452	0.932435	-0.472010
C74	C	0.677462	0.932432	-0.528014
C75	C	0.677469	0.932425	0.203172
C76	C	0.677472	0.932423	0.272131
C77	C	0.474278	1.212077	-0.000016
C78	C	0.405320	1.306986	-0.000017
C79	C	0.474282	0.932415	0.203173
C80	C	0.405325	0.932409	0.272133
C81	C	0.474287	1.212070	0.203170
C82	C	0.405332	1.306977	0.272129
C83	C	0.880634	0.652793	-0.203198
C84	C	0.949589	0.557887	-0.272157
C85	C	0.880642	0.652787	-0.000012
C86	C	0.949601	0.557878	-0.000011
C87	C	0.880639	0.932449	-0.203201
C88	C	0.949595	0.932454	-0.272161
C89	C	0.372934	1.296949	-0.039699
C90	C	0.308149	1.386117	-0.039715
C91	C	0.275748	1.485321	-0.000044
C92	C	0.308140	1.495356	0.039640
C93	C	0.372928	1.406189	0.039651
C94	C	0.372945	0.987013	0.344199
C95	C	0.308162	0.987004	0.409001
C96	C	0.275756	0.932396	0.401734
C97	C	0.308142	0.877785	0.329659
C98	C	0.372929	0.877789	0.264860
C99	C	0.372949	1.406165	0.264836
C100	C	0.308167	1.495349	0.329623
C101	C	0.275765	1.485342	0.401703
C102	C	0.308154	1.386143	0.408995
C103	C	0.372939	1.296962	0.344208
C104	C	0.981980	0.458699	-0.264864
C105	C	1.046781	0.369515	-0.329652
C106	C	1.079187	0.379522	-0.401732
C107	C	1.046793	0.478720	-0.409023
C108	C	0.981997	0.567902	-0.344236
C109	C	0.981993	0.567915	0.039665
C110	C	1.046796	0.478746	0.039662
C111	C	1.079200	0.379542	-0.000011
C112	C	1.046804	0.369507	-0.039692
C113	C	0.982007	0.458675	-0.039694
C114	C	0.981981	0.987073	-0.264870
C115	C	1.046765	0.987099	-0.329658
C116	C	1.079166	0.932499	-0.401738
C117	C	1.046774	0.877879	-0.409027
C118	C	0.981987	0.877860	-0.344239
H119	H	0.073182	1.031516	-0.072001
C120	C	0.510809	1.047089	-0.185600
H121	H	0.522176	1.039274	-0.148054
H122	H	0.478218	1.020101	-0.179925
H123	H	0.478190	1.118939	-0.179907
C124	C	0.844103	0.817762	-0.678355
H125	H	0.891362	0.785252	-0.730559
H126	H	0.847404	0.766084	-0.654729
H127	H	0.847399	0.864906	-0.654727
C128	C	0.946340	0.677005	-0.352263
H129	H	0.903104	0.728694	-0.303360
H130	H	0.921075	0.684779	-0.379191
H131	H	0.992844	0.684857	-0.379187
C132	C	1.082400	0.260408	-0.321622
H133	H	1.125640	0.208721	-0.370526
H134	H	1.035882	0.252588	-0.294703
H135	H	1.107669	0.252601	-0.294689
C136	C	0.272484	1.047108	-0.083334
H137	H	0.301066	1.079624	-0.106970
H138	H	0.211314	1.098782	-0.049091
H139	H	0.283110	0.999964	-0.120883
C140	C	0.408543	1.047116	-0.083330
H141	H	0.379959	1.079652	-0.106951
H142	H	0.469712	0.999990	-0.120878
H143	H	0.397919	1.098792	-0.049075
H144	H	1.131961	0.306945	-0.000004
C145	C	0.946346	1.047140	-0.185589
H146	H	0.903126	1.039308	-0.148040
H147	H	0.921067	1.118982	-0.179908
H148	H	0.992865	1.020174	-0.179906
H149	H	0.955615	0.648684	0.071977
C150	C	0.946371	0.447622	-0.083329
H151	H	0.974947	0.375767	-0.106948
H152	H	0.956979	0.480137	-0.120880
H153	H	0.885199	0.480124	-0.049074
C154	C	1.082394	1.047173	-0.321630
H155	H	1.125612	1.039381	-0.370535
H156	H	1.107673	1.020195	-0.294711
H157	H	1.035871	1.119016	-0.294700
C158	C	0.510822	1.047090	-0.511724
H159	H	0.463565	1.079599	-0.516672
H160	H	0.507520	1.098769	-0.484797
H161	H	0.507524	0.999948	-0.484798
H162	H	0.399321	1.414333	0.206150
C163	C	0.510809	1.047129	-0.321667
H164	H	0.463552	1.079665	-0.269462
H165	H	0.507491	1.000013	-0.345289
H166	H	0.507527	1.098807	-0.345297
C167	C	1.082411	0.489803	0.083321
H168	H	1.053817	0.561658	0.106958
H169	H	1.143580	0.457305	0.049083
H170	H	1.071789	0.457282	0.120871
H171	H	1.131948	0.306896	-0.454479
C172	C	0.272489	0.817725	0.321672
H173	H	0.301051	0.785195	0.269471
H174	H	0.211317	0.864867	0.345308
H175	H	0.283115	0.766046	0.345301
C176	C	0.082434	0.817751	0.083307
H177	H	0.125656	0.825581	0.077635
H178	H	0.107709	0.745909	0.063718
H179	H	0.035912	0.844728	0.135509
H180	H	1.131920	0.932523	-0.454486
H181	H	0.399284	0.833327	0.206182
H182	H	0.399290	0.833334	0.071977
H183	H	0.223013	1.557967	0.454451
C184	C	0.272542	1.604453	0.321589
H185	H	0.301110	1.597632	0.269381
H186	H	0.283167	1.641522	0.345203
H187	H	0.211367	1.641508	0.345217
C188	C	0.272485	1.604483	0.083282
H189	H	0.229255	1.656143	0.077596
H190	H	0.318987	1.612331	0.063700
H191	H	0.247195	1.612307	0.135487
C192	C	0.408544	1.187861	0.352239
H193	H	0.379957	1.194684	0.404448
H194	H	0.469715	1.150785	0.328617
H195	H	0.397905	1.150811	0.328622
H196	H	0.955598	0.450531	-0.206178
C197	C	0.510832	1.047081	-0.647796
H198	H	0.522199	1.039249	-0.696708
H199	H	0.478224	1.118925	-0.620877
H200	H	0.478232	1.020100	-0.620876
H201	H	1.073197	0.288723	-0.071994
H202	H	1.073165	0.833425	-0.467723
H203	H	0.955626	0.833378	-0.350187
C204	C	0.272498	1.375149	0.488285
H205	H	0.229270	1.442473	0.525819
H206	H	0.319000	1.338099	0.493985
H207	H	0.247206	1.338107	0.493972
C208	C	0.408548	1.417236	0.083304
H209	H	0.451780	1.349930	0.077629
H210	H	0.362030	1.454296	0.135500
H211	H	0.433827	1.454293	0.063700
C212	C	-0.053627	1.047130	-0.083337
H213	H	-0.025043	1.079645	-0.106972
H214	H	-0.114797	1.098806	-0.049094
H215	H	-0.043003	0.999990	-0.120887
C216	C	0.272512	0.817699	0.083285
H217	H	0.301089	0.785174	0.106913
H218	H	0.283147	0.766029	0.049020
H219	H	0.211336	0.864810	0.120838
H220	H	-0.044367	0.833349	0.071964
H221	H	0.281800	1.031479	0.467680
C222	C	0.844111	0.817754	-0.814421
H223	H	0.891367	0.785228	-0.809471
H224	H	0.847417	0.864883	-0.841353
H225	H	0.847406	0.766071	-0.841342
C226	C	1.082438	0.489714	-0.488313
H227	H	1.125659	0.422390	-0.525847
H228	H	1.107719	0.526770	-0.494012
H229	H	1.035922	0.526751	-0.494001
C230	C	0.844089	0.817771	-0.488309
H231	H	0.832726	0.825594	-0.525857
H232	H	0.876690	0.745930	-0.493987
H233	H	0.876696	0.844745	-0.493995
C234	C	0.844093	0.817780	-0.352244
H235	H	0.891351	0.785272	-0.404449
H236	H	0.847399	0.766101	-0.328619
H237	H	0.847386	0.864929	-0.328617
H238	H	0.399323	1.031482	0.350131
H239	H	0.399315	1.216180	-0.072014
H240	H	0.281783	1.377926	-0.072030
C241	C	0.204489	0.932400	0.473015
H242	H	0.189825	0.892053	0.458371
H243	H	0.153943	1.001975	0.502325
H244	H	0.225741	0.903158	0.502321
C245	C	0.204475	1.583396	-0.000054
H246	H	0.189825	1.563201	-0.029364
H247	H	0.225702	1.623752	-0.021296
H248	H	0.153916	1.623731	0.050499
