data_functionalizedCrystal
_audit_creation_method	'MofGen! by Chris Wilmer'
_symmetry_space_group_name_H-M	'P1'
_symmetry_Int_Tables_number	1
_symmetry_cell_setting	triclinic
loop_
_symmetry_equiv_pos_as_xyz
  x,y,z
_cell_length_a	25.639242
_cell_length_b	29.839131
_cell_length_c	25.639233
_cell_angle_alpha	89.980415
_cell_angle_beta	89.977834
_cell_angle_gamma	90.036947
loop_
_atom_site_label
_atom_site_type_symbol
_atom_site_fract_x
_atom_site_fract_y
_atom_site_fract_z
Zn1	Zn	0.799215	-0.178962	-0.295739
Zn2	Zn	0.799134	-0.254076	-0.208302
Zn3	Zn	0.711791	-0.178955	-0.208303
Zn4	Zn	0.711732	-0.254059	-0.295692
O5	O	0.755468	-0.216513	-0.252009
O6	O	0.872370	-0.188935	-0.284160
O7	O	0.787539	-0.244115	-0.135137
O8	O	0.723447	-0.116089	-0.219922
O9	O	0.872310	-0.244122	-0.219920
O10	O	0.787677	-0.116094	-0.284161
O11	O	0.723369	-0.188924	-0.135138
O12	O	0.638618	-0.188908	-0.219876
O13	O	0.723346	-0.244093	-0.368864
O14	O	0.638575	-0.244087	-0.284081
O15	O	0.787619	-0.188919	-0.368898
O16	O	0.787482	-0.316941	-0.219875
O17	O	0.723268	-0.316929	-0.284080
C18	C	0.619626	-0.216495	-0.251974
C19	C	0.561512	-0.216499	-0.251971
C20	C	0.755374	-0.333236	-0.251983
C21	C	0.755381	-0.383170	-0.251990
C22	C	0.201135	-0.245293	-0.285409
C23	C	0.146531	-0.245295	-0.285417
O24	O	0.118282	-0.269755	-0.313817
N25	N	0.119229	-0.216525	-0.252043
C26	C	0.146535	-0.187748	-0.218663
O27	O	0.118299	-0.163276	-0.190277
C28	C	0.201138	-0.187743	-0.218658
C29	C	0.228437	-0.216518	-0.252030
C30	C	0.228434	-0.274065	-0.318778
C31	C	0.283034	-0.274063	-0.318769
C32	C	0.310336	-0.245288	-0.285390
C33	C	0.283037	-0.216516	-0.252021
C34	C	0.228443	-0.158963	-0.185281
C35	C	0.283050	-0.158961	-0.185279
C36	C	0.310349	-0.187736	-0.218651
C37	C	0.364940	-0.187739	-0.218633
N38	N	0.392241	-0.216509	-0.252006
C39	C	0.364939	-0.245283	-0.285385
C40	C	0.031864	-0.187759	-0.218677
C41	C	-0.022738	-0.187766	-0.218679
C42	C	-0.022739	-0.245313	-0.285434
C43	C	0.031865	-0.245308	-0.285429
C44	C	0.059166	-0.216529	-0.252051
C45	C	0.479604	-0.245277	-0.285363
C46	C	0.534210	-0.245273	-0.285350
C47	C	0.534206	-0.187724	-0.218597
C48	C	0.479605	-0.187729	-0.218609
C49	C	0.452306	-0.216507	-0.251996
O50	O	0.393223	-0.163290	-0.190249
O51	O	0.393182	-0.269746	-0.313771
C52	C	0.788965	-0.692807	-0.218627
C53	C	0.789030	-0.880480	-0.218647
O54	O	0.817509	-0.904740	-0.190260
N55	N	0.755577	-0.903955	-0.252049
C56	C	0.722108	-0.880509	-0.285450
O57	O	0.693659	-0.904782	-0.313865
C58	C	0.722046	-0.692837	-0.285432
C59	C	0.755498	-0.669364	-0.252024
C60	C	0.822415	-0.669335	-0.185222
C61	C	0.822396	-0.622419	-0.185215
C62	C	0.788928	-0.598976	-0.218613
C63	C	0.755479	-0.622449	-0.252018
C64	C	0.688580	-0.669391	-0.318836
C65	C	0.688568	-0.622470	-0.318829
C66	C	0.722020	-0.598998	-0.285422
C67	C	0.721993	-0.552090	-0.285409
N68	N	0.755446	-0.528615	-0.252007
C69	C	0.788914	-0.552058	-0.218609
C70	C	0.722141	-0.979039	-0.285457
C71	C	0.722156	-1.025957	-0.285461
C72	C	0.789079	-1.025925	-0.218658
C73	C	0.789062	-0.979007	-0.218652
C74	C	0.755595	-0.955565	-0.252055
C75	C	0.788872	-0.453533	-0.218597
C76	C	0.788849	-0.406613	-0.218592
C77	C	0.721928	-0.406649	-0.285396
C78	C	0.721949	-0.453564	-0.285400
C79	C	0.755425	-0.477005	-0.251999
O80	O	0.693533	-0.527802	-0.313784
O81	O	0.817366	-0.527777	-0.190207
C82	C	0.788984	-0.739723	-0.218633
C83	C	0.755535	-0.763195	-0.252038
C84	C	0.722067	-0.739752	-0.285436
C85	C	0.755549	-0.810113	-0.252042
C86	C	0.789017	-0.833556	-0.218644
C87	C	0.822470	-0.810081	-0.185242
C88	C	0.822451	-0.763166	-0.185235
C89	C	0.688614	-0.763227	-0.318838
C90	C	0.688635	-0.810143	-0.318841
C91	C	0.722102	-0.833585	-0.285443
C92	C	0.891841	-0.216531	-0.252045
C93	C	0.949955	-0.216539	-0.252060
C94	C	0.755485	-0.216505	-0.388382
C95	C	0.755492	-0.216502	-0.446496
C96	C	0.755577	-0.099335	-0.252047
C97	C	0.755624	-0.049400	-0.252063
C98	C	0.789002	-0.187687	-0.806883
C99	C	0.789008	-0.187675	-0.861488
O100	O	0.817457	-0.163229	-0.889744
N101	N	0.755550	-0.216396	-0.888779
C102	C	0.722079	-0.245129	-0.861463
O103	O	0.693621	-0.269558	-0.889691
C104	C	0.722071	-0.245139	-0.806860
C105	C	0.755535	-0.216419	-0.779571
C106	C	0.822463	-0.158969	-0.779594
C107	C	0.822457	-0.158982	-0.724994
C108	C	0.788990	-0.187714	-0.697682
C109	C	0.755529	-0.216432	-0.724971
C110	C	0.688598	-0.273869	-0.779545
C111	C	0.688592	-0.273876	-0.724938
C112	C	0.722056	-0.245156	-0.697650
C113	C	0.722056	-0.245176	-0.643058
N114	N	0.755514	-0.216455	-0.615767
C115	C	0.788981	-0.187723	-0.643079
C116	C	0.722100	-0.245106	-0.976134
C117	C	0.722110	-0.245099	-1.030736
C118	C	0.789039	-0.187644	-1.030757
C119	C	0.789030	-0.187653	-0.976153
C120	C	0.755558	-0.216384	-0.948843
C121	C	0.788967	-0.187753	-0.528414
C122	C	0.788959	-0.187770	-0.473808
C123	C	0.722029	-0.245223	-0.473793
C124	C	0.722038	-0.245208	-0.528393
C125	C	0.755509	-0.216470	-0.555702
O126	O	0.693620	-0.269609	-0.614767
O127	O	0.817430	-0.163295	-0.614845
C128	C	0.755482	-0.216488	-0.116167
C129	C	0.755576	-0.216365	-0.058053
H130	H	0.556434	-0.268707	-0.312526
H131	H	0.661328	-0.297268	-0.702705
O132	O	0.656049	-0.740528	-0.351296
C133	C	0.626540	-0.771313	-0.380784
H134	H	0.624766	-0.804767	-0.359368
H135	H	0.585333	-0.757796	-0.386311
H136	H	0.645657	-0.776271	-0.420516
O137	O	0.821470	-0.159680	-1.057315
C138	C	0.791726	-0.130664	-1.088902
H139	H	0.750549	-0.127892	-1.072432
H140	H	0.810663	-0.096091	-1.089533
H141	H	0.789916	-0.144546	-1.130282
H142	H	0.694712	-0.472677	-0.312605
O143	O	0.854901	-0.131008	-0.806142
C144	C	0.825174	-0.101984	-0.837734
H145	H	0.783992	-0.099207	-0.821278
H146	H	0.844118	-0.067413	-0.838352
H147	H	0.823375	-0.115859	-0.879118
H148	H	0.206210	-0.297497	-0.345962
O149	O	-0.049346	-0.273221	-0.317846
C150	C	-0.103393	-0.267058	-0.310683
H151	H	-0.110830	-0.232366	-0.293631
H152	H	-0.124130	-0.270151	-0.349841
H153	H	-0.118922	-0.293671	-0.282787
H154	H	0.305276	-0.135522	-0.158101
O155	O	0.854871	-0.599672	-0.152695
C156	C	0.843480	-0.611160	-0.100573
H157	H	0.823386	-0.645238	-0.099473
H158	H	0.881233	-0.612752	-0.077175
H159	H	0.816611	-0.584779	-0.082924
H160	H	0.305256	-0.297494	-0.345945
O161	O	0.854924	-0.740417	-0.152713
C162	C	0.843528	-0.751907	-0.100592
H163	H	0.823436	-0.785986	-0.099495
H164	H	0.881279	-0.753497	-0.077190
H165	H	0.816655	-0.725528	-0.082946
O166	O	0.689573	-0.273066	-0.949687
C167	C	0.660039	-0.298404	-0.985489
H168	H	0.681462	-0.299948	-1.024416
H169	H	0.654431	-0.333806	-0.969713
H170	H	0.620344	-0.281950	-0.991289
O171	O	0.821551	-0.159710	-0.949728
C172	C	0.851100	-0.134361	-0.985550
H173	H	0.829690	-0.132799	-1.024468
H174	H	0.856709	-0.098966	-0.969785
H175	H	0.890794	-0.150817	-0.991364
H176	H	0.694794	-0.268599	-0.550613
H177	H	0.556445	-0.164298	-0.191419
O178	O	0.689713	-1.048735	-0.317984
C179	C	0.701094	-1.037230	-0.370103
H180	H	0.742858	-1.024301	-0.372784
H181	H	0.696580	-1.068077	-0.395936
H182	H	0.673047	-1.010010	-0.383734
O183	O	0.689684	-0.273051	-1.057263
C184	C	0.719427	-0.302059	-1.088861
H185	H	0.760603	-0.304838	-1.072421
H186	H	0.700488	-0.336631	-1.089464
H187	H	0.721239	-0.288165	-1.130248
O188	O	0.656165	-0.301820	-0.806064
C189	C	0.685903	-0.330833	-0.837660
H190	H	0.727081	-0.333612	-0.821222
H191	H	0.666962	-0.365404	-0.838255
H192	H	0.687714	-0.316944	-0.879050
O193	O	0.453165	-0.159739	-0.186172
C194	C	0.488974	-0.134352	-0.156697
H195	H	0.527911	-0.132825	-0.178108
H196	H	0.473223	-0.098948	-0.151198
H197	H	0.494745	-0.150753	-0.116952
H198	H	0.457384	-0.268709	-0.312552
O199	O	0.689584	-0.273199	-0.447275
C200	C	0.700965	-0.317974	-0.460621
H201	H	0.742729	-0.320242	-0.475654
H202	H	0.696450	-0.340172	-0.424703
H203	H	0.672919	-0.329713	-0.492297
O204	O	0.058300	-0.273272	-0.317899
C205	C	0.022486	-0.298677	-0.347347
H206	H	-0.016424	-0.280280	-0.349195
H207	H	0.038275	-0.303521	-0.388532
H208	H	0.016649	-0.332773	-0.328129
O209	O	0.821396	-0.383882	-0.186122
C210	C	0.850930	-0.414638	-0.156639
H211	H	0.852736	-0.448072	-0.178063
H212	H	0.892123	-0.401051	-0.151103
H213	H	0.831812	-0.419661	-0.116910
O214	O	0.821320	-0.476352	-0.186132
C215	C	0.791594	-0.503525	-0.152323
H216	H	0.751959	-0.510581	-0.170716
H217	H	0.812912	-0.536501	-0.145349
H218	H	0.785873	-0.485465	-0.113566
H219	H	0.816212	-0.164382	-0.451592
H220	H	0.816330	-1.045021	-0.191464
H221	H	0.849706	-0.135594	-0.702780
O222	O	-0.049172	-0.159775	-0.186241
C223	C	-0.013358	-0.134388	-0.156771
H224	H	0.025576	-0.132861	-0.178187
H225	H	-0.029109	-0.098984	-0.151269
H226	H	-0.007582	-0.150790	-0.117027
O227	O	0.058440	-0.159868	-0.186219
C228	C	0.089980	-0.185401	-0.152382
H229	H	0.098153	-0.219468	-0.170751
H230	H	0.128383	-0.167088	-0.145404
H231	H	0.068910	-0.190293	-0.113631
O232	O	0.855049	-0.832872	-0.152881
C233	C	0.888794	-0.859972	-0.182705
H234	H	0.891970	-0.845810	-0.223885
H235	H	0.929052	-0.860473	-0.163854
H236	H	0.872647	-0.895545	-0.184491
O237	O	0.202015	-0.130966	-0.152849
C238	C	0.237832	-0.105577	-0.123385
H239	H	0.276765	-0.104056	-0.144804
H240	H	0.222084	-0.070171	-0.117890
H241	H	0.243608	-0.121973	-0.083638
O242	O	0.855014	-0.692039	-0.152802
C243	C	0.907102	-0.680513	-0.164308
H244	H	0.908132	-0.646448	-0.184425
H245	H	0.930578	-0.678874	-0.126604
H246	H	0.924717	-0.706897	-0.191198
O247	O	0.821530	-0.159824	-0.554856
C248	C	0.851050	-0.134475	-0.519052
H249	H	0.852832	-0.152889	-0.480130
H250	H	0.892253	-0.129686	-0.534834
H251	H	0.831937	-0.100354	-0.513241
H252	H	0.816301	-0.959898	-0.191448
O253	O	0.689601	-0.956221	-0.317831
C254	C	0.655833	-0.929128	-0.288025
H255	H	0.674300	-0.922094	-0.248424
H256	H	0.648795	-0.896136	-0.309314
H257	H	0.617100	-0.947246	-0.282235
H258	H	0.661337	-0.688495	-0.346038
H259	H	0.661316	-0.603386	-0.346032
O260	O	0.656210	-0.832990	-0.351323
C261	C	0.685968	-0.860078	-0.385138
H262	H	0.725603	-0.867085	-0.366737
H263	H	0.664679	-0.893084	-0.392135
H264	H	0.691685	-0.841971	-0.423883
H265	H	0.694677	-0.387554	-0.312587
