data_functionalizedCrystal
_audit_creation_method	'MofGen! by Chris Wilmer'
_symmetry_space_group_name_H-M	'P1'
_symmetry_Int_Tables_number	1
_symmetry_cell_setting	triclinic
loop_
_symmetry_equiv_pos_as_xyz
  x,y,z
_cell_length_a	14.446369
_cell_length_b	14.809374
_cell_length_c	14.809374
_cell_angle_alpha	60.797835
_cell_angle_beta	90.000875
_cell_angle_gamma	67.424702
loop_
_atom_site_label
_atom_site_type_symbol
_atom_site_fract_x
_atom_site_fract_y
_atom_site_fract_z
Zr1	Zr	1.022484	0.955154	-0.203635
O2	O	0.909089	1.113080	-0.350799
O3	O	1.041192	0.777387	-0.145558
O4	O	1.079057	0.926533	-0.332096
O5	O	0.859616	0.993431	-0.031862
O6	O	1.231393	0.926526	-0.332090
O7	O	0.871223	0.963934	-0.164260
O8	O	1.163658	0.659731	0.001593
O9	O	0.927351	1.260225	-0.365546
O10	O	1.182252	0.857849	-0.136447
O11	O	1.059904	0.879866	-0.037644
O12	O	1.104485	1.055466	-0.257269
O13	O	0.982137	1.077484	-0.158467
Zr14	Zr	1.246929	1.002186	0.007533
Zr15	Zr	1.265442	0.955143	-0.203626
Zr16	Zr	1.003971	1.002197	0.007524
Zr17	Zr	1.051609	1.189834	-0.227155
Zr18	Zr	1.217804	0.767507	0.031053
O19	O	1.228221	1.179954	-0.050545
O20	O	1.254544	1.113064	-0.350786
O21	O	0.882767	1.179970	-0.050558
O22	O	1.360324	0.844260	0.154696
O23	O	1.386646	0.777371	-0.145545
O24	O	1.014869	0.844276	0.154683
O25	O	1.409797	0.963910	-0.164240
O26	O	1.190356	1.030808	0.135994
O27	O	1.038020	1.030815	0.135988
O28	O	1.398190	0.993406	-0.031842
O29	O	1.120470	1.260217	-0.365539
O30	O	1.148943	0.697124	0.169436
O31	O	1.342062	0.697115	0.169443
O32	O	1.356777	0.659722	0.001600
O33	O	0.912636	1.297618	-0.197703
O34	O	1.105755	1.297610	-0.197695
O35	O	1.164927	0.901874	0.061167
O36	O	1.287276	0.879856	-0.037636
O37	O	1.209509	1.077474	-0.158458
O38	O	1.087161	1.099492	-0.059656
C39	C	1.098275	0.685122	-0.068631
C40	C	1.085911	0.585494	-0.058646
C41	C	0.830803	0.978684	-0.098063
C42	C	0.727661	0.978689	-0.098066
C43	C	1.141092	0.530155	-0.103208
C44	C	1.128314	0.427184	-0.092889
C45	C	0.531918	1.103382	-0.173954
C46	C	0.639192	1.103398	-0.174312
C47	C	0.719784	0.899758	-0.136626
C48	C	0.612164	0.900535	-0.137169
C49	C	0.599720	0.931869	0.016567
C50	C	0.706028	0.934442	0.016136
C51	C	1.438610	0.978656	-0.098040
C52	C	1.541752	0.978652	-0.098036
C53	C	1.157863	0.919826	-0.362179
C54	C	1.165722	0.899855	-0.451821
C55	C	1.171138	1.272218	-0.127471
C56	C	1.183502	1.371846	-0.137456
C57	C	1.130648	0.988984	-0.551723
C58	C	1.138770	0.968345	-0.644374
C59	C	1.111550	1.037514	0.166076
C60	C	1.103691	1.057485	0.255719
C61	C	1.402178	0.685108	-0.068620
C62	C	1.492956	0.585476	-0.058631
C63	C	1.075119	0.743966	0.195496
C64	C	1.054895	0.664309	0.295124
C65	C	1.379022	0.743952	0.195508
C66	C	1.461941	0.664291	0.295139
C67	C	0.890391	1.213389	-0.391610
C68	C	0.807472	1.293050	-0.491241
C69	C	0.867235	1.272232	-0.127483
C70	C	0.776457	1.371865	-0.137471
C71	C	1.194294	1.213375	-0.391599
C72	C	1.214518	1.293031	-0.491226
C73	C	1.480765	0.527198	-0.105528
C74	C	1.566055	0.433591	-0.096163
C75	C	1.663532	0.398259	-0.039895
C76	C	1.675721	0.456547	0.007002
C77	C	1.590434	0.550157	-0.002370
C78	C	1.100219	0.638391	0.393497
C79	C	1.081213	0.563561	0.487114
C80	C	1.016890	0.514642	0.482357
C81	C	0.971561	0.540567	0.383973
C82	C	0.990561	0.615403	0.290357
C83	C	1.564755	0.615388	0.290353
C84	C	1.642677	0.540549	0.383958
C85	C	1.617782	0.514608	0.482348
C86	C	1.514958	0.563519	0.487131
C87	C	1.437038	0.638363	0.393527
C88	C	0.704659	1.341964	-0.486456
C89	C	0.626741	1.416832	-0.580064
C90	C	0.651636	1.442778	-0.678455
C91	C	0.754460	1.393860	-0.683238
C92	C	0.832377	1.319000	-0.589632
C93	C	0.788650	1.430151	-0.090585
C94	C	0.703366	1.523778	-0.099975
C95	C	0.605889	1.559112	-0.156246
C96	C	0.593699	1.500821	-0.203139
C97	C	0.678983	1.407201	-0.193754
C98	C	1.278846	1.341927	-0.486434
C99	C	1.297868	1.416762	-0.580035
C100	C	1.252555	1.442706	-0.678428
C101	C	1.188223	1.393802	-0.683218
C102	C	1.169208	1.318962	-0.589617
H103	H	1.197799	0.559003	-0.148993
H104	H	1.001428	0.453708	0.558593
H105	H	1.353323	0.678171	0.397439
Br106	Br	0.490155	1.686172	-0.168972
H107	H	1.401404	0.555960	-0.151359
Br108	Br	1.081890	1.252621	-0.596141
H109	H	1.240213	0.400691	-0.183245
H110	H	1.556110	0.386143	-0.134354
H111	H	1.029211	0.556638	-0.012854
Br112	Br	0.643216	1.204689	-0.132510
H113	H	0.490560	1.139932	-0.258208
Br114	Br	1.723544	0.413031	0.609374
Br115	Br	1.779269	0.271213	-0.027187
Br116	Br	0.461400	1.548787	-0.279500
Br117	Br	1.033807	0.379099	-0.016552
H118	H	1.755099	0.427766	0.052814
H119	H	1.494702	0.542387	0.567253
H120	H	0.482051	1.164516	-0.149067
Br121	Br	0.670844	1.306767	-0.352938
H122	H	0.916091	1.279172	-0.593540
H123	H	1.174816	0.876753	-0.627430
Br124	Br	1.385172	1.483122	-0.573510
Br125	Br	0.788230	1.429082	-0.816777
Br126	Br	0.662416	1.328103	-0.257389
H127	H	1.118133	0.542463	0.567213
Br128	Br	0.657938	1.164499	-0.315577
Br129	Br	1.278371	1.544280	-0.805449
Br130	Br	0.744678	0.950306	-0.275223
H131	H	0.868012	1.401391	-0.044757
H132	H	1.600374	0.597598	0.035827
H133	H	0.574824	0.931806	-0.221185
H134	H	0.622497	0.808298	-0.084721
H135	H	0.543023	1.456649	-0.576149
Br136	Br	0.822866	0.745868	-0.047926
H137	H	0.713310	1.571225	-0.061783
H138	H	1.201766	0.808270	-0.434885
H139	H	0.551869	0.984660	0.050097
H140	H	0.708759	0.992175	0.045066
H141	H	1.315749	1.320817	-0.406327
H142	H	0.768245	0.844488	0.076377
H143	H	1.151333	1.414938	-0.763342
Br144	Br	0.617581	0.778992	0.111010
H145	H	0.919188	0.500727	0.380115
H146	H	1.094612	1.080569	-0.568660
Br147	Br	0.929045	0.650562	0.156855
Br148	Br	1.043626	1.210149	-0.772535
H149	H	1.152595	0.678214	0.397391
H150	H	1.585045	0.636496	0.210248
Br151	Br	0.545878	1.544378	-0.805484
H152	H	1.726396	0.500730	0.380044
