data_functionalizedCrystal
_audit_creation_method	'MofGen! by Chris Wilmer'
_symmetry_space_group_name_H-M	'P1'
_symmetry_Int_Tables_number	1
_symmetry_cell_setting	triclinic
loop_
_symmetry_equiv_pos_as_xyz
  x,y,z
_cell_length_a	10.489716
_cell_length_b	19.188924
_cell_length_c	9.565339
_cell_angle_alpha	89.998167
_cell_angle_beta	89.996780
_cell_angle_gamma	83.835550
loop_
_atom_site_label
_atom_site_type_symbol
_atom_site_fract_x
_atom_site_fract_y
_atom_site_fract_z
O1	O	1.691866	0.098416	-0.116256
O2	O	1.320459	0.107680	-0.116262
O3	O	1.516885	0.001464	-0.116242
O4	O	1.495440	0.204633	-0.116275
O5	O	1.516869	0.001470	0.116278
O6	O	1.320443	0.107687	0.116258
O7	O	1.691850	0.098423	0.116264
Zn8	Zn	1.506144	0.103056	0.153179
Zn9	Zn	1.506165	0.103047	-0.153176
O10	O	1.495424	0.204639	0.116245
C11	C	1.272934	0.106987	-0.000002
C12	C	1.131350	0.104905	-0.000004
C13	C	1.032217	0.170040	-0.000018
C14	C	0.955634	0.135625	0.114639
C15	C	0.955657	0.135603	-0.114608
C16	C	1.056633	0.070517	0.114747
C17	C	1.056660	0.070504	-0.114602
C18	C	0.980128	0.036041	0.000082
C19	C	1.516184	-0.024549	0.000019
C20	C	1.514104	-0.102068	0.000023
C21	C	1.513141	-0.138476	-0.126724
C22	C	1.511169	-0.211312	-0.126735
C23	C	1.510184	-0.247738	0.000009
C24	C	1.511139	-0.211320	0.126773
C25	C	1.513099	-0.138485	0.126780
N26	N	1.579683	-0.366936	0.094342
N27	N	1.577824	-0.436127	0.094327
C28	C	1.504276	-0.467187	-0.000005
N29	N	1.432674	-0.426443	-0.094342
N30	N	1.434539	-0.357246	-0.094331
C31	C	1.508058	-0.326716	0.000015
C32	C	1.501173	-0.582572	-0.126772
C33	C	1.499192	-0.655409	-0.126778
C34	C	1.499176	-0.655416	0.126733
C35	C	1.501143	-0.582580	0.126735
C36	C	1.502148	-0.546163	-0.000022
C37	C	1.739375	0.099116	0.000002
C38	C	1.880959	0.101198	-0.000006
C39	C	1.496125	0.230652	-0.000020
C40	C	1.498205	0.308170	-0.000033
N41	N	1.506140	0.103061	0.362258
N42	N	1.506180	0.103036	-0.362256
C43	C	1.415272	0.152167	0.453452
C44	C	1.530454	0.166288	0.546630
C45	C	1.391008	0.088946	0.546635
C46	C	1.621379	0.117214	0.453385
C47	C	1.481858	0.039844	0.453381
C48	C	1.597123	0.053939	0.546517
H49	H	1.513956	-0.108830	-0.229940
H50	H	1.055617	0.226698	0.000080
C51	C	0.896036	0.172776	0.245568
N52	N	0.851147	0.200763	0.344178
H53	H	0.911563	0.163110	-0.211527
H54	H	1.510377	-0.240962	-0.229951
C55	C	1.510053	-0.251389	0.266191
N56	N	1.509231	-0.281570	0.371205
H57	H	0.956968	-0.020659	0.000158
H58	H	1.100778	0.043026	-0.211530
H59	H	1.551019	0.219738	0.587589
C60	C	1.514166	-0.098434	0.266217
N61	N	1.514973	-0.068267	0.371244
C62	C	1.259449	0.072827	0.601966
N63	N	1.160355	0.060691	0.643635
H64	H	1.501983	-0.552919	-0.229985
C65	C	1.498197	-0.695463	-0.266217
N66	N	1.497475	-0.725634	-0.371246
H67	H	1.100558	0.043039	0.211776
H68	H	1.498364	-0.685072	0.229931
C69	C	1.502216	-0.542529	0.266169
N70	N	1.503021	-0.512363	0.371197
H71	H	1.338497	0.193732	0.412590
H72	H	1.718782	0.129207	0.412596
H73	H	1.674068	0.012400	0.587124
H74	H	1.461256	-0.013589	0.412390
