data_functionalizedCrystal
_audit_creation_method	'MofGen! by Chris Wilmer'
_symmetry_space_group_name_H-M	'P1'
_symmetry_Int_Tables_number	1
_symmetry_cell_setting	triclinic
loop_
_symmetry_equiv_pos_as_xyz
  x,y,z
_cell_length_a	14.044220
_cell_length_b	15.072220
_cell_length_c	14.044220
_cell_angle_alpha	90.001345
_cell_angle_beta	93.188878
_cell_angle_gamma	90.007881
loop_
_atom_site_label
_atom_site_type_symbol
_atom_site_fract_x
_atom_site_fract_y
_atom_site_fract_z
O1	O	1.277179	0.073692	0.230162
O2	O	1.000508	0.073714	0.221856
O3	O	1.134691	0.073694	0.087674
O4	O	1.142996	0.073711	0.364345
O5	O	1.134655	-0.073871	0.087679
O6	O	1.000472	-0.073851	0.221862
O7	O	1.277144	-0.073873	0.230167
Zn8	Zn	1.138802	-0.097291	0.226015
Zn9	Zn	1.138849	0.097132	0.226009
O10	O	1.142961	-0.073854	0.364350
C11	C	0.964868	-0.000066	0.218223
C12	C	0.858725	-0.000058	0.207379
N13	N	1.138777	-0.229980	0.226020
C14	C	0.664388	-0.000076	0.187553
C15	C	0.613258	-0.000075	0.264467
C16	C	0.505122	-0.000086	0.253435
C17	C	0.772534	-0.000066	0.198583
C18	C	1.138847	-0.589182	0.226005
C19	C	1.066763	-0.551564	0.297518
C20	C	1.066967	-0.448739	0.297819
C21	C	1.138811	-0.410978	0.226012
C22	C	1.240266	-0.448275	0.256192
C23	C	1.239872	-0.551133	0.256710
C24	C	1.110345	-0.551286	0.124155
C25	C	1.108116	-0.448423	0.124630
C26	C	1.138798	-0.310264	0.226015
C27	C	1.138867	-0.689895	0.226004
C28	C	1.312783	-0.000092	0.233800
C29	C	1.418926	-0.000094	0.244645
C30	C	1.131037	-0.000088	0.052054
C31	C	1.120193	-0.000088	-0.054088
N32	N	1.138881	0.229821	0.225997
C33	C	1.100366	-0.000074	-0.248426
C34	C	1.177281	-0.000078	-0.299556
C35	C	1.166249	-0.000070	-0.407692
C36	C	1.111397	-0.000082	-0.140280
C37	C	1.146614	-0.000069	0.399969
C38	C	1.157459	-0.000063	0.506112
H39	H	0.626951	-0.000086	0.113425
C40	C	0.965454	-0.414666	0.271871
C41	C	0.883634	-0.481049	0.250729
C42	C	0.782114	-0.446982	0.224790
C43	C	0.762414	-0.346531	0.219993
C44	C	0.844236	-0.280141	0.241135
C45	C	0.945756	-0.314208	0.267075
H46	H	0.898215	-0.555415	0.254280
H47	H	0.721544	-0.496128	0.209139
H48	H	0.687263	-0.321312	0.200791
H49	H	0.829655	-0.205775	0.237585
H50	H	1.006326	-0.265062	0.282726
H51	H	1.086044	-0.424121	0.373224
C52	C	1.272055	-0.583535	0.357403
C53	C	1.297936	-0.515819	0.436782
C54	C	1.330117	-0.548215	0.537477
C55	C	1.336417	-0.648327	0.558793
C56	C	1.310536	-0.716050	0.479412
C57	C	1.278355	-0.683654	0.378717
H58	H	1.293272	-0.441704	0.421004
H59	H	1.349276	-0.498082	0.596240
H60	H	1.360240	-0.672309	0.633334
H61	H	1.315199	-0.790165	0.495190
H62	H	1.259196	-0.733787	0.319953
H63	H	1.251414	-0.000024	-0.262117
C64	C	1.000222	-0.000066	-0.298999
C65	C	0.969658	-0.076689	-0.366506
C66	C	0.869516	-0.076683	-0.417094
C67	C	0.799938	-0.000054	-0.400174
C68	C	0.830501	0.076574	-0.332664
C69	C	0.930643	0.076568	-0.282076
H70	H	1.021165	-0.133419	-0.379034
H71	H	0.846892	-0.133409	-0.467070
H72	H	0.725807	-0.000050	-0.437622
H73	H	0.778994	0.133304	-0.320136
H74	H	0.953267	0.133294	-0.232100
C75	C	0.964931	-0.584931	0.271757
C76	C	0.945980	-0.646754	0.185477
C77	C	0.844137	-0.680089	0.159684
C78	C	0.761244	-0.651601	0.220170
C79	C	0.780193	-0.589775	0.306455
C80	C	0.882036	-0.556440	0.332249
H81	H	1.007344	-0.667845	0.140697
H82	H	0.830110	-0.725856	0.095809
H83	H	0.685854	-0.676278	0.201076
H84	H	0.718829	-0.568684	0.351236
H85	H	0.896063	-0.510673	0.396123
H86	H	1.295635	-0.576016	0.207128
C87	C	1.092298	-0.586433	0.398804
C88	C	1.092634	-0.686939	0.418526
C89	C	1.118199	-0.721798	0.519810
C90	C	1.143426	-0.656150	0.601373
C91	C	1.143091	-0.555637	0.581653
C92	C	1.117526	-0.520779	0.480369
H93	H	1.073958	-0.735542	0.358146
H94	H	1.118447	-0.796204	0.534408
H95	H	1.162351	-0.681954	0.676350
H96	H	1.161766	-0.507035	0.642033
H97	H	1.117278	-0.446373	0.465771
C98	C	1.314943	-0.415229	0.188184
C99	C	1.284595	-0.353845	0.104251
C100	C	1.359270	-0.320797	0.036242
C101	C	1.464293	-0.349132	0.052166
C102	C	1.494645	-0.410519	0.136103
C103	C	1.419970	-0.443567	0.204112
H104	H	1.206847	-0.332867	0.092460
H105	H	1.336801	-0.275354	-0.025893
H106	H	1.519572	-0.324667	0.001822
H107	H	1.572394	-0.431497	0.147894
H108	H	1.442440	-0.489010	0.266247
C109	C	1.272938	-0.413468	0.355810
C110	C	1.370795	-0.440879	0.401380
C111	C	1.403461	-0.406074	0.501000
C112	C	1.338269	-0.343858	0.555051
C113	C	1.240405	-0.316443	0.509482
C114	C	1.207739	-0.351248	0.409861
H115	H	1.419060	-0.486939	0.361368
H116	H	1.475907	-0.426369	0.534733
H117	H	1.362450	-0.318093	0.628796
H118	H	1.192141	-0.270384	0.549493
H119	H	1.135294	-0.330954	0.376128
C120	C	1.007240	-0.415483	0.093951
C121	C	0.987283	-0.315296	0.084810
C122	C	0.886408	-0.282346	0.054137
C123	C	0.805489	-0.349583	0.032605
C124	C	0.825443	-0.449776	0.041745
C125	C	0.926318	-0.482727	0.072418
H126	H	1.047186	-0.265518	0.100750
H127	H	0.871637	-0.208176	0.047371
H128	H	0.730815	-0.325191	0.009899
H129	H	0.765540	-0.499555	0.025806
H130	H	0.941089	-0.556897	0.079184
C131	C	1.173563	-0.413707	0.048486
C132	C	1.281255	-0.433537	0.057262
C133	C	1.346713	-0.398822	-0.018876
C134	C	1.304480	-0.344276	-0.103792
C135	C	1.196784	-0.324443	-0.112572
C136	C	1.131325	-0.359158	-0.036433
H137	H	1.312523	-0.473917	0.120125
H138	H	1.426438	-0.413504	-0.012376
H139	H	1.352937	-0.318578	-0.160154
H140	H	1.165515	-0.284063	-0.175434
H141	H	1.051600	-0.344476	-0.042933
C142	C	1.181216	-0.584155	0.052120
C143	C	1.264539	-0.645075	0.085487
C144	C	1.335411	-0.677951	0.013461
C145	C	1.322960	-0.649908	-0.091932
C146	C	1.239633	-0.588985	-0.125305
C147	C	1.168761	-0.556109	-0.053279
H148	H	1.273760	-0.665837	0.163510
H149	H	1.397095	-0.723051	0.038167
H150	H	1.375424	-0.674245	-0.145250
H151	H	1.230412	-0.568222	-0.203328
H152	H	1.107077	-0.511009	-0.077984
H153	H	1.037515	-0.577272	0.097225
H154	H	0.650697	-0.000067	0.338600
