data_functionalizedCrystal
_audit_creation_method	'MofGen! by Chris Wilmer'
_symmetry_space_group_name_H-M	'P1'
_symmetry_Int_Tables_number	1
_symmetry_cell_setting	triclinic
loop_
_symmetry_equiv_pos_as_xyz
  x,y,z
_cell_length_a	19.805407
_cell_length_b	17.077402
_cell_length_c	17.077396
_cell_angle_alpha	89.970216
_cell_angle_beta	89.979457
_cell_angle_gamma	90.022883
loop_
_atom_site_label
_atom_site_type_symbol
_atom_site_fract_x
_atom_site_fract_y
_atom_site_fract_z
Zn1	Zn	-1.034759	0.312508	0.443857
Zn2	Zn	-0.784759	0.562508	0.693857
Zn3	Zn	-0.534759	0.812508	0.943857
Zn4	Zn	-0.284759	1.062508	1.193857
Zn5	Zn	-1.034679	0.443783	0.312588
Zn6	Zn	-0.784679	0.693783	0.562588
Zn7	Zn	-0.534679	0.943783	0.812588
Zn8	Zn	-0.284679	1.193783	1.062588
Zn9	Zn	-0.921571	0.312535	0.312603
Zn10	Zn	-0.671571	0.562535	0.562603
Zn11	Zn	-0.421571	0.812535	0.812603
Zn12	Zn	-0.171571	1.062535	1.062603
Zn13	Zn	-0.921544	0.443736	0.443810
Zn14	Zn	-0.671544	0.693736	0.693810
Zn15	Zn	-0.421544	0.943736	0.943810
Zn16	Zn	-0.171544	1.193736	1.193810
O17	O	-0.978138	0.378141	0.378215
O18	O	-0.728138	0.628141	0.628215
O19	O	-0.478138	0.878141	0.878215
O20	O	-0.228138	1.128141	1.128215
O21	O	-1.129465	0.329930	0.426458
O22	O	-0.879465	0.579930	0.676458
O23	O	-0.629465	0.829930	0.926458
O24	O	-0.379465	1.079930	1.176458
O25	O	-1.019653	0.426404	0.202743
O26	O	-0.769653	0.676404	0.452743
O27	O	-0.519653	0.926404	0.702743
O28	O	-0.269653	1.176404	0.952743
O29	O	-0.936631	0.202685	0.330040
O30	O	-0.686631	0.452685	0.580040
O31	O	-0.436631	0.702685	0.830040
O32	O	-0.186631	0.952685	1.080040
O33	O	-1.129406	0.426377	0.330015
O34	O	-0.879406	0.676377	0.580015
O35	O	-0.629406	0.926377	0.830015
O36	O	-0.379406	1.176377	1.080015
O37	O	-1.019789	0.202665	0.426472
O38	O	-0.769789	0.452665	0.676472
O39	O	-0.519789	0.702665	0.926472
O40	O	-0.269789	0.952665	1.176472
O41	O	-0.936553	0.329976	0.202754
O42	O	-0.686553	0.579976	0.452754
O43	O	-0.436553	0.829976	0.702754
O44	O	-0.186553	1.079976	0.952754
O45	O	-0.826851	0.329931	0.329994
O46	O	-0.576851	0.579931	0.579994
O47	O	-0.326851	0.829931	0.829994
O48	O	-0.076851	1.079931	1.079994
O49	O	-0.936584	0.426297	0.553663
O50	O	-0.686584	0.676297	0.803663
O51	O	-0.436584	0.926297	1.053663
O52	O	-0.186584	1.176297	1.303663
O53	O	-0.826831	0.426323	0.426391
O54	O	-0.576831	0.676323	0.676391
O55	O	-0.326831	0.926323	0.926391
O56	O	-0.076831	1.176323	1.176391
O57	O	-1.019763	0.329885	0.553698
O58	O	-0.769763	0.579885	0.803698
O59	O	-0.519763	0.829885	1.053698
O60	O	-0.269763	1.079885	1.303698
O61	O	-1.019626	0.553624	0.329969
O62	O	-0.769626	0.803624	0.579969
O63	O	-0.519626	1.053624	0.829969
O64	O	-0.269626	1.303624	1.079969
O65	O	-0.936506	0.553589	0.426377
O66	O	-0.686506	0.803589	0.676377
O67	O	-0.436506	1.053589	0.926377
O68	O	-0.186506	1.303589	1.176377
C69	C	-0.802282	0.378126	0.378189
C70	C	-0.552282	0.628126	0.628189
C71	C	-0.302282	0.878126	0.878189
C72	C	-0.052282	1.128126	1.128189
C73	C	-0.727050	0.378138	0.378197
C74	C	-0.477050	0.628138	0.628197
C75	C	-0.227050	0.878138	0.878197
C76	C	0.022950	1.128138	1.128197
C77	C	-0.978073	0.582088	0.378183
C78	C	-0.728073	0.832088	0.628183
C79	C	-0.478073	1.082088	0.878183
C80	C	-0.228073	1.332088	1.128183
C81	C	-0.978107	0.669338	0.378196
C82	C	-0.728107	0.919338	0.628196
C83	C	-0.478107	1.169338	0.878196
C84	C	-0.228107	1.419338	1.128196
C85	C	-1.154681	0.378156	0.378241
C86	C	-0.904681	0.628156	0.628241
C87	C	-0.654681	0.878156	0.878241
C88	C	-0.404681	1.128156	1.128241
C89	C	-1.229913	0.378163	0.378252
C90	C	-0.979913	0.628163	0.628252
C91	C	-0.729913	0.878163	0.878252
C92	C	-0.479913	1.128163	1.128252
C93	C	-0.691713	0.428405	0.428310
C94	C	-0.441713	0.678405	0.678310
C95	C	-0.191713	0.928405	0.928310
C96	C	0.058287	1.178405	1.178310
C97	C	-0.621025	0.428407	0.428321
C98	C	-0.371025	0.678407	0.678321
C99	C	-0.121025	0.928407	0.928321
C100	C	0.128975	1.178407	1.178321
C101	C	-0.585675	0.378144	0.378215
C102	C	-0.335675	0.628144	0.628215
C103	C	-0.085675	0.878144	0.878215
C104	C	0.164325	1.128144	1.128215
C105	C	-0.621017	0.327871	0.328100
C106	C	-0.371017	0.577871	0.578100
C107	C	-0.121017	0.827871	0.828100
C108	C	0.128983	1.077871	1.078100
C109	C	-0.691704	0.327867	0.328093
C110	C	-0.441704	0.577867	0.578093
C111	C	-0.191704	0.827867	0.828093
C112	C	0.058296	1.077867	1.078093
C113	C	-0.335943	0.327889	0.328126
C114	C	-0.085943	0.577889	0.578126
C115	C	0.164057	0.827889	0.828126
C116	C	0.414057	1.077889	1.078126
C117	C	-0.265251	0.327899	0.328134
C118	C	-0.015251	0.577899	0.578134
C119	C	0.234749	0.827899	0.828134
C120	C	0.484749	1.077899	1.078134
C121	C	-0.265264	0.428429	0.428353
C122	C	-0.015264	0.678429	0.678353
C123	C	0.234736	0.928429	0.928353
C124	C	0.484736	1.178429	1.178353
C125	C	-0.335951	0.428424	0.428347
C126	C	-0.085951	0.678424	0.678347
C127	C	0.164049	0.928424	0.928347
C128	C	0.414049	1.178424	1.178347
C129	C	-0.371287	0.378149	0.378235
C130	C	-0.121287	0.628149	0.628235
C131	C	0.128713	0.878149	0.878235
C132	C	0.378713	1.128149	1.128235
C133	C	-0.447936	0.378147	0.378225
C134	C	-0.197936	0.628147	0.628225
C135	C	0.052064	0.878147	0.878225
C136	C	0.302064	1.128147	1.128225
C137	C	-0.509027	0.378149	0.378220
C138	C	-0.259027	0.628149	0.628220
C139	C	-0.009027	0.878149	0.878220
C140	C	0.240973	1.128149	1.128220
C141	C	-0.978179	0.378083	0.582959
C142	C	-0.728179	0.628083	0.832959
C143	C	-0.478179	0.878083	1.082959
C144	C	-0.228179	1.128083	1.332959
C145	C	-0.978197	0.378058	0.670209
C146	C	-0.728197	0.628058	0.920209
C147	C	-0.478197	0.878058	1.170209
C148	C	-0.228197	1.128058	1.420209
C149	C	-0.978222	0.173396	0.378263
C150	C	-0.728222	0.423396	0.628263
C151	C	-0.478222	0.673396	0.878263
C152	C	-0.228222	0.923396	1.128263
C153	C	-0.978258	0.086146	0.378284
C154	C	-0.728258	0.336146	0.628284
C155	C	-0.478258	0.586146	0.878284
C156	C	-0.228258	0.836146	1.128284
C157	C	-1.021431	0.710320	0.328051
C158	C	-0.771431	0.960320	0.578051
C159	C	-0.521431	1.210320	0.828051
C160	C	-0.271431	1.460320	1.078051
C161	C	-1.021465	0.792301	0.328071
C162	C	-0.771465	1.042301	0.578071
C163	C	-0.521465	1.292301	0.828071
C164	C	-0.271465	1.542301	1.078071
C165	C	-0.978169	0.833298	0.378233
C166	C	-0.728169	1.083298	0.628233
C167	C	-0.478169	1.333298	0.878233
C168	C	-0.228169	1.583298	1.128233
C169	C	-0.934843	0.792310	0.428384
C170	C	-0.684843	1.042310	0.678384
C171	C	-0.434843	1.292310	0.928384
C172	C	-0.184843	1.542310	1.178384
C173	C	-0.934813	0.710331	0.428367
C174	C	-0.684813	0.960331	0.678367
C175	C	-0.434813	1.210331	0.928367
C176	C	-0.184813	1.460331	1.178367
C177	C	-0.934905	0.963180	0.428414
C178	C	-0.684905	1.213180	0.678414
C179	C	-0.434905	1.463180	0.928414
C180	C	-0.184905	1.713180	1.178414
C181	C	-0.934933	1.045164	0.428430
C182	C	-0.684933	1.295164	0.678430
C183	C	-0.434933	1.545164	0.928430
C184	C	-0.184933	1.795164	1.178430
C185	C	-1.021556	1.045150	0.328117
C186	C	-0.771556	1.295150	0.578117
C187	C	-0.521556	1.545150	0.828117
C188	C	-0.271556	1.795150	1.078117
C189	C	-1.021527	0.963171	0.328100
C190	C	-0.771527	1.213171	0.578100
C191	C	-0.521527	1.463171	0.828100
C192	C	-0.271527	1.713171	1.078100
C193	C	-0.978200	0.922189	0.378251
C194	C	-0.728200	1.172189	0.628251
C195	C	-0.478200	1.422189	0.878251
C196	C	-0.228200	1.672189	1.128251
C197	C	-0.978136	0.378142	0.174267
C198	C	-0.728136	0.628142	0.424267
C199	C	-0.478136	0.878142	0.674267
C200	C	-0.228136	1.128142	0.924267
C201	C	-0.978250	0.377945	0.087017
C202	C	-0.728250	0.627945	0.337017
C203	C	-0.478250	0.877945	0.587017
C204	C	-0.228250	1.127945	0.837017
C205	C	-1.021509	0.327852	0.711219
C206	C	-0.771509	0.577852	0.961219
C207	C	-0.521509	0.827852	1.211219
C208	C	-0.271509	1.077852	1.461219
C209	C	-1.021517	0.327826	0.793199
C210	C	-0.771517	0.577826	1.043199
C211	C	-0.521517	0.827826	1.293199
C212	C	-0.271517	1.077826	1.543199
C213	C	-0.978216	0.378010	0.834168
C214	C	-0.728216	0.628010	1.084168
C215	C	-0.478216	0.878010	1.334168
C216	C	-0.228216	1.128010	1.584168
C217	C	-0.934898	0.428219	0.793153
C218	C	-0.684898	0.678219	1.043153
C219	C	-0.434898	0.928219	1.293153
C220	C	-0.184898	1.178219	1.543153
C221	C	-0.934887	0.428240	0.711174
C222	C	-0.684887	0.678240	0.961174
C223	C	-0.434887	0.928240	1.211174
C224	C	-0.184887	1.178240	1.461174
C225	C	-0.934926	0.428172	0.964023
C226	C	-0.684926	0.678172	1.214023
C227	C	-0.434926	0.928172	1.464023
C228	C	-0.184926	1.178172	1.714023
C229	C	-0.934937	0.428151	1.046008
C230	C	-0.684937	0.678151	1.296008
C231	C	-0.434937	0.928151	1.546008
C232	C	-0.184937	1.178151	1.796008
C233	C	-1.021556	0.327757	1.046048
C234	C	-0.771556	0.577757	1.296048
C235	C	-0.521556	0.827757	1.546048
C236	C	-0.271556	1.077757	1.796048
C237	C	-1.021545	0.327779	0.964069
C238	C	-0.771545	0.577779	1.214069
C239	C	-0.521545	0.827779	1.464069
C240	C	-0.271545	1.077779	1.714069
C241	C	-0.978228	0.377988	0.923059
C242	C	-0.728228	0.627988	1.173059
C243	C	-0.478228	0.877988	1.423059
C244	C	-0.228228	1.127988	1.673059
H245	H	-0.720490	0.469337	0.469109
H246	H	-0.470490	0.719337	0.719109
H247	H	-0.220490	0.969337	0.969109
H248	H	0.029510	1.219337	1.219109
F249	F	-0.373541	0.274379	0.274794
F250	F	-0.123541	0.524379	0.524794
F251	F	0.126459	0.774379	0.774794
F252	F	0.376459	1.024379	1.024794
F253	F	-1.067606	0.919540	0.274711
F254	F	-0.817606	1.169540	0.524711
F255	F	-0.567606	1.419540	0.774711
F256	F	-0.317606	1.669540	1.024711
F257	F	-1.067640	0.274416	0.836841
F258	F	-0.817640	0.524416	1.086841
F259	F	-0.567640	0.774416	1.336841
F260	F	-0.317640	1.024416	1.586841
F261	F	-0.583420	0.481908	0.481658
F262	F	-0.333420	0.731908	0.731658
F263	F	-0.083420	0.981908	0.981658
F264	F	0.166580	1.231908	1.231658
F265	F	-0.888846	0.481557	1.089609
F266	F	-0.638846	0.731557	1.339609
F267	F	-0.388846	0.981557	1.589609
F268	F	-0.138846	1.231557	1.839609
F269	F	-0.729312	0.274364	0.274758
F270	F	-0.479312	0.524364	0.524758
F271	F	-0.229312	0.774364	0.774758
F272	F	0.020688	1.024364	1.024758
F273	F	-0.888848	1.088795	0.481811
F274	F	-0.638848	1.338795	0.731811
F275	F	-0.388848	1.588795	0.981811
F276	F	-0.138848	1.838795	1.231811
H277	H	-1.056743	0.825665	0.287236
H278	H	-0.806743	1.075665	0.537236
H279	H	-0.556743	1.325665	0.787236
H280	H	-0.306743	1.575665	1.037236
F281	F	-0.888821	0.481609	0.920379
F282	F	-0.638821	0.731609	1.170379
F283	F	-0.388821	0.981609	1.420379
F284	F	-0.138821	1.231609	1.670379
F285	F	-0.888768	0.835944	0.481775
F286	F	-0.638768	1.085944	0.731775
F287	F	-0.388768	1.335944	0.981775
F288	F	-0.138768	1.585944	1.231775
F289	F	-0.888811	0.481626	0.836758
F290	F	-0.638811	0.731626	1.086758
F291	F	-0.388811	0.981626	1.336758
F292	F	-0.138811	1.231626	1.586758
H293	H	-0.236471	0.286964	0.287332
H294	H	0.013529	0.536964	0.537332
H295	H	0.263529	0.786964	0.787332
H296	H	0.513529	1.036964	1.037332
F297	F	-0.888793	0.919565	0.481792
F298	F	-0.638793	1.169565	0.731792
F299	F	-0.388793	1.419565	0.981792
F300	F	-0.138793	1.669565	1.231792
F301	F	-1.067664	1.088767	0.274737
F302	F	-0.817664	1.338767	0.524737
F303	F	-0.567664	1.588767	0.774737
F304	F	-0.317664	1.838767	1.024737
H305	H	-0.592229	0.286943	0.287306
H306	H	-0.342229	0.536943	0.537306
H307	H	-0.092229	0.786943	0.787306
H308	H	0.157771	1.036943	1.037306
H309	H	-0.899535	0.676964	0.469202
H310	H	-0.649535	0.926964	0.719202
H311	H	-0.399535	1.176964	0.969202
H312	H	-0.149535	1.426964	1.219202
H313	H	-0.364730	0.469355	0.469146
H314	H	-0.114730	0.719355	0.719146
H315	H	0.135270	0.969355	0.969146
H316	H	0.385270	1.219355	1.219146
F317	F	-1.067601	0.274442	0.667623
F318	F	-0.817601	0.524442	0.917623
F319	F	-0.567601	0.774442	1.167623
F320	F	-0.317601	1.024442	1.417623
H321	H	-1.056808	0.286918	0.930714
H322	H	-0.806808	0.536918	1.180714
H323	H	-0.556808	0.786918	1.430714
H324	H	-0.306808	1.036918	1.680714
F325	F	-1.067657	0.274320	1.089694
F326	F	-0.817657	0.524320	1.339694
F327	F	-0.567657	0.774320	1.589694
F328	F	-0.317657	1.024320	1.839694
F329	F	-0.227652	0.481936	0.481688
F330	F	0.022348	0.731936	0.731688
F331	F	0.272348	0.981936	0.981688
F332	F	0.522348	1.231936	1.231688
H333	H	-1.056685	0.676946	0.287199
H334	H	-0.806685	0.926946	0.537199
H335	H	-0.556685	1.176946	0.787199
H336	H	-0.306685	1.426946	1.037199
F337	F	-0.888786	0.481675	0.667529
F338	F	-0.638786	0.731675	0.917529
F339	F	-0.388786	0.981675	1.167529
F340	F	-0.138786	1.231675	1.417529
