data_functionalizedCrystal
_audit_creation_method	'MofGen! by Chris Wilmer'
_symmetry_space_group_name_H-M	'P1'
_symmetry_Int_Tables_number	1
_symmetry_cell_setting	triclinic
loop_
_symmetry_equiv_pos_as_xyz
  x,y,z
_cell_length_a	19.077105
_cell_length_b	13.031981
_cell_length_c	19.076919
_cell_angle_alpha	95.212724
_cell_angle_beta	89.923776
_cell_angle_gamma	94.612336
loop_
_atom_site_label
_atom_site_type_symbol
_atom_site_fract_x
_atom_site_fract_y
_atom_site_fract_z
Zn1	Zn	1.017314	-0.500549	0.395930
Zn2	Zn	1.008342	-0.666908	0.263638
Zn3	Zn	0.905666	-0.486689	0.274955
Zn4	Zn	0.886215	-0.666284	0.376446
O5	O	0.954384	-0.580108	0.327742
O6	O	1.113960	-0.528679	0.381799
O7	O	0.999107	-0.637462	0.167300
O8	O	0.932371	-0.343744	0.303894
O9	O	1.107368	-0.650902	0.284605
O10	O	1.014399	-0.353927	0.392773
O11	O	0.923672	-0.505056	0.175615
O12	O	0.805250	-0.504451	0.285001
O13	O	0.899220	-0.649839	0.476870
O14	O	0.790959	-0.636399	0.359565
O15	O	0.995538	-0.528074	0.491185
O16	O	0.980246	-0.811608	0.265711
O17	O	0.890520	-0.811150	0.348591
C18	C	0.772737	-0.568854	0.321397
C19	C	0.695024	-0.564065	0.318697
C20	C	0.932317	-0.848922	0.303825
C21	C	0.922940	-0.963927	0.293618
C22	C	0.651088	-0.630609	0.356171
C23	C	0.578070	-0.626097	0.353638
C24	C	0.548989	-0.555044	0.313627
C25	C	0.592932	-0.488492	0.276152
C26	C	0.665948	-0.493001	0.278689
C27	C	0.331409	-0.534178	0.301889
C28	C	0.258387	-0.529677	0.299353
C29	C	0.243530	-0.667280	0.376841
C30	C	0.316549	-0.671787	0.379371
C31	C	0.360485	-0.605232	0.341899
N32	N	0.474353	-0.550432	0.311036
N33	N	0.435120	-0.609840	0.344495
C34	C	0.959315	-1.020156	0.333085
C35	C	0.949624	-1.139020	0.322537
C36	C	1.136741	-0.591406	0.334113
C37	C	1.214450	-0.596221	0.336828
C38	C	0.946210	-0.590433	0.510105
C39	C	0.942726	-0.594833	0.587817
C40	C	0.976556	-0.310246	0.351769
C41	C	0.986004	-0.195246	0.362008
C42	C	0.962573	-0.569750	0.146097
C43	C	0.966216	-0.565067	0.068416
C44	C	0.991235	-0.533506	0.631780
C45	C	0.987954	-0.537636	0.704799
C46	C	0.936167	-0.603098	0.733853
C47	C	0.887653	-0.664427	0.689884
C48	C	0.890932	-0.660291	0.616867
C49	C	0.920981	-0.622260	0.951431
C50	C	0.917707	-0.626394	1.024453
C51	C	1.018007	-0.499601	1.039363
C52	C	1.021284	-0.495475	0.966344
C53	C	0.972768	-0.556800	0.922382
N54	N	0.932813	-0.607323	0.808489
N55	N	0.976120	-0.552569	0.847747
H56	H	0.674759	-0.688472	0.388750
N57	N	1.010070	-0.967360	0.388184
H58	H	1.059006	-0.988531	0.377466
H59	H	0.995356	-0.988268	0.436076
N60	N	0.872186	-1.016709	0.238511
H61	H	0.823252	-0.995536	0.249228
H62	H	0.872518	-1.094125	0.238811
N63	N	0.898868	-1.191808	0.267430
H64	H	0.913524	-1.170914	0.219516
H65	H	0.849951	-1.170616	0.278209
N66	N	1.047099	-0.462908	0.600449
H67	H	1.077404	-0.505254	0.567550
H68	H	1.077279	-0.424704	0.639427
H69	H	1.024321	-1.155393	0.403611
H70	H	1.027456	-0.487700	0.740591
N71	N	1.077142	-0.424873	0.935008
H72	H	1.107375	-0.386648	0.973939
H73	H	1.053979	-0.373514	0.907979
H74	H	1.057505	-0.449672	1.075165
H75	H	0.875533	-0.679704	1.048106
N76	N	0.868635	-0.688365	0.904022
H77	H	0.835328	-0.730452	0.933510
H78	H	0.894493	-0.736304	0.870442
H79	H	0.845484	-0.717724	0.713546
N80	N	0.227009	-0.453067	0.256180
H81	H	0.199357	-0.404932	0.287841
H82	H	0.194761	-0.491451	0.218958
H83	H	0.542299	-0.680285	0.384153
N84	N	0.561563	-0.411870	0.232990
H85	H	0.579838	-0.339368	0.250941
H86	H	0.508645	-0.419214	0.237084
H87	H	0.851424	-0.710219	0.581073
N88	N	0.378793	-0.462382	0.261487
H89	H	0.349288	-0.416686	0.235759
H90	H	0.407094	-0.504437	0.226394
H91	H	0.207750	-0.721464	0.407350
H92	H	0.340220	-0.729648	0.411951
H93	H	0.701722	-0.438808	0.248178
