data_functionalizedCrystal
_audit_creation_method	'MofGen! by Chris Wilmer'
_symmetry_space_group_name_H-M	'P1'
_symmetry_Int_Tables_number	1
_symmetry_cell_setting	triclinic
loop_
_symmetry_equiv_pos_as_xyz
  x,y,z
_cell_length_a	9.730223
_cell_length_b	19.288864
_cell_length_c	19.288865
_cell_angle_alpha	83.136245
_cell_angle_beta	89.993453
_cell_angle_gamma	89.985960
loop_
_atom_site_label
_atom_site_type_symbol
_atom_site_fract_x
_atom_site_fract_y
_atom_site_fract_z
O1	O	0.114746	-0.921344	-0.086645
O2	O	0.614746	-0.421344	0.413355
O3	O	0.114654	-0.719084	-0.098333
O4	O	0.614654	-0.219084	0.401667
O5	O	0.114676	-0.826058	0.008641
O6	O	0.614676	-0.326058	0.508641
O7	O	0.114725	-0.814370	-0.193619
O8	O	0.614725	-0.314370	0.306381
O9	O	-0.113904	-0.826057	0.008639
O10	O	0.386096	-0.326057	0.508639
O11	O	-0.113926	-0.719082	-0.098336
O12	O	0.386074	-0.219082	0.401664
O13	O	-0.113834	-0.921343	-0.086647
O14	O	0.386166	-0.421343	0.413353
Zn15	Zn	-0.150172	-0.820213	-0.092492
Zn16	Zn	0.349828	-0.320213	0.407508
Zn17	Zn	0.150992	-0.820214	-0.092489
Zn18	Zn	0.650992	-0.320214	0.407511
O19	O	-0.113855	-0.814368	-0.193622
O20	O	0.386145	-0.314368	0.306378
C21	C	0.000352	-0.693207	-0.097959
C22	C	0.500352	-0.193207	0.402041
C23	C	0.000316	-0.616103	-0.096830
C24	C	0.500316	-0.116103	0.403170
N25	N	-0.355708	-0.820216	-0.092494
N26	N	0.144292	-0.320216	0.407506
C27	C	0.000382	-0.825682	0.034516
C28	C	0.500382	-0.325682	0.534516
C29	C	0.000369	-0.824553	0.111620
C30	C	0.500369	-0.324553	0.611620
C31	C	-0.427625	-0.867597	-0.045142
C32	C	0.072375	-0.367597	0.454858
C33	C	-0.571508	-0.867595	-0.045133
C34	C	-0.071508	-0.367595	0.454867
C35	C	-0.571545	-0.772830	-0.139836
C36	C	-0.071545	-0.272830	0.360164
C37	C	-0.427664	-0.772829	-0.139841
C38	C	0.072336	-0.272829	0.360159
C39	C	-0.427604	-0.922311	0.009532
C40	C	0.072396	-0.422311	0.509532
C41	C	-0.571487	-0.922309	0.009541
C42	C	-0.071487	-0.422309	0.509541
N43	N	0.356529	-0.820216	-0.092481
N44	N	0.856529	-0.320216	0.407519
C45	C	0.000471	-0.947220	-0.087022
C46	C	0.500471	-0.447220	0.412978
C47	C	0.000517	-1.024324	-0.088151
C48	C	0.500517	-0.524324	0.411849
C49	C	0.000353	-0.571407	-0.159598
C50	C	0.500353	-0.071407	0.340402
C51	C	0.000368	-0.498960	-0.158537
C52	C	0.500368	0.001040	0.341463
C53	C	0.000373	-0.471212	-0.094705
C54	C	0.500373	0.028788	0.405295
C55	C	0.000329	-0.515918	-0.031929
C56	C	0.500329	-0.015918	0.468071
C57	C	0.000300	-0.588364	-0.032991
C58	C	0.500300	-0.088364	0.467009
C59	C	0.080489	-0.362951	-0.044525
C60	C	0.580489	0.137049	0.455475
C61	C	0.080526	-0.290506	-0.043465
C62	C	0.580526	0.209494	0.456535
C63	C	0.000456	-0.247767	-0.091425
C64	C	0.500456	0.252233	0.408575
C65	C	-0.079634	-0.277479	-0.140457
C66	C	0.420366	0.222521	0.359543
C67	C	-0.079663	-0.349924	-0.141520
C68	C	0.420337	0.150076	0.358480
C69	C	0.000404	-0.392658	-0.093546
C70	C	0.500404	0.107342	0.406454
C71	C	0.000507	-0.124514	-0.153047
C72	C	0.500507	0.375486	0.346953
C73	C	0.000513	-0.052066	-0.151984
C74	C	0.500513	0.447934	0.348016
C75	C	0.000488	-0.069026	-0.025374
C76	C	0.500488	0.430974	0.474626
C77	C	0.000468	-0.141473	-0.026439
C78	C	0.500468	0.358527	0.473561
C79	C	0.000484	-0.169212	-0.090278
C80	C	0.500484	0.330788	0.409722
C81	C	0.000442	-0.814745	-0.219497
C82	C	0.500442	-0.314745	0.280503
C83	C	0.000464	-0.815874	-0.296601
C84	C	0.500464	-0.315874	0.203399
C85	C	0.000391	-0.887321	0.156316
C86	C	0.500391	-0.387321	0.656316
C87	C	0.000412	-0.886260	0.228763
C88	C	0.500412	-0.386260	0.728763
C89	C	0.000384	-0.822428	0.256511
C90	C	0.500384	-0.322428	0.756511
C91	C	0.000370	-0.759652	0.211805
C92	C	0.500370	-0.259652	0.711805
C93	C	0.000362	-0.760714	0.139359
C94	C	0.500362	-0.260714	0.639359
C95	C	-0.079706	-0.772248	0.364797
C96	C	0.420294	-0.272248	0.864797
C97	C	-0.079707	-0.771188	0.437242
C98	C	0.420293	-0.271188	0.937242
C99	C	0.000413	-0.819148	0.479956
C100	C	0.500413	-0.319148	0.979956
C101	C	0.080516	-0.868180	0.450219
C102	C	0.580516	-0.368180	0.950219
C103	C	0.080509	-0.869242	0.377774
C104	C	0.580509	-0.369242	0.877774
C105	C	0.000393	-0.821269	0.335065
C106	C	0.500393	-0.321269	0.835065
C107	C	0.000460	-0.880770	0.603209
C108	C	0.500460	-0.380770	1.103209
C109	C	0.000490	-0.879707	0.675657
C110	C	0.500490	-0.379707	1.175657
C111	C	0.000434	-0.753097	0.658697
C112	C	0.500434	-0.253097	1.158697
C113	C	0.000418	-0.754162	0.586250
C114	C	0.500418	-0.254162	1.086250
C115	C	0.000424	-0.818000	0.558511
C116	C	0.500424	-0.318000	1.058511
H117	H	-0.369111	-0.734243	-0.178393
H118	H	0.130889	-0.234243	0.321607
Cl119	Cl	-0.631746	-1.004507	-0.007853
Cl120	Cl	-0.131746	-0.504507	0.492147
H121	H	0.000472	-0.932751	0.580622
H122	H	0.500472	-0.432751	1.080622
H123	H	-0.382950	-0.972545	-0.006789
H124	H	0.117050	-0.472545	0.493211
Cl125	Cl	0.000366	-0.606275	-0.239852
Cl126	Cl	0.500366	-0.106275	0.260148
Cl127	Cl	0.000384	-0.675249	0.530057
Cl128	Cl	0.500384	-0.175249	1.030057
H129	H	-0.616124	-0.906029	0.059797
H130	H	-0.116124	-0.406029	0.559797
Cl131	Cl	-0.180411	-0.709551	0.474619
Cl132	Cl	0.319589	-0.209551	0.974619
Cl133	Cl	0.000553	0.004125	-0.230900
Cl134	Cl	0.500553	0.504125	0.269100
H135	H	-0.388570	-0.911082	0.062785
H136	H	0.111430	-0.411082	0.562785
H137	H	0.000394	-0.462561	-0.209652
H138	H	0.500394	0.037439	0.290348
Cl139	Cl	0.000406	-0.672850	0.693572
Cl140	Cl	0.500406	-0.172850	1.193572
H141	H	-0.630147	-0.734249	-0.178384
H142	H	-0.130147	-0.234249	0.321616
H143	H	0.000401	-0.939303	0.133736
H144	H	0.500401	-0.439303	0.633736
H145	H	-0.144879	-0.374113	-0.181441
H146	H	0.355121	0.125887	0.318559
H147	H	0.000515	-0.930822	0.712049
H148	H	0.500515	-0.430822	1.212049
Cl149	Cl	-0.180442	-0.711950	0.311106
Cl150	Cl	0.319558	-0.211950	0.811106
H151	H	-0.144836	-0.242681	-0.179511
H152	H	0.355164	0.257319	0.320489
H153	H	0.000350	-0.707679	0.234401
H154	H	0.500350	-0.207679	0.734401
H155	H	0.000445	-0.177866	0.024674
H156	H	0.500445	0.322134	0.524674
H157	H	0.000435	-0.937375	0.265162
H158	H	0.500435	-0.437375	0.765162
H159	H	0.000344	-0.709599	0.102967
H160	H	0.500344	-0.209599	0.602967
Cl161	Cl	0.000513	-0.159390	-0.233300
Cl162	Cl	0.500513	0.340610	0.266700
H163	H	0.000271	-0.624756	0.018124
H164	H	0.500271	-0.124756	0.518124
Cl165	Cl	0.181248	-0.928476	0.503910
Cl166	Cl	0.681248	-0.428476	1.003910
Cl167	Cl	0.000479	-0.034151	0.054873
Cl168	Cl	0.500479	0.465849	0.554873
H169	H	0.145746	-0.266320	-0.003543
H170	H	0.645746	0.233680	0.496457
H171	H	0.145700	-0.397744	-0.005468
H172	H	0.645700	0.102256	0.494532
H173	H	0.000352	-0.493322	0.020044
H174	H	0.500352	0.006678	0.520044
Cl175	Cl	0.181214	-0.930875	0.340391
Cl176	Cl	0.681214	-0.430875	0.840391
