data_functionalizedCrystal
_audit_creation_method	'MofGen! by Chris Wilmer'
_symmetry_space_group_name_H-M	'P1'
_symmetry_Int_Tables_number	1
_symmetry_cell_setting	triclinic
loop_
_symmetry_equiv_pos_as_xyz
  x,y,z
_cell_length_a	16.109301
_cell_length_b	10.654551
_cell_length_c	15.186229
_cell_angle_alpha	89.999082
_cell_angle_beta	89.999006
_cell_angle_gamma	83.973473
loop_
_atom_site_label
_atom_site_type_symbol
_atom_site_fract_x
_atom_site_fract_y
_atom_site_fract_z
O1	O	1.104091	0.161420	-0.073175
O2	O	0.862148	0.181508	-0.073186
O3	O	0.988682	-0.011350	-0.073181
O4	O	0.977557	0.354279	-0.073180
O5	O	0.988673	-0.011353	0.073277
O6	O	0.862140	0.181506	0.073271
O7	O	1.104082	0.161418	0.073283
Zn8	Zn	0.983110	0.171461	0.096530
Zn9	Zn	0.983121	0.171465	-0.096434
O10	O	0.977549	0.354276	0.073277
C11	C	0.831164	0.180693	0.000041
C12	C	0.738854	0.178253	0.000036
C13	C	0.430489	0.284717	0.000052
C14	C	0.517223	0.287021	0.000046
C15	C	0.535736	0.058200	0.000034
C16	C	0.449003	0.055898	0.000033
C17	C	0.396382	0.169160	0.000046
C18	C	0.569848	0.173766	0.000042
C19	C	0.663889	0.176264	0.000037
C20	C	0.302335	0.166663	0.000050
C21	C	0.987860	-0.058139	0.000046
C22	C	0.985416	-0.197549	0.000040
C23	C	0.984274	-0.263043	-0.079792
C24	C	0.981970	-0.394033	-0.079789
C25	C	0.981954	-0.394021	0.079887
C26	C	0.984252	-0.263033	0.079882
C27	C	0.985438	-0.197559	-0.159635
C28	C	0.984297	-0.263054	-0.239474
C29	C	0.981993	-0.394043	-0.239470
C30	C	0.980830	-0.459537	-0.159627
C31	C	1.135066	0.162233	0.000054
C32	C	1.227376	0.164672	0.000053
C33	C	0.978370	0.401064	0.000048
C34	C	0.980814	0.540474	0.000049
N35	N	0.983108	0.171458	0.228223
N36	N	0.983129	0.171458	-0.228126
C37	C	1.039156	0.086089	0.453948
C38	C	1.039159	0.086086	0.546138
C39	C	0.927074	0.256831	0.546142
C40	C	0.927069	0.256827	0.453954
C41	C	0.983114	0.171457	0.407859
C42	C	0.983123	0.171458	0.592237
C43	C	0.983125	0.171456	0.692193
C44	C	0.983111	0.171458	0.307897
H45	H	0.987316	-0.090902	-0.159647
H46	H	0.981008	-0.447357	0.144891
Br47	Br	0.851000	0.372683	0.391397
H48	H	0.985236	-0.209719	-0.304479
H49	H	0.421233	-0.038208	0.000026
H50	H	0.978942	-0.566195	-0.159630
Br51	Br	1.115216	-0.029772	0.391394
H52	H	0.985164	-0.209702	0.144889
H53	H	0.387647	0.376942	0.000062
H54	H	1.084793	0.016570	0.583661
Br55	Br	0.980432	-0.482925	-0.347820
H56	H	0.544989	0.381119	0.000050
Br57	Br	0.607154	-0.095505	0.000024
H58	H	0.881444	0.326339	0.583681
