data_functionalizedCrystal
_audit_creation_method	'MofGen! by Chris Wilmer'
_symmetry_space_group_name_H-M	'P1'
_symmetry_Int_Tables_number	1
_symmetry_cell_setting	triclinic
loop_
_symmetry_equiv_pos_as_xyz
  x,y,z
_cell_length_a	10.654550
_cell_length_b	14.472310
_cell_length_c	10.654550
_cell_angle_alpha	90.000834
_cell_angle_beta	84.484931
_cell_angle_gamma	90.009818
loop_
_atom_site_label
_atom_site_type_symbol
_atom_site_fract_x
_atom_site_fract_y
_atom_site_fract_z
O1	O	1.667858	0.076772	0.176391
O2	O	2.167858	0.576772	0.676391
O3	O	1.302379	0.076789	0.193197
O4	O	1.802379	0.576789	0.693197
O5	O	1.493521	0.076774	0.002054
O6	O	1.993521	0.576774	0.502054
O7	O	1.476715	0.076786	0.367533
O8	O	1.976715	0.576786	0.867533
O9	O	1.493472	-0.076908	0.002065
O10	O	1.993472	0.423092	0.502065
O11	O	1.302330	-0.076893	0.193207
O12	O	1.802330	0.423107	0.693207
O13	O	1.667808	-0.076910	0.176401
O14	O	2.167808	0.423090	0.676401
Cu15	Cu	1.485064	-0.090934	0.184805
Cu16	Cu	1.985064	0.409066	0.684805
Cu17	Cu	1.485123	0.090813	0.184793
Cu18	Cu	1.985123	0.590813	0.684793
O19	O	1.476666	-0.076896	0.367544
O20	O	1.976666	0.423104	0.867544
C21	C	1.255556	-0.000050	0.191968
C22	C	1.755556	0.499950	0.691968
C23	C	1.116113	-0.000044	0.188276
C24	C	1.616113	0.499956	0.688276
N25	N	1.485032	-0.218765	0.184814
N26	N	1.985032	0.281235	0.684814
C27	C	1.036628	-0.000043	0.300818
C28	C	1.536628	0.499957	0.800818
C29	C	0.905607	-0.000059	0.297341
C30	C	1.405607	0.499941	0.797341
C31	C	0.933570	-0.000074	0.068772
C32	C	1.433570	0.499926	0.568772
C33	C	1.064588	-0.000064	0.072250
C34	C	1.564588	0.499936	0.572250
C35	C	1.485121	-0.592856	0.184788
C36	C	1.985121	-0.092856	0.684788
C37	C	1.382496	-0.553683	0.286715
C38	C	1.882496	-0.053683	0.786715
C39	C	1.382738	-0.446595	0.287092
C40	C	1.882738	0.053405	0.787092
C41	C	1.485076	-0.407265	0.184801
C42	C	1.985076	0.092735	0.684801
C43	C	1.616368	-0.446107	0.214564
C44	C	2.116368	0.053893	0.714564
C45	C	1.615793	-0.553229	0.215290
C46	C	2.115793	-0.053229	0.715290
C47	C	1.457621	-0.553389	0.052802
C48	C	1.957621	-0.053389	0.552802
C49	C	1.454623	-0.446261	0.053655
C50	C	1.954623	0.053739	0.553655
C51	C	1.485059	-0.302377	0.184805
C52	C	1.985059	0.197623	0.684805
C53	C	1.485147	-0.697744	0.184785
C54	C	1.985147	-0.197744	0.684785
C55	C	1.714631	-0.000069	0.177630
C56	C	2.214631	0.499931	0.677630
C57	C	1.854074	-0.000070	0.181322
C58	C	2.354074	0.499930	0.681322
C59	C	1.492263	-0.000066	-0.044738
C60	C	1.992263	0.499934	0.455262
C61	C	1.488571	-0.000065	-0.184181
C62	C	1.988571	0.499935	0.315819
N63	N	1.485165	0.218643	0.184775
N64	N	1.985165	0.718643	0.684775
C65	C	1.601112	-0.000070	-0.263667
C66	C	2.101112	0.499930	0.236333
C67	C	1.597636	-0.000058	-0.394688
C68	C	2.097636	0.499942	0.105312
C69	C	1.369066	-0.000041	-0.366725
C70	C	1.869066	0.499959	0.133275
C71	C	1.372544	-0.000046	-0.235706
C72	C	1.872544	0.499954	0.264294
C73	C	1.477925	-0.000053	0.414336
C74	C	1.977925	0.499947	0.914336
C75	C	1.481616	-0.000049	0.553779
C76	C	1.981616	0.499951	1.053779
H77	H	1.078574	-0.000033	0.395294
H78	H	1.578574	0.499967	0.895294
H79	H	0.840894	-0.000060	0.388984
H80	H	1.340894	0.499940	0.888984
H81	H	1.640973	-0.419268	0.309764
H82	H	2.140973	0.080732	0.809764
H83	H	1.400418	-0.420958	0.385012
H84	H	1.900418	0.079042	0.885012
H85	H	0.891602	-0.000096	-0.025693
H86	H	1.391602	0.499904	0.474307
H87	H	1.129309	-0.000068	-0.019401
H88	H	1.629309	0.499932	0.480599
H89	H	1.280893	-0.000039	-0.170985
H90	H	1.780893	0.499961	0.329015
H91	H	1.363899	-0.580453	0.024466
H92	H	1.863899	-0.080453	0.524466
H93	H	1.695588	-0.000083	-0.221720
H94	H	2.195588	0.499917	0.278280
H95	H	1.274601	-0.000027	-0.408693
H96	H	1.774601	0.499973	0.091307
H97	H	1.285183	-0.420335	0.269191
H98	H	1.785183	0.079665	0.769191
H99	H	1.689279	-0.000060	-0.459401
H100	H	2.189279	0.499940	0.040599
H101	H	1.284627	-0.579467	0.269091
H102	H	1.784627	-0.079467	0.769091
H103	H	1.399939	-0.580590	0.384083
H104	H	1.899939	-0.080590	0.884083
H105	H	1.358037	-0.420875	0.031094
H106	H	1.858037	0.079125	0.531094
H107	H	1.639853	-0.578202	0.311580
H108	H	2.139853	-0.078202	0.811580
H109	H	1.694606	-0.579141	0.144039
H110	H	2.194606	-0.079141	0.644039
H111	H	1.694608	-0.420630	0.142348
H112	H	2.194608	0.079370	0.642348
H113	H	1.524428	-0.419493	-0.025837
H114	H	2.024428	0.080507	0.474163
H115	H	1.532447	-0.578721	-0.023062
H116	H	2.032447	-0.078721	0.476938
