data_functionalizedCrystal
_audit_creation_method	'MofGen! by Chris Wilmer'
_symmetry_space_group_name_H-M	'P1'
_symmetry_Int_Tables_number	1
_symmetry_cell_setting	triclinic
loop_
_symmetry_equiv_pos_as_xyz
  x,y,z
_cell_length_a	19.805407
_cell_length_b	12.759394
_cell_length_c	19.805399
_cell_angle_alpha	89.977727
_cell_angle_beta	89.980427
_cell_angle_gamma	90.013856
loop_
_atom_site_label
_atom_site_type_symbol
_atom_site_fract_x
_atom_site_fract_y
_atom_site_fract_z
Zn1	Zn	1.034795	-0.418291	-0.382745
Zn2	Zn	1.534795	0.081709	0.117255
Zn3	Zn	1.034734	-0.593984	-0.269567
Zn4	Zn	1.534734	-0.093984	0.230433
Zn5	Zn	0.921609	-0.418320	-0.269569
Zn6	Zn	1.421609	0.081680	0.230431
Zn7	Zn	0.921598	-0.593928	-0.382714
Zn8	Zn	1.421598	-0.093928	0.117286
O9	O	0.978184	-0.506131	-0.326149
O10	O	1.478184	-0.006131	0.173851
O11	O	1.129503	-0.441608	-0.367743
O12	O	1.629503	0.058392	0.132257
O13	O	1.019708	-0.570717	-0.174851
O14	O	1.519708	-0.070717	0.325149
O15	O	0.936654	-0.271295	-0.284596
O16	O	1.436654	0.228705	0.215404
O17	O	1.129459	-0.570689	-0.284592
O18	O	1.629459	-0.070689	0.215408
O19	O	1.019811	-0.271274	-0.367746
O20	O	1.519811	0.228726	0.132254
O21	O	0.936595	-0.441658	-0.174852
O22	O	1.436595	0.058342	0.325148
O23	O	0.826891	-0.441603	-0.284566
O24	O	1.326891	0.058397	0.215434
O25	O	0.936634	-0.570594	-0.477434
O26	O	1.436634	-0.070594	0.022566
O27	O	0.826883	-0.570622	-0.367693
O28	O	1.326883	-0.070622	0.132307
O29	O	1.019799	-0.441554	-0.477457
O30	O	1.519799	0.058446	0.022543
O31	O	1.019696	-0.740998	-0.284562
O32	O	1.519696	-0.240998	0.215438
O33	O	0.936575	-0.740957	-0.367691
O34	O	1.436575	-0.240957	0.132309
C35	C	0.802328	-0.506111	-0.326127
C36	C	1.302328	-0.006111	0.173873
C37	C	0.727096	-0.506127	-0.326133
C38	C	1.227096	-0.006127	0.173867
C39	C	0.691765	-0.573409	-0.369347
C40	C	1.191765	-0.073409	0.130653
C41	C	0.621077	-0.573411	-0.369357
C42	C	1.121077	-0.073411	0.130643
C43	C	0.585720	-0.506136	-0.326149
C44	C	1.085720	-0.006136	0.173851
C45	C	0.621056	-0.438847	-0.282933
C46	C	1.121056	0.061153	0.217067
C47	C	0.691743	-0.438841	-0.282927
C48	C	1.191743	0.061159	0.217073
C49	C	0.335983	-0.438870	-0.282955
C50	C	0.835983	0.061130	0.217045
C51	C	0.265291	-0.438884	-0.282963
C52	C	0.765291	0.061116	0.217037
C53	C	0.265316	-0.573440	-0.369385
C54	C	0.765316	-0.073440	0.130615
C55	C	0.336003	-0.573434	-0.369379
C56	C	0.836003	-0.073434	0.130621
C57	C	0.371333	-0.506142	-0.326166
C58	C	0.871333	-0.006142	0.173834
C59	C	0.447982	-0.506139	-0.326157
C60	C	0.947982	-0.006139	0.173843
C61	C	0.509073	-0.506143	-0.326154
C62	C	1.009073	-0.006143	0.173846
C63	C	0.978146	-0.779098	-0.326137
C64	C	1.478146	-0.279098	0.173863
C65	C	0.978192	-0.895875	-0.326155
C66	C	1.478192	-0.395875	0.173845
C67	C	1.064719	-0.895695	-0.412804
C68	C	1.564719	-0.395695	0.087196
C69	C	1.108003	-0.950465	-0.456133
C70	C	1.608003	-0.450465	0.043867
C71	C	1.108043	-1.060187	-0.456148
C72	C	1.608043	-0.560187	0.043852
C73	C	1.064793	-1.115140	-0.412830
C74	C	1.564793	-0.615140	0.087170
C75	C	1.021508	-1.060370	-0.369500
C76	C	1.521508	-0.560370	0.130500
C77	C	1.021474	-0.950646	-0.369489
C78	C	1.521474	-0.450646	0.130511
C79	C	0.934980	-1.060550	-0.282856
C80	C	1.434980	-0.560550	0.217144
C81	C	0.934942	-0.950828	-0.282837
C82	C	1.434942	-0.450828	0.217163
C83	C	0.891729	-1.115504	-0.239538
C84	C	1.391729	-0.615504	0.260462
C85	C	0.848447	-1.060733	-0.196205
C86	C	1.348447	-0.560733	0.303795
C87	C	0.848409	-0.951005	-0.196191
C88	C	1.348409	-0.451005	0.303809
C89	C	0.891657	-0.896058	-0.239508
C90	C	1.391657	-0.396058	0.260492
C91	C	1.154727	-0.506152	-0.326171
C92	C	1.654727	-0.006152	0.173829
C93	C	1.229959	-0.506161	-0.326180
C94	C	1.729959	-0.006161	0.173820
C95	C	0.978222	-0.506065	-0.502691
C96	C	1.478222	-0.006065	-0.002691
C97	C	0.978238	-0.506036	-0.577923
C98	C	1.478238	-0.006036	-0.077923
C99	C	0.978240	-0.232097	-0.326175
C100	C	1.478240	0.267903	0.173825
C101	C	0.978264	-0.115321	-0.326186
C102	C	1.478264	0.384679	0.173814
C103	C	1.021543	-0.438842	-0.613281
C104	C	1.521543	0.061158	-0.113281
C105	C	1.021550	-0.438811	-0.683969
C106	C	1.521550	0.061189	-0.183969
C107	C	0.978255	-0.505982	-0.719299
C108	C	1.478255	-0.005982	-0.219299
C109	C	0.934945	-0.573179	-0.683937
C110	C	1.434945	-0.073179	-0.183937
C111	C	0.934935	-0.573203	-0.613250
C112	C	1.434935	-0.073203	-0.113250
C113	C	0.934983	-0.573081	-0.969010
C114	C	1.434983	-0.073081	-0.469010
C115	C	0.934998	-0.573054	-1.039703
C116	C	1.434998	-0.073054	-0.539703
C117	C	1.021598	-0.438689	-1.039730
C118	C	1.521598	0.061311	-0.539730
C119	C	1.021588	-0.438713	-0.969042
C120	C	1.521588	0.061287	-0.469042
C121	C	0.978276	-0.505907	-0.933687
C122	C	1.478276	-0.005907	-0.433687
C123	C	0.978268	-0.505937	-0.857038
C124	C	1.478268	-0.005937	-0.357038
C125	C	0.978266	-0.505957	-0.795946
C126	C	1.478266	-0.005957	-0.295946
C127	C	0.978185	-0.506121	-0.150293
C128	C	1.478185	-0.006121	0.349707
C129	C	0.978300	-0.505853	-0.075061
C130	C	1.478300	-0.005853	0.424939
H131	H	0.592313	-0.628199	-0.404546
H132	H	1.092313	-0.128199	0.095454
H133	H	1.143282	-1.104781	-0.491437
H134	H	1.643282	-0.604781	0.008563
H135	H	1.056815	-0.384097	-0.712754
H136	H	1.556815	0.115903	-0.212754
F137	F	0.802417	-1.119224	-0.150113
F138	F	1.302417	-0.619224	0.349887
F139	F	0.373628	-0.645041	-0.415365
F140	F	0.873628	-0.145041	0.084635
F141	F	1.067693	-0.367172	-1.077363
F142	F	1.567693	0.132828	-0.577363
H143	H	0.720509	-0.384048	-0.247741
H144	H	1.220509	0.115952	0.252259
F145	F	1.064673	-0.778919	-0.412798
F146	F	1.564673	-0.278919	0.087202
H147	H	0.236542	-0.628229	-0.404574
H148	H	0.736542	-0.128229	0.095426
F149	F	1.067628	-0.367354	-0.575686
F150	F	1.567628	0.132646	-0.075686
H151	H	0.891763	-1.204845	-0.239556
H152	H	1.391763	-0.704845	0.260444
H153	H	1.064824	-1.204481	-0.412851
H154	H	1.564824	-0.704481	0.087149
H155	H	0.813159	-0.906416	-0.160910
H156	H	1.313159	-0.406416	0.339090
H157	H	0.891634	-0.806717	-0.239498
H158	H	1.391634	-0.306717	0.260502
F159	F	1.067672	-0.367226	-0.931445
F160	F	1.567672	0.132774	-0.431445
F161	F	0.888842	-0.644719	-0.575620
F162	F	1.388842	-0.144719	-0.075620
H163	H	1.143216	-0.905713	-0.491404
H164	H	1.643216	-0.405713	0.008596
F165	F	0.888914	-0.644548	-1.077302
F166	F	1.388914	-0.144548	-0.577302
F167	F	0.888887	-0.644594	-0.931391
F168	F	1.388887	-0.144594	-0.431391
H169	H	0.720547	-0.628195	-0.404531
H170	H	1.220547	-0.128195	0.095469
F171	F	0.227664	-0.367276	-0.236973
F172	F	0.727664	0.132724	0.263027
F173	F	0.888864	-0.644663	-0.721540
F174	F	1.388864	-0.144663	-0.221540
H175	H	0.364740	-0.384085	-0.247763
H176	H	0.864740	0.115915	0.252237
H177	H	0.592264	-0.384066	-0.247755
H178	H	1.092264	0.115934	0.252245
