data_functionalizedCrystal
_audit_creation_method	'MofGen! by Chris Wilmer'
_symmetry_space_group_name_H-M	'P1'
_symmetry_Int_Tables_number	1
_symmetry_cell_setting	triclinic
loop_
_symmetry_equiv_pos_as_xyz
  x,y,z
_cell_length_a	21.606444
_cell_length_b	20.919540
_cell_length_c	20.919309
_cell_angle_alpha	60.707570
_cell_angle_beta	90.004264
_cell_angle_gamma	58.228459
loop_
_atom_site_label
_atom_site_type_symbol
_atom_site_fract_x
_atom_site_fract_y
_atom_site_fract_z
Zr1	Zr	0.561939	0.731655	-0.119625
O2	O	0.460053	0.864285	-0.225051
O3	O	0.598151	0.593420	-0.082134
O4	O	0.596351	0.723576	-0.217587
O5	O	0.457611	0.742456	0.011365
O6	O	0.698201	0.723579	-0.217583
O7	O	0.461854	0.734129	-0.089598
O8	O	0.701422	0.490753	0.024717
O9	O	0.454389	0.975281	-0.230935
O10	O	0.683590	0.652356	-0.072391
O11	O	0.604414	0.658568	0.002954
O12	O	0.602294	0.811810	-0.156524
O13	O	0.523117	0.818022	-0.081179
Zr14	Zr	0.717612	0.744940	0.041406
Zr15	Zr	0.724379	0.731659	-0.119619
Zr16	Zr	0.555172	0.744935	0.041400
Zr17	Zr	0.552906	0.908681	-0.129009
Zr18	Zr	0.726644	0.567913	0.050790
O19	O	0.681399	0.883174	0.003915
O20	O	0.691021	0.864291	-0.225042
O21	O	0.450431	0.883168	0.003906
O22	O	0.819498	0.612309	0.146832
O23	O	0.829120	0.593426	-0.082125
O24	O	0.588530	0.612303	0.146823
O25	O	0.821940	0.734138	-0.089585
O26	O	0.683200	0.753018	0.139368
O27	O	0.581350	0.753016	0.139364
O28	O	0.817697	0.742465	0.011379
O29	O	0.583507	0.975285	-0.230930
O30	O	0.696044	0.501309	0.152710
O31	O	0.825162	0.501313	0.152715
O32	O	0.830540	0.490756	0.024722
O33	O	0.449010	0.985838	-0.102941
O34	O	0.578128	0.985841	-0.102936
O35	O	0.677257	0.664784	0.078305
O36	O	0.756434	0.658572	0.002960
O37	O	0.675137	0.818026	-0.081173
O38	O	0.595961	0.824239	-0.005828
C39	C	0.651074	0.516864	-0.027372
C40	C	0.654909	0.441711	-0.023388
C41	C	0.436588	0.738292	-0.039117
C42	C	0.367628	0.738290	-0.039120
C43	C	-0.058014	0.742894	0.016521
C44	C	0.006785	0.742887	0.016521
C45	C	0.041517	0.738298	-0.039103
C46	C	0.011451	0.733706	-0.094726
C47	C	-0.053344	0.733706	-0.094722
C48	C	0.272763	0.733704	-0.094743
C49	C	0.337560	0.733707	-0.094744
C50	C	0.332892	0.742885	0.016500
C51	C	0.268097	0.742886	0.016504
C52	C	0.238039	0.738288	-0.039116
C53	C	0.167777	0.738294	-0.039114
C54	C	0.111775	0.738299	-0.039109
C55	C	0.679712	0.013666	0.002155
C56	C	0.676067	0.084308	-0.001602
C57	C	0.617347	0.176166	-0.062343
C58	C	0.562274	0.197383	-0.119335
C59	C	0.565924	0.126741	-0.115580
C60	C	0.603485	0.392286	-0.076626
C61	C	0.599838	0.462929	-0.080374
C62	C	0.713632	0.349848	0.037358
C63	C	0.717274	0.279211	0.041110
C64	C	0.662203	0.300433	-0.015885
C65	C	0.613618	0.248375	-0.066183
C66	C	0.665936	0.228224	-0.012047
C67	C	0.842963	0.738303	-0.039102
C68	C	0.911923	0.738304	-0.039099
C69	C	0.648240	0.721685	-0.240528
C70	C	0.651113	0.716047	-0.308887
C71	C	0.628477	0.959730	-0.050848
C72	C	0.624642	1.034883	-0.054831
C73	C	0.610028	0.796630	-0.384919
C74	C	0.612737	0.791327	-0.449147
C75	C	0.656527	0.705440	-0.437341
C76	C	0.697617	0.624852	-0.361302
C77	C	0.694912	0.630155	-0.297075
C78	C	0.666823	0.685262	-0.629066
C79	C	0.669523	0.679964	-0.693301
C80	C	0.584644	0.846440	-0.781141
C81	C	0.581939	0.851736	-0.716910
C82	C	0.623032	0.771148	-0.640876
C83	C	0.659296	0.700018	-0.502992
C84	C	0.620267	0.776571	-0.575227
C85	C	0.631311	0.754909	0.162308
C86	C	0.628438	0.760547	0.230668
C87	C	0.854261	0.516869	-0.027364
C88	C	0.927056	0.441719	-0.023377
C89	C	0.642609	0.533476	0.174046
C90	C	0.643571	0.463961	0.246389
C91	C	0.845797	0.533481	0.174054
C92	C	0.915719	0.463969	0.246400
C93	C	0.433754	0.943113	-0.252273
C94	C	0.363832	1.012625	-0.324619
C95	C	0.425290	0.959725	-0.050855
C96	C	0.352495	1.034875	-0.054842
C97	C	0.636941	0.943118	-0.252266
C98	C	0.635980	1.012633	-0.324609
C99	C	0.923218	0.403182	-0.060844
C100	C	0.991610	0.332578	-0.057114
C101	C	1.063839	0.300509	-0.015912
C102	C	1.067676	0.339053	0.021556
C103	C	0.999284	0.409659	0.017821
C104	C	0.682046	0.434562	0.319702
C105	C	0.682946	0.369256	0.387681
C106	C	0.645376	0.333346	0.382347
C107	C	0.606896	0.362752	0.309027
C108	C	0.605991	0.428061	0.241049
C109	C	0.989891	0.428082	0.241045
C110	C	1.055596	0.362777	0.309015
C111	C	1.047127	0.333355	0.382339
C112	C	0.972947	0.369248	0.387692
C113	C	0.907244	0.434557	0.319723
C114	C	0.289660	1.048521	-0.319265
C115	C	0.223954	1.113848	-0.387236
C116	C	0.232422	1.143273	-0.460560
C117	C	0.306602	1.107375	-0.465913
C118	C	0.372306	1.042054	-0.397943
C119	C	0.356333	1.073419	-0.017382
C120	C	0.287941	1.144041	-0.021131
C121	C	0.215711	1.176112	-0.062335
C122	C	0.211875	1.137565	-0.099800
C123	C	0.280266	1.066950	-0.096055
C124	C	0.673558	1.048523	-0.319250
C125	C	0.672669	1.113830	-0.387217
C126	C	0.634197	1.143251	-0.460543
C127	C	0.596618	1.107354	-0.465901
C128	C	0.597512	1.042043	-0.397934
H129	H	-0.086292	0.746636	0.061813
F130	F	0.276170	1.025931	-0.135924
F131	F	0.734679	0.061720	0.059053
F132	F	0.565043	0.459339	0.163027
F133	F	1.117062	0.263845	0.454673
F134	F	0.537339	0.560697	-0.145027
F135	F	0.569007	0.877094	-0.530066
F136	F	0.292040	1.185050	0.018750
H137	H	0.558641	0.409577	-0.123033
H138	H	0.357374	0.746624	0.061791
H139	H	0.163560	1.143065	-0.382862
H140	H	0.633475	1.196432	-0.515880
H141	H	0.714284	0.345322	0.447375
H142	H	0.365839	0.729968	-0.140042
H143	H	1.119522	0.243015	-0.012876
H144	H	0.521081	0.144023	-0.161986
F145	F	1.144555	0.304910	0.065406
H146	H	0.996801	0.452028	0.181347
F147	F	1.003381	0.450662	0.057706
F148	F	0.134996	1.171707	-0.143649
H149	H	0.565295	1.131319	-0.525612
F150	F	0.451245	1.003853	-0.403654
F151	F	0.566914	0.324524	0.303363
F152	F	0.048419	0.728815	-0.153923
H153	H	0.566907	1.012829	-0.402308
F154	F	0.846353	0.437302	-0.104702
F155	F	0.433198	1.039301	0.026474
H156	H	0.712641	0.463794	0.324060
H157	H	1.115990	0.333559	0.304642
F158	F	0.540913	0.932202	-0.862063
F159	F	0.231133	0.747775	0.075704
H160	H	0.178915	1.196462	-0.515900
H161	H	0.031263	0.746623	0.061811
F162	F	0.499783	0.295147	-0.183982
F163	F	0.240776	0.728815	-0.153939
H164	H	0.703270	1.143051	-0.382840
H165	H	-0.077820	0.729967	-0.140013
H166	H	0.700284	0.619641	-0.567165
H167	H	0.727525	-0.061127	0.051620
F168	F	0.779767	0.181449	0.105762
F169	F	0.646345	0.263837	0.454704
H170	H	0.966063	0.345283	0.447402
H171	H	0.713747	0.153430	0.037406
F172	F	0.772239	0.327271	0.098010
F173	F	0.828306	0.472739	0.325434
H174	H	0.584616	0.846500	-0.584836
H175	H	0.160028	1.233613	-0.065378
H176	H	0.282750	1.024566	-0.259566
H177	H	0.313488	1.131342	-0.525622
H178	H	0.733276	0.554921	-0.351694
H179	H	0.704886	1.024579	-0.259550
H180	H	0.565807	0.323174	-0.115637
H181	H	0.574364	0.866568	-0.394541
F182	F	0.535303	0.943149	-0.729482
H183	H	0.705182	0.610022	-0.683679
H184	H	0.728368	0.564536	-0.235166
H185	H	0.988471	0.301204	-0.087626
F186	F	0.705894	0.608613	-0.490434
