data_functionalizedCrystal
_audit_creation_method	'MofGen! by Chris Wilmer'
_symmetry_space_group_name_H-M	'P1'
_symmetry_Int_Tables_number	1
_symmetry_cell_setting	triclinic
loop_
_symmetry_equiv_pos_as_xyz
  x,y,z
_cell_length_a	6.817900
_cell_length_b	11.102233
_cell_length_c	17.513366
_cell_angle_alpha	92.997340
_cell_angle_beta	106.556936
_cell_angle_gamma	108.604751
loop_
_atom_site_label
_atom_site_type_symbol
_atom_site_fract_x
_atom_site_fract_y
_atom_site_fract_z
V1	V	-4.089005	-0.178455	-0.248627
O2	O	-4.048468	0.005884	-0.243890
O3	O	-4.065935	-0.351259	-0.246930
O4	O	-4.055963	-0.176891	-0.357059
O5	O	-4.058509	-0.169690	-0.132998
V6	V	-4.567361	-0.156267	-0.234796
O7	O	-4.361598	-0.227128	-0.278965
O8	O	-4.744965	-0.107594	-0.204457
O9	O	-4.367225	0.016537	-0.236492
O10	O	-4.725295	-0.340606	-0.239533
O11	O	-4.715254	-0.165032	-0.350425
O12	O	-4.377197	-0.157831	-0.126363
C13	C	-3.916601	-0.393347	-0.243009
C14	C	-3.979127	-0.534624	-0.242345
C15	C	-4.250900	-0.740254	-0.245379
C16	C	-4.192155	-0.607512	-0.246008
C17	C	-3.824829	-0.594484	-0.238044
C18	C	-3.883571	-0.727223	-0.237409
C19	C	-4.462975	-0.747776	-0.249980
C20	C	-4.404230	-0.615033	-0.250609
C21	C	-3.903879	-0.170923	-0.383489
C22	C	-3.958314	-0.170787	-0.472133
C23	C	-4.275488	-0.170382	-0.973697
C24	C	-4.224324	-0.170509	-0.890406
C25	C	-4.015092	-0.164178	-0.844703
C26	C	-3.857021	-0.157732	-0.882296
C27	C	-3.908190	-0.157613	-0.965587
C28	C	-3.851412	-0.164223	-0.593017
C29	C	-3.800251	-0.164338	-0.509721
C30	C	-4.167560	-0.177118	-0.517836
C31	C	-4.218709	-0.176991	-0.601128
C32	C	-4.060638	-0.170552	-0.638714
C33	C	-3.962789	-0.164304	-0.759565
C34	C	-4.112948	-0.170435	-0.723851
C35	C	-4.179901	0.058619	-0.240411
C36	C	-4.096614	0.199894	-0.241081
C37	C	-4.192623	-0.163803	-0.099930
C38	C	-4.117425	-0.163932	-0.011285
H39	H	-4.519226	-0.772152	-0.195512
H40	H	-4.283308	-0.175598	-0.761067
C41	C	-3.736795	-0.150872	-1.006467
C42	C	-3.811218	-0.260409	-1.064778
C43	C	-3.653372	-0.254258	-1.102444
H44	H	-3.711183	-0.076109	-1.031575
H45	H	-3.604846	-0.147183	-0.967349
H46	H	-3.943128	-0.264086	-1.103889
H47	H	-3.836816	-0.335189	-1.039690
H48	H	-3.521424	-0.250569	-1.063327
H49	H	-3.627771	-0.179490	-1.127548
H50	H	-3.703837	-0.328581	-1.142007
H51	H	-4.409406	-0.561203	-0.194390
H52	H	-3.686661	-0.152584	-0.845079
C53	C	-4.631915	-0.825720	-0.328699
C54	C	-4.820625	-0.793978	-0.342139
C55	C	-4.976305	-0.865766	-0.414642
H56	H	-4.574562	-0.806783	-0.371899
H57	H	-4.666892	-0.914895	-0.325558
H58	H	-4.785648	-0.704823	-0.345287
H59	H	-4.878041	-0.812919	-0.298958
H60	H	-5.011282	-0.954941	-0.411501
H61	H	-4.918931	-0.846824	-0.457836
H62	H	-5.104369	-0.844248	-0.423767
H63	H	-3.792426	-0.159146	-0.722344
C64	C	-4.395996	-0.177777	-0.849584
C65	C	-4.433214	-0.288203	-0.812776
C66	C	-4.591378	-0.294955	-0.775175
H67	H	-4.346056	-0.103654	-0.809921
H68	H	-4.528005	-0.181597	-0.888718
H69	H	-4.301232	-0.284372	-0.773646
H70	H	-4.483186	-0.362345	-0.852422
H71	H	-4.723388	-0.298775	-0.814309
H72	H	-4.541422	-0.220827	-0.735516
H73	H	-4.616666	-0.369885	-0.750203
H74	H	-3.757921	-0.775944	-0.233894
C75	C	-4.339224	-0.184386	-0.477011
C76	C	-4.376420	-0.294807	-0.440197
C77	C	-4.534574	-0.301561	-0.402591
H78	H	-4.289284	-0.110260	-0.437350
H79	H	-4.471242	-0.188214	-0.516142
H80	H	-4.244429	-0.290969	-0.401069
H81	H	-4.426392	-0.368952	-0.479840
H82	H	-4.666591	-0.305388	-0.441723
H83	H	-4.484618	-0.227430	-0.362934
H84	H	-4.559846	-0.376486	-0.377615
C85	C	-3.679887	-0.157019	-0.633899
C86	C	-3.642764	-0.046634	-0.670749
C87	C	-3.484779	-0.039960	-0.708427
H88	H	-3.547806	-0.153186	-0.594827
H89	H	-3.730009	-0.231201	-0.673547
H90	H	-3.592634	0.027529	-0.631105
H91	H	-3.774799	-0.050442	-0.709833
H92	H	-3.534901	-0.114142	-0.748076
H93	H	-3.352711	-0.036131	-0.669350
H94	H	-3.459585	0.034929	-0.733441
H95	H	-4.389079	-0.182139	-0.638333
H96	H	-3.651369	-0.535126	-0.235055
H97	H	-4.510848	-0.596428	-0.308604
H98	H	-4.445860	-0.175534	-1.010903
H99	H	-3.629829	-0.159111	-0.472504
