data_functionalizedCrystal
_audit_creation_method	'MofGen! by Chris Wilmer'
_symmetry_space_group_name_H-M	'P1'
_symmetry_Int_Tables_number	1
_symmetry_cell_setting	triclinic
loop_
_symmetry_equiv_pos_as_xyz
  x,y,z
_cell_length_a	14.908571
_cell_length_b	12.759400
_cell_length_c	14.909241
_cell_angle_alpha	86.675800
_cell_angle_beta	83.210755
_cell_angle_gamma	86.710990
loop_
_atom_site_label
_atom_site_type_symbol
_atom_site_fract_x
_atom_site_fract_y
_atom_site_fract_z
Zn1	Zn	1.413404	-0.473612	-0.591537
Zn2	Zn	1.404582	-0.658899	-0.440175
Zn3	Zn	1.253300	-0.473638	-0.431469
Zn4	Zn	1.262018	-0.639650	-0.582776
O5	O	1.333326	-0.561450	-0.511489
O6	O	1.538901	-0.506236	-0.578769
O7	O	1.377174	-0.642390	-0.312351
O8	O	1.274581	-0.326615	-0.452725
O9	O	1.532420	-0.642365	-0.467563
O10	O	1.392209	-0.326596	-0.570327
O11	O	1.266028	-0.506280	-0.305955
O12	O	1.127788	-0.487615	-0.444230
O13	O	1.289440	-0.609559	-0.710606
O14	O	1.134193	-0.609583	-0.555394
O15	O	1.400662	-0.487571	-0.717044
O16	O	1.385628	-0.803365	-0.459068
O17	O	1.280886	-0.789223	-0.563836
C18	C	1.098147	-0.546514	-0.497917
C19	C	0.997538	-0.540148	-0.492132
C20	C	0.815192	-0.655410	-0.596863
C21	C	0.720661	-0.649432	-0.591431
C22	C	0.713944	-0.522209	-0.475841
C23	C	0.808475	-0.528187	-0.481273
C24	C	0.859096	-0.594791	-0.541785
C25	C	0.953628	-0.600774	-0.547212
C26	C	0.946909	-0.473546	-0.431628
C27	C	0.852378	-0.467568	-0.426196
C28	C	1.333271	-0.834415	-0.511467
C29	C	1.333332	-0.951194	-0.511493
C30	C	1.387939	-1.013385	-0.457008
C31	C	1.387996	-1.123111	-0.457039
C32	C	1.278832	-1.108444	-0.566042
C33	C	1.278780	-0.998721	-0.566015
C34	C	1.442491	-0.965858	-0.402485
C35	C	1.497102	-1.028050	-0.347994
C36	C	1.497159	-1.137776	-0.348026
C37	C	1.442605	-1.185310	-0.402547
C38	C	1.569423	-0.576445	-0.525115
C39	C	1.670033	-0.582835	-0.530921
C40	C	1.347007	-0.546415	-0.747587
C41	C	1.352838	-0.540008	-0.848198
C42	C	1.333407	-0.287419	-0.511532
C43	C	1.333441	-0.170644	-0.511551
C44	C	1.247979	-0.655018	-1.030555
C45	C	1.253454	-0.649002	-1.125088
C46	C	1.369267	-0.521964	-1.131798
C47	C	1.363792	-0.527981	-1.037265
C48	C	1.303145	-0.594509	-0.986647
C49	C	1.297666	-0.600519	-0.892112
C50	C	1.413482	-0.473488	-0.898824
C51	C	1.418957	-0.467472	-0.993357
C52	C	1.319750	-0.576354	-0.276313
C53	C	1.314095	-0.582476	-0.175712
H54	H	0.811150	-0.413338	-0.376932
H55	H	1.541632	-1.188409	-0.303664
H56	H	0.856408	-0.709648	-0.646129
Cl57	Cl	1.002107	-0.397344	-0.362376
Cl58	Cl	1.210253	-1.168203	-0.634576
H59	H	1.248275	-0.654679	-0.850900
Cl60	Cl	1.171732	-0.738640	-0.966918
H61	H	1.234315	-0.948084	-0.610383
Cl62	Cl	1.495197	-0.383844	-1.057000
Cl63	Cl	0.665470	-0.725640	-0.660676
H64	H	1.208534	-0.698276	-1.160834
Cl65	Cl	1.442284	-1.323251	-0.402188
H66	H	0.672712	-0.467976	-0.426582
Cl67	Cl	1.442690	-0.827919	-0.402710
Cl68	Cl	1.445512	-0.438349	-1.195448
H69	H	1.458398	-0.424212	-0.863064
Cl70	Cl	1.565688	-0.968294	-0.279466
H71	H	0.994842	-0.655008	-0.596482
