data_functionalizedCrystal
_audit_creation_method	'MofGen! by Chris Wilmer'
_symmetry_space_group_name_H-M	'P1'
_symmetry_Int_Tables_number	1
_symmetry_cell_setting	triclinic
loop_
_symmetry_equiv_pos_as_xyz
  x,y,z
_cell_length_a	17.666332
_cell_length_b	12.811457
_cell_length_c	12.837942
_cell_angle_alpha	89.411937
_cell_angle_beta	89.999211
_cell_angle_gamma	95.425357
loop_
_atom_site_label
_atom_site_type_symbol
_atom_site_fract_x
_atom_site_fract_y
_atom_site_fract_z
O1	O	0.033615	1.406626	0.139676
O2	O	0.012740	1.102566	0.154866
O3	O	0.022720	1.247854	-0.003661
O4	O	0.023636	1.261338	0.298203
O5	O	0.148615	1.247833	-0.003656
O6	O	0.138636	1.102545	0.154871
O7	O	0.159511	1.406605	0.139681
Cu8	Cu	0.160568	1.254573	0.147277
Cu9	Cu	0.011683	1.254598	0.147270
O10	O	0.149531	1.261317	0.298208
C11	C	0.072998	1.063367	0.154017
C12	C	0.064981	0.946596	0.151469
N13	N	0.265287	1.254563	0.147280
N14	N	-0.093036	1.254615	0.147259
C15	C	0.872142	1.324590	0.210459
C16	C	0.792894	1.324580	0.210470
C17	C	0.748472	1.254606	0.147260
C18	C	0.783303	1.184619	0.084055
C19	C	0.862549	1.184623	0.084055
N20	N	0.623232	1.242696	0.056395
N21	N	0.547952	1.242699	0.056398
C22	C	0.509706	1.254588	0.147260
N23	N	0.549586	1.266495	0.238118
N24	N	0.624874	1.266498	0.238114
C25	C	0.662542	1.254594	0.147254
C26	C	0.388954	1.324556	0.210477
C27	C	0.309704	1.324539	0.210489
C28	C	0.300115	1.184582	0.084065
C29	C	0.379363	1.184594	0.084063
C30	C	0.423779	1.254586	0.147267
C31	C	0.187183	0.727147	0.146666
C32	C	0.179655	0.617430	0.144271
C33	C	0.042396	0.617444	0.144277
C34	C	0.049925	0.727161	0.146672
C35	C	0.122321	0.782008	0.147868
C36	C	0.129848	0.891727	0.150270
C37	C	-0.007409	0.891739	0.150268
C38	C	-0.014938	0.782022	0.147873
C39	C	0.085354	1.243288	-0.042299
C40	C	0.084420	1.229702	-0.157434
C41	C	0.099252	1.445804	0.140530
C42	C	0.107263	1.562575	0.143078
C43	C	0.095617	1.393029	-0.397689
C44	C	0.094740	1.380269	-0.505869
C45	C	0.081783	1.191422	-0.481979
C46	C	0.082660	1.204183	-0.373798
C47	C	0.089579	1.304989	-0.331657
C48	C	0.090462	1.317749	-0.223474
C49	C	0.077499	1.128903	-0.199586
C50	C	0.076622	1.116143	-0.307767
C51	C	0.086895	1.265883	0.336846
C52	C	0.087824	1.279469	0.451981
H53	H	0.908300	1.381581	0.261927
C54	C	-0.037236	0.557107	0.142947
C55	C	-0.093027	0.569265	0.233215
C56	C	-0.172661	0.508930	0.231879
C57	C	-0.196503	0.436437	0.140276
C58	C	-0.140710	0.424276	0.050001
C59	C	-0.061076	0.484611	0.051337
H60	H	-0.075379	0.622931	0.301031
H61	H	-0.213962	0.517933	0.298707
H62	H	-0.255452	0.391774	0.139288
H63	H	-0.158358	0.370610	-0.017815
H64	H	-0.019775	0.475608	-0.015491
C65	C	-0.094569	0.721683	0.146561
C66	C	-0.118423	0.649178	0.054972
C67	C	-0.198056	0.588840	0.053663
C68	C	-0.253835	0.601007	0.143945
C69	C	-0.229982	0.673514	0.235541
C70	C	-0.150349	0.733852	0.236849
H71	H	-0.077131	0.640169	-0.011866
H72	H	-0.215713	0.535165	-0.014143
H73	H	-0.312784	0.556341	0.142976
H74	H	-0.271274	0.682524	0.302379
H75	H	-0.132692	0.787527	0.304656
H76	H	-0.060225	0.936418	0.151253
H77	H	0.246131	0.771804	0.147654
H78	H	0.096098	1.399830	-0.189165
H79	H	0.101258	1.475110	-0.363377
C80	C	0.251261	1.107605	0.014535
C81	C	0.262402	1.111169	-0.104459
C82	C	0.213545	1.034183	-0.173987
C83	C	0.153547	0.953634	-0.124520
C84	C	0.142404	0.950067	-0.005519
C85	C	0.191261	1.027052	0.064009
H86	H	0.306818	1.170799	-0.141084
H87	H	0.221794	1.036824	-0.262080
H88	H	0.117380	0.896645	-0.175989
H89	H	0.097987	0.890437	0.031105
H90	H	0.183012	1.024411	0.152101
H91	H	0.188797	0.936382	0.151250
H92	H	0.890900	1.127639	0.032588
H93	H	0.232473	0.572766	0.143298
H94	H	0.099655	1.451961	-0.559629
C95	C	0.734442	1.107647	0.014522
C96	C	0.647274	1.107643	0.014514
C97	C	0.598414	1.030665	-0.055017
C98	C	0.636722	0.953690	-0.124541
C99	C	0.723895	0.953691	-0.124536
C100	C	0.772755	1.030670	-0.055004
H101	H	0.618912	1.164627	0.065982
H102	H	0.533883	1.030664	-0.055021
H103	H	0.600553	0.896706	-0.176012
H104	H	0.752257	0.896708	-0.176004
H105	H	0.837286	1.030670	-0.055001
C106	C	0.074155	1.080547	-0.528357
C107	C	0.137129	1.045792	-0.599469
C108	C	0.129493	0.934918	-0.645852
C109	C	0.058884	0.858800	-0.621125
C110	C	-0.004095	0.893554	-0.550010
C111	C	0.003540	1.004428	-0.503626
H112	H	0.189403	1.102140	-0.617777
H113	H	0.176115	0.909191	-0.698497
H114	H	0.053232	0.776725	-0.655461
H115	H	-0.056369	0.837206	-0.531701
H116	H	-0.043081	1.030155	-0.450982
H117	H	0.070986	1.034068	-0.342093
H118	H	0.072588	1.057214	-0.145810
H119	H	0.764536	1.381561	0.261940
H120	H	0.425119	1.381543	0.261946
H121	H	0.407716	1.127617	0.032593
C122	C	0.271396	1.401513	0.280020
C123	C	0.320255	1.478496	0.349538
C124	C	0.281946	1.555469	0.419071
C125	C	0.194778	1.555460	0.419085
C126	C	0.145914	1.478474	0.349564
C127	C	0.184223	1.401500	0.280031
H128	H	0.384787	1.478506	0.349530
H129	H	0.318119	1.612459	0.470535
H130	H	0.166419	1.612440	0.470557
H131	H	0.081382	1.478464	0.349572
H132	H	0.148050	1.344510	0.228567
