data_functionalizedCrystal
_audit_creation_method	'MofGen! by Chris Wilmer'
_symmetry_space_group_name_H-M	'P1'
_symmetry_Int_Tables_number	1
_symmetry_cell_setting	triclinic
loop_
_symmetry_equiv_pos_as_xyz
  x,y,z
_cell_length_a	10.723024
_cell_length_b	15.944551
_cell_length_c	9.198806
_cell_angle_alpha	89.995864
_cell_angle_beta	89.996352
_cell_angle_gamma	83.983304
loop_
_atom_site_label
_atom_site_type_symbol
_atom_site_fract_x
_atom_site_fract_y
_atom_site_fract_z
O1	O	1.655699	0.117808	-0.120886
O2	O	1.292405	0.129085	-0.120892
O3	O	1.483973	0.001228	-0.120876
O4	O	1.464131	0.245664	-0.120902
O5	O	1.483958	0.001228	0.120909
O6	O	1.292389	0.129084	0.120893
O7	O	1.655684	0.117808	0.120899
Cu8	Cu	1.474035	0.123446	0.142973
Cu9	Cu	1.474053	0.123446	-0.142966
O10	O	1.464116	0.245664	0.120883
C11	C	1.245908	0.128264	0.000000
C12	C	1.107384	0.125809	-0.000001
C13	C	1.031498	0.197350	-0.000010
C14	C	0.888327	0.194814	-0.000012
C15	C	1.483141	-0.030070	0.000017
C16	C	1.480672	-0.123331	0.000018
C17	C	1.356026	-0.338901	-0.000004
C18	C	1.413900	-0.399587	0.119211
C19	C	1.476205	-0.294082	0.000006
C20	C	1.413944	-0.399570	-0.119170
C21	C	1.471880	-0.459020	-0.000011
C22	C	1.534111	-0.353540	0.119320
C23	C	1.534138	-0.353516	-0.119168
C24	C	1.592099	-0.414184	0.000077
C25	C	1.478692	-0.199066	0.000018
C26	C	1.469402	-0.554035	-0.000011
C27	C	1.702181	0.118629	0.000003
C28	C	1.840704	0.121084	-0.000005
C29	C	1.464947	0.276963	-0.000013
C30	C	1.467417	0.370223	-0.000024
N31	N	1.474032	0.123445	0.344087
N32	N	1.474067	0.123441	-0.344080
C33	C	1.554469	0.069525	0.416290
C34	C	1.554488	0.069522	0.583703
H35	H	0.905903	0.059835	-0.000006
C36	C	0.800253	0.277557	-0.000028
H37	H	0.848704	0.324143	-0.000044
H38	H	0.748853	0.279794	0.084282
H39	H	0.748876	0.279789	-0.084360
H40	H	1.066360	0.062682	-0.000032
C41	C	1.602702	-0.326148	0.255632
H42	H	1.603807	-0.266649	0.254833
H43	H	1.686309	-0.352599	0.255985
H44	H	1.560279	-0.342285	0.340181
H45	H	1.256273	-0.306164	0.000113
H46	H	1.623358	0.023362	0.645795
C47	C	1.086906	0.282632	-0.000021
H48	H	1.175865	0.273149	-0.000029
H49	H	1.059517	0.313682	0.084288
H50	H	1.059530	0.313676	-0.084354
H51	H	1.363063	-0.419986	0.219997
H52	H	1.405202	0.169609	0.593837
H53	H	1.363104	-0.419938	-0.219964
C54	C	1.380997	0.185797	0.427990
H55	H	1.330518	0.219619	0.360981
H56	H	1.426078	0.220914	0.487368
H57	H	1.328971	0.155316	0.487366
C58	C	1.726966	-0.458216	0.000168
H59	H	1.769444	-0.442461	0.084928
H60	H	1.769978	-0.441746	-0.083712
H61	H	1.724674	-0.517615	-0.000623
C62	C	1.602751	-0.325919	-0.255323
H63	H	1.559935	-0.341507	-0.339949
H64	H	1.686143	-0.352737	-0.256180
H65	H	1.604475	-0.266476	-0.253855
H66	H	1.623316	0.023361	0.354170
