data_functionalizedCrystal
_audit_creation_method	'MofGen! by Chris Wilmer'
_symmetry_space_group_name_H-M	'P1'
_symmetry_Int_Tables_number	1
_symmetry_cell_setting	triclinic
loop_
_symmetry_equiv_pos_as_xyz
  x,y,z
_cell_length_a	10.654550
_cell_length_b	10.654559
_cell_length_c	9.130313
_cell_angle_alpha	90.000220
_cell_angle_beta	90.003780
_cell_angle_gamma	95.513206
loop_
_atom_site_label
_atom_site_type_symbol
_atom_site_fract_x
_atom_site_fract_y
_atom_site_fract_z
O1	O	-1.667840	0.176392	-0.121915
O2	O	-1.302362	0.193198	-0.121891
O3	O	-1.493498	0.002057	-0.121899
O4	O	-1.476704	0.367534	-0.121906
O5	O	-1.493496	0.002062	0.121700
O6	O	-1.302360	0.193204	0.121708
O7	O	-1.667838	0.176397	0.121684
Cu8	Cu	-1.485098	0.184801	0.143939
Cu9	Cu	-1.485101	0.184795	-0.144145
O10	O	-1.476702	0.367539	0.121693
C11	C	-1.255563	0.191967	-0.000088
C12	C	-1.116119	0.188275	-0.000079
C13	C	-1.492261	-0.044738	-0.000102
C14	C	-1.488565	-0.184181	-0.000107
C15	C	-1.714637	0.177629	-0.000121
C16	C	-1.854080	0.181321	-0.000140
N17	N	-1.485106	0.184805	0.346561
C18	C	-1.036637	0.300816	-0.000103
C19	C	-0.905616	0.297340	-0.000128
C20	C	-0.933572	0.068771	-0.000112
C21	C	-1.064591	0.072249	-0.000076
C22	C	-1.020496	0.432779	-0.000118
C23	C	-0.889475	0.429302	-0.000143
C24	C	-1.477938	0.414334	-0.000108
C25	C	-1.481635	0.553777	-0.000112
C26	C	-1.597647	0.605317	-0.000125
C27	C	-1.601113	0.736339	-0.000117
C28	C	-1.372543	0.764271	-0.000090
C29	C	-1.369079	0.633251	-0.000087
C30	C	-1.729610	0.589191	-0.000147
C31	C	-1.733076	0.720213	-0.000139
N32	N	-1.485104	0.184781	-0.346768
C33	C	-1.569762	0.100196	0.423210
C34	C	-1.569759	0.100181	0.576546
C35	C	-1.400438	0.269394	0.576573
C36	C	-1.400436	0.269402	0.423239
C37	C	-1.667523	0.002506	0.423195
C38	C	-1.667519	0.002491	0.576532
H39	H	-1.129301	-0.019393	-0.000036
Cl40	Cl	-1.797936	0.775241	0.162255
Cl41	Cl	-1.620395	-0.138339	0.649960
H42	H	-1.274611	0.591294	-0.000064
Cl43	Cl	-1.075560	0.497647	-0.162493
H44	H	-0.891601	-0.025694	-0.000132
H45	H	-1.758707	0.033094	0.375630
H46	H	-0.847745	0.479021	-0.102098
Cl47	Cl	-1.231053	0.864189	-0.000060
H48	H	-1.779341	0.547445	0.101789
H49	H	-1.331501	0.338270	0.639021
Cl50	Cl	-1.816523	0.035702	0.640786
Cl51	Cl	-1.293991	0.375752	0.326880
Cl52	Cl	-1.812746	0.765564	-0.157534
Cl53	Cl	-1.634411	-0.146527	0.358931
H54	H	-0.843804	0.469185	0.105024
H55	H	-1.049828	0.484391	0.101832
H56	H	-1.769481	0.543547	-0.105329
