data_functionalizedCrystal
_audit_creation_method	'MofGen! by Chris Wilmer'
_symmetry_space_group_name_H-M	'P1'
_symmetry_Int_Tables_number	1
_symmetry_cell_setting	triclinic
loop_
_symmetry_equiv_pos_as_xyz
  x,y,z
_cell_length_a	19.188930
_cell_length_b	23.532407
_cell_length_c	18.266242
_cell_angle_alpha	89.988983
_cell_angle_beta	89.977082
_cell_angle_gamma	82.996728
loop_
_atom_site_label
_atom_site_type_symbol
_atom_site_fract_x
_atom_site_fract_y
_atom_site_fract_z
O1	O	0.925922	0.071102	-0.061124
O2	O	1.425922	0.571102	0.438876
O3	O	0.722581	0.080673	-0.061074
O4	O	1.222581	0.580673	0.438926
O5	O	0.830383	-0.007031	-0.061087
O6	O	1.330383	0.492969	0.438913
O7	O	0.818120	0.158806	-0.061111
O8	O	1.318120	0.658806	0.438889
O9	O	0.830365	-0.007035	0.060675
O10	O	1.330365	0.492965	0.560675
O11	O	0.722562	0.080669	0.060688
O12	O	1.222562	0.580669	0.560688
O13	O	0.925904	0.071097	0.060638
O14	O	1.425904	0.571097	0.560638
Zn15	Zn	0.824230	0.075882	0.079995
Zn16	Zn	1.324230	0.575882	0.579995
Zn17	Zn	0.824254	0.075888	-0.080431
Zn18	Zn	1.324254	0.575888	0.419569
O19	O	0.818102	0.158802	0.060651
O20	O	1.318102	0.658802	0.560651
C21	C	0.696561	0.080361	-0.000187
C22	C	1.196561	0.580361	0.499813
C23	C	0.619060	0.079431	-0.000168
C24	C	1.119060	0.579431	0.499832
C25	C	0.573972	0.130893	-0.000187
C26	C	1.073972	0.630893	0.499813
C27	C	0.501151	0.130019	-0.000194
C28	C	1.001151	0.630019	0.499806
C29	C	0.473421	0.077680	-0.000198
C30	C	0.973421	0.577680	0.499802
C31	C	0.518519	0.026211	-0.000175
C32	C	1.018519	0.526211	0.499825
C33	C	0.591339	0.027086	-0.000160
C34	C	1.091339	0.527086	0.499840
N35	N	0.365575	0.037674	-0.041663
N36	N	0.865575	0.537674	0.458337
N37	N	0.296399	0.036846	-0.041679
N38	N	0.796399	0.536846	0.458321
C39	C	0.254021	0.075038	-0.000243
C40	C	0.754021	0.575038	0.499757
N41	N	0.283431	0.114099	0.041201
N42	N	0.783431	0.614099	0.541201
N43	N	0.352613	0.114929	0.041214
N44	N	0.852613	0.614929	0.541214
C45	C	0.394462	0.076724	-0.000214
C46	C	0.894462	0.576724	0.499786
C47	C	0.129971	0.125556	-0.000269
C48	C	0.629971	0.625556	0.499731
C49	C	0.057149	0.124680	-0.000272
C50	C	0.557149	0.624680	0.499728
C51	C	0.074520	0.020870	-0.000260
C52	C	0.574520	0.520870	0.499740
C53	C	0.147340	0.021748	-0.000250
C54	C	0.647340	0.521748	0.499750
C55	C	0.175061	0.074092	-0.000257
C56	C	0.675061	0.574092	0.499743
C57	C	0.830062	-0.028250	-0.000204
C58	C	1.330062	0.471750	0.499796
C59	C	0.829123	-0.091469	-0.000198
C60	C	1.329123	0.408531	0.499802
C61	C	0.887029	-0.490449	-0.000252
C62	C	1.387029	0.009551	0.499748
C63	C	0.886157	-0.549851	-0.000258
C64	C	1.386157	-0.049851	0.499742
O65	O	0.939837	-0.586482	-0.000298
O66	O	1.439837	-0.086482	0.499702
N67	N	0.822068	-0.572613	-0.000242
N68	N	1.322068	-0.072613	0.499758
C69	C	0.758848	-0.535970	-0.000228
C70	C	1.258848	-0.035970	0.499772
O71	O	0.704255	-0.560786	-0.000215
O72	O	1.204255	-0.060786	0.499785
C73	C	0.759721	-0.476569	-0.000228
C74	C	1.259721	0.023431	0.499772
C75	C	0.823814	-0.453810	-0.000236
C76	C	1.323814	0.046190	0.499764
C77	C	0.951117	-0.467690	-0.000262
C78	C	1.451117	0.032310	0.499738
C79	C	0.951989	-0.408292	-0.000255
C80	C	1.451989	0.091708	0.499745
C81	C	0.888773	-0.371653	-0.000239
C82	C	1.388773	0.128347	0.499761
C83	C	0.824685	-0.394412	-0.000230
C84	C	1.324685	0.105588	0.499770
C85	C	0.696501	-0.439927	-0.000219
C86	C	1.196501	0.060073	0.499781
C87	C	0.697379	-0.380523	-0.000219
C88	C	1.197379	0.119477	0.499781
C89	C	0.761472	-0.357764	-0.000228
C90	C	1.261472	0.142236	0.499772
C91	C	0.762342	-0.298376	-0.000207
C92	C	1.262342	0.201624	0.499793
N93	N	0.826430	-0.275614	-0.000223
N94	N	1.326430	0.224386	0.499777
C95	C	0.889646	-0.312252	-0.000239
C96	C	1.389646	0.187748	0.499761
C97	C	0.757019	-0.660717	-0.000229
C98	C	1.257019	-0.160717	0.499771
C99	C	0.756146	-0.720116	-0.000224
C100	C	1.256146	-0.220116	0.499776
C101	C	0.883455	-0.733993	-0.000256
C102	C	1.383455	-0.233993	0.499744
C103	C	0.884328	-0.674592	-0.000255
C104	C	1.384328	-0.174592	0.499745
C105	C	0.821108	-0.637954	-0.000245
C106	C	1.321108	-0.137954	0.499755
C107	C	0.891472	-0.187512	-0.000224
C108	C	1.391472	0.312488	0.499776
C109	C	0.892339	-0.128108	-0.000214
C110	C	1.392339	0.371892	0.499786
C111	C	0.765029	-0.114236	-0.000187
C112	C	1.265029	0.385764	0.499813
C113	C	0.764163	-0.173634	-0.000193
C114	C	1.264163	0.326366	0.499807
C115	C	0.827390	-0.210272	-0.000214
C116	C	1.327390	0.289728	0.499786
O117	O	0.708690	-0.261710	-0.000170
O118	O	1.208690	0.238290	0.499830
O119	O	0.944230	-0.287428	-0.000261
O120	O	1.444230	0.212572	0.499739
C121	C	0.951923	0.071410	-0.000251
C122	C	1.451923	0.571410	0.499749
C123	C	1.029425	0.072340	-0.000275
C124	C	1.529425	0.572340	0.499725
C125	C	0.818423	0.180021	-0.000234
C126	C	1.318423	0.680021	0.499766
C127	C	0.819362	0.243240	-0.000244
C128	C	1.319362	0.743240	0.499756
N129	N	0.824219	0.075878	0.189482
N130	N	1.324219	0.575878	0.689482
N131	N	0.824271	0.075888	-0.189918
N132	N	1.324271	0.575888	0.310082
C133	C	0.871970	0.037062	0.227785
C134	C	1.371970	0.537062	0.727785
C135	C	0.871974	0.037059	0.304430
C136	C	1.371974	0.537059	0.804430
C137	C	0.824235	0.075883	0.342769
C138	C	1.324235	0.575883	0.842769
C139	C	0.776475	0.114702	0.304457
C140	C	1.276475	0.614702	0.804457
C141	C	0.776468	0.114700	0.227813
C142	C	1.276468	0.614700	0.727813
N143	N	0.814998	0.126298	0.463096
N144	N	1.314998	0.626298	0.963096
N145	N	0.815010	0.126298	0.535904
N146	N	1.315010	0.626298	1.035904
C147	C	0.824254	0.075891	0.573691
C148	C	1.324254	0.575891	1.073691
N149	N	0.833500	0.025481	0.535921
N150	N	1.333500	0.525481	1.035921
N151	N	0.833492	0.025482	0.463106
N152	N	1.333492	0.525482	0.963106
C153	C	0.824238	0.075889	0.425876
C154	C	1.324238	0.575889	0.925876
C155	C	0.872012	0.037068	0.695102
C156	C	1.372012	0.537068	1.195102
C157	C	0.872012	0.037065	0.771748
C158	C	1.372012	0.537065	1.271748
C159	C	0.776516	0.114713	0.771773
C160	C	1.276516	0.614713	1.271773
C161	C	0.776513	0.114711	0.695128
C162	C	1.276513	0.614711	1.195128
C163	C	0.824265	0.075890	0.656797
C164	C	1.324265	0.575890	1.156797
H165	H	0.628050	-0.014822	-0.000145
H166	H	1.128050	0.485178	0.499855
H167	H	0.934929	-0.763836	-0.000272
H168	H	1.434929	-0.263836	0.499728
O169	O	0.730045	0.152371	0.808972
O170	O	1.230045	0.652371	1.308972
C171	C	0.608415	0.186010	0.832439
C172	C	1.108415	0.686010	1.332439
C173	C	0.660970	0.143323	0.790275
C174	C	1.160970	0.643323	1.290275
H175	H	0.552557	0.178718	0.817326
H176	H	1.052557	0.678718	1.317326
H177	H	0.616558	0.179346	0.893807
H178	H	1.116558	0.679346	1.393807
H179	H	0.617228	0.231602	0.817360
H180	H	1.117228	0.731602	1.317360
H181	H	0.652189	0.097714	0.805293
H182	H	1.152189	0.597714	1.305293
H183	H	0.652814	0.150038	0.728916
H184	H	1.152814	0.650038	1.228916
H185	H	0.737604	0.146312	0.335676
H186	H	1.237604	0.646312	0.835676
O187	O	0.918372	-0.000722	0.808877
O188	O	1.418372	0.499278	1.308877
C189	C	0.959967	-0.099830	0.832364
C190	C	1.459967	0.400170	1.332364
C191	C	0.907435	-0.057100	0.790258
C192	C	1.407435	0.442900	1.290258
H193	H	0.951133	-0.145422	0.817338
H194	H	1.451133	0.354578	1.317338
H195	H	1.015847	-0.092562	0.817249
H196	H	1.515847	0.407438	1.317249
H197	H	0.951781	-0.093135	0.893725
H198	H	1.451781	0.406865	1.393725
H199	H	0.915557	-0.063770	0.728888
H200	H	1.415557	0.436230	1.228888
H201	H	0.851574	-0.064379	0.805434
H202	H	1.351574	0.435621	1.305434
O203	O	0.703605	-0.078664	-0.000046
O204	O	1.203605	0.421336	0.499954
C205	C	0.595026	-0.048647	0.063019
C206	C	1.095026	0.451353	0.563019
C207	C	0.664570	-0.088957	0.062968
C208	C	1.164570	0.411043	0.562968
H209	H	0.563440	-0.056963	0.113952
H210	H	1.063440	0.443037	0.613952
H211	H	0.606622	-0.002272	0.063064
H212	H	1.106622	0.497728	0.563064
H213	H	0.563509	-0.056892	0.012040
H214	H	1.063509	0.443108	0.512040
H215	H	0.696122	-0.080763	0.113938
H216	H	1.196122	0.419237	0.613938
H217	H	0.652925	-0.135318	0.062885
H218	H	1.152925	0.364682	0.562885
H219	H	1.002598	-0.497516	-0.000278
H220	H	1.502598	0.002484	0.499722
H221	H	0.910860	0.005449	0.335623
H222	H	1.410860	0.505449	0.835623
O223	O	0.693824	-0.742126	-0.000240
O224	O	1.193824	-0.242126	0.499760
C225	C	0.567644	-0.722076	-0.000166
C226	C	1.067644	-0.222076	0.499834
C227	C	0.638175	-0.697077	-0.000159
C228	C	1.138175	-0.197077	0.499841
H229	H	0.522634	-0.685667	-0.000084
H230	H	1.022634	-0.185667	0.499916
H231	H	0.564008	-0.749507	-0.051137
H232	H	1.064008	-0.249507	0.448863
H233	H	0.564080	-0.749568	0.050777
H234	H	1.064080	-0.249568	0.550777
H235	H	0.641788	-0.669560	-0.051068
H236	H	1.141788	-0.169560	0.448932
H237	H	0.641781	-0.669679	0.050846
H238	H	1.141781	-0.169679	0.550846
O239	O	0.946543	-0.652419	-0.000368
O240	O	1.446543	-0.152419	0.499632
C241	C	1.021449	-0.593439	-0.063494
C242	C	1.521449	-0.093439	0.436506
C243	C	0.950957	-0.618497	-0.063447
C244	C	1.450957	-0.118497	0.436553
H245	H	1.025047	-0.566017	-0.114496
H246	H	1.525047	-0.066017	0.385504
H247	H	1.025048	-0.565944	-0.012574
H248	H	1.525048	-0.065944	0.487426
H249	H	1.066465	-0.629844	-0.063469
H250	H	1.566465	-0.129844	0.436531
H251	H	0.905900	-0.582129	-0.063498
H252	H	1.405900	-0.082129	0.436502
H253	H	0.947419	-0.646007	-0.114362
H254	H	1.447419	-0.146007	0.385638
H255	H	0.737633	0.146322	0.663940
H256	H	1.237633	0.646322	1.163940
H257	H	0.644310	-0.458446	-0.000216
H258	H	1.144310	0.041554	0.499784
O259	O	0.457369	0.180026	-0.000348
O260	O	0.957369	0.680026	0.499652
C261	C	0.420305	0.268489	-0.063443
C262	C	0.920305	0.768489	0.436557
C263	C	0.469913	0.211873	-0.063366
C264	C	0.969913	0.711873	0.436634
H265	H	0.430439	0.294260	-0.114379
H266	H	0.930439	0.794260	0.385621
H267	H	0.363484	0.258903	-0.063503
H268	H	0.863484	0.758903	0.436497
H269	H	0.430300	0.294238	-0.012467
H270	H	0.930300	0.794238	0.487533
H271	H	0.459981	0.186097	-0.114333
H272	H	0.959981	0.686097	0.385667
H273	H	0.526717	0.221500	-0.063268
H274	H	1.026717	0.721500	0.436732
H275	H	0.152543	0.168178	-0.000265
H276	H	0.652543	0.668178	0.499735
O277	O	0.013378	0.174689	-0.000420
O278	O	0.513378	0.674689	0.499580
C279	C	-0.023681	0.263158	-0.063505
C280	C	0.476319	0.763158	0.436495
C281	C	0.025919	0.206537	-0.063437
C282	C	0.525919	0.706537	0.436563
H283	H	-0.013549	0.288929	-0.114441
H284	H	0.486451	0.788929	0.385559
H285	H	-0.080504	0.253578	-0.063557
H286	H	0.419496	0.753578	0.436443
H287	H	-0.013675	0.288903	-0.012529
H288	H	0.486325	0.788903	0.487471
H289	H	0.015976	0.180765	-0.114404
H290	H	0.515976	0.680765	0.385596
H291	H	0.082725	0.216158	-0.063346
H292	H	0.582725	0.716158	0.436654
H293	H	0.184052	-0.020158	-0.000238
H294	H	0.684052	0.479842	0.499762
O295	O	0.047708	-0.030023	-0.000231
O296	O	0.547708	0.469977	0.499769
C297	C	0.072622	-0.132893	-0.000259
C298	C	0.572622	0.367107	0.499741
C299	C	0.103083	-0.075296	-0.000280
C300	C	0.603083	0.424704	0.499720
H301	H	0.117377	-0.169511	-0.000315
H302	H	0.617377	0.330489	0.499685
H303	H	0.038963	-0.135939	0.050704
H304	H	0.538963	0.364061	0.550704
H305	H	0.038967	-0.135865	-0.051210
H306	H	0.538967	0.364135	0.448790
H307	H	0.136769	-0.072284	0.050636
H308	H	0.636769	0.427716	0.550636
H309	H	0.136702	-0.072274	-0.051277
H310	H	0.636702	0.427726	0.448723
O311	O	0.635901	-0.345014	-0.000177
O312	O	1.135901	0.154986	0.499823
C313	C	0.509536	-0.337525	-0.000203
C314	C	1.009536	0.162475	0.499797
C315	C	0.579106	-0.377801	-0.000235
C316	C	1.079106	0.122199	0.499765
H317	H	0.463600	-0.364016	-0.000266
H318	H	0.963600	0.135984	0.499734
H319	H	0.506699	-0.309387	0.050769
H320	H	1.006699	0.190613	0.550769
H321	H	0.506810	-0.309347	-0.051146
H322	H	1.006810	0.190653	0.448854
H323	H	0.581879	-0.406014	0.050673
H324	H	1.081879	0.093986	0.550673
H325	H	0.581915	-0.405900	-0.051241
H326	H	1.081915	0.094100	0.448759
O327	O	0.491552	-0.024617	-0.000311
O328	O	0.991552	0.475383	0.499689
C329	C	0.419420	-0.085834	-0.063382
C330	C	0.919420	0.414166	0.436618
C331	C	0.449925	-0.028255	-0.063333
C332	C	0.949925	0.471745	0.436667
H333	H	0.385746	-0.088789	-0.114322
H334	H	0.885746	0.411211	0.385678
H335	H	0.464130	-0.122490	-0.063414
H336	H	0.964130	0.377510	0.436586
H337	H	0.385760	-0.088832	-0.012410
H338	H	0.885760	0.411168	0.487590
H339	H	0.483576	-0.025201	-0.114296
H340	H	0.983576	0.474799	0.385704
H341	H	0.405181	0.008373	-0.063263
H342	H	0.905181	0.508373	0.436737
O343	O	0.952936	-0.223038	-0.000339
O344	O	1.452936	0.276962	0.499661
C345	C	1.061478	-0.253074	-0.063461
C346	C	1.561478	0.246926	0.436539
C347	C	0.991906	-0.212800	-0.063419
C348	C	1.491906	0.287200	0.436581
H349	H	1.092999	-0.244820	-0.114463
H350	H	1.592999	0.255180	0.385537
H351	H	1.093074	-0.244815	-0.012542
H352	H	1.593074	0.255185	0.487458
H353	H	1.049840	-0.299437	-0.063427
H354	H	1.549840	0.200563	0.436573
H355	H	1.003480	-0.166423	-0.063479
H356	H	1.503480	0.333577	0.436521
H357	H	0.960331	-0.221109	-0.114333
H358	H	1.460331	0.278891	0.385667
H359	H	0.944533	-0.109581	-0.000220
H360	H	1.444533	0.390419	0.499780
O361	O	0.701888	-0.195720	-0.000310
O362	O	1.201888	0.304280	0.499690
C363	C	0.592807	-0.201987	-0.063356
C364	C	1.092807	0.298013	0.436644
C365	C	0.663314	-0.176953	-0.063312
C366	C	1.163314	0.323047	0.436688
H367	H	0.561593	-0.186814	-0.114279
H368	H	1.061593	0.313186	0.385721
H369	H	0.603000	-0.250739	-0.063417
H370	H	1.103000	0.249261	0.436583
H371	H	0.561607	-0.186911	-0.012367
H372	H	1.061607	0.313089	0.487633
H373	H	0.694550	-0.191986	-0.114292
H374	H	1.194550	0.308014	0.385708
H375	H	0.653071	-0.128204	-0.063213
H376	H	1.153071	0.371796	0.436787
H377	H	1.004180	-0.389768	-0.000265
H378	H	1.504180	0.110232	0.499735
O379	O	0.918315	-0.000635	0.657757
O380	O	1.418315	0.499365	1.157757
C381	C	0.933789	-0.078412	0.571192
C382	C	1.433789	0.421588	1.071192
C383	C	0.881261	-0.035758	0.613439
C384	C	1.381261	0.464242	1.113439
H385	H	0.903851	-0.106828	0.535363
H386	H	1.403851	0.393172	1.035363
H387	H	0.968449	-0.053875	0.535261
H388	H	1.468449	0.446125	1.035261
H389	H	0.967960	-0.106138	0.611723
H390	H	1.467960	0.393862	1.111723
H391	H	0.847044	-0.008022	0.572961
H392	H	1.347044	0.491978	1.072961
H393	H	0.846649	-0.060331	0.649381
H394	H	1.346649	0.439669	1.149381
O395	O	0.695621	-0.625105	-0.000339
O396	O	1.195621	-0.125105	0.499661
C397	C	0.622733	-0.549957	-0.063373
C398	C	1.122733	-0.049957	0.436627
C399	C	0.692283	-0.590259	-0.063348
C400	C	1.192283	-0.090259	0.436652
H401	H	0.620019	-0.521766	-0.114303
H402	H	1.120019	-0.021766	0.385697
H403	H	0.576756	-0.576406	-0.063408
H404	H	1.076756	-0.076406	0.436592
H405	H	0.619958	-0.521835	-0.012391
H406	H	1.119958	-0.021835	0.487609
H407	H	0.695127	-0.618390	-0.114322
H408	H	1.195127	-0.118390	0.385678
H409	H	0.738228	-0.563776	-0.063275
H410	H	1.238228	-0.063776	0.436725
O411	O	0.918376	-0.000708	0.190666
O412	O	1.418376	0.499292	0.690666
C413	C	1.013122	-0.077698	0.198733
C414	C	1.513122	0.422302	0.698733
C415	C	0.960597	-0.034964	0.240864
C416	C	1.460597	0.465036	0.740864
H417	H	1.047281	-0.105397	0.239300
H418	H	1.547281	0.394603	0.739300
H419	H	0.983212	-0.106131	0.162898
H420	H	1.483212	0.393869	0.662898
H421	H	1.047792	-0.053171	0.162802
H422	H	1.547792	0.446829	0.662802
H423	H	0.925913	-0.059445	0.276835
H424	H	1.425913	0.440555	0.776835
H425	H	0.990551	-0.006531	0.276653
H426	H	1.490551	0.493469	0.776653
O427	O	0.730152	0.152490	0.190636
O428	O	1.230152	0.652490	0.690636
C429	C	0.688519	0.251601	0.167214
C430	C	1.188519	0.751601	0.667214
C431	C	0.741019	0.208865	0.209351
C432	C	1.241019	0.708865	0.709351
H433	H	0.697277	0.297190	0.182341
H434	H	1.197277	0.797190	0.682341
H435	H	0.696714	0.244983	0.105841
H436	H	1.196714	0.744983	0.605841
H437	H	0.632659	0.244262	0.182303
H438	H	1.132659	0.744262	0.682303
H439	H	0.796900	0.216178	0.194323
H440	H	1.296900	0.716178	0.694323
H441	H	0.732762	0.215494	0.270713
H442	H	1.232762	0.715494	0.770713
H443	H	0.596537	0.173516	-0.000194
H444	H	1.096537	0.673516	0.499806
