data_functionalizedCrystal
_audit_creation_method	'MofGen! by Chris Wilmer'
_symmetry_space_group_name_H-M	'P1'
_symmetry_Int_Tables_number	1
_symmetry_cell_setting	triclinic
loop_
_symmetry_equiv_pos_as_xyz
  x,y,z
_cell_length_a	19.188930
_cell_length_b	11.026607
_cell_length_c	10.065908
_cell_angle_alpha	100.698292
_cell_angle_beta	98.754820
_cell_angle_gamma	84.134601
loop_
_atom_site_label
_atom_site_type_symbol
_atom_site_fract_x
_atom_site_fract_y
_atom_site_fract_z
O1	O	0.284145	-1.626421	-0.113552
O2	O	0.250875	-1.273290	-0.113547
O3	O	0.167155	-1.460042	-0.113523
O4	O	0.367865	-1.439669	-0.113576
O5	O	0.183202	-1.424428	0.113461
O6	O	0.266923	-1.237677	0.113437
O7	O	0.300192	-1.590807	0.113432
Zn8	Zn	0.286105	-1.408587	0.149473
Zn9	Zn	0.264962	-1.455510	-0.149588
O10	O	0.383912	-1.404055	0.113408
C11	C	0.252761	-1.210305	-0.000054
C12	C	0.234465	-1.075688	-0.000051
C13	C	0.149084	-1.441574	-0.000027
C14	C	0.071328	-1.439591	-0.000015
C15	C	0.298306	-1.653793	-0.000064
C16	C	0.316602	-1.788412	-0.000076
C17	C	0.040370	-1.549173	-0.000010
C18	C	-0.032693	-1.547315	-0.000032
C19	C	-0.074793	-1.435865	-0.000031
C20	C	-0.043828	-1.326271	-0.000044
C21	C	0.029233	-1.328134	-0.000036
N22	N	-0.188194	-1.338555	0.077217
N23	N	-0.257597	-1.336792	0.077212
C24	C	-0.294920	-1.430245	-0.000059
N25	N	-0.260216	-1.525543	-0.077308
N26	N	-0.190805	-1.527309	-0.077297
C27	C	-0.154015	-1.433832	-0.000041
C28	C	-0.405101	-1.537819	-0.000080
C29	C	-0.478166	-1.535958	-0.000110
C30	C	-0.489298	-1.314909	-0.000108
C31	C	-0.416236	-1.316775	-0.000092
C32	C	-0.374141	-1.428233	-0.000071
C33	C	0.401983	-1.422523	-0.000091
C34	C	0.479739	-1.424508	-0.000112
N35	N	0.300535	-1.376573	0.353575
C36	C	0.284984	-1.001616	-0.000065
C37	C	0.266075	-0.862482	-0.000062
C38	C	0.269980	-1.444359	0.421362
C39	C	0.281092	-1.419729	0.578527
N40	N	0.250532	-1.487524	0.646311
H41	H	-0.057904	-1.636552	-0.000033
C42	C	0.086668	-1.671774	-0.000011
H43	H	0.057761	-1.736773	-0.000026
H44	H	0.120992	-1.664684	0.079141
H45	H	0.109806	-1.689514	-0.079178
H46	H	0.208818	-0.822903	-0.000082
C47	C	-0.358795	-1.660417	-0.000072
H48	H	-0.387701	-1.725419	-0.000093
H49	H	-0.324476	-1.653321	0.079088
H50	H	-0.335651	-1.678157	-0.079231
C51	C	-0.512219	-1.656504	-0.000102
H52	H	-0.476682	-1.723143	-0.000075
H53	H	-0.546076	-1.672802	-0.079260
H54	H	-0.534901	-1.647939	0.079059
H55	H	-0.078110	-1.235528	-0.000047
C56	C	0.204073	-1.590563	0.567556
H57	H	0.186341	-1.629889	0.630468
H58	H	0.231538	-1.649736	0.511790
H59	H	0.165669	-1.555617	0.511838
C60	C	0.362326	-1.055081	-0.000089
H61	H	0.391570	-0.990565	-0.000089
H62	H	0.365967	-1.116243	-0.079244
H63	H	0.377162	-1.091398	0.079075
H64	H	0.373857	-0.827993	-0.000082
C65	C	-0.382176	-1.196237	-0.000088
H66	H	-0.332636	-1.213310	-0.000096
H67	H	-0.390847	-1.138095	0.079061
H68	H	-0.402027	-1.162949	-0.079257
H69	H	0.177212	-1.036103	-0.000071
H70	H	0.235590	-1.520623	0.363048
C71	C	0.327550	-1.316693	0.657290
H72	H	0.328928	-1.313661	0.752589
H73	H	0.308261	-1.239374	0.633962
H74	H	0.374129	-1.333495	0.633926
H75	H	0.054438	-1.238897	-0.000039
C76	C	-0.535600	-1.192317	-0.000112
H77	H	-0.583546	-1.206899	-0.000110
H78	H	-0.531500	-1.159631	-0.079264
H79	H	-0.520326	-1.134792	0.079055
C80	C	0.346991	-1.273542	0.432344
H81	H	0.348369	-1.270510	0.527643
H82	H	0.327702	-1.196223	0.409016
H83	H	0.393570	-1.290344	0.408979
