data_functionalizedCrystal
_audit_creation_method	'MofGen! by Chris Wilmer'
_symmetry_space_group_name_H-M	'P1'
_symmetry_Int_Tables_number	1
_symmetry_cell_setting	triclinic
loop_
_symmetry_equiv_pos_as_xyz
  x,y,z
_cell_length_a	27.732048
_cell_length_b	19.188930
_cell_length_c	18.266242
_cell_angle_alpha	90.011475
_cell_angle_beta	89.996455
_cell_angle_gamma	97.106281
loop_
_atom_site_label
_atom_site_type_symbol
_atom_site_fract_x
_atom_site_fract_y
_atom_site_fract_z
O1	O	0.641184	-0.083079	-0.060795
O2	O	0.500429	-0.095711	-0.060818
O3	O	0.574869	0.012287	-0.060791
O4	O	0.566745	-0.191077	-0.060821
O5	O	0.574856	0.012292	0.060971
O6	O	0.500417	-0.095706	0.060944
O7	O	0.641172	-0.083074	0.060967
Zn8	Zn	0.570792	-0.089389	0.080288
Zn9	Zn	0.570809	-0.089396	-0.080139
O10	O	0.566732	-0.191071	0.060941
C11	C	0.482415	-0.095443	0.000060
C12	C	0.428758	-0.094645	0.000052
C13	C	0.574599	0.038299	0.000092
C14	C	0.573810	0.115798	0.000098
C15	C	0.567002	-0.217083	0.000056
C16	C	0.567791	-0.294583	0.000045
C17	C	0.090123	-0.153438	0.000075
C18	C	-0.111546	-0.150475	0.000082
O19	O	-0.142637	-0.204237	0.000106
N20	N	-0.130866	-0.086437	0.000090
C21	C	-0.099764	-0.023135	0.000101
O22	O	-0.120824	0.031401	0.000116
C23	C	0.101903	-0.026098	0.000100
C24	C	0.121220	-0.090140	0.000084
C25	C	0.109440	-0.217475	0.000060
C26	C	0.159854	-0.218215	0.000055
C27	C	0.190951	-0.154917	0.000064
C28	C	0.171634	-0.090880	0.000078
C29	C	0.133003	0.037203	0.000116
C30	C	0.183423	0.036457	0.000117
C31	C	0.202740	-0.027586	0.000102
C32	C	0.253145	-0.028323	0.000082
N33	N	0.272465	-0.092361	0.000073
C34	C	0.241368	-0.155658	0.000064
C35	C	-0.205643	-0.021584	0.000101
C36	C	-0.256060	-0.020843	0.000100
C37	C	-0.267838	-0.148183	0.000082
C38	C	-0.217420	-0.148923	0.000078
C39	C	-0.186324	-0.085622	0.000093
C40	C	0.347242	-0.157208	0.000052
C41	C	0.397661	-0.157942	0.000043
C42	C	0.409435	-0.030602	0.000065
C43	C	0.359020	-0.029867	0.000070
C44	C	0.327924	-0.093176	0.000066
O45	O	0.284265	0.025410	0.000066
O46	O	0.262437	-0.210187	0.000066
C47	C	0.039708	-0.152698	0.000081
C48	C	0.020391	-0.088661	0.000096
C49	C	0.051489	-0.025363	0.000105
C50	C	-0.030025	-0.087920	0.000095
C51	C	-0.061122	-0.151217	0.000086
C52	C	-0.041803	-0.215255	0.000078
C53	C	0.008611	-0.215995	0.000072
C54	C	0.032169	0.038675	0.000113
C55	C	-0.018246	0.039409	0.000118
C56	C	-0.049343	-0.023888	0.000109
C57	C	0.659186	-0.083341	0.000087
C58	C	0.712843	-0.084140	0.000091
N59	N	0.570784	-0.089383	0.189775
C60	C	0.617488	0.161001	0.000109
C61	C	0.616746	0.233820	0.000097
C62	C	0.572323	0.261433	0.000089
C63	C	0.528639	0.216220	0.000074
C64	C	0.529382	0.143403	0.000079
N65	N	0.538363	0.369223	0.041521
N66	N	0.537660	0.438397	0.041518
C67	C	0.570081	0.480827	0.000074
N68	N	0.603240	0.451471	-0.041359
N69	N	0.603944	0.382291	-0.041353
C70	C	0.571512	0.340390	0.000084
C71	C	0.612959	0.604989	0.000071
C72	C	0.612215	0.677809	0.000054
C73	C	0.524106	0.660208	0.000039
C74	C	0.524851	0.587390	0.000048
C75	C	0.569279	0.559785	0.000067
N76	N	0.570820	-0.089396	-0.189626
C77	C	0.603757	-0.041585	0.228096
C78	C	0.603760	-0.041582	0.304741
C79	C	0.570795	-0.089389	0.343062
C80	C	0.537817	-0.137191	0.304732
C81	C	0.537811	-0.137188	0.228088
N82	N	0.564512	-0.151236	0.463385
N83	N	0.564520	-0.151237	0.536193
C84	C	0.570809	-0.089399	0.573984
N85	N	0.577099	-0.027558	0.536217
N86	N	0.577093	-0.027559	0.463403
C87	C	0.570797	-0.089397	0.426169
C88	C	0.603786	-0.041593	0.695412
C89	C	0.603786	-0.041589	0.772058
C90	C	0.537845	-0.137204	0.772048
C91	C	0.537843	-0.137202	0.695403
C92	C	0.570816	-0.089397	0.657090
H93	H	0.413385	-0.210095	0.000030
H94	H	0.510960	-0.176112	0.196887
H95	H	0.510996	-0.176126	0.664201
O96	O	0.635770	0.004819	0.809399
C97	C	0.628712	-0.005441	0.885263
H98	H	0.590227	-0.031914	0.895733
H99	H	0.634208	0.047489	0.914402
H100	H	0.655993	-0.040193	0.907000
H101	H	-0.180328	0.029967	0.000113
H102	H	0.647785	0.714613	0.000059
O103	O	0.660656	0.134222	-0.000009
C104	C	0.687287	0.157373	-0.063055
H105	H	0.661311	0.172230	-0.107139
H106	H	0.707763	0.113475	-0.084216
H107	H	0.714319	0.205132	-0.048793
O108	O	0.079216	-0.278948	0.000176
C109	C	0.049685	-0.282337	0.063223
H110	H	0.068211	-0.246429	0.107313
H111	H	0.043908	-0.338642	0.084373
H112	H	0.013055	-0.264680	0.048966
H113	H	-0.067131	-0.266794	0.000067
O114	O	0.656124	0.578200	-0.000052
C115	C	0.682751	0.601342	-0.063105
H116	H	0.656773	0.616202	-0.107184
H117	H	0.703221	0.557438	-0.084268
H118	H	0.709788	0.649098	-0.048851
H119	H	0.117285	0.089353	0.000129
O120	O	0.482377	0.543575	0.000079
C121	C	0.443008	0.583559	0.000051
H122	H	0.455390	0.638051	0.023101
H123	H	0.412409	0.556374	0.035399
H124	H	0.429389	0.588583	-0.058367
H125	H	-0.271783	0.031307	0.000101
O126	O	0.635801	0.004923	0.190993
C127	C	0.664912	0.047101	0.241258
H128	H	0.645101	0.047688	0.295897
H129	H	0.672405	0.102937	0.219128
H130	H	0.700770	0.024785	0.249392
H131	H	0.487936	0.682690	0.000029
O132	O	-0.036948	0.101669	0.000034
C133	C	-0.021054	0.140216	-0.063029
H134	H	0.013874	0.121568	-0.084066
H135	H	-0.013934	0.198435	-0.048831
H136	H	-0.050248	0.131815	-0.107184
O137	O	0.635813	0.004756	0.342053
C138	C	0.665561	-0.032348	0.386353
H139	H	0.646190	-0.087174	0.397827
H140	H	0.673276	-0.003131	0.440255
H141	H	0.701270	-0.036740	0.356803
O142	O	0.317109	-0.218768	0.000010
C143	C	0.344979	-0.275440	0.000013
H144	H	0.382644	-0.257292	-0.023035
H145	H	0.326298	-0.319758	-0.035349
H146	H	0.348530	-0.295098	0.058423
O147	O	0.505775	-0.183535	0.342035
C148	C	0.476034	-0.146439	0.386375
H149	H	0.495405	-0.091612	0.397865
H150	H	0.468330	-0.175660	0.440265
H151	H	0.440319	-0.142047	0.356850
H152	H	0.630634	-0.002666	0.664216
H153	H	0.511003	-0.176126	0.803249
O154	O	0.439578	0.030946	0.000040
C155	C	0.411722	0.087633	0.000073
H156	H	0.374056	0.069504	-0.022982
H157	H	0.430414	0.131947	-0.035269
H158	H	0.408172	0.107289	0.058493
O159	O	0.213561	0.098014	0.000096
C160	C	0.185696	0.154691	0.000127
H161	H	0.148030	0.136549	-0.022923
H162	H	0.204379	0.199007	-0.035218
H163	H	0.182145	0.174348	0.058547
O164	O	0.027291	-0.278268	0.000094
C165	C	-0.010975	-0.333968	0.000069
H166	H	-0.045184	-0.314764	0.023124
H167	H	-0.000534	-0.378714	0.035414
H168	H	-0.018149	-0.353469	-0.058349
O169	O	0.178534	-0.280487	0.000081
C170	C	0.140268	-0.336188	0.000058
H171	H	0.106058	-0.316982	0.023110
H172	H	0.150707	-0.380931	0.035407
H173	H	0.133095	-0.355693	-0.058358
O174	O	0.340197	0.032299	0.000177
C175	C	0.311401	0.036549	0.063256
H176	H	0.298732	-0.018618	0.084272
H177	H	0.278442	0.064021	0.049087
H178	H	0.333743	0.067682	0.107415
H179	H	-0.293166	-0.199722	0.000075
O180	O	-0.198739	-0.211195	0.000100
C181	C	-0.237003	-0.266899	0.000070
H182	H	-0.271214	-0.247698	0.023122
H183	H	-0.226562	-0.311644	0.035414
H184	H	-0.244173	-0.286398	-0.058349
H185	H	0.652316	0.270631	0.000103
O186	O	0.485456	0.242957	0.000164
C187	C	0.458835	0.219837	0.063229
H188	H	0.471897	0.169473	0.084258
H189	H	0.418562	0.209293	0.049036
H190	H	0.464517	0.262048	0.107387
O191	O	0.486995	0.099390	0.000040
C192	C	0.497178	0.029200	0.000069
H193	H	0.535142	0.026812	-0.022974
H194	H	0.469331	-0.004105	-0.035285
H195	H	0.495294	0.008135	0.058486
H196	H	0.057484	0.090220	0.000122
