data_functionalizedCrystal
_audit_creation_method	'MofGen! by Chris Wilmer'
_symmetry_space_group_name_H-M	'P1'
_symmetry_Int_Tables_number	1
_symmetry_cell_setting	triclinic
loop_
_symmetry_equiv_pos_as_xyz
  x,y,z
_cell_length_a	17.699083
_cell_length_b	15.995350
_cell_length_c	16.176319
_cell_angle_alpha	89.995430
_cell_angle_beta	89.998611
_cell_angle_gamma	83.387695
loop_
_atom_site_label
_atom_site_type_symbol
_atom_site_fract_x
_atom_site_fract_y
_atom_site_fract_z
O1	O	1.004255	0.105885	-0.068627
O2	O	1.504255	0.605885	0.431373
O3	O	0.783899	0.119661	-0.068653
O4	O	1.283899	0.619661	0.431347
O5	O	0.900101	-0.009127	-0.068638
O6	O	1.400101	0.490873	0.431362
O7	O	0.888054	0.234673	-0.068641
O8	O	1.388054	0.734673	0.431359
O9	O	0.900085	-0.009135	0.068855
O10	O	1.400085	0.490865	0.568855
O11	O	0.783883	0.119653	0.068840
O12	O	1.283883	0.619653	0.568840
O13	O	1.004239	0.105877	0.068867
O14	O	1.504239	0.605877	0.568867
Cu15	Cu	0.894060	0.112764	0.081408
Cu16	Cu	1.394060	0.612764	0.581408
Cu17	Cu	0.894079	0.112774	-0.081194
Cu18	Cu	1.394079	0.612774	0.418806
O19	O	0.888038	0.234665	0.068852
O20	O	1.388038	0.734665	0.568852
C21	C	0.755694	0.119163	0.000090
C22	C	1.255694	0.619163	0.500090
C23	C	0.671673	0.117683	0.000080
C24	C	1.171673	0.617683	0.500080
C25	C	0.899595	-0.040324	0.000107
C26	C	1.399595	0.459676	0.500107
C27	C	0.898101	-0.133272	0.000102
C28	C	1.398101	0.366728	0.500102
C29	C	0.623178	0.193278	0.000079
C30	C	1.123178	0.693278	0.500079
C31	C	0.544232	0.191882	0.000090
C32	C	1.044232	0.691882	0.500090
C33	C	0.513783	0.114889	0.000095
C34	C	1.013783	0.614889	0.500095
C35	C	0.562285	0.039287	0.000098
C36	C	1.062285	0.539287	0.500098
C37	C	0.641229	0.040685	0.000094
C38	C	1.141229	0.540685	0.500094
C39	C	0.243912	0.033651	0.000119
C40	C	0.743912	0.533651	0.500119
C41	C	0.164962	0.032259	0.000121
C42	C	0.664962	0.532259	0.500121
C43	C	0.146916	0.184848	0.000115
C44	C	0.646916	0.684848	0.500115
C45	C	0.225860	0.186245	0.000110
C46	C	0.725860	0.686245	0.500110
C47	C	0.274354	0.110644	0.000118
C48	C	0.774354	0.610644	0.500118
C49	C	0.359956	0.112159	0.000108
C50	C	0.859956	0.612159	0.500108
C51	C	0.428183	0.113373	0.000099
C52	C	0.928183	0.613373	0.500099
C53	C	0.892739	-0.471008	0.000104
C54	C	1.392739	0.028992	0.500104
C55	C	0.809983	-0.423406	-0.000214
C56	C	1.309983	0.076594	0.499786
C57	C	0.811476	-0.326719	0.000096
C58	C	1.311476	0.173281	0.500096
C59	C	0.895399	-0.303453	0.000102
C60	C	1.395399	0.196547	0.500102
C61	C	0.936208	-0.344618	0.078621
C62	C	1.436208	0.155382	0.578621
C63	C	0.934129	-0.441250	0.078687
C64	C	1.434129	0.058750	0.578687
C65	C	0.935857	-0.441602	-0.077669
C66	C	1.435857	0.058398	0.422331
C67	C	0.935838	-0.344657	-0.078706
C68	C	1.435838	0.155343	0.421294
C69	C	0.896907	-0.208759	0.000104
C70	C	1.396907	0.291241	0.500104
C71	C	0.891234	-0.565703	0.000108
C72	C	1.391234	-0.065703	0.500108
C73	C	1.032445	0.106375	0.000122
C74	C	1.532445	0.606375	0.500122
C75	C	1.116465	0.107856	0.000126
C76	C	1.616465	0.607856	0.500126
C77	C	0.888544	0.265863	0.000105
C78	C	1.388544	0.765863	0.500105
C79	C	0.890037	0.358810	0.000104
C80	C	1.390037	0.858810	0.500104
N81	N	0.894052	0.112757	0.195773
N82	N	1.394052	0.612757	0.695773
N83	N	0.894092	0.112775	-0.195559
N84	N	1.394092	0.612775	0.304441
C85	C	0.945521	0.055753	0.239043
C86	C	1.445521	0.555753	0.739043
C87	C	0.945525	0.055752	0.325591
C88	C	1.445525	0.555752	0.825591
C89	C	0.894063	0.112760	0.368865
C90	C	1.394063	0.612760	0.868865
C91	C	0.842588	0.169767	0.325589
C92	C	1.342588	0.669767	0.825589
C93	C	0.842581	0.169763	0.239043
C94	C	1.342581	0.669763	0.739043
C95	C	0.842614	0.169782	0.674617
C96	C	1.342614	0.669782	1.174617
C97	C	0.842626	0.169783	0.761168
C98	C	1.342626	0.669783	1.261168
C99	C	0.945558	0.055772	0.761164
C100	C	1.445558	0.555772	1.261164
C101	C	0.945551	0.055768	0.674619
C102	C	1.445551	0.555768	1.174619
C103	C	0.894074	0.112771	0.631350
C104	C	1.394074	0.612771	1.131350
C105	C	0.894069	0.112770	0.537505
C106	C	1.394069	0.612770	1.037505
C107	C	0.894070	0.112765	0.462708
C108	C	1.394070	0.612765	0.962708
H109	H	0.647962	0.255975	0.000074
H110	H	1.147962	0.755975	0.500074
N111	N	0.896384	-0.308414	-0.155660
N112	N	1.396384	0.191586	0.344340
H113	H	0.876614	-0.355029	-0.188461
H114	H	1.376614	0.144971	0.311539
H115	H	0.852526	-0.265471	-0.139489
H116	H	1.352526	0.234529	0.360511
N117	N	0.900031	-0.468733	-0.156501
N118	N	1.400031	0.031267	0.343499
H119	H	0.845212	-0.443051	-0.159100
H120	H	1.345212	0.056949	0.340900
H121	H	0.928628	-0.449215	-0.205569
H122	H	1.428628	0.050785	0.294431
H123	H	0.283388	-0.027909	0.000126
H124	H	0.783388	0.472091	0.500126
N125	N	0.787066	0.231250	0.192376
N126	N	1.287066	0.731250	0.692376
H127	H	0.815979	0.268283	0.156457
H128	H	1.315979	0.768283	0.656457
H129	H	0.753568	0.199236	0.156527
H130	H	1.253568	0.699236	0.656527
H131	H	0.504750	0.253440	0.000088
H132	H	1.004750	0.753440	0.500088
N133	N	1.001015	-0.005751	0.192375
N134	N	1.501015	0.494249	0.692375
H135	H	0.993201	0.002891	0.130982
H136	H	1.493201	0.502891	0.630982
H137	H	1.054710	0.003834	0.207489
H138	H	1.554710	0.503834	0.707489
N139	N	0.258693	0.269292	0.000097
N140	N	0.758693	0.769292	0.500097
H141	H	0.241011	0.302402	0.051065
H142	H	0.741011	0.802402	0.551065
H143	H	0.316057	0.258640	0.000060
H144	H	0.816057	0.758640	0.500060
H145	H	0.779397	-0.298228	-0.056190
H146	H	1.279397	0.201772	0.443810
N147	N	0.132118	-0.050787	0.000128
N148	N	0.632118	0.449213	0.500128
H149	H	0.174818	-0.098469	0.000135
H150	H	0.674818	0.401531	0.500135
H151	H	0.099755	-0.054685	0.051099
H152	H	0.599755	0.445315	0.551099
N153	N	0.529448	-0.043757	0.000118
N154	N	1.029448	0.456243	0.500118
H155	H	0.472078	-0.033173	0.000120
H156	H	0.972078	0.466827	0.500120
H157	H	0.547187	-0.076833	-0.050850
H158	H	1.047187	0.423167	0.449150
N159	N	1.014605	-0.484139	0.083418
N160	N	1.514605	0.015861	0.583418
H161	H	1.051272	-0.440247	0.085456
H162	H	1.551272	0.059753	0.585456
H163	H	1.020656	-0.520039	0.134881
H164	H	1.520656	-0.020039	0.634881
H165	H	0.987435	0.009335	0.360821
H166	H	1.487435	0.509335	0.860821
N167	N	1.017887	-0.326108	0.082487
N168	N	1.517887	0.173892	0.582487
H169	H	1.029248	-0.290770	0.033261
H170	H	1.529248	0.209230	0.533261
H171	H	1.026306	-0.294480	0.135103
H172	H	1.526306	0.205520	0.635103
N173	N	0.766171	-0.447863	-0.074796
N174	N	1.266171	0.052137	0.425204
H175	H	0.719636	-0.473745	-0.056061
H176	H	1.219636	0.026255	0.443939
H177	H	0.750037	-0.396162	-0.109162
H178	H	1.250037	0.103838	0.390838
N179	N	0.766348	-0.449267	0.073943
N180	N	1.266348	0.050733	0.573943
H181	H	0.799954	-0.491685	0.107744
H182	H	1.299954	0.008315	0.607744
H183	H	0.749841	-0.398126	0.108939
H184	H	1.249841	0.101874	0.608939
H185	H	0.779168	-0.298792	0.056470
H186	H	1.279168	0.201208	0.556470
N187	N	1.001081	-0.005715	0.807833
N188	N	1.501081	0.494285	1.307833
H189	H	0.993278	0.002933	0.869226
H190	H	1.493278	0.502933	1.369226
H191	H	0.992344	-0.065104	0.792711
H192	H	1.492344	0.434896	1.292711
H193	H	0.107421	0.246406	0.000113
H194	H	0.607421	0.746406	0.500113
N195	N	0.693538	-0.040850	0.000101
N196	N	1.193538	0.459150	0.500101
H197	H	0.662272	-0.089838	0.000104
H198	H	1.162272	0.410162	0.500104
H199	H	0.726687	-0.043595	-0.050870
H200	H	1.226687	0.456405	0.449130
N201	N	1.016907	-0.324480	-0.084986
N202	N	1.516907	0.175520	0.415014
H203	H	1.028622	-0.288184	-0.036616
H204	H	1.528622	0.211816	0.463384
H205	H	1.052607	-0.378491	-0.084309
H206	H	1.552607	0.121509	0.415691
N207	N	0.894695	-0.465426	0.156424
N208	N	1.394695	0.034574	0.656424
H209	H	0.878822	-0.413334	0.190326
H210	H	1.378822	0.086666	0.690326
H211	H	0.848243	-0.493283	0.141139
H212	H	1.348243	0.006717	0.641139
N213	N	0.898649	-0.306943	0.156010
N214	N	1.398649	0.193057	0.656010
H215	H	0.843457	-0.317411	0.156785
H216	H	1.343457	0.182589	0.656785
H217	H	0.925365	-0.333849	0.206161
H218	H	1.425365	0.166151	0.706161
H219	H	0.987459	0.009350	0.639387
H220	H	1.487459	0.509350	1.139387
H221	H	0.800716	0.216208	0.796401
H222	H	1.300716	0.716208	1.296401
H223	H	0.996873	-0.473487	-0.078191
H224	H	1.496873	0.026513	0.421809
N225	N	0.787091	0.231257	0.627954
N226	N	1.287091	0.731257	1.127954
H227	H	0.754493	0.267370	0.668503
H228	H	1.254493	0.767370	1.168503
H229	H	0.816052	0.268236	0.592032
H230	H	1.316052	0.768236	1.092032
H231	H	0.800682	0.216181	0.360828
H232	H	1.300682	0.716181	0.860828
