data_functionalizedCrystal
_audit_creation_method	'MofGen! by Chris Wilmer'
_symmetry_space_group_name_H-M	'P1'
_symmetry_Int_Tables_number	1
_symmetry_cell_setting	triclinic
loop_
_symmetry_equiv_pos_as_xyz
  x,y,z
_cell_length_a	20.453700
_cell_length_b	9.582880
_cell_length_c	9.582860
_cell_angle_alpha	89.899908
_cell_angle_beta	111.206767
_cell_angle_gamma	111.207034
loop_
_atom_site_label
_atom_site_type_symbol
_atom_site_fract_x
_atom_site_fract_y
_atom_site_fract_z
V1	V	-1.385450	-0.466328	-0.206425
O2	O	-1.366784	-0.457733	0.010569
O3	O	-1.382153	-0.462867	-0.409930
O4	O	-1.382153	-0.669833	-0.202964
O5	O	-1.366784	-0.249334	-0.197829
V6	V	-1.543333	-0.440407	-0.180503
O7	O	-1.479757	-0.523188	-0.263285
O8	O	-1.599093	-0.383546	-0.123643
O9	O	-1.472229	-0.443867	0.023002
O10	O	-1.601132	-0.449001	-0.397497
O11	O	-1.601132	-0.657401	-0.189098
O12	O	-1.472228	-0.236901	-0.183964
V13	V	-1.052117	-0.466328	-0.206425
O14	O	-1.033451	-0.457733	0.010569
O15	O	-1.048819	-0.462867	-0.409930
O16	O	-1.048820	-0.669833	-0.202964
O17	O	-1.033450	-0.249334	-0.197829
V18	V	-1.210000	-0.440407	-0.180503
O19	O	-1.146423	-0.523188	-0.263285
O20	O	-1.265760	-0.383546	-0.123643
O21	O	-1.138896	-0.443867	0.023002
O22	O	-1.267798	-0.449001	-0.397497
O23	O	-1.267799	-0.657401	-0.189098
O24	O	-1.138895	-0.236901	-0.183964
V25	V	-0.718784	-0.466328	-0.206425
O26	O	-0.700118	-0.457733	0.010569
O27	O	-0.715486	-0.462867	-0.409930
O28	O	-0.715486	-0.669833	-0.202964
O29	O	-0.700117	-0.249334	-0.197829
V30	V	-0.876667	-0.440407	-0.180503
O31	O	-0.813090	-0.523188	-0.263285
O32	O	-0.932426	-0.383546	-0.123643
O33	O	-0.805562	-0.443867	0.023002
O34	O	-0.934465	-0.449001	-0.397497
O35	O	-0.934466	-0.657401	-0.189098
O36	O	-0.805562	-0.236901	-0.183964
C37	C	-1.333193	-0.455441	-0.459549
C38	C	-1.357678	-0.453968	-0.625916
C39	C	-1.333193	-0.719445	-0.195542
C40	C	-1.357677	-0.885810	-0.194059
C41	C	-1.408969	-0.187282	-0.191391
C42	C	-1.377564	-0.020915	-0.192866
C43	C	-1.408969	-0.451290	0.072614
C44	C	-1.377565	-0.452773	0.238979
C45	C	-0.999860	-0.455441	-0.459549
C46	C	-1.024345	-0.453968	-0.625916
C47	C	-0.999860	-0.719445	-0.195542
C48	C	-1.024344	-0.885810	-0.194059
C49	C	-1.075636	-0.451290	0.072614
C50	C	-1.044231	-0.452773	0.238979
C51	C	-1.075635	-0.187282	-0.191391
C52	C	-1.044231	-0.020915	-0.192866
C53	C	-0.666527	-0.455441	-0.459549
C54	C	-0.691011	-0.453968	-0.625916
C55	C	-0.666527	-0.719445	-0.195542
C56	C	-0.691010	-0.885810	-0.194059
C57	C	-0.742303	-0.451290	0.072614
C58	C	-0.710898	-0.452773	0.238979
C59	C	-0.742302	-0.187282	-0.191391
C60	C	-0.710897	-0.020915	-0.192866
