data_functionalizedCrystal
_audit_creation_method	'MofGen! by Chris Wilmer'
_symmetry_space_group_name_H-M	'P1'
_symmetry_Int_Tables_number	1
_symmetry_cell_setting	triclinic
loop_
_symmetry_equiv_pos_as_xyz
  x,y,z
_cell_length_a	27.731993
_cell_length_b	27.732025
_cell_length_c	22.010155
_cell_angle_alpha	90.018755
_cell_angle_beta	90.003150
_cell_angle_gamma	82.626929
loop_
_atom_site_label
_atom_site_type_symbol
_atom_site_fract_x
_atom_site_fract_y
_atom_site_fract_z
O1	O	0.640943	0.057385	-0.050344
O2	O	0.500145	0.066159	-0.050378
O3	O	0.574923	-0.008626	-0.050378
O4	O	0.566166	0.132170	-0.050343
O5	O	0.574909	-0.008615	0.050672
O6	O	0.500132	0.066170	0.050673
O7	O	0.640930	0.057397	0.050707
Cu8	Cu	0.570530	0.061784	0.059916
Cu9	Cu	0.570546	0.061771	-0.059587
O10	O	0.566152	0.132182	0.050707
C11	C	0.482131	0.065984	0.000143
C12	C	0.428475	0.065442	0.000128
C13	C	0.045323	0.061505	-0.054926
C14	C	0.246980	0.063572	-0.054942
O15	O	0.273059	0.063815	-0.101788
N16	N	0.272193	0.063837	0.000140
C17	C	0.246989	0.063582	0.055229
O18	O	0.273061	0.063849	0.102079
C19	C	0.045333	0.061511	0.055244
C20	C	0.020122	0.061251	0.000159
C21	C	0.020112	0.061245	-0.110006
C22	C	-0.030300	0.060731	-0.110002
C23	C	-0.055501	0.060477	-0.054917
C24	C	-0.030290	0.060737	0.000164
C25	C	0.020130	0.061252	0.110333
C26	C	-0.030287	0.060733	0.110332
C27	C	-0.055498	0.060474	0.055247
C28	C	-0.105902	0.059969	0.055253
N29	N	-0.131115	0.059705	0.000172
C30	C	-0.105914	0.059958	-0.054913
C31	C	0.352861	0.064670	0.055217
C32	C	0.403274	0.065188	0.055213
C33	C	0.403262	0.065178	-0.054957
C34	C	0.352847	0.064663	-0.054953
C35	C	0.327648	0.064405	0.000136
C36	C	-0.211783	0.058879	-0.054899
C37	C	-0.262199	0.058367	-0.054890
C38	C	-0.262182	0.058375	0.055281
C39	C	-0.211770	0.058890	0.055272
C40	C	-0.186572	0.059140	0.000177
O41	O	-0.132012	0.059721	0.102076
O42	O	-0.131994	0.059680	-0.101756
C43	C	0.095734	0.062019	-0.054930
C44	C	0.120945	0.062279	0.000150
C45	C	0.095744	0.062026	0.055235
C46	C	0.171359	0.062798	0.000147
C47	C	0.196559	0.063052	-0.054938
C48	C	0.171347	0.062787	-0.110020
C49	C	0.120935	0.062273	-0.110015
C50	C	0.120957	0.062290	0.110317
C51	C	0.171369	0.062805	0.110308
C52	C	0.196570	0.063059	0.055223
C53	C	0.574734	-0.026628	0.000141
C54	C	0.574186	-0.080283	0.000123
C55	C	0.570296	-0.463454	-0.054925
C56	C	0.572349	-0.261795	-0.054944
O57	O	0.572640	-0.235733	-0.101791
N58	N	0.572598	-0.236568	0.000137
C59	C	0.572337	-0.261759	0.055226
O60	O	0.572601	-0.235675	0.102076
C61	C	0.570288	-0.463417	0.055245
C62	C	0.570034	-0.488641	0.000160
C63	C	0.570043	-0.488678	-0.110005
C64	C	0.569527	-0.539090	-0.110000
C65	C	0.569265	-0.564277	-0.054915
C66	C	0.569518	-0.539053	0.000165
C67	C	0.570031	-0.488608	0.110334
C68	C	0.569520	-0.539026	0.110333
C69	C	0.569266	-0.564250	0.055249
C70	C	0.568740	-0.614651	0.055256
N71	N	0.568491	-0.639879	0.000175
C72	C	0.568753	-0.614691	-0.054910
C73	C	0.573412	-0.155885	0.055213
C74	C	0.573923	-0.105471	0.055208
C75	C	0.573936	-0.105510	-0.054963
C76	C	0.573421	-0.155925	-0.054958
C77	C	0.573163	-0.181112	0.000132
C78	C	0.567670	-0.720559	-0.054895
C79	C	0.567152	-0.770974	-0.054885
C80	C	0.567142	-0.770930	0.055286
C81	C	0.567657	-0.720519	0.055276
C82	C	0.567923	-0.695335	0.000181
O83	O	0.568454	-0.640745	0.102079
O84	O	0.568500	-0.640785	-0.101753
C85	C	0.570812	-0.413043	-0.054931
C86	C	0.571066	-0.387819	0.000149
C87	C	0.570803	-0.413006	0.055235
C88	C	0.571577	-0.337404	0.000145
C89	C	0.571839	-0.312217	-0.054940
C90	C	0.571590	-0.337444	-0.110021
C91	C	0.571074	-0.387856	-0.110016
C92	C	0.571053	-0.387779	0.110316
C93	C	0.571568	-0.337367	0.110306
C94	C	0.571830	-0.312180	0.055221
C95	C	0.658944	0.057571	0.000185
C96	C	0.712600	0.058113	0.000195
C97	C	0.566341	0.150183	0.000187
C98	C	0.566890	0.203838	0.000201
N99	N	0.570522	0.061793	0.143969
N100	N	0.570557	0.061758	-0.143640
C101	C	0.603659	0.028661	0.563748
C102	C	0.603661	0.028657	0.627356
O103	O	0.631816	0.000493	0.660247
N104	N	0.570545	0.061761	0.659176
C105	C	0.537422	0.094866	0.627385
O106	O	0.509254	0.123023	0.660292
C107	C	0.537418	0.094867	0.563779
C108	C	0.570539	0.061765	0.531962
C109	C	0.636777	-0.004439	0.531931
C110	C	0.636775	-0.004435	0.468328
C111	C	0.603655	0.028669	0.436542
C112	C	0.570537	0.061769	0.468359
C113	C	0.504292	0.127970	0.531989
C114	C	0.504291	0.127967	0.468379
C115	C	0.537412	0.094865	0.436562
C116	C	0.537415	0.094877	0.372969
N117	N	0.570531	0.061774	0.341149
C118	C	0.603651	0.028670	0.372935
C119	C	0.537433	0.094862	0.760963
C120	C	0.537439	0.094864	0.824568
C121	C	0.603678	0.028654	0.824534
C122	C	0.603673	0.028655	0.760928
C123	C	0.570548	0.061759	0.729143
C124	C	0.603645	0.028681	0.239364
C125	C	0.603642	0.028689	0.175755
C126	C	0.537402	0.094897	0.175795
C127	C	0.537406	0.094891	0.239398
C128	C	0.570530	0.061778	0.271181
O129	O	0.509274	0.123025	0.340038
O130	O	0.631810	0.000514	0.340021
H131	H	0.423796	0.065407	0.100069
F132	F	0.638925	-0.006577	0.727072
H133	H	0.663748	-0.031399	0.557806
H134	H	0.566927	-0.791447	0.100135
H135	H	0.663744	-0.031391	0.442426
H136	H	0.630645	0.001699	0.850426
F137	F	0.046951	0.061529	0.168963
H138	H	0.510473	0.121824	0.850469
H139	H	0.570867	-0.408388	-0.154872
H140	H	0.040625	0.061450	-0.154865
F141	F	-0.184939	0.059173	0.113899
F142	F	-0.057125	0.060451	-0.168631
F143	F	0.571868	-0.310629	-0.168647
H144	H	0.100413	0.062061	-0.154871
F145	F	0.502177	0.130101	0.727140
F146	F	0.570323	-0.461880	-0.168640
F147	F	0.326020	0.064385	-0.113581
F148	F	0.573151	-0.182766	-0.113585
F149	F	0.569247	-0.565829	0.168969
F150	F	0.430091	0.065449	-0.113583
F151	F	0.326047	0.064400	0.113854
H152	H	0.477322	0.154924	0.557886
F153	F	0.469032	0.163201	0.434555
H154	H	0.570840	-0.408281	0.155174
H155	H	-0.050802	0.060528	0.155193
H156	H	0.510441	0.121850	0.265304
H157	H	-0.282724	0.058157	-0.099749
H158	H	0.574146	-0.084994	-0.099815
H159	H	-0.191272	0.059084	-0.099763
F160	F	-0.289012	0.058107	0.113903
F161	F	0.198176	0.063059	-0.168645
H162	H	0.510437	0.121851	0.149904
H163	H	0.191891	0.063021	0.155168
H164	H	0.570243	-0.468080	0.155190
H165	H	0.100444	0.062081	0.155174
H166	H	0.630617	0.001717	0.265235
F167	F	0.566880	-0.797817	-0.113516
H168	H	0.567886	-0.700060	-0.099759
H169	H	0.569323	-0.559623	-0.154856
H170	H	0.574121	-0.084936	0.100064
H171	H	0.573202	-0.176388	0.100076
H172	H	0.567845	-0.699978	0.100130
F173	F	0.638896	-0.006543	0.141896
F174	F	0.571833	-0.310527	0.168939
