data_functionalizedCrystal
_audit_creation_method	'MofGen! by Chris Wilmer'
_symmetry_space_group_name_H-M	'P1'
_symmetry_Int_Tables_number	1
_symmetry_cell_setting	triclinic
loop_
_symmetry_equiv_pos_as_xyz
  x,y,z
_cell_length_a	17.639617
_cell_length_b	17.638166
_cell_length_c	17.640968
_cell_angle_alpha	92.142873
_cell_angle_beta	70.333968
_cell_angle_gamma	114.318354
loop_
_atom_site_label
_atom_site_type_symbol
_atom_site_fract_x
_atom_site_fract_y
_atom_site_fract_z
Zn1	Zn	1.371995	0.104561	-0.703687
Zn2	Zn	1.316118	-0.061159	-0.593671
Zn3	Zn	1.195002	0.037568	-0.549207
Zn4	Zn	1.206220	-0.061082	-0.703540
O5	O	1.272334	0.004972	-0.637526
O6	O	1.484647	0.110583	-0.707762
O7	O	1.271972	-0.076132	-0.477141
O8	O	1.237170	0.157094	-0.551152
O9	O	1.443594	-0.011171	-0.626934
O10	O	1.367206	0.206314	-0.664648
O11	O	1.182989	-0.003598	-0.444474
O12	O	1.076425	-0.003523	-0.551010
O13	O	1.256290	-0.011040	-0.814191
O14	O	1.084667	-0.076001	-0.664398
O15	O	1.378084	0.110658	-0.814298
O16	O	1.282849	-0.171789	-0.626792
O17	O	1.202108	-0.171732	-0.707513
C18	C	1.049415	-0.047024	-0.602864
C19	C	0.954051	-0.069282	-0.588057
C20	C	0.747271	0.174133	-0.750204
C21	C	0.657654	0.153194	-0.736278
C22	C	0.614919	0.026542	-0.651938
C23	C	0.704534	0.047468	-0.665860
C24	C	0.770704	0.121265	-0.714993
C25	C	0.727967	-0.005399	-0.630649
C26	C	0.817574	0.015528	-0.644566
C27	C	0.883748	0.089323	-0.693695
C28	C	0.860310	0.142192	-0.728910
C29	C	0.661796	-0.079193	-0.581511
C30	C	0.685229	-0.132060	-0.546300
C31	C	0.774837	-0.111137	-0.560222
C32	C	0.841011	-0.037342	-0.609351
C33	C	0.798275	-0.164006	-0.525006
C34	C	0.887881	-0.143079	-0.538924
C35	C	0.930618	-0.016415	-0.623268
C36	C	1.237660	-0.200438	-0.671982
C37	C	1.222912	-0.288289	-0.686761
C38	C	1.160031	-0.412131	-0.749571
C39	C	1.173894	-0.329582	-0.735679
C40	C	1.258083	-0.329537	-0.651713
C41	C	1.244223	-0.412089	-0.665594
C42	C	1.195197	-0.453379	-0.714525
C43	C	1.279389	-0.453338	-0.630549
C44	C	1.265534	-0.535881	-0.644433
C45	C	1.216512	-0.577176	-0.693363
C46	C	1.181342	-0.535922	-0.728409
C47	C	1.328419	-0.412044	-0.581623
C48	C	1.363586	-0.453293	-0.546577
C49	C	1.349725	-0.535839	-0.560456
C50	C	1.300704	-0.577134	-0.609386
C51	C	1.384896	-0.577093	-0.525410
C52	C	1.371041	-0.659636	-0.539294
C53	C	1.286849	-0.659678	-0.623271
C54	C	1.496123	0.057170	-0.672324
C55	C	1.591488	0.079414	-0.687153
C56	C	1.324671	0.057291	-0.843732
C57	C	1.346974	0.079586	-0.931605
C58	C	1.307170	0.211194	-0.602956
C59	C	1.322015	0.299074	-0.588225
C60	C	1.103300	-0.163895	-1.220334
C61	C	1.124277	-0.142931	-1.302904
C62	C	1.251091	-0.016218	-1.303006
C63	C	1.230122	-0.037169	-1.220432
C64	C	1.156226	-0.111009	-1.179103
C65	C	1.283048	0.015716	-1.179202
C66	C	1.262083	-0.005236	-1.096637
C67	C	1.188192	-0.079073	-1.055302
C68	C	1.135261	-0.131961	-1.096538
C69	C	1.356946	0.089553	-1.220534
C70	C	1.409872	0.142439	-1.179304
C71	C	1.388904	0.121490	-1.096736
C72	C	1.315013	0.047652	-1.055401
C73	C	1.441835	0.174378	-1.055500
C74	C	1.420870	0.153426	-0.972934
C75	C	1.294049	0.026700	-0.972835
C76	C	1.220258	-0.047075	-0.432120
C77	C	1.198159	-0.069108	-0.344236
H78	H	0.906959	-0.186130	-0.510252
H79	H	1.424820	-0.543461	-0.485577
H80	H	0.744387	-0.224087	-0.484996
C81	C	1.201406	-0.666782	-0.708569
C82	C	1.150964	-0.694103	-0.758936
C83	C	1.137041	-0.776639	-0.772969
H84	H	1.170485	-0.701978	-0.658446
H85	H	1.257106	-0.669035	-0.734061
H86	H	1.095274	-0.691857	-0.733442
H87	H	1.181871	-0.658930	-0.809068
H88	H	1.192741	-0.778892	-0.798462
H89	H	1.106121	-0.811828	-0.722843
H90	H	1.102822	-0.795185	-0.807150
H91	H	1.075071	-0.192075	-1.062878
C92	C	1.379689	0.112138	-1.310207
C93	C	1.395772	0.048891	-1.353546
C94	C	1.416714	0.069662	-1.436152
H95	H	1.431293	0.163649	-1.329028
H96	H	1.331369	0.117605	-1.318024
H97	H	1.444088	0.043434	-1.345734
H98	H	1.344179	-0.002626	-1.334750
H99	H	1.368394	0.075129	-1.443969
H100	H	1.468316	0.121174	-1.454965
H101	H	1.427621	0.026750	-1.465567
H102	H	0.956710	0.106362	-0.705023
H103	H	0.984498	0.043676	-0.663281
C104	C	1.128125	-0.580604	-0.781590
C105	C	1.100304	-0.526810	-0.809327
C106	C	1.051294	-0.567936	-0.858327
H107	H	1.077621	-0.629241	-0.751012
H108	H	1.164266	-0.596342	-0.826605
H109	H	1.064165	-0.511083	-0.764319
H110	H	1.150790	-0.478171	-0.839917
H111	H	1.087435	-0.583675	-0.903341
H112	H	1.000794	-0.616573	-0.827743
H113	H	1.032419	-0.531441	-0.877158
H114	H	1.233858	-0.033414	-0.939176
H115	H	1.403505	-0.419664	-0.506740
C116	C	0.819171	0.254156	-0.803681
C117	C	0.875891	0.234158	-0.869799
C118	C	0.942129	0.307847	-0.919081
H119	H	0.852371	0.289206	-0.773236
H120	H	0.792425	0.282653	-0.822718
H121	H	0.902636	0.205674	-0.850762
H122	H	0.842718	0.199119	-0.900265
H123	H	0.915382	0.336344	-0.938119
H124	H	0.975321	0.342892	-0.888630
H125	H	0.980616	0.294288	-0.963952
C126	C	1.490036	0.222590	-1.224312
C127	C	1.497059	0.229631	-1.305441
C128	C	1.570887	0.303462	-1.346922
H129	H	1.542361	0.221117	-1.221770
H130	H	1.483018	0.269375	-1.199965
H131	H	1.504083	0.182858	-1.329781
H132	H	1.444753	0.231118	-1.308007
H133	H	1.563870	0.350248	-1.322575
H134	H	1.623206	0.301983	-1.344373
H135	H	1.575657	0.308253	-1.401970
C136	C	0.932211	0.222215	-0.782387
C137	C	0.988931	0.202217	-0.848506
C138	C	1.055169	0.275907	-0.897788
H139	H	0.965411	0.257266	-0.751942
H140	H	0.905465	0.250712	-0.801425
H141	H	1.015676	0.173733	-0.829468
H142	H	0.955758	0.167178	-0.878971
H143	H	1.028422	0.304403	-0.916826
H144	H	1.088361	0.310952	-0.867336
H145	H	1.093656	0.262348	-0.942659
H146	H	1.145255	-0.296001	-0.764223
C147	C	1.023074	-0.244135	-1.175611
C148	C	0.981223	-0.285985	-1.229395
C149	C	0.907335	-0.359914	-1.188231
H150	H	0.982521	-0.230910	-1.132512
H151	H	1.041901	-0.279131	-1.154313
H152	H	0.962394	-0.250997	-1.250680
H153	H	1.021751	-0.299232	-1.272494
H154	H	0.926162	-0.394909	-1.166933
H155	H	0.866790	-0.346680	-1.145133
H156	H	0.878935	-0.388322	-1.224718
C157	C	1.311244	-0.284577	-0.598580
C158	C	1.315836	-0.203466	-0.593905
C159	C	1.364789	-0.162032	-0.544955
H160	H	1.369606	-0.281571	-0.621355
H161	H	1.282962	-0.314493	-0.545761
H162	H	1.344120	-0.173557	-0.646714
H163	H	1.257488	-0.206448	-0.571123
H164	H	1.336507	-0.191948	-0.492136
H165	H	1.423147	-0.159032	-0.567735
H166	H	1.367904	-0.106997	-0.541771
H167	H	1.120114	-0.445749	-0.789419
C168	C	1.522180	0.254467	-1.100375
C169	C	1.599062	0.251943	-1.096382
C170	C	1.673095	0.325702	-1.137719
H171	H	1.515290	0.301292	-1.076037
H172	H	1.527148	0.259377	-1.155471
H173	H	1.594095	0.247041	-1.041295
H174	H	1.605981	0.205134	-1.120724
H175	H	1.678062	0.330613	-1.192815
H176	H	1.666195	0.372522	-1.113377
H177	H	1.725268	0.323996	-1.135021
H178	H	0.561033	-0.033542	-0.611931
H179	H	1.339701	-0.344831	-0.570323
C180	C	0.632396	0.210682	-0.774623
C181	C	0.709527	0.279776	-0.820646
C182	C	0.686295	0.332744	-0.855988
H183	H	0.595617	0.229443	-0.733298
H184	H	0.601104	0.180983	-0.808719
H185	H	0.740805	0.309470	-0.786553
H186	H	0.746316	0.261040	-0.861984
H187	H	0.655003	0.303045	-0.890083
H188	H	0.649515	0.351498	-0.814657
H189	H	0.738624	0.379625	-0.887224
H190	H	1.246932	-0.693296	-0.663119
C191	C	0.613513	-0.212199	-0.492904
C192	C	0.653216	-0.254010	-0.465034
C193	C	0.587181	-0.327833	-0.415838
H194	H	0.580374	-0.247283	-0.523375
H195	H	0.574931	-0.198825	-0.447954
H196	H	0.691782	-0.267386	-0.509978
H197	H	0.686349	-0.218950	-0.434551
H198	H	0.548599	-0.314460	-0.370888
H199	H	0.554046	-0.362910	-0.446315
H200	H	0.614109	-0.356208	-0.396916
C201	C	1.478173	0.210826	-0.928031
C202	C	1.426112	0.238120	-0.864567
C203	C	1.478870	0.290985	-0.823178
H204	H	1.525195	0.257861	-0.964366
H205	H	1.502243	0.181127	-0.906654
H206	H	1.402055	0.267819	-0.885944
H207	H	1.379091	0.191103	-0.828213
H208	H	1.502940	0.261286	-0.801801
H209	H	1.525890	0.338016	-0.859519
H210	H	1.443552	0.309505	-0.780108
H211	H	1.399680	-0.693220	-0.510759
C212	C	1.066943	-0.200402	-1.347752
C213	C	1.118992	-0.227734	-1.411188
C214	C	1.066207	-0.280682	-1.452513
H215	H	1.042833	-0.170779	-1.369155
H216	H	1.019945	-0.247414	-1.311347
H217	H	1.165974	-0.180729	-1.447587
H218	H	1.143102	-0.257370	-1.389807
H219	H	1.019208	-0.327695	-1.416109
H220	H	1.042099	-0.251054	-1.473912
H221	H	1.101512	-0.299240	-1.495555
C222	C	1.165608	-0.101787	-0.965687
C223	C	1.236954	-0.109818	-0.954439
C224	C	1.216185	-0.130731	-0.871897
H225	H	1.114060	-0.153344	-0.946887
H226	H	1.154685	-0.058956	-0.936126
H227	H	1.247866	-0.152647	-0.983990
H228	H	1.288510	-0.058271	-0.973221
H229	H	1.205263	-0.087899	-0.842335
H230	H	1.164636	-0.182286	-0.853103
H231	H	1.264593	-0.136175	-0.864253
H232	H	1.311258	0.043901	-1.336669
H233	H	0.588832	-0.096216	-0.570161
