data_functionalizedCrystal
_audit_creation_method	'MofGen! by Chris Wilmer'
_symmetry_space_group_name_H-M	'P1'
_symmetry_Int_Tables_number	1
_symmetry_cell_setting	triclinic
loop_
_symmetry_equiv_pos_as_xyz
  x,y,z
_cell_length_a	12.594516
_cell_length_b	10.686220
_cell_length_c	10.686551
_cell_angle_alpha	90.308082
_cell_angle_beta	94.404004
_cell_angle_gamma	85.600317
loop_
_atom_site_label
_atom_site_type_symbol
_atom_site_fract_x
_atom_site_fract_y
_atom_site_fract_z
Zn1	Zn	-0.259492	-1.972271	0.562395
Zn2	Zn	0.240508	-1.472271	1.062395
Zn3	Zn	-0.452142	-1.956029	0.352643
Zn4	Zn	0.047858	-1.456029	0.852643
Zn5	Zn	-0.286720	-1.746388	0.368713
Zn6	Zn	0.213280	-1.246388	0.868713
Zn7	Zn	-0.449985	-1.762460	0.578421
Zn8	Zn	0.050015	-1.262460	1.078421
O9	O	-0.362085	-1.859287	0.465543
O10	O	0.137915	-1.359287	0.965543
O11	O	-0.274555	-2.145659	0.521139
O12	O	0.225445	-1.645659	1.021139
O13	O	-0.442496	-1.914697	0.179230
O14	O	0.057504	-1.414697	0.679230
O15	O	-0.134156	-1.776423	0.394424
O16	O	0.365844	-1.276423	0.894424
O17	O	-0.416094	-2.133727	0.367035
O18	O	0.083906	-1.633727	0.867035
O19	O	-0.114152	-1.942378	0.536721
O20	O	0.385848	-1.442378	1.036721
O21	O	-0.320961	-1.760674	0.191037
O22	O	0.179039	-1.260674	0.691037
O23	O	-0.318870	-1.572977	0.409964
O24	O	0.181130	-1.072977	0.909964
O25	O	-0.412418	-1.803815	0.751840
O26	O	0.087582	-1.303815	1.251840
O27	O	-0.438820	-1.584785	0.564035
O28	O	0.061180	-1.084785	1.064035
O29	O	-0.272464	-1.957962	0.740066
O30	O	0.227536	-1.457962	1.240066
O31	O	-0.600807	-1.930281	0.382574
O32	O	-0.100807	-1.430281	0.882574
O33	O	-0.599223	-1.788066	0.548452
O34	O	-0.099223	-1.288066	1.048452
C35	C	-0.381566	-1.533365	0.490483
C36	C	0.118434	-1.033365	0.990483
C37	C	-0.389924	-1.393937	0.501182
C38	C	0.110076	-0.893937	1.001182
C39	C	-0.638632	-1.859191	0.465533
C40	C	-0.138632	-1.359191	0.965533
C41	C	-0.756931	-1.859269	0.465562
C42	C	-0.256931	-1.359269	0.965562
C43	C	-0.339163	-1.884493	0.792742
C44	C	0.160837	-1.384493	1.292742
C45	C	-0.329395	-1.895235	0.932175
C46	C	0.170605	-1.395235	1.432175
C47	C	-0.896123	-1.781983	0.555735
C48	C	-0.396123	-1.281983	1.055735
C49	C	-0.816223	-1.898707	0.577750
C50	C	-0.316223	-1.398707	1.077750
C51	C	-0.835255	-1.742560	0.443602
C52	C	-0.335255	-1.242560	0.943602
C53	C	-0.887793	-1.976266	0.487662
C54	C	-0.387793	-1.476266	0.987662
C55	C	-0.906839	-1.820038	0.353467
C56	C	-0.406839	-1.320038	0.853467
C57	C	-0.826969	-1.936838	0.375432
C58	C	-0.326969	-1.436838	0.875432
C59	C	-0.084453	-1.859419	0.465578
C60	C	0.415547	-1.359419	0.965578
C61	C	0.033857	-1.859476	0.465593
C62	C	0.533857	-1.359476	0.965593
C63	C	-0.342528	-2.186482	0.440507
C64	C	0.157472	-1.686482	0.940507
C65	C	-0.334194	-2.325913	0.429837
C66	C	0.165806	-1.825913	0.929837
C67	C	-0.384836	-1.834251	0.139611
C68	C	0.115164	-1.334251	0.639611
C69	C	-0.394289	-1.823753	0.000160
C70	C	0.105711	-1.323753	0.500160
H71	H	-0.776746	-1.931983	0.672558
H72	H	-0.276746	-1.431983	1.172558
H73	H	-0.444040	-1.345501	0.570446
H74	H	0.055960	-0.845501	1.070446
O75	O	-0.936371	-1.695419	0.656786
O76	O	-0.436371	-1.195419	1.156786
H77	H	-0.914280	-1.598806	0.639387
H78	H	-0.414280	-1.098806	1.139387
H79	H	-0.266364	-1.964661	0.980647
H80	H	0.233636	-1.464661	1.480647
O81	O	-0.918563	-2.107172	0.512451
O82	O	-0.418563	-1.607172	1.012451
H83	H	-1.006759	-2.106221	0.512323
H84	H	-0.506759	-1.606221	1.012323
O85	O	-0.786954	-2.023623	0.274431
O86	O	-0.286954	-1.523623	0.774431
H87	H	-0.807876	-2.120475	0.292979
H88	H	-0.307876	-1.620475	0.792979
H89	H	-0.457324	-1.754340	0.951694
H90	H	0.042676	-1.254340	1.451694
H91	H	-0.811870	-1.643773	0.425016
H92	H	-0.311870	-1.143773	0.925016
O93	O	-0.959173	-1.775930	0.227923
O94	O	-0.459173	-1.275930	0.727923
H95	H	-0.938434	-1.678897	0.209896
H96	H	-0.438434	-1.178897	0.709896
O97	O	-0.262513	-1.390047	0.338087
O98	O	0.237487	-0.890047	0.838087
H99	H	-0.266966	-1.493169	0.343809
H100	H	0.233034	-0.993169	0.843809
