data_functionalizedCrystal
_audit_creation_method	'MofGen! by Chris Wilmer'
_symmetry_space_group_name_H-M	'P1'
_symmetry_Int_Tables_number	1
_symmetry_cell_setting	triclinic
loop_
_symmetry_equiv_pos_as_xyz
  x,y,z
_cell_length_a	17.699104
_cell_length_b	17.699083
_cell_length_c	16.776229
_cell_angle_alpha	90.007545
_cell_angle_beta	90.008863
_cell_angle_gamma	83.287266
loop_
_atom_site_label
_atom_site_type_symbol
_atom_site_fract_x
_atom_site_fract_y
_atom_site_fract_z
O1	O	-1.004069	-0.095788	-0.066321
O2	O	-0.670735	0.237545	0.267012
O3	O	-0.337402	0.570879	0.600345
O4	O	-0.783692	-0.108224	-0.066316
O5	O	-0.450359	0.225109	0.267017
O6	O	-0.117026	0.558443	0.600350
O7	O	-0.900107	0.008183	-0.066312
O8	O	-0.566773	0.341516	0.267021
O9	O	-0.233440	0.674849	0.600355
O10	O	-0.887654	-0.212195	-0.066326
O11	O	-0.554321	0.121139	0.267008
O12	O	-0.220988	0.454472	0.600341
O13	O	-0.900091	0.008190	0.066265
O14	O	-0.566758	0.341523	0.399598
O15	O	-0.233425	0.674857	0.732931
O16	O	-0.783677	-0.108217	0.066260
O17	O	-0.450344	0.225116	0.399594
O18	O	-0.117010	0.558450	0.732927
O19	O	-1.004053	-0.095781	0.066255
O20	O	-0.670720	0.237552	0.399589
O21	O	-0.337386	0.570886	0.732922
Zn22	Zn	-0.893863	-0.101998	0.087307
Zn23	Zn	-0.560529	0.231336	0.420640
Zn24	Zn	-0.227196	0.564669	0.753974
Zn25	Zn	-0.893883	-0.102007	-0.087368
Zn26	Zn	-0.560550	0.231326	0.245965
Zn27	Zn	-0.227216	0.564660	0.579299
O28	O	-0.887639	-0.212188	0.066251
O29	O	-0.554306	0.121146	0.399584
O30	O	-0.220972	0.454479	0.732918
C31	C	-0.755488	-0.107772	-0.000027
C32	C	-0.422155	0.225561	0.333306
C33	C	-0.088821	0.558895	0.666639
C34	C	-0.671471	-0.106427	-0.000025
C35	C	-0.338137	0.226906	0.333308
C36	C	-0.004804	0.560239	0.666642
C37	C	-0.146600	-0.167171	-0.000029
C38	C	0.186734	0.166162	0.333304
C39	C	0.520067	0.499496	0.666637
C40	C	-0.225543	-0.168430	-0.000033
C41	C	0.107790	0.164903	0.333301
C42	C	0.441123	0.498236	0.666634
C43	C	-0.274161	-0.100095	-0.000029
C44	C	0.059172	0.233238	0.333304
C45	C	0.392506	0.566572	0.666638
C46	C	-0.243831	-0.030496	-0.000030
C47	C	0.089502	0.302837	0.333304
C48	C	0.422835	0.636171	0.666637
C49	C	-0.164889	-0.029238	-0.000032
C50	C	0.168445	0.304095	0.333301
C51	C	0.501778	0.637429	0.666635
C52	C	-0.562197	-0.035569	-0.000022
C53	C	-0.228864	0.297764	0.333311
C54	C	0.104469	0.631097	0.666644
C55	C	-0.641144	-0.036833	-0.000018
C56	C	-0.307811	0.296500	0.333316
C57	C	0.025522	0.629834	0.666649
C58	C	-0.622852	-0.174762	-0.000023
C59	C	-0.289519	0.158572	0.333310
C60	C	0.043815	0.491905	0.666644
C61	C	-0.543909	-0.173503	-0.000025
C62	C	-0.210576	0.159830	0.333308
C63	C	0.122757	0.493163	0.666641
C64	C	-0.513587	-0.103905	-0.000030
C65	C	-0.180253	0.229428	0.333303
C66	C	0.153080	0.562762	0.666636
C67	C	-0.427987	-0.102541	-0.000028
C68	C	-0.094653	0.230793	0.333305
C69	C	0.238680	0.564126	0.666639
C70	C	-0.359759	-0.101459	-0.000026
C71	C	-0.026426	0.231875	0.333308
C72	C	0.306907	0.565208	0.666641
C73	C	-0.899653	0.036383	-0.000024
C74	C	-0.566319	0.369717	0.333310
C75	C	-0.232986	0.703050	0.666643
C76	C	-0.898314	0.120402	-0.000023
C77	C	-0.564981	0.453735	0.333310
C78	C	-0.231647	0.787068	0.666644
N79	N	-0.893854	-0.101991	0.206518
N80	N	-0.560521	0.231342	0.539852
N81	N	-0.227188	0.564676	0.873185
C82	C	-0.032258	-0.096233	-0.000032
C83	C	0.301076	0.237101	0.333302
C84	C	0.634409	0.570434	0.666635
C85	C	-0.116275	-0.097578	-0.000028
C86	C	0.217059	0.235756	0.333306
C87	C	0.550392	0.569089	0.666639
C88	C	-0.888093	-0.240388	-0.000039
C89	C	-0.554759	0.092945	0.333294
C90	C	-0.221426	0.426278	0.666627
C91	C	-0.889431	-0.324406	-0.000045
C92	C	-0.556098	0.008927	0.333288
C93	C	-0.222765	0.342260	0.666622
C94	C	-0.966647	0.169017	-0.000024
C95	C	-0.633314	0.502351	0.333310
C96	C	-0.299980	0.835684	0.666643
C97	C	-0.965385	0.247961	-0.000031
C98	C	-0.632051	0.581294	0.333303
C99	C	-0.298718	0.914627	0.666636
C100	C	-0.895789	0.278287	-0.000031
C101	C	-0.562455	0.611620	0.333302
C102	C	-0.229122	0.944953	0.666635
C103	C	-0.827451	0.229665	-0.000033
C104	C	-0.494118	0.562998	0.333300
C105	C	-0.160784	0.896331	0.666633
C106	C	-0.828714	0.150723	-0.000032
C107	C	-0.495381	0.484056	0.333301
C108	C	-0.162047	0.817389	0.666635
C109	C	-0.822356	0.548028	-0.000040
C110	C	-0.489022	0.881361	0.333294
C111	C	-0.155689	1.214695	0.666627
C112	C	-0.821098	0.626976	-0.000039
C113	C	-0.487764	0.960310	0.333295
C114	C	-0.154431	1.293643	0.666628
C115	C	-0.959026	0.645266	-0.000038
C116	C	-0.625693	0.978599	0.333295
C117	C	-0.292360	1.311933	0.666628
C118	C	-0.960289	0.566324	-0.000037
C119	C	-0.626956	0.899658	0.333296
C120	C	-0.293623	1.232991	0.666630
C121	C	-0.891952	0.517709	-0.000043
C122	C	-0.558618	0.851042	0.333290
C123	C	-0.225285	1.184376	0.666624
C124	C	-0.893321	0.432110	-0.000037
C125	C	-0.559988	0.765443	0.333296
C126	C	-0.226655	1.098776	0.666630
C127	C	-0.894419	0.363885	-0.000032
C128	C	-0.561085	0.697218	0.333301
C129	C	-0.227752	1.030551	0.666635
N130	N	-0.893897	-0.102008	-0.206579
N131	N	-0.560564	0.231325	0.126754
N132	N	-0.227231	0.564659	0.460087
C133	C	-0.945418	-0.050467	0.248237
C134	C	-0.612085	0.282866	0.581571
C135	C	-0.278751	0.616200	0.914904
C136	C	-0.945422	-0.050466	0.331690
C137	C	-0.612089	0.282867	0.665023
C138	C	-0.278756	0.616200	0.998356
C139	C	-0.893866	-0.101994	0.373421
C140	C	-0.560532	0.231340	0.706755
C141	C	-0.227199	0.564673	1.040088
C142	C	-0.842296	-0.153520	0.331696
C143	C	-0.508963	0.179813	0.665030
C144	C	-0.175630	0.513147	0.998363
C145	C	-0.842289	-0.153516	0.248246
C146	C	-0.508956	0.179817	0.581579
C147	C	-0.175622	0.513150	0.914912
C148	C	-0.842324	-0.153535	0.668244
C149	C	-0.508990	0.179798	1.001577
C150	C	-0.175657	0.513132	1.334910
C151	C	-0.842336	-0.153536	0.751700
C152	C	-0.509003	0.179797	1.085033
C153	C	-0.175670	0.513131	1.418367
C154	C	-0.945457	-0.050485	0.751687
C155	C	-0.612124	0.282848	1.085021
C156	C	-0.278790	0.616182	1.418354
C157	C	-0.945450	-0.050481	0.668237
C158	C	-0.612116	0.282852	1.001570
C159	C	-0.278783	0.616185	1.334903
C160	C	-0.893878	-0.102004	0.626519
C161	C	-0.560545	0.231329	0.959853
C162	C	-0.227211	0.564662	1.293186
C163	C	-0.893873	-0.102004	0.536031
C164	C	-0.560540	0.231330	0.869364
C165	C	-0.227206	0.564663	1.202698
C166	C	-0.893874	-0.101999	0.463908
C167	C	-0.560540	0.231334	0.797241
C168	C	-0.227207	0.564668	1.130575
H169	H	-0.107020	-0.222818	-0.000026
H170	H	0.226313	0.110516	0.333307
H171	H	0.559647	0.443849	0.666640
H172	H	-0.537518	0.021102	-0.000024
H173	H	-0.204185	0.354435	0.333309
H174	H	0.129148	0.687768	0.666643
H175	H	-0.987434	-0.008525	0.634261
H176	H	-0.654101	0.324808	0.967595
H177	H	-0.320768	0.658141	1.300928
H178	H	-1.014670	0.684858	-0.000037
H179	H	-0.681337	1.018192	0.333296
H180	H	-0.348003	1.351525	0.666629
Cl181	Cl	-0.702264	0.049081	-0.000014
Cl182	Cl	-0.368930	0.382414	0.333319
Cl183	Cl	-0.035597	0.715748	0.666652
H184	H	-0.800314	-0.195472	0.365679
H185	H	-0.466981	0.137861	0.699012
H186	H	-0.133647	0.471195	1.032346
Cl187	Cl	-0.777460	-0.218290	0.195800
Cl188	Cl	-0.444127	0.115044	0.529133
Cl189	Cl	-0.110793	0.448377	0.862466
Cl190	Cl	-1.054144	0.130902	-0.000014
Cl191	Cl	-0.720811	0.464235	0.333319
Cl192	Cl	-0.387477	0.797568	0.666652
Cl193	Cl	-0.263662	-0.255923	-0.000039
Cl194	Cl	0.069671	0.077410	0.333294
Cl195	Cl	0.403004	0.410743	0.666627
H196	H	-0.800334	-0.195488	0.634284
H197	H	-0.467000	0.137845	0.967617
H198	H	-0.133667	0.471178	1.300950
H199	H	-0.764421	0.651664	-0.000038
H200	H	-0.431088	0.984997	0.333296
H201	H	-0.097755	1.318331	0.666629
Cl202	Cl	-0.482794	-0.259414	-0.000028
Cl203	Cl	-0.149461	0.073920	0.333305
Cl204	Cl	0.183872	0.407253	0.666638
Cl205	Cl	-0.777516	-0.218317	0.804162
Cl206	Cl	-0.444183	0.115016	1.137495
Cl207	Cl	-0.110850	0.448349	1.470829
H208	H	-0.647550	-0.231432	-0.000023
H209	H	-0.314216	0.101901	0.333311
H210	H	0.019117	0.435235	0.666644
Cl211	Cl	-0.304951	0.055412	-0.000027
Cl212	Cl	0.028383	0.388745	0.333306
Cl213	Cl	0.361716	0.722078	0.666640
Cl214	Cl	-0.736445	0.486922	-0.000049
Cl215	Cl	-0.403112	0.820256	0.333284
Cl216	Cl	-0.069778	1.153589	0.666617
Cl217	Cl	-0.126766	0.058255	-0.000030
Cl218	Cl	0.206567	0.391588	0.333304
Cl219	Cl	0.539900	0.724922	0.666637
H220	H	-0.770785	0.254362	-0.000039
H221	H	-0.437451	0.587696	0.333294
H222	H	-0.104118	0.921029	0.666628
H223	H	-0.987447	-0.008529	0.785663
H224	H	-0.654114	0.324804	1.118996
H225	H	-0.320781	0.658137	1.452329
H226	H	-0.773070	0.111140	-0.000032
H227	H	-0.439737	0.444473	0.333301
H228	H	-0.106404	0.777807	0.666635
Cl229	Cl	-1.010246	0.014308	0.384138
Cl230	Cl	-0.676912	0.347642	0.717471
Cl231	Cl	-0.343579	0.680975	1.050804
Cl232	Cl	-1.047784	0.528205	-0.000039
Cl233	Cl	-0.714451	0.861538	0.333295
Cl234	Cl	-0.381118	1.194871	0.666628
Cl235	Cl	-1.010240	0.014311	0.195783
Cl236	Cl	-0.676907	0.347644	0.529117
Cl237	Cl	-0.343573	0.680978	0.862450
Cl238	Cl	-1.051293	0.309075	-0.000029
Cl239	Cl	-0.717959	0.642408	0.333305
Cl240	Cl	-0.384626	0.975742	0.666638
