data_functionalizedCrystal
_audit_creation_method	'MofGen! by Chris Wilmer'
_symmetry_space_group_name_H-M	'P1'
_symmetry_Int_Tables_number	1
_symmetry_cell_setting	triclinic
loop_
_symmetry_equiv_pos_as_xyz
  x,y,z
_cell_length_a	16.120484
_cell_length_b	16.625547
_cell_length_c	16.625539
_cell_angle_alpha	90.023545
_cell_angle_beta	92.870299
_cell_angle_gamma	87.074925
loop_
_atom_site_label
_atom_site_type_symbol
_atom_site_fract_x
_atom_site_fract_y
_atom_site_fract_z
Zn1	Zn	-0.331940	-1.216356	-0.472307
Zn2	Zn	0.001394	-0.883023	-0.138974
Zn3	Zn	0.334727	-0.549690	0.194359
Zn4	Zn	-0.471359	-1.209423	-0.344303
Zn5	Zn	-0.138026	-0.876090	-0.010970
Zn6	Zn	0.195307	-0.542756	0.322363
Zn7	Zn	-0.331962	-1.081525	-0.337474
Zn8	Zn	0.001371	-0.748192	-0.004140
Zn9	Zn	0.334704	-0.414859	0.329193
Zn10	Zn	-0.471312	-1.074646	-0.479076
Zn11	Zn	-0.137978	-0.741313	-0.145742
Zn12	Zn	0.195355	-0.407979	0.187591
O13	O	-0.401643	-1.145488	-0.408290
O14	O	-0.068310	-0.812154	-0.074957
O15	O	0.265023	-0.478821	0.258377
O16	O	-0.350445	-1.328268	-0.455353
O17	O	-0.017111	-0.994935	-0.122020
O18	O	0.316222	-0.661602	0.211314
O19	O	-0.452898	-1.192434	-0.230566
O20	O	-0.119564	-0.859101	0.102767
O21	O	0.213769	-0.525768	0.436100
O22	O	-0.215293	-1.105191	-0.349669
O23	O	0.118040	-0.771858	-0.016336
O24	O	0.451373	-0.438525	0.316998
O25	O	-0.452876	-1.323175	-0.361309
O26	O	-0.119542	-0.989841	-0.027976
O27	O	0.213791	-0.656508	0.305358
O28	O	-0.215277	-1.204251	-0.448731
O29	O	0.118057	-0.870918	-0.115397
O30	O	0.451390	-0.537584	0.217936
O31	O	-0.350483	-1.098468	-0.225549
O32	O	-0.017150	-0.765135	0.107785
O33	O	0.316184	-0.431802	0.441118
O34	O	-0.350437	-0.967781	-0.356232
O35	O	-0.017103	-0.634448	-0.022899
O36	O	0.316230	-0.301114	0.310435
O37	O	-0.452794	-1.093467	-0.591009
O38	O	-0.119461	-0.760134	-0.257676
O39	O	0.213873	-0.426800	0.075658
O40	O	-0.452816	-0.962727	-0.460266
O41	O	-0.119483	-0.629393	-0.126933
O42	O	0.213851	-0.296060	0.206400
O43	O	-0.350398	-1.197581	-0.586036
O44	O	-0.017065	-0.864247	-0.252703
O45	O	0.316269	-0.530914	0.080630
O46	O	-0.588019	-1.185764	-0.367872
O47	O	-0.254686	-0.852431	-0.034539
O48	O	0.078648	-0.519097	0.298795
O49	O	-0.587984	-1.086744	-0.466889
O50	O	-0.254651	-0.753411	-0.133555
O51	O	0.078683	-0.420077	0.199778
C52	C	-0.401624	-0.935998	-0.408243
C53	C	-0.068291	-0.602664	-0.074910
C54	C	0.265042	-0.269331	0.258424
C55	C	-0.401636	-0.846376	-0.408243
C56	C	-0.068303	-0.513043	-0.074909
C57	C	0.265031	-0.179709	0.258424
C58	C	-0.401637	-0.773594	-0.408250
C59	C	-0.068303	-0.440260	-0.074917
C60	C	0.265030	-0.106927	0.258417
C61	C	-0.401640	-0.682285	-0.408267
C62	C	-0.068307	-0.348952	-0.074933
C63	C	0.265027	-0.015618	0.258400
C64	C	-0.401647	-0.609508	-0.408285
C65	C	-0.068313	-0.276175	-0.074951
C66	C	0.265020	0.057158	0.258382
C67	C	-0.401651	-0.518194	-0.408301
C68	C	-0.068318	-0.184860	-0.074967
C69	C	0.265016	0.148473	0.258366
C70	C	-0.618252	-1.134777	-0.418873
C71	C	-0.284918	-0.801444	-0.085540
C72	C	0.048415	-0.468110	0.247793
C73	C	-0.710918	-1.130269	-0.423428
C74	C	-0.377584	-0.796936	-0.090095
C75	C	-0.044251	-0.463602	0.243239
C76	C	-0.880579	-1.122043	-0.431760
C77	C	-0.547246	-0.788709	-0.098427
C78	C	-0.213913	-0.455376	0.234907
C79	C	-0.921867	-1.169077	-0.384833
C80	C	-0.588533	-0.835744	-0.051500
C81	C	-0.255200	-0.502410	0.281833
C82	C	-1.016272	-1.164500	-0.389469
C83	C	-0.682939	-0.831167	-0.056136
C84	C	-0.349606	-0.497833	0.277197
C85	C	-0.786165	-1.126619	-0.427125
C86	C	-0.452832	-0.793285	-0.093792
C87	C	-0.119499	-0.459952	0.239542
C88	C	-0.184189	-1.156262	-0.397683
C89	C	0.149144	-0.822929	-0.064350
C90	C	0.482478	-0.489595	0.268984
C91	C	-0.091523	-1.160853	-0.393163
C92	C	0.241810	-0.827520	-0.059830
C93	C	0.575144	-0.494187	0.273504
C94	C	-0.401588	-1.145530	-0.618596
C95	C	-0.068255	-0.812197	-0.285263
C96	C	0.265078	-0.478863	0.048070
C97	C	-0.401565	-1.145548	-0.708216
C98	C	-0.068231	-0.812215	-0.374883
C99	C	0.265102	-0.478881	-0.041550
C100	C	-0.401660	-0.355796	-0.408328
C101	C	-0.068326	-0.022462	-0.074995
C102	C	0.265007	0.310871	0.258339
C103	C	-0.401658	-0.445417	-0.408319
C104	C	-0.068324	-0.112084	-0.074985
C105	C	0.265009	0.221250	0.258348
C106	C	-0.401546	-1.145562	-0.780998
C107	C	-0.068213	-0.812229	-0.447665
C108	C	0.265120	-0.478895	-0.114331
C109	C	-0.401515	-1.145582	-0.872305
C110	C	-0.068182	-0.812249	-0.538972
C111	C	0.265151	-0.478916	-0.205638
C112	C	-0.401486	-1.145603	-0.945080
C113	C	-0.068153	-0.812269	-0.611747
C114	C	0.265181	-0.478936	-0.278413
C115	C	-0.401456	-1.145624	-1.036393
C116	C	-0.068122	-0.812291	-0.703060
C117	C	0.265211	-0.478958	-0.369726
C118	C	-0.401638	-1.145495	-0.198799
C119	C	-0.068305	-0.812162	0.134534
C120	C	0.265029	-0.478828	0.467868
C121	C	-0.401426	-1.145645	-0.109168
C122	C	-0.068093	-0.812311	0.224165
C123	C	0.265240	-0.478978	0.557499
H124	H	-0.886312	-1.212781	-0.341176
H125	H	-0.552979	-0.879448	-0.007842
H126	H	-0.219646	-0.546115	0.325491
H127	H	-0.916131	-1.078341	-0.475413
H128	H	-0.582798	-0.745008	-0.142080
H129	H	-0.249464	-0.411674	0.191254
