data_functionalizedCrystal
_audit_creation_method	'MofGen! by Chris Wilmer'
_symmetry_space_group_name_H-M	'P1'
_symmetry_Int_Tables_number	1
_symmetry_cell_setting	triclinic
loop_
_symmetry_equiv_pos_as_xyz
  x,y,z
_cell_length_a	16.109301
_cell_length_b	14.586319
_cell_length_c	16.109301
_cell_angle_alpha	89.998390
_cell_angle_beta	96.538519
_cell_angle_gamma	90.003133
loop_
_atom_site_label
_atom_site_type_symbol
_atom_site_fract_x
_atom_site_fract_y
_atom_site_fract_z
O1	O	1.103134	0.076185	-0.106861
O2	O	0.861072	0.076200	-0.120161
O3	O	0.988753	0.076183	0.007520
O4	O	0.975454	0.076203	-0.234542
O5	O	0.988737	-0.076298	0.007512
O6	O	0.861057	-0.076281	-0.120168
O7	O	1.103119	-0.076295	-0.106869
Cu8	Cu	0.982086	-0.090211	-0.113519
Cu9	Cu	0.982105	0.090115	-0.113510
O10	O	0.975438	-0.076278	-0.234550
C11	C	0.830090	-0.000038	-0.119626
C12	C	0.737794	-0.000033	-0.118011
N13	N	0.982079	-0.217042	-0.113525
C14	C	0.515522	-0.000038	-0.190018
C15	C	0.428801	-0.000044	-0.188494
C16	C	0.448676	-0.000052	-0.037006
C17	C	0.535394	-0.000053	-0.038530
C18	C	0.568815	-0.000041	-0.115039
C19	C	0.395376	-0.000046	-0.111990
C20	C	0.301350	-0.000053	-0.110337
C21	C	0.662847	-0.000036	-0.116693
C22	C	1.032502	-0.452048	-0.163954
C23	C	1.032511	-0.548029	-0.163948
C24	C	0.931693	-0.548041	-0.063064
C25	C	0.931690	-0.452061	-0.063066
C26	C	0.982093	-0.404067	-0.113515
C27	C	0.982105	-0.596028	-0.113508
C28	C	0.982114	-0.700095	-0.113501
C29	C	0.982085	-0.299993	-0.113521
C30	C	1.134101	-0.000055	-0.107404
C31	C	1.226397	-0.000054	-0.109019
C32	C	0.988206	-0.000058	0.038491
C33	C	0.986591	-0.000059	0.130786
N34	N	0.982118	0.216947	-0.113498
C35	C	0.975984	-0.000035	-0.265521
C36	C	0.977600	-0.000028	-0.357816
C37	C	1.058599	-0.000049	0.353059
C38	C	1.057075	-0.000041	0.439779
C39	C	0.905586	-0.000036	0.419905
C40	C	0.907111	-0.000037	0.333186
C41	C	0.983620	-0.000048	0.299766
C42	C	0.980571	-0.000039	0.473205
C43	C	0.978918	-0.000031	0.567231
C44	C	0.985273	-0.000055	0.205734
H45	H	0.542730	-0.000035	-0.252317
C46	C	0.886875	-0.695174	-0.018316
C47	C	0.876282	-0.600796	-0.007619
H48	H	0.852659	-0.727739	0.015910
H49	H	0.943751	-0.710932	-0.002908
H50	H	0.871383	-0.710859	-0.075204
H51	H	0.891780	-0.585110	0.049269
H52	H	0.819393	-0.585032	-0.023022
H53	H	1.073560	-0.587091	-0.205019
H54	H	0.846050	-0.000033	0.289792
C55	C	1.077258	-0.304913	-0.208759
C56	C	1.087908	-0.399291	-0.219403
H57	H	1.111462	-0.272347	-0.242996
H58	H	1.092722	-0.289186	-0.151884
H59	H	1.020367	-0.289199	-0.224194
H60	H	1.144798	-0.415005	-0.203962
H61	H	1.072449	-0.415024	-0.276290
H62	H	0.890639	-0.412994	-0.021988
C63	C	1.208185	-0.000037	0.381417
C64	C	1.142696	-0.000045	0.316322
H65	H	1.260103	-0.000025	0.358737
H66	H	1.204440	-0.053208	0.414825
H67	H	1.204430	0.053139	0.414827
H68	H	1.146447	-0.053224	0.282915
H69	H	1.146442	0.053132	0.282900
C70	C	1.143255	0.078349	0.548817
C71	C	1.139496	-0.000041	0.498357
H72	H	1.194144	0.078351	0.584975
H73	H	1.097482	0.078346	0.581133
H74	H	1.140702	0.131513	0.514559
H75	H	1.142042	-0.053206	0.532614
H76	H	1.185281	-0.000047	0.466038
C77	C	0.756000	-0.000020	0.391549
C78	C	0.821490	-0.000027	0.456643
H79	H	0.704082	-0.000009	0.414230
H80	H	0.759739	-0.053191	0.358143
H81	H	0.759758	0.053157	0.358137
H82	H	0.817735	-0.053207	0.490052
H83	H	0.817749	0.053150	0.490063
H84	H	0.385413	-0.000043	-0.249550
C85	C	0.324566	-0.000046	0.032597
C86	C	0.411936	-0.000053	0.047090
H87	H	0.301888	-0.000038	0.084517
H88	H	0.306272	-0.053215	0.001732
H89	H	0.306285	0.053133	0.001724
H90	H	0.430218	-0.053235	0.077958
H91	H	0.430238	0.053122	0.077968
C92	C	0.546337	-0.000050	0.111369
C93	C	0.593982	-0.000052	0.043893
H94	H	0.582508	-0.000047	0.162250
H95	H	0.512099	-0.053220	0.108816
H96	H	0.512101	0.053127	0.108810
H97	H	0.628213	-0.053234	0.046449
H98	H	0.628234	0.053123	0.046448
