data_functionalizedCrystal
_audit_creation_method	'MofGen! by Chris Wilmer'
_symmetry_space_group_name_H-M	'P1'
_symmetry_Int_Tables_number	1
_symmetry_cell_setting	triclinic
loop_
_symmetry_equiv_pos_as_xyz
  x,y,z
_cell_length_a	13.635800
_cell_length_b	9.109307
_cell_length_c	19.551833
_cell_angle_alpha	79.353108
_cell_angle_beta	101.663477
_cell_angle_gamma	68.235001
loop_
_atom_site_label
_atom_site_type_symbol
_atom_site_fract_x
_atom_site_fract_y
_atom_site_fract_z
V1	V	2.030522	-0.227172	0.231482
O2	O	1.996019	0.009159	0.213162
O3	O	2.033029	-0.448753	0.243280
O4	O	2.001541	-0.224449	0.326334
O5	O	2.027725	-0.216698	0.129533
V6	V	2.269495	-0.198813	0.217662
O7	O	2.167268	-0.289380	0.261796
O8	O	2.357848	-0.136605	0.187348
O9	O	2.155385	0.022768	0.205864
O10	O	2.362696	-0.435143	0.235982
O11	O	2.330991	-0.209286	0.319611
O12	O	2.186873	-0.201536	0.122810
V13	V	2.530522	-0.227172	0.231482
O14	O	2.496019	0.009159	0.213162
O15	O	2.533029	-0.448753	0.243280
O16	O	2.501541	-0.224449	0.326334
O17	O	2.527725	-0.216698	0.129533
V18	V	2.769495	-0.198813	0.217662
O19	O	2.667268	-0.289380	0.261796
O20	O	2.857848	-0.136605	0.187348
O21	O	2.655385	0.022768	0.205864
O22	O	2.862696	-0.435143	0.235982
O23	O	2.830991	-0.209286	0.319611
O24	O	2.686873	-0.201536	0.122810
C25	C	1.962181	-0.502745	0.243081
C26	C	2.004841	-0.683896	0.253360
C27	C	1.922015	-0.216621	0.349023
C28	C	1.939138	-0.215861	0.426653
C29	C	2.057906	0.076752	0.206061
C30	C	2.004864	0.257901	0.195787
C31	C	2.098071	-0.209369	0.100117
C32	C	2.070566	-0.210121	0.022486
C33	C	2.462181	-0.502745	0.243081
C34	C	2.504841	-0.683896	0.253360
C35	C	2.422015	-0.216621	0.349023
C36	C	2.439138	-0.215861	0.426653
C37	C	2.039055	-0.223684	0.467170
C38	C	2.055144	-0.222970	0.540112
C39	C	1.971319	-0.214466	0.572538
C40	C	1.871385	-0.206633	0.532011
C41	C	1.855295	-0.207330	0.459069
C42	C	1.950597	-0.303070	0.697164
C43	C	1.966694	-0.302383	0.770106
C44	C	2.020942	-0.212306	0.797515
C45	C	2.059114	-0.122938	0.751977
C46	C	2.043024	-0.123636	0.679034
C47	C	1.988756	-0.213707	0.651631
C48	C	2.138311	-0.219352	0.917123
C49	C	2.154395	-0.218627	0.990065
C50	C	1.970637	-0.202307	0.981965
C51	C	1.954552	-0.203015	0.909023
C52	C	2.038395	-0.211546	0.876607
C53	C	2.557906	0.076752	0.206061
C54	C	2.504864	0.257901	0.195787
C55	C	2.598071	-0.209369	0.100117
C56	C	2.570566	-0.210121	0.022486
C57	C	2.616782	-0.777302	0.262178
C58	C	2.656884	-0.947517	0.271847
C59	C	2.585042	-1.024321	0.272693
C60	C	2.473092	-0.930902	0.263876
C61	C	2.432994	-0.760692	0.254212
C62	C	2.539058	-0.223657	0.467160
C63	C	2.555156	-0.222921	0.540099
C64	C	2.471335	-0.214401	0.572532
C65	C	2.371406	-0.206600	0.532020
C66	C	2.355306	-0.207324	0.459080
C67	C	2.565417	0.351306	0.186971
C68	C	2.515587	0.521520	0.177305
C69	C	2.405206	0.598323	0.176461
C70	C	2.344648	0.504906	0.185276
C71	C	2.394476	0.334697	0.194936
C72	C	2.472153	-0.218622	-0.009930
C73	C	2.446290	-0.219309	-0.082875
C74	C	2.518844	-0.211507	-0.123401
C75	C	2.617264	-0.203000	-0.090980
C76	C	2.643122	-0.202301	-0.018038
H77	H	1.972268	-0.653341	0.138617
C78	C	2.048875	-0.803799	0.330597
H79	H	2.072709	-0.913912	0.327622
H80	H	2.109334	-0.791091	0.358464
H81	H	1.991732	-0.780380	0.353350
H82	H	2.364646	0.736920	0.168594
C83	C	1.878413	-0.192907	1.017616
H84	H	1.816594	-0.188330	0.983033
H85	H	1.904909	-0.287796	1.058017
H86	H	1.856820	-0.096748	1.033781
C87	C	2.338041	-0.228698	-0.118523
H88	H	2.333017	-0.227983	-0.167771
H89	H	2.337454	-0.327465	-0.092789
H90	H	2.276865	-0.136415	-0.117011
H91	H	2.107327	-0.230623	0.440781
C92	C	2.394077	-1.015400	0.264801
H93	H	2.433999	-1.130143	0.271810
H94	H	2.362522	-0.999310	0.303423
H95	H	2.336970	-0.968890	0.219724
C96	C	2.165069	-0.231616	0.584694
H97	H	2.212702	-0.236815	0.554943
H98	H	2.151129	-0.136179	0.601218
H99	H	2.199206	-0.327227	0.625420
H100	H	2.655297	0.288796	0.187657
C101	C	2.223237	0.589402	0.184356
H102	H	2.202250	0.704144	0.177349
H103	H	2.177258	0.573318	0.145733
H104	H	2.215308	0.542887	0.229433
H105	H	2.273940	-0.200979	0.426106
H106	H	2.074103	-0.050867	0.641959
H107	H	2.617707	-1.162918	0.280563
H108	H	2.564913	0.597557	0.170130
C109	C	2.327862	0.231964	0.204645
H110	H	2.254993	0.302091	0.202766
H111	H	2.324727	0.180414	0.166737
H112	H	2.362759	0.150024	0.250435
C113	C	2.392327	-0.227189	0.034633
H114	H	2.330010	-0.232330	0.004869
H115	H	2.429124	-0.322771	0.075368
H116	H	2.368577	-0.131718	0.051141
C117	C	2.118784	-0.023842	0.782115
H118	H	2.122890	-0.036205	0.832076
H119	H	2.191344	-0.063617	0.777380
H120	H	2.078913	0.089445	0.755490
H121	H	2.206580	-0.226292	0.890729
C122	C	2.490394	-0.212296	-0.203632
H123	H	2.421395	-0.218495	-0.217126
H124	H	2.485833	-0.113931	-0.233749
H125	H	2.546399	-0.304983	-0.209514
H126	H	2.341841	-0.684651	0.247029
C127	C	2.631268	-0.233020	0.431496
H128	H	2.693072	-0.237539	0.466072
H129	H	2.652883	-0.329159	0.415324
H130	H	2.604742	-0.138106	0.391096
H131	H	2.303165	-0.199664	0.558438
H132	H	2.676329	-0.196643	-0.123988
H133	H	2.235758	-0.224986	1.023051
C134	C	2.695819	-0.692844	0.261253
H135	H	2.655917	-0.578090	0.254230
H136	H	2.752928	-0.739366	0.306324
H137	H	2.727366	-0.708958	0.222625
C138	C	2.665086	-0.231531	0.584653
H139	H	2.712702	-0.236741	0.554891
H140	H	2.651145	-0.136074	0.601162
H141	H	2.699242	-0.327123	0.625389
C142	C	2.751385	-0.192972	0.017618
H143	H	2.756404	-0.193664	0.066863
H144	H	2.812544	-0.285260	0.016102
H145	H	2.751989	-0.094207	-0.008113
H146	H	1.873194	-0.196662	0.876036
C147	C	1.924712	-0.400683	0.820195
H148	H	1.942076	-0.387386	0.867564
H149	H	1.846878	-0.361127	0.801026
H150	H	1.959301	-0.514200	0.822905
C151	C	1.890930	-0.402173	0.667022
H152	H	1.870519	-0.455317	0.704592
H153	H	1.826521	-0.329659	0.628002
H154	H	1.938958	-0.482710	0.649890
C155	C	2.489052	-0.213609	0.652765
H156	H	2.424822	-0.207408	0.666284
H157	H	2.550691	-0.311978	0.682869
H158	H	2.502561	-0.120926	0.658637
H159	H	1.803134	-0.199703	0.558416
H160	H	2.748040	-1.023555	0.279023
H161	H	1.773926	-0.200948	0.426078
