data_functionalizedCrystal
_audit_creation_method	'MofGen! by Chris Wilmer'
_symmetry_space_group_name_H-M	'P1'
_symmetry_Int_Tables_number	1
_symmetry_cell_setting	triclinic
loop_
_symmetry_equiv_pos_as_xyz
  x,y,z
_cell_length_a	16.992701
_cell_length_b	14.044190
_cell_length_c	15.455313
_cell_angle_alpha	92.904485
_cell_angle_beta	87.136501
_cell_angle_gamma	91.929473
loop_
_atom_site_label
_atom_site_type_symbol
_atom_site_fract_x
_atom_site_fract_y
_atom_site_fract_z
O1	O	1.057692	0.198141	-0.072154
O2	O	0.829252	0.195927	-0.072154
O3	O	0.940039	0.058790	-0.072137
O4	O	0.946904	0.335278	-0.072171
O5	O	0.933702	0.066598	0.072125
O6	O	0.822914	0.203735	0.072107
O7	O	1.051354	0.205949	0.072108
Cu8	Cu	0.936555	0.205555	0.085280
Cu9	Cu	0.944051	0.196321	-0.085326
O10	O	0.940567	0.343086	0.072090
C11	C	0.796671	0.196979	-0.000023
C12	C	0.709031	0.188472	-0.000022
C13	C	0.216072	0.131308	-0.000018
C14	C	0.298418	0.139309	-0.000014
C15	C	0.336266	0.229407	-0.000029
C16	C	0.291762	0.311509	-0.000040
C17	C	0.209418	0.303507	-0.000038
C18	C	0.582183	0.262572	-0.000031
C19	C	0.664534	0.270568	-0.000035
C20	C	0.671184	0.098367	-0.000008
C21	C	0.588838	0.090373	-0.000011
C22	C	0.544341	0.172475	-0.000017
N23	N	0.420437	0.237588	-0.000028
N24	N	0.460172	0.164294	-0.000013
C25	C	0.933868	0.027152	-0.000003
C26	C	0.924911	-0.078751	0.000004
C27	C	0.972059	-0.325469	-0.000030
C28	C	0.908551	-0.272650	-0.000024
C29	C	0.917656	-0.164755	-0.000008
C30	C	0.962955	-0.433374	-0.000045
C31	C	1.083935	0.204896	-0.000025
C32	C	1.171575	0.213404	-0.000031
C33	C	0.946738	0.374723	-0.000045
C34	C	0.955695	0.480627	-0.000058
N35	N	0.931290	0.212049	0.205274
N36	N	0.949322	0.189820	-0.205321
C37	C	0.978375	0.153813	0.250676
C38	C	0.974401	0.158733	0.341483
C39	C	0.923344	0.221896	0.386887
C40	C	0.876253	0.280134	0.341480
C41	C	0.880224	0.275208	0.250674
C42	C	0.906202	0.243133	0.658466
C43	C	0.902236	0.248056	0.749278
C44	C	1.000384	0.126654	0.749275
C45	C	1.004354	0.121737	0.658468
C46	C	0.957260	0.179972	0.613068
N47	N	0.919282	0.226929	0.479707
N48	N	0.961318	0.174933	0.520250
H49	H	0.173189	0.370359	-0.000045
C50	C	1.060512	0.052255	0.608520
C51	C	1.112309	-0.011812	0.658452
C52	C	1.168470	-0.081290	0.608502
C53	C	1.172834	-0.086702	0.508619
C54	C	1.121035	-0.022632	0.458681
C55	C	1.064874	0.046846	0.508632
H56	H	1.109081	-0.007808	0.732396
H57	H	1.206815	-0.128719	0.645469
H58	H	1.214407	-0.138134	0.471642
H59	H	1.124264	-0.026636	0.384737
H60	H	1.026530	0.094275	0.471665
H61	H	0.322584	0.384869	-0.000047
H62	H	0.867858	0.290552	0.621509
C63	C	0.825857	-0.321016	-0.000018
C64	C	0.797346	-0.383802	0.074894
C65	C	0.714654	-0.432171	0.074908
C66	C	0.660475	-0.417754	0.000009
C67	C	0.688985	-0.354965	-0.074908
C68	C	0.771677	-0.306596	-0.074922
H69	H	0.837454	-0.394478	0.130344
H70	H	0.693549	-0.478652	0.130367
H71	H	0.599262	-0.453559	0.000019
H72	H	0.648877	-0.344289	-0.130358
H73	H	0.792782	-0.260115	-0.130381
C74	C	1.052179	0.062590	0.799215
C75	C	1.142602	0.070370	0.786706
C76	C	1.194397	0.006300	0.836644
C77	C	1.155770	-0.065550	0.899093
C78	C	1.065342	-0.073332	0.911605
C79	C	1.013547	-0.009262	0.861666
H80	H	1.171200	0.123560	0.740475
H81	H	1.261338	0.012061	0.827382
H82	H	1.194112	-0.112978	0.936060
H83	H	1.036743	-0.126522	0.957836
H84	H	0.946606	-0.015024	0.870929
C85	C	0.846066	0.317538	0.799221
C86	C	0.794265	0.381590	0.749280
C87	C	0.738099	0.451070	0.799221
C88	C	0.733734	0.456497	0.899104
C89	C	0.785537	0.392442	0.949051
C90	C	0.841703	0.322962	0.899109
H91	H	0.797494	0.377575	0.675336
H92	H	0.699751	0.498488	0.762247
H93	H	0.692157	0.507929	0.936073
H94	H	0.782308	0.396457	1.022995
H95	H	0.880051	0.275544	0.936084
C96	C	0.347362	0.048999	-0.000002
C97	C	0.401590	0.034868	0.074916
C98	C	0.450532	-0.055448	0.074931
C99	C	0.445246	-0.131632	0.000028
C100	C	0.391015	-0.117503	-0.074895
C101	C	0.342073	-0.027187	-0.074910
H102	H	0.405506	0.091267	0.130368
H103	H	0.490677	-0.065906	0.130394
H104	H	0.481475	-0.198489	0.000039
H105	H	0.387100	-0.173902	-0.130347
H106	H	0.301929	-0.016729	-0.130373
C107	C	0.533249	0.352886	-0.000042
C108	C	0.545119	0.420957	-0.074965
C109	C	0.496182	0.511277	-0.074975
C110	C	0.435374	0.533526	-0.000062
C111	C	0.423501	0.465453	0.074867
C112	C	0.472438	0.375133	0.074877
H113	H	0.590135	0.404489	-0.130426
H114	H	0.504972	0.561669	-0.130443
H115	H	0.399148	0.600386	-0.000069
H116	H	0.378485	0.481921	0.130328
H117	H	0.463648	0.324741	0.130345
C118	C	1.054745	-0.277099	-0.000010
C119	C	1.115509	-0.299569	-0.074914
C120	C	1.198194	-0.251187	-0.074888
C121	C	1.220115	-0.180333	0.000041
C122	C	1.159350	-0.157859	0.074950
C123	C	1.076665	-0.206242	0.074925
H124	H	1.099282	-0.352022	-0.130386
H125	H	1.243176	-0.267824	-0.130342
H126	H	1.281324	-0.144517	0.000060
H127	H	1.175577	-0.105406	0.130423
H128	H	1.031683	-0.189605	0.130378
C129	C	0.820089	0.349615	0.391419
C130	C	0.815757	0.355090	0.491302
C131	C	0.759594	0.424575	0.541239
C132	C	0.707761	0.488586	0.491293
C133	C	0.712090	0.483114	0.391405
C134	C	0.768254	0.413628	0.341468
H135	H	0.854129	0.307703	0.528280
H136	H	0.756389	0.428626	0.615183
H137	H	0.666185	0.540024	0.528259
H138	H	0.673719	0.530501	0.354427
H139	H	0.771459	0.409578	0.267524
H140	H	0.185263	0.057940	-0.000012
H141	H	0.558028	0.017006	0.000001
C142	C	0.720131	0.008060	0.000008
C143	C	0.708260	-0.060009	0.074934
C144	C	0.757207	-0.150320	0.074955
C145	C	0.818025	-0.172562	0.000050
C146	C	0.829899	-0.104492	-0.074881
C147	C	0.780952	-0.014181	-0.074902
H148	H	0.663237	-0.043545	0.130388
H149	H	0.748417	-0.200710	0.130424
H150	H	0.854258	-0.239416	0.000066
H151	H	0.874922	-0.120956	-0.130335
H152	H	0.789742	0.036209	-0.130372
H153	H	0.695346	0.343940	-0.000035
H154	H	1.019955	0.102383	0.213714
H155	H	1.012741	0.111312	0.378449
H156	H	0.841880	0.322629	0.213709
