data_functionalizedCrystal
_audit_creation_method	'MofGen! by Chris Wilmer'
_symmetry_space_group_name_H-M	'P1'
_symmetry_Int_Tables_number	1
_symmetry_cell_setting	triclinic
loop_
_symmetry_equiv_pos_as_xyz
  x,y,z
_cell_length_a	18.760492
_cell_length_b	20.016444
_cell_length_c	20.016444
_cell_angle_alpha	90.002879
_cell_angle_beta	60.001167
_cell_angle_gamma	60.001247
loop_
_atom_site_label
_atom_site_type_symbol
_atom_site_fract_x
_atom_site_fract_y
_atom_site_fract_z
Zr1	Zr	0.780281	-0.087699	0.643554
O2	O	0.928983	-0.194376	0.536876
O3	O	0.631572	-0.054993	0.676260
O4	O	0.780277	-0.194371	0.676254
O5	O	0.780283	0.054942	0.536882
O6	O	0.780283	-0.194371	0.786194
O7	O	0.780277	-0.054998	0.536882
O8	O	0.514276	0.054951	0.786204
O9	O	1.046290	-0.194380	0.536872
O10	O	0.692745	-0.041049	0.772251
O11	O	0.692745	0.040998	0.690204
O12	O	0.867827	-0.123101	0.690198
O13	O	0.867827	-0.041054	0.608151
Zr14	Zr	0.780299	0.087643	0.818896
Zr15	Zr	0.780290	-0.087699	0.818895
Zr16	Zr	0.780290	0.087643	0.643554
Zr17	Zr	0.967372	-0.087705	0.643547
Zr18	Zr	0.593208	0.087649	0.818902
O19	O	0.929008	0.054937	0.786190
O20	O	0.928996	-0.194376	0.786189
O21	O	0.928996	0.054937	0.536877
O22	O	0.631597	0.194320	0.925573
O23	O	0.631585	-0.054993	0.925573
O24	O	0.631585	0.194320	0.676261
O25	O	0.780297	-0.054998	0.925568
O26	O	0.780303	0.194315	0.786195
O27	O	0.780297	0.194315	0.676256
O28	O	0.780303	0.054942	0.925568
O29	O	1.046297	-0.194380	0.676245
O30	O	0.514283	0.194324	0.786204
O31	O	0.514290	0.194324	0.925577
O32	O	0.514283	0.054951	0.925577
O33	O	1.046297	-0.055007	0.536873
O34	O	1.046304	-0.055007	0.676246
O35	O	0.692754	0.123045	0.772252
O36	O	0.692754	0.040998	0.854298
O37	O	0.867835	-0.041055	0.772245
O38	O	0.867835	0.040992	0.690199
C39	C	0.546267	-0.000020	0.731233
C40	C	0.466842	-0.000017	0.731235
C41	C	0.780279	-0.000028	0.511899
C42	C	0.780275	-0.000028	0.437462
C43	C	0.780301	0.219297	0.731226
C44	C	0.780305	0.293734	0.731226
C45	C	0.131048	0.042792	0.688387
C46	C	0.131052	-0.042866	0.774045
C47	C	0.205668	-0.042861	0.774051
C48	C	0.242978	-0.000030	0.731223
C49	C	0.205672	0.042797	0.688390
C50	C	0.242986	-0.085694	0.816877
C51	C	0.317607	-0.085692	0.816884
C52	C	0.354913	-0.042855	0.774061
C53	C	0.317602	-0.000026	0.731226
C54	C	0.354912	0.042805	0.688399
C55	C	0.317598	0.085640	0.645568
C56	C	0.242979	0.085633	0.645566
C57	C	0.429532	-0.042849	0.774063
C58	C	0.429537	0.042809	0.688402
C59	C	1.014313	-0.000036	0.731217
C60	C	1.093738	-0.000039	0.731214
C61	C	0.780279	-0.219353	0.731224
C62	C	0.780275	-0.293790	0.731224
C63	C	0.871684	0.422171	0.688392
C64	C	0.871680	0.492116	0.688389
C65	C	0.688889	0.577772	0.774059
C66	C	0.688894	0.507827	0.774056
C67	C	0.780295	0.430027	0.731225
C68	C	0.780285	0.569917	0.731225
C69	C	0.780280	0.645755	0.731222
C70	C	0.780301	0.354184	0.731226
C71	C	0.688896	0.042805	0.309026
C72	C	0.688900	0.042807	0.239081
C73	C	0.871691	-0.042862	0.153425
C74	C	0.871686	-0.042859	0.223369
C75	C	0.780285	-0.000027	0.301170
C76	C	0.780295	-0.000029	0.161280
C77	C	0.780300	-0.000027	0.085442
C78	C	0.780280	-0.000028	0.377012
C79	C	0.780301	-0.000028	0.950550
C80	C	0.780305	-0.000028	1.024987
C81	C	0.546279	-0.000020	0.950558
C82	C	0.466857	-0.000018	1.024998
C83	C	0.546279	0.219305	0.731233
C84	C	0.466857	0.293745	0.731236
C85	C	0.546290	0.219305	0.950559
C86	C	0.466872	0.293745	1.024999
C87	C	1.014290	-0.219361	0.511891
C88	C	1.093708	-0.293801	0.437451
C89	C	1.014301	-0.000036	0.511892
C90	C	1.093723	-0.000039	0.437452
C91	C	1.014301	-0.219362	0.731216
C92	C	1.093723	-0.293801	0.731213
C93	C	0.429556	-0.042851	1.017128
C94	C	0.354941	-0.042865	1.087065
C95	C	0.317625	-0.000040	1.164871
C96	C	0.354934	0.042795	1.172740
C97	C	0.429552	0.042804	1.102803
C98	C	0.429565	0.371538	0.774066
C99	C	0.354950	0.441489	0.774065
C100	C	0.317625	0.433645	0.731240
C101	C	0.354925	0.355844	0.688406
C102	C	0.429543	0.285895	0.688402
C103	C	0.429577	0.285875	1.102791
C104	C	0.354966	0.355812	1.172742
C105	C	0.317647	0.433619	1.164899
C106	C	0.354950	0.441487	1.087098
C107	C	0.429564	0.371551	1.017149
C108	C	1.131012	-0.285931	0.359658
C109	C	1.205646	-0.355868	0.289707
C110	C	1.242969	-0.433675	0.297551
C111	C	1.205662	-0.441543	0.375351
C112	C	1.131034	-0.371607	0.445301
C113	C	1.131032	0.042788	0.445322
C114	C	1.205667	0.042782	0.375385
C115	C	1.242986	-0.000045	0.297578
C116	C	1.205674	-0.042877	0.289710
C117	C	1.131045	-0.042876	0.359646
C118	C	1.131024	-0.285931	0.774047
C119	C	1.205639	-0.355869	0.774060
C120	C	1.242956	-0.433675	0.731234
C121	C	1.205647	-0.441544	0.688399
C122	C	1.131029	-0.371607	0.688392
H123	H	0.459908	0.077690	0.653527
Br124	Br	0.995727	0.316587	0.630262
H125	H	0.212611	-0.120571	0.851741
H126	H	0.459951	0.222527	1.109193
H127	H	1.236009	-0.349446	0.226365
H128	H	0.324602	0.349391	1.236085
H129	H	0.614472	0.077690	0.372372
Br130	Br	0.368242	-0.143823	0.875009
Br131	Br	0.304276	0.100914	1.278341
H132	H	1.100662	-0.378024	0.508641
Br133	Br	0.480199	0.382206	0.832197
H134	H	0.614482	0.077686	0.245485
Br135	Br	1.080416	-0.100999	0.348950
H136	H	1.100666	-0.378026	0.653508
Br137	Br	0.995714	0.481449	0.630244
H138	H	0.324553	0.504846	1.080724
H139	H	1.303735	-0.490615	0.240587
H140	H	0.324574	-0.077746	1.080642
Br141	Br	0.995729	-0.100989	0.047838
H142	H	0.347990	0.120509	0.610694
Br143	Br	0.216356	-0.000060	1.259778
Br144	Br	1.256323	-0.547144	0.385982
H145	H	0.946111	-0.077737	0.216966
H146	H	0.324589	0.504830	0.808949
Br147	Br	1.256287	0.100917	0.386083
H148	H	0.256866	0.490609	0.731250
H149	H	1.100653	-0.222584	0.808920
H150	H	1.303754	-0.000039	0.240638
H151	H	0.459938	-0.077735	0.953780
Br152	Br	1.256261	-0.345171	0.832193
H153	H	0.324524	0.349470	0.653538
H154	H	1.100652	0.077669	0.508670
Br155	Br	0.480161	0.100946	1.113499
Br156	Br	1.256330	-0.100994	0.184108
Br157	Br	0.192321	0.143772	0.587456
H158	H	0.459897	0.222555	0.653528
H159	H	0.256891	0.490559	1.221863
H160	H	0.459920	0.377970	0.953809
H161	H	1.303716	-0.490616	0.731247
Br162	Br	1.080373	-0.180345	0.348991
Br163	Br	0.480179	-0.100983	0.832177
H164	H	1.236042	-0.504903	0.653532
Br165	Br	0.080428	-0.101002	0.832155
Br166	Br	0.564851	0.683359	0.832186
Br167	Br	0.080396	0.100936	0.630276
H168	H	0.614470	0.514230	0.808935
