data_functionalizedCrystal
_audit_creation_method	'MofGen! by Chris Wilmer'
_symmetry_space_group_name_H-M	'P1'
_symmetry_Int_Tables_number	1
_symmetry_cell_setting	triclinic
loop_
_symmetry_equiv_pos_as_xyz
  x,y,z
_cell_length_a	10.654550
_cell_length_b	9.065215
_cell_length_c	7.540329
_cell_angle_alpha	89.997549
_cell_angle_beta	90.006486
_cell_angle_gamma	95.250200
loop_
_atom_site_label
_atom_site_type_symbol
_atom_site_fract_x
_atom_site_fract_y
_atom_site_fract_z
O1	O	-1.668658	0.207233	-0.147624
O2	O	-1.303257	0.226977	-0.147595
O3	O	-1.493512	0.002421	-0.147603
O4	O	-1.478403	0.431789	-0.147615
O5	O	-1.493501	0.002418	0.147362
O6	O	-1.303246	0.226974	0.147370
O7	O	-1.668646	0.207230	0.147341
Cu8	Cu	-1.485945	0.217102	0.174288
Cu9	Cu	-1.485958	0.217105	-0.174542
O10	O	-1.478391	0.431786	0.147350
C11	C	-1.256448	0.225526	-0.000109
C12	C	-1.116987	0.221188	-0.000098
C13	C	-1.492055	-0.052559	-0.000123
C14	C	-1.487716	-0.216379	-0.000128
C15	C	-1.715456	0.208681	-0.000149
C16	C	-1.854916	0.213018	-0.000171
C17	C	-1.038024	0.353403	-0.000127
C18	C	-0.906987	0.349319	-0.000158
C19	C	-0.933889	0.080793	-0.000136
C20	C	-1.064924	0.084879	-0.000093
C21	C	-1.090088	0.489713	-0.000132
C22	C	-1.011123	0.621939	-0.000163
C23	C	-0.880086	0.617854	-0.000194
C24	C	-0.828014	0.481544	-0.000193
C25	C	-1.479848	0.486766	-0.000135
C26	C	-1.484188	0.650586	-0.000141
N27	N	-1.485944	0.217099	0.419637
N28	N	-1.485969	0.217097	-0.419890
H29	H	-1.196783	0.493053	-0.000115
H30	H	-1.129218	-0.022782	-0.000074
O31	O	-0.883102	-0.051483	-0.000230
C32	C	-0.693156	-0.176778	-0.000198
C33	C	-0.750502	-0.026874	-0.000124
H34	H	-0.585942	-0.156934	-0.000075
H35	H	-0.725492	-0.242204	-0.123659
H36	H	-0.725593	-0.242185	0.123226
H37	H	-0.718092	0.038653	-0.123464
H38	H	-0.718171	0.038440	0.123419
O39	O	-1.061908	0.754216	-0.000241
C40	C	-1.251850	0.879520	-0.000105
C41	C	-1.194508	0.729613	-0.000057
H42	H	-1.359064	0.859680	0.000081
H43	H	-1.219567	0.944944	-0.123588
H44	H	-1.219354	0.944927	0.123297
H45	H	-1.226976	0.664085	-0.123375
H46	H	-1.226785	0.664302	0.123508
H47	H	-0.815796	0.725519	-0.000202
H48	H	-0.721313	0.478229	-0.000190
