data_functionalizedCrystal
_audit_creation_method	'MofGen! by Chris Wilmer'
_symmetry_space_group_name_H-M	'P1'
_symmetry_Int_Tables_number	1
_symmetry_cell_setting	triclinic
loop_
_symmetry_equiv_pos_as_xyz
  x,y,z
_cell_length_a	13.339070
_cell_length_b	11.026607
_cell_length_c	9.483290
_cell_angle_alpha	81.821508
_cell_angle_beta	97.407157
_cell_angle_gamma	67.892344
loop_
_atom_site_label
_atom_site_type_symbol
_atom_site_fract_x
_atom_site_fract_y
_atom_site_fract_z
O1	O	0.433015	-1.738997	-0.120881
O2	O	0.381626	-1.368388	-0.120884
O3	O	0.252312	-1.511160	-0.120878
O4	O	0.562329	-1.596226	-0.120886
O5	O	0.288852	-1.557374	0.120897
O6	O	0.418167	-1.414603	0.120892
O7	O	0.469555	-1.785212	0.120894
Cu8	Cu	0.447198	-1.604127	0.142969
Cu9	Cu	0.403984	-1.549473	-0.142958
O10	O	0.598870	-1.642440	0.120889
C11	C	0.230276	-1.519897	0.000007
C12	C	0.110173	-1.477063	0.000001
C13	C	0.390416	-1.343092	0.000004
C14	C	0.362155	-1.198863	0.000003
C15	C	0.460765	-1.810507	0.000004
C16	C	0.489024	-1.954735	-0.000004
C17	C	-0.193970	-1.810106	0.000004
C18	C	-0.081126	-1.850356	0.000018
C19	C	-0.033296	-1.757036	0.000014
C20	C	-0.098321	-1.623460	-0.000004
C21	C	-0.211174	-1.583208	-0.000007
C22	C	-0.050500	-1.530138	0.000002
C23	C	-0.115525	-1.396562	-0.000015
C24	C	-0.228367	-1.356316	-0.000019
C25	C	-0.276197	-1.449636	-0.000014
C26	C	0.062354	-1.570390	0.000005
C27	C	0.045150	-1.343492	-0.000006
C28	C	-0.067694	-1.303242	-0.000020
C29	C	0.620905	-1.633702	0.000000
C30	C	0.741007	-1.676534	-0.000003
N31	N	0.477593	-1.642577	0.344075
C32	C	0.440188	-1.151330	-0.000000
C33	C	0.410981	-1.002262	-0.000002
N34	N	0.373582	-1.511030	-0.344064
C35	C	0.412941	-1.560797	0.416305
C36	C	0.438243	-1.592822	0.583710
H37	H	0.115287	-1.679148	0.000020
Br38	Br	0.110055	-1.216837	0.000004
Br39	Br	0.587582	-1.267433	0.000005
H40	H	-0.120653	-1.194481	-0.000034
Br41	Br	0.119852	-1.811662	0.000028
Br42	Br	0.263584	-0.886167	0.000019
H43	H	-0.368084	-1.416870	-0.000031
Br44	Br	-0.316609	-1.175040	-0.000015
H45	H	0.577461	-1.024396	0.000003
Br46	Br	0.214765	-1.082765	0.000023
Br47	Br	0.289469	-1.404570	0.312821
Br48	Br	0.007110	-2.031623	0.000012
H49	H	0.512335	-1.686547	0.645801
H50	H	0.299500	-1.417295	0.593847
H51	H	0.551680	-1.736295	0.406172
H52	H	-0.232923	-1.886074	0.000020
