data_functionalizedCrystal
_audit_creation_method	'MofGen! by Chris Wilmer'
_symmetry_space_group_name_H-M	'P1'
_symmetry_Int_Tables_number	1
_symmetry_cell_setting	triclinic
loop_
_symmetry_equiv_pos_as_xyz
  x,y,z
_cell_length_a	16.974800
_cell_length_b	17.019294
_cell_length_c	15.455313
_cell_angle_alpha	88.788101
_cell_angle_beta	90.973911
_cell_angle_gamma	83.640951
loop_
_atom_site_label
_atom_site_type_symbol
_atom_site_fract_x
_atom_site_fract_y
_atom_site_fract_z
O1	O	1.049320	0.100201	-0.005927
O2	O	1.549320	0.600201	0.494073
O3	O	0.819917	0.112205	-0.022934
O4	O	1.319917	0.612205	0.477066
O5	O	0.940610	-0.008208	-0.005460
O6	O	1.440610	0.491792	0.494540
O7	O	0.928628	0.220613	-0.023401
O8	O	1.428628	0.720613	0.476599
O9	O	0.933708	-0.001351	0.137805
O10	O	1.433708	0.498649	0.637805
O11	O	0.813015	0.119062	0.120331
O12	O	1.313015	0.619062	0.620331
O13	O	1.042418	0.107058	0.137338
O14	O	1.542418	0.607058	0.637338
Cu15	Cu	0.927087	0.113686	0.141916
Cu16	Cu	1.427087	0.613686	0.641916
Cu17	Cu	0.935249	0.105576	-0.027512
Cu18	Cu	1.435249	0.605576	0.472488
O19	O	0.921726	0.227470	0.119864
O20	O	1.421726	0.727470	0.619864
C21	C	0.787105	0.115051	0.046680
C22	C	1.287105	0.615051	0.546680
C23	C	0.699619	0.113307	0.040666
C24	C	1.199619	0.613307	0.540666
C25	C	0.654761	0.116223	0.115936
C26	C	1.154761	0.616223	0.615936
C27	C	0.572560	0.114572	0.110289
C28	C	1.072560	0.614572	0.610289
C29	C	0.535219	0.110010	0.029370
C30	C	1.035219	0.610010	0.529370
C31	C	0.580084	0.107091	-0.045906
C32	C	1.080084	0.607091	0.454094
C33	C	0.662284	0.108736	-0.040258
C34	C	1.162284	0.608736	0.459742
C35	C	0.289781	0.104682	0.004103
C36	C	0.789781	0.604682	0.504103
C37	C	0.207575	0.103039	-0.001540
C38	C	0.707575	0.603039	0.498460
C39	C	0.200057	0.110519	0.154656
C40	C	0.700057	0.610519	0.654656
C41	C	0.282259	0.112169	0.160297
C42	C	0.782259	0.612169	0.660297
C43	C	0.327117	0.109245	0.085021
C44	C	0.827117	0.609245	0.585021
N45	N	0.451196	0.108324	0.023596
N46	N	0.951196	0.608324	0.523596
N47	N	0.411139	0.110925	0.090797
N48	N	0.911139	0.610925	0.590797
C49	C	0.936568	-0.034065	0.068317
C50	C	1.436568	0.465935	0.568317
C51	C	0.934800	-0.121328	0.074709
C52	C	1.434800	0.378672	0.574709
C53	C	0.937733	-0.166057	-0.000382
C54	C	1.437733	0.333943	0.499618
C55	C	0.936066	-0.248049	0.005626
C56	C	1.436066	0.251951	0.505626
C57	C	0.931471	-0.285311	0.086725
C58	C	1.431471	0.214689	0.586725
C59	C	0.928536	-0.240575	0.161821
C60	C	1.428536	0.259425	0.661821
C61	C	0.930197	-0.158584	0.155812
C62	C	1.430197	0.341416	0.655812
C63	C	0.926262	-0.532683	0.108774
C64	C	1.426262	-0.032683	0.608774
C65	C	0.924603	-0.614680	0.114778
C66	C	1.424603	-0.114680	0.614778
C67	C	0.932132	-0.622149	-0.041418
C68	C	1.432132	-0.122149	0.458582
C69	C	0.933798	-0.540157	-0.047419
C70	C	1.433798	-0.040157	0.452581
C71	C	0.930858	-0.495427	0.027676
C72	C	1.430858	0.004573	0.527676
C73	C	0.929770	-0.369120	0.092868
C74	C	1.429770	0.130880	0.592868
C75	C	0.932553	-0.411619	0.021532
C76	C	1.432553	0.088381	0.521532
C77	C	1.075230	0.104211	0.067722
C78	C	1.575230	0.604211	0.567722
C79	C	1.162716	0.105955	0.073730
C80	C	1.662716	0.605955	0.573730
C81	C	0.925767	0.253328	0.046084
C82	C	1.425767	0.753328	0.546084
C83	C	0.927536	0.340590	0.039687
C84	C	1.427536	0.840590	0.539687
N85	N	0.921352	0.119389	0.261082
N86	N	1.421352	0.619389	0.761082
N87	N	0.940990	0.099867	-0.146678
N88	N	1.440990	0.599867	0.353322
C89	C	0.972644	0.068253	0.313900
C90	C	1.472644	0.568253	0.813900
C91	C	0.968314	0.072573	0.404081
C92	C	1.468314	0.572573	0.904081
C93	C	0.912695	0.128035	0.441442
C94	C	1.412695	0.628035	0.941442
C95	C	0.861397	0.179173	0.388618
C96	C	1.361397	0.679173	0.888618
C97	C	0.865724	0.174849	0.298439
C98	C	1.365724	0.674849	0.798439
C99	C	0.894019	0.146681	0.710319
C100	C	1.394019	0.646681	1.210319
C101	C	0.889698	0.151003	0.800505
C102	C	1.389698	0.651003	1.300505
C103	C	0.996614	0.044402	0.815962
C104	C	1.496614	0.544402	1.315962
C105	C	1.000939	0.040085	0.725780
C106	C	1.500939	0.540085	1.225780
C107	C	0.949639	0.091221	0.672963
C108	C	1.449639	0.591221	1.172963
N109	N	0.908269	0.132454	0.533621
N110	N	1.408269	0.632454	1.033621
N111	N	0.954061	0.086798	0.580786
N112	N	1.454061	0.586798	1.080786
H113	H	0.163525	0.112898	0.215941
H114	H	0.663525	0.612898	0.715941
C115	C	0.809304	0.231109	0.240339
C116	C	1.309304	0.731109	0.740339
N117	N	0.766808	0.273487	0.196579
N118	N	1.266808	0.773487	0.696579
C119	C	0.523217	0.117799	0.193092
C120	C	1.023217	0.617799	0.693092
N121	N	0.486051	0.120235	0.255462
N122	N	0.986051	0.620235	0.755462
C123	C	0.939365	-0.297258	-0.076974
C124	C	1.439365	0.202742	0.423026
N125	N	0.941876	-0.334324	-0.139191
N126	N	1.441876	0.165676	0.360809
H127	H	0.816107	0.224329	0.419042
H128	H	1.316107	0.724329	0.919042
H129	H	0.844404	0.196170	0.830919
H130	H	1.344404	0.696170	1.330919
H131	H	0.685157	0.119945	0.181829
H132	H	1.185157	0.619945	0.681829
H133	H	0.936289	-0.381277	-0.044499
H134	H	1.436289	0.118723	0.455501
C135	C	0.938852	-0.499176	-0.136635
C136	C	1.438852	0.000824	0.363365
N137	N	0.942661	-0.468309	-0.203833
N138	N	1.442661	0.031691	0.296167
H139	H	0.177174	0.099326	-0.067438
H140	H	0.677174	0.599326	0.432562
C141	C	0.323328	0.117184	0.249314
C142	C	0.823328	0.617184	0.749314
N143	N	0.354262	0.120962	0.316364
N144	N	0.854262	0.620962	0.816364
H145	H	0.934524	-0.658576	-0.102557
H146	H	1.434524	-0.158576	0.397443
C147	C	1.024721	0.016300	0.462177
C148	C	1.524721	0.516300	0.962177
N149	N	1.067202	-0.026096	0.505935
N150	N	1.567202	0.473904	1.005935
C151	C	0.837689	0.203035	0.652232
C152	C	1.337689	0.703035	1.152232
N153	N	0.795295	0.245520	0.608477
N154	N	1.295295	0.745520	1.108477
C155	C	0.919546	-0.655665	0.203997
C156	C	1.419546	-0.155665	0.703997
N157	N	0.915738	-0.686536	0.271193
N158	N	1.415738	-0.186536	0.771193
H159	H	0.326295	0.102299	-0.057192
H160	H	0.826295	0.602299	0.442808
H161	H	0.923884	-0.496276	0.169924
H162	H	1.423884	0.003724	0.669924
H163	H	0.924790	-0.270919	0.227853
H164	H	1.424790	0.229081	0.727853
C165	C	0.924716	-0.410115	0.182075
C166	C	1.424716	0.089885	0.682075
N167	N	0.920906	-0.440996	0.249266
N168	N	1.420906	0.059004	0.749266
C169	C	1.062120	-0.020931	0.684690
C170	C	1.562120	0.479069	1.184690
N171	N	1.108203	-0.066888	0.653741
N172	N	1.608203	0.433112	1.153741
C173	C	1.033829	0.007240	0.272811
C174	C	1.533829	0.507240	0.772811
N175	N	1.079913	-0.038719	0.241866
N176	N	1.579913	0.461281	0.741866
C177	C	0.942787	-0.125078	-0.089598
C178	C	1.442787	0.374922	0.410402
N179	N	0.946590	-0.094214	-0.156799
N180	N	1.446590	0.405786	0.343201
H181	H	0.927798	-0.122164	0.216958
H182	H	1.427798	0.377836	0.716958
H183	H	1.038380	0.002768	0.858973
H184	H	1.538380	0.502768	1.358973
H185	H	0.698807	0.106363	-0.101551
H186	H	1.198807	0.606363	0.398449
C187	C	0.539005	0.102070	-0.134918
C188	C	1.039005	0.602070	0.365082
N189	N	0.508066	0.098291	-0.201964
N190	N	1.008066	0.598291	0.298036
