data_functionalizedCrystal
_audit_creation_method	'MofGen! by Chris Wilmer'
_symmetry_space_group_name_H-M	'P1'
_symmetry_Int_Tables_number	1
_symmetry_cell_setting	triclinic
loop_
_symmetry_equiv_pos_as_xyz
  x,y,z
_cell_length_a	21.395362
_cell_length_b	18.050589
_cell_length_c	21.395355
_cell_angle_alpha	89.987098
_cell_angle_beta	89.956060
_cell_angle_gamma	90.044101
loop_
_atom_site_label
_atom_site_type_symbol
_atom_site_fract_x
_atom_site_fract_y
_atom_site_fract_z
Zn1	Zn	0.957870	-0.295431	-0.354610
Zn2	Zn	1.207870	-0.045431	-0.104610
Zn3	Zn	1.457870	0.204569	0.145390
Zn4	Zn	1.707870	0.454569	0.395390
Zn5	Zn	0.957777	-0.419603	-0.249843
Zn6	Zn	1.207777	-0.169603	0.000157
Zn7	Zn	1.457777	0.080397	0.250157
Zn8	Zn	1.707777	0.330397	0.500157
Zn9	Zn	0.853085	-0.295465	-0.249811
Zn10	Zn	1.103085	-0.045465	0.000189
Zn11	Zn	1.353085	0.204535	0.250189
Zn12	Zn	1.603085	0.454535	0.500189
Zn13	Zn	0.853059	-0.419618	-0.354548
Zn14	Zn	1.103059	-0.169618	-0.104548
Zn15	Zn	1.353059	0.080382	0.145452
Zn16	Zn	1.603059	0.330382	0.395452
O17	O	0.905448	-0.357529	-0.302203
O18	O	1.155448	-0.107529	-0.052203
O19	O	1.405448	0.142471	0.197797
O20	O	1.655448	0.392471	0.447797
O21	O	1.045536	-0.311882	-0.340752
O22	O	1.295536	-0.061882	-0.090752
O23	O	1.545536	0.188118	0.159248
O24	O	1.795536	0.438118	0.409248
O25	O	0.943862	-0.403144	-0.162161
O26	O	1.193862	-0.153144	0.087839
O27	O	1.443862	0.096856	0.337839
O28	O	1.693862	0.346856	0.587839
O29	O	0.867035	-0.191536	-0.263726
O30	O	1.117035	0.058464	-0.013726
O31	O	1.367035	0.308464	0.236274
O32	O	1.617035	0.558464	0.486274
O33	O	1.045468	-0.403110	-0.263780
O34	O	1.295468	-0.153110	-0.013780
O35	O	1.545468	0.096890	0.236220
O36	O	1.795468	0.346890	0.486220
O37	O	0.944020	-0.191511	-0.340721
O38	O	1.194020	0.058489	-0.090721
O39	O	1.444020	0.308489	0.159279
O40	O	1.694020	0.558489	0.409279
O41	O	0.866945	-0.311940	-0.162138
O42	O	1.116945	-0.061940	0.087862
O43	O	1.366945	0.188060	0.337862
O44	O	1.616945	0.438060	0.587862
O45	O	0.765404	-0.311955	-0.263665
O46	O	1.015404	-0.061955	-0.013665
O47	O	1.265404	0.188045	0.236335
O48	O	1.515404	0.438045	0.486335
O49	O	0.866990	-0.403136	-0.442234
O50	O	1.116990	-0.153136	-0.192234
O51	O	1.366990	0.096864	0.057766
O52	O	1.616990	0.346864	0.307766
O53	O	0.765385	-0.403170	-0.340615
O54	O	1.015385	-0.153170	-0.090615
O55	O	1.265385	0.096830	0.159385
O56	O	1.515385	0.346830	0.409385
O57	O	0.943995	-0.311896	-0.442280
O58	O	1.193995	-0.061896	-0.192280
O59	O	1.443995	0.188104	0.057720
O60	O	1.693995	0.438104	0.307720
O61	O	0.943836	-0.523529	-0.263719
O62	O	1.193836	-0.273529	-0.013719
O63	O	1.443836	-0.023529	0.236281
O64	O	1.693836	0.226471	0.486281
O65	O	0.866900	-0.523540	-0.340645
O66	O	1.116900	-0.273540	-0.090645
O67	O	1.366900	-0.023540	0.159355
O68	O	1.616900	0.226460	0.409355
C69	C	0.742660	-0.357568	-0.302130
C70	C	0.992660	-0.107568	-0.052130
C71	C	1.242660	0.142432	0.197870
C72	C	1.492660	0.392432	0.447870
C73	C	0.673019	-0.357603	-0.302114
C74	C	0.923019	-0.107603	-0.052114
C75	C	1.173019	0.142397	0.197886
C76	C	1.423019	0.392397	0.447886
C77	C	0.640312	-0.405161	-0.342121
C78	C	0.890312	-0.155161	-0.092121
C79	C	1.140312	0.094839	0.157879
C80	C	1.390312	0.344839	0.407879
C81	C	0.574877	-0.405143	-0.342149
C82	C	0.824877	-0.155143	-0.092149
C83	C	1.074877	0.094857	0.157851
C84	C	1.324877	0.344857	0.407851
C85	C	0.542151	-0.357574	-0.302159
C86	C	0.792151	-0.107574	-0.052159
C87	C	1.042151	0.142426	0.197841
C88	C	1.292151	0.392426	0.447841
C89	C	0.574865	-0.310007	-0.262148
C90	C	0.824865	-0.060007	-0.012148
C91	C	1.074865	0.189993	0.237852
C92	C	1.324865	0.439993	0.487852
C93	C	0.640300	-0.310021	-0.262126
C94	C	0.890300	-0.060021	-0.012126
C95	C	1.140300	0.189979	0.237874
C96	C	1.390300	0.439979	0.487874
C97	C	0.438426	-0.351592	-0.245753
C98	C	0.688426	-0.101592	0.004247
C99	C	0.938426	0.148408	0.254247
C100	C	1.188426	0.398408	0.504247
C101	C	0.372993	-0.351583	-0.245774
C102	C	0.622993	-0.101583	0.004226
C103	C	0.872993	0.148417	0.254226
C104	C	1.122993	0.398417	0.504226
C105	C	0.340330	-0.357526	-0.302228
C106	C	0.590330	-0.107526	-0.052228
C107	C	0.840330	0.142474	0.197772
C108	C	1.090330	0.392474	0.447772
C109	C	0.373108	-0.363494	-0.358662
C110	C	0.623108	-0.113494	-0.108662
C111	C	0.873108	0.136506	0.141338
C112	C	1.123108	0.386506	0.391338
C113	C	0.438542	-0.363508	-0.358640
C114	C	0.688542	-0.113508	-0.108640
C115	C	0.938542	0.136492	0.141360
C116	C	1.188542	0.386492	0.391360
C117	C	0.471198	-0.357553	-0.302179
C118	C	0.721198	-0.107553	-0.052179
C119	C	0.971198	0.142447	0.197821
C120	C	1.221198	0.392447	0.447821
C121	C	0.236671	-0.405067	-0.342269
C122	C	0.486671	-0.155067	-0.092269
C123	C	0.736671	0.094933	0.157731
C124	C	0.986671	0.344933	0.407731
C125	C	0.171234	-0.405044	-0.342298
C126	C	0.421234	-0.155044	-0.092298
C127	C	0.671234	0.094956	0.157702
C128	C	0.921234	0.344956	0.407702
C129	C	0.171224	-0.309911	-0.262291
C130	C	0.421224	-0.059911	-0.012291
C131	C	0.671224	0.190089	0.237709
C132	C	0.921224	0.440089	0.487709
C133	C	0.236659	-0.309931	-0.262268
C134	C	0.486659	-0.059931	-0.012268
C135	C	0.736659	0.190069	0.237732
C136	C	0.986659	0.440069	0.487732
C137	C	0.269379	-0.357513	-0.302256
C138	C	0.519379	-0.107513	-0.052256
C139	C	0.769379	0.142487	0.197744
C140	C	1.019379	0.392487	0.447744
C141	C	0.905372	-0.550481	-0.302192
C142	C	1.155372	-0.300481	-0.052192
C143	C	1.405372	-0.050481	0.197808
C144	C	1.655372	0.199519	0.447808
C145	C	0.905397	-0.633027	-0.302209
C146	C	1.155397	-0.383027	-0.052209
C147	C	1.405397	-0.133027	0.197791
C148	C	1.655397	0.116973	0.447791
C149	C	0.863601	-0.832511	-0.344027
C150	C	1.113601	-0.582511	-0.094027
C151	C	1.363601	-0.332511	0.155973
C152	C	1.613601	-0.082511	0.405973
C153	C	0.848322	-0.881943	-0.286848
C154	C	1.098322	-0.631943	-0.036848
C155	C	1.348322	-0.381943	0.213152
C156	C	1.598322	-0.131943	0.463152
C157	C	0.905459	-0.784157	-0.302217
C158	C	1.155459	-0.534157	-0.052217
C159	C	1.405459	-0.284157	0.197783
C160	C	1.655459	-0.034157	0.447783
C161	C	0.920768	-0.881806	-0.359402
C162	C	1.170768	-0.631806	-0.109402
C163	C	1.420768	-0.381806	0.140598
C164	C	1.670768	-0.131806	0.390598
C165	C	0.905517	-0.930142	-0.302230
C166	C	1.155517	-0.680142	-0.052230
C167	C	1.405517	-0.430142	0.197770
C168	C	1.655517	-0.180142	0.447770
C169	C	0.890151	-0.832503	-0.245009
C170	C	1.140151	-0.582503	0.004991
C171	C	1.390151	-0.332503	0.254991
C172	C	1.640151	-0.082503	0.504991
C173	C	0.962623	-0.832361	-0.317601
C174	C	1.212623	-0.582361	-0.067601
C175	C	1.462623	-0.332361	0.182399
C176	C	1.712623	-0.082361	0.432399
C177	C	0.947366	-0.881772	-0.260383
C178	C	1.197366	-0.631772	-0.010383
C179	C	1.447366	-0.381772	0.239617
C180	C	1.697366	-0.131772	0.489617
C181	C	0.905424	-0.700059	-0.302211
C182	C	1.155424	-0.450059	-0.052211
C183	C	1.405424	-0.200059	0.197789
C184	C	1.655424	0.049941	0.447789
C185	C	0.905552	-1.014239	-0.302230
C186	C	1.155552	-0.764239	-0.052230
C187	C	1.405552	-0.514239	0.197770
C188	C	1.655552	-0.264239	0.447770
C189	C	1.068871	-0.357490	-0.302276
C190	C	1.318871	-0.107490	-0.052276
C191	C	1.568871	0.142510	0.197724
C192	C	1.818871	0.392510	0.447724
C193	C	1.138513	-0.357474	-0.302307
C194	C	1.388513	-0.107474	-0.052307
C195	C	1.638513	0.142526	0.197693
C196	C	1.888513	0.392526	0.447693
C197	C	0.905500	-0.357514	-0.465626
C198	C	1.155500	-0.107514	-0.215626
C199	C	1.405500	0.142486	0.034374
C200	C	1.655500	0.392486	0.284374
C201	C	0.905522	-0.357508	-0.535268
C202	C	1.155522	-0.107508	-0.285268
C203	C	1.405522	0.142492	-0.035268
C204	C	1.655522	0.392492	0.214732
C205	C	0.905541	-0.163823	-0.302227
C206	C	1.155541	0.086177	-0.052227
C207	C	1.405541	0.336177	0.197773
C208	C	1.655541	0.586177	0.447773
C209	C	0.905581	-0.081278	-0.302237
C210	C	1.155581	0.168722	-0.052237
C211	C	1.405581	0.418722	0.197763
C212	C	1.655581	0.668722	0.447763
C213	C	0.945617	-0.309997	-0.568006
C214	C	1.195617	-0.059997	-0.318006
C215	C	1.445617	0.190003	-0.068006
C216	C	1.695617	0.440003	0.181994
C217	C	0.945616	-0.309965	-0.633441
C218	C	1.195616	-0.059965	-0.383441
C219	C	1.445616	0.190035	-0.133441
C220	C	1.695616	0.440035	0.116559
C221	C	0.905527	-0.357457	-0.666136
C222	C	1.155527	-0.107457	-0.416136
C223	C	1.405527	0.142543	-0.166136
C224	C	1.655527	0.392543	0.083864
C225	C	0.865425	-0.404971	-0.633390
C226	C	1.115425	-0.154971	-0.383390
C227	C	1.365425	0.095029	-0.133390
C228	C	1.615425	0.345029	0.116610
C229	C	0.865422	-0.404996	-0.567956
C230	C	1.115422	-0.154996	-0.317956
C231	C	1.365422	0.095004	-0.067956
C232	C	1.615422	0.345004	0.182044
C233	C	0.900554	-0.424328	-0.769805
C234	C	1.150554	-0.174328	-0.519805
C235	C	1.400554	0.075672	-0.269805
C236	C	1.650554	0.325672	-0.019805
C237	C	0.900560	-0.424304	-0.835238
C238	C	1.150560	-0.174304	-0.585238
C239	C	1.400560	0.075696	-0.335238
C240	C	1.650560	0.325696	-0.085238
C241	C	0.905531	-0.357379	-0.867957
C242	C	1.155531	-0.107379	-0.617957
C243	C	1.405531	0.142621	-0.367957
C244	C	1.655531	0.392621	-0.117957
C245	C	0.910508	-0.290475	-0.835234
C246	C	1.160508	-0.040475	-0.585234
C247	C	1.410508	0.209525	-0.335234
C248	C	1.660508	0.459525	-0.085234
C249	C	0.910505	-0.290501	-0.769800
C250	C	1.160505	-0.040501	-0.519800
C251	C	1.410505	0.209499	-0.269800
C252	C	1.660505	0.459499	-0.019800
C253	C	0.905525	-0.357435	-0.737088
C254	C	1.155525	-0.107435	-0.487088
C255	C	1.405525	0.142565	-0.237088
C256	C	1.655525	0.392565	0.012912
C257	C	0.945627	-0.309829	-0.971647
C258	C	1.195627	-0.059829	-0.721647
C259	C	1.445627	0.190171	-0.471647
C260	C	1.695627	0.440171	-0.221647
C261	C	0.945621	-0.309796	-1.037084
C262	C	1.195621	-0.059796	-0.787084
C263	C	1.445621	0.190204	-0.537084
C264	C	1.695621	0.440204	-0.287084
C265	C	0.865434	-0.404809	-1.037032
C266	C	1.115434	-0.154809	-0.787032
C267	C	1.365434	0.095191	-0.537032
C268	C	1.615434	0.345191	-0.287032
C269	C	0.865436	-0.404835	-0.971596
C270	C	1.115436	-0.154835	-0.721596
C271	C	1.365436	0.095165	-0.471596
C272	C	1.615436	0.345165	-0.221596
C273	C	0.905535	-0.357347	-0.938908
C274	C	1.155535	-0.107347	-0.688908
C275	C	1.405535	0.142653	-0.438908
C276	C	1.655535	0.392653	-0.188908
C277	C	0.905432	-0.357490	-0.139415
C278	C	1.155432	-0.107490	0.110585
C279	C	1.405432	0.142510	0.360585
C280	C	1.655432	0.392510	0.610585
C281	C	0.905531	-0.357288	-0.069774
C282	C	1.155531	-0.107288	0.180226
C283	C	1.405531	0.142712	0.430226
C284	C	1.655531	0.392712	0.680226
H285	H	0.263312	-0.443807	-0.374833
H286	H	0.513312	-0.193807	-0.124833
H287	H	0.763312	0.056193	0.125167
H288	H	1.013312	0.306193	0.375167
O289	O	0.822177	-0.456239	-0.532635
O290	O	1.072177	-0.206239	-0.282635
O291	O	1.322177	0.043761	-0.032635
O292	O	1.572177	0.293761	0.217365
H293	H	0.790320	-0.423006	-0.502801
H294	H	1.040320	-0.173006	-0.252801
H295	H	1.290320	0.076994	-0.002801
H296	H	1.540320	0.326994	0.247199
H297	H	0.978268	-0.271327	-0.541395
H298	H	1.228268	-0.021327	-0.291395
H299	H	1.478268	0.228673	-0.041395
H300	H	1.728268	0.478673	0.208605
H301	H	0.914556	-0.236026	-0.743160
H302	H	1.164556	0.013974	-0.493160
H303	H	1.414556	0.263974	-0.243160
H304	H	1.664556	0.513974	0.006840
H305	H	1.010926	-0.810569	-0.330628
H306	H	1.260926	-0.560569	-0.080628
H307	H	1.510926	-0.310569	0.169372
H308	H	1.760926	-0.060569	0.419372
H309	H	0.666948	-0.443905	-0.374684
H310	H	0.916948	-0.193905	-0.124684
H311	H	1.166948	0.056095	0.125316
H312	H	1.416948	0.306095	0.375316
H313	H	0.982789	-0.903266	-0.224991
H314	H	1.232789	-0.653266	0.025009
H315	H	1.482789	-0.403266	0.275009
H316	H	1.732789	-0.153266	0.525009
O317	O	0.135952	-0.456439	-0.385368
O318	O	0.385952	-0.206439	-0.135368
O319	O	0.635952	0.043561	0.114632
O320	O	0.885952	0.293561	0.364632
H321	H	0.169700	-0.489566	-0.413133
H322	H	0.419700	-0.239566	-0.163133
H323	H	0.669700	0.010434	0.086867
H324	H	0.919700	0.260434	0.336867
O325	O	0.784323	-0.910790	-0.269609
O326	O	1.034323	-0.660790	-0.019609
O327	O	1.284323	-0.410790	0.230391
O328	O	1.534323	-0.160790	0.480391
H329	H	0.766009	-0.945498	-0.308308
H330	H	1.016009	-0.695498	-0.058308
H331	H	1.266009	-0.445498	0.191692
H332	H	1.516009	-0.195498	0.441692
H333	H	0.548242	-0.443870	-0.374731
H334	H	0.798242	-0.193870	-0.124731
H335	H	1.048242	0.056130	0.125269
H336	H	1.298242	0.306130	0.375269
H337	H	0.832790	-0.443528	-0.944941
H338	H	1.082790	-0.193528	-0.694941
H339	H	1.332790	0.056472	-0.444941
H340	H	1.582790	0.306472	-0.194941
H341	H	0.933693	-0.903463	-0.407758
H342	H	1.183693	-0.653463	-0.157758
H343	H	1.433693	-0.403463	0.092242
H344	H	1.683693	-0.153463	0.342242
O345	O	0.988867	-0.258727	-0.668764
O346	O	1.238867	-0.008727	-0.418764
O347	O	1.488867	0.241273	-0.168764
O348	O	1.738867	0.491273	0.081236
H349	H	1.016753	-0.225714	-0.635041
H350	H	1.266753	0.024286	-0.385041
H351	H	1.516753	0.274286	-0.135041
H352	H	1.766753	0.524286	0.114959
H353	H	0.144579	-0.271177	-0.229733
H354	H	0.394579	-0.021177	0.020267
H355	H	0.644579	0.228823	0.270267
H356	H	0.894579	0.478823	0.520267
O357	O	0.872959	-0.803944	-0.180935
O358	O	1.122959	-0.553944	0.069065
O359	O	1.372959	-0.303944	0.319065
O360	O	1.622959	-0.053944	0.569065
H361	H	0.825686	-0.824295	-0.168128
H362	H	1.075686	-0.574295	0.081872
H363	H	1.325686	-0.324295	0.331872
H364	H	1.575686	-0.074295	0.581872
O365	O	0.895197	-0.496459	-0.870531
O366	O	1.145197	-0.246459	-0.620531
O367	O	1.395197	0.003541	-0.370531
O368	O	1.645197	0.253541	-0.120531
H369	H	0.852758	-0.495270	-0.900318
H370	H	1.102758	-0.245270	-0.650318
H371	H	1.352758	0.004730	-0.400318
H372	H	1.602758	0.254730	-0.150318
H373	H	0.828150	-0.810879	-0.379334
H374	H	1.078150	-0.560879	-0.129334
H375	H	1.328150	-0.310879	0.120666
H376	H	1.578150	-0.060879	0.370666
H377	H	0.978275	-0.271157	-0.945031
H378	H	1.228275	-0.021157	-0.695031
H379	H	1.478275	0.228843	-0.445031
H380	H	1.728275	0.478843	-0.195031
H381	H	0.978270	-0.271103	-1.063738
H382	H	1.228270	-0.021103	-0.813738
H383	H	1.478270	0.228897	-0.563738
H384	H	1.728270	0.478897	-0.313738
H385	H	0.832782	-0.443637	-0.660014
H386	H	1.082782	-0.193637	-0.410014
H387	H	1.332782	0.056363	-0.160014
H388	H	1.582782	0.306363	0.089986
H389	H	0.914556	-0.235979	-0.861872
H390	H	1.164556	0.014021	-0.611872
H391	H	1.414556	0.264021	-0.361872
H392	H	1.664556	0.514021	-0.111872
H393	H	0.832786	-0.443470	-1.063651
H394	H	1.082786	-0.193470	-0.813651
H395	H	1.332786	0.056530	-0.563651
H396	H	1.582786	0.306530	-0.313651
O397	O	0.895184	-0.496514	-0.734517
O398	O	1.145184	-0.246514	-0.484517
O399	O	1.395184	0.003486	-0.234517
O400	O	1.645184	0.253486	0.015483
H401	H	0.891731	-0.543030	-0.768262
H402	H	1.141731	-0.293030	-0.518262
H403	H	1.391731	-0.043030	-0.268262
H404	H	1.641731	0.206970	-0.018262
H405	H	0.263290	-0.271208	-0.229686
H406	H	0.513290	-0.021208	0.020314
H407	H	0.763290	0.228792	0.270314
H408	H	1.013290	0.478792	0.520314
H409	H	0.465228	-0.368366	-0.404590
H410	H	0.715228	-0.118366	-0.154590
H411	H	0.965228	0.131634	0.095410
H412	H	1.215228	0.381634	0.345410
H413	H	0.346310	-0.346728	-0.199822
H414	H	0.596310	-0.096728	0.050178
H415	H	0.846310	0.153272	0.300178
H416	H	1.096310	0.403272	0.550178
O417	O	0.473649	-0.345179	-0.184857
O418	O	0.723649	-0.095179	0.065143
O419	O	0.973649	0.154821	0.315143
O420	O	1.223649	0.404821	0.565143
H421	H	0.524655	-0.346183	-0.194322
H422	H	0.774655	-0.096183	0.055678
H423	H	1.024655	0.153817	0.305678
H424	H	1.274655	0.403817	0.555678
H425	H	0.666929	-0.271291	-0.229547
H426	H	0.916929	-0.021291	0.020453
H427	H	1.166929	0.228709	0.270453
H428	H	1.416929	0.478709	0.520453
O429	O	0.337891	-0.369899	-0.419559
O430	O	0.587891	-0.119899	-0.169559
O431	O	0.837891	0.130101	0.080441
O432	O	1.087891	0.380101	0.330441
H433	H	0.286884	-0.368876	-0.410098
H434	H	0.536884	-0.118876	-0.160098
H435	H	0.786884	0.131124	0.089902
H436	H	1.036884	0.381124	0.339902
O437	O	0.539569	-0.258700	-0.219017
O438	O	0.789569	-0.008700	0.030983
O439	O	1.039569	0.241300	0.280983
O440	O	1.289569	0.491300	0.530983
H441	H	0.573308	-0.225626	-0.191196
H442	H	0.823308	0.024374	0.058804
H443	H	1.073308	0.274374	0.308804
H444	H	1.323308	0.524374	0.558804
