data_functionalizedCrystal
_audit_creation_method	'MofGen! by Chris Wilmer'
_symmetry_space_group_name_H-M	'P1'
_symmetry_Int_Tables_number	1
_symmetry_cell_setting	triclinic
loop_
_symmetry_equiv_pos_as_xyz
  x,y,z
_cell_length_a	16.120484
_cell_length_b	10.686154
_cell_length_c	16.120297
_cell_angle_alpha	82.989966
_cell_angle_beta	95.614431
_cell_angle_gamma	82.931688
loop_
_atom_site_label
_atom_site_type_symbol
_atom_site_fract_x
_atom_site_fract_y
_atom_site_fract_z
Zn1	Zn	-0.256335	-1.879485	-0.389264
Zn2	Zn	-0.389033	-1.879325	-0.256583
Zn3	Zn	-0.260030	-1.678093	-0.260246
Zn4	Zn	-0.408042	-1.655314	-0.408247
O5	O	-0.328360	-1.773054	-0.328585
O6	O	-0.264436	-2.057496	-0.362187
O7	O	-0.365512	-1.862097	-0.139603
O8	O	-0.142062	-1.714408	-0.270949
O9	O	-0.361928	-2.057379	-0.264707
O10	O	-0.139347	-1.862370	-0.365738
O11	O	-0.270734	-1.714253	-0.142294
O12	O	-0.289166	-1.497039	-0.289356
O13	O	-0.394327	-1.675585	-0.523196
O14	O	-0.397910	-1.480303	-0.398092
O15	O	-0.282868	-1.840282	-0.509249
O16	O	-0.509033	-1.840009	-0.283113
O17	O	-0.522999	-1.675430	-0.394540
C18	C	-0.346003	-1.442509	-0.346182
C19	C	-0.353571	-1.301097	-0.353730
C20	C	-0.546476	-1.755263	-0.340506
C21	C	-0.639782	-1.747766	-0.345627
C22	C	-0.810613	-1.734085	-0.354995
C23	C	-0.845256	-1.812251	-0.302177
C24	C	-0.940312	-1.804638	-0.307389
C25	C	-0.715548	-1.741695	-0.349784
C26	C	-0.109392	-1.790948	-0.316635
C27	C	-0.016081	-1.798573	-0.311542
C28	C	-0.340305	-1.755411	-0.547532
C29	C	-0.345396	-1.747892	-0.640833
C30	C	-0.310641	-1.104891	-0.310915
C31	C	-0.303068	-1.246303	-0.303369
C32	C	-0.354674	-1.734120	-0.811658
C33	C	-0.301782	-1.812260	-0.846337
C34	C	-0.306944	-1.804597	-0.941390
C35	C	-0.349513	-1.741781	-0.716597
C36	C	-0.316397	-1.790707	-0.110483
C37	C	-0.311057	-1.798492	-0.017156
H38	H	-0.402607	-1.239818	-0.402621
H39	H	-0.852341	-1.661452	-0.404123
C40	C	-0.788889	-1.910374	-0.235793
C41	C	-0.796242	-1.906841	-0.141556
C42	C	-0.739873	-2.004955	-0.075171
C43	C	-0.676151	-2.106604	-0.103024
C44	C	-0.668795	-2.110141	-0.197266
C45	C	-0.725164	-2.012026	-0.263651
H46	H	-0.843415	-1.831591	-0.120933
H47	H	-0.745319	-2.002336	-0.005407
H48	H	-0.634423	-2.179234	-0.053882
H49	H	-0.621622	-2.185391	-0.217889
H50	H	-0.719718	-2.014646	-0.333415
H51	H	-0.252622	-1.884912	-0.804641
H52	H	-0.403829	-1.661474	-0.853352
H53	H	-0.254041	-1.307575	-0.254477
