data_functionalizedCrystal
_audit_creation_method	'MofGen! by Chris Wilmer'
_symmetry_space_group_name_H-M	'P1'
_symmetry_Int_Tables_number	1
_symmetry_cell_setting	triclinic
loop_
_symmetry_equiv_pos_as_xyz
  x,y,z
_cell_length_a	14.044220
_cell_length_b	14.044190
_cell_length_c	9.130307
_cell_angle_alpha	89.995540
_cell_angle_beta	90.001362
_cell_angle_gamma	93.190328
loop_
_atom_site_label
_atom_site_type_symbol
_atom_site_fract_x
_atom_site_fract_y
_atom_site_fract_z
O1	O	-1.277172	-0.230161	0.121673
O2	O	-0.777172	0.269839	0.621673
O3	O	-1.000500	-0.221856	0.121709
O4	O	-0.500500	0.278144	0.621709
O5	O	-1.134680	-0.087672	0.121663
O6	O	-0.634680	0.412328	0.621663
O7	O	-1.142993	-0.364345	0.121720
O8	O	-0.642993	0.135655	0.621720
O9	O	-1.134670	-0.087681	-0.121936
O10	O	-0.634670	0.412319	0.378064
O11	O	-1.000491	-0.221864	-0.121890
O12	O	-0.500491	0.278136	0.378110
O13	O	-1.277162	-0.230170	-0.121926
O14	O	-0.777162	0.269830	0.378074
Cu15	Cu	-1.138826	-0.226018	-0.144150
Cu16	Cu	-0.638826	0.273982	0.355850
Cu17	Cu	-1.138837	-0.226008	0.143934
Cu18	Cu	-0.638837	0.273992	0.643934
O19	O	-1.142983	-0.364353	-0.121879
O20	O	-0.642983	0.135647	0.378121
C21	C	-0.964874	-0.218224	-0.000086
C22	C	-0.464874	0.281776	0.499914
C23	C	-0.858731	-0.207380	-0.000073
C24	C	-0.358731	0.292620	0.499927
C25	C	-1.312789	-0.233801	-0.000127
C26	C	-0.812789	0.266199	0.499873
C27	C	-1.418932	-0.244646	-0.000130
C28	C	-0.918932	0.255354	0.499870
C29	C	-1.131039	-0.052054	-0.000140
C30	C	-0.631039	0.447946	0.499860
C31	C	-1.120191	0.054089	-0.000152
C32	C	-0.620191	0.554089	0.499848
C33	C	-0.664392	-0.187553	-0.000106
C34	C	-0.164392	0.312447	0.499894
C35	C	-0.613264	-0.264468	-0.000097
C36	C	-0.113264	0.235532	0.499903
C37	C	-0.505128	-0.253436	-0.000115
C38	C	-0.005128	0.246564	0.499885
C39	C	-0.772539	-0.198583	-0.000088
C40	C	-0.272539	0.301417	0.499912
C41	C	-1.146624	-0.399971	-0.000073
C42	C	-0.646624	0.100029	0.499927
C43	C	-1.157472	-0.506114	-0.000052
C44	C	-0.657472	-0.006114	0.499948
C45	C	-1.177292	0.299547	-0.000102
C46	C	-0.677292	0.799547	0.499898
C47	C	-1.100375	0.248422	-0.000102
C48	C	-0.600375	0.748422	0.499898
C49	C	-1.111404	0.140285	-0.000130
C50	C	-0.611404	0.640285	0.499870
C51	C	-1.166265	0.407694	-0.000074
C52	C	-0.666265	0.907694	0.499926
N53	N	-1.138824	-0.226025	-0.346773
N54	N	-0.638824	0.273975	0.153227
C55	C	-1.013258	-0.100316	-0.653442
C56	C	-0.513258	0.399684	-0.153442
C57	C	-0.950454	-0.037489	-0.576775
C58	C	-0.450454	0.462511	-0.076775
C59	C	-0.950438	-0.037505	-0.423441
C60	C	-0.450438	0.462495	0.076559
C61	C	-1.013234	-0.100354	-0.346772
C62	C	-0.513234	0.399646	0.153228
C63	C	-1.076037	-0.163181	-0.423439
C64	C	-0.576037	0.336819	0.076561
C65	C	-1.076045	-0.163160	-0.576776
C66	C	-0.576045	0.336840	-0.076776
C67	C	-1.201628	-0.288852	-0.423440
C68	C	-0.701628	0.211148	0.076560
C69	C	-1.201641	-0.288842	-0.576774
C70	C	-0.701641	0.211158	-0.076774
C71	C	-1.264424	-0.351701	-0.346771
C72	C	-0.764424	0.148299	0.153229
C73	C	-1.327224	-0.414534	-0.423438
C74	C	-0.827224	0.085466	0.076562
C75	C	-1.327237	-0.414516	-0.576781
C76	C	-0.827237	0.085484	-0.076781
C77	C	-1.264445	-0.351669	-0.653441
C78	C	-0.764445	0.148331	-0.153441
N79	N	-1.138845	-0.225994	0.346557
N80	N	-0.638845	0.274006	0.846557
H81	H	-0.650706	-0.338602	-0.000075
H82	H	-0.150706	0.161398	0.499925
H83	H	-1.251418	0.262106	-0.000126
H84	H	-0.751418	0.762106	0.499874
Cl85	Cl	-1.013263	-0.100302	-0.846205
Cl86	Cl	-0.513263	0.399698	-0.346205
Cl87	Cl	-0.606589	-0.073103	-0.000132
Cl88	Cl	-0.106589	0.426897	0.499868
Cl89	Cl	-0.871515	0.041516	-0.673165
Cl90	Cl	-0.371515	0.541516	-0.173165
H91	H	-1.026243	0.285865	-0.000084
H92	H	-0.526243	0.785865	0.499916
Cl93	Cl	-0.871496	0.041489	-0.327055
Cl94	Cl	-0.371496	0.541489	0.172945
Cl95	Cl	-1.013225	-0.100358	-0.154008
Cl96	Cl	-0.513225	0.399642	0.345992
Cl97	Cl	-1.264410	-0.351715	-0.154007
Cl98	Cl	-0.764410	0.148285	0.345993
Cl99	Cl	-1.406164	-0.493529	-0.327048
Cl100	Cl	-0.906164	0.006471	0.172952
H101	H	-1.378383	-0.465675	-0.639194
H102	H	-0.878383	0.034325	-0.139194
H103	H	-1.264447	-0.351651	-0.778293
H104	H	-0.764447	0.148349	-0.278293
