data_functionalizedCrystal
_audit_creation_method	'MofGen! by Chris Wilmer'
_symmetry_space_group_name_H-M	'P1'
_symmetry_Int_Tables_number	1
_symmetry_cell_setting	triclinic
loop_
_symmetry_equiv_pos_as_xyz
  x,y,z
_cell_length_a	16.109318
_cell_length_b	16.109301
_cell_length_c	14.586319
_cell_angle_alpha	90.005214
_cell_angle_beta	90.000075
_cell_angle_gamma	96.534978
loop_
_atom_site_label
_atom_site_type_symbol
_atom_site_fract_x
_atom_site_fract_y
_atom_site_fract_z
O1	O	1.103122	-0.106935	-0.076167
O2	O	1.436455	0.226399	0.257166
O3	O	1.769788	0.559732	0.590500
O4	O	0.861062	-0.120219	-0.076186
O5	O	1.194395	0.213114	0.257147
O6	O	1.527728	0.546448	0.590481
O7	O	0.988741	0.007454	-0.076167
O8	O	1.322075	0.340787	0.257167
O9	O	1.655408	0.674120	0.590500
O10	O	0.975442	-0.234607	-0.076186
O11	O	1.308776	0.098726	0.257147
O12	O	1.642109	0.432059	0.590480
O13	O	0.988733	0.007456	0.076314
O14	O	1.322066	0.340789	0.409648
O15	O	1.655399	0.674122	0.742981
O16	O	0.861053	-0.120217	0.076295
O17	O	1.194386	0.213116	0.409628
O18	O	1.527720	0.546450	0.742962
O19	O	1.103113	-0.106933	0.076314
O20	O	1.436446	0.226401	0.409647
O21	O	1.769780	0.559734	0.742980
Cu22	Cu	0.982082	-0.113575	0.090227
Cu23	Cu	1.315415	0.219759	0.423560
Cu24	Cu	1.648749	0.553092	0.756894
Cu25	Cu	0.982093	-0.113577	-0.090099
Cu26	Cu	1.315426	0.219756	0.243234
Cu27	Cu	1.648759	0.553090	0.576567
O28	O	0.975433	-0.234606	0.076294
O29	O	1.308767	0.098728	0.409628
O30	O	1.642100	0.432061	0.742961
C31	C	0.830083	-0.119677	0.000052
C32	C	1.163416	0.213656	0.333385
C33	C	1.496749	0.546989	0.666719
C34	C	0.737788	-0.118057	0.000045
C35	C	1.071122	0.215277	0.333379
C36	C	1.404455	0.548610	0.666712
C37	C	0.438719	-0.112823	-0.083055
C38	C	0.772053	0.220511	0.250278
C39	C	1.105386	0.553844	0.583611
C40	C	0.525441	-0.114340	-0.083061
C41	C	0.858774	0.218993	0.250272
C42	C	1.192107	0.552327	0.583605
C43	C	0.525450	-0.114327	0.083182
C44	C	0.858783	0.219007	0.416515
C45	C	1.192116	0.552340	0.749848
C46	C	0.438731	-0.112803	0.083187
C47	C	0.772064	0.220530	0.416520
C48	C	1.105397	0.553863	0.749853
C49	C	0.395367	-0.112056	0.000065
C50	C	0.728701	0.221278	0.333399
C51	C	1.062034	0.554611	0.666732
C52	C	0.568807	-0.115096	0.000055
C53	C	0.902141	0.218237	0.333388
C54	C	1.235474	0.551570	0.666721
C55	C	0.662835	-0.116742	0.000049
C56	C	0.996168	0.216592	0.333382
C57	C	1.329501	0.549925	0.666716
C58	C	0.301334	-0.110409	0.000070
C59	C	0.634668	0.222925	0.333404
C60	C	0.968001	0.556258	0.666737
C61	C	0.988198	0.038430	0.000074
C62	C	1.321532	0.371763	0.333408
C63	C	1.654865	0.705096	0.666741
C64	C	0.986583	0.130725	0.000075
C65	C	1.319916	0.464058	0.333409
C66	C	1.653250	0.797392	0.666742
C67	C	1.134092	-0.107474	0.000074
C68	C	1.467425	0.225859	0.333407
C69	C	1.800759	0.559192	0.666740
C70	C	1.226387	-0.109095	0.000075
C71	C	1.559720	0.224238	0.333408
C72	C	1.893053	0.557571	0.666741
C73	C	0.975976	-0.265581	0.000052
C74	C	1.309310	0.067752	0.333385
C75	C	1.642643	0.401085	0.666718
C76	C	0.977592	-0.357877	0.000044
C77	C	1.310925	-0.024543	0.333378
C78	C	1.644258	0.308790	0.666711
N79	N	0.982081	-0.113573	0.217059
N80	N	1.315414	0.219761	0.550392
N81	N	1.648747	0.553094	0.883725
C82	C	1.058590	0.352993	0.000067
C83	C	1.391924	0.686326	0.333400
C84	C	1.725257	1.019660	0.666733
C85	C	1.057066	0.439713	0.000059
C86	C	1.390400	0.773047	0.333392
C87	C	1.723733	1.106380	0.666726
C88	C	0.905579	0.419848	0.000051
C89	C	1.238912	0.753182	0.333384
C90	C	1.572245	1.086515	0.666717
C91	C	0.907104	0.333130	0.000052
C92	C	1.240437	0.666463	0.333385
C93	C	1.573770	0.999796	0.666718
C94	C	0.983612	0.299704	0.000064
C95	C	1.316945	0.633038	0.333398
C96	C	1.650279	0.966371	0.666731
C97	C	0.980563	0.473144	0.000056
C98	C	1.313896	0.806477	0.333389
C99	C	1.647230	1.139810	0.666722
C100	C	0.978910	0.567170	0.000047
C101	C	1.312243	0.900503	0.333381
C102	C	1.645577	1.233837	0.666714
C103	C	0.985265	0.205672	0.000071
C104	C	1.318599	0.539006	0.333404
C105	C	1.651932	0.872339	0.666738
N106	N	0.982100	-0.113573	-0.216931
N107	N	1.315434	0.219761	0.116402
N108	N	1.648767	0.553094	0.449736
C109	C	1.038636	-0.057058	0.452074
C110	C	1.371969	0.276275	0.785407
C111	C	1.705303	0.609609	1.118740
C112	C	1.038638	-0.057056	0.548055
C113	C	1.371972	0.276277	0.881388
C114	C	1.705305	0.609611	1.214722
C115	C	0.925539	-0.170090	0.548047
C116	C	1.258873	0.163244	0.881381
C117	C	1.592206	0.496577	1.214714
C118	C	0.925534	-0.170087	0.452068
C119	C	1.258867	0.163246	0.785401
C120	C	1.592200	0.496580	1.118735
C121	C	0.982087	-0.113572	0.404084
C122	C	1.315420	0.219761	0.737417
C123	C	1.648753	0.553094	1.070750
C124	C	0.982095	-0.113573	0.596044
C125	C	1.315428	0.219760	0.929378
C126	C	1.648761	0.553094	1.262711
C127	C	0.982097	-0.113571	0.700111
C128	C	1.315430	0.219762	1.033445
C129	C	1.648764	0.553096	1.366778
C130	C	0.982084	-0.113573	0.300010
C131	C	1.315417	0.219761	0.633343
C132	C	1.648750	0.553094	0.966676
H133	H	0.403433	-0.112178	0.150877
H134	H	0.736766	0.221156	0.484211
H135	H	1.070099	0.554489	0.817544
N136	N	0.823067	0.455908	0.000050
N137	N	1.156400	0.789242	0.333384
N138	N	1.489733	1.122575	0.666717
H139	H	0.790219	0.436477	0.056574
H140	H	1.123552	0.769810	0.389907
H141	H	1.456886	1.103143	0.723241
H142	H	0.790284	0.436463	-0.056513
H143	H	1.123617	0.769797	0.276821
H144	H	1.456951	1.103130	0.610154
H145	H	0.879496	-0.216104	0.587126
H146	H	1.212829	0.117229	0.920459
H147	H	1.546163	0.450563	1.253792
N148	N	0.572195	-0.115178	-0.172714
N149	N	0.905529	0.218155	0.160619
N150	N	1.238862	0.551489	0.493952
H151	H	0.633712	-0.116254	-0.160109
H152	H	0.967046	0.217079	0.173225
H153	H	1.300379	0.550413	0.506558
H154	H	0.563786	-0.063407	-0.209013
H155	H	0.897119	0.269926	0.124320
H156	H	1.230453	0.603259	0.457653
H157	H	0.560767	-0.114937	0.150856
H158	H	0.894100	0.218396	0.484189
H159	H	1.227433	0.551730	0.817523
H160	H	1.120888	0.325781	0.000075
H161	H	1.454221	0.659115	0.333408
H162	H	1.787555	0.992448	0.666742
N163	N	0.864531	-0.231038	0.400299
N164	N	1.197865	0.102296	0.733632
N165	N	1.531198	0.435629	1.066965
H166	H	0.828709	-0.266843	0.445259
H167	H	1.162042	0.066490	0.778592
H168	H	1.495376	0.399824	1.111925
H169	H	0.896342	-0.267803	0.360464
H170	H	1.229676	0.065530	0.693797
H171	H	1.563009	0.398863	1.027131
H172	H	1.118121	0.483098	0.000059
H173	H	1.451455	0.816431	0.333392
H174	H	1.784788	1.149765	0.666725
H175	H	1.084684	-0.011039	0.413007
H176	H	1.418017	0.322294	0.746341
H177	H	1.751350	0.655627	1.079674
N178	N	0.391947	-0.112013	-0.172703
N179	N	0.725280	0.221321	0.160630
N180	N	1.058614	0.554654	0.493964
H181	H	0.432573	-0.112727	-0.225360
H182	H	0.765907	0.220607	0.107974
H183	H	1.099240	0.553940	0.441307
H184	H	0.362720	-0.059871	-0.176320
H185	H	0.696053	0.273462	0.157014
H186	H	1.029387	0.606795	0.490347
H187	H	0.846043	0.289740	0.000047
H188	H	1.179377	0.623073	0.333380
H189	H	1.512710	0.956406	0.666714
H190	H	1.084685	-0.011036	0.587126
H191	H	1.418018	0.322297	0.920459
H192	H	1.751352	0.655630	1.253793
