data_functionalizedCrystal
_audit_creation_method	'MofGen! by Chris Wilmer'
_symmetry_space_group_name_H-M	'P1'
_symmetry_Int_Tables_number	1
_symmetry_cell_setting	triclinic
loop_
_symmetry_equiv_pos_as_xyz
  x,y,z
_cell_length_a	19.121241
_cell_length_b	19.121063
_cell_length_c	19.120904
_cell_angle_alpha	85.258387
_cell_angle_beta	90.124528
_cell_angle_gamma	95.003121
loop_
_atom_site_label
_atom_site_type_symbol
_atom_site_fract_x
_atom_site_fract_y
_atom_site_fract_z
Zn1	Zn	1.043557	-0.254510	0.452551
Zn2	Zn	1.043470	-0.367161	0.339898
Zn3	Zn	0.931342	-0.254092	0.330304
Zn4	Zn	0.920835	-0.377147	0.452491
O5	O	0.984801	-0.313228	0.393811
O6	O	1.141831	-0.265449	0.441648
O7	O	1.032957	-0.347808	0.240344
O8	O	0.950661	-0.155504	0.342530
O9	O	1.141767	-0.348213	0.358882
O10	O	1.033105	-0.155811	0.432344
O11	O	0.950577	-0.264736	0.233295
O12	O	0.831663	-0.274420	0.342472
O13	O	0.932754	-0.365234	0.550781
O14	O	0.823943	-0.364828	0.432242
O15	O	1.022917	-0.275133	0.550825
O16	O	1.022769	-0.467129	0.358824
O17	O	0.932669	-0.474466	0.441546
C18	C	0.802319	-0.320663	0.386310
C19	C	0.724250	-0.323861	0.383118
C20	C	0.687602	-0.282348	0.424782
C21	C	0.614249	-0.285349	0.421777
C22	C	0.577546	-0.329869	0.377111
C23	C	0.614200	-0.371384	0.335443
C24	C	0.687552	-0.368378	0.338445
C25	C	0.356069	-0.341093	0.365885
C26	C	0.282712	-0.344097	0.362887
C27	C	0.282766	-0.258061	0.449221
C28	C	0.356119	-0.255063	0.452222
C29	C	0.392767	-0.296575	0.410551
C30	C	0.502567	-0.332939	0.374040
C31	C	0.467744	-0.293500	0.413619
C32	C	0.976588	-0.496375	0.401236
C33	C	0.973137	-0.574724	0.404438
C34	C	1.018459	-0.607690	0.362913
C35	C	1.015218	-0.681308	0.365929
C36	C	0.966651	-0.721959	0.410467
C37	C	0.921327	-0.688989	0.451998
C38	C	0.924572	-0.615372	0.448985
C39	C	0.954507	-0.944426	0.421721
C40	C	0.951264	-1.018048	0.424729
C41	C	1.045157	-1.010363	0.338661
C42	C	1.048395	-0.936745	0.335649
C43	C	1.003073	-0.903781	0.377182
C44	C	0.963335	-0.797209	0.413550
C45	C	1.006393	-0.828532	0.374103
C46	C	1.167996	-0.305764	0.401342
C47	C	1.246063	-0.302584	0.404551
C48	C	0.976673	-0.321344	0.576998
C49	C	0.973209	-0.324803	0.655062
C50	C	0.993065	-0.129365	0.386373
C51	C	0.996587	-0.051014	0.383204
C52	C	0.992940	-0.305090	0.211336
C53	C	0.996549	-0.301428	0.133270
C54	C	1.018523	-0.279519	0.691760
C55	C	1.015260	-0.282766	0.765109
C56	C	0.966686	-0.331301	0.801758
C57	C	0.921368	-0.376587	0.765054
C58	C	0.924628	-0.373336	0.691707
C59	C	0.954491	-0.343462	1.023219
C60	C	0.951236	-0.346711	1.096572
C61	C	1.045127	-0.252889	1.096621
C62	C	1.048386	-0.249645	1.023272
C63	C	1.003065	-0.294928	0.986575
C64	C	0.963351	-0.334623	0.876732
C65	C	1.006397	-0.291602	0.911602
H66	H	0.584311	-0.407629	0.299072
N67	N	1.056003	-0.242017	0.874168
N68	N	1.035126	-0.196290	0.830407
H69	H	1.070161	-0.161270	0.803964
N70	N	0.871716	-0.730522	0.497484
N71	N	0.826267	-0.772377	0.472578
H72	H	0.791227	-0.801711	0.504702
N73	N	0.878286	-0.581695	0.491412
N74	N	0.879660	-0.592569	0.556746
H75	H	0.846972	-0.568785	0.586715
N76	N	0.245218	-0.389562	0.317248
N77	N	0.207372	-0.364381	0.269857
H78	H	0.180891	-0.396489	0.237626
H79	H	0.923805	-0.374144	0.906580
N80	N	0.908195	-0.389707	0.985733
N81	N	0.866369	-0.364910	0.941966
H82	H	0.833668	-0.397571	0.915489
N83	N	0.725079	-0.236861	0.470404
N84	N	0.719994	-0.171944	0.462875
H85	H	0.746461	-0.139815	0.495096
N86	N	0.393593	-0.209577	0.497848
N87	N	0.388508	-0.144659	0.490327
H88	H	0.414972	-0.112536	0.522555
H89	H	1.082024	-0.216022	1.126508
N90	N	0.871738	-0.426160	0.802477
N91	N	0.831275	-0.466581	0.769698
H92	H	0.796219	-0.501590	0.796125
H93	H	1.045939	-0.795432	0.337842
H94	H	0.385899	-0.374896	0.331954
N95	N	0.901590	-0.396274	1.133996
N96	N	0.861114	-0.436686	1.101222
H97	H	0.826046	-0.471680	1.127653
H98	H	0.923790	-0.830315	0.449812
H99	H	0.717390	-0.402182	0.304517
N100	N	1.068149	-0.229941	0.654339
N101	N	1.108602	-0.189512	0.687118
H102	H	1.143651	-0.154495	0.660691
H103	H	0.472675	-0.369187	0.337673
N104	N	0.878332	-0.419592	0.654228
N105	N	0.834963	-0.462923	0.686957
H106	H	0.802262	-0.495591	0.660489
N107	N	1.068069	-0.566180	0.317407
N108	N	1.108531	-0.595627	0.280335
H109	H	1.143570	-0.566312	0.248195
N110	N	1.098013	-0.200069	0.985850
N111	N	1.138472	-0.159643	1.018626
H112	H	1.173526	-0.124632	0.992197
N113	N	0.576825	-0.242919	0.464320
N114	N	0.609605	-0.203163	0.504187
H115	H	0.583176	-0.173187	0.534228
N116	N	1.061551	-0.236505	0.802584
N117	N	1.104921	-0.193177	0.769854
H118	H	1.137617	-0.160502	0.796320
N119	N	1.061529	-0.714970	0.323518
N120	N	1.104892	-0.678667	0.283757
H121	H	1.137605	-0.702440	0.253806
H122	H	0.252919	-0.224264	0.483146
H123	H	1.087942	-0.903648	0.299382
N124	N	0.505233	-0.248015	0.459231
N125	N	0.549263	-0.200289	0.434442
H126	H	0.575745	-0.168166	0.466657
H127	H	0.911723	-1.051145	0.461011
N128	N	1.091442	-1.044037	0.296233
N129	N	1.066939	-1.084177	0.252126
H130	H	1.099629	-1.107960	0.222159
N131	N	0.908209	-0.910772	0.464149
N132	N	0.864848	-0.947078	0.503909
H133	H	0.832147	-0.923308	0.533876
