data_functionalizedCrystal
_audit_creation_method	'MofGen! by Chris Wilmer'
_symmetry_space_group_name_H-M	'P1'
_symmetry_Int_Tables_number	1
_symmetry_cell_setting	triclinic
loop_
_symmetry_equiv_pos_as_xyz
  x,y,z
_cell_length_a	14.044220
_cell_length_b	12.837932
_cell_length_c	11.892095
_cell_angle_alpha	94.305320
_cell_angle_beta	85.750402
_cell_angle_gamma	94.009290
loop_
_atom_site_label
_atom_site_type_symbol
_atom_site_fract_x
_atom_site_fract_y
_atom_site_fract_z
O1	O	1.285972	0.245913	-0.093867
O2	O	1.009183	0.236816	-0.093896
O3	O	1.141439	0.089894	-0.093883
O4	O	1.153716	0.392835	-0.093880
O5	O	1.130410	0.102123	0.094123
O6	O	0.998154	0.249046	0.094110
O7	O	1.274943	0.258142	0.094139
Zn8	Zn	1.134797	0.255536	0.123975
Zn9	Zn	1.149328	0.239423	-0.123732
O10	O	1.142686	0.405065	0.094126
C11	C	1.131778	0.057004	0.000117
C12	C	1.119410	-0.059217	0.000108
C13	C	0.967994	0.238950	0.000103
C14	C	0.861697	0.227075	0.000092
C15	C	1.016036	-0.218619	0.000099
C16	C	1.027651	-0.109419	0.000098
C17	C	1.199560	-0.118223	0.000115
C18	C	1.187945	-0.227423	0.000116
C19	C	1.096180	-0.277617	0.000109
C20	C	1.084566	-0.386819	0.000118
C21	C	1.256475	-0.395621	0.000127
C22	C	1.268090	-0.286421	0.000127
C23	C	0.667073	0.205368	0.000114
C24	C	0.617047	0.289585	0.000119
C25	C	0.508752	0.277507	0.000132
C26	C	0.775378	0.217444	0.000101
C27	C	1.316131	0.256008	0.000138
C28	C	1.422429	0.267883	0.000142
C29	C	1.152348	0.437954	0.000124
C30	C	1.164716	0.554175	0.000125
N31	N	1.124887	0.266532	0.293028
N32	N	1.159245	0.228419	-0.292785
C33	C	1.228201	0.151839	0.529686
C34	C	1.221281	0.159534	0.648027
C35	C	1.104123	0.289611	0.648054
C36	C	1.111043	0.281916	0.529713
C37	C	1.173085	0.213029	0.470533
C38	C	1.180009	0.205340	0.352189
C39	C	1.062847	0.335411	0.352218
C40	C	1.055927	0.343106	0.470559
H41	H	1.009845	-0.427684	0.000123
F42	F	0.942350	-0.046633	0.000083
H43	H	1.017970	0.385239	0.304042
F44	F	1.297216	-0.064786	0.000105
F45	F	1.246041	0.132028	0.289208
H46	H	0.941316	-0.259487	0.000114
H47	H	1.342802	-0.245538	0.000137
F48	F	0.989898	0.416414	0.533552
F49	F	0.667371	0.395684	0.000116
F50	F	1.279941	0.094405	0.710979
F51	F	1.038088	0.362911	0.711050
H52	H	1.321734	-0.443669	0.000138
H53	H	0.628572	0.124202	0.000119
H54	H	1.278725	0.095756	0.481501
