data_functionalizedCrystal
_audit_creation_method	'MofGen! by Chris Wilmer'
_symmetry_space_group_name_H-M	'P1'
_symmetry_Int_Tables_number	1
_symmetry_cell_setting	triclinic
loop_
_symmetry_equiv_pos_as_xyz
  x,y,z
_cell_length_a	14.560432
_cell_length_b	20.875641
_cell_length_c	20.875652
_cell_angle_alpha	90.155335
_cell_angle_beta	62.439180
_cell_angle_gamma	57.591756
loop_
_atom_site_label
_atom_site_type_symbol
_atom_site_fract_x
_atom_site_fract_y
_atom_site_fract_z
Zr1	Zr	1.079041	-0.109914	0.592173
O2	O	1.270643	-0.212334	0.489749
O3	O	0.887440	-0.078519	0.623571
O4	O	1.093102	-0.217246	0.618659
O5	O	1.053889	0.035825	0.498537
O6	O	1.104192	-0.221118	0.720345
O7	O	1.064981	-0.073607	0.494662
O8	O	0.736301	0.027039	0.729133
O9	O	1.421780	-0.212332	0.489749
O10	O	0.974524	-0.068016	0.712850
O11	O	0.957970	0.016542	0.639854
O12	O	1.200110	-0.146791	0.634070
O13	O	1.183556	-0.062233	0.561075
Zr14	Zr	1.079038	0.058444	0.760531
Zr15	Zr	1.096729	-0.116089	0.754351
Zr16	Zr	1.061350	0.064619	0.598353
Zr17	Zr	1.320088	-0.109910	0.592173
Zr18	Zr	0.837991	0.058439	0.760531
O19	O	1.270639	0.027049	0.729133
O20	O	1.295793	-0.221114	0.720345
O21	O	1.245489	0.035829	0.498537
O22	O	0.887436	0.160864	0.862955
O23	O	0.912590	-0.087299	0.854167
O24	O	0.862286	0.169644	0.632359
O25	O	1.104190	-0.087296	0.854167
O26	O	1.064977	0.165775	0.734045
O27	O	1.053887	0.169647	0.632359
O28	O	1.093098	0.022137	0.858042
O29	O	1.435840	-0.217240	0.618658
O30	O	0.722239	0.165769	0.734046
O31	O	0.736299	0.160861	0.862955
O32	O	0.750360	0.022131	0.858043
O33	O	1.407719	-0.073602	0.494661
O34	O	1.421778	-0.078510	0.623571
O35	O	0.957969	0.095321	0.718634
O36	O	0.974523	0.010763	0.791629
O37	O	1.200109	-0.068012	0.712850
O38	O	1.183555	0.016546	0.639854
C39	C	0.777526	-0.025740	0.676352
C40	C	0.675195	-0.025742	0.676352
C41	C	1.056915	-0.018011	0.473492
C42	C	1.049406	-0.015390	0.404644
C43	C	1.056912	0.192578	0.684083
C44	C	1.049402	0.266672	0.686707
C45	C	0.692472	-0.114029	0.752552
C46	C	0.653039	-0.158174	0.790649
C47	C	0.556889	-0.158172	0.790647
C48	C	0.500167	-0.114019	0.752546
C49	C	0.539600	-0.069875	0.714450
C50	C	0.635756	-0.069883	0.714454
C51	C	0.522317	0.018416	0.638255
C52	C	0.618473	0.018411	0.638252
C53	C	0.465595	0.062569	0.600155
C54	C	0.505034	0.106710	0.562053
C55	C	0.601191	0.106705	0.562056
C56	C	0.657906	0.062555	0.600156
C57	C	1.380553	-0.025730	0.676352
C58	C	1.482884	-0.025728	0.676352
C59	C	1.101167	-0.244049	0.668621
C60	C	1.108678	-0.318142	0.665997
C61	C	1.163624	0.260364	0.646819
C62	C	1.156559	0.329985	0.649281
C63	C	1.035271	0.405914	0.691636
C64	C	0.921040	0.412221	0.731525
C65	C	0.928106	0.342600	0.729058
C66	C	1.001512	0.618544	0.703419
C67	C	0.994455	0.688166	0.705885
C68	C	1.229975	0.605925	0.623640
C69	C	1.237030	0.536307	0.621180
C70	C	1.122799	0.542619	0.661066
N71	N	1.028047	0.477080	0.694155
N72	N	1.130024	0.471455	0.658541
C73	C	0.994452	0.003803	0.021528
C74	C	1.001518	0.001332	0.086215
C75	C	1.122806	-0.041019	0.077433
C76	C	1.237036	-0.080908	0.003957
C77	C	1.229969	-0.078441	-0.060728
C78	C	1.156569	-0.052812	0.266482
C79	C	1.163627	-0.055274	0.331176
C80	C	0.928108	0.026965	0.413429
C81	C	0.921052	0.029433	0.348739
C82	C	1.035282	-0.010460	0.275269
N83	N	1.130032	-0.043545	0.143553
N84	N	1.028056	-0.007939	0.209151
C85	C	1.101164	-0.033459	0.879212
C86	C	1.108673	-0.036081	0.948060
C87	C	0.799651	-0.033464	0.879212
C88	C	0.704829	-0.036088	0.948061
C89	C	0.755398	0.192573	0.684083
C90	C	0.645557	0.266665	0.686707
C91	C	0.777523	0.184849	0.886943
C92	C	0.675191	0.256320	0.958416
C93	C	1.380556	-0.236320	0.465761
C94	C	1.482888	-0.307790	0.394288
C95	C	1.358428	-0.018006	0.473492
C96	C	1.453250	-0.015383	0.404643
C97	C	1.402681	-0.244044	0.668621
C98	C	1.512522	-0.318135	0.665997
C99	C	0.660301	-0.078449	0.939271
C100	C	0.571220	-0.080929	1.003955
C101	C	0.526662	-0.041044	1.077428
C102	C	0.571199	0.001318	1.086217
C103	C	0.660286	0.003794	1.021534
C104	C	0.593974	0.342588	0.729062
C105	C	0.490779	0.412212	0.731524
C106	C	0.439164	0.405911	0.691637
C107	C	0.490757	0.329980	0.649277
C108	C	0.593956	0.260358	0.646810
C109	C	0.635777	0.245744	1.030089
C110	C	0.539640	0.312891	1.097252
C111	C	0.482913	0.390613	1.092738
C112	C	0.522335	0.401187	1.021057
C113	C	0.618477	0.334041	0.953896
C114	C	1.522314	-0.297215	0.322615
C115	C	1.618480	-0.364362	0.255452
C116	C	1.675213	-0.442084	0.259966
C117	C	1.635784	-0.452658	0.331647
C118	C	1.539625	-0.385511	0.398808
C119	C	1.497789	0.026971	0.413433
C120	C	1.586898	0.029432	0.348748
C121	C	1.631460	-0.010455	0.275275
C122	C	1.586918	-0.052814	0.266486
C123	C	1.497817	-0.055280	0.331170
C124	C	1.564104	-0.311808	0.705893
C125	C	1.667300	-0.381419	0.703443
C126	C	1.718916	-0.457357	0.661091
C127	C	1.667324	-0.463682	0.621194
C128	C	1.564124	-0.394072	0.623649
H129	H	0.770775	-0.114043	0.752550
H130	H	1.753510	-0.496752	0.205274
H131	H	1.335796	0.474485	0.586692
H132	H	0.507553	0.304267	1.155611
Cl133	Cl	0.778789	0.062542	0.600159
Cl134	Cl	0.857906	0.626489	0.753563
Cl135	Cl	0.841967	0.057052	0.032579
Cl136	Cl	0.515164	0.051460	1.178590
Cl137	Cl	1.316109	0.164913	0.593574
H138	H	0.635987	0.347735	0.761544
H139	H	0.822286	0.063921	0.355898
Cl140	Cl	0.362046	0.475019	1.177177
H141	H	0.696528	0.038294	1.028702
H142	H	1.461555	-0.089767	0.324002
H143	H	0.699228	-0.194121	0.821672
H144	H	0.681952	0.182465	1.033779
Cl145	Cl	1.373570	0.597996	0.573497
H146	H	0.835093	0.347742	0.761537
H147	H	0.534969	-0.115425	0.996784
H148	H	0.476134	0.464477	1.017393
H149	H	0.448784	0.474032	0.766021
Cl150	Cl	1.373569	-0.128588	-0.153090
H151	H	0.454121	-0.043065	1.130091
Cl152	Cl	1.300157	0.322051	0.599105
Cl153	Cl	0.784514	0.077115	0.505792
H154	H	1.802949	-0.514031	0.659098
H155	H	1.681988	-0.515947	0.335313
H156	H	0.355133	0.462608	0.693651
H157	H	1.507527	-0.394132	0.457166
H158	H	1.522094	-0.249983	0.740381
H159	H	1.262397	-0.089741	0.324017
H160	H	0.822284	0.474049	0.766008
H161	H	1.709366	-0.525520	0.586712
Cl162	Cl	0.425852	0.322071	0.599138
Cl163	Cl	0.857919	0.051474	0.178575
Cl164	Cl	0.668006	0.347350	0.863795
Cl165	Cl	1.499301	-0.402040	0.573479
Cl166	Cl	1.441793	0.077118	0.505792
H167	H	0.635943	0.198540	0.612323
Cl168	Cl	0.716305	-0.128601	0.846911
H169	H	1.650566	-0.355737	0.197093
Cl170	Cl	0.379275	-0.114005	0.752556
Cl171	Cl	0.507300	-0.213659	0.838549
Cl172	Cl	1.300172	-0.102950	0.174129
H173	H	1.623149	0.063929	0.355919
Cl174	Cl	0.650749	0.162210	0.514165
Cl175	Cl	0.344713	0.062577	0.600155
H176	H	1.704011	-0.008441	0.222611
Cl177	Cl	0.433709	0.162220	0.514171
H178	H	1.476126	-0.233936	0.318925
Cl179	Cl	1.732145	-0.373448	0.753599
Cl180	Cl	0.841970	0.783622	0.759162
Cl181	Cl	1.389513	-0.134143	-0.007083
H182	H	1.623214	-0.085290	0.206655
