data_functionalizedCrystal
_audit_creation_method	'MofGen! by Chris Wilmer'
_symmetry_space_group_name_H-M	'P1'
_symmetry_Int_Tables_number	1
_symmetry_cell_setting	triclinic
loop_
_symmetry_equiv_pos_as_xyz
  x,y,z
_cell_length_a	30.711275
_cell_length_b	30.700862
_cell_length_c	30.700791
_cell_angle_alpha	89.998956
_cell_angle_beta	59.998339
_cell_angle_gamma	60.000280
loop_
_atom_site_label
_atom_site_type_symbol
_atom_site_fract_x
_atom_site_fract_y
_atom_site_fract_z
O1	O	0.311652	-0.298811	-0.683014
O2	O	0.222489	-0.235469	-0.530479
O3	O	0.311651	-0.235469	-0.619670
O4	O	0.222490	-0.298811	-0.593823
O5	O	0.384071	-0.307914	-0.619670
O6	O	0.294909	-0.307914	-0.530478
O7	O	0.384072	-0.371256	-0.683014
Zn8	Zn	0.350989	-0.351087	-0.606746
Zn9	Zn	0.255572	-0.255637	-0.606746
O10	O	0.294910	-0.371256	-0.593823
C11	C	0.390624	-0.155927	-0.625552
C12	C	0.360058	-0.098472	-0.621853
C13	C	0.364665	-0.182381	-0.625921
C14	C	0.469471	-0.234804	-0.625552
C15	C	0.523210	-0.261683	-0.621853
C16	C	0.443393	-0.261138	-0.625921
C17	C	0.390621	-0.234802	-0.625552
C18	C	0.360053	-0.261680	-0.621853
C19	C	0.443395	-0.182383	-0.625921
C20	C	0.535513	-0.496425	-1.110659
C21	C	0.588285	-0.548846	-1.136994
C22	C	0.535511	-0.496427	-1.031782
C23	C	0.588283	-0.548847	-1.058237
C24	C	0.614361	-0.575302	-1.110659
C25	C	0.509554	-0.470091	-1.058237
C26	C	0.393519	-0.368660	-1.158824
C27	C	0.364491	-0.343658	-1.183650
C28	C	0.389409	-0.370610	-1.235598
C29	C	0.357931	-0.343507	-1.262516
C30	C	0.443360	-0.422563	-1.262719
C31	C	0.472388	-0.447558	-1.237894
C32	C	0.447465	-0.420604	-1.185945
C33	C	0.790232	-0.765509	-1.238426
C34	C	0.840043	-0.819374	-1.263428
C35	C	0.865029	-0.846398	-1.236478
C36	C	0.919030	-0.904803	-1.263578
C37	C	0.840203	-0.819550	-1.184523
C38	C	0.790401	-0.765685	-1.159526
C39	C	0.765416	-0.738668	-1.186483
C40	C	0.393511	-0.368665	-0.841570
C41	C	0.364477	-0.343667	-0.787701
C42	C	0.389393	-0.370619	-0.760679
C43	C	0.357913	-0.343518	-0.702271
C44	C	0.443339	-0.422570	-0.787526
C45	C	0.472369	-0.447566	-0.841393
C46	C	0.447453	-0.420607	-0.868412
C47	C	0.478944	-0.447714	-1.159029
C48	C	0.504035	-0.469321	-1.137574
C49	C	0.504031	-0.469323	-0.973376
C50	C	0.478938	-0.447717	-0.926820
C51	C	0.668363	-0.633706	-1.137764
C52	C	0.711409	-0.680261	-1.159371
C53	C	0.071062	-0.574971	-0.567515
C54	C	0.018290	-0.548517	-0.567146
C55	C	0.071061	-0.496095	-0.567515
C56	C	0.018289	-0.469761	-0.567146
C57	C	-0.007787	-0.496096	-0.567515
C58	C	0.097019	-0.548516	-0.567146
C59	C	0.213059	-0.765179	-0.581795
C60	C	0.242089	-0.819044	-0.585833
C61	C	0.217173	-0.846066	-0.587860
C62	C	0.248652	-0.904473	-0.592248
C63	C	0.163222	-0.819218	-0.585844
C64	C	0.134193	-0.765355	-0.581800
C65	C	0.159114	-0.738335	-0.579775
C66	C	-0.183655	-0.447934	-0.581795
C67	C	-0.233466	-0.423109	-0.585832
C68	C	-0.258452	-0.371164	-0.587861
C69	C	-0.312453	-0.344245	-0.592247
C70	C	-0.233628	-0.344043	-0.585846
C71	C	-0.183827	-0.368864	-0.581799
C72	C	-0.158840	-0.420815	-0.579777
C73	C	0.213055	-0.447927	-0.581795
C74	C	0.242089	-0.423102	-0.585840
C75	C	0.217171	-0.371156	-0.587866
C76	C	0.248650	-0.344237	-0.592254
C77	C	0.163225	-0.344038	-0.585853
C78	C	0.134197	-0.368865	-0.581811
C79	C	0.159114	-0.420810	-0.579777
C80	C	0.127634	-0.679931	-0.575394
C81	C	0.102542	-0.633376	-0.571900
C82	C	0.102539	-0.469179	-0.571900
C83	C	0.127631	-0.447724	-0.575394
C84	C	-0.061788	-0.469182	-0.571900
C85	C	-0.104835	-0.447728	-0.575394
O86	O	0.669871	-0.298822	-0.593822
O87	O	0.543229	-0.235474	-0.619669
O88	O	0.543226	-0.235477	-0.530478
O89	O	0.669873	-0.298820	-0.683013
O90	O	0.543222	-0.307920	-0.530478
O91	O	0.543225	-0.307917	-0.619669
O92	O	0.669867	-0.371266	-0.593822
Zn93	Zn	0.606545	-0.351093	-0.606746
Zn94	Zn	0.606550	-0.255646	-0.606746
O95	O	0.669869	-0.371263	-0.683013
O96	O	0.222497	0.076268	-0.593823
O97	O	0.311657	-0.076264	-0.619670
O98	O	0.222495	0.012925	-0.530479
O99	O	0.311659	-0.012921	-0.683014
O100	O	0.294915	0.012925	-0.530479
O101	O	0.384077	-0.076264	-0.619670
O102	O	0.294917	0.076268	-0.593823
Zn103	Zn	0.350996	0.000002	-0.606746
Zn104	Zn	0.255578	0.000002	-0.606747
O105	O	0.384079	-0.012921	-0.683014
O106	O	1.063337	-1.076597	-1.299175
O107	O	0.936707	-0.924063	-1.235838
O108	O	0.936692	-1.013245	-1.235831
O109	O	1.063352	-0.987415	-1.299182
O110	O	0.936695	-1.013244	-1.308278
O111	O	0.936709	-0.924061	-1.308284
O112	O	1.063339	-1.076596	-1.371622
Zn113	Zn	1.000025	-1.000329	-1.351456
Zn114	Zn	1.000022	-1.000330	-1.256004
O115	O	1.063354	-0.987414	-1.371628
O116	O	0.294915	-0.307910	-1.371274
O117	O	0.384084	-0.371249	-1.307938
O118	O	0.294915	-0.371246	-1.307922
O119	O	0.384084	-0.307913	-1.371290
O120	O	0.222500	-0.298797	-1.235480
O121	O	0.311669	-0.298800	-1.235496
O122	O	0.222500	-0.235461	-1.298831
Zn123	Zn	0.255587	-0.255628	-1.255662
Zn124	Zn	0.350997	-0.351082	-1.351108
O125	O	0.311669	-0.235464	-1.298847
C126	C	0.137099	-0.155920	-0.371942
C127	C	0.083362	-0.098464	-0.345064
C128	C	0.163177	-0.182374	-0.345607
C129	C	0.215944	-0.234798	-0.450816
C130	C	0.246508	-0.261679	-0.508271
C131	C	0.241902	-0.261132	-0.424362
C132	C	0.215947	-0.234796	-0.371942
C133	C	0.246516	-0.261674	-0.345064
C134	C	0.163173	-0.182376	-0.424362
C135	C	0.390613	-0.234810	-0.371937
C136	C	0.360044	-0.261688	-0.345059
C137	C	0.364656	-0.182390	-0.345601
C138	C	0.469466	-0.234809	-0.450813
C139	C	0.523206	-0.261687	-0.508270
C140	C	0.443389	-0.182389	-0.424357
C141	C	0.390616	-0.155935	-0.371935
C142	C	0.360049	-0.098480	-0.345055
C143	C	0.443386	-0.261144	-0.424359
C144	C	0.215939	0.018807	-0.371936
C145	C	0.246504	0.015108	-0.345056
C146	C	0.163166	0.019175	-0.345601
C147	C	0.215943	0.018807	-0.450814
C148	C	0.246513	0.015108	-0.508271
C149	C	0.163170	0.019175	-0.424359
C150	C	0.137091	0.018806	-0.371937
C151	C	0.083351	0.015107	-0.345059
C152	C	0.241899	0.019175	-0.424358
C153	C	1.071101	-0.574990	-1.110648
C154	C	1.097073	-0.548542	-1.136979
C155	C	0.992255	-0.496115	-1.031771
C156	C	1.018346	-0.469787	-1.058222
C157	C	1.071123	-0.496125	-1.110642
C158	C	1.018324	-0.548532	-1.058228
C159	C	1.133484	-0.765182	-1.158822
C160	C	1.162329	-0.819044	-1.183650
C161	C	1.216289	-0.846069	-1.235596
C162	C	1.247574	-0.904473	-1.262515
C163	C	1.241400	-0.819227	-1.262713
C164	C	1.212550	-0.765367	-1.237887
C165	C	1.158590	-0.738345	-1.185939
C166	C	1.213165	-0.447988	-1.238393
C167	C	1.242207	-0.423170	-1.263390
C168	C	1.217303	-0.371230	-1.236438
C169	C	1.248792	-0.344318	-1.263533
C170	C	1.163347	-0.344106	-1.184485
C171	C	1.134300	-0.368919	-1.159492
C172	C	1.159218	-0.420866	-1.186452
C173	C	0.816354	-0.447935	-0.841568
C174	C	0.766542	-0.423109	-0.787701
C175	C	0.741564	-0.371166	-0.760677
C176	C	0.687556	-0.344246	-0.702270
C177	C	0.766403	-0.344055	-0.787520
C178	C	0.816215	-0.368884	-0.841384
C179	C	0.841184	-0.420824	-0.868406
C180	C	1.127314	-0.679943	-1.159022
C181	C	1.102382	-0.633391	-1.137565
C182	C	0.938247	-0.469196	-0.973367
C183	C	0.895196	-0.447740	-0.926812
C184	C	1.102617	-0.469218	-1.137742
C185	C	1.127720	-0.447771	-1.159345
O186	O	0.294891	0.076264	-0.307927
O187	O	0.384061	-0.076269	-0.371270
O188	O	0.294883	0.012916	-0.371255
O189	O	0.384069	-0.012921	-0.307941
O190	O	0.222476	0.012909	-0.298800
O191	O	0.311654	-0.076276	-0.298814
O192	O	0.222484	0.076257	-0.235471
Zn193	Zn	0.255573	-0.000011	-0.255639
Zn194	Zn	0.350973	-0.000001	-0.351102
O195	O	0.311662	-0.012928	-0.235486
C196	C	0.614025	-0.039226	-1.110660
C197	C	0.587948	-0.039595	-1.136995
C198	C	0.535174	-0.039227	-1.031782
C199	C	0.509217	-0.039595	-1.058236
C200	C	0.535175	-0.039226	-1.110659
C201	C	0.587947	-0.039595	-1.058238
C202	C	0.789896	-0.024946	-1.158830
C203	C	0.839708	-0.020908	-1.183657
C204	C	0.864695	-0.018881	-1.235605
C205	C	0.918697	-0.014493	-1.262524
C206	C	0.839870	-0.020896	-1.262725
C207	C	0.790067	-0.024941	-1.237900
C208	C	0.765081	-0.026966	-1.185950
C209	C	0.472752	-0.024946	-1.238422
C210	C	0.443898	-0.020908	-1.263423
C211	C	0.389942	-0.018879	-1.236472
C212	C	0.358647	-0.014494	-1.263571
C213	C	0.364844	-0.020895	-1.184517
C214	C	0.393703	-0.024942	-1.159521
C215	C	0.447659	-0.026964	-1.186479
C216	C	0.472749	-0.024948	-0.841571
C217	C	0.443889	-0.020903	-0.787703
C218	C	0.389933	-0.018877	-0.760680
C219	C	0.358638	-0.014489	-0.702272
C220	C	0.364837	-0.020890	-0.787526
C221	C	0.393696	-0.024932	-0.841392
C222	C	0.447657	-0.026965	-0.868412
C223	C	0.711074	-0.031347	-1.159033
C224	C	0.668027	-0.034841	-1.137577
C225	C	0.503884	-0.034842	-0.973376
C226	C	0.478943	-0.031348	-0.926821
C227	C	0.503885	-0.034841	-1.137762
C228	C	0.478945	-0.031347	-1.159368
H229	H	0.322202	-0.161140	-0.626516
H230	H	0.320563	-0.301360	-1.161564
O231	O	0.292510	-0.312539	-0.449619
C232	C	0.278735	-0.344961	-0.421078
H233	H	0.238284	-0.319397	-0.377787
H234	H	0.266148	-0.364673	-0.439747
C235	C	0.385014	-0.419684	-0.476331
C236	C	0.335335	-0.388285	-0.423159
H237	H	0.419929	-0.446410	-0.477616
H238	H	0.394295	-0.397841	-0.495561
H239	H	0.374517	-0.436105	-0.491883
H240	H	0.345830	-0.371859	-0.407610
H241	H	0.326057	-0.410126	-0.403926
H242	H	0.465215	-0.161140	-0.626507
O243	O	0.840667	-0.498379	-0.867902
C244	C	0.889964	-0.514482	-0.921196
H245	H	0.884395	-0.477742	-0.932913
H246	H	0.935298	-0.539015	-0.925238
C247	C	0.896937	-0.593690	-0.943735
C248	C	0.890094	-0.548564	-0.958127
H249	H	0.897019	-0.614715	-0.966515
H250	H	0.863726	-0.582842	-0.907828
H251	H	0.934715	-0.614127	-0.947103
H252	H	0.852313	-0.528125	-0.954752
H253	H	0.923299	-0.559410	-0.994033
O254	O	1.081054	-0.739007	-1.108370
C255	C	1.065085	-0.774248	-1.089758
H256	H	1.086648	-0.808227	-1.125204
H257	H	1.082834	-0.791203	-1.064635
C258	C	0.968052	-0.702203	-1.011945
C259	C	0.994532	-0.743935	-1.055481
H260	H	0.924532	-0.683505	-0.990800
H261	H	0.978811	-0.678461	-1.024483
H262	H	0.982849	-0.716339	-0.991015
H263	H	0.979741	-0.729798	-1.076413
H264	H	0.983768	-0.767674	-1.042945
H265	H	0.141342	0.019768	-0.302529
O266	O	0.313931	-0.157039	-0.294247
C267	C	0.265322	-0.154390	-0.291324
H268	H	0.273579	-0.157823	-0.332117
H269	H	0.263110	-0.188519	-0.278600
C270	C	0.193917	-0.096542	-0.200111
C271	C	0.204056	-0.100754	-0.250213
H272	H	0.156125	-0.063458	-0.174751
H273	H	0.226666	-0.098328	-0.202080
H274	H	0.192077	-0.124986	-0.189515
H275	H	0.205903	-0.072314	-0.260812
H276	H	0.171305	-0.098962	-0.248246
H277	H	0.467087	-0.427021	-1.036998
O278	O	1.138048	-0.845195	-1.157338
C279	C	1.181346	-0.888485	-1.152479
H280	H	1.229648	-0.900678	-1.184904
H281	H	1.171010	-0.876190	-1.111606
C282	C	1.118031	-0.920934	-1.118757
C283	C	1.177357	-0.935913	-1.158585
H284	H	1.115569	-0.950190	-1.122521
H285	H	1.088859	-0.891768	-1.122029
H286	H	1.109425	-0.910688	-1.084700
H287	H	1.185960	-0.946152	-1.192641
H288	H	1.206530	-0.965083	-1.155319
O289	O	0.613895	-0.040209	-1.032842
C290	C	0.570844	0.005485	-0.986855
H291	H	0.534889	0.038021	-0.991679
H292	H	0.547236	-0.005039	-0.950523
C293	C	0.648436	-0.014298	-0.973258
C294	C	0.604279	0.025665	-0.979184
H295	H	0.669060	-0.001851	-0.968524
H296	H	0.677441	-0.045084	-1.004239
H297	H	0.628756	-0.023065	-0.942982
H298	H	0.623960	0.034426	-1.009464
H299	H	0.575278	0.056453	-0.948208
H300	H	0.142938	-0.841222	-0.587491
O301	O	0.614266	-0.574099	-1.032835
C302	C	0.579903	-0.539497	-0.980790
H303	H	0.553179	-0.496401	-0.979152
H304	H	0.546299	-0.548315	-0.951440
C305	C	0.656685	-0.600938	-0.967808
C306	C	0.623865	-0.548005	-0.965798
H307	H	0.683801	-0.606187	-0.958559
H308	H	0.679835	-0.624250	-1.002871
H309	H	0.628675	-0.608280	-0.943350
H310	H	0.651874	-0.540666	-0.990261
H311	H	0.600721	-0.524692	-0.930739
H312	H	0.465215	-0.161151	-0.445599
O313	O	0.469467	-0.312556	-0.449651
C314	C	0.487090	-0.344984	-0.421100
H315	H	0.493539	-0.324817	-0.395853
H316	H	0.449764	-0.351040	-0.394029
C317	C	0.540127	-0.424240	-0.491596
C318	C	0.548053	-0.399472	-0.460590
H319	H	0.577731	-0.457851	-0.515954
H320	H	0.528253	-0.402393	-0.510830
H321	H	0.509020	-0.429281	-0.469031
H322	H	0.579154	-0.394425	-0.483154
H323	H	0.559934	-0.421320	-0.441360
O324	O	0.137213	-0.157051	-0.294242
C325	C	0.180216	-0.154366	-0.291286
H326	H	0.228843	-0.187261	-0.326663
H327	H	0.171751	-0.113854	-0.292240
C328	C	0.113212	-0.121323	-0.195526
C329	C	0.172937	-0.161728	-0.238975
H330	H	0.108722	-0.125862	-0.163258
H331	H	0.084239	-0.123130	-0.197518
H332	H	0.106166	-0.087567	-0.196329
H333	H	0.179981	-0.195483	-0.238176
H334	H	0.201912	-0.159927	-0.236982
H335	H	0.141351	0.019765	-0.445603
O336	O	0.614242	-0.574110	-1.188376
C337	C	0.579902	-0.539497	-1.206057
H338	H	0.531003	-0.507816	-1.170187
H339	H	0.602486	-0.519392	-1.229090
C340	C	0.637999	-0.610555	-1.286770
C341	C	0.577938	-0.571646	-1.242713
H342	H	0.636789	-0.630385	-1.309383
H343	H	0.661136	-0.633874	-1.274859
H344	H	0.656813	-0.593795	-1.305958
H345	H	0.559129	-0.588407	-1.223522
H346	H	0.554798	-0.548330	-1.254622
O347	O	0.312092	-0.293194	-0.761709
C348	C	0.296319	-0.274768	-0.797105
H349	H	0.339165	-0.297993	-0.839915
H350	H	0.260440	-0.280899	-0.791614
C351	C	0.217054	-0.186460	-0.732776
C352	C	0.269680	-0.214982	-0.785356
H353	H	0.200619	-0.149580	-0.725528
H354	H	0.227679	-0.198873	-0.708928
H355	H	0.187161	-0.191575	-0.728207
H356	H	0.299574	-0.209872	-0.789923
H357	H	0.259059	-0.202566	-0.809205
H358	H	0.284363	0.019769	-0.445595
H359	H	0.464326	-0.019261	-0.765847
O360	O	0.458612	-0.040384	-1.032978
C361	C	0.472398	-0.086591	-1.061518
H362	H	0.512845	-0.101485	-1.104810
H363	H	0.484994	-0.118894	-1.042850
C364	C	0.366124	-0.055018	-1.006262
C365	C	0.415800	-0.073308	-1.059434
H366	H	0.331212	-0.046826	-1.004974
H367	H	0.356837	-0.023889	-0.987031
H368	H	0.376629	-0.081940	-0.990711
H369	H	0.405297	-0.046384	-1.074982
H370	H	0.425084	-0.104434	-1.078667
O371	O	0.613922	-0.040329	-1.188388
C372	C	0.579559	-0.040565	-1.206053
H373	H	0.552850	-0.056942	-1.180959
H374	H	0.545942	0.001866	-1.201777
C375	C	0.656320	-0.055907	-1.295843
C376	C	0.623519	-0.076025	-1.265025
H377	H	0.683435	-0.077778	-1.332221
H378	H	0.679470	-0.055746	-1.283942
H379	H	0.628299	-0.020547	-1.292274
H380	H	0.651539	-0.111381	-1.268590
H381	H	0.600375	-0.076193	-1.276929
O382	O	0.864156	-0.845378	-1.313918
C383	C	0.885632	-0.820031	-1.348661
H384	H	0.860720	-0.776898	-1.324913
H385	H	0.937258	-0.841857	-1.369056
C386	C	0.903599	-0.874105	-1.420310
C387	C	0.872999	-0.821126	-1.391143
H388	H	0.895810	-0.874782	-1.446516
H389	H	0.889133	-0.891183	-1.396903
H390	H	0.946619	-0.892287	-1.437301
H391	H	0.829980	-0.802947	-1.374148
H392	H	0.887458	-0.804045	-1.414548
H393	H	0.090265	-0.743499	-0.580155
O394	O	-0.007801	-0.418391	-0.566480
C395	C	-0.060071	-0.400720	-0.566225
H396	H	-0.055898	-0.436598	-0.583421
H397	H	-0.103203	-0.377652	-0.523535
C398	C	-0.069667	-0.320049	-0.579265
C399	C	-0.064538	-0.364114	-0.600390
H400	H	-0.072425	-0.297466	-0.600338
H401	H	-0.034453	-0.331952	-0.579435
H402	H	-0.105610	-0.300832	-0.543691
H403	H	-0.028592	-0.383334	-0.635962
H404	H	-0.099747	-0.352213	-0.600228
H405	H	0.141344	-0.161137	-0.445598
O406	O	1.294665	-0.449489	-1.313822
C407	C	1.342794	-0.454360	-1.313782
H408	H	1.322565	-0.421937	-1.277655
H409	H	1.371345	-0.495233	-1.311818
C410	C	1.408972	-0.488090	-1.409568
C411	C	1.384126	-0.448264	-1.365197
H412	H	1.434470	-0.484332	-1.441284
H413	H	1.376548	-0.484810	-1.409595
H414	H	1.432761	-0.522147	-1.407924
H415	H	1.360332	-0.414208	-1.366839
H416	H	1.416548	-0.451538	-1.365171
O417	O	1.293770	-0.845517	-1.313194
C418	C	1.283842	-0.864517	-1.346770
H419	H	1.244178	-0.868451	-1.321782
H420	H	1.271946	-0.835298	-1.368509
C421	C	1.391363	-0.914592	-1.418523
C422	C	1.342650	-0.919429	-1.387834
H423	H	1.427638	-0.948464	-1.443855
H424	H	1.398051	-0.901791	-1.395903
H425	H	1.381441	-0.890241	-1.436634
H426	H	1.352569	-0.943775	-1.369718
H427	H	1.335964	-0.932236	-1.410452
O428	O	0.863906	-0.019037	-1.157369
C429	C	0.926395	-0.062520	-1.186211
H430	H	0.934977	-0.095774	-1.212935
H431	H	0.956548	-0.049092	-1.211841
C432	C	0.931789	-0.042395	-1.114174
C433	C	0.942328	-0.083240	-1.146993
H434	H	0.941619	-0.055175	-1.089983
H435	H	0.889690	-0.013098	-1.094743
H436	H	0.956918	-0.031209	-1.135538
H437	H	0.917195	-0.094421	-1.125630
H438	H	0.984424	-0.112539	-1.166420
O439	O	0.992223	-0.418398	-1.032816
C440	C	0.939962	-0.400723	-0.980772
H441	H	0.921955	-0.425807	-0.979140
H442	H	0.953040	-0.405003	-0.951421
C443	C	0.911652	-0.310943	-0.967781
C444	C	0.889532	-0.341749	-0.965778
H445	H	0.880544	-0.274564	-0.958530
H446	H	0.946862	-0.322850	-1.002843
H447	H	0.922549	-0.314515	-0.943322
H448	H	0.878642	-0.338181	-0.990241
H449	H	0.854318	-0.329839	-0.930719
H450	H	0.139482	-0.569756	-0.566552
O451	O	0.864093	-0.018831	-1.313148
C452	C	0.859241	0.029334	-1.313030
H453	H	0.820645	0.060145	-1.271341
H454	H	0.904580	0.022034	-1.325033
C455	C	0.892238	0.012341	-1.404207
C456	C	0.844830	0.050186	-1.353005
H457	H	0.883352	0.025203	-1.428867
H458	H	0.895509	-0.020110	-1.404287
H459	H	0.930017	0.006262	-1.414202
H460	H	0.807054	0.056260	-1.343008
H461	H	0.841552	0.082639	-1.352924
H462	H	1.232996	-0.743516	-1.259969
O463	O	0.294497	-0.845045	-0.587800
C464	C	0.310253	-0.809642	-0.585126
H465	H	0.288604	-0.775714	-0.599010
H466	H	0.292434	-0.792633	-0.542235
C467	C	0.407369	-0.881447	-0.604337
C468	C	0.380783	-0.839779	-0.621394
H469	H	0.450875	-0.900037	-0.626706
H470	H	0.396753	-0.905299	-0.606136
H471	H	0.392513	-0.867267	-0.568594
H472	H	0.395633	-0.853960	-0.657133
H473	H	0.391403	-0.815930	-0.619601
H474	H	1.139537	-0.569784	-1.180052
O475	O	1.237428	-0.498436	-1.264667
C476	C	1.291280	-0.517056	-1.315873
H477	H	1.289833	-0.481615	-1.328281
H478	H	1.333331	-0.542187	-1.315058
C479	C	1.297030	-0.594853	-1.340911
C480	C	1.295251	-0.551323	-1.356152
H481	H	1.299482	-0.615992	-1.365756
H482	H	1.260750	-0.582309	-1.306411
H483	H	1.332073	-0.615789	-1.340231
H484	H	1.260204	-0.530384	-1.356825
H485	H	1.331524	-0.563864	-1.390652
H486	H	0.996494	-0.569769	-1.036992
H487	H	0.516684	-0.026599	-0.863568
H488	H	-0.163317	-0.490232	-0.580145
H489	H	0.746324	-0.445189	-0.765847
O490	O	0.369252	-0.026905	-0.867395
C491	C	0.315433	-0.024236	-0.831992
H492	H	0.317042	-0.038113	-0.798060
H493	H	0.273369	0.018651	-0.814988
C494	C	0.309319	-0.043465	-0.903803
C495	C	0.311297	-0.060513	-0.862130
H496	H	0.306765	-0.065841	-0.922393
H497	H	0.345576	-0.045262	-0.927655
H498	H	0.274265	-0.007726	-0.889626
H499	H	0.346354	-0.096250	-0.876307
H500	H	0.275045	-0.058724	-0.838281
O501	O	1.139134	-0.293674	-1.158221
C502	C	1.137032	-0.292543	-1.111269
H503	H	1.136816	-0.327421	-1.098722
H504	H	1.179128	-0.295854	-1.119004
C505	C	1.078427	-0.196880	-1.081892
C506	C	1.078157	-0.239716	-1.066479
H507	H	1.042112	-0.164293	-1.054264
H508	H	1.079845	-0.197642	-1.113525
H509	H	1.113511	-0.199647	-1.088338
H510	H	1.043078	-0.236952	-1.060040
H511	H	1.076732	-0.238952	-1.034843
H512	H	0.320916	-0.019250	-1.162575
O513	O	1.081874	-0.342641	-1.109042
C514	C	1.061593	-0.375690	-1.092758
H515	H	1.080923	-0.406893	-1.129410
H516	H	1.078321	-0.396471	-1.068189
C517	C	0.966988	-0.303247	-1.013633
C518	C	0.990726	-0.341568	-1.058650
H519	H	0.923274	-0.282199	-0.992591
H520	H	0.980653	-0.280981	-1.024602
H521	H	0.980934	-0.320571	-0.993165
H522	H	0.976786	-0.324244	-1.079120
H523	H	0.977057	-0.363830	-1.047683
H524	H	0.836432	-0.346804	-0.863238
H525	H	0.463645	-0.444502	-1.305015
H526	H	0.373217	-0.346711	-0.863565
O527	O	0.312378	-0.018849	-0.761206
C528	C	0.264333	0.029326	-0.717908
H529	H	0.284660	0.045208	-0.705861
H530	H	0.235660	0.059864	-0.730123
C531	C	0.198159	-0.000265	-0.685179
C532	C	0.223125	0.019240	-0.670380
H533	H	0.172738	-0.006485	-0.655863
H534	H	0.230526	-0.032721	-0.714351
H535	H	0.174269	0.025186	-0.695359
H536	H	0.247020	-0.006214	-0.660208
H537	H	0.190760	0.051691	-0.641205
H538	H	0.373222	-0.346707	-1.116525
H539	H	0.746093	-0.301774	-0.765503
O540	O	0.138978	-0.293543	-0.587729
C541	C	0.124442	-0.259971	-0.544242
H542	H	0.117819	-0.278112	-0.510986
H543	H	0.163584	-0.255579	-0.557666
C544	C	0.072770	-0.182445	-0.564375
C545	C	0.064630	-0.204724	-0.523528
H546	H	0.035877	-0.148365	-0.551599
H547	H	0.082565	-0.205063	-0.593675
H548	H	0.105390	-0.178790	-0.575558
H549	H	0.032016	-0.208385	-0.512350
H550	H	0.054828	-0.182106	-0.494226
H551	H	0.516315	-0.489857	-1.259980
H552	H	0.769558	-0.026596	-1.116531
H553	H	0.769895	-0.743514	-1.260379
H554	H	0.769861	-0.026584	-1.259984
H555	H	0.860550	-0.841553	-1.162581
H556	H	0.516685	-0.026596	-1.260377
O557	O	0.468338	-0.018927	-1.313878
C558	C	0.522154	-0.021592	-1.332312
H559	H	0.520547	-0.007723	-1.296770
H560	H	0.564221	-0.064477	-1.357394
C561	C	0.528256	-0.002344	-1.410230
C562	C	0.526281	0.014695	-1.366577
H563	H	0.530804	0.020038	-1.431369
H564	H	0.492001	-0.000550	-1.397813
H565	H	0.563312	-0.038081	-1.431126
H566	H	0.491221	0.050430	-1.345679
H567	H	0.562530	0.012909	-1.378993
H568	H	0.770192	-0.743829	-1.117226
H569	H	0.465208	-0.304204	-0.626497
H570	H	0.516294	-0.489866	-0.863248
H571	H	0.463626	-0.444517	-0.765522
H572	H	0.286014	-0.445187	-0.587480
O573	O	-0.007683	-0.573925	-0.566419
C574	C	0.026649	-0.625953	-0.566144
H575	H	0.075558	-0.639013	-0.583403
H576	H	0.004076	-0.626377	-0.523441
C577	C	-0.031497	-0.648531	-0.579018
C578	C	0.028576	-0.664573	-0.600220
H579	H	-0.030310	-0.672354	-0.600036
H580	H	-0.054629	-0.613478	-0.579202
H581	H	-0.050301	-0.648885	-0.543433
H582	H	0.047376	-0.664212	-0.635803
H583	H	0.051711	-0.699627	-0.600044
O584	O	0.237351	-0.498393	-0.579841
C585	C	0.291179	-0.516999	-0.582470
H586	H	0.310916	-0.493882	-0.602120
H587	H	0.279541	-0.510895	-0.540440
C588	C	0.314795	-0.605190	-0.591438
C589	C	0.339040	-0.576800	-0.615577
H590	H	0.344318	-0.642078	-0.611857
H591	H	0.278529	-0.592655	-0.589665
H592	H	0.305098	-0.600098	-0.556414
H593	H	0.348730	-0.581887	-0.650598
H594	H	0.375309	-0.589338	-0.617356
O595	O	-0.257482	-0.449510	-0.587891
C596	C	-0.211572	-0.496473	-0.632729
H597	H	-0.174389	-0.491936	-0.663649
H598	H	-0.190227	-0.531727	-0.620020
C599	C	-0.286156	-0.511852	-0.619132
C600	C	-0.240489	-0.506278	-0.657111
H601	H	-0.303993	-0.517902	-0.634171
H602	H	-0.317086	-0.480214	-0.588923
H603	H	-0.268361	-0.541230	-0.608545
H604	H	-0.258286	-0.476896	-0.667693
H605	H	-0.209563	-0.537912	-0.687323
O606	O	0.237159	-0.738862	-0.579731
C607	C	0.193744	-0.695575	-0.531545
H608	H	0.145503	-0.683530	-0.515683
H609	H	0.204084	-0.707801	-0.501000
C610	C	0.256771	-0.662837	-0.561080
C611	C	0.197519	-0.648041	-0.541600
H612	H	0.259101	-0.633517	-0.567281
H613	H	0.286022	-0.692001	-0.593543
H614	H	0.265381	-0.673026	-0.535623
H615	H	0.188914	-0.637859	-0.567060
H616	H	0.168267	-0.618874	-0.509142
O617	O	-0.258004	-0.293559	-0.587744
C618	C	-0.320494	-0.259987	-0.544242
H619	H	-0.339112	-0.284976	-0.529564
H620	H	-0.324924	-0.238252	-0.510592
C621	C	-0.334753	-0.188228	-0.580034
C622	C	-0.357622	-0.218919	-0.562009
H623	H	-0.357655	-0.162893	-0.590992
H624	H	-0.292651	-0.210844	-0.609341
H625	H	-0.338446	-0.170120	-0.551989
H626	H	-0.353922	-0.237031	-0.590055
H627	H	-0.399724	-0.196304	-0.532707
H628	H	-0.163621	-0.346778	-0.580155
H629	H	0.090271	-0.346781	-0.580170
H630	H	0.373268	-0.026586	-1.117222
