data_functionalizedCrystal
_audit_creation_method	'MofGen! by Chris Wilmer'
_symmetry_space_group_name_H-M	'P1'
_symmetry_Int_Tables_number	1
_symmetry_cell_setting	triclinic
loop_
_symmetry_equiv_pos_as_xyz
  x,y,z
_cell_length_a	8.597340
_cell_length_b	15.995292
_cell_length_c	7.088929
_cell_angle_alpha	83.780829
_cell_angle_beta	103.954719
_cell_angle_gamma	84.406495
loop_
_atom_site_label
_atom_site_type_symbol
_atom_site_fract_x
_atom_site_fract_y
_atom_site_fract_z
O1	O	2.101323	0.114995	0.187178
O2	O	1.636635	0.128664	0.110628
O3	O	1.881729	-0.000071	0.151001
O4	O	1.856228	0.243729	0.146806
O5	O	1.914484	-0.017314	0.474371
O6	O	1.669389	0.111421	0.433999
O7	O	2.134077	0.097752	0.510549
Cu8	Cu	1.904724	0.103012	0.501800
Cu9	Cu	1.865988	0.123404	0.119377
O10	O	1.888983	0.226486	0.470176
C11	C	1.593549	0.119535	0.262517
C12	C	1.416368	0.118013	0.233329
C13	C	1.897068	-0.039887	0.312510
C14	C	1.893955	-0.132837	0.311983
C15	C	1.882517	-0.470568	0.310116
C16	C	2.059493	-0.447424	0.339981
C17	C	2.062781	-0.350712	0.339799
C18	C	1.888193	-0.303016	0.311044
C19	C	1.781046	-0.322206	0.111820
C20	C	1.778901	-0.418987	0.111321
C21	C	1.812537	-0.438450	0.478459
C22	C	1.819339	-0.342092	0.481972
C23	C	1.891390	-0.208321	0.311560
C24	C	1.879313	-0.565261	0.309586
C25	C	2.177162	0.106881	0.358655
C26	C	2.354342	0.108403	0.387831
C27	C	1.873643	0.266303	0.308662
C28	C	1.876755	0.359253	0.309177
N29	N	1.931980	0.088669	0.770778
N30	N	1.838744	0.137740	-0.149599
H31	H	2.145455	-0.338795	0.483574
O32	O	1.463530	0.099054	0.592649
H33	H	1.554486	0.042221	0.615827
O34	O	1.904717	-0.485814	0.675952
H35	H	1.959509	-0.440244	0.771496
H36	H	2.028627	0.037820	0.868354
H37	H	1.742116	0.188592	0.752838
O38	O	2.137254	-0.317026	0.179338
H39	H	2.262350	-0.349377	0.206257
O40	O	1.307166	0.127377	0.028501
H41	H	1.180465	0.124682	0.036931
H42	H	1.897576	-0.330858	0.629187
H43	H	2.113963	-0.469470	0.219470
O44	O	2.167590	-0.493903	0.530299
H45	H	2.096345	-0.534006	0.605633
O46	O	1.605967	-0.437540	0.071898
H47	H	1.590940	-0.481071	0.197416
H48	H	1.651876	-0.289878	0.083794
O49	O	1.842353	-0.444909	-0.057500
H50	H	1.874192	-0.388329	-0.138082
H51	H	1.828544	-0.294862	-0.015485
O52	O	1.652056	-0.299072	0.469002
H53	H	1.615204	-0.248952	0.339933
H54	H	1.682449	-0.452411	0.458256
