data_functionalizedCrystal
_audit_creation_method	'MofGen! by Chris Wilmer'
_symmetry_space_group_name_H-M	'P1'
_symmetry_Int_Tables_number	1
_symmetry_cell_setting	triclinic
loop_
_symmetry_equiv_pos_as_xyz
  x,y,z
_cell_length_a	12.784890
_cell_length_b	12.811480
_cell_length_c	9.565339
_cell_angle_alpha	95.433133
_cell_angle_beta	89.992854
_cell_angle_gamma	101.400192
loop_
_atom_site_label
_atom_site_type_symbol
_atom_site_fract_x
_atom_site_fract_y
_atom_site_fract_z
O1	O	-0.143115	1.379602	0.291119
O2	O	-0.158675	1.072599	0.252210
O3	O	0.003733	1.248567	0.274505
O4	O	-0.305523	1.203634	0.268824
O5	O	0.003748	1.248560	0.041984
O6	O	-0.158661	1.072592	0.019689
O7	O	-0.143101	1.379595	0.058598
Zn8	Zn	-0.150878	1.226092	0.002226
Zn9	Zn	-0.150897	1.226101	0.308582
O10	O	-0.305509	1.203627	0.036303
C11	C	-0.157796	1.033571	0.131004
C12	C	-0.155184	0.917292	0.116266
C13	C	0.043327	1.251486	0.158616
C14	C	0.161283	1.260182	0.159721
C15	C	-0.345103	1.200708	0.152195
C16	C	-0.463058	1.192012	0.151099
C17	C	-0.143980	1.418623	0.179808
C18	C	-0.146592	1.534901	0.194554
C19	C	0.339777	1.369160	0.173535
C20	C	0.228948	1.360997	0.172498
C21	C	0.204453	1.167523	0.147977
C22	C	0.315282	1.175686	0.149014
C23	C	0.382940	1.276508	0.161796
C24	C	0.493771	1.284671	0.162843
C25	C	0.469274	1.091198	0.138313
C26	C	0.358446	1.083035	0.137275
N27	N	-0.150865	1.226094	-0.206853
C28	C	-0.151503	1.753403	-0.031256
C29	C	-0.153957	1.862657	-0.017407
C30	C	-0.153961	1.862665	0.236100
C31	C	-0.151507	1.753410	0.222251
C32	C	-0.150277	1.698784	0.088568
C33	C	-0.147815	1.589529	0.074721
C34	C	-0.147827	1.589537	0.328226
C35	C	-0.150280	1.698791	0.342075
C36	C	-0.075171	1.306954	-0.380944
C37	C	-0.170976	1.319420	-0.286121
C38	C	-0.055068	1.213673	-0.299601
C39	C	-0.246756	1.238618	-0.389561
C40	C	-0.130785	1.132836	-0.403053
C41	C	-0.226659	1.145256	-0.308278
N42	N	-0.150902	1.226109	0.517663
H43	H	0.548858	1.366765	0.173259
H44	H	-0.011215	1.375364	-0.413176
H45	H	0.504429	1.015754	0.128758
H46	H	-0.327805	1.249216	-0.428952
H47	H	-0.187983	1.398291	-0.235151
H48	H	0.149347	1.085439	0.137562
H49	H	-0.290757	1.076872	-0.276299
N50	N	-0.150159	1.694483	-0.175434
H51	H	-0.150568	1.745828	-0.249216
H52	H	-0.215302	1.635099	-0.188905
H53	H	-0.154959	1.907123	-0.114981
N54	N	-0.108225	1.028398	-0.470616
H55	H	-0.035791	1.019079	-0.437987
H56	H	-0.109164	1.028991	-0.576114
H57	H	0.025962	1.203160	-0.260026
H58	H	-0.151286	1.743282	0.450916
H59	H	0.303343	1.000949	0.126864
N60	N	0.412759	1.477895	0.187341
H61	H	0.368597	1.535353	0.194628
H62	H	0.459287	1.485500	0.102110
N63	N	-0.146482	1.530610	-0.069459
H64	H	-0.146888	1.581957	-0.143238
H65	H	-0.211631	1.471233	-0.082925
N66	N	0.182390	1.460926	0.185152
H67	H	0.242072	1.526031	0.193404
H68	H	0.136931	1.461758	0.271453
N69	N	-0.155290	1.921596	0.380272
H70	H	-0.154141	1.870418	0.454086
H71	H	-0.222098	1.952407	0.389698
H72	H	-0.146831	1.545054	0.425796
