data_functionalizedCrystal
_audit_creation_method	'MofGen! by Chris Wilmer'
_symmetry_space_group_name_H-M	'P1'
_symmetry_Int_Tables_number	1
_symmetry_cell_setting	triclinic
loop_
_symmetry_equiv_pos_as_xyz
  x,y,z
_cell_length_a	29.839131
_cell_length_b	18.050591
_cell_length_c	18.050582
_cell_angle_alpha	90.022741
_cell_angle_beta	89.974523
_cell_angle_gamma	89.965147
loop_
_atom_site_label
_atom_site_type_symbol
_atom_site_fract_x
_atom_site_fract_y
_atom_site_fract_z
Zn1	Zn	-0.178961	-1.135224	-0.420052
Zn2	Zn	-0.254083	-1.135106	-0.295856
Zn3	Zn	-0.178959	-1.011044	-0.295860
Zn4	Zn	-0.254056	-1.010963	-0.419988
O5	O	-0.216514	-1.073084	-0.357939
O6	O	-0.188938	-1.239133	-0.403603
O7	O	-0.244128	-1.118634	-0.191932
O8	O	-0.116092	-1.027599	-0.312363
O9	O	-0.244130	-1.239047	-0.312357
O10	O	-0.116093	-1.118835	-0.403607
O11	O	-0.188935	-1.027485	-0.191934
O12	O	-0.188909	-0.907108	-0.312300
O13	O	-0.244083	-1.027462	-0.523921
O14	O	-0.244082	-0.907049	-0.403496
O15	O	-0.188911	-1.118756	-0.523968
O16	O	-0.316946	-1.118555	-0.312294
O17	O	-0.316926	-1.027348	-0.403493
C18	C	-0.216493	-0.880132	-0.357892
C19	C	-0.216494	-0.797586	-0.357889
C20	C	-0.186452	-0.548772	-0.308401
C21	C	-0.175516	-0.598208	-0.376181
C22	C	-0.216507	-0.500466	-0.357934
C23	C	-0.227416	-0.598112	-0.290137
C24	C	-0.216500	-0.646451	-0.357909
C25	C	-0.205550	-0.548815	-0.425750
C26	C	-0.257469	-0.548715	-0.339660
C27	C	-0.246549	-0.598128	-0.407487
C28	C	-0.216511	-0.416368	-0.357948
C29	C	-0.216496	-0.730548	-0.357902
C30	C	-0.333237	-1.072950	-0.357902
C31	C	-0.383172	-1.072961	-0.357911
C32	C	-0.692813	-1.120663	-0.310521
C33	C	-0.880486	-1.120754	-0.310550
O34	O	-0.904749	-1.161205	-0.270229
N35	N	-0.903957	-1.073238	-0.357995
C36	C	-0.880506	-1.025700	-0.405440
O37	O	-0.904776	-0.985292	-0.445801
C38	C	-0.692834	-1.025612	-0.405414
C39	C	-0.669366	-1.073126	-0.357960
C40	C	-0.669344	-1.168173	-0.263072
C41	C	-0.622429	-1.168147	-0.263062
C42	C	-0.598982	-1.120610	-0.310502
C43	C	-0.622450	-1.073100	-0.357951
C44	C	-0.669385	-0.978078	-0.452862
C45	C	-0.622464	-0.978062	-0.452853
C46	C	-0.598995	-1.025575	-0.405399
C47	C	-0.552088	-1.025537	-0.405381
N48	N	-0.528617	-1.073053	-0.357936
C49	C	-0.552064	-1.120589	-0.310496
C50	C	-0.979037	-1.025748	-0.405449
C51	C	-1.025955	-1.025769	-0.405454
C52	C	-1.025931	-1.120824	-0.310565
C53	C	-0.979012	-1.120799	-0.310557
C54	C	-0.955566	-1.073264	-0.358004
C55	C	-0.453538	-1.120530	-0.310479
C56	C	-0.406618	-1.120497	-0.310472
C57	C	-0.406646	-1.025445	-0.405363
C58	C	-0.453562	-1.025474	-0.405368
C59	C	-0.477007	-1.073023	-0.357924
O60	O	-0.527796	-0.985113	-0.445687
O61	O	-0.527786	-1.161002	-0.270153
C62	C	-0.739728	-1.120689	-0.310531
C63	C	-0.763197	-1.073178	-0.357980
C64	C	-0.739750	-1.025642	-0.405419
C65	C	-0.810114	-1.073199	-0.357985
C66	C	-0.833561	-1.120736	-0.310546
C67	C	-0.810090	-1.168252	-0.263101
C68	C	-0.763175	-1.168225	-0.263091
C69	C	-0.763220	-0.978126	-0.452864
C70	C	-0.810136	-0.978155	-0.452869
C71	C	-0.833583	-1.025692	-0.405430
C72	C	-0.099336	-1.073239	-0.357992
C73	C	-0.049402	-1.073305	-0.358015
C74	C	-0.216495	-1.073113	-0.551645
C75	C	-0.216486	-1.073126	-0.634190
C76	C	-0.216529	-0.266790	-0.357974
C77	C	-0.216515	-0.349336	-0.357955
C78	C	-0.246448	-1.023518	-0.833615
C79	C	-0.257434	-1.091269	-0.883015
C80	C	-0.216452	-1.073162	-0.785321
C81	C	-0.205453	-1.005449	-0.883003
C82	C	-0.216420	-1.073192	-0.931306
C83	C	-0.227460	-1.140949	-0.833633
C84	C	-0.175460	-1.055083	-0.833617
C85	C	-0.186430	-1.122881	-0.882994
C86	C	-0.216472	-1.073145	-0.701223
C87	C	-0.216400	-1.073217	-1.015403
C88	C	-0.216502	-1.073098	-0.164987
C89	C	-0.216384	-1.073230	-0.082441
H90	H	-0.236645	-0.619768	-0.232811
O91	O	-0.381305	-1.171754	-0.259297
H92	H	-0.390339	-1.159071	-0.200997
H93	H	-0.472671	-0.986787	-0.444011
O94	O	-0.152808	-1.178566	-0.911535
H95	H	-0.152825	-1.177848	-0.973021
O96	O	-0.129578	-1.034774	-0.804824
H97	H	-0.120539	-0.978498	-0.824553
H98	H	-0.292086	-1.106579	-0.904713
H99	H	-0.196280	-0.527250	-0.483092
H100	H	-0.829240	-0.939458	-0.491511
H101	H	-0.603376	-0.939353	-0.491492
H102	H	-0.196164	-0.948172	-0.904690
H103	H	-1.045029	-1.159531	-0.271938
O104	O	-0.737934	-0.926836	-0.504017
H105	H	-0.762141	-0.893796	-0.536998
O106	O	-0.478822	-1.171807	-0.259303
H107	H	-0.454614	-1.204829	-0.226305
O108	O	-0.239591	-1.216944	-0.805039
H109	H	-0.239441	-1.216364	-0.743551
O110	O	-0.694689	-0.926830	-0.504046
H111	H	-0.716035	-0.960054	-0.541867
H112	H	-0.603323	-1.206838	-0.224424
H113	H	-0.161019	-0.527101	-0.266575
H114	H	-0.140870	-0.619933	-0.391640
O115	O	-0.835383	-1.219540	-0.211947
H116	H	-0.871950	-1.211579	-0.219940
O117	O	-0.303345	-0.519889	-0.319170
H118	H	-0.302998	-0.458406	-0.319903
O119	O	-0.280213	-0.626665	-0.463015
H120	H	-0.271048	-0.606816	-0.519204
H121	H	-1.045059	-0.987071	-0.444089
H122	H	-0.959907	-1.159489	-0.271916
H123	H	-0.959950	-0.987037	-0.444087
O124	O	-0.694630	-1.219444	-0.211896
H125	H	-0.670421	-1.252467	-0.178902
O126	O	-0.381355	-0.974173	-0.456530
H127	H	-0.359951	-1.007383	-0.494345
O128	O	-0.737865	-1.219483	-0.211920
H129	H	-0.746900	-1.206797	-0.153621
O130	O	-0.280089	-0.967966	-0.804875
H131	H	-0.314078	-0.983170	-0.824656
