data_functionalizedCrystal
_audit_creation_method	'MofGen! by Chris Wilmer'
_symmetry_space_group_name_H-M	'P1'
_symmetry_Int_Tables_number	1
_symmetry_cell_setting	triclinic
loop_
_symmetry_equiv_pos_as_xyz
  x,y,z
_cell_length_a	16.109302
_cell_length_b	13.185407
_cell_length_c	15.186229
_cell_angle_alpha	89.996626
_cell_angle_beta	89.994701
_cell_angle_gamma	67.717632
loop_
_atom_site_label
_atom_site_type_symbol
_atom_site_fract_x
_atom_site_fract_y
_atom_site_fract_z
O1	O	1.071792	0.140186	-0.073265
O2	O	0.825831	0.157631	-0.073257
O3	O	0.990952	-0.009855	-0.073259
O4	O	0.906671	0.307672	-0.073263
O5	O	0.990944	-0.009857	0.073198
O6	O	0.825823	0.157629	0.073200
O7	O	1.071784	0.140184	0.073192
Zn8	Zn	0.948802	0.148906	0.096449
Zn9	Zn	0.948813	0.148909	-0.096514
O10	O	0.906663	0.307670	0.073194
C11	C	0.795010	0.156923	-0.000028
C12	C	0.703188	0.154804	-0.000025
C13	C	0.491938	0.149903	0.079800
C14	C	0.405666	0.147901	0.079797
C15	C	0.405684	0.147909	-0.079879
C16	C	0.491957	0.149904	-0.079875
C17	C	0.535080	0.150906	-0.000033
C18	C	0.362535	0.146909	-0.000040
C19	C	0.268994	0.144737	-0.000044
C20	C	0.628627	0.153076	-0.000029
C21	C	0.999492	-0.050488	-0.000032
C22	C	1.024941	-0.171557	-0.000036
C23	C	0.782061	-0.460726	-0.000037
C24	C	0.758148	-0.346975	-0.000042
C25	C	0.824844	-0.303115	-0.000040
C26	C	0.915458	-0.373017	-0.000034
C27	C	0.939374	-0.486779	-0.000036
C28	C	0.982157	-0.329168	-0.000039
C29	C	1.072771	-0.399070	-0.000033
C30	C	1.096683	-0.512821	-0.000034
C31	C	1.029987	-0.556681	-0.000036
C32	C	0.958241	-0.215406	-0.000037
C33	C	1.115554	-0.241459	-0.000036
C34	C	1.139467	-0.355210	-0.000031
C35	C	1.102605	0.140892	-0.000039
C36	C	1.194427	0.143011	-0.000047
C37	C	0.898123	0.348303	-0.000035
C38	C	0.872674	0.469372	-0.000037
N39	N	0.948801	0.148903	0.228142
N40	N	0.948822	0.148903	-0.228207
C41	C	1.021931	0.074765	0.453864
C42	C	1.021934	0.074763	0.546054
C43	C	0.875686	0.223045	0.546064
C44	C	0.875681	0.223041	0.453876
C45	C	0.948808	0.148903	0.407779
C46	C	0.948816	0.148904	0.592156
C47	C	0.948819	0.148901	0.692112
C48	C	0.948804	0.148903	0.307816
H49	H	0.884462	-0.158502	-0.000042
O50	O	0.533970	0.150688	-0.157407
C51	C	0.661966	0.058553	-0.250043
C52	C	0.614470	0.057521	-0.162222
H53	H	0.727069	-0.016752	-0.253957
H54	H	0.616384	0.057434	-0.307144
H55	H	0.677633	0.135799	-0.254016
H56	H	0.598798	-0.019712	-0.158163
H57	H	0.660078	0.058698	-0.105163
O58	O	0.804748	0.295025	0.590982
C59	C	0.739919	0.360710	0.733007
C60	C	0.820323	0.279147	0.682251
H61	H	0.752475	0.347886	0.806806
H62	H	0.731200	0.448090	0.714938
H63	H	0.676520	0.346486	0.714842
H64	H	0.883768	0.293270	0.700388
H65	H	0.828963	0.191795	0.700324
O66	O	1.180463	-0.199047	-0.000071
C67	C	1.339018	-0.236884	-0.000021
C68	C	1.265608	-0.285069	0.000003
H69	H	1.407874	-0.306409	0.000058
H70	H	1.331822	-0.184312	-0.061326
H71	H	1.331695	-0.184244	0.061259
H72	H	1.272884	-0.337759	-0.061235
H73	H	1.272825	-0.337578	0.061348
O74	O	1.092848	0.002655	0.409007
C75	C	1.143830	-0.146409	0.305037
C76	C	1.063440	-0.064755	0.355750
H77	H	1.120086	-0.200946	0.261981
H78	H	1.174867	-0.099436	0.261788
H79	H	1.196072	-0.199345	0.353855
H80	H	1.011138	-0.011798	0.306996
H81	H	1.032475	-0.111795	0.399013
H82	H	0.816131	0.283413	0.416351
H83	H	0.527047	0.150720	0.144813
H84	H	0.370544	0.147084	0.144805
O85	O	1.093056	0.002707	0.590684
C86	C	1.238091	-0.144409	0.580939
C87	C	1.157610	-0.062843	0.530286
H88	H	1.290295	-0.197443	0.532129
H89	H	1.269154	-0.097363	0.624067
H90	H	1.214369	-0.198860	0.624129
H91	H	1.181259	-0.008372	0.487048
H92	H	1.126563	-0.109957	0.487213
H93	H	0.370562	0.147093	-0.144883
H94	H	1.213247	-0.412140	-0.000026
O95	O	0.801462	-0.192593	0.000003
C96	C	0.680828	-0.015056	-0.000042
C97	C	0.707188	-0.140206	-0.000077
H98	H	0.604606	0.027336	-0.000125
H99	H	0.709123	0.010115	0.061270
H100	H	0.709251	0.010032	-0.061314
H101	H	0.678772	-0.165385	0.061154
H102	H	0.678906	-0.165307	-0.061430
O103	O	0.670102	-0.279191	-0.000160
C104	C	0.528349	-0.222080	-0.076060
C105	C	0.628045	-0.298926	-0.076028
H106	H	0.494321	-0.237993	-0.137401
H107	H	0.494206	-0.238041	-0.014809
H108	H	0.522731	-0.133251	-0.076017
H109	H	0.633745	-0.387784	-0.076101
H110	H	0.662143	-0.282871	-0.137273
O111	O	0.717395	-0.503514	-0.000002
C112	C	0.684529	-0.667225	-0.000066
C113	C	0.757861	-0.618915	-0.000084
H114	H	0.717218	-0.760533	-0.000151
H115	H	0.641038	-0.638525	0.061240
H116	H	0.641032	-0.638368	-0.061344
H117	H	0.801421	-0.647750	0.061153
H118	H	0.801287	-0.647609	-0.061430
O119	O	1.184746	-0.580569	0.000006
C120	C	1.338254	-0.594402	-0.000044
C121	C	1.238559	-0.517555	-0.000069
H122	H	1.381790	-0.543486	-0.000123
H123	H	1.353430	-0.648294	0.061262
H124	H	1.353346	-0.648330	-0.061323
H125	H	1.223396	-0.463559	0.061168
H126	H	1.223434	-0.463738	-0.061415
H127	H	1.049452	-0.649306	-0.000022
