data_functionalizedCrystal
_audit_creation_method	'MofGen! by Chris Wilmer'
_symmetry_space_group_name_H-M	'P1'
_symmetry_Int_Tables_number	1
_symmetry_cell_setting	triclinic
loop_
_symmetry_equiv_pos_as_xyz
  x,y,z
_cell_length_a	12.594517
_cell_length_b	19.121063
_cell_length_c	12.594510
_cell_angle_alpha	92.400171
_cell_angle_beta	89.977213
_cell_angle_gamma	92.468805
loop_
_atom_site_label
_atom_site_type_symbol
_atom_site_fract_x
_atom_site_fract_y
_atom_site_fract_z
Zn1	Zn	1.609125	-0.279555	-0.619878
Zn2	Zn	1.942458	0.053778	-0.286545
Zn3	Zn	2.275791	0.387112	0.046789
Zn4	Zn	1.601381	-0.397029	-0.449471
Zn5	Zn	1.934714	-0.063696	-0.116138
Zn6	Zn	2.268047	0.269637	0.217196
Zn7	Zn	1.431121	-0.279597	-0.441910
Zn8	Zn	1.764454	0.053737	-0.108576
Zn9	Zn	2.097788	0.387070	0.224757
Zn10	Zn	1.423484	-0.396969	-0.627397
Zn11	Zn	1.756818	-0.063635	-0.294064
Zn12	Zn	2.090151	0.269698	0.039270
O13	O	1.516278	-0.338287	-0.534664
O14	O	1.849611	-0.004954	-0.201331
O15	O	2.182944	0.328379	0.132003
O16	O	1.757043	-0.295146	-0.597291
O17	O	2.090376	0.038187	-0.263958
O18	O	2.423709	0.371521	0.069376
O19	O	1.578751	-0.381494	-0.299525
O20	O	1.912084	-0.048161	0.033809
O21	O	2.245417	0.285172	0.367142
O22	O	1.461171	-0.181307	-0.459206
O23	O	1.794504	0.152026	-0.125873
O24	O	2.127837	0.485359	0.207460
O25	O	1.751353	-0.381454	-0.472094
O26	O	2.084686	-0.048121	-0.138760
O27	O	2.418020	0.285213	0.194573
O28	O	1.591949	-0.181277	-0.589959
O29	O	1.925282	0.152057	-0.256626
O30	O	2.258616	0.485390	0.076708
O31	O	1.453662	-0.295217	-0.293969
O32	O	1.786995	0.038116	0.039364
O33	O	2.120328	0.371449	0.372697
O34	O	1.281163	-0.295159	-0.466497
O35	O	1.614496	0.038175	-0.133164
O36	O	1.947830	0.371508	0.200170
O37	O	1.448155	-0.381351	-0.775343
O38	O	1.781488	-0.048017	-0.442009
O39	O	2.114821	0.285316	-0.108676
O40	O	1.275552	-0.381391	-0.602774
O41	O	1.608885	-0.048058	-0.269441
O42	O	1.942219	0.285275	0.063893
O43	O	1.584544	-0.295087	-0.769819
O44	O	1.917877	0.038246	-0.436485
O45	O	2.251210	0.371579	-0.103152
O46	O	1.571345	-0.495305	-0.479384
O47	O	1.904679	-0.161972	-0.146051
O48	O	2.238012	0.171362	0.187282
O49	O	1.440646	-0.495261	-0.610106
O50	O	1.773979	-0.161927	-0.276773
O51	O	2.107312	0.171406	0.056561
C52	C	1.239738	-0.338273	-0.534632
C53	C	1.573071	-0.004940	-0.201298
C54	C	1.906404	0.328393	0.132035
C55	C	1.121431	-0.338284	-0.534644
C56	C	1.454765	-0.004951	-0.201311
C57	C	1.788098	0.328382	0.132022
C58	C	1.504355	-0.520767	-0.546405
C59	C	1.837689	-0.187433	-0.213072
C60	C	2.171022	0.145900	0.120262
C61	C	1.499352	-0.598832	-0.551463
C62	C	1.832686	-0.265499	-0.218130
C63	C	2.166019	0.067834	0.115203
C64	C	1.055203	-0.291318	-0.460655
C65	C	1.388537	0.042015	-0.127321
C66	C	1.721870	0.375348	0.206012
C67	C	0.980230	-0.355385	-0.438604
C68	C	1.313564	-0.022052	-0.105271
C69	C	1.646897	0.311281	0.228063
C70	C	0.985603	-0.274249	-0.556715
C71	C	1.318937	0.059085	-0.223382
C72	C	1.652270	0.392418	0.109952
C73	C	1.048014	-0.402385	-0.512545
C74	C	1.381348	-0.069052	-0.179211
C75	C	1.714681	0.264282	0.154122
C76	C	1.053397	-0.321205	-0.630698
C77	C	1.386730	0.012128	-0.297365
C78	C	1.720063	0.345462	0.035968
C79	C	0.978453	-0.385316	-0.608687
C80	C	1.311786	-0.051983	-0.275354
C81	C	1.645119	0.281350	0.057979
C82	C	1.565103	-0.635507	-0.485836
C83	C	1.898437	-0.302174	-0.152503
C84	C	2.231770	0.031159	0.180830
C85	C	1.560404	-0.708858	-0.490600
C86	C	1.893738	-0.375525	-0.157267
C87	C	2.227071	-0.042191	0.176067
C88	C	1.489948	-0.745532	-0.560986
C89	C	1.823282	-0.412199	-0.227653
C90	C	2.156615	-0.078866	0.105681
C91	C	1.424195	-0.708852	-0.626620
C92	C	1.757528	-0.375519	-0.293287
C93	C	2.090861	-0.042185	0.040047
C94	C	1.428900	-0.635503	-0.621861
C95	C	1.762233	-0.302169	-0.288528
C96	C	2.095567	0.031164	0.044806
C97	C	1.472340	-0.967000	-0.578762
C98	C	1.805673	-0.633667	-0.245429
C99	C	2.139006	-0.300334	0.087904
C100	C	1.467637	-1.040355	-0.583514
C101	C	1.800971	-0.707022	-0.250181
C102	C	2.134304	-0.373688	0.083152
C103	C	1.603849	-1.040356	-0.447495
C104	C	1.937182	-0.707022	-0.114162
C105	C	2.270515	-0.373689	0.219171
C106	C	1.608543	-0.967005	-0.442738
C107	C	1.941876	-0.633672	-0.109405
C108	C	2.275210	-0.300338	0.223929
C109	C	1.542794	-0.930331	-0.508376
C110	C	1.876127	-0.596998	-0.175042
C111	C	2.209460	-0.263664	0.158291
C112	C	1.485141	-0.820509	-0.565855
C113	C	1.818474	-0.487175	-0.232521
C114	C	2.151808	-0.153842	0.100812
C115	C	1.547607	-0.855356	-0.503512
C116	C	1.880940	-0.522023	-0.170178
C117	C	2.214274	-0.188689	0.163155
C118	C	1.793898	-0.338302	-0.534697
C119	C	2.127231	-0.004969	-0.201364
C120	C	2.460564	0.328365	0.131970
C121	C	1.912203	-0.338308	-0.534711
C122	C	2.245536	-0.004975	-0.201378
C123	C	2.578869	0.328358	0.131956
C124	C	1.516361	-0.338208	-0.812280
C125	C	1.849695	-0.004874	-0.478946
C126	C	2.183028	0.328459	-0.145613
C127	C	1.516397	-0.338174	-0.930583
C128	C	1.849730	-0.004840	-0.597250
C129	C	2.183063	0.328493	-0.263916
C130	C	1.528275	-0.155096	-0.522900
C131	C	1.861609	0.178238	-0.189567
C132	C	2.194942	0.511571	0.143766
C133	C	1.533388	-0.077030	-0.517887
C134	C	1.866722	0.256303	-0.184554
C135	C	2.200055	0.589637	0.148779
C136	C	1.590605	-0.291241	-1.067594
C137	C	1.923938	0.042092	-0.734261
C138	C	2.257272	0.375426	-0.400928
C139	C	1.612430	-0.355328	-1.000904
C140	C	1.945763	-0.021994	-0.667571
C141	C	2.279097	0.311339	-0.334237
C142	C	1.494619	-0.274095	-0.995702
C143	C	1.827952	0.059239	-0.662369
C144	C	2.161285	0.392572	-0.329036
C145	C	1.538316	-0.402273	-1.074679
C146	C	1.871649	-0.068939	-0.741346
C147	C	2.204983	0.264394	-0.408013
C148	C	1.420462	-0.320996	-1.069481
C149	C	1.753795	0.012337	-0.736148
C150	C	2.087129	0.345670	-0.402814
C151	C	1.442247	-0.385127	-1.002825
C152	C	1.775581	-0.051794	-0.669492
C153	C	2.108914	0.281540	-0.336159
C154	C	1.516259	-0.338316	-0.258125
C155	C	1.849592	-0.004983	0.075209
C156	C	2.182926	0.328350	0.408542
C157	C	1.516442	-0.338152	-0.139809
C158	C	1.849776	-0.004819	0.193524
C159	C	2.183109	0.328514	0.526857
H160	H	1.088800	-0.251639	-0.398013
H161	H	1.422133	0.081694	-0.064679
H162	H	1.755467	0.415027	0.268654
H163	H	1.410276	-1.070213	-0.640850
H164	H	1.743610	-0.736880	-0.307516
H165	H	2.076943	-0.403546	0.025817
H166	H	1.418802	-0.937146	-0.632206
H167	H	1.752135	-0.603813	-0.298872
H168	H	2.085469	-0.270480	0.034461
F169	F	1.349216	-0.747886	-0.701537
F170	F	1.682549	-0.414552	-0.368203
F171	F	2.015883	-0.081219	-0.034870
H172	H	0.948130	-0.369846	-0.357402
H173	H	1.281463	-0.036513	-0.024068
H174	H	1.614797	0.296820	0.309265
H175	H	1.653384	-0.251610	-1.096134
H176	H	1.986717	0.081723	-0.762801
H177	H	2.320051	0.415057	-0.429467
H178	H	1.075436	-0.456565	-0.493815
H179	H	1.408770	-0.123232	-0.160481
H180	H	1.742103	0.210101	0.172852
H181	H	1.379508	-0.424853	-0.974488
H182	H	1.712841	-0.091520	-0.641154
H183	H	2.046175	0.241813	-0.307821
H184	H	1.622471	-0.605652	-0.428516
H185	H	1.955805	-0.272319	-0.095183
H186	H	2.289138	0.061015	0.238151
F187	F	0.934784	-0.437301	-0.690514
F188	F	1.268117	-0.103968	-0.357181
F189	F	1.601450	0.229365	-0.023847
H190	H	1.613945	-0.738716	-0.437159
H191	H	1.947278	-0.405382	-0.103826
H192	H	2.280611	-0.072049	0.229508
F193	F	1.410158	-0.859547	-0.640762
F194	F	1.743491	-0.526213	-0.307429
F195	F	2.076825	-0.192880	0.025905
H196	H	1.693578	-0.369851	-0.970742
H197	H	2.026912	-0.036518	-0.637409
H198	H	2.360245	0.296816	-0.304076
F199	F	1.314428	-0.301987	-1.108935
F200	F	1.647761	0.031347	-0.775602
F201	F	1.981094	0.364680	-0.442268
H202	H	1.665914	-0.937146	-0.385424
H203	H	1.999247	-0.603813	-0.052091
H204	H	2.332581	-0.270480	0.281243
F205	F	0.949583	-0.203454	-0.581078
F206	F	1.282916	0.129880	-0.247744
F207	F	1.616250	0.463213	0.085589
H208	H	1.085524	-0.306725	-0.711875
H209	H	1.418857	0.026609	-0.378541
H210	H	1.752190	0.359942	-0.045208
F211	F	1.470515	-0.203276	-0.950532
F212	F	1.803849	0.130057	-0.617199
F213	F	2.137182	0.463391	-0.283865
H214	H	1.375360	-0.605642	-0.675303
H215	H	1.708693	-0.272309	-0.341969
H216	H	2.042027	0.061024	-0.008636
F217	F	1.673824	-1.079392	-0.377648
F218	F	2.007157	-0.746059	-0.044315
F219	F	2.340490	-0.412725	0.289018
H220	H	1.556874	-0.456466	-1.109106
H221	H	1.890207	-0.123132	-0.775772
H222	H	2.223540	0.210201	-0.442439
F223	F	1.622593	-0.816323	-0.428609
F224	F	1.955927	-0.482990	-0.095276
F225	F	2.289260	-0.149657	0.238058
