data_functionalizedCrystal
_audit_creation_method	'MofGen! by Chris Wilmer'
_symmetry_space_group_name_H-M	'P1'
_symmetry_Int_Tables_number	1
_symmetry_cell_setting	triclinic
loop_
_symmetry_equiv_pos_as_xyz
  x,y,z
_cell_length_a	14.971486
_cell_length_b	19.188930
_cell_length_c	14.048226
_cell_angle_alpha	89.988446
_cell_angle_beta	89.998499
_cell_angle_gamma	83.379455
loop_
_atom_site_label
_atom_site_type_symbol
_atom_site_fract_x
_atom_site_fract_y
_atom_site_fract_z
O1	O	1.186466	0.090988	-0.079062
O2	O	0.926009	0.101884	-0.079090
O3	O	1.063754	-0.005196	-0.079057
O4	O	1.048721	0.198067	-0.079095
O5	O	1.063737	-0.005202	0.079265
O6	O	0.925992	0.101878	0.079232
O7	O	1.186450	0.090982	0.079259
Zn8	Zn	1.056218	0.096429	0.104382
Zn9	Zn	1.056240	0.096437	-0.104213
O10	O	1.048705	0.198061	0.079226
C11	C	0.892678	0.101393	0.000068
C12	C	0.793389	0.099933	0.000058
C13	C	0.735831	0.162839	0.000048
C14	C	0.642539	0.161463	0.000062
C15	C	0.606806	0.097180	0.000080
C16	C	0.664371	0.034269	0.000094
C17	C	0.757662	0.035646	0.000086
C18	C	0.469924	0.031403	0.000108
C19	C	0.376627	0.030026	0.000113
C20	C	0.354801	0.157221	0.000083
C21	C	0.448092	0.158598	0.000076
C22	C	0.505650	0.095686	0.000088
C23	C	1.063259	-0.031211	0.000107
C24	C	1.061797	-0.108721	0.000115
C25	C	1.142622	-0.153384	0.000128
C26	C	1.141249	-0.226213	0.000112
C27	C	1.059047	-0.254374	0.000103
C28	C	0.978212	-0.209700	0.000085
C29	C	0.979587	-0.136874	0.000091
N30	N	0.996208	-0.362583	0.053976
N31	N	0.994907	-0.431766	0.053973
C32	C	1.054899	-0.473796	0.000084
N33	N	1.116254	-0.444031	-0.053790
N34	N	1.117558	-0.374842	-0.053782
C35	C	1.057547	-0.333341	0.000096
C36	C	1.134240	-0.597429	0.000078
C37	C	1.132864	-0.670258	0.000057
C38	C	0.969825	-0.653744	0.000039
C39	C	0.971203	-0.580916	0.000051
C40	C	1.053413	-0.552763	0.000075
C41	C	1.219780	0.091472	0.000100
C42	C	1.319070	0.092932	0.000103
C43	C	1.049200	0.224077	0.000061
C44	C	1.050661	0.301586	0.000046
N45	N	1.056210	0.096422	0.246743
N46	N	1.056256	0.096437	-0.246573
C47	C	1.117223	0.049027	0.296576
C48	C	1.117229	0.049027	0.396233
C49	C	1.056226	0.096426	0.446057
C50	C	0.995207	0.143823	0.396217
C51	C	0.995197	0.143819	0.296561
C52	C	0.995233	0.143828	0.603931
C53	C	0.995243	0.143833	0.703594
C54	C	1.117264	0.049035	0.703603
C55	C	1.117255	0.049032	0.603948
C56	C	1.056236	0.096430	0.554115
H57	H	0.477182	0.210943	0.000052
C58	C	0.873488	0.158808	0.815697
C59	C	0.928186	0.195925	0.758372
H60	H	0.832094	0.190968	0.849520
H61	H	0.841430	0.129708	0.776835
H62	H	0.909847	0.130583	0.859626
H63	H	0.891827	0.224147	0.714438
H64	H	0.960246	0.225037	0.797237
H65	H	0.307932	0.208445	0.000078
H66	H	0.945542	0.182423	0.563361
H67	H	0.945533	0.182414	0.436789
C68	C	0.882100	-0.282013	-0.081311
C69	C	0.887855	-0.240654	0.000076
H70	H	0.826317	-0.301125	-0.081314
H71	H	0.886027	-0.253937	-0.136509
H72	H	0.930047	-0.319036	-0.081294
H73	H	0.839912	-0.203628	0.000056
H74	H	0.883919	-0.268732	0.055289
C75	C	0.524967	0.233708	0.081433
C76	C	0.579268	0.230610	0.000042
H77	H	0.485910	0.276400	0.081420
H78	H	0.490341	0.195230	0.081444
H79	H	0.561826	0.231606	0.136634
H80	H	0.542409	0.232707	-0.055160
H81	H	0.613897	0.269099	0.000022
H82	H	0.945513	0.182413	0.255988
H83	H	0.516786	-0.019826	0.000119
H84	H	1.166902	0.010433	0.256016
C85	C	0.841054	-0.100363	-0.081311
C86	C	0.890737	-0.087775	0.000083
H87	H	0.786200	-0.070053	-0.081309
H88	H	0.874779	-0.091803	-0.136504
H89	H	0.828477	-0.147767	-0.081310
H90	H	0.903320	-0.040372	0.000079
H91	H	0.857005	-0.096329	0.055291
C92	C	0.366499	-0.078815	-0.081232
C93	C	0.337345	-0.040633	0.000140
H94	H	0.342250	-0.122438	-0.081211
H95	H	0.346725	-0.052912	-0.136440
H96	H	0.430298	-0.087000	-0.081221
H97	H	0.273546	-0.032444	0.000125
H98	H	0.357114	-0.066542	0.055362
C99	C	1.234300	-0.317685	-0.081255
C100	C	1.230096	-0.275319	0.000132
H101	H	1.289154	-0.347996	-0.081242
H102	H	1.185150	-0.344871	-0.081261
H103	H	1.231464	-0.288916	-0.136459
H104	H	1.232926	-0.304088	0.055337
H105	H	1.279261	-0.248131	0.000147
C106	C	0.572125	-0.041067	-0.081274
C107	C	0.625097	-0.036394	0.000112
H108	H	0.547886	-0.084694	-0.081266
H109	H	0.524498	-0.003803	-0.081272
H110	H	0.608074	-0.037883	-0.136479
H111	H	0.589146	-0.039572	0.055317
H112	H	0.672731	-0.073667	0.000119
H113	H	0.764917	0.215186	0.000032
H114	H	0.804525	-0.015579	0.000094
H115	H	1.209564	-0.130467	0.000144
H116	H	1.166947	0.010442	0.744183
C117	C	1.295258	-0.621064	0.000072
C118	C	1.224602	-0.566477	0.000082
H119	H	1.351042	-0.601956	0.000066
H120	H	1.291333	-0.649134	0.055277
H121	H	1.291322	-0.649116	-0.055144
H122	H	1.228534	-0.538428	0.055302
H123	H	1.228529	-0.538395	-0.055129
H124	H	1.198683	-0.706623	0.000063
C125	C	0.832670	-0.544410	-0.081341
C126	C	0.882355	-0.531819	0.000050
H127	H	0.777814	-0.514102	-0.081338
H128	H	0.866393	-0.535851	-0.136536
H129	H	0.820096	-0.591815	-0.081337
H130	H	0.894936	-0.484415	0.000042
H131	H	0.848626	-0.540372	0.055260
C132	C	1.137047	-0.045975	0.508319
C133	C	1.184302	-0.003071	0.451002
H134	H	1.178460	-0.078143	0.542123
H135	H	1.100728	-0.017752	0.552255
H136	H	1.099918	-0.071138	0.469445
H137	H	1.221427	0.022095	0.489877
H138	H	1.220637	-0.031298	0.407061
C139	C	0.895324	-0.758045	0.000021
C140	C	0.879465	-0.684690	0.000026
H141	H	0.839537	-0.777150	0.000015
H142	H	0.928594	-0.773356	-0.055182
H143	H	0.928586	-0.773377	0.055239
H144	H	0.846209	-0.669358	-0.055195
H145	H	0.846182	-0.669373	0.055235
H146	H	1.166932	0.010440	0.563382
