data_functionalizedCrystal
_audit_creation_method	'MofGen! by Chris Wilmer'
_symmetry_space_group_name_H-M	'P1'
_symmetry_Int_Tables_number	1
_symmetry_cell_setting	triclinic
loop_
_symmetry_equiv_pos_as_xyz
  x,y,z
_cell_length_a	25.639239
_cell_length_b	14.908780
_cell_length_c	14.908308
_cell_angle_alpha	89.787311
_cell_angle_beta	86.737723
_cell_angle_gamma	86.672354
loop_
_atom_site_label
_atom_site_type_symbol
_atom_site_fract_x
_atom_site_fract_y
_atom_site_fract_z
Zn1	Zn	-0.182898	-1.345213	0.587843
Zn2	Zn	-0.265024	-1.353749	0.437473
Zn3	Zn	-0.182329	-1.203527	0.428810
Zn4	Zn	-0.275033	-1.194770	0.579089
O5	O	-0.226321	-1.274315	0.508304
O6	O	-0.189841	-1.472175	0.575184
O7	O	-0.249628	-1.341059	0.310501
O8	O	-0.109238	-1.222415	0.449944
O9	O	-0.250179	-1.478447	0.464708
O10	O	-0.109655	-1.326511	0.566785
O11	O	-0.188872	-1.230692	0.304137
O12	O	-0.198577	-1.076536	0.441456
O13	O	-0.267238	-1.207489	0.706072
O14	O	-0.266687	-1.070102	0.551865
O15	O	-0.199546	-1.318019	0.712504
O16	O	-0.339519	-1.332568	0.456220
O17	O	-0.346872	-1.215766	0.560265
C18	C	-0.233657	-1.040692	0.494771
C19	C	-0.236808	-0.940746	0.489004
C20	C	-0.179999	-0.746395	0.593380
C21	C	-0.182958	-0.652487	0.587964
C22	C	-0.245684	-0.659020	0.472751
C23	C	-0.242724	-0.752928	0.478167
C24	C	-0.209881	-0.796612	0.538485
C25	C	-0.206925	-0.890522	0.543905
C26	C	-0.269647	-0.897054	0.428688
C27	C	-0.272607	-0.803146	0.423272
C28	C	-0.362167	-1.274166	0.508254
C29	C	-0.420281	-1.274183	0.508267
C30	C	-0.776798	-1.335278	0.454234
C31	C	-0.831401	-1.335312	0.454248
O32	O	-0.856371	-1.387103	0.408253
N33	N	-0.862557	-1.274469	0.508372
C34	C	-0.839107	-1.213595	0.562493
O35	O	-0.870621	-1.161847	0.608531
C36	C	-0.784504	-1.213566	0.562483
C37	C	-0.753351	-1.274406	0.508348
C38	C	-0.745645	-1.396114	0.400105
C39	C	-0.691045	-1.396078	0.400090
C40	C	-0.667598	-1.335207	0.454204
C41	C	-0.698751	-1.274371	0.508333
C42	C	-0.761054	-1.152696	0.616607
C43	C	-0.706448	-1.152672	0.616593
C44	C	-0.675295	-1.213513	0.562459
C45	C	-0.620704	-1.213463	0.562432
N46	N	-0.589548	-1.274306	0.508308
C47	C	-0.612995	-1.335178	0.454194
C48	C	-0.953776	-1.213662	0.562510
C49	C	-1.008377	-1.213686	0.562516
C50	C	-1.000668	-1.335404	0.454273
C51	C	-0.946066	-1.335375	0.454263
C52	C	-0.922620	-1.274504	0.508386
C53	C	-0.498332	-1.335098	0.454166
C54	C	-0.443728	-1.335054	0.454153
C55	C	-0.451441	-1.213340	0.562400
C56	C	-0.506041	-1.213379	0.562409
C57	C	-0.529485	-1.274266	0.508290
O58	O	-0.595698	-1.161701	0.608407
O59	O	-0.581475	-1.386924	0.408172
C60	C	-0.089944	-1.274488	0.508375
C61	C	-0.031829	-1.274561	0.508405
C62	C	-0.234572	-1.260825	0.742825
C63	C	-0.238088	-1.255076	0.842764
C64	C	-0.218952	-0.508850	0.521882
C65	C	-0.215800	-0.608796	0.527652
C66	C	-0.218063	-1.287804	0.274698
C67	C	-0.214394	-1.293727	0.174769
C68	C	-0.174196	-1.359367	1.037258
C69	C	-0.177497	-1.353969	1.131160
C70	C	-0.247990	-1.238877	1.124470
C71	C	-0.244688	-1.244276	1.030569
C72	C	-0.207791	-1.304524	0.986966
C73	C	-0.204492	-1.309926	0.893063
C74	C	-0.274982	-1.194831	0.886375
C75	C	-0.278283	-1.189432	0.980276
H76	H	-0.418364	-1.384598	0.410067
N77	N	-0.141259	-1.413112	1.185405
H78	H	-0.117384	-1.452094	1.143531
H79	H	-0.162600	-1.452463	1.226768
N80	N	-0.144588	-0.793514	0.658451
H81	H	-0.147252	-0.860625	0.653558
H82	H	-0.155571	-0.773406	0.721687
N83	N	-0.301876	-0.951227	0.369476
H84	H	-0.291956	-0.938573	0.304314
H85	H	-0.340238	-0.934031	0.382457
N86	N	-0.311223	-1.135679	0.832132
H87	H	-0.303535	-1.148241	0.766029
H88	H	-0.305682	-1.070524	0.844828
N89	N	-0.281107	-0.611905	0.407696
H90	H	-0.270156	-0.631938	0.344421
H91	H	-0.278433	-0.544805	0.412667
H92	H	-0.432342	-1.163776	0.606456
N93	N	-0.164699	-1.374907	0.846030
H94	H	-0.143917	-1.408829	0.892143
H95	H	-0.140284	-1.340574	0.804961
H96	H	-0.920704	-1.384917	0.410182
N97	N	-0.928490	-1.147997	0.620882
H98	H	-0.956516	-1.109461	0.655165
H99	H	-0.905886	-1.108507	0.581835
H100	H	-0.517413	-1.384679	0.410099
N101	N	-0.287785	-1.173904	1.171510
H102	H	-0.308568	-1.139978	1.125403
H103	H	-0.269177	-1.130078	1.208068
N104	N	-0.134407	-1.424353	0.990222
H105	H	-0.113627	-1.458282	1.036332
H106	H	-0.109989	-1.390024	0.949153
H107	H	-1.019768	-1.384973	0.410213
N108	N	-0.657449	-1.461715	0.341717
H109	H	-0.634503	-1.427608	0.297891
H110	H	-0.680632	-1.500263	0.307508
H111	H	-0.158623	-0.611603	0.632663
H112	H	-0.299345	-0.767565	0.374160
N113	N	-0.770928	-1.461775	0.341735
H114	H	-0.742900	-1.500304	0.307448
H115	H	-0.793296	-1.427615	0.297977
H116	H	-0.786410	-1.103149	0.660685
N117	N	-0.171507	-0.937643	0.608963
H118	H	-0.134163	-0.922135	0.594172
H119	H	-0.174213	-1.004738	0.604037
N120	N	-1.041971	-1.148050	0.620893
H121	H	-1.034266	-1.158260	0.685949
H122	H	-1.080108	-1.157329	0.612623
N123	N	-0.681160	-1.087019	0.674973
H124	H	-0.709184	-1.048487	0.709265
H125	H	-0.658558	-1.047526	0.635929
N126	N	-0.539646	-1.147752	0.620785
H127	H	-0.516504	-1.109183	0.655060
H128	H	-0.562581	-1.181941	0.664552
H129	H	-0.308324	-1.140378	1.015791
