data_functionalizedCrystal
_audit_creation_method	'MofGen! by Chris Wilmer'
_symmetry_space_group_name_H-M	'P1'
_symmetry_Int_Tables_number	1
_symmetry_cell_setting	triclinic
loop_
_symmetry_equiv_pos_as_xyz
  x,y,z
_cell_length_a	16.992694
_cell_length_b	11.792241
_cell_length_c	15.455313
_cell_angle_alpha	92.683265
_cell_angle_beta	87.142206
_cell_angle_gamma	87.430819
loop_
_atom_site_label
_atom_site_type_symbol
_atom_site_fract_x
_atom_site_fract_y
_atom_site_fract_z
O1	O	1.044827	0.236106	-0.072022
O2	O	1.544827	0.736106	0.427978
O3	O	0.816531	0.233463	-0.072048
O4	O	1.316531	0.733463	0.427952
O5	O	0.936219	0.070068	-0.072029
O6	O	1.436219	0.570068	0.427971
O7	O	0.925139	0.399501	-0.072042
O8	O	1.425139	0.899501	0.427958
O9	O	0.929374	0.079370	0.072232
O10	O	1.429374	0.579370	0.572232
O11	O	0.809687	0.242766	0.072213
O12	O	1.309687	0.742766	0.572213
O13	O	1.037982	0.245409	0.072239
O14	O	1.537982	0.745409	0.572239
Cu15	Cu	0.923210	0.244937	0.085398
Cu16	Cu	1.423210	0.744937	0.585398
Cu17	Cu	0.931304	0.233935	-0.085207
Cu18	Cu	1.431304	0.733935	0.414793
O19	O	0.918295	0.408804	0.072219
O20	O	1.418295	0.908804	0.572219
C21	C	0.783882	0.234716	0.000079
C22	C	1.283882	0.734716	0.500079
C23	C	0.696795	0.224578	0.000070
C24	C	1.196795	0.724578	0.500070
C25	C	0.932101	0.032371	0.000102
C26	C	1.432101	0.532371	0.500102
C27	C	0.930017	-0.093813	0.000101
C28	C	1.430017	0.406187	0.500101
C29	C	0.646971	0.322395	0.000066
C30	C	1.146971	0.822395	0.500066
C31	C	0.565143	0.312864	0.000079
C32	C	1.065143	0.812864	0.500079
C33	C	0.533142	0.205513	0.000088
C34	C	1.033142	0.705513	0.500088
C35	C	0.582973	0.107688	0.000094
C36	C	1.082973	0.607688	0.500094
C37	C	0.664799	0.117221	0.000088
C38	C	1.164799	0.617221	0.500088
C39	C	0.289375	0.166002	0.000113
C40	C	0.789375	0.666002	0.500113
C41	C	0.207543	0.156476	0.000117
C42	C	0.707543	0.656476	0.500117
C43	C	0.189719	0.361652	0.000103
C44	C	0.689719	0.861652	0.500103
C45	C	0.271548	0.371176	0.000091
C46	C	0.771548	0.871176	0.500091
C47	C	0.321371	0.273351	0.000102
C48	C	0.821371	0.773351	0.500102
N49	N	0.449501	0.195767	0.000098
N50	N	0.949501	0.695767	0.500098
N51	N	0.405010	0.283098	0.000098
N52	N	0.905010	0.783098	0.500098
C53	C	0.926187	-0.324840	0.000086
C54	C	1.426187	0.175160	0.500086
C55	C	0.928315	-0.196280	0.000094
C56	C	1.428315	0.303720	0.500094
C57	C	1.070631	0.244155	0.000109
C58	C	1.570631	0.744155	0.500109
C59	C	1.157718	0.254293	0.000113
C60	C	1.657718	0.754293	0.500113
C61	C	0.922413	0.446501	0.000087
C62	C	1.422413	0.946501	0.500087
C63	C	0.924497	0.572684	0.000082
C64	C	1.424497	1.072684	0.500082
N65	N	0.917522	0.252674	0.205393
N66	N	1.417522	0.752674	0.705393
N67	N	0.936998	0.226189	-0.205202
N68	N	1.436998	0.726189	0.294798
C69	C	0.968388	0.183287	0.250795
C70	C	1.468388	0.683287	0.750795
C71	C	0.964094	0.189150	0.341602
C72	C	1.464094	0.689150	0.841602
C73	C	0.908938	0.264406	0.387005
C74	C	1.408938	0.764406	0.887005
C75	C	0.858067	0.333796	0.341597
C76	C	1.358067	0.833796	0.841597
C77	C	0.862358	0.327927	0.250791
C78	C	1.362358	0.827927	0.750791
C79	C	0.890417	0.289710	0.658584
C80	C	1.390417	0.789710	1.158584
C81	C	0.886132	0.295576	0.749396
C82	C	1.386132	0.795576	1.249396
C83	C	0.992158	0.150928	0.749395
C84	C	1.492158	0.650928	1.249395
C85	C	0.996447	0.145070	0.658588
C86	C	1.496447	0.645070	1.158588
C87	C	0.945574	0.214455	0.613187
C88	C	1.445574	0.714455	1.113187
N89	N	0.904549	0.270403	0.479825
N90	N	1.404549	0.770403	0.979825
N91	N	0.949959	0.208452	0.520369
N92	N	1.449959	0.708452	1.020369
H93	H	0.673020	0.409812	0.000058
H94	H	1.173020	0.909812	0.500058
C95	C	1.020031	0.112789	0.391541
C96	C	1.520031	0.612789	0.891541
N97	N	1.062159	0.055259	0.429154
N98	N	1.562159	0.555259	0.929154
C99	C	0.344171	0.058390	0.000119
C100	C	0.844171	0.558390	0.500119
N101	N	0.385446	-0.022668	0.000122
N102	N	0.885446	0.477332	0.500122
C103	C	0.547768	-0.010399	0.000106
C104	C	1.047768	0.489601	0.500106
N105	N	0.521253	-0.099345	0.000112
N106	N	1.021253	0.400655	0.500112
C107	C	0.510339	0.420473	0.000091
C108	C	1.010339	0.920473	0.500091
N109	N	0.469060	0.501530	0.000106
N110	N	0.969060	1.001530	0.500106
H111	H	0.181491	0.069054	0.000123
H112	H	0.681491	0.569054	0.500123
C113	C	0.806408	0.404268	0.200849
C114	C	1.306408	0.904268	0.700849
N115	N	0.764265	0.461772	0.163234
N116	N	1.264265	0.961772	0.663234
H117	H	1.033576	0.094436	0.786369
H118	H	1.533576	0.594436	1.286369
H119	H	0.705366	0.037568	0.000090
H120	H	1.205366	0.537568	0.500090
C121	C	0.797387	0.416568	0.391543
C122	C	1.297387	0.916568	0.891543
N123	N	0.751682	0.478914	0.429162
N124	N	1.251682	0.978914	0.929162
H125	H	0.841215	0.356864	0.786359
H126	H	1.341215	0.856864	1.286359
H127	H	1.013305	0.122010	0.213834
H128	H	1.513305	0.622010	0.713834
H129	H	0.848996	0.346209	0.621625
H130	H	1.348996	0.846209	1.121625
C131	C	0.306742	0.489271	0.000095
C132	C	0.806742	0.989271	0.500095
N133	N	0.333249	0.578222	0.000099
N134	N	0.833249	1.078222	0.500099
C135	C	0.134907	0.469253	0.000102
C136	C	0.634907	0.969253	0.500102
N137	N	0.093621	0.550302	0.000106
N138	N	0.593621	1.050302	0.500106
C139	C	1.057119	0.062276	0.608651
C140	C	1.557119	0.562276	1.108651
N141	N	1.102819	-0.000086	0.571039
N142	N	1.602819	0.499914	1.071039
