data_functionalizedCrystal
_audit_creation_method	'MofGen! by Chris Wilmer'
_symmetry_space_group_name_H-M	'P1'
_symmetry_Int_Tables_number	1
_symmetry_cell_setting	triclinic
loop_
_symmetry_equiv_pos_as_xyz
  x,y,z
_cell_length_a	19.851628
_cell_length_b	14.560432
_cell_length_c	14.560432
_cell_angle_alpha	90.001356
_cell_angle_beta	60.001356
_cell_angle_gamma	59.996928
loop_
_atom_site_label
_atom_site_type_symbol
_atom_site_fract_x
_atom_site_fract_y
_atom_site_fract_z
Zr1	Zr	0.737387	0.884662	-0.120520
O2	O	0.877925	0.737996	-0.267168
O3	O	0.596848	0.929634	-0.075566
O4	O	0.737390	0.929613	-0.267170
O5	O	0.737380	0.738021	0.075578
O6	O	0.737393	1.080750	-0.267170
O7	O	0.737383	0.738017	-0.075564
O8	O	0.485988	1.080788	0.075574
O9	O	0.988785	0.737984	-0.267166
O10	O	0.654656	1.061593	-0.056392
O11	O	0.654651	0.948803	0.056403
O12	O	0.820122	0.948778	-0.169185
O13	O	0.820118	0.835989	-0.056390
Zr14	Zr	0.737387	1.125715	0.120533
Zr15	Zr	0.737391	1.125709	-0.120521
Zr16	Zr	0.737382	0.884668	0.120533
Zr17	Zr	0.914195	0.884642	-0.120518
Zr18	Zr	0.560579	1.125735	0.120531
O19	O	0.877925	1.080743	0.075579
O20	O	0.877932	1.080734	-0.267168
O21	O	0.877919	0.738005	0.075579
O22	O	0.596848	1.272380	0.267180
O23	O	0.596854	1.272372	-0.075567
O24	O	0.596841	0.929642	0.267181
O25	O	0.737393	1.272356	-0.075565
O26	O	0.737383	1.080764	0.267182
O27	O	0.737380	0.929626	0.267183
O28	O	0.737390	1.272359	0.075577
O29	O	0.988789	0.929584	-0.267167
O30	O	0.485985	1.080793	0.267179
O31	O	0.485988	1.272393	0.267179
O32	O	0.485992	1.272388	0.075574
O33	O	0.988781	0.737989	-0.075561
O34	O	0.988785	0.929589	-0.075561
O35	O	0.654651	1.061598	0.169198
O36	O	0.654656	1.174388	0.056403
O37	O	0.820122	1.061574	-0.056390
O38	O	0.820118	0.948784	0.056405
C39	C	0.516227	1.005214	0.000004
C40	C	0.441167	1.005222	0.000003
C41	C	0.214929	1.066691	-0.061498
C42	C	0.315091	0.960638	-0.106083
C43	C	0.171019	1.005175	0.000007
C44	C	0.204612	1.111237	0.044536
C45	C	0.303751	1.005203	0.000003
C46	C	0.270237	0.899058	-0.044639
C47	C	0.159706	1.049734	0.106038
C48	C	0.259860	0.943617	0.061480
C49	C	0.094556	1.005160	0.000006
C50	C	0.380216	1.005207	0.000002
C51	C	0.737381	0.703675	0.000007
C52	C	0.737379	0.601344	0.000007
C53	C	0.564630	0.719106	0.117753
C54	C	0.478259	0.729910	0.176621
C55	C	0.478263	0.633758	0.176618
C56	C	0.564648	0.526793	0.117744
C57	C	0.651019	0.515989	0.058876
C58	C	0.651006	0.612150	0.058883
C59	C	0.823766	0.398228	-0.058862
C60	C	0.823764	0.494379	-0.058867
C61	C	0.910150	0.291263	-0.117736
C62	C	0.996524	0.280458	-0.176612
C63	C	0.996516	0.376619	-0.176607
C64	C	0.910135	0.483575	-0.117735
C65	C	0.958547	1.005163	0.000009
C66	C	1.033606	1.005155	0.000010
C67	C	0.737392	1.005181	-0.301515
C68	C	0.737394	1.005178	-0.403848
C69	C	0.737392	1.306702	0.000006
C70	C	0.737394	1.409032	0.000006
C71	C	0.910143	0.887388	-0.521623
C72	C	0.996514	0.828492	-0.628583
C73	C	0.996510	0.828495	-0.724730
C74	C	0.910126	0.887403	-0.713912
C75	C	0.823754	0.946299	-0.606952
C76	C	0.823768	0.946287	-0.510810
C77	C	0.651008	1.064095	-0.489179
C78	C	0.651010	1.064086	-0.393031
C79	C	0.564623	1.123003	-0.478362
C80	C	0.478250	1.181894	-0.371400
C81	C	0.478257	1.181888	-0.275250
C82	C	0.564638	1.122983	-0.286071
C83	C	0.737381	1.005196	0.301527
C84	C	0.737379	1.005199	0.403861
C85	C	0.516232	1.306727	0.000003
C86	C	0.441175	1.409066	0.000002
C87	C	0.516221	1.005221	0.301525
C88	C	0.441159	1.005233	0.403857
C89	C	0.516227	1.306734	0.301524
C90	C	0.441167	1.409076	0.403857
C91	C	0.958547	0.703642	-0.301512
C92	C	1.033606	0.601300	-0.403844
C93	C	0.958541	0.703650	0.000009
C94	C	1.033599	0.601311	0.000010
C95	C	0.958552	1.005155	-0.301512
C96	C	1.033614	1.005144	-0.403845
C97	C	0.405927	1.398248	-0.058886
C98	C	0.335412	1.494397	-0.058910
C99	C	0.300141	1.601364	-0.000038
C100	C	0.335396	1.612180	0.058853
C101	C	0.405915	1.516032	0.058869
C102	C	0.405910	1.064116	0.510802
C103	C	0.335391	1.064122	0.606963
C104	C	0.300119	1.005251	0.596178
C105	C	0.335376	0.946361	0.489222
C106	C	0.405898	0.946348	0.393063
C107	C	0.405920	1.516022	0.393035
C108	C	0.335404	1.612193	0.489178
C109	C	0.300130	1.601415	0.596141
C110	C	0.335384	1.494458	0.606961
C111	C	0.405904	1.398290	0.510819
C112	C	1.068861	0.494354	-0.393022
C113	C	1.139400	0.398184	-0.489165
C114	C	1.174677	0.408962	-0.596129
C115	C	1.139419	0.515919	-0.606948
C116	C	1.068887	0.612087	-0.510806
C117	C	1.068854	0.612129	0.058889
C118	C	1.139388	0.515979	0.058886
C119	C	1.174661	0.409013	0.000010
C120	C	1.139403	0.398197	-0.058875
C121	C	1.068875	0.494345	-0.058878
C122	C	1.068864	1.064027	-0.393023
C123	C	1.139383	1.064038	-0.489167
C124	C	1.174655	1.005160	-0.596130
C125	C	1.139398	0.946276	-0.606949
C126	C	1.068876	0.946271	-0.510807
H127	H	0.093253	1.087442	0.195690
H128	H	1.168084	0.524808	0.106842
C129	C	1.178169	0.280544	-0.477250
H130	H	1.225237	0.224805	-0.549822
H131	H	1.127534	0.272123	-0.437305
H132	H	1.205671	0.272124	-0.437283
C133	C	0.222566	1.707121	-0.000051
H134	H	0.206606	1.772381	0.043440
H135	H	0.167547	1.707118	0.031465
H136	H	0.245695	1.707112	-0.075074
C137	C	0.404843	0.909725	-0.227216
H138	H	0.457184	0.845010	-0.233425
H139	H	0.418565	0.963697	-0.244991
H140	H	0.394151	0.889042	-0.277964
H141	H	0.306694	1.112081	0.694042
H142	H	0.297358	0.809333	-0.082409
H143	H	0.177630	1.200921	0.082198
C144	C	0.564617	1.123006	-0.584120
H145	H	0.628427	1.079484	-0.649371
H146	H	0.532722	1.198021	-0.584128
H147	H	0.532708	1.091488	-0.584112
H148	H	0.434604	1.524856	0.106830
C149	C	0.564622	0.824874	0.117759
H150	H	0.500808	0.890123	0.161257
H151	H	0.596531	0.824874	0.042746
H152	H	0.596509	0.824885	0.149303
C153	C	0.383243	0.847567	0.241373
H154	H	0.395607	0.903288	0.232937
H155	H	0.347744	0.856013	0.318834
H156	H	0.347767	0.855990	0.212275
C157	C	1.252230	1.005167	-0.701880
H158	H	1.268189	0.961676	-0.767138
H159	H	1.307250	0.973647	-0.701874
H160	H	1.229099	1.080194	-0.701871
C161	C	1.030121	0.881477	-0.522718
H162	H	0.983066	0.889901	-0.450147
H163	H	1.080767	0.804018	-0.562677
H164	H	1.002606	0.910554	-0.562672
C165	C	0.222540	1.005280	0.701959
H166	H	0.206597	1.048793	0.767193
H167	H	0.245646	0.930271	0.701980
H168	H	0.167505	1.036824	0.701975
C169	C	0.383258	0.645638	0.241370
H170	H	0.331810	0.723109	0.276430
H171	H	0.379666	0.610577	0.297085
H172	H	0.379681	0.610570	0.190532
C173	C	0.296559	0.881623	0.477373
H174	H	0.249502	0.890083	0.549964
H175	H	0.347173	0.804151	0.437424
H176	H	0.269031	0.910720	0.437436
H177	H	0.195271	1.118615	-0.113571
C178	C	1.178223	0.527760	-0.724611
H179	H	1.225269	0.455164	-0.780311
H180	H	1.205740	0.567707	-0.733067
H181	H	1.127592	0.567700	-0.733053
H182	H	1.232090	0.330732	0.000022
C183	C	0.296584	1.729846	0.123617
H184	H	0.249530	1.785550	0.115178
H185	H	0.347201	1.738298	0.094559
H186	H	0.269053	1.738290	0.201086
H187	H	0.434621	1.112056	0.519605
C188	C	1.030079	0.482476	-0.275375
H189	H	1.061196	0.405004	-0.282716
H190	H	0.963496	0.517535	-0.235409
H191	H	1.041645	0.517543	-0.235428
C192	C	0.296628	1.729831	0.477257
H193	H	0.327727	1.722467	0.399782
H194	H	0.308192	1.769796	0.512300
H195	H	0.230040	1.769795	0.512318
H196	H	1.232109	0.330647	-0.674405
C197	C	1.178213	0.881504	-0.724612
H198	H	1.225269	0.889935	-0.780312
H199	H	1.127598	0.910568	-0.733071
H200	H	1.205741	0.804033	-0.733050
H201	H	0.434643	1.311159	-0.106841
C202	C	0.383249	1.246663	-0.157597
H203	H	0.395620	1.238228	-0.101881
H204	H	0.347756	1.217597	-0.149167
H205	H	0.347763	1.324135	-0.149156
H206	H	0.564643	0.448506	0.117758
C207	C	0.222552	1.707206	0.701887
H208	H	0.206610	1.772439	0.680113
H209	H	0.245656	1.707226	0.745395
H210	H	0.167516	1.707228	0.745381
H211	H	0.279480	0.891534	0.113478
H212	H	1.168133	0.311091	-0.106810
H213	H	1.040183	0.699165	-0.519631
C214	C	0.296568	1.482616	0.724624
H215	H	0.249513	1.555213	0.780323
H216	H	0.347182	1.442662	0.733083
H217	H	0.269037	1.442684	0.733062
H218	H	0.434589	0.898402	0.305988
C219	C	1.030065	0.729780	0.123658
H220	H	1.061178	0.722436	0.158710
H221	H	0.963482	0.769744	0.179380
H222	H	1.041628	0.769734	0.072832
H223	H	1.066841	0.780540	-0.811822
C224	C	0.910156	0.185497	-0.117743
H225	H	0.846346	0.207249	-0.074263
H226	H	0.942051	0.142000	-0.086216
H227	H	0.942066	0.141999	-0.192768
C228	C	1.091533	0.162806	-0.241365
H229	H	1.079165	0.107090	-0.232936
H230	H	1.127020	0.154376	-0.212288
H231	H	1.127024	0.154361	-0.318833
H232	H	0.434630	1.524819	0.305948
H233	H	0.434593	1.311213	0.519646
H234	H	1.066850	0.367809	-0.224530
H235	H	0.910120	0.561875	-0.117729
C236	C	0.910122	0.887413	-0.819672
H237	H	0.973933	0.843898	-0.884922
H238	H	0.878224	0.962431	-0.819673
H239	H	0.878218	0.855892	-0.819675
H240	H	1.168081	1.111987	-0.480335
C241	C	1.030088	0.482437	-0.123633
H242	H	0.983034	0.555013	-0.115214
H243	H	1.002584	0.442482	-0.094548
H244	H	1.080723	0.442478	-0.201099
H245	H	0.910155	0.887366	-0.443341
C246	C	0.564646	1.122975	-0.180314
H247	H	0.500836	1.166482	-0.115062
H248	H	0.596559	1.154480	-0.180319
H249	H	0.596538	1.047951	-0.180311
C250	C	0.383238	1.246673	-0.359504
H251	H	0.331797	1.281747	-0.282034
H252	H	0.379650	1.195852	-0.394570
H253	H	0.379643	1.302399	-0.394558
C254	C	0.296634	1.482480	-0.123678
H255	H	0.327731	1.405002	-0.158716
H256	H	0.308199	1.517519	-0.179410
H257	H	0.230046	1.517550	-0.072850
H258	H	1.066847	0.780533	-0.637378
H259	H	1.040156	1.111972	-0.305937
