data_functionalizedCrystal
_audit_creation_method	'MofGen! by Chris Wilmer'
_symmetry_space_group_name_H-M	'P1'
_symmetry_Int_Tables_number	1
_symmetry_cell_setting	triclinic
loop_
_symmetry_equiv_pos_as_xyz
  x,y,z
_cell_length_a	13.339070
_cell_length_b	15.944551
_cell_length_c	11.804365
_cell_angle_alpha	101.830656
_cell_angle_beta	74.875130
_cell_angle_gamma	99.564016
loop_
_atom_site_label
_atom_site_type_symbol
_atom_site_fract_x
_atom_site_fract_y
_atom_site_fract_z
O1	O	1.362759	0.408901	-0.099080
O2	O	1.862759	0.908901	0.400920
O3	O	1.068226	0.353629	-0.099072
O4	O	1.568226	0.853629	0.400928
O5	O	1.223533	0.260866	-0.099066
O6	O	1.723533	0.760866	0.400934
O7	O	1.207452	0.501664	-0.099087
O8	O	1.707452	1.001664	0.400913
O9	O	1.182647	0.285253	0.098989
O10	O	1.682647	0.785253	0.598989
O11	O	1.027340	0.378016	0.098982
O12	O	1.527340	0.878016	0.598982
O13	O	1.321872	0.433288	0.098974
O14	O	1.821872	0.933288	0.598974
Cu15	Cu	1.170873	0.407879	0.117062
Cu16	Cu	1.670873	0.907879	0.617062
Cu17	Cu	1.219226	0.379038	-0.117160
Cu18	Cu	1.719226	0.879038	0.382840
O19	O	1.166565	0.526051	0.098968
O20	O	1.666565	1.026051	0.598968
C21	C	1.010093	0.356486	-0.000044
C22	C	1.510093	0.856486	0.499956
C23	C	0.897788	0.328657	-0.000040
C24	C	1.397788	0.828657	0.499960
C25	C	0.533018	0.545045	-0.000078
C26	C	1.033018	1.045045	0.499922
C27	C	0.638534	0.571194	-0.000085
C28	C	1.138534	1.071194	0.499915
C29	C	0.703352	0.510562	-0.000073
C30	C	1.203352	1.010562	0.499927
C31	C	0.662645	0.423776	-0.000055
C32	C	1.162645	0.923776	0.499945
C33	C	0.557121	0.397622	-0.000058
C34	C	1.057121	0.897622	0.499942
C35	C	0.727455	0.363140	-0.000053
C36	C	1.227455	0.863140	0.499947
C37	C	0.686748	0.276354	-0.000035
C38	C	1.186748	0.776354	0.499965
C39	C	0.581234	0.250205	-0.000037
C40	C	1.081234	0.750205	0.499963
C41	C	0.516415	0.310837	-0.000048
C42	C	1.016415	0.810837	0.499952
C43	C	0.832980	0.389293	-0.000051
C44	C	1.332980	0.889293	0.499949
C45	C	0.857083	0.241871	-0.000031
C46	C	1.357083	0.741871	0.499969
C47	C	0.751567	0.215721	-0.000024
C48	C	1.251567	0.715721	0.499976
C49	C	1.202422	0.241610	-0.000038
C50	C	1.702422	0.741610	0.499962
C51	C	1.200420	0.147897	-0.000038
C52	C	1.700420	0.647897	0.499962
C53	C	1.099370	-0.090508	-0.000051
C54	C	1.599370	0.409492	0.499949
C55	C	1.126136	-0.128567	0.097600
C56	C	1.626136	0.371433	0.597600
C57	C	1.196800	-0.023674	-0.000047
C58	C	1.696800	0.476326	0.499953
C59	C	1.166470	-0.152588	-0.097666
C60	C	1.666470	0.347412	0.402334
C61	C	1.193297	-0.189405	-0.000060
C62	C	1.693297	0.310595	0.499940
C63	C	1.223576	-0.060489	0.097685
C64	C	1.723576	0.439511	0.597685
C65	C	1.263915	-0.084518	-0.097668
C66	C	1.763915	0.415482	0.402332
C67	C	1.290747	-0.122540	0.000007
C68	C	1.790747	0.377460	0.500007
C69	C	1.198815	0.071799	-0.000038
C70	C	1.698815	0.571799	0.499962
C71	C	1.191288	-0.284874	-0.000061
C72	C	1.691288	0.215126	0.499939
C73	C	1.380006	0.430430	-0.000057
C74	C	1.880006	0.930430	0.499943
C75	C	1.492312	0.458259	-0.000068
C76	C	1.992312	0.958259	0.499932
C77	C	1.187677	0.545307	-0.000062
C78	C	1.687677	1.045307	0.499938
C79	C	1.189681	0.639019	-0.000071
C80	C	1.689681	1.139019	0.499929
N81	N	1.136871	0.428165	0.281801
N82	N	1.636871	0.928165	0.781801
N83	N	1.253235	0.358748	-0.281899
N84	N	1.753235	0.858748	0.218101
C85	C	1.334885	0.310017	0.655758
C86	C	1.834885	0.810017	1.155758
C87	C	1.360606	0.294667	0.531097
C88	C	1.860606	0.794667	1.031097
C89	C	1.304674	0.328040	0.468767
C90	C	1.804674	0.828040	0.968767
C91	C	1.223018	0.376766	0.531110
C92	C	1.723018	0.876766	1.031110
C93	C	1.197300	0.392123	0.655783
C94	C	1.697300	0.892123	1.155783
C95	C	1.167089	0.410146	0.468792
C96	C	1.667089	0.910146	0.968792
C97	C	1.085432	0.458872	0.531135
C98	C	1.585432	0.958872	1.031135
C99	C	1.059718	0.474226	0.655795
C100	C	1.559718	0.974226	1.155795
C101	C	1.115650	0.440854	0.718126
C102	C	1.615650	0.940854	1.218126
C103	C	1.192807	0.394789	0.344119
C104	C	1.692807	0.894789	0.844119
C105	C	1.055221	0.476895	0.344144
C106	C	1.555221	0.976895	0.844144
C107	C	1.029500	0.492245	0.468805
C108	C	1.529500	0.992245	0.968805
H109	H	0.789268	0.531858	-0.000082
H110	H	1.289268	1.031858	0.499918
H111	H	1.427091	0.254996	0.480342
H112	H	1.927091	0.754996	0.980342
N113	N	1.255513	-0.007841	0.207172
N114	N	1.755513	0.492159	0.707172
H115	H	1.321507	0.032010	0.182417
H116	H	1.821507	0.532010	0.682417
H117	H	1.197708	0.027408	0.255695
H118	H	1.697708	0.527408	0.755695
N119	N	1.397949	-0.141478	0.000065
N120	N	1.897949	0.358522	0.500065
H121	H	1.419375	-0.107377	0.073854
H122	H	1.919375	0.392623	0.573854
H123	H	1.396090	-0.205168	-0.000681
H124	H	1.896090	0.294832	0.499319
N125	N	0.994888	0.512884	0.276920
N126	N	1.494888	1.012884	0.776920
H127	H	0.918614	0.489116	0.298636
H128	H	1.418614	0.989116	0.798636
H129	H	1.002145	0.577890	0.298623
H130	H	1.502145	1.077890	0.798623
N131	N	0.926973	0.176464	-0.000004
N132	N	1.426973	0.676464	0.499996
H133	H	0.929043	0.130647	-0.073419
H134	H	1.429043	0.630647	0.426581
H135	H	0.999956	0.206266	0.000046
H136	H	1.499956	0.706266	0.500046
H137	H	0.963014	0.531919	0.519580
H138	H	1.463014	1.031919	1.019580
H139	H	1.380423	0.282855	0.706515
H140	H	1.880423	0.782855	1.206515
H141	H	0.993236	0.513910	0.706555
H142	H	1.493236	1.013910	1.206555
N143	N	0.992222	-0.071330	0.000077
N144	N	1.492222	0.428670	0.500077
H145	H	0.994480	-0.007813	-0.000679
H146	H	1.494480	0.492187	0.499321
H147	H	0.970155	-0.106218	-0.072921
H148	H	1.470155	0.393782	0.427079
H149	H	1.325620	0.315540	0.367263
H150	H	1.825620	0.815540	0.867263
H151	H	0.866112	0.459956	-0.000061
H152	H	1.366112	0.959956	0.499939
N153	N	0.402608	0.282619	-0.000046
N154	N	0.902608	0.782619	0.499954
H155	H	0.366773	0.256420	0.073377
H156	H	0.866773	0.756420	0.573377
H157	H	0.367804	0.334231	-0.000094
H158	H	0.867804	0.834231	0.499906
H159	H	1.067883	-0.148112	0.180159
H160	H	1.567883	0.351888	0.680159
N161	N	0.463107	0.610428	-0.000100
N162	N	0.963107	1.110428	0.499900
H163	H	0.461034	0.656250	0.073311
H164	H	0.961034	1.156250	0.573311
H165	H	0.491407	0.638093	-0.073575
H166	H	0.991407	1.138093	0.426425
H167	H	1.094705	0.453348	0.819635
H168	H	1.594705	0.953348	1.319635
N169	N	0.537327	0.156600	-0.000033
N170	N	1.037327	0.656600	0.499967
H171	H	0.594397	0.122157	-0.000023
H172	H	1.094397	0.622157	0.499977
H173	H	0.478912	0.151582	0.073388
H174	H	0.978912	0.651582	0.573388
H175	H	0.671672	0.641854	-0.000109
H176	H	1.171672	1.141854	0.499891
H177	H	0.718410	0.145057	-0.000019
H178	H	1.218410	0.645057	0.499981
H179	H	1.322133	-0.064960	-0.180231
H180	H	1.822133	0.435040	0.319769
H181	H	1.259292	0.355116	0.293371
H182	H	1.759292	0.855116	0.793371
N183	N	1.134442	-0.205393	-0.207014
N184	N	1.634442	0.294607	0.292986
H185	H	1.062139	-0.194058	-0.206919
H186	H	1.562139	0.305942	0.293081
H187	H	1.185801	-0.188732	-0.280712
H188	H	1.685801	0.311268	0.219288
