data_functionalizedCrystal
_audit_creation_method	'MofGen! by Chris Wilmer'
_symmetry_space_group_name_H-M	'P1'
_symmetry_Int_Tables_number	1
_symmetry_cell_setting	triclinic
loop_
_symmetry_equiv_pos_as_xyz
  x,y,z
_cell_length_a	10.540539
_cell_length_b	17.038272
_cell_length_c	9.616153
_cell_angle_alpha	89.997688
_cell_angle_beta	89.995174
_cell_angle_gamma	87.818524
loop_
_atom_site_label
_atom_site_type_symbol
_atom_site_fract_x
_atom_site_fract_y
_atom_site_fract_z
O1	O	1.696176	0.110247	-0.115581
O2	O	1.327732	0.120634	-0.115599
O3	O	1.509764	0.001613	-0.115579
O4	O	1.514144	0.229269	-0.115601
O5	O	1.509738	0.001615	0.115712
O6	O	1.327705	0.120637	0.115693
O7	O	1.696149	0.110249	0.115710
Zn8	Zn	1.511923	0.115443	0.152424
Zn9	Zn	1.511958	0.115440	-0.152313
O10	O	1.514117	0.229271	0.115690
C11	C	1.280343	0.119857	0.000045
C12	C	1.139177	0.117526	0.000039
C13	C	0.947420	0.028219	0.000587
C14	C	1.094259	0.030581	0.000051
C15	C	1.081423	0.159366	-0.132039
C16	C	0.934602	0.156399	-0.132135
C17	C	0.934248	0.158170	0.130886
C18	C	1.081305	0.158971	0.132618
C19	C	1.505768	-0.027537	0.000066
C20	C	1.493883	-0.114398	0.000065
C21	C	1.602994	-0.163886	0.000072
C22	C	1.591820	-0.245501	0.000058
C23	C	1.471534	-0.277626	0.000048
C24	C	1.362416	-0.228133	0.000037
C25	C	1.373591	-0.146519	0.000041
C26	C	1.432055	-0.523611	0.000027
C27	C	1.420888	-0.605231	0.000027
C28	C	1.650293	-0.622593	0.000046
C29	C	1.661457	-0.540977	0.000058
C30	C	1.552339	-0.491491	0.000040
C31	C	1.460110	-0.361050	0.000038
C32	C	1.563764	-0.408069	0.000040
C33	C	1.743538	0.111027	0.000063
C34	C	1.884704	0.113358	0.000061
C35	C	1.518114	0.258421	0.000042
C36	C	1.529998	0.345282	0.000034
N37	N	1.511909	0.115445	0.360398
N38	N	1.511982	0.115432	-0.360287
C39	C	1.414198	0.178900	0.580758
C40	C	1.414448	0.179138	0.419590
C41	C	1.646364	0.134015	0.418852
C42	C	1.645842	0.134465	0.580070
C43	C	1.476466	0.033212	0.580316
C44	C	1.473469	0.033745	0.419089
H45	H	1.133791	-0.002340	0.094731
C46	C	1.312029	-0.469186	0.000031
H47	H	1.238794	-0.500011	0.000044
H48	H	1.311616	-0.436983	-0.080621
H49	H	1.311615	-0.436994	0.080702
C50	C	1.747506	0.073281	0.367054
H51	H	1.828066	0.085614	0.403633
H52	H	1.750650	0.074404	0.268352
H53	H	1.726205	0.022351	0.397248
H54	H	1.132922	-0.002574	-0.094786
H55	H	1.437523	0.239555	0.621252
H56	H	1.539379	-0.015754	0.378802
C57	C	0.877666	0.240864	-0.140254
H58	H	0.787633	0.239624	-0.140359
H59	H	0.905445	0.265108	-0.223243
H60	H	0.904786	0.269965	-0.062150
H61	H	1.264477	-0.254296	0.000020
H62	H	1.284741	-0.106227	0.000035
H63	H	0.915620	-0.006128	0.095308
H64	H	1.739130	-0.662893	0.000058
C65	C	1.288571	-0.640571	0.000016
H66	H	1.297548	-0.696265	0.000034
H67	H	1.243281	-0.623632	-0.080644
H68	H	1.243264	-0.623629	0.080679
C69	C	1.279816	0.164059	0.366197
H70	H	1.224475	0.157735	0.443037
H71	H	1.281776	0.117744	0.311127
H72	H	1.250125	0.207410	0.311506
C73	C	1.132762	0.117680	0.264620
H74	H	1.189285	0.075361	0.239056
H75	H	1.064097	0.098093	0.316496
H76	H	1.176681	0.154114	0.319733
H77	H	0.892879	0.220970	0.131773
H78	H	1.438038	0.240138	0.381006
H79	H	1.111443	0.222359	0.140586
C80	C	1.279172	0.164050	0.633196
H81	H	1.281218	0.119013	0.691522
H82	H	1.225058	0.155577	0.556086
H83	H	1.247945	0.208398	0.684368
C84	C	1.735309	-0.128555	0.000083
H85	H	1.798689	-0.169719	0.000072
H86	H	1.744431	-0.097080	0.080740
H87	H	1.744444	-0.097077	-0.080583
C88	C	1.119671	0.245619	-0.138703
H89	H	1.171331	0.256905	-0.060811
H90	H	1.045536	0.279106	-0.137476
H91	H	1.165770	0.254052	-0.221929
C92	C	1.572644	-0.030607	0.631827
H93	H	1.634148	-0.007301	0.689253
H94	H	1.613632	-0.055065	0.554299
H95	H	1.529486	-0.068818	0.683740
H96	H	0.914033	-0.005985	-0.093600
H97	H	1.676794	0.193323	0.378457
C98	C	1.346231	0.009351	0.635284
H99	H	1.312296	0.049316	0.694978
H100	H	1.355897	-0.038516	0.685499
H101	H	1.290138	0.002555	0.559275
C102	C	1.686291	0.215498	0.630857
H103	H	1.686334	0.216485	0.729637
H104	H	1.628354	0.255007	0.596752
H105	H	1.769157	0.224987	0.597525
H106	H	1.661700	-0.381909	0.000017
H107	H	0.903518	0.125473	-0.230858
C108	C	1.747697	0.074445	0.632759
H109	H	1.789220	0.049901	0.555630
H110	H	1.708630	0.035805	0.687667
H111	H	1.808099	0.100609	0.687465
H112	H	1.680669	-0.285790	0.000066
H113	H	1.362173	-0.387215	0.000033
H114	H	1.374518	0.019669	0.380886
H115	H	1.121311	0.130299	-0.230328
H116	H	1.759406	-0.514827	0.000067
H117	H	0.900066	0.130034	0.231000
