data_functionalizedCrystal
_audit_creation_method	'MofGen! by Chris Wilmer'
_symmetry_space_group_name_H-M	'P1'
_symmetry_Int_Tables_number	1
_symmetry_cell_setting	triclinic
loop_
_symmetry_equiv_pos_as_xyz
  x,y,z
_cell_length_a	23.532407
_cell_length_b	23.532407
_cell_length_c	8.965430
_cell_angle_alpha	89.995773
_cell_angle_beta	90.001560
_cell_angle_gamma	82.848678
loop_
_atom_site_label
_atom_site_type_symbol
_atom_site_fract_x
_atom_site_fract_y
_atom_site_fract_z
O1	O	0.755259	0.069131	-0.123868
O2	O	1.088593	0.402464	0.209465
O3	O	1.421926	0.735797	0.542798
O4	O	0.589396	0.079134	-0.123914
O5	O	0.922729	0.412467	0.209419
O6	O	1.256063	0.745800	0.542753
O7	O	0.677329	-0.008800	-0.123862
O8	O	1.010663	0.324534	0.209471
O9	O	1.343996	0.657867	0.542804
O10	O	0.667326	0.157064	-0.123920
O11	O	1.000659	0.490397	0.209413
O12	O	1.333993	0.823730	0.542747
O13	O	0.677322	-0.008794	0.124216
O14	O	1.010655	0.324540	0.457550
O15	O	1.343989	0.657873	0.790883
O16	O	0.589389	0.079140	0.124165
O17	O	0.922722	0.412473	0.457498
O18	O	1.256055	0.745806	0.790831
O19	O	0.755252	0.069136	0.124211
O20	O	1.088585	0.402470	0.457544
O21	O	1.421919	0.735803	0.790877
Cu22	Cu	0.672320	0.074139	0.146839
Cu23	Cu	1.005653	0.407472	0.480173
Cu24	Cu	1.338986	0.740805	0.813506
Cu25	Cu	0.672328	0.074132	-0.146543
Cu26	Cu	1.005662	0.407465	0.186791
Cu27	Cu	1.338995	0.740798	0.520124
O28	O	0.667319	0.157070	0.124159
O29	O	1.000652	0.490403	0.457492
O30	O	1.333985	0.823736	0.790826
C31	C	0.568176	0.078882	0.000120
C32	C	0.901510	0.412215	0.333453
C33	C	1.234843	0.745549	0.666786
C34	C	0.504959	0.078116	0.000104
C35	C	0.838293	0.411449	0.333437
C36	C	1.171626	0.744783	0.666770
C37	C	0.105856	0.125350	0.000155
C38	C	0.439190	0.458683	0.333488
C39	C	0.772523	0.792016	0.666821
C40	C	0.046456	0.124638	0.000164
C41	C	0.379789	0.457971	0.333497
C42	C	0.713123	0.791305	0.666831
O43	O	0.009711	0.168424	0.000203
O44	O	0.343045	0.501757	0.333536
O45	O	0.676378	0.835091	0.666870
N46	N	0.023830	0.072362	0.000180
N47	N	0.357163	0.405695	0.333513
N48	N	0.690496	0.739028	0.666846
C49	C	0.060607	0.020794	0.000201
C50	C	0.393941	0.354127	0.333534
C51	C	0.727274	0.687460	0.666868
O52	O	0.035908	-0.023737	0.000217
O53	O	0.369241	0.309596	0.333550
O54	O	0.702574	0.642930	0.666883
C55	C	0.120006	0.021506	0.000202
C56	C	0.453340	0.354839	0.333536
C57	C	0.786673	0.688172	0.666869
C58	C	0.142629	0.073785	0.000172
C59	C	0.475962	0.407119	0.333505
C60	C	0.809296	0.740452	0.666838
C61	C	0.128479	0.177625	0.000126
C62	C	0.461813	0.510958	0.333459
C63	C	0.795146	0.844292	0.666792
C64	C	0.187876	0.178336	0.000113
C65	C	0.521209	0.511670	0.333447
C66	C	0.854542	0.845003	0.666780
C67	C	0.224649	0.126772	0.000130
C68	C	0.557982	0.460105	0.333464
C69	C	0.891315	0.793439	0.666797
C70	C	0.202025	0.074497	0.000159
C71	C	0.535359	0.407830	0.333493
C72	C	0.868692	0.741163	0.666826
C73	C	0.156783	-0.030062	0.000235
C74	C	0.490116	0.303271	0.333568
C75	C	0.823450	0.636605	0.666901
C76	C	0.216185	-0.029345	0.000237
C77	C	0.549519	0.303988	0.333570
C78	C	0.882852	0.637321	0.666904
C79	C	0.238808	0.022934	0.000206
C80	C	0.572141	0.356268	0.333539
C81	C	0.905475	0.689601	0.666873
C82	C	0.298194	0.023643	0.000164
C83	C	0.631528	0.356977	0.333498
C84	C	0.964861	0.690310	0.666831
N85	N	0.320820	0.075920	0.000149
N86	N	0.654154	0.409253	0.333482
N87	N	0.987487	0.742586	0.666815
C88	C	0.284048	0.127484	0.000132
C89	C	0.617381	0.460817	0.333465
C90	C	0.950714	0.794151	0.666798
C91	C	-0.064135	0.019302	0.000201
C92	C	0.269198	0.352635	0.333534
C93	C	0.602532	0.685969	0.666868
C94	C	-0.123533	0.018589	0.000189
C95	C	0.209800	0.351923	0.333522
C96	C	0.543134	0.685256	0.666856
C97	C	-0.137680	0.122434	0.000155
C98	C	0.195653	0.455768	0.333488
C99	C	0.528986	0.789101	0.666821
C100	C	-0.078281	0.123146	0.000156
C101	C	0.255052	0.456480	0.333489
C102	C	0.588385	0.789813	0.666823
C103	C	-0.041509	0.071578	0.000185
C104	C	0.291824	0.404912	0.333519
C105	C	0.625158	0.738245	0.666852
C106	C	0.408784	0.128974	0.000105
C107	C	0.742118	0.462307	0.333438
C108	C	1.075451	0.795640	0.666772
C109	C	0.468186	0.129680	0.000087
C110	C	0.801520	0.463014	0.333420
C111	C	1.134853	0.796347	0.666753
C112	C	0.482329	0.025836	0.000129
C113	C	0.815662	0.359169	0.333462
C114	C	1.148995	0.692503	0.666795
C115	C	0.422932	0.025129	0.000139
C116	C	0.756265	0.358462	0.333472
C117	C	1.089598	0.691796	0.666806
C118	C	0.386160	0.076702	0.000132
C119	C	0.719494	0.410036	0.333466
C120	C	1.052827	0.743369	0.666799
O121	O	0.334974	-0.020119	0.000131
O122	O	0.668307	0.313214	0.333465
O123	O	1.001640	0.646547	0.666798
O124	O	0.308755	0.172007	0.000136
O125	O	0.642089	0.505340	0.333469
O126	O	0.975422	0.838674	0.666802
C127	C	0.677071	-0.030013	0.000181
C128	C	1.010404	0.303321	0.333514
C129	C	1.343738	0.636654	0.666847
C130	C	0.676305	-0.093230	0.000192
C131	C	1.009638	0.240104	0.333525
C132	C	1.342972	0.573437	0.666859
C133	C	0.723539	-0.492333	0.000123
C134	C	1.056872	-0.158999	0.333457
C135	C	1.390205	0.174334	0.666790
C136	C	0.722827	-0.551733	0.000112
C137	C	1.056160	-0.218400	0.333445
C138	C	1.389494	0.114934	0.666778
O139	O	0.766613	-0.588478	0.000069
O140	O	1.099946	-0.255144	0.333402
O141	O	1.433280	0.078189	0.666735
N142	N	0.670551	-0.574359	0.000098
N143	N	1.003884	-0.241026	0.333432
N144	N	1.337217	0.092307	0.666765
C145	C	0.618983	-0.537582	0.000081
C146	C	0.952316	-0.204248	0.333415
C147	C	1.285649	0.129085	0.666748
O148	O	0.574452	-0.562281	0.000067
O149	O	0.907785	-0.228948	0.333401
O150	O	1.241119	0.104385	0.666734
C151	C	0.619695	-0.478182	0.000082
C152	C	0.953028	-0.144849	0.333416
C153	C	1.286361	0.188484	0.666749
C154	C	0.671974	-0.455560	0.000111
C155	C	1.005308	-0.122227	0.333444
C156	C	1.338641	0.211107	0.666777
C157	C	0.775814	-0.469710	0.000150
C158	C	1.109147	-0.136376	0.333483
C159	C	1.442481	0.196957	0.666817
C160	C	0.776525	-0.410313	0.000164
C161	C	1.109859	-0.076980	0.333498
C162	C	1.443192	0.256353	0.666831
C163	C	0.724961	-0.373540	0.000152
C164	C	1.058294	-0.040207	0.333485
C165	C	1.391628	0.293126	0.666819
C166	C	0.672685	-0.396164	0.000125
C167	C	1.006019	-0.062830	0.333458
C168	C	1.339352	0.270503	0.666792
C169	C	0.568127	-0.441406	0.000054
C170	C	0.901460	-0.108073	0.333388
C171	C	1.234794	0.225261	0.666721
C172	C	0.568844	-0.382004	0.000054
C173	C	0.902177	-0.048670	0.333388
C174	C	1.235510	0.284663	0.666721
C175	C	0.621123	-0.359381	0.000083
C176	C	0.954457	-0.026048	0.333416
C177	C	1.287790	0.307286	0.666749
C178	C	0.621832	-0.299995	0.000127
C179	C	0.955166	0.033339	0.333460
C180	C	1.288499	0.366672	0.666793
N181	N	0.674109	-0.277368	0.000140
N182	N	1.007442	0.055965	0.333473
N183	N	1.340775	0.389298	0.666807
C184	C	0.725673	-0.314141	0.000153
C185	C	1.059006	0.019192	0.333486
C186	C	1.392340	0.352525	0.666819
C187	C	0.617491	-0.662324	0.000077
C188	C	0.950824	-0.328991	0.333410
C189	C	1.284158	0.004343	0.666744
C190	C	0.616778	-0.721722	0.000087
C191	C	0.950112	-0.388389	0.333420
C192	C	1.283445	-0.055055	0.666753
C193	C	0.720623	-0.735869	0.000114
C194	C	1.053957	-0.402536	0.333448
C195	C	1.387290	-0.069203	0.666781
C196	C	0.721335	-0.676470	0.000115
C197	C	1.054669	-0.343137	0.333449
C198	C	1.388002	-0.009804	0.666782
C199	C	0.669767	-0.639698	0.000090
C200	C	1.003101	-0.306365	0.333424
C201	C	1.336434	0.026969	0.666757
C202	C	0.727163	-0.189405	0.000184
C203	C	1.060496	0.143929	0.333517
C204	C	1.393829	0.477262	0.666851
C205	C	0.727869	-0.130003	0.000205
C206	C	1.061203	0.203331	0.333538
C207	C	1.394536	0.536664	0.666871
C208	C	0.624025	-0.115860	0.000169
C209	C	0.957358	0.217473	0.333502
C210	C	1.290692	0.550806	0.666836
C211	C	0.623318	-0.175257	0.000156
C212	C	0.956651	0.158076	0.333490
C213	C	1.289985	0.491409	0.666823
C214	C	0.674891	-0.212029	0.000159
C215	C	1.008225	0.121305	0.333492
C216	C	1.341558	0.454638	0.666826
O217	O	0.578070	-0.263215	0.000164
O218	O	0.911403	0.070118	0.333497
O219	O	1.244736	0.403451	0.666830
O220	O	0.770196	-0.289433	0.000147
O221	O	1.103529	0.043900	0.333480
O222	O	1.436863	0.377233	0.666814
C223	C	0.776472	0.069388	0.000173
C224	C	1.109805	0.402722	0.333507
C225	C	1.443138	0.736055	0.666840
C226	C	0.839689	0.070154	0.000180
C227	C	1.173022	0.403487	0.333513
C228	C	1.506355	0.736821	0.666847
C229	C	0.667577	0.178283	0.000113
C230	C	1.000910	0.511616	0.333446
C231	C	1.334244	0.844949	0.666779
C232	C	0.668343	0.241500	0.000091
C233	C	1.001676	0.574833	0.333425
C234	C	1.335010	0.908167	0.666758
N235	N	0.672318	0.074143	0.353188
N236	N	1.005651	0.407476	0.686522
N237	N	1.338984	0.740810	1.019855
N238	N	0.672335	0.074123	-0.352892
N239	N	1.005668	0.407456	-0.019558
N240	N	1.339002	0.740789	0.313775
C241	C	0.631639	0.114796	0.450470
C242	C	0.964972	0.448129	0.783804
C243	C	1.298306	0.781463	1.117137
C244	C	0.683041	0.125556	0.549894
C245	C	1.016375	0.458889	0.883227
C246	C	1.349708	0.792223	1.216561
C247	C	0.620937	0.063388	0.549892
C248	C	0.954271	0.396721	0.883226
C249	C	1.287604	0.730054	1.216559
C250	C	0.723745	0.084928	0.450423
C251	C	1.057079	0.418262	0.783756
C252	C	1.390412	0.751595	1.117090
C253	C	0.661608	0.022738	0.450413
C254	C	0.994941	0.356071	0.783746
C255	C	1.328275	0.689405	1.117079
C256	C	0.713047	0.033476	0.549791
C257	C	1.046381	0.366809	0.883125
C258	C	1.379714	0.700143	1.216458
H259	H	0.138375	-0.072634	0.000261
H260	H	0.471708	0.260700	0.333594
H261	H	0.805041	0.594033	0.666927
H262	H	0.098544	0.219617	0.000117
H263	H	0.431877	0.552951	0.333451
H264	H	0.765211	0.886284	0.666784
H265	H	0.597270	0.149206	0.406862
H266	H	0.930603	0.482539	0.740195
H267	H	1.263936	0.815873	1.073528
O268	O	0.695057	0.183126	0.607781
O269	O	1.028390	0.516460	0.941115
O270	O	1.361723	0.849793	1.274448
H271	H	0.734760	0.177592	0.675849
H272	H	1.068093	0.510925	1.009183
H273	H	1.401426	0.844259	1.342516
H274	H	0.747493	-0.000914	0.593127
H275	H	1.080826	0.332419	0.926460
H276	H	1.414159	0.665753	1.259793
O277	O	0.777725	-0.652077	0.000124
O278	O	1.111058	-0.318743	0.333457
O279	O	1.444391	0.014590	0.666790
H280	H	0.780538	-0.625359	0.101240
H281	H	1.113872	-0.292025	0.434573
H282	H	1.447205	0.041308	0.767906
H283	H	0.652521	-0.020711	0.406681
H284	H	0.985855	0.312622	0.740015
H285	H	1.319188	0.645956	1.073348
O286	O	0.560389	-0.746116	0.000084
O287	O	0.893722	-0.412782	0.333418
O288	O	1.227056	-0.079449	0.666751
H289	H	0.568550	-0.793598	0.000093
H290	H	0.901884	-0.460265	0.333426
H291	H	1.235217	-0.126931	0.666759
H292	H	-0.059867	0.165717	0.000139
H293	H	0.273467	0.499050	0.333473
H294	H	0.606800	0.832384	0.666806
O295	O	0.781325	0.097039	0.392812
O296	O	1.114658	0.430373	0.726145
O297	O	1.447992	0.763706	1.059479
H298	H	0.780858	0.096976	0.269016
H299	H	1.114191	0.430309	0.602349
H300	H	1.447525	0.763642	0.935682
H301	H	-0.167632	0.164421	0.000148
H302	H	0.165701	0.497754	0.333481
H303	H	0.499035	0.831087	0.666815
O304	O	0.522001	-0.029775	0.000160
O305	O	0.855334	0.303558	0.333494
O306	O	1.188668	0.636891	0.666827
H307	H	0.514002	-0.054817	-0.100941
H308	H	0.847336	0.278516	0.232392
H309	H	1.180669	0.611849	0.565726
H310	H	0.577479	0.054300	0.593589
H311	H	0.910812	0.387633	0.926922
H312	H	1.244145	0.720967	1.260256
H313	H	0.486602	0.172255	0.000061
H314	H	0.819935	0.505588	0.333394
H315	H	1.153269	0.838921	0.666727
H316	H	0.575496	-0.632386	0.000069
H317	H	0.908829	-0.299053	0.333403
H318	H	1.242162	0.034280	0.666736
H319	H	0.762610	-0.765821	0.000119
H320	H	1.095943	-0.432488	0.333452
H321	H	1.429276	-0.099154	0.666786
O322	O	0.784258	-0.105601	0.000212
O323	O	1.117592	0.227732	0.333545
O324	O	1.450925	0.561066	0.666879
H325	H	0.819993	-0.141155	0.000196
H326	H	1.153326	0.192179	0.333529
H327	H	1.486660	0.525512	0.666863
H328	H	-0.034198	-0.022693	0.000212
H329	H	0.299136	0.310640	0.333545
H330	H	0.632469	0.643973	0.666878
O331	O	0.369128	0.184597	0.000085
O332	O	0.702461	0.517931	0.333418
O333	O	1.035794	0.851264	0.666751
H334	H	0.394847	0.221063	0.000048
H335	H	0.728180	0.554396	0.333381
H336	H	1.061513	0.887729	0.666714
H337	H	-0.141947	-0.023982	0.000191
H338	H	0.191387	0.309352	0.333524
H339	H	0.524720	0.642685	0.666857
H340	H	0.206289	0.220908	0.000088
H341	H	0.539622	0.554241	0.333421
H342	H	0.872956	0.887574	0.666755
O343	O	0.255849	-0.084966	0.000262
O344	O	0.589182	0.248367	0.333596
O345	O	0.922515	0.581701	0.666929
H346	H	0.230134	-0.121435	0.000273
H347	H	0.563467	0.211899	0.333606
H348	H	0.896800	0.545232	0.666940
H349	H	0.404512	-0.017441	0.000142
H350	H	0.737845	0.315892	0.333476
H351	H	1.071178	0.649225	0.666809
O352	O	0.831437	-0.509364	0.000172
O353	O	1.164770	-0.176031	0.333505
O354	O	1.498104	0.157303	0.666838
H355	H	0.822171	-0.554472	0.000160
H356	H	1.155504	-0.221139	0.333494
H357	H	1.488838	0.112194	0.666827
O358	O	0.782786	-0.229061	0.000209
O359	O	1.116120	0.104272	0.333542
O360	O	1.449453	0.437605	0.666875
H361	H	0.819252	-0.203342	0.000248
H362	H	1.152585	0.129991	0.333581
H363	H	1.485918	0.463324	0.666914
H364	H	0.819097	-0.391900	0.000182
H365	H	1.152430	-0.058567	0.333515
H366	H	1.485763	0.274767	0.666848
O367	O	0.511739	-0.465798	0.000019
O368	O	0.845073	-0.132465	0.333352
O369	O	1.178406	0.200869	0.666685
H370	H	0.476009	-0.430240	-0.000009
H371	H	0.809343	-0.096907	0.333325
H372	H	1.142676	0.236427	0.666658
H373	H	0.526850	-0.352066	0.000032
H374	H	0.860183	-0.018732	0.333365
H375	H	1.193516	0.314601	0.666698
O376	O	0.566933	-0.199664	0.000131
O377	O	0.900266	0.133670	0.333464
O378	O	1.233600	0.467003	0.666797
H379	H	0.531197	-0.164111	0.000118
H380	H	0.864530	0.169222	0.333451
H381	H	1.197864	0.502555	0.666784
H382	H	0.582043	-0.085909	0.000164
H383	H	0.915376	0.247424	0.333497
H384	H	1.248709	0.580757	0.666831
