data_functionalizedCrystal
_audit_creation_method	'MofGen! by Chris Wilmer'
_symmetry_space_group_name_H-M	'P1'
_symmetry_Int_Tables_number	1
_symmetry_cell_setting	triclinic
loop_
_symmetry_equiv_pos_as_xyz
  x,y,z
_cell_length_a	19.077241
_cell_length_b	19.077068
_cell_length_c	19.077569
_cell_angle_alpha	90.064237
_cell_angle_beta	85.478241
_cell_angle_gamma	94.707771
loop_
_atom_site_label
_atom_site_type_symbol
_atom_site_fract_x
_atom_site_fract_y
_atom_site_fract_z
Zn1	Zn	-1.085293	0.218632	0.450432
Zn2	Zn	-0.585293	0.718632	0.950432
Zn3	Zn	-1.075731	0.341260	0.337269
Zn4	Zn	-0.575731	0.841260	0.837269
Zn5	Zn	-0.962290	0.228491	0.328191
Zn6	Zn	-0.462290	0.728491	0.828191
Zn7	Zn	-0.962626	0.341212	0.450371
Zn8	Zn	-0.462626	0.841212	0.950371
O9	O	-1.021485	0.282399	0.391566
O10	O	-0.521485	0.782399	0.891566
O11	O	-1.182836	0.230793	0.439246
O12	O	-0.682836	0.730793	0.939246
O13	O	-1.056541	0.330447	0.237572
O14	O	-0.556541	0.830447	0.737572
O15	O	-0.982467	0.128689	0.340633
O16	O	-0.482467	0.628689	0.840633
O17	O	-1.175812	0.320887	0.356105
O18	O	-0.675812	0.820887	0.856105
O19	O	-1.072836	0.121445	0.430443
O20	O	-0.572836	0.621445	0.930443
O21	O	-0.973196	0.247596	0.230903
O22	O	-0.473196	0.747596	0.730903
O23	O	-0.863522	0.247550	0.340573
O24	O	-0.363522	0.747550	0.840573
O25	O	-0.983041	0.320805	0.548871
O26	O	-0.483041	0.820805	1.048871
O27	O	-0.863770	0.330365	0.430338
O28	O	-0.363770	0.830365	0.930338
O29	O	-1.073163	0.230746	0.548916
O30	O	-0.573163	0.730746	1.048916
O31	O	-1.056867	0.439748	0.356046
O32	O	-0.556867	0.939748	0.856046
O33	O	-0.973769	0.439713	0.439141
O34	O	-0.473769	0.939713	0.939141
C35	C	-0.838025	0.290022	0.384464
C36	C	-0.338025	0.790022	0.884464
C37	C	-0.759540	0.293300	0.381444
C38	C	-0.259540	0.793300	0.881444
C39	C	-0.726326	0.248001	0.423383
C40	C	-0.226326	0.748001	0.923383
C41	C	-0.652581	0.251078	0.420538
C42	C	-0.152581	0.751078	0.920538
C43	C	-0.612051	0.299457	0.375758
C44	C	-0.112051	0.799457	0.875758
C45	C	-0.645271	0.344758	0.333814
C46	C	-0.145271	0.844758	0.833814
C47	C	-0.719014	0.341678	0.336655
C48	C	-0.219014	0.841678	0.836655
C49	C	-0.391109	0.313690	0.362608
C50	C	0.108891	0.813690	0.862608
C51	C	-0.317360	0.316769	0.359771
C52	C	0.182640	0.816769	0.859771
C53	C	-0.324676	0.223087	0.446495
C54	C	0.175324	0.723087	0.946495
C55	C	-0.398420	0.220014	0.449335
C56	C	0.101580	0.720014	0.949335
C57	C	-0.431633	0.265312	0.407389
C58	C	0.068367	0.765312	0.907389
N59	N	-0.536672	0.302605	0.372851
N60	N	-0.036672	0.802605	0.872851
N61	N	-0.507011	0.262161	0.410293
N62	N	-0.007011	0.762161	0.910293
C63	C	-1.014337	0.465267	0.398588
C64	C	-0.514337	0.965267	0.898588
C65	C	-1.011345	0.543496	0.401618
C66	C	-0.511345	1.043496	0.901618
C67	C	-1.029206	0.274671	0.575146
C68	C	-0.529206	0.774671	1.075146
C69	C	-1.032496	0.271377	0.653376
C70	C	-0.532496	0.771377	1.153376
C71	C	-0.205661	0.274742	0.398689
C72	C	0.294339	0.774742	0.898689
C73	C	-0.284146	0.271470	0.401711
C74	C	0.215854	0.771470	0.901711
C75	C	-1.028681	0.098815	0.384532
C76	C	-0.528681	0.598815	0.884532
C77	C	-1.031747	0.020582	0.381535
C78	C	-0.531747	0.520582	0.881535
C79	C	-1.053240	0.580239	0.359817
C80	C	-0.553240	1.080239	0.859817
C81	C	-1.050430	0.653743	0.362671
C82	C	-0.550430	1.153743	0.862671
C83	C	-1.005721	0.690501	0.407324
C84	C	-0.505721	1.190501	0.907324
C85	C	-0.963824	0.653752	0.449129
C86	C	-0.463824	1.153752	0.949129
C87	C	-0.966638	0.580250	0.446278
C88	C	-0.466638	1.080250	0.946278
C89	C	-0.992664	0.910331	0.420489
C90	C	-0.492664	1.410331	0.920489
C91	C	-0.989852	0.983838	0.423336
C92	C	-0.489852	1.483838	0.923336
C93	C	-1.076460	0.983824	0.336878
C94	C	-0.576460	1.483824	0.836878
C95	C	-1.079267	0.910320	0.334028
C96	C	-0.579267	1.410320	0.834028
C97	C	-1.037372	0.873577	0.375837
C98	C	-0.537372	1.373577	0.875837
N99	N	-1.002846	0.765634	0.410241
N100	N	-0.502846	1.265634	0.910241
N101	N	-1.040252	0.798446	0.372923
N102	N	-0.540252	1.298446	0.872923
C103	C	-1.013837	0.290044	0.208699
C104	C	-0.513837	0.790044	0.708699
C105	C	-1.010691	0.293134	0.130467
C106	C	-0.510691	0.793134	0.630467
C107	C	-0.987121	0.316715	0.690107
C108	C	-0.487121	0.816715	1.190107
C109	C	-0.990218	0.313621	0.763613
C110	C	-0.490218	0.813621	1.263613
C111	C	-1.038688	0.265184	0.800388
C112	C	-0.538688	0.765184	1.300388
C113	C	-1.084068	0.219844	0.763652
C114	C	-0.584068	0.719844	1.263652
C115	C	-1.080973	0.222942	0.690147
C116	C	-0.580973	0.722942	1.190147
C117	C	-1.052977	0.250892	1.020226
C118	C	-0.552977	0.750892	1.520226
C119	C	-1.056066	0.247795	1.093736
C120	C	-0.556066	0.747795	1.593736
C121	C	-0.962217	0.341574	1.093692
C122	C	-0.462217	0.841574	1.593692
C123	C	-0.959124	0.344665	1.020186
C124	C	-0.459124	0.844665	1.520186
C125	C	-1.004507	0.299328	0.983457
C126	C	-0.504507	0.799328	1.483457
N127	N	-1.041853	0.262018	0.875523
N128	N	-0.541853	0.762018	1.375523
N129	N	-1.001344	0.302497	0.908323
N130	N	-0.501344	0.802497	1.408323
H131	H	-0.418142	0.350576	0.328453
H132	H	0.081858	0.850576	0.828453
H133	H	-1.117922	0.186023	0.660242
H134	H	-0.617922	0.686023	1.160242
O135	O	-0.946517	1.019621	0.466756
O136	O	-0.446517	1.519621	0.966756
C137	C	-0.986975	1.058489	0.515452
C138	C	-0.486975	1.558489	1.015452
H139	H	-1.039044	1.068276	0.493166
H140	H	-0.539044	1.568276	0.993166
H141	H	-0.956625	1.111000	0.525747
H142	H	-0.456625	1.611000	1.025747
H143	H	-0.997971	1.027622	0.566820
H144	H	-0.497971	1.527622	1.066820
H145	H	-0.297626	0.186207	0.480645
H146	H	0.202374	0.686207	0.980645
H147	H	-1.115673	0.880393	0.297669
H148	H	-0.615673	1.380393	0.797669
O149	O	-1.103120	0.200652	1.129381
O150	O	-0.603120	0.700652	1.629381
C151	C	-1.089680	0.131896	1.108147
C152	C	-0.589680	0.631896	1.608147
H153	H	-1.060354	0.133808	1.053668
H154	H	-0.560354	0.633808	1.553668
H155	H	-1.141775	0.098328	1.106403
H156	H	-0.641775	0.598328	1.606403
H157	H	-1.056043	0.107954	1.147199
H158	H	-0.556043	0.607954	1.647199
H159	H	-0.932523	0.550334	0.480318
H160	H	-0.432523	1.050334	0.980318
H161	H	-0.919666	0.384118	0.990250
H162	H	-0.419666	0.884118	1.490250
O163	O	-1.117262	1.019430	0.296309
O164	O	-0.617262	1.519430	0.796309
C165	C	-1.188964	0.997833	0.313790
C166	C	-0.688964	1.497833	0.813790
H167	H	-1.193581	0.943255	0.338835
H168	H	-0.693581	1.443255	0.838835
H169	H	-1.218633	0.996127	0.264151
H170	H	-0.718633	1.496127	0.764151
H171	H	-1.212659	1.036653	0.352517
H172	H	-0.712659	1.536653	0.852517
O173	O	-0.951889	0.874756	0.461114
O174	O	-0.451889	1.374756	0.961114
C175	C	-0.911833	0.922964	0.501141
C176	C	-0.411833	1.422964	1.001141
H177	H	-0.906203	0.976688	0.474249
H178	H	-0.406203	1.476688	0.974249
H179	H	-0.857313	0.903777	0.505618
H180	H	-0.357313	1.403777	1.005618
H181	H	-0.939590	0.927409	0.555922
H182	H	-0.439590	1.427409	1.055922
O183	O	-0.918168	0.385716	1.129299
O184	O	-0.418168	0.885716	1.629299
C185	C	-0.930110	0.455980	1.114637
C186	C	-0.430110	0.955980	1.614637
H187	H	-0.954952	0.458558	1.062374
H188	H	-0.454952	0.958558	1.562374
H189	H	-0.877807	0.489766	1.111361
H190	H	-0.377807	0.989766	1.611361
H191	H	-0.967226	0.476435	1.158320
H192	H	-0.467226	0.976435	1.658320
O193	O	-0.765588	0.200944	0.466901
O194	O	-0.265588	0.700944	0.966901
C195	C	-0.720454	0.161635	0.503320
C196	C	-0.220454	0.661635	1.003320
H197	H	-0.666768	0.162561	0.472373
H198	H	-0.166768	0.662561	0.972373
H199	H	-0.744242	0.104982	0.509613
H200	H	-0.244242	0.604982	1.009613
H201	H	-0.713857	0.185573	0.557423
H202	H	-0.213857	0.685573	1.057423
O203	O	-0.920378	0.689346	0.492568
O204	O	-0.420378	1.189346	0.992568
C205	C	-0.883992	0.641152	0.528839
C206	C	-0.383992	1.141152	1.028839
H207	H	-0.915023	0.587425	0.530386
H208	H	-0.415023	1.087425	1.030386
H209	H	-0.877935	0.660352	0.584818
H210	H	-0.377935	1.160352	1.084818
H211	H	-0.829595	0.636707	0.500647
H212	H	-0.329595	1.136707	1.000647
H213	H	-0.947644	0.356150	0.660170
H214	H	-0.447644	0.856150	1.160170
H215	H	-0.431415	0.180621	0.485803
H216	H	0.068585	0.680621	0.985803
O217	O	-0.946066	0.357690	0.799182
O218	O	-0.446066	0.857690	1.299182
C219	C	-0.902631	0.401113	0.750963
C220	C	-0.402631	0.901113	1.250963
H221	H	-0.899113	0.374592	0.697367
H222	H	-0.399113	0.874592	1.197367
H223	H	-0.847596	0.410034	0.770337
H224	H	-0.347596	0.910034	1.270337
H225	H	-0.926060	0.453826	0.746195
H226	H	-0.426060	0.953826	1.246195
H227	H	-0.625541	0.214192	0.454691
H228	H	-0.125541	0.714192	0.954691
H229	H	-1.089931	0.213975	0.990330
H230	H	-0.589931	0.713975	1.490330
O231	O	-0.605977	0.391848	0.290356
O232	O	-0.105977	0.891848	0.790356
C233	C	-0.621897	0.460625	0.309024
C234	C	-0.121897	0.960625	0.809024
H235	H	-0.676525	0.458749	0.338197
H236	H	-0.176525	0.958749	0.838197
H237	H	-0.621044	0.494143	0.259483
H238	H	-0.121044	0.994143	0.759483
H239	H	-0.580996	0.484599	0.344488
H240	H	-0.080996	0.984599	0.844488
O241	O	-1.131055	0.172721	0.799398
O242	O	-0.631055	0.672721	1.299398
C243	C	-1.094426	0.127149	0.838629
C244	C	-0.594426	0.627149	1.338629
H245	H	-1.038051	0.126045	0.814159
H246	H	-0.538051	0.626045	1.314159
H247	H	-1.122124	0.071887	0.838373
H248	H	-0.622124	0.571887	1.338373
H249	H	-1.093484	0.146663	0.895078
H250	H	-0.593484	0.646663	1.395078
O251	O	-0.278094	0.363788	0.316208
O252	O	0.221906	0.863788	0.816208
C253	C	-0.323221	0.403122	0.279807
C254	C	0.176779	0.903122	0.779807
H255	H	-0.376809	0.372194	0.278328
H256	H	0.123191	0.872194	0.778328
H257	H	-0.299275	0.413770	0.223807
H258	H	0.200725	0.913770	0.723807
H259	H	-0.330067	0.455208	0.307849
H260	H	0.169933	0.955208	0.807849
H261	H	-0.746056	0.378564	0.302503
H262	H	-0.246056	0.878564	0.802503
O263	O	-1.096732	0.544642	0.316424
O264	O	-0.596732	1.044642	0.816424
C265	C	-1.133093	0.592840	0.280129
C266	C	-0.633093	1.092840	0.780129
H267	H	-1.134723	0.643905	0.311087
H268	H	-0.634723	1.143905	0.811087
H269	H	-1.189234	0.569559	0.273992
H270	H	-0.689234	1.069559	0.773992
H271	H	-1.104727	0.604030	0.225960
H272	H	-0.604727	1.104030	0.725960
O273	O	-1.091303	0.689400	0.322223
O274	O	-0.591303	1.189400	0.822223
C275	C	-1.136933	0.728210	0.365821
C276	C	-0.636933	1.228210	0.865821
H277	H	-1.144282	0.703523	0.420570
H278	H	-0.644282	1.203523	0.920570
H279	H	-1.190254	0.727709	0.342647
H280	H	-0.690254	1.227709	0.842647
H281	H	-1.113160	0.784778	0.369500
H282	H	-0.613160	1.284778	0.869500
