data_functionalizedCrystal
_audit_creation_method	'MofGen! by Chris Wilmer'
_symmetry_space_group_name_H-M	'P1'
_symmetry_Int_Tables_number	1
_symmetry_cell_setting	triclinic
loop_
_symmetry_equiv_pos_as_xyz
  x,y,z
_cell_length_a	19.288864
_cell_length_b	14.044220
_cell_length_c	17.766277
_cell_angle_alpha	89.993125
_cell_angle_beta	89.976791
_cell_angle_gamma	88.162561
loop_
_atom_site_label
_atom_site_type_symbol
_atom_site_fract_x
_atom_site_fract_y
_atom_site_fract_z
O1	O	0.928949	0.118215	-0.062840
O2	O	0.727713	0.134161	-0.062789
O3	O	0.825310	-0.011784	-0.062806
O4	O	0.831351	0.264160	-0.062822
O5	O	0.825291	-0.011791	0.062383
O6	O	0.727693	0.134154	0.062400
O7	O	0.928929	0.118207	0.062349
Cu8	Cu	0.828310	0.126180	0.073805
Cu9	Cu	0.828332	0.126189	-0.074245
O10	O	0.831332	0.264152	0.062366
C11	C	0.701794	0.133645	-0.000188
C12	C	0.624591	0.132104	-0.000168
C13	C	0.585397	0.217738	-0.000185
C14	C	0.512857	0.216291	-0.000193
C15	C	0.479514	0.129205	-0.000200
C16	C	0.518717	0.043560	-0.000178
C17	C	0.591256	0.045010	-0.000163
C18	C	0.366860	0.060749	-0.044080
C19	C	0.294323	0.059303	-0.044100
C20	C	0.255781	0.124731	-0.000245
C21	C	0.289785	0.191621	0.043621
C22	C	0.362323	0.193071	0.043637
C23	C	0.400858	0.127624	-0.000216
C24	C	0.137930	0.208802	-0.000270
C25	C	0.065389	0.207351	-0.000273
C26	C	0.071251	0.034617	-0.000266
C27	C	0.143790	0.036071	-0.000255
C28	C	0.177126	0.123165	-0.000260
C29	C	0.822656	-0.047091	-0.000211
C30	C	0.814768	-0.152283	-0.000208
C31	C	0.800348	-0.344882	-0.000215
C32	C	0.856291	-0.402755	-0.000231
C33	C	0.848267	-0.509924	-0.000235
C34	C	0.808370	-0.237703	-0.000211
C35	C	0.954848	0.118724	-0.000254
C36	C	1.032051	0.120264	-0.000278
C37	C	0.833986	0.299459	-0.000231
C38	C	0.841874	0.404651	-0.000239
N39	N	0.828299	0.126173	0.177935
N40	N	0.828348	0.126188	-0.178375
C41	C	0.871532	0.061580	0.217315
C42	C	0.871536	0.061576	0.296116
C43	C	0.828314	0.126181	0.335536
C44	C	0.785072	0.190779	0.296147
C45	C	0.785064	0.190775	0.217347
C46	C	0.824563	0.212524	0.460370
C47	C	0.824575	0.212529	0.539169
C48	C	0.828333	0.126192	0.578582
C49	C	0.832093	0.039847	0.539187
C50	C	0.832085	0.039843	0.460387
C51	C	0.828317	0.126192	0.420982
C52	C	0.871573	0.061589	0.703407
C53	C	0.871572	0.061583	0.782211
C54	C	0.785111	0.190794	0.782240
C55	C	0.785109	0.190792	0.703438
C56	C	0.828343	0.126190	0.664027
H57	H	0.612534	0.288658	-0.000191
H58	H	0.746431	-0.375822	-0.000203
N59	N	0.915761	-0.004333	0.177070
N60	N	0.954402	-0.061949	0.212246
H61	H	0.985663	-0.108473	0.183822
N62	N	0.472821	0.303777	-0.000206
N63	N	0.502593	0.381530	-0.000207
H64	H	0.474320	0.443318	-0.000216
H65	H	0.910212	-0.371814	-0.000296
H66	H	0.835153	-0.030457	0.571275
H67	H	0.165073	0.279719	-0.000263
N68	N	0.183831	-0.051404	-0.000262
N69	N	0.224989	-0.069859	-0.053025
H70	H	0.253268	-0.131641	-0.053030
N71	N	0.250436	0.258458	0.088436
N72	N	0.280804	0.318167	0.127601
H73	H	0.253013	0.365371	0.159250
N74	N	0.915701	-0.004417	0.336341
N75	N	0.954296	-0.062093	0.301143
H76	H	0.985489	-0.108701	0.329549
H77	H	0.835145	-0.030462	0.428314
N78	N	0.915643	-0.004521	0.663156
N79	N	0.954175	-0.062276	0.698330
H80	H	0.985265	-0.109011	0.669905
H81	H	0.906775	0.008979	0.814274
H82	H	0.749916	0.243393	0.814335
H83	H	0.749907	0.243393	0.671373
H84	H	0.033478	0.277088	-0.000283
H85	H	0.749878	0.243379	0.328246
N86	N	0.820744	0.300733	0.579395
N87	N	0.817382	0.377812	0.544198
H88	H	0.814677	0.440110	0.572606
N89	N	0.397047	0.261398	0.088445
N90	N	0.362634	0.319817	0.127598
H91	H	0.387157	0.368073	0.159247
N92	N	0.820732	0.300730	0.420127
N93	N	0.817391	0.377814	0.455306
H94	H	0.814689	0.440109	0.426886
N95	N	0.631306	-0.042459	-0.000158
N96	N	0.696071	-0.041152	-0.000150
H97	H	0.724359	-0.102927	-0.000149
H98	H	0.266642	0.004841	-0.079822
N99	N	0.740894	0.256762	0.177130
N100	N	0.702300	0.314437	0.212330
H101	H	0.671104	0.361042	0.183926
H102	H	0.398235	0.007467	-0.079797
N103	N	0.037190	-0.054332	-0.000259
N104	N	-0.027576	-0.055616	-0.000265
H105	H	-0.051636	-0.118439	-0.000255
H106	H	0.491565	-0.027346	-0.000194
