data_functionalizedCrystal
_audit_creation_method	'MofGen! by Chris Wilmer'
_symmetry_space_group_name_H-M	'P1'
_symmetry_Int_Tables_number	1
_symmetry_cell_setting	triclinic
loop_
_symmetry_equiv_pos_as_xyz
  x,y,z
_cell_length_a	20.453700
_cell_length_b	11.452831
_cell_length_c	11.353885
_cell_angle_alpha	92.321061
_cell_angle_beta	72.473086
_cell_angle_gamma	71.303113
loop_
_atom_site_label
_atom_site_type_symbol
_atom_site_fract_x
_atom_site_fract_y
_atom_site_fract_z
V1	V	1.374069	-0.243778	-0.352209
O2	O	1.368227	-0.073342	-0.383226
O3	O	1.358722	-0.401567	-0.313520
O4	O	1.371340	-0.277349	-0.522371
O5	O	1.355523	-0.198419	-0.172930
V6	V	1.533439	-0.218982	-0.335173
O7	O	1.465112	-0.298170	-0.389579
O8	O	1.592462	-0.164590	-0.297803
O9	O	1.474383	-0.061193	-0.373861
O10	O	1.578412	-0.389418	-0.304156
O11	O	1.591117	-0.264341	-0.514452
O12	O	1.461766	-0.185411	-0.165011
V13	V	1.040735	-0.243778	-0.352209
O14	O	1.034894	-0.073342	-0.383226
O15	O	1.025389	-0.401567	-0.313520
O16	O	1.038006	-0.277349	-0.522371
O17	O	1.022189	-0.198419	-0.172930
V18	V	1.200106	-0.218982	-0.335173
O19	O	1.131778	-0.298170	-0.389579
O20	O	1.259128	-0.164590	-0.297803
O21	O	1.141050	-0.061193	-0.373861
O22	O	1.245079	-0.389418	-0.304156
O23	O	1.257784	-0.264341	-0.514452
O24	O	1.128432	-0.185411	-0.165011
C25	C	1.306814	-0.438866	-0.298603
C26	C	1.321451	-0.568101	-0.268105
C27	C	1.364548	-0.798169	-0.327935
C28	C	1.349420	-0.664601	-0.359463
V29	V	1.707402	-0.243778	-0.352209
O30	O	1.701561	-0.073342	-0.383226
O31	O	1.692056	-0.401567	-0.313520
O32	O	1.704673	-0.277349	-0.522371
O33	O	1.688856	-0.198419	-0.172930
V34	V	1.866772	-0.218982	-0.335173
O35	O	1.798445	-0.298170	-0.389579
O36	O	1.925795	-0.164590	-0.297803
O37	O	1.807716	-0.061193	-0.373861
O38	O	1.911746	-0.389418	-0.304156
O39	O	1.924450	-0.264341	-0.514452
O40	O	1.795099	-0.185411	-0.165011
C41	C	1.322908	-0.280413	-0.565011
C42	C	1.347776	-0.308905	-0.703881
C43	C	1.414072	-0.023899	-0.388774
C44	C	1.392515	0.105333	-0.419280
C45	C	1.344132	-0.216662	-0.771924
C46	C	1.369835	-0.246108	-0.915453
C47	C	1.397978	-0.182350	-0.122363
C48	C	1.366189	-0.153851	0.016507
C49	C	0.973480	-0.438866	-0.298603
C50	C	0.988118	-0.568101	-0.268105
C51	C	0.989574	-0.280413	-0.565011
C52	C	1.014443	-0.308905	-0.703881
C53	C	1.080739	-0.023899	-0.388774
C54	C	1.059181	0.105333	-0.419280
C55	C	1.064645	-0.182350	-0.122363
C56	C	1.032855	-0.153851	0.016507
C57	C	1.640147	-0.438866	-0.298603
C58	C	1.654784	-0.568101	-0.268105
C59	C	1.656241	-0.280413	-0.565011
C60	C	1.681109	-0.308905	-0.703881
C61	C	1.747406	-0.023899	-0.388774
C62	C	1.725848	0.105333	-0.419280
C63	C	1.731311	-0.182350	-0.122363
C64	C	1.699522	-0.153851	0.016507
C65	C	1.056234	-0.636054	-0.258663
C66	C	1.070001	-0.757491	-0.230026
C67	C	1.015648	-0.810971	-0.210821
C68	C	0.947527	-0.743010	-0.220268
C69	C	0.933763	-0.621578	-0.248914
C70	C	1.087371	-0.329443	-0.774132
C71	C	1.110745	-0.356199	-0.904617
C72	C	1.061190	-0.362425	-0.964848
C73	C	0.988255	-0.341881	-0.894588
C74	C	0.964881	-0.315117	-0.764106
C75	C	1.106061	0.173284	-0.428724
C76	C	1.085810	0.294719	-0.457368
C77	C	1.018680	0.348198	-0.476575
C78	C	0.971796	0.280239	-0.467125
C79	C	0.992046	0.158810	-0.438473
C80	C	0.960926	-0.147618	0.076703
C81	C	0.931044	-0.120827	0.207184
C82	C	0.973096	-0.100277	0.277468
C83	C	1.045032	-0.106508	0.217263
C84	C	1.074910	-0.133290	0.086784
C85	C	1.722901	-0.636054	-0.258663
C86	C	1.736667	-0.757491	-0.230026
C87	C	1.682315	-0.810971	-0.210821
C88	C	1.614194	-0.743010	-0.220268
C89	C	1.600430	-0.621578	-0.248914
C90	C	1.754038	-0.329443	-0.774132
C91	C	1.777412	-0.356199	-0.904617
C92	C	1.727857	-0.362425	-0.964848
C93	C	1.654922	-0.341881	-0.894588
C94	C	1.631548	-0.315117	-0.764106
C95	C	1.772728	0.173284	-0.428724
C96	C	1.752476	0.294719	-0.457368
C97	C	1.685347	0.348198	-0.476575
C98	C	1.638463	0.280239	-0.467125
C99	C	1.658713	0.158810	-0.438473
C100	C	1.627592	-0.147618	0.076703
C101	C	1.597711	-0.120827	0.207184
C102	C	1.639763	-0.100277	0.277468
C103	C	1.711698	-0.106508	0.217263
C104	C	1.741577	-0.133290	0.086784
H105	H	1.351801	-0.814438	-0.226389
H106	H	1.391979	-0.346886	-0.963453
H107	H	1.745930	-0.089769	0.274508
C108	C	0.933796	-0.349055	-0.960829
H109	H	0.887023	-0.333080	-0.900305
H110	H	0.950399	-0.429932	-1.007281
H111	H	0.930374	-0.288652	-1.015752
C112	C	1.581325	-0.170213	-0.000588
H113	H	1.609414	-0.187067	-0.086923
H114	H	1.538951	-0.098113	0.014604
H115	H	1.567073	-0.239414	0.022866
C116	C	1.144931	-0.832219	-0.219623
H117	H	1.175321	-0.782962	-0.235142
H118	H	1.167290	-0.906058	-0.279299
H119	H	1.138407	-0.853718	-0.137992
C120	C	0.851922	-0.113996	0.273386
H121	H	0.831166	-0.130094	0.212835
H122	H	0.823824	-0.033203	0.319944
H123	H	0.851967	-0.174502	0.328208
H124	H	1.746899	-0.384220	-1.071096
H125	H	1.362162	-0.648339	-0.461015
C126	C	1.304239	-0.590057	-0.130917
H127	H	1.316672	-0.676949	-0.127721
H128	H	1.253543	-0.548751	-0.087067
H129	H	1.331902	-0.558032	-0.093335
C130	C	1.336285	-0.017708	-0.918663
H131	H	1.322943	-0.015775	-0.830701
H132	H	1.294552	0.027921	-0.939416
H133	H	1.372926	0.018713	-0.945865
C134	C	1.564624	0.339071	-0.488256
H135	H	1.539595	0.281221	-0.478520
H136	H	1.572943	0.359972	-0.570284
H137	H	1.535774	0.412312	-0.428979
C138	C	1.525495	-0.546835	-0.259276
H139	H	1.495099	-0.596081	-0.243720
H140	H	1.531999	-0.525318	-0.340891
H141	H	1.503148	-0.473002	-0.199582
H142	H	1.794398	-0.324381	-0.725110
C143	C	0.940478	0.084068	-0.428107
H144	H	0.897604	0.133313	-0.443665
H145	H	0.927418	0.062556	-0.346490
H146	H	0.964594	0.010232	-0.487798
C147	C	1.607144	0.084068	-0.428107
H148	H	1.564271	0.133313	-0.443665
H149	H	1.594085	0.062556	-0.346490
H150	H	1.631260	0.010232	-0.487798
C151	C	1.551330	-0.292558	-0.686835
H152	H	1.544498	-0.275723	-0.600496
H153	H	1.539928	-0.364661	-0.702054
H154	H	1.520073	-0.223352	-0.710278
H155	H	1.080233	-0.384220	-1.071096
C156	C	1.804058	0.369447	-0.467770
H157	H	1.846941	0.320191	-0.452248
H158	H	1.779956	0.443287	-0.408097
H159	H	1.817110	0.390944	-0.549402
H160	H	1.539137	-0.115758	0.256184
H161	H	0.905496	-0.298399	-0.706916
C162	C	1.091283	-0.083915	0.294587
H163	H	1.063183	-0.067089	0.380916
H164	H	1.105541	-0.014720	0.271158
H165	H	1.133656	-0.156024	0.279409
H166	H	0.903278	-0.786572	-0.204628
H167	H	0.948761	-0.078485	0.383713
C168	C	1.820704	-0.140165	0.020583
H169	H	1.841466	-0.124104	0.081138
H170	H	1.820681	-0.079677	-0.034247
H171	H	1.848790	-0.220974	-0.025963
C172	C	1.782695	-0.577245	-0.279790
H173	H	1.764749	-0.495187	-0.298195
H174	H	1.824540	-0.626296	-0.347750
H175	H	1.795679	-0.573960	-0.206445
H176	H	1.170135	-0.372927	-0.961805
C177	C	1.030796	-0.944543	-0.179308
H178	H	1.079149	-0.977342	-0.176427
H179	H	1.025728	-0.995514	-0.241669
H180	H	0.996863	-0.943171	-0.100365
H181	H	1.405255	-0.878398	-0.520824
H182	H	1.321981	-0.115889	-0.723918
C183	C	1.377696	-0.445044	-0.768714
H184	H	1.376645	-0.499098	-0.707412
H185	H	1.426627	-0.464596	-0.822575
H186	H	1.348261	-0.455434	-0.816136
C187	C	1.179902	0.114476	-0.407595
H188	H	1.185260	0.032419	-0.389187
H189	H	1.181418	0.163529	-0.339638
H190	H	1.218589	0.111187	-0.480942
C191	C	1.137391	0.369447	-0.467770
H192	H	1.180274	0.320191	-0.452248
H193	H	1.113289	0.443287	-0.408097
H194	H	1.150443	0.390944	-0.549402
C195	C	1.811598	-0.832219	-0.219623
H196	H	1.841987	-0.782962	-0.235142
H197	H	1.833956	-0.906058	-0.279299
H198	H	1.805073	-0.853718	-0.137992
C199	C	1.154038	-0.140165	0.020583
H200	H	1.174800	-0.124104	0.081138
H201	H	1.154014	-0.079677	-0.034247
H202	H	1.182123	-0.220974	-0.025963
C203	C	1.663083	0.481765	-0.508102
H204	H	1.700626	0.514562	-0.510987
H205	H	1.618867	0.532744	-0.445746
H206	H	1.656039	0.480384	-0.587046
H207	H	0.878294	-0.566258	-0.256593
H208	H	1.693532	-0.909849	-0.187497
C209	C	1.554411	-0.801845	-0.199130
H210	H	1.572369	-0.883891	-0.180703
H211	H	1.541419	-0.805145	-0.272459
H212	H	1.512565	-0.752801	-0.131156
H213	H	1.100498	-0.592525	-0.274289
H214	H	1.127732	-0.324381	-0.725110
H215	H	1.002200	0.447075	-0.499904
H216	H	0.917138	0.323801	-0.482766
H217	H	0.926674	-0.164347	0.019494
H218	H	1.836802	-0.372927	-0.961805
H219	H	1.614580	-0.346956	-0.943648
H220	H	1.615428	-0.078485	0.383713
H221	H	1.827391	0.129758	-0.413090
