data_functionalizedCrystal
_audit_creation_method	'MofGen! by Chris Wilmer'
_symmetry_space_group_name_H-M	'P1'
_symmetry_Int_Tables_number	1
_symmetry_cell_setting	triclinic
loop_
_symmetry_equiv_pos_as_xyz
  x,y,z
_cell_length_a	14.519709
_cell_length_b	13.339070
_cell_length_c	12.996460
_cell_angle_alpha	90.002942
_cell_angle_beta	89.999398
_cell_angle_gamma	99.654720
loop_
_atom_site_label
_atom_site_type_symbol
_atom_site_fract_x
_atom_site_fract_y
_atom_site_fract_z
O1	O	-1.257617	-0.132664	0.085426
O2	O	-0.924284	0.200670	0.418759
O3	O	-0.590951	0.534003	0.752092
O4	O	-0.993115	-0.148288	0.085456
O5	O	-0.659781	0.185046	0.418790
O6	O	-0.326448	0.518379	0.752123
O7	O	-1.095010	0.006843	0.085441
O8	O	-0.761676	0.340176	0.418775
O9	O	-0.428343	0.673509	0.752108
O10	O	-1.155722	-0.287794	0.085440
O11	O	-0.822389	0.045539	0.418774
O12	O	-0.489056	0.378873	0.752107
O13	O	-1.094994	0.006834	-0.085692
O14	O	-0.761660	0.340167	0.247641
O15	O	-0.428327	0.673500	0.580974
O16	O	-0.993099	-0.148297	-0.085678
O17	O	-0.659765	0.185037	0.247656
O18	O	-0.326432	0.518370	0.580989
O19	O	-1.257601	-0.132673	-0.085708
O20	O	-0.924268	0.200661	0.247625
O21	O	-0.590935	0.533994	0.580958
Cu22	Cu	-1.125349	-0.140485	-0.101319
Cu23	Cu	-0.792015	0.192848	0.232015
Cu24	Cu	-0.458682	0.526181	0.565348
Cu25	Cu	-1.125367	-0.140475	0.101067
Cu26	Cu	-0.792034	0.192859	0.434400
Cu27	Cu	-0.458701	0.526192	0.767733
O28	O	-1.155706	-0.287803	-0.085693
O29	O	-0.822373	0.045530	0.247640
O30	O	-0.489040	0.378864	0.580973
C31	C	-1.084746	0.044546	-0.000123
C32	C	-0.751413	0.377879	0.333210
C33	C	-0.418079	0.711213	0.666544
C34	C	-1.054177	0.156903	-0.000115
C35	C	-0.720843	0.490237	0.333218
C36	C	-0.387510	0.823570	0.666551
C37	C	-0.958562	-0.147564	-0.000107
C38	C	-0.625228	0.185769	0.333227
C39	C	-0.291895	0.519103	0.666560
C40	C	-0.855625	-0.145382	-0.000095
C41	C	-0.522292	0.187951	0.333239
C42	C	-0.188959	0.521285	0.666572
C43	C	-1.292154	-0.133396	-0.000143
C44	C	-0.958821	0.199937	0.333190
C45	C	-0.625488	0.533270	0.666524
C46	C	-1.395091	-0.135578	-0.000148
C47	C	-1.061757	0.197755	0.333185
C48	C	-0.728424	0.531088	0.666518
C49	C	-0.478686	-0.137349	-0.000141
C50	C	-0.145353	0.195984	0.333192
C51	C	0.187980	0.529317	0.666525
C52	C	-0.583562	-0.139580	-0.000128
C53	C	-0.250228	0.193753	0.333205
C54	C	0.083105	0.527087	0.666539
C55	C	-0.667153	-0.141365	-0.000117
C56	C	-0.333819	0.191968	0.333216
C57	C	-0.000486	0.525301	0.666550
C58	C	-0.772035	-0.143597	-0.000106
C59	C	-0.438701	0.189737	0.333228
C60	C	-0.105368	0.523070	0.666561
C61	C	-1.165970	-0.325506	-0.000127
C62	C	-0.832637	0.007827	0.333207
C63	C	-0.499303	0.341160	0.666540
C64	C	-1.196539	-0.437863	-0.000128
C65	C	-0.863206	-0.104530	0.333206
C66	C	-0.529873	0.228803	0.666539
N67	N	-1.125342	-0.140492	-0.243666
N68	N	-0.792009	0.192841	0.089667
N69	N	-0.458675	0.526174	0.423001
C70	C	-1.291868	0.521266	-0.000143
C71	C	-0.958535	0.854599	0.333190
C72	C	-0.625201	1.187933	0.666523
C73	C	-1.320592	0.415701	-0.000156
C74	C	-0.987259	0.749035	0.333177
C75	C	-0.653926	1.082368	0.666510
C76	C	-1.253991	0.350997	-0.000146
C77	C	-0.920658	0.684330	0.333188
C78	C	-0.587324	1.017663	0.666521
C79	C	-1.158660	0.391867	-0.000123
C80	C	-0.825327	0.725200	0.333211
C81	C	-0.491994	1.058534	0.666544
C82	C	-1.129933	0.497442	-0.000118
C83	C	-0.796600	0.830775	0.333215
C84	C	-0.463266	1.164109	0.666549
C85	C	-1.092056	0.327173	-0.000120
C86	C	-0.758723	0.660506	0.333213
C87	C	-0.425389	0.993839	0.666546
C88	C	-0.996725	0.368043	-0.000097
C89	C	-0.663392	0.701376	0.333236
C90	C	-0.330058	1.034710	0.666569
C91	C	-0.968003	0.473608	-0.000092
C92	C	-0.634669	0.806941	0.333242
C93	C	-0.301336	1.140275	0.666575
C94	C	-1.034604	0.538312	-0.000102
C95	C	-0.701271	0.871646	0.333231
C96	C	-0.367938	1.204979	0.666564
C97	C	-1.120783	0.221598	-0.000125
C98	C	-0.787450	0.554931	0.333208
C99	C	-0.454116	0.888264	0.666542
C100	C	-0.958848	0.197774	-0.000100
C101	C	-0.625515	0.531107	0.333234
C102	C	-0.292181	0.864440	0.666567
C103	C	-0.930124	0.303338	-0.000087
C104	C	-0.596790	0.636672	0.333247
C105	C	-0.263457	0.970005	0.666580
C106	C	-1.125347	-0.140495	-0.336772
C107	C	-0.792013	0.192839	-0.003438
C108	C	-0.458680	0.526172	0.329895
C109	C	-1.125354	-0.140488	-0.453577
C110	C	-0.792020	0.192845	-0.120244
C111	C	-0.458687	0.526179	0.213090
C112	C	-1.125362	-0.140477	-0.546675
C113	C	-0.792029	0.192856	-0.213342
C114	C	-0.458696	0.526190	0.119991
C115	C	-1.125371	-0.140471	-0.663488
C116	C	-0.792037	0.192862	-0.330154
C117	C	-0.458704	0.526196	0.003179
N118	N	-1.125379	-0.140460	0.243414
N119	N	-0.792046	0.192873	0.576747
N120	N	-0.458713	0.526207	0.910081
H121	H	-1.198402	0.188332	-0.000144
H122	H	-0.865068	0.521665	0.333189
H123	H	-0.531735	0.854999	0.666522
H124	H	-0.890378	0.506880	-0.000081
H125	H	-0.557045	0.840214	0.333253
H126	H	-0.223712	1.173547	0.666586
H127	H	-1.346085	0.573957	-0.000160
H128	H	-1.012751	0.907290	0.333173
H129	H	-0.679418	1.240624	0.666506
H130	H	-0.904615	0.145091	-0.000096
H131	H	-0.571282	0.478424	0.333237
H132	H	-0.237948	0.811757	0.666571
H133	H	-0.852504	0.336630	-0.000069
H134	H	-0.519170	0.669963	0.333265
H135	H	-0.185837	1.003297	0.666598
Br136	Br	-1.292975	0.207728	-0.000160
Br137	Br	-0.959642	0.541061	0.333173
Br138	Br	-0.626309	0.874395	0.666507
Br139	Br	-1.449964	0.360241	-0.000166
Br140	Br	-1.116630	0.693574	0.333168
Br141	Br	-0.783297	1.026908	0.666501
Br142	Br	-0.995624	0.681586	0.000055
Br143	Br	-0.662290	1.014919	0.333388
Br144	Br	-0.328957	1.348252	0.666721
