data_functionalizedCrystal
_audit_creation_method	'MofGen! by Chris Wilmer'
_symmetry_space_group_name_H-M	'P1'
_symmetry_Int_Tables_number	1
_symmetry_cell_setting	triclinic
loop_
_symmetry_equiv_pos_as_xyz
  x,y,z
_cell_length_a	30.700809
_cell_length_b	30.711276
_cell_length_c	30.700862
_cell_angle_alpha	59.998386
_cell_angle_beta	89.999414
_cell_angle_gamma	60.000191
loop_
_atom_site_label
_atom_site_type_symbol
_atom_site_fract_x
_atom_site_fract_y
_atom_site_fract_z
O1	O	-0.371254	-0.311651	0.012944
O2	O	-0.307913	-0.222487	-0.012907
O3	O	-0.307911	-0.311650	0.076286
O4	O	-0.371257	-0.222488	-0.076249
O5	O	-0.235466	-0.384070	0.076286
O6	O	-0.235468	-0.294907	-0.012907
O7	O	-0.298809	-0.384071	0.012944
Zn8	Zn	-0.255636	-0.350987	0.000018
Zn9	Zn	-0.351086	-0.255571	0.000019
O10	O	-0.298812	-0.294908	-0.076249
C11	C	-0.234796	-0.137097	-0.018777
C12	C	-0.261674	-0.083360	-0.015076
C13	C	-0.182374	-0.163176	-0.019143
C14	C	-0.234798	-0.215942	-0.018783
C15	C	-0.261678	-0.246507	-0.015089
C16	C	-0.182376	-0.241901	-0.019150
C17	C	-0.155920	-0.215947	-0.018777
C18	C	-0.098463	-0.246515	-0.015075
C19	C	-0.261132	-0.163172	-0.019150
C20	C	-0.574961	-0.535511	0.039265
C21	C	-0.548506	-0.588283	0.039634
C22	C	-0.496086	-0.535509	0.039262
C23	C	-0.469751	-0.588281	0.039632
C24	C	-0.496085	-0.614360	0.039265
C25	C	-0.548507	-0.509552	0.039632
C26	C	-0.765169	-0.393516	0.024987
C27	C	-0.819034	-0.364488	0.020950
C28	C	-0.846055	-0.389406	0.018925
C29	C	-0.904462	-0.357927	0.014538
C30	C	-0.819206	-0.443357	0.020941
C31	C	-0.765344	-0.472385	0.024984
C32	C	-0.738325	-0.447463	0.027007
C33	C	-0.447920	-0.790230	0.024988
C34	C	-0.423094	-0.840041	0.020951
C35	C	-0.371150	-0.865027	0.018921
C36	C	-0.344230	-0.919028	0.014536
C37	C	-0.344030	-0.840201	0.020935
C38	C	-0.368852	-0.790399	0.024981
C39	C	-0.420803	-0.765414	0.027004
C40	C	-0.447922	-0.393510	0.024977
C41	C	-0.423099	-0.364475	0.020931
C42	C	-0.371152	-0.389391	0.018903
C43	C	-0.344235	-0.357911	0.014513
C44	C	-0.344034	-0.443338	0.020916
C45	C	-0.368860	-0.472368	0.024960
C46	C	-0.420804	-0.447452	0.026995
C47	C	-0.679920	-0.478941	0.031387
C48	C	-0.633366	-0.504032	0.034880
C49	C	-0.469171	-0.504029	0.034875
C50	C	-0.447717	-0.478936	0.031380
C51	C	-0.469170	-0.668361	0.034880
C52	C	-0.447716	-0.711408	0.031386
C53	C	-0.496432	-0.071057	-0.503890
C54	C	-0.548853	-0.018285	-0.530226
C55	C	-0.496432	-0.071056	-0.425015
C56	C	-0.548854	-0.018284	-0.451470
C57	C	-0.575308	0.007793	-0.503892
C58	C	-0.470097	-0.097014	-0.451469
C59	C	-0.368666	-0.213054	-0.552051
C60	C	-0.343664	-0.242084	-0.576877
C61	C	-0.370616	-0.217167	-0.628824
C62	C	-0.343513	-0.248647	-0.655741
C63	C	-0.422570	-0.163216	-0.655945
C64	C	-0.447565	-0.134187	-0.631122
C65	C	-0.420611	-0.159108	-0.579173
C66	C	-0.765518	0.183662	-0.631659
C67	C	-0.819384	0.233473	-0.656662
C68	C	-0.846408	0.258459	-0.629712
C69	C	-0.904813	0.312461	-0.656813
C70	C	-0.819559	0.233635	-0.577758
C71	C	-0.765694	0.183833	-0.552761
C72	C	-0.738677	0.158847	-0.579717
C73	C	-0.368668	-0.213052	-0.234803
C74	C	-0.343669	-0.242086	-0.180935
C75	C	-0.370621	-0.217169	-0.153914
C76	C	-0.343519	-0.248648	-0.095506
C77	C	-0.422573	-0.163222	-0.180762
C78	C	-0.447570	-0.134193	-0.234627
C79	C	-0.420610	-0.159111	-0.261646
C80	C	-0.447720	-0.127629	-0.552258
C81	C	-0.469327	-0.102536	-0.530805
C82	C	-0.469328	-0.102535	-0.366609
C83	C	-0.447721	-0.127627	-0.320054
C84	C	-0.633714	0.061794	-0.530997
C85	C	-0.680269	0.104841	-0.552605
O86	O	0.076277	-0.384081	0.012960
O87	O	-0.076257	-0.294916	-0.012894
O88	O	0.012931	-0.384083	0.076300
O89	O	-0.012910	-0.294914	-0.076234
O90	O	0.012933	-0.311666	0.076306
O91	O	-0.076254	-0.222499	-0.012888
O92	O	0.076280	-0.311664	0.012966
Zn93	Zn	0.000013	-0.255584	0.000040
Zn94	Zn	0.000010	-0.350996	0.000032
O95	O	-0.012908	-0.222497	-0.076228
O96	O	-0.298805	0.063292	0.012964
O97	O	-0.235462	-0.063346	-0.012888
O98	O	-0.235465	-0.063353	0.076305
O99	O	-0.298803	0.063300	-0.076229
O100	O	-0.307912	-0.063350	0.076299
O101	O	-0.307909	-0.063342	-0.012895
O102	O	-0.371252	0.063295	0.012958
Zn103	Zn	-0.351083	-0.000023	0.000031
Zn104	Zn	-0.255631	-0.000027	0.000039
O105	O	-0.371250	0.063303	-0.076236
O106	O	-1.076607	0.456783	-0.692421
O107	O	-0.924074	0.330140	-0.629074
O108	O	-1.013262	0.330138	-0.629073
O109	O	-0.987418	0.456785	-0.692422
O110	O	-1.013261	0.330136	-0.701518
O111	O	-0.924072	0.330138	-0.701518
O112	O	-1.076605	0.456781	-0.764865
Zn113	Zn	-1.000338	0.393459	-0.744694
Zn114	Zn	-1.000340	0.393461	-0.649245
O115	O	-0.987417	0.456783	-0.764866
O116	O	-0.307911	-0.311650	-0.764507
O117	O	-0.371254	-0.222491	-0.701165
O118	O	-0.371252	-0.311652	-0.701162
O119	O	-0.307912	-0.222489	-0.764510
O120	O	-0.298806	-0.384074	-0.628716
O121	O	-0.298807	-0.294912	-0.628719
O122	O	-0.235464	-0.384072	-0.692061
Zn123	Zn	-0.255634	-0.350991	-0.648887
Zn124	Zn	-0.351085	-0.255572	-0.744338
O125	O	-0.235466	-0.294910	-0.692064
C126	C	-0.155920	-0.469469	0.234827
C127	C	-0.098464	-0.523208	0.261706
C128	C	-0.182375	-0.443392	0.261162
C129	C	-0.234797	-0.390619	0.155950
C130	C	-0.261676	-0.360052	0.098494
C131	C	-0.261132	-0.364662	0.182405
C132	C	-0.234797	-0.390620	0.234826
C133	C	-0.261675	-0.360052	0.261704
C134	C	-0.182375	-0.443391	0.182406
C135	C	0.018810	-0.390643	0.234846
C136	C	0.015111	-0.360079	0.261727
C137	C	0.019176	-0.443414	0.261179
C138	C	0.018812	-0.390637	0.155967
C139	C	0.015115	-0.360067	0.098511
C140	C	0.019178	-0.443408	0.182420
C141	C	0.018807	-0.469488	0.234841
C142	C	0.015106	-0.523226	0.261717
C143	C	0.019180	-0.364683	0.182425
C144	C	-0.234799	-0.215977	0.234834
C145	C	-0.261678	-0.246545	0.261708
C146	C	-0.182376	-0.241940	0.261172
C147	C	-0.234798	-0.137119	0.155964
C148	C	-0.261676	-0.083372	0.098509
C149	C	-0.182375	-0.163202	0.182421
C150	C	-0.155921	-0.215981	0.234841
C151	C	-0.098464	-0.246554	0.261721
C152	C	-0.261134	-0.163198	0.182415
C153	C	-0.039199	0.007461	-0.503869
C154	C	-0.039568	-0.018614	-0.530207
C155	C	-0.039203	-0.071390	-0.424995
C156	C	-0.039572	-0.097344	-0.451452
C157	C	-0.039201	-0.071385	-0.503874
C158	C	-0.039570	-0.018618	-0.451448
C159	C	-0.024912	0.183325	-0.552025
C160	C	-0.020873	0.233135	-0.576849
C161	C	-0.018844	0.258123	-0.628796
C162	C	-0.014454	0.312124	-0.655711
C163	C	-0.020859	0.233301	-0.655918
C164	C	-0.024906	0.183500	-0.631097
C165	C	-0.026932	0.158512	-0.579148
C166	C	-0.024920	-0.133799	-0.631644
C167	C	-0.020882	-0.162650	-0.656647
C168	C	-0.018855	-0.216605	-0.629699
C169	C	-0.014470	-0.247897	-0.656801
C170	C	-0.020872	-0.241704	-0.577746
C171	C	-0.024919	-0.212847	-0.552747
C172	C	-0.026939	-0.158893	-0.579702
C173	C	-0.024929	-0.133823	-0.234783
C174	C	-0.020887	-0.162684	-0.180915
C175	C	-0.018862	-0.216639	-0.153896
C176	C	-0.014477	-0.247936	-0.095488
C177	C	-0.020875	-0.241733	-0.180745
C178	C	-0.024915	-0.212872	-0.234610
C179	C	-0.026947	-0.158912	-0.261627
C180	C	-0.031316	0.104507	-0.552235
C181	C	-0.034811	0.061462	-0.530782
C182	C	-0.034820	-0.102682	-0.366590
C183	C	-0.031328	-0.127624	-0.320035
C184	C	-0.034816	-0.102672	-0.530980
C185	C	-0.031322	-0.127610	-0.552588
O186	O	-0.012940	-0.294936	0.371303
O187	O	0.012923	-0.384099	0.307961
O188	O	-0.076273	-0.294935	0.307950
O189	O	0.076257	-0.384100	0.371315
O190	O	-0.076265	-0.222515	0.235508
O191	O	0.012932	-0.311679	0.235520
O192	O	-0.012931	-0.222517	0.298862
Zn193	Zn	0.000002	-0.255600	0.255689
Zn194	Zn	-0.000010	-0.351016	0.351134
O195	O	0.076266	-0.311681	0.298873
C196	C	-0.574962	0.464558	-0.503864
C197	C	-0.548506	0.490518	-0.530195
C198	C	-0.496085	0.385697	-0.424987
C199	C	-0.469749	0.411776	-0.451438
C200	C	-0.496084	0.464555	-0.503857
C201	C	-0.548507	0.411779	-0.451444
C202	C	-0.765173	0.526994	-0.552039
C203	C	-0.819039	0.555852	-0.576867
C204	C	-0.846061	0.609814	-0.628812
C205	C	-0.904469	0.641114	-0.655732
C206	C	-0.819211	0.634913	-0.655928
C207	C	-0.765348	0.606050	-0.631102
C208	C	-0.738329	0.552088	-0.579155
C209	C	-0.447916	0.606561	-0.631604
C210	C	-0.423088	0.635592	-0.656601
C211	C	-0.371143	0.610674	-0.629648
C212	C	-0.344222	0.642150	-0.656742
C213	C	-0.344023	0.556716	-0.577696
C214	C	-0.368845	0.527681	-0.552704
C215	C	-0.420798	0.552613	-0.579664
C216	C	-0.447920	0.209802	-0.234786
C217	C	-0.423096	0.159988	-0.180919
C218	C	-0.371148	0.134996	-0.153895
C219	C	-0.344230	0.080987	-0.095489
C220	C	-0.344029	0.159823	-0.180737
C221	C	-0.368856	0.209637	-0.234602
C222	C	-0.420801	0.234620	-0.261624
C223	C	-0.679923	0.520797	-0.552238
C224	C	-0.633367	0.495853	-0.530781
C225	C	-0.469169	0.331687	-0.366583
C226	C	-0.447714	0.288634	-0.320030
C227	C	-0.469167	0.496035	-0.530956
C228	C	-0.447712	0.521128	-0.552558
H229	H	-0.161137	-0.141349	-0.019737
H230	H	-0.490220	-0.373215	0.026628
C231	C	-0.108042	-0.473153	0.322307
C232	C	-0.153716	-0.472846	0.319308
H233	H	-0.090357	-0.491331	0.358203
H234	H	-0.084765	-0.496258	0.310354
H235	H	-0.118033	-0.432077	0.300404
H236	H	-0.143725	-0.513923	0.341209
H237	H	-0.176998	-0.449742	0.331268
H238	H	0.019760	-0.465234	0.304248
C239	C	-0.351546	-0.073167	-0.065809
C240	C	-0.319280	-0.133710	-0.019960
H241	H	-0.387443	-0.054983	-0.066311
H242	H	-0.339584	-0.050075	-0.065631
H243	H	-0.349501	-0.073386	-0.096581
H244	H	-0.321322	-0.133491	0.010812
H245	H	-0.331245	-0.156808	-0.020133
C246	C	-0.523576	-0.795084	0.024607
C247	C	-0.505018	-0.762775	0.027222
H248	H	-0.558824	-0.778134	0.025989
H249	H	-0.523594	-0.791836	-0.007828
H250	H	-0.500900	-0.837194	0.053893
H251	H	-0.527692	-0.720666	-0.002066
H252	H	-0.505004	-0.766017	0.059661
C253	C	-0.393970	-0.583703	0.040688
C254	C	-0.411602	-0.617755	0.040446
H255	H	-0.358070	-0.601905	0.041198
H256	H	-0.415857	-0.542640	0.009579
H257	H	-0.396016	-0.583479	0.071457
H258	H	-0.409560	-0.617975	0.009674
H259	H	-0.389708	-0.658829	0.071558
H260	H	-0.743523	0.163324	-0.653612
C261	C	-0.367631	-0.701048	-0.015989
C262	C	-0.339045	-0.763108	0.027185
H263	H	-0.349230	-0.684198	-0.014630
H264	H	-0.370931	-0.697808	-0.048417
H265	H	-0.402118	-0.679047	-0.014195
H266	H	-0.304559	-0.785110	0.025388
H267	H	-0.335739	-0.766352	0.059620
H268	H	-0.444519	-0.142934	-0.158758
C269	C	-0.456955	-0.178875	-0.713007
C270	C	-0.452196	-0.135829	-0.713042
H271	H	-0.475251	-0.161963	-0.748257
H272	H	-0.422442	-0.215150	-0.700413
H273	H	-0.476409	-0.188695	-0.690333
H274	H	-0.432739	-0.126012	-0.735713
H275	H	-0.486716	-0.099543	-0.725643
C276	C	-0.847989	-0.472881	-0.025800
C277	C	-0.848905	-0.470746	0.018716
H278	H	-0.866321	-0.489795	-0.027171
H279	H	-0.864958	-0.432413	-0.057316
H280	H	-0.812065	-0.497890	-0.023099
H281	H	-0.884830	-0.445733	0.016012
H282	H	-0.831938	-0.511221	0.050240
H283	H	-0.304201	-0.322192	0.161160
H284	H	-0.161128	-0.465208	0.161163
H285	H	-0.426677	0.389946	-0.430194
H286	H	-0.569747	-0.610106	0.040228
H287	H	-0.569749	-0.467085	0.040220
H288	H	-0.304205	-0.141373	0.161175
C289	C	-0.025398	-0.473166	0.151067
C290	C	0.019969	-0.472859	0.153739
H291	H	-0.024913	-0.491341	0.133357
H292	H	-0.025553	-0.496273	0.186138
H293	H	-0.056497	-0.432091	0.131886
H294	H	0.051068	-0.513935	0.172924
H295	H	0.020128	-0.449752	0.118662
H296	H	0.019773	-0.322218	0.161189
H297	H	-0.161136	-0.141377	0.161182
C298	C	-0.040643	-0.172038	-0.371097
C299	C	-0.040395	-0.154654	-0.422792
H300	H	-0.041160	-0.207411	-0.353409
H301	H	-0.009533	-0.181264	-0.351903
H302	H	-0.071410	-0.139230	-0.372921
H303	H	-0.009626	-0.187460	-0.420968
H304	H	-0.071508	-0.145431	-0.441991
H305	H	-0.161141	-0.284407	0.304244
H306	H	-0.040160	0.003216	-0.573279
C307	C	-0.770399	-0.312668	0.024631
C308	C	-0.735465	-0.366138	0.027239
H309	H	-0.752056	-0.295774	0.026031
H310	H	-0.799580	-0.283463	-0.007809
H311	H	-0.783245	-0.322506	0.053911
H312	H	-0.722622	-0.356299	-0.002043
H313	H	-0.706274	-0.395349	0.059684
C314	C	-0.503742	-0.289441	0.021355
C315	C	-0.452908	-0.305177	0.018716
H316	H	-0.522142	-0.252836	0.019992
H317	H	-0.523124	-0.282892	-0.007926
H318	H	-0.500432	-0.321922	0.053795
H319	H	-0.456217	-0.272698	-0.013726
H320	H	-0.433521	-0.311723	0.048000
C321	C	0.004991	-0.031839	-0.377092
C322	C	-0.040370	0.010842	-0.422775
H323	H	0.004497	-0.013649	-0.359394
H324	H	0.005145	-0.067053	-0.353828
H325	H	0.036094	-0.043751	-0.387076
H326	H	-0.071473	0.022751	-0.412790
H327	H	-0.040529	0.046067	-0.446043
H328	H	-0.019235	-0.142256	-0.159055
H329	H	-0.445183	0.139782	-0.159066
H330	H	-0.026581	-0.089888	-0.256777
C331	C	-0.024529	0.188171	-0.476365
C332	C	-0.027146	0.155865	-0.494926
H333	H	-0.025910	0.171218	-0.441116
H334	H	0.007907	0.184923	-0.476347
H335	H	-0.053813	0.230281	-0.499041
H336	H	0.002141	0.113756	-0.472253
H337	H	-0.059585	0.159108	-0.494940
C338	C	-0.061818	0.322474	-0.575611
C339	C	-0.018653	0.260412	-0.547035
H340	H	-0.060448	0.339311	-0.557201
H341	H	-0.060029	0.344479	-0.610095
H342	H	-0.094253	0.325721	-0.578908
H343	H	0.013783	0.257166	-0.543741
H344	H	-0.020437	0.238401	-0.512541
H345	H	-0.840896	0.535415	-0.554785
H346	H	-0.840890	-0.320560	0.019306
H347	H	-0.490217	0.230142	-0.256784
C348	C	-0.270858	0.083388	-0.098090
C349	C	-0.286926	0.132355	-0.151035
H350	H	-0.235606	0.066430	-0.079756
H351	H	-0.294370	0.097931	-0.081122
H352	H	-0.271693	0.052588	-0.097485
H353	H	-0.286095	0.163157	-0.151640
H354	H	-0.263407	0.117812	-0.168007
H355	H	-0.569753	0.389964	-0.430206
C356	C	-0.014643	0.309716	-0.729073
C357	C	-0.018624	0.260763	-0.713013
H358	H	-0.013258	0.326664	-0.764321
H359	H	-0.044842	0.340521	-0.728247
H360	H	0.016877	0.295157	-0.705548
H361	H	-0.050146	0.275323	-0.736537
H362	H	0.011579	0.229952	-0.713844
H363	H	-0.026547	0.163294	-0.653183
H364	H	-0.743179	0.483055	-0.509743
H365	H	-0.743487	-0.516312	0.026628
C366	C	-0.024531	-0.058550	-0.712152
C367	C	-0.027149	-0.074488	-0.661274
H368	H	-0.025910	-0.021933	-0.730443
H369	H	0.007904	-0.090958	-0.708920
H370	H	-0.053816	-0.051940	-0.731602
H371	H	0.002139	-0.081103	-0.641823
H372	H	-0.059588	-0.042073	-0.664504
C373	C	0.029161	-0.178025	-0.713796
C374	C	-0.018656	-0.135073	-0.713747
H375	H	0.030534	-0.161001	-0.749048
H376	H	0.058436	-0.187918	-0.691061
H377	H	0.030937	-0.214283	-0.701320
H378	H	-0.020429	-0.098817	-0.726220
H379	H	-0.047939	-0.125172	-0.736490
H380	H	-0.841216	0.678847	-0.698222
H381	H	-0.301364	-0.286010	-0.554791
H382	H	-0.161139	-0.284365	-0.019743
C383	C	-0.014671	-0.321039	-0.581032
C384	C	-0.018648	-0.301008	-0.548121
H385	H	-0.013293	-0.357655	-0.562740
H386	H	-0.044869	-0.290018	-0.612677
H387	H	0.016851	-0.329038	-0.589991
H388	H	-0.050173	-0.293005	-0.539166
H389	H	0.011552	-0.332036	-0.516467
H390	H	-0.427024	-0.139478	-0.430231
H391	H	-0.346776	-0.516292	0.026600
C392	C	-0.424325	-0.929387	0.061902
C393	C	-0.452903	-0.867325	0.018733
H394	H	-0.442730	-0.946229	0.060533
H395	H	-0.389840	-0.951389	0.060114
H396	H	-0.421030	-0.932632	0.094336
H397	H	-0.456194	-0.864081	-0.013701
H398	H	-0.487397	-0.845318	0.020517
H399	H	-0.026564	-0.233284	-0.510448
C400	C	-0.770928	0.687098	-0.711739
C401	C	-0.735838	0.633639	-0.660905
H402	H	-0.752710	0.704132	-0.730136
H403	H	-0.783757	0.677206	-0.731127
H404	H	-0.800111	0.716216	-0.708429
H405	H	-0.706657	0.604519	-0.664215
H406	H	-0.723002	0.643529	-0.641513
H407	H	-0.301733	-0.860548	0.019286
H408	H	-0.026556	-0.233307	-0.256467
H409	H	-0.301736	-0.463624	0.019263
C410	C	-0.543223	-0.022873	-0.371104
C411	C	-0.577528	0.011182	-0.422803
H412	H	-0.560925	-0.004678	-0.353410
H413	H	-0.533249	-0.063937	-0.351919
H414	H	-0.512233	-0.023089	-0.372924
H415	H	-0.608516	0.011395	-0.420983
H416	H	-0.587509	0.052258	-0.441992
C417	C	-0.543198	-0.022829	-0.606024
C418	C	-0.577510	0.011213	-0.588387
H419	H	-0.560887	-0.004610	-0.641932
H420	H	-0.512201	-0.023072	-0.603952
H421	H	-0.533244	-0.063892	-0.584152
H422	H	-0.587462	0.052275	-0.610257
H423	H	-0.608517	0.011462	-0.590463
H424	H	-0.019226	-0.285667	-0.158742
C425	C	-0.268182	-0.317118	-0.186518
C426	C	-0.286564	-0.301382	-0.151426
H427	H	-0.232926	-0.353722	-0.168301
H428	H	-0.290910	-0.323671	-0.199346
H429	H	-0.268237	-0.284636	-0.215702
H430	H	-0.286513	-0.333862	-0.122244
H431	H	-0.263830	-0.294832	-0.138590
C432	C	-0.628889	0.565270	-0.605957
C433	C	-0.577185	0.547869	-0.588328
H434	H	-0.646595	0.600683	-0.641841
H435	H	-0.627081	0.532497	-0.603954
H436	H	-0.648058	0.574442	-0.584036
H437	H	-0.558015	0.538693	-0.610247
H438	H	-0.578991	0.580650	-0.590335
H439	H	-0.490215	0.626864	-0.653559
C440	C	-0.334286	-0.197386	-0.307533
C441	C	-0.339041	-0.240436	-0.264507
H442	H	-0.315996	-0.214291	-0.325871
H443	H	-0.368800	-0.161108	-0.331222
H444	H	-0.314828	-0.187570	-0.294682
H445	H	-0.358502	-0.250248	-0.277359
H446	H	-0.304520	-0.276725	-0.240814
C447	C	-0.288155	-0.293922	-0.476393
C448	C	-0.339033	-0.240445	-0.494953
H449	H	-0.269863	-0.310826	-0.441144
H450	H	-0.291386	-0.323116	-0.476375
H451	H	-0.268708	-0.284086	-0.499069
H452	H	-0.358482	-0.250281	-0.472278
H453	H	-0.335805	-0.211244	-0.494967
C454	C	-0.523047	-0.059144	-0.711770
C455	C	-0.504667	-0.074886	-0.660933
H456	H	-0.558300	-0.022536	-0.730172
H457	H	-0.500314	-0.052597	-0.731149
H458	H	-0.522998	-0.091621	-0.708464
H459	H	-0.504712	-0.042411	-0.664239
H460	H	-0.527406	-0.081430	-0.641550
C461	C	-0.503746	0.710660	-0.732073
C462	C	-0.452904	0.694909	-0.713695
H463	H	-0.522155	0.747285	-0.767319
H464	H	-0.500449	0.678202	-0.732045
H465	H	-0.523116	0.717186	-0.709324
H466	H	-0.433533	0.688379	-0.736442
H467	H	-0.456199	0.727374	-0.713727
C468	C	-0.813807	0.228295	-0.732135
C469	C	-0.848896	0.260748	-0.713760
H470	H	-0.832029	0.245130	-0.767384
H471	H	-0.784631	0.231556	-0.732098
H472	H	-0.800971	0.186191	-0.709390
H473	H	-0.861729	0.302851	-0.736504
H474	H	-0.878081	0.257493	-0.713802
C475	C	-0.270859	0.566195	-0.580970
C476	C	-0.286923	0.529320	-0.548066
H477	H	-0.235609	0.549284	-0.562675
H478	H	-0.271691	0.567647	-0.612617
H479	H	-0.294379	0.606662	-0.589926
H480	H	-0.263405	0.488854	-0.539114
H481	H	-0.286087	0.527861	-0.516410
C482	C	-0.288201	0.452633	-0.477218
C483	C	-0.339038	0.468378	-0.495602
H484	H	-0.269802	0.416024	-0.441964
H485	H	-0.268821	0.446086	-0.499949
H486	H	-0.291506	0.485108	-0.477266
H487	H	-0.335734	0.435904	-0.495559
H488	H	-0.358423	0.474922	-0.472865
H489	H	-0.346770	0.229846	-0.256454
C490	C	-0.868185	0.323173	-0.576822
C491	C	-0.849258	0.261100	-0.548134
H492	H	-0.886523	0.340128	-0.558533
H493	H	-0.838995	0.326413	-0.580050
H494	H	-0.891882	0.345077	-0.611337
H495	H	-0.825558	0.239195	-0.513620
H496	H	-0.878453	0.257856	-0.544899
C497	C	-0.771273	0.188996	-0.477279
C498	C	-0.736183	0.156550	-0.495658
H499	H	-0.753054	0.172149	-0.442025
H500	H	-0.784103	0.231094	-0.500013
H501	H	-0.800455	0.185740	-0.477327
H502	H	-0.707003	0.159809	-0.495614
H503	H	-0.723345	0.114442	-0.472919
C504	C	-0.523049	-0.059148	-0.229050
C505	C	-0.504671	-0.074892	-0.264139
H506	H	-0.558300	-0.022536	-0.247271
H507	H	-0.523004	-0.091618	-0.199870
H508	H	-0.500310	-0.052604	-0.216219
H509	H	-0.527408	-0.081440	-0.276967
H510	H	-0.504720	-0.042415	-0.293328
