data_functionalizedCrystal
_audit_creation_method	'MofGen! by Chris Wilmer'
_symmetry_space_group_name_H-M	'P1'
_symmetry_Int_Tables_number	1
_symmetry_cell_setting	triclinic
loop_
_symmetry_equiv_pos_as_xyz
  x,y,z
_cell_length_a	16.625546
_cell_length_b	19.077105
_cell_length_c	19.077482
_cell_angle_alpha	85.418775
_cell_angle_beta	92.186699
_cell_angle_gamma	87.718759
loop_
_atom_site_label
_atom_site_type_symbol
_atom_site_fract_x
_atom_site_fract_y
_atom_site_fract_z
Zn1	Zn	-0.391047	1.094194	-0.441839
Zn2	Zn	-0.520431	1.089256	-0.323947
Zn3	Zn	-0.379976	0.971446	-0.319235
Zn4	Zn	-0.520193	0.976271	-0.437066
O5	O	-0.452912	1.032792	-0.380522
O6	O	-0.412943	1.192193	-0.430170
O7	O	-0.497266	1.069542	-0.224671
O8	O	-0.268616	0.987776	-0.335525
O9	O	-0.508001	1.188565	-0.343555
O10	O	-0.276749	1.077958	-0.425602
O11	O	-0.394074	0.982988	-0.221209
O12	O	-0.393844	0.873432	-0.330897
O13	O	-0.507595	0.996000	-0.536350
O14	O	-0.496861	0.876977	-0.417466
O15	O	-0.412712	1.082637	-0.539857
O16	O	-0.633229	1.074221	-0.338926
O17	O	-0.633054	0.991212	-0.422034
C18	C	-0.444126	0.849624	-0.373153
C19	C	-0.440387	0.771265	-0.370017
C20	C	-0.492340	0.736313	-0.413545
C21	C	-0.488817	0.662686	-0.410602
C22	C	-0.433344	0.624013	-0.364127
C23	C	-0.381385	0.658970	-0.320597
C24	C	-0.384905	0.732596	-0.323544
C25	C	-0.417053	0.403617	-0.350490
C26	C	-0.413539	0.329986	-0.347545
C27	C	-0.520970	0.333708	-0.437551
C28	C	-0.524489	0.407334	-0.440491
C29	C	-0.472527	0.442285	-0.396964
N30	N	-0.429743	0.548755	-0.361116
N31	N	-0.476125	0.517542	-0.399979
C32	C	-0.662398	1.032724	-0.380490
C33	C	-0.752022	1.032760	-0.380502
C34	C	-1.080206	1.032886	-0.380580
C35	C	-0.988895	1.032849	-0.380560
C36	C	-0.916117	1.032823	-0.380541
C37	C	-0.824800	1.032786	-0.380522
C38	C	-0.242609	1.032880	-0.380570
C39	C	-0.152991	1.032917	-0.380591
C40	C	-0.461362	1.040407	-0.564398
C41	C	-0.464963	1.043652	-0.642755
C42	C	-0.461733	1.216674	-0.387920
C43	C	-0.465492	1.295034	-0.391073
C44	C	-0.444439	1.025246	-0.197363
C45	C	-0.440617	1.022138	-0.119012
C46	C	-0.492185	1.066063	-0.083982
C47	C	-0.488599	1.063132	-0.010362
C48	C	-0.433440	1.016278	0.028226
C49	C	-0.381870	0.972348	-0.006808
C50	C	-0.385461	0.975276	-0.080427
C51	C	-0.416983	1.002651	0.248592
C52	C	-0.413395	0.999727	0.322215
C53	C	-0.520125	1.090510	0.318657
C54	C	-0.523707	1.093437	0.245037
C55	C	-0.472140	1.049505	0.210009
N56	N	-0.429772	1.013283	0.103477
N57	N	-0.475813	1.052497	0.134759
H58	H	-0.374748	0.432065	-0.315042
H59	H	-0.336963	0.934196	0.024616
H60	H	-0.342595	0.761053	-0.288102
C61	C	-0.552864	1.117606	-0.126422
N62	N	-0.598572	1.156427	-0.158386
C63	C	-0.352510	0.287447	-0.296417
N64	N	-0.306547	0.255406	-0.257909
H65	H	-0.563274	0.305243	-0.472989
C66	C	-0.545290	1.111487	0.028166
N67	N	-0.587980	1.147923	0.057184
C68	C	-0.328730	0.926957	-0.118959
N69	N	-0.286000	0.890560	-0.147981
C70	C	-0.584389	1.144977	0.202595
N71	N	-0.630095	1.183798	0.170628
H72	H	-0.569663	0.438817	-0.478335
H73	H	-0.537515	0.767796	-0.451388
H74	H	-0.368473	0.961574	0.353632
H75	H	-0.562109	1.126277	0.347185
H76	H	-0.531124	0.634232	-0.446046
H77	H	-0.336214	0.627477	-0.282759
H78	H	-0.374995	0.966876	0.220081
