data_functionalizedCrystal
_audit_creation_method	'MofGen! by Chris Wilmer'
_symmetry_space_group_name_H-M	'P1'
_symmetry_Int_Tables_number	1
_symmetry_cell_setting	triclinic
loop_
_symmetry_equiv_pos_as_xyz
  x,y,z
_cell_length_a	12.759401
_cell_length_b	15.297327
_cell_length_c	12.759393
_cell_angle_alpha	80.358266
_cell_angle_beta	90.018496
_cell_angle_gamma	99.706546
loop_
_atom_site_label
_atom_site_type_symbol
_atom_site_fract_x
_atom_site_fract_y
_atom_site_fract_z
Zn1	Zn	1.533799	-0.359102	0.666297
Zn2	Zn	1.503249	-0.509990	0.521002
Zn3	Zn	1.358091	-0.359150	0.490645
Zn4	Zn	1.327659	-0.509920	0.696630
O5	O	1.430699	-0.434541	0.593643
O6	O	1.676766	-0.379127	0.647033
O7	O	1.483944	-0.490029	0.369964
O8	O	1.406921	-0.232898	0.488547
O9	O	1.654320	-0.489984	0.540286
O10	O	1.536012	-0.232864	0.617597
O11	O	1.377297	-0.379208	0.347661
O12	O	1.207035	-0.379140	0.517960
O13	O	1.355053	-0.489865	0.839617
O14	O	1.184677	-0.489911	0.669295
O15	O	1.506503	-0.379060	0.817332
O16	O	1.454435	-0.636226	0.569698
O17	O	1.325430	-0.636175	0.698731
C18	C	1.157735	-0.434524	0.593626
C19	C	1.040956	-0.434539	0.593648
C20	C	0.974461	-0.492309	0.672355
C21	C	0.864734	-0.492321	0.672369
C22	C	0.888009	-0.376788	0.514958
C23	C	0.997734	-0.376773	0.514949
C24	C	0.961022	-0.559014	0.763233
C25	C	0.851295	-0.559025	0.763247
C26	C	1.383343	-0.668934	0.640823
C27	C	1.363180	-0.769208	0.661042
C28	C	1.575241	-1.051846	0.449495
C29	C	1.594185	-0.957633	0.430493
C30	C	1.536436	-0.910523	0.488129
C31	C	1.459739	-0.957634	0.564769
C32	C	1.440787	-1.051856	0.583767
C33	C	1.401982	-0.910532	0.622401
C34	C	1.325285	-0.957643	0.699042
C35	C	1.306338	-1.051856	0.718037
C36	C	1.364087	-1.098967	0.660401
C37	C	1.420933	-0.816310	0.603403
C38	C	1.286480	-0.816320	0.737676
C39	C	1.267536	-0.910532	0.756677
C40	C	1.704729	-0.434558	0.593662
C41	C	1.821504	-0.434565	0.593670
C42	C	1.430791	-0.434450	0.867659
C43	C	1.430831	-0.434411	0.984427
C44	C	1.478269	-0.199232	0.546302
C45	C	1.498541	-0.098957	0.526129
C46	C	1.430681	-0.434566	0.320681
C47	C	1.430897	-0.434351	0.203862
C48	C	1.509701	-0.376709	1.027686
C49	C	1.509733	-0.376676	1.137404
C50	C	1.352019	-0.492055	1.160596
C51	C	1.351984	-0.492083	1.050879
C52	C	1.600759	-0.310099	1.014298
C53	C	1.600790	-0.310066	1.124015
H54	H	0.852804	-0.329757	0.450885
H55	H	1.051872	-0.329725	0.450863
C56	C	1.463629	-0.775648	0.434062
C57	C	1.557261	-0.806962	0.467239
H58	H	1.476494	-0.711712	0.421159
H59	H	1.409700	-0.796956	0.487955
H60	H	1.441203	-0.797030	0.370562
H61	H	1.579683	-0.785586	0.530745
H62	H	1.611207	-0.785645	0.413343
H63	H	0.822330	-0.534085	0.835577
H64	H	1.287757	-0.539066	1.015663
C65	C	1.725188	-0.967095	0.299694
C66	C	1.678495	-0.905852	0.346265
H67	H	1.777247	-0.935124	0.247699
H68	H	1.672035	-1.003897	0.266886
H69	H	1.757966	-1.003788	0.352915
H70	H	1.645711	-0.869163	0.293045
H71	H	1.731658	-0.869034	0.379073
H72	H	1.239453	-0.777962	0.784606
H73	H	1.483380	-0.777960	0.541002
H74	H	1.678385	-0.328779	1.157562
H75	H	1.287822	-0.539007	1.214714
C76	C	0.924093	-0.518603	0.931640
C77	C	1.006349	-0.533853	0.868056
H78	H	0.952081	-0.503064	0.996346
H79	H	0.872038	-0.571628	0.946638
H80	H	0.892389	-0.470760	0.895060
H81	H	1.038049	-0.581700	0.904632
H82	H	1.058423	-0.480821	0.853059
C83	C	0.895266	-0.707390	0.727636
C84	C	0.988882	-0.648563	0.741743
H85	H	0.912469	-0.762674	0.714373
H86	H	0.858634	-0.681230	0.668928
H87	H	0.851213	-0.718173	0.790051
H88	H	1.032932	-0.637775	0.679324
H89	H	1.025530	-0.674729	0.800456
C90	C	1.666233	-0.181976	1.206001
C91	C	1.579573	-0.220457	1.151956
H92	H	1.653123	-0.126663	1.223260
H93	H	1.728633	-0.171260	1.161947
H94	H	1.675701	-0.221903	1.269459
H95	H	1.570110	-0.180533	1.088494
H96	H	1.517155	-0.231169	1.196011
C97	C	1.605824	-1.196276	0.418956
C98	C	1.638674	-1.103631	0.386111
H99	H	1.644983	-1.228244	0.379813
H100	H	1.532123	-1.211749	0.406675
H101	H	1.618105	-1.211666	0.492653
H102	H	1.626386	-1.088240	0.312415
H103	H	1.712392	-1.088152	0.398384
H104	H	0.807405	-0.628879	0.755382
C105	C	1.363715	-1.233838	0.787572
C106	C	1.343277	-1.202531	0.681290
H107	H	1.350878	-1.297775	0.800463
H108	H	1.318333	-1.212537	0.832851
H109	H	1.435802	-1.212445	0.801472
H110	H	1.271187	-1.223918	0.667391
H111	H	1.388658	-1.223842	0.635996
C112	C	1.495109	-0.192784	0.987071
C113	C	1.590390	-0.215789	0.955123
H114	H	1.488706	-0.134566	0.950533
H115	H	1.495139	-0.192764	1.061508
H116	H	1.436861	-0.235415	0.970820
H117	H	1.648639	-0.173162	0.971380
H118	H	1.590369	-0.215802	0.880669
H119	H	1.672977	-0.335145	0.985305
H120	H	1.243874	-1.090211	0.780430
C121	C	1.178791	-1.054967	0.845408
C122	C	1.183225	-0.962324	0.840912
H123	H	1.126736	-1.086939	0.897406
H124	H	1.246274	-1.070340	0.863946
H125	H	1.160337	-1.070453	0.777922
H126	H	1.201686	-0.946837	0.908396
H127	H	1.115727	-0.946945	0.822380
