data_functionalizedCrystal
_audit_creation_method	'MofGen! by Chris Wilmer'
_symmetry_space_group_name_H-M	'P1'
_symmetry_Int_Tables_number	1
_symmetry_cell_setting	triclinic
loop_
_symmetry_equiv_pos_as_xyz
  x,y,z
_cell_length_a	27.732064
_cell_length_b	27.732064
_cell_length_c	26.809956
_cell_angle_alpha	90.008400
_cell_angle_beta	89.998878
_cell_angle_gamma	82.649423
loop_
_atom_site_label
_atom_site_type_symbol
_atom_site_fract_x
_atom_site_fract_y
_atom_site_fract_z
O1	O	0.640929	0.057548	-0.041387
O2	O	0.974262	0.390881	0.291947
O3	O	1.307596	0.724215	0.625280
O4	O	0.500137	0.066285	-0.041406
O5	O	0.833471	0.399618	0.291927
O6	O	1.166804	0.732952	0.625260
O7	O	0.574902	-0.008480	-0.041398
O8	O	0.908235	0.324854	0.291936
O9	O	1.241568	0.658187	0.625269
O10	O	0.566165	0.132312	-0.041395
O11	O	0.899498	0.465646	0.291938
O12	O	1.232831	0.798979	0.625272
O13	O	0.574888	-0.008468	0.041561
O14	O	0.908221	0.324865	0.374895
O15	O	1.241554	0.658199	0.708228
O16	O	0.500123	0.066296	0.041553
O17	O	0.833457	0.399630	0.374886
O18	O	1.166790	0.732963	0.708220
O19	O	0.640915	0.057559	0.041573
O20	O	0.974248	0.390893	0.374906
O21	O	1.307582	0.724226	0.708239
Zn22	Zn	0.570517	0.061930	0.054734
Zn23	Zn	0.903850	0.395263	0.388068
Zn24	Zn	1.237184	0.728596	0.721401
Zn25	Zn	0.570535	0.061915	-0.054568
Zn26	Zn	0.903869	0.395248	0.278765
Zn27	Zn	1.237202	0.728581	0.612099
O28	O	0.566151	0.132324	0.041564
O29	O	0.899484	0.465657	0.374897
O30	O	1.232817	0.798990	0.708231
C31	C	0.574710	-0.026481	0.000080
C32	C	0.908043	0.306853	0.333414
C33	C	1.241377	0.640186	0.666747
C34	C	0.574154	-0.080135	0.000076
C35	C	0.907487	0.253198	0.333409
C36	C	1.240821	0.586532	0.666742
C37	C	0.482124	0.066106	0.000071
C38	C	0.815457	0.399439	0.333404
C39	C	1.148790	0.732773	0.666737
C40	C	0.428469	0.065550	0.000063
C41	C	0.761802	0.398883	0.333396
C42	C	1.095136	0.732217	0.666730
C43	C	0.526187	-0.457211	0.000067
C44	C	0.859521	-0.123877	0.333400
C45	C	1.192854	0.209456	0.666733
C46	C	0.528234	-0.255550	0.000066
C47	C	0.861567	0.077783	0.333400
C48	C	1.194900	0.411116	0.666733
O49	O	0.491013	-0.224300	0.000041
O50	O	0.824346	0.109033	0.333375
O51	O	1.157679	0.442367	0.666708
N52	N	0.572567	-0.236420	0.000073
N53	N	0.905901	0.096913	0.333406
N54	N	1.239234	0.430246	0.666739
C55	C	0.616393	-0.267709	0.000076
C56	C	0.949726	0.065625	0.333409
C57	C	1.283060	0.398958	0.666742
O58	O	0.654149	-0.246810	0.000076
O59	O	0.987482	0.086523	0.333409
O60	O	1.320815	0.419857	0.666742
C61	C	0.614346	-0.469368	0.000072
C62	C	0.947680	-0.136035	0.333406
C63	C	1.281013	0.197299	0.666739
C64	C	0.570009	-0.488495	0.000071
C65	C	0.903343	-0.155162	0.333405
C66	C	1.236676	0.178171	0.666738
C67	C	0.481854	-0.476338	0.000065
C68	C	0.815187	-0.143005	0.333398
C69	C	1.148521	0.190328	0.666732
C70	C	0.481343	-0.526750	0.000068
C71	C	0.814676	-0.193417	0.333401
C72	C	1.148010	0.139916	0.666735
C73	C	0.525165	-0.558035	0.000072
C74	C	0.858499	-0.224702	0.333406
C75	C	1.191832	0.108632	0.666739
C76	C	0.569498	-0.538907	0.000074
C77	C	0.902832	-0.205574	0.333407
C78	C	1.236165	0.127759	0.666741
C79	C	0.658171	-0.500656	0.000072
C80	C	0.991505	-0.167322	0.333405
C81	C	1.324838	0.166011	0.666739
C82	C	0.657656	-0.551073	0.000070
C83	C	0.990989	-0.217740	0.333403
C84	C	1.324322	0.115594	0.666736
C85	C	0.613319	-0.570200	0.000069
C86	C	0.946652	-0.236867	0.333402
C87	C	1.279985	0.096466	0.666735
C88	C	0.612809	-0.620604	0.000081
C89	C	0.946143	-0.287271	0.333415
C90	C	1.279476	0.046063	0.666748
N91	N	0.568475	-0.639734	0.000075
N92	N	0.901809	-0.306401	0.333409
N93	N	1.235142	0.026933	0.666742
C94	C	0.524653	-0.608450	0.000071
C95	C	0.857987	-0.275116	0.333404
C96	C	1.191320	0.058217	0.666737
C97	C	0.617464	-0.161834	0.000078
C98	C	0.950798	0.171499	0.333412
C99	C	1.284131	0.504833	0.666745
C100	C	0.617976	-0.111420	0.000080
C101	C	0.951310	0.221914	0.333413
C102	C	1.284643	0.555247	0.666747
C103	C	0.529817	-0.099265	0.000070
C104	C	0.863150	0.234069	0.333403
C105	C	1.196483	0.567402	0.666737
C106	C	0.529305	-0.149680	0.000072
C107	C	0.862639	0.183653	0.333405
C108	C	1.195972	0.516986	0.666738
C109	C	0.573130	-0.180964	0.000072
C110	C	0.906464	0.152369	0.333405
C111	C	1.239797	0.485702	0.666739
C112	C	0.523583	-0.714319	0.000077
C113	C	0.856917	-0.380986	0.333410
C114	C	1.190250	-0.047652	0.666744
C115	C	0.523076	-0.764736	0.000082
C116	C	0.856410	-0.431403	0.333415
C117	C	1.189743	-0.098070	0.666749
C118	C	0.611236	-0.776887	0.000089
C119	C	0.944569	-0.443553	0.333423
C120	C	1.277902	-0.110220	0.666756
C121	C	0.611743	-0.726474	0.000087
C122	C	0.945076	-0.393141	0.333421
C123	C	1.278410	-0.059807	0.666754
C124	C	0.567913	-0.695191	0.000079
C125	C	0.901246	-0.361858	0.333413
C126	C	1.234580	-0.028524	0.666746
O127	O	0.650010	-0.651883	0.000101
O128	O	0.983344	-0.318549	0.333434
O129	O	1.316677	0.014784	0.666768
O130	O	0.486903	-0.629358	0.000060
O131	O	0.820237	-0.296024	0.333393
O132	O	1.153570	0.037309	0.666726
C133	C	0.526698	-0.406799	0.000064
C134	C	0.860032	-0.073465	0.333397
C135	C	1.193365	0.259868	0.666731
C136	C	0.571032	-0.387671	0.000066
C137	C	0.904365	-0.054338	0.333399
C138	C	1.237698	0.278996	0.666732
C139	C	0.614854	-0.418955	0.000070
C140	C	0.948187	-0.085622	0.333404
C141	C	1.281520	0.247711	0.666737
C142	C	0.571543	-0.337256	0.000067
C143	C	0.904877	-0.003923	0.333401
C144	C	1.238210	0.329410	0.666734
C145	C	0.527721	-0.305972	0.000063
C146	C	0.861055	0.027362	0.333396
C147	C	1.194388	0.360695	0.666730
C148	C	0.483387	-0.325102	0.000057
C149	C	0.816721	0.008231	0.333390
C150	C	1.150054	0.341565	0.666723
C151	C	0.482876	-0.375514	0.000059
C152	C	0.816210	-0.042181	0.333393
C153	C	1.149543	0.291153	0.666726
C154	C	0.659188	-0.399825	0.000076
C155	C	0.992521	-0.066492	0.333410
C156	C	1.325854	0.266841	0.666743
C157	C	0.659695	-0.349413	0.000074
C158	C	0.993028	-0.016079	0.333407
C159	C	1.326362	0.317254	0.666741
C160	C	0.615873	-0.318128	0.000070
C161	C	0.949206	0.015205	0.333403
C162	C	1.282540	0.348539	0.666736
C163	C	0.051393	0.017583	0.000090
C164	C	0.384727	0.350917	0.333424
C165	C	0.718060	0.684250	0.666757
C166	C	0.253054	0.019629	0.000077
C167	C	0.586387	0.352963	0.333411
C168	C	0.919720	0.686296	0.666744
O169	O	0.284304	-0.017591	0.000095
O170	O	0.617638	0.315742	0.333429
O171	O	0.950971	0.649075	0.666762
N172	N	0.272184	0.063963	0.000076
N173	N	0.605517	0.397297	0.333409
N174	N	0.938851	0.730630	0.666743
C175	C	0.240895	0.107789	0.000081
C176	C	0.574229	0.441122	0.333414
C177	C	0.907562	0.774456	0.666748
O178	O	0.261794	0.145545	0.000085
O179	O	0.595127	0.478878	0.333418
O180	O	0.928461	0.812211	0.666751
C181	C	0.039236	0.105742	0.000098
C182	C	0.372569	0.439075	0.333431
C183	C	0.705903	0.772409	0.666764
C184	C	0.020109	0.061405	0.000094
C185	C	0.353442	0.394739	0.333427
C186	C	0.686776	0.728072	0.666761
C187	C	0.032266	-0.026750	0.000087
C188	C	0.365599	0.306583	0.333421
C189	C	0.698932	0.639917	0.666754
C190	C	-0.018146	-0.027261	0.000088
C191	C	0.315187	0.306072	0.333421
C192	C	0.648520	0.639406	0.666754
C193	C	-0.049431	0.016561	0.000091
C194	C	0.283902	0.349894	0.333425
C195	C	0.617236	0.683228	0.666758
C196	C	-0.030303	0.060894	0.000094
C197	C	0.303030	0.394228	0.333428
C198	C	0.636363	0.727561	0.666761
C199	C	0.007949	0.149567	0.000106
C200	C	0.341282	0.482900	0.333440
C201	C	0.674615	0.816234	0.666773
C202	C	-0.042469	0.149051	0.000112
C203	C	0.290864	0.482385	0.333445
C204	C	0.624198	0.815718	0.666778
C205	C	-0.061596	0.104715	0.000108
C206	C	0.271737	0.438048	0.333441
C207	C	0.605071	0.771381	0.666775
C208	C	-0.112000	0.104205	0.000099
C209	C	0.221333	0.437539	0.333432
C210	C	0.554667	0.770872	0.666765
N211	N	-0.131130	0.059871	0.000100
N212	N	0.202203	0.393205	0.333433
N213	N	0.535537	0.726538	0.666767
C214	C	-0.099845	0.016049	0.000096
C215	C	0.233488	0.349383	0.333430
C216	C	0.566821	0.682716	0.666763
C217	C	0.346770	0.108860	0.000071
C218	C	0.680103	0.442194	0.333405
C219	C	1.013437	0.775527	0.666738
C220	C	0.397185	0.109372	0.000066
C221	C	0.730518	0.442705	0.333400
C222	C	1.063851	0.776039	0.666733
C223	C	0.409339	0.021212	0.000064
C224	C	0.742673	0.354546	0.333397
C225	C	1.076006	0.687879	0.666730
C226	C	0.358924	0.020701	0.000065
C227	C	0.692257	0.354034	0.333398
C228	C	1.025591	0.687368	0.666732
C229	C	0.327640	0.064526	0.000073
C230	C	0.660973	0.397860	0.333406
C231	C	0.994307	0.731193	0.666740
C232	C	-0.205715	0.014979	0.000097
C233	C	0.127618	0.348313	0.333430
C234	C	0.460952	0.681646	0.666764
C235	C	-0.256132	0.014472	0.000095
C236	C	0.077201	0.347805	0.333429
C237	C	0.410534	0.681139	0.666762
C238	C	-0.268283	0.102631	0.000101
C239	C	0.065051	0.435965	0.333434
C240	C	0.398384	0.769298	0.666768
C241	C	-0.217870	0.103139	0.000100
C242	C	0.115463	0.436472	0.333433
C243	C	0.448797	0.769806	0.666767
C244	C	-0.186587	0.059309	0.000100
C245	C	0.146746	0.392642	0.333433
C246	C	0.480080	0.725976	0.666766
O247	O	-0.143279	0.141406	0.000086
O248	O	0.190055	0.474739	0.333420
O249	O	0.523388	0.808073	0.666753
O250	O	-0.120753	-0.021701	0.000104
O251	O	0.212580	0.311632	0.333437
O252	O	0.545913	0.644966	0.666770
C253	C	0.101806	0.018094	0.000090
C254	C	0.435139	0.351428	0.333423
C255	C	0.768472	0.684761	0.666757
C256	C	0.120933	0.062427	0.000093
C257	C	0.454267	0.395761	0.333426
C258	C	0.787600	0.729094	0.666760
C259	C	0.089649	0.106250	0.000097
C260	C	0.422982	0.439583	0.333430
C261	C	0.756315	0.772916	0.666763
C262	C	0.171348	0.062939	0.000088
C263	C	0.504681	0.396273	0.333421
C264	C	0.838014	0.729606	0.666755
C265	C	0.202632	0.019117	0.000084
C266	C	0.535966	0.352451	0.333418
C267	C	0.869299	0.685784	0.666751
C268	C	0.183502	-0.025217	0.000086
C269	C	0.516836	0.308117	0.333419
C270	C	0.850169	0.641450	0.666752
C271	C	0.133090	-0.025728	0.000086
C272	C	0.466423	0.307606	0.333420
C273	C	0.799757	0.640939	0.666753
C274	C	0.108779	0.150584	0.000095
C275	C	0.442112	0.483917	0.333429
C276	C	0.775446	0.817250	0.666762
C277	C	0.159192	0.151091	0.000094
C278	C	0.492525	0.484424	0.333427
C279	C	0.825858	0.817758	0.666761
C280	C	0.190476	0.107269	0.000090
C281	C	0.523809	0.440602	0.333424
C282	C	0.857143	0.773936	0.666757
C283	C	0.658929	0.057738	0.000095
C284	C	0.992262	0.391072	0.333428
C285	C	1.325596	0.724405	0.666761
C286	C	0.712583	0.058294	0.000099
C287	C	1.045917	0.391628	0.333432
C288	C	1.379250	0.724961	0.666766
C289	C	0.566342	0.150325	0.000085
C290	C	0.899676	0.483658	0.333418
C291	C	1.233009	0.816991	0.666752
C292	C	0.566898	0.203979	0.000086
C293	C	0.900232	0.537313	0.333420
C294	C	1.233565	0.870646	0.666753
N295	N	0.570508	0.061940	0.129330
N296	N	0.903841	0.395273	0.462664
N297	N	1.237174	0.728606	0.795997
N298	N	0.570548	0.061901	-0.129164
N299	N	0.903882	0.395234	0.204169
N300	N	1.237215	0.728567	0.537503
C301	C	0.603637	0.028817	0.473960
C302	C	0.936970	0.362150	0.807294
C303	C	1.270304	0.695484	1.140627
C304	C	0.603648	0.028810	0.682838
C305	C	0.936982	0.362143	1.016171
C306	C	1.270315	0.695476	1.349505
O307	O	0.631796	0.000651	0.709845
O308	O	0.965130	0.333984	1.043178
O309	O	1.298463	0.667317	1.376512
N310	N	0.570538	0.061904	0.708957
N311	N	0.903872	0.395237	1.042291
N312	N	1.237205	0.728571	1.375624
C313	C	0.537421	0.095000	0.682854
C314	C	0.870754	0.428334	1.016188
C315	C	1.204087	0.761667	1.349521
O316	O	0.509255	0.123146	0.709863
O317	O	0.842589	0.456479	1.043197
O318	O	1.175922	0.789812	1.376530
C319	C	0.537407	0.095005	0.473978
C320	C	0.870741	0.428338	0.807311
C321	C	1.204074	0.761672	1.140644
C322	C	0.570523	0.061912	0.447861
C323	C	0.903856	0.395245	0.781194
C324	C	1.237190	0.728579	1.114527
C325	C	0.636749	-0.004274	0.447843
C326	C	0.970083	0.329059	0.781177
C327	C	1.303416	0.662393	1.114510
C328	C	0.636748	-0.004270	0.395627
C329	C	0.970081	0.329063	0.728960
C330	C	1.303415	0.662397	1.062294
C331	C	0.603634	0.028825	0.369528
C332	C	0.936967	0.362158	0.702861
C333	C	1.270301	0.695492	1.036194
C334	C	0.570521	0.061916	0.395644
C335	C	0.903855	0.395249	0.728978
C336	C	1.237188	0.728582	1.062311
C337	C	0.504288	0.128099	0.447875
C338	C	0.837621	0.461432	0.781209
C339	C	1.170954	0.794765	1.114542
C340	C	0.504287	0.128096	0.395653
C341	C	0.837620	0.461430	0.728986
C342	C	1.170953	0.794763	1.062320
C343	C	0.537402	0.095003	0.369536
C344	C	0.870735	0.428336	0.702869
C345	C	1.204069	0.761670	1.036203
C346	C	0.537406	0.095015	0.317329
C347	C	0.870739	0.428348	0.650662
C348	C	1.204073	0.761681	0.983995
N349	N	0.570516	0.061920	0.291209
N350	N	0.903849	0.395254	0.624543
N351	N	1.237183	0.728587	0.957876
C352	C	0.603630	0.028825	0.317309
C353	C	0.936963	0.362159	0.650642
C354	C	1.270297	0.695492	0.983975
C355	C	0.537431	0.094996	0.792518
C356	C	0.870764	0.428329	1.125851
C357	C	1.204097	0.761663	1.459184
C358	C	0.537434	0.094996	0.844737
C359	C	0.870768	0.428329	1.178070
C360	C	1.204101	0.761662	1.511403
C361	C	0.603662	0.028804	0.844717
C362	C	0.936995	0.362137	1.178050
C363	C	1.270328	0.695471	1.511383
C364	C	0.603660	0.028807	0.792497
C365	C	0.936993	0.362141	1.125830
C366	C	1.270327	0.695474	1.459163
C367	C	0.570541	0.061902	0.766398
C368	C	0.903874	0.395235	1.099731
C369	C	1.237208	0.728568	1.433065
C370	C	0.603625	0.028836	0.207651
C371	C	0.936958	0.362170	0.540984
C372	C	1.270292	0.695503	0.874317
C373	C	0.603622	0.028845	0.155430
C374	C	0.936955	0.362178	0.488763
C375	C	1.270288	0.695511	0.822096
C376	C	0.537393	0.095034	0.155454
C377	C	0.870726	0.428368	0.488788
C378	C	1.204060	0.761701	0.822121
C379	C	0.537398	0.095028	0.207671
C380	C	0.870731	0.428361	0.541004
C381	C	1.204064	0.761695	0.874337
C382	C	0.570515	0.061925	0.233768
C383	C	0.903849	0.395258	0.567101
C384	C	1.237182	0.728592	0.900434
O385	O	0.509269	0.123155	0.290290
O386	O	0.842602	0.456488	0.623623
O387	O	1.175936	0.789822	0.956956
O388	O	0.631784	0.000677	0.290291
O389	O	0.965117	0.334011	0.623624
O390	O	1.298451	0.667344	0.956957
C391	C	0.603638	0.028813	0.526176
C392	C	0.936972	0.362146	0.859510
C393	C	1.270305	0.695480	1.192843
C394	C	0.570526	0.061904	0.552293
C395	C	0.903859	0.395237	0.885627
C396	C	1.237192	0.728571	1.218960
C397	C	0.537412	0.094999	0.526194
C398	C	0.870745	0.428332	0.859527
C399	C	1.204078	0.761665	1.192861
C400	C	0.570530	0.061903	0.604512
C401	C	0.903863	0.395237	0.937846
C402	C	1.237196	0.728570	1.271179
C403	C	0.603644	0.028809	0.630612
C404	C	0.936977	0.362142	0.963945
C405	C	1.270310	0.695475	1.297278
C406	C	0.636754	-0.004286	0.604492
C407	C	0.970087	0.329048	0.937826
C408	C	1.303421	0.662381	1.271159
C409	C	0.636752	-0.004282	0.552276
C410	C	0.970086	0.329052	0.885609
C411	C	1.303419	0.662385	1.218943
C412	C	0.504302	0.128093	0.552313
C413	C	0.837635	0.461426	0.885647
C414	C	1.170968	0.794760	1.218980
C415	C	0.504306	0.128087	0.604530
C416	C	0.837639	0.461420	0.937863
C417	C	1.170973	0.794753	1.271197
C418	C	0.537420	0.094992	0.630629
C419	C	0.870753	0.428325	0.963963
C420	C	1.204087	0.761659	1.297296
H421	H	0.487893	-0.688854	0.000070
H422	H	0.821226	-0.355520	0.333404
H423	H	1.154559	-0.022187	0.666737
H424	H	0.646914	-0.802368	0.000096
H425	H	0.980248	-0.469034	0.333429
H426	H	1.313581	-0.135701	0.666762
C427	C	0.668055	-0.225579	-0.042567
C428	C	1.001388	0.107754	0.290766
C429	C	1.334722	0.441087	0.624100
C430	C	0.665643	-0.196216	0.000081
C431	C	0.998976	0.137117	0.333414
C432	C	1.332310	0.470450	0.666747
H433	H	0.697800	-0.246801	-0.042565
H434	H	1.031134	0.086532	0.290768
H435	H	1.364467	0.419866	0.624102
H436	H	0.641587	-0.244192	-0.042567
H437	H	0.974920	0.089141	0.290766
H438	H	1.308253	0.422475	0.624099
H439	H	0.666422	-0.205657	-0.071493
H440	H	0.999755	0.127676	0.261841
H441	H	1.333088	0.461009	0.595174
H442	H	0.667273	-0.216138	0.029006
H443	H	1.000606	0.117195	0.362340
H444	H	1.333939	0.450528	0.695673
H445	H	0.692118	-0.177602	0.000086
H446	H	1.025452	0.155731	0.333419
H447	H	1.358785	0.489064	0.666752
H448	H	0.663718	-0.031231	0.625751
H449	H	0.997052	0.302102	0.959084
H450	H	1.330385	0.635435	1.292418
H451	H	-0.271702	-0.021634	0.000091
H452	H	0.061631	0.311700	0.333425
H453	H	0.394964	0.645033	0.666758
C454	C	0.708226	-0.614813	0.042718
C455	C	1.041560	-0.281480	0.376051
C456	C	1.374893	0.051854	0.709384
C457	C	0.705830	-0.585461	0.000071
C458	C	1.039164	-0.252128	0.333405
C459	C	1.372497	0.081205	0.666738
H460	H	0.737966	-0.636044	0.042717
H461	H	1.071299	-0.302710	0.376050
H462	H	1.404633	0.030623	0.709383
H463	H	0.706592	-0.594888	0.071641
H464	H	1.039926	-0.261554	0.404974
H465	H	1.373259	0.071779	0.738308
H466	H	0.681749	-0.633420	0.042712
H467	H	1.015082	-0.300087	0.376045
H468	H	1.348415	0.033246	0.709379
H469	H	0.732306	-0.566851	0.000079
H470	H	1.065639	-0.233518	0.333412
H471	H	1.398973	0.099816	0.666746
H472	H	0.707469	-0.605389	-0.028859
H473	H	1.040802	-0.272056	0.304474
H474	H	1.374136	0.061278	0.637807
H475	H	0.663718	-0.031229	0.531015
H476	H	0.997051	0.302104	0.864349
H477	H	1.330385	0.635437	1.197682
H478	H	0.446773	-0.391082	0.000059
H479	H	0.780106	-0.057749	0.333392
H480	H	1.113439	0.275584	0.666726
H481	H	0.477340	0.155039	0.625791
H482	H	0.810674	0.488373	0.959124
H483	H	1.144007	0.821706	1.292457
H484	H	0.630590	0.001896	0.134167
H485	H	0.963924	0.335230	0.467500
H486	H	1.297257	0.668563	0.800834
H487	H	0.510460	0.121947	0.771272
H488	H	0.843794	0.455280	1.104605
H489	H	1.177127	0.788613	1.437938
H490	H	0.630592	0.001881	0.228893
H491	H	0.963925	0.335214	0.562226
H492	H	1.297258	0.668547	0.895560
H493	H	0.343354	-0.015402	0.000062
H494	H	0.676688	0.317932	0.333396
H495	H	1.010021	0.651265	0.666729
H496	H	0.695802	-0.333845	0.000079
H497	H	1.029135	-0.000511	0.333412
H498	H	1.362469	0.332822	0.666746
H499	H	0.477335	0.155042	0.531067
H500	H	0.810669	0.488376	0.864401
H501	H	1.144002	0.821709	1.197734
C502	C	-0.198778	-0.072215	0.000084
C503	C	0.134555	0.261119	0.333417
C504	C	0.467888	0.594452	0.666750
C505	C	-0.171334	-0.033199	0.000090
C506	C	0.162000	0.300134	0.333423
C507	C	0.495333	0.633468	0.666757
H508	H	-0.177552	-0.101957	0.000073
H509	H	0.155782	0.231377	0.333407
H510	H	0.489115	0.564710	0.666740
H511	H	-0.218691	-0.070578	0.029014
H512	H	0.114642	0.262755	0.362347
H513	H	0.447975	0.596089	0.695680
H514	H	-0.218698	-0.070572	-0.028846
H515	H	0.114635	0.262761	0.304487
H516	H	0.447968	0.596094	0.637821
H517	H	-0.151416	-0.034839	0.029022
H518	H	0.181917	0.298494	0.362355
H519	H	0.515251	0.631827	0.695688
H520	H	-0.151412	-0.034836	-0.028843
H521	H	0.181921	0.298497	0.304490
H522	H	0.515255	0.631830	0.637824
C523	C	-0.001053	-0.114348	0.000094
C524	C	0.332281	0.218985	0.333428
C525	C	0.665614	0.552318	0.666761
C526	C	-0.039166	-0.075998	0.000093
C527	C	0.294167	0.257335	0.333427
C528	C	0.627500	0.590669	0.666760
H529	H	-0.014028	-0.144438	0.000103
H530	H	0.319305	0.188896	0.333436
H531	H	0.652639	0.522229	0.666770
H532	H	0.018354	-0.112319	-0.028837
H533	H	0.351687	0.221014	0.304497
H534	H	0.685020	0.554348	0.637830
H535	H	0.018360	-0.112301	0.029023
H536	H	0.351694	0.221032	0.362356
H537	H	0.685027	0.554366	0.695690
H538	H	-0.058577	-0.078043	-0.028837
H539	H	0.274756	0.255290	0.304496
H540	H	0.608090	0.588623	0.637829
H541	H	-0.058581	-0.078028	0.029027
H542	H	0.274753	0.255305	0.362361
H543	H	0.608086	0.588638	0.695694
C544	C	-0.294170	0.177617	0.042754
C545	C	0.039164	0.510950	0.376087
C546	C	0.372497	0.844284	0.709420
C547	C	-0.302675	0.150801	0.000106
C548	C	0.030658	0.484134	0.333439
C549	C	0.363992	0.817467	0.666772
H550	H	-0.315401	0.207356	0.042756
H551	H	0.017932	0.540689	0.376090
H552	H	0.351266	0.874023	0.709423
H553	H	-0.299934	0.159422	0.071676
H554	H	0.033400	0.492755	0.405009
H555	H	0.366733	0.826089	0.738343
H556	H	-0.261407	0.184266	0.042747
H557	H	0.071927	0.517599	0.376080
H558	H	0.405260	0.850933	0.709413
H559	H	-0.335437	0.144149	0.000115
H560	H	-0.002104	0.477482	0.333448
H561	H	0.331230	0.810815	0.666781
H562	H	-0.296914	0.169000	-0.028824
H563	H	0.036419	0.502333	0.304509
H564	H	0.369752	0.835666	0.637843
H565	H	0.694275	-0.485092	0.000072
H566	H	1.027608	-0.151758	0.333406
H567	H	1.360942	0.181575	0.666739
C568	C	0.705065	-0.128510	0.000085
C569	C	1.038398	0.204823	0.333419
C570	C	1.371732	0.538156	0.666752
C571	C	0.666713	-0.090399	0.000085
C572	C	1.000046	0.242935	0.333419
C573	C	1.333379	0.576268	0.666752
H574	H	0.735153	-0.115533	0.000083
H575	H	1.068487	0.217800	0.333417
H576	H	1.401820	0.551133	0.666750
H577	H	0.703028	-0.147915	0.029014
H578	H	1.036361	0.185419	0.362347
H579	H	1.369694	0.518752	0.695680
H580	H	0.703028	-0.147926	-0.028846
H581	H	1.036361	0.185408	0.304487
H582	H	1.369695	0.518741	0.637821
H583	H	0.668748	-0.070985	0.029019
H584	H	1.002081	0.262348	0.362352
H585	H	1.335414	0.595681	0.695685
H586	H	0.668751	-0.070986	-0.028846
H587	H	1.002084	0.262347	0.304487
H588	H	1.335418	0.595680	0.637821
H589	H	0.446167	-0.450871	0.000060
H590	H	0.779500	-0.117537	0.333393
H591	H	1.112834	0.215796	0.666726
C592	C	0.447781	-0.769903	-0.042574
C593	C	0.781114	-0.436569	0.290759
C594	C	1.114447	-0.103236	0.624092
C595	C	0.474338	-0.785761	0.000077
C596	C	0.807672	-0.452427	0.333410
C597	C	1.141005	-0.119094	0.666743
H598	H	0.417695	-0.782884	-0.042579
H599	H	0.751028	-0.449551	0.290755
H600	H	1.084361	-0.116217	0.624088
H601	H	0.441817	-0.735404	-0.042573
H602	H	0.775150	-0.402071	0.290761
H603	H	1.108484	-0.068738	0.624094
H604	H	0.465818	-0.780673	-0.071498
H605	H	0.799151	-0.447339	0.261836
H606	H	1.132485	-0.114006	0.595169
H607	H	0.456303	-0.774987	0.029000
H608	H	0.789636	-0.441654	0.362334
H609	H	1.122969	-0.108321	0.695667
H610	H	0.480301	-0.820266	0.000080
H611	H	0.813634	-0.486933	0.333413
H612	H	1.146967	-0.153600	0.666746
C613	C	0.394256	-0.509657	0.000052
C614	C	0.727589	-0.176323	0.333385
C615	C	1.060922	0.157010	0.666718
C616	C	0.432606	-0.547770	0.000059
C617	C	0.765939	-0.214437	0.333393
C618	C	1.099273	0.118896	0.666726
H619	H	0.364166	-0.522632	0.000042
H620	H	0.697500	-0.189299	0.333375
H621	H	1.030833	0.144035	0.666709
H622	H	0.396286	-0.490244	0.028981
H623	H	0.729619	-0.156911	0.362314
H624	H	1.062952	0.176422	0.695647
H625	H	0.396302	-0.490250	-0.028879
H626	H	0.729636	-0.156917	0.304454
H627	H	1.062969	0.176417	0.637788
H628	H	0.430562	-0.567175	0.028992
H629	H	0.763895	-0.233842	0.362325
H630	H	1.097228	0.099492	0.695659
H631	H	0.430575	-0.567191	-0.028873
H632	H	0.763908	-0.233858	0.304461
H633	H	1.097242	0.099476	0.637794
H634	H	0.493202	-0.165250	0.000073
H635	H	0.826536	0.168084	0.333406
H636	H	1.159869	0.501417	0.666740
H637	H	0.447706	-0.299621	0.000056
H638	H	0.781039	0.033712	0.333389
H639	H	1.114373	0.367046	0.666723
H640	H	0.494135	-0.073784	0.000068
H641	H	0.827468	0.259549	0.333402
H642	H	1.160802	0.592883	0.666735
H643	H	0.647846	-0.710900	0.000095
H644	H	0.981179	-0.377567	0.333429
H645	H	1.314512	-0.044234	0.666762
H646	H	0.663712	-0.031218	0.374366
H647	H	0.997046	0.302115	0.707699
H648	H	1.330379	0.635448	1.041032
H649	H	0.057733	-0.062437	0.000086
H650	H	0.391067	0.270896	0.333419
H651	H	0.724400	0.604229	0.666753
C652	C	0.101839	0.237773	0.000092
C653	C	0.435172	0.571107	0.333425
C654	C	0.768505	0.904440	0.666758
C655	C	0.074395	0.198757	0.000095
C656	C	0.407728	0.532090	0.333428
C657	C	0.741062	0.865424	0.666761
H658	H	0.080612	0.267515	0.000086
H659	H	0.413945	0.600849	0.333419
H660	H	0.747279	0.934182	0.666753
H661	H	0.121752	0.236142	0.029021
H662	H	0.455085	0.569475	0.362354
H663	H	0.788418	0.902809	0.695687
H664	H	0.121759	0.236126	-0.028839
H665	H	0.455093	0.569460	0.304494
H666	H	0.788426	0.902793	0.637828
H667	H	0.054477	0.200402	0.029028
H668	H	0.387811	0.533735	0.362361
H669	H	0.721144	0.867069	0.695694
H670	H	0.054474	0.200389	-0.028837
H671	H	0.387807	0.533723	0.304496
H672	H	0.721140	0.867056	0.637830
H673	H	0.694874	-0.425293	0.000080
H674	H	1.028207	-0.091960	0.333413
H675	H	1.361540	0.241374	0.666746
H676	H	0.023513	0.185671	0.000107
H677	H	0.356846	0.519004	0.333440
H678	H	0.690179	0.852337	0.666774
H679	H	0.434820	-0.014469	0.000059
H680	H	0.768153	0.318864	0.333392
H681	H	1.101487	0.652197	0.666726
H682	H	0.477322	0.155046	0.469133
H683	H	0.810655	0.488379	0.802466
H684	H	1.143989	0.821713	1.135799
C685	C	0.380094	0.196461	0.000073
C686	C	0.713427	0.529794	0.333407
C687	C	1.046760	0.863128	0.666740
C688	C	0.418205	0.158108	0.000066
C689	C	0.751539	0.491442	0.333399
C690	C	1.084872	0.824775	0.666733
H691	H	0.393071	0.226549	0.000078
H692	H	0.726404	0.559882	0.333412
H693	H	1.059737	0.893216	0.666745
H694	H	0.360684	0.194424	-0.028853
H695	H	0.694017	0.527757	0.304480
H696	H	1.027351	0.861091	0.637813
H697	H	0.360684	0.194423	0.029006
H698	H	0.694017	0.527757	0.362340
H699	H	1.027351	0.861090	0.695673
H700	H	0.437613	0.160144	-0.028869
H701	H	0.770947	0.493477	0.304465
H702	H	1.104280	0.826811	0.637798
H703	H	0.437623	0.160146	0.028996
H704	H	0.770957	0.493480	0.362329
H705	H	1.104290	0.826813	0.695663
H706	H	0.174759	0.187198	0.000094
H707	H	0.508093	0.520531	0.333427
H708	H	0.841426	0.853865	0.666760
H709	H	0.321302	0.144550	0.000077
H710	H	0.654635	0.477883	0.333410
H711	H	0.987969	0.811217	0.666744
C712	C	-0.049416	0.236246	0.000116
C713	C	0.283918	0.569579	0.333449
C714	C	0.617251	0.902913	0.666783
C715	C	-0.076856	0.197227	0.000116
C716	C	0.256477	0.530560	0.333449
C717	C	0.589811	0.863894	0.666782
H718	H	-0.070645	0.265986	0.000114
H719	H	0.262688	0.599320	0.333447
H720	H	0.596022	0.932653	0.666781
H721	H	-0.029502	0.234614	0.029044
H722	H	0.303832	0.567947	0.362377
H723	H	0.637165	0.901280	0.695711
H724	H	-0.029497	0.234604	-0.028816
H725	H	0.303837	0.567937	0.304518
H726	H	0.637170	0.901270	0.637851
H727	H	-0.096772	0.198867	0.029049
H728	H	0.236561	0.532201	0.362383
H729	H	0.569894	0.865534	0.695716
H730	H	-0.096778	0.198860	-0.028815
H731	H	0.236555	0.532194	0.304518
H732	H	0.569888	0.865527	0.637851
H733	H	-0.202296	0.139241	0.000102
H734	H	0.131037	0.472575	0.333436
H735	H	0.464371	0.805908	0.666769
H736	H	0.117522	-0.061831	0.000083
H737	H	0.450855	0.271502	0.333417
H738	H	0.784189	0.604835	0.666750
H739	H	0.477315	0.155045	0.374406
H740	H	0.810649	0.488379	0.707739
H741	H	1.143982	0.821712	1.041073
C742	C	0.266185	-0.063568	0.000085
C743	C	0.599518	0.269765	0.333418
C744	C	0.932851	0.603098	0.666752
C745	C	0.217897	-0.073387	0.000084
C746	C	0.551230	0.259946	0.333417
C747	C	0.884564	0.593280	0.666751
H748	H	0.287419	-0.093306	0.000089
H749	H	0.620752	0.240028	0.333422
H750	H	0.954086	0.573361	0.666756
H751	H	0.271945	-0.045381	-0.028843
H752	H	0.605278	0.287953	0.304490
H753	H	0.938611	0.621286	0.637823
H754	H	0.271940	-0.045367	0.029016
H755	H	0.605273	0.287967	0.362350
H756	H	0.938606	0.621300	0.695683
H757	H	0.212141	-0.091586	-0.028849
H758	H	0.545474	0.241747	0.304484
H759	H	0.878808	0.575081	0.637817
H760	H	0.212135	-0.091583	0.029015
H761	H	0.545468	0.241751	0.362349
H762	H	0.878802	0.575084	0.695682
H763	H	0.663715	-0.031226	0.469089
H764	H	0.997048	0.302108	0.802422
H765	H	1.330382	0.635441	1.135756
H766	H	0.630625	0.001860	0.771235
H767	H	0.963958	0.335193	1.104569
H768	H	1.297292	0.668526	1.437902
H769	H	0.630625	0.001858	0.865975
H770	H	0.963959	0.335191	1.199309
H771	H	1.297292	0.668524	1.532642
C772	C	0.471970	0.160419	0.839498
C773	C	0.805303	0.493752	1.172832
C774	C	1.138636	0.827086	1.506165
C775	C	0.501035	0.131375	0.873441
C776	C	0.834368	0.464708	1.206774
C777	C	1.167702	0.798042	1.540107
H778	H	0.449494	0.182875	0.857219
H779	H	0.782828	0.516208	1.190552
H780	H	1.116161	0.849542	1.523885
H781	H	0.491959	0.177669	0.819134
H782	H	0.825293	0.511003	1.152468
H783	H	1.158626	0.844336	1.485801
H784	H	0.454737	0.140408	0.819127
H785	H	0.788070	0.473742	1.152461
H786	H	1.121403	0.807075	1.485794
H787	H	0.518271	0.151386	0.893809
H788	H	0.851604	0.484719	1.227142
H789	H	1.184938	0.818052	1.560476
H790	H	0.481043	0.114123	0.893813
H791	H	0.814376	0.447457	1.227146
H792	H	1.147709	0.780790	1.560480
H793	H	0.510436	0.121980	0.228935
H794	H	0.843770	0.455313	0.562269
H795	H	1.177103	0.788647	0.895602
H796	H	0.510433	0.121981	0.134196
H797	H	0.843767	0.455314	0.467529
H798	H	1.177100	0.788648	0.800863
