data_functionalizedCrystal
_audit_creation_method	'MofGen! by Chris Wilmer'
_symmetry_space_group_name_H-M	'P1'
_symmetry_Int_Tables_number	1
_symmetry_cell_setting	triclinic
loop_
_symmetry_equiv_pos_as_xyz
  x,y,z
_cell_length_a	11.026607
_cell_length_b	19.188930
_cell_length_c	10.065875
_cell_angle_alpha	98.754308
_cell_angle_beta	79.302338
_cell_angle_gamma	95.865399
loop_
_atom_site_label
_atom_site_type_symbol
_atom_site_fract_x
_atom_site_fract_y
_atom_site_fract_z
O1	O	1.626420	0.284145	-0.113552
O2	O	2.126420	0.784145	0.386448
O3	O	1.273289	0.250876	-0.113547
O4	O	1.773289	0.750876	0.386453
O5	O	1.460041	0.167156	-0.113523
O6	O	1.960041	0.667156	0.386477
O7	O	1.439668	0.367866	-0.113576
O8	O	1.939668	0.867866	0.386424
O9	O	1.424429	0.183202	0.113461
O10	O	1.924429	0.683202	0.613461
O11	O	1.237678	0.266922	0.113437
O12	O	1.737678	0.766922	0.613437
O13	O	1.590808	0.300192	0.113432
O14	O	2.090808	0.800192	0.613432
Zn15	Zn	1.408589	0.286105	0.149473
Zn16	Zn	1.908589	0.786105	0.649473
Zn17	Zn	1.455509	0.264963	-0.149588
Zn18	Zn	1.955509	0.764963	0.350412
O19	O	1.404057	0.383912	0.113408
O20	O	1.904057	0.883912	0.613408
C21	C	1.210305	0.252761	-0.000054
C22	C	1.710305	0.752761	0.499946
C23	C	1.075688	0.234465	-0.000051
C24	C	1.575688	0.734465	0.499949
C25	C	1.001616	0.284984	-0.000065
C26	C	1.501616	0.784984	0.499935
C27	C	0.862482	0.266075	-0.000062
C28	C	1.362482	0.766075	0.499938
C29	C	1.441574	0.149084	-0.000027
C30	C	1.941574	0.649084	0.499973
C31	C	1.439591	0.071328	-0.000015
C32	C	1.939591	0.571328	0.499985
C33	C	1.549173	0.040370	-0.000010
C34	C	2.049173	0.540370	0.499990
C35	C	1.547315	-0.032693	-0.000032
C36	C	2.047315	0.467307	0.499968
C37	C	1.435865	-0.074793	-0.000031
C38	C	1.935865	0.425207	0.499969
C39	C	1.326271	-0.043828	-0.000044
C40	C	1.826271	0.456172	0.499956
C41	C	1.328134	0.029233	-0.000036
C42	C	1.828134	0.529233	0.499964
N43	N	1.338556	-0.188194	0.077217
N44	N	1.838556	0.311806	0.577217
N45	N	1.336793	-0.257598	0.077212
N46	N	1.836793	0.242402	0.577212
C47	C	1.430245	-0.294920	-0.000059
C48	C	1.930245	0.205080	0.499941
N49	N	1.525543	-0.260215	-0.077308
N50	N	2.025543	0.239785	0.422692
N51	N	1.527308	-0.190805	-0.077297
N52	N	2.027308	0.309195	0.422703
C53	C	1.433832	-0.154015	-0.000041
C54	C	1.933832	0.345985	0.499959
C55	C	1.537819	-0.405101	-0.000080
C56	C	2.037819	0.094899	0.499920
C57	C	1.535958	-0.478166	-0.000110
C58	C	2.035958	0.021834	0.499890
C59	C	1.314909	-0.489298	-0.000108
C60	C	1.814909	0.010702	0.499892
C61	C	1.316775	-0.416236	-0.000092
C62	C	1.816775	0.083764	0.499908
C63	C	1.428233	-0.374141	-0.000071
C64	C	1.928233	0.125859	0.499929
C65	C	1.653793	0.298306	-0.000064
C66	C	2.153793	0.798306	0.499936
C67	C	1.788412	0.316602	-0.000076
C68	C	2.288412	0.816602	0.499924
C69	C	1.422523	0.401983	-0.000091
C70	C	1.922523	0.901983	0.499909
C71	C	1.424508	0.479739	-0.000112
C72	C	1.924508	0.979739	0.499888
N73	N	1.376576	0.300534	0.353575
N74	N	1.876576	0.800534	0.853575
N75	N	1.487531	0.250529	-0.353689
N76	N	1.987531	0.750529	0.146311
C77	C	1.444363	0.269978	0.421362
C78	C	1.944363	0.769978	0.921362
C79	C	1.419734	0.281090	0.578527
C80	C	1.919734	0.781090	1.078527
H81	H	0.822903	0.208818	-0.000082
H82	H	1.322903	0.708818	0.499918
H83	H	1.625197	-0.503370	-0.000113
H84	H	2.125197	-0.003370	0.499887
H85	H	1.343457	0.315475	0.636838
H86	H	1.843457	0.815475	1.136838
N87	N	1.669382	0.085774	-0.000021
N88	N	2.169382	0.585774	0.499979
H89	H	1.661885	0.122278	0.084120
H90	H	2.161885	0.622278	0.584120
H91	H	1.738464	0.055024	-0.000080
H92	H	2.238464	0.555024	0.499920
H93	H	1.636552	-0.057904	-0.000033
H94	H	2.136552	0.442096	0.499967
N95	N	0.840836	0.392441	-0.000118
N96	N	1.340836	0.892441	0.499882
H97	H	0.772288	0.423556	-0.000133
H98	H	1.272288	0.923556	0.499867
H99	H	0.879487	0.408181	0.084022
H100	H	1.379487	0.908181	0.584022
N101	N	1.054038	0.360821	-0.000094
N102	N	1.554038	0.860821	0.499906
H103	H	1.012417	0.390797	0.084041
H104	H	1.512417	0.890797	0.584041
H105	H	1.146000	0.363518	-0.000146
H106	H	1.646000	0.863518	0.499854
H107	H	1.036103	0.177212	-0.000071
H108	H	1.536103	0.677212	0.499929
N109	N	1.206064	-0.089231	-0.000051
N110	N	1.706064	0.410769	0.499949
H111	H	1.221510	-0.140212	-0.000051
H112	H	1.721510	0.359788	0.499949
H113	H	1.144923	-0.072950	0.084094
H114	H	1.644923	0.427050	0.584094
N115	N	1.588558	0.204971	0.569088
N116	N	2.088558	0.704971	1.069088
H117	H	1.591832	0.203489	0.467762
H118	H	2.091832	0.703489	0.967762
H119	H	1.670729	0.225489	0.593968
H120	H	2.170729	0.725489	1.093968
H121	H	1.224166	-0.523576	-0.000114
H122	H	1.724166	-0.023576	0.499886
N123	N	1.209939	0.062635	-0.000015
N124	N	1.709939	0.562635	0.499985
H125	H	1.218984	0.086764	-0.084149
H126	H	1.718984	0.586764	0.415851
H127	H	1.139106	0.024847	0.000033
H128	H	1.639106	0.524847	0.500033
H129	H	1.520626	0.235588	0.363048
H130	H	2.020626	0.735588	0.863048
N131	N	1.275540	0.346079	0.430805
N132	N	1.775540	0.846079	0.930805
H133	H	1.272266	0.347559	0.532131
H134	H	1.772266	0.847559	1.032131
H135	H	1.293409	0.395582	0.405888
H136	H	1.793409	0.895582	0.905888
N137	N	1.658027	-0.359693	-0.000063
N138	N	2.158027	0.140307	0.499937
H139	H	1.727169	-0.390395	-0.000074
H140	H	2.227169	0.109605	0.499926
H141	H	1.676815	-0.335074	-0.084201
H142	H	2.176815	0.164926	0.415799
H143	H	1.227541	-0.391029	-0.000088
H144	H	1.727541	0.108971	0.499912
