data_functionalizedCrystal
_audit_creation_method	'MofGen! by Chris Wilmer'
_symmetry_space_group_name_H-M	'P1'
_symmetry_Int_Tables_number	1
_symmetry_cell_setting	triclinic
loop_
_symmetry_equiv_pos_as_xyz
  x,y,z
_cell_length_a	12.784890
_cell_length_b	10.654551
_cell_length_c	11.295483
_cell_angle_alpha	94.137679
_cell_angle_beta	86.328828
_cell_angle_gamma	78.795960
loop_
_atom_site_label
_atom_site_type_symbol
_atom_site_fract_x
_atom_site_fract_y
_atom_site_fract_z
O1	O	1.417465	-0.001378	-0.098988
O2	O	1.108406	0.052362	-0.098996
O3	O	1.270041	-0.158096	-0.098993
O4	O	1.255830	0.209080	-0.098992
O5	O	1.255844	-0.139637	0.099058
O6	O	1.094209	0.070821	0.099054
O7	O	1.403268	0.017081	0.099062
Cu8	Cu	1.247442	0.045636	0.117142
Cu9	Cu	1.264232	0.023806	-0.117076
O10	O	1.241633	0.227539	0.099059
C11	C	1.061734	0.065087	0.000028
C12	C	0.943817	0.075486	0.000025
C13	C	0.765802	0.205824	0.000023
C14	C	0.876595	0.196061	0.000023
C15	C	0.900240	-0.035334	0.000022
C16	C	0.789447	-0.025571	0.000022
C17	C	0.722231	0.095013	0.000025
C18	C	0.611436	0.104776	0.000033
C19	C	0.635083	-0.126619	0.000024
C20	C	0.745876	-0.136382	0.000024
C21	C	1.261899	-0.195540	0.000030
C22	C	1.258777	-0.334611	0.000022
C23	C	1.265051	-0.410010	-0.107933
C24	C	1.262108	-0.540678	-0.107928
C25	C	1.246621	-0.520537	0.107997
C26	C	1.249556	-0.389870	0.107991
C27	C	1.274272	-0.354751	-0.215902
C28	C	1.280547	-0.430151	-0.323866
C29	C	1.277604	-0.560819	-0.323861
C30	C	1.268385	-0.616087	-0.215892
C31	C	1.449940	0.004356	0.000035
C32	C	1.567858	-0.006044	0.000031
C33	C	1.249776	0.264983	0.000034
C34	C	1.252898	0.404053	0.000034
N35	N	1.235641	0.060989	0.281878
N36	N	1.276041	0.008443	-0.281812
C37	C	1.360992	-0.102141	0.531170
C38	C	1.352081	-0.090531	0.655834
C39	C	1.208905	0.095812	0.655871
C40	C	1.217816	0.084202	0.531207
C41	C	1.293863	-0.014777	0.468861
C42	C	1.302778	-0.026380	0.344196
C43	C	1.159597	0.159957	0.344235
C44	C	1.150687	0.171567	0.468898
H45	H	0.556709	0.202962	0.000041
O46	O	1.087181	0.254185	0.277026
H47	H	1.136398	0.305022	0.220215
O48	O	1.424489	-0.184763	0.723034
H49	H	1.405514	-0.160071	0.820196
O50	O	1.242801	-0.308535	0.224424
H51	H	1.235915	-0.368915	0.299503
O52	O	0.972742	-0.165387	0.000004
H53	H	0.951364	-0.211479	0.080720
O54	O	1.384784	-0.133155	0.276961
H55	H	1.343670	-0.194562	0.220179
H56	H	0.711073	0.304010	0.000039
O57	O	1.290483	-0.370539	-0.440311
H58	H	1.221366	-0.381347	-0.492074
H59	H	0.912065	0.286296	0.000024
H60	H	1.088768	0.252151	0.519675
O61	O	1.443008	-0.208888	0.463913
H62	H	1.488189	-0.267693	0.528185
H63	H	1.276672	-0.248357	-0.215919
O64	O	0.588093	-0.246151	0.000021
H65	H	0.499760	-0.219109	0.000015
H66	H	0.800617	-0.234558	0.000018
O67	O	1.284336	-0.642141	-0.440299
H68	H	1.291237	-0.581757	-0.515372
H69	H	1.265973	-0.722483	-0.215896
H70	H	1.239116	-0.565548	0.195901
H71	H	1.146983	0.176391	0.706649
