data_functionalizedCrystal
_audit_creation_method	'MofGen! by Chris Wilmer'
_symmetry_space_group_name_H-M	'P1'
_symmetry_Int_Tables_number	1
_symmetry_cell_setting	triclinic
loop_
_symmetry_equiv_pos_as_xyz
  x,y,z
_cell_length_a	10.654550
_cell_length_b	23.532407
_cell_length_c	9.130313
_cell_angle_alpha	89.994125
_cell_angle_beta	89.996220
_cell_angle_gamma	83.666790
loop_
_atom_site_label
_atom_site_type_symbol
_atom_site_fract_x
_atom_site_fract_y
_atom_site_fract_z
O1	O	1.665300	0.079982	-0.121936
O2	O	1.299580	0.087603	-0.121914
O3	O	1.493468	0.000933	-0.121899
O4	O	1.471412	0.166652	-0.121952
O5	O	1.493466	0.000935	0.121700
O6	O	1.299578	0.087605	0.121684
O7	O	1.665298	0.079985	0.121662
Cu8	Cu	1.482437	0.083795	0.143916
Cu9	Cu	1.482440	0.083792	-0.144168
O10	O	1.471409	0.166655	0.121647
C11	C	1.252799	0.087044	-0.000112
C12	C	1.113408	0.085370	-0.000102
C13	C	1.032306	0.136400	-0.000140
C14	C	0.901335	0.134824	-0.000165
C15	C	0.932582	0.031183	-0.000121
C16	C	1.063550	0.032760	-0.000085
C17	C	1.014265	0.196236	-0.000172
C18	C	0.883294	0.194660	-0.000196
C19	C	1.492905	-0.020286	-0.000096
C20	C	1.491217	-0.083514	-0.000085
C21	C	1.595364	-0.481938	-0.000171
C22	C	1.593795	-0.541349	-0.000182
O23	O	1.690341	-0.577464	-0.000242
N24	N	1.478529	-0.564726	-0.000174
C25	C	1.364824	-0.528689	-0.000170
O26	O	1.266636	-0.554029	-0.000166
C27	C	1.366394	-0.469280	-0.000170
C28	C	1.481668	-0.445906	-0.000163
C29	C	1.710629	-0.458564	-0.000166
C30	C	1.712197	-0.399158	-0.000152
C31	C	1.598500	-0.363126	-0.000144
C32	C	1.483236	-0.386500	-0.000149
C33	C	1.252690	-0.433244	-0.000176
C34	C	1.254270	-0.373832	-0.000177
C35	C	1.369544	-0.350458	-0.000170
C36	C	1.371107	-0.291061	-0.000127
N37	N	1.486374	-0.267684	-0.000135
C38	C	1.600070	-0.303716	-0.000143
C39	C	1.361535	-0.653453	-0.000174
C40	C	1.359964	-0.712861	-0.000164
C41	C	1.588936	-0.725517	-0.000179
C42	C	1.590506	-0.666108	-0.000178
C43	C	1.476802	-0.630076	-0.000182
C44	C	1.603355	-0.178958	-0.000113
C45	C	1.604913	-0.119546	-0.000093
C46	C	1.375942	-0.106896	-0.000086
C47	C	1.374383	-0.166303	-0.000098
C48	C	1.488100	-0.202333	-0.000117
O49	O	1.274613	-0.254911	-0.000073
O50	O	1.698241	-0.278369	-0.000167
C51	C	1.712079	0.080543	-0.000143
C52	C	1.851469	0.082217	-0.000163
C53	C	1.471972	0.187873	-0.000159
C54	C	1.473661	0.251101	-0.000180
N55	N	1.482445	0.083797	0.346539
N56	N	1.482443	0.083786	-0.346791
C57	C	1.568320	0.045432	0.423197
C58	C	1.568317	0.045425	0.576534
C59	C	1.396559	0.122152	0.576540
C60	C	1.396557	0.122156	0.423206
C61	C	1.667487	0.001136	0.423195
C62	C	1.667483	0.001129	0.576532
H63	H	1.129581	-0.008793	-0.000034
H64	H	1.638281	-0.040234	0.624094
C65	C	0.877725	-0.026685	-0.000110
N66	N	0.836409	-0.070273	-0.000105
C67	C	1.129182	-0.334200	-0.000175
N68	N	1.034966	-0.304350	-0.000169
H69	H	1.763686	0.010887	0.618139
C70	C	1.302086	0.164345	0.660888
N71	N	1.230926	0.196124	0.724418
C72	C	1.728450	-0.218583	-0.000120
N73	N	1.822671	-0.248429	-0.000113
C74	C	0.825947	0.225111	-0.137944
N75	N	0.782755	0.248044	-0.241694
C76	C	1.640383	-0.057994	0.366982
N77	N	1.619965	-0.102529	0.324643
C78	C	0.820808	0.219103	0.141856
N79	N	0.773742	0.237516	0.248843
C80	C	1.236443	-0.613823	-0.000159
N81	N	1.142223	-0.583976	-0.000149
H82	H	1.049317	0.215288	-0.105349
C83	C	1.790080	0.019870	0.358924
N84	N	1.882419	0.033980	0.310515
H85	H	1.042853	0.219639	0.101772
C86	C	1.839008	-0.373455	-0.000160
N87	N	1.934529	-0.354100	-0.000172
C88	C	1.835715	-0.498191	-0.000160
N89	N	1.929939	-0.528035	-0.000139
H90	H	1.698787	-0.100519	-0.000084
C91	C	1.717315	-0.640403	-0.000183
N92	N	1.812833	-0.621045	-0.000193
H93	H	1.681514	-0.754865	-0.000191
H94	H	1.266096	-0.731887	-0.000144
C95	C	1.247577	-0.192014	-0.000096
N96	N	1.152063	-0.211376	-0.000111
C97	C	1.125877	-0.458942	-0.000194
N98	N	1.030354	-0.478295	-0.000212
H99	H	1.283373	-0.077548	-0.000074
C100	C	1.302183	0.164403	0.338887
N101	N	1.231135	0.196244	0.275378
