data_functionalizedCrystal
_audit_creation_method	'MofGen! by Chris Wilmer'
_symmetry_space_group_name_H-M	'P1'
_symmetry_Int_Tables_number	1
_symmetry_cell_setting	triclinic
loop_
_symmetry_equiv_pos_as_xyz
  x,y,z
_cell_length_a	19.121241
_cell_length_b	19.121063
_cell_length_c	13.032268
_cell_angle_alpha	80.752502
_cell_angle_beta	85.573556
_cell_angle_gamma	95.003121
loop_
_atom_site_label
_atom_site_type_symbol
_atom_site_fract_x
_atom_site_fract_y
_atom_site_fract_z
Zn1	Zn	1.003683	-0.294326	0.673316
Zn2	Zn	1.013522	-0.397065	0.505708
Zn3	Zn	0.902239	-0.283152	0.491433
Zn4	Zn	0.880967	-0.416957	0.673227
O5	O	0.950103	-0.347875	0.585921
O6	O	1.102918	-0.304305	0.657094
O7	O	1.011781	-0.368953	0.357589
O8	O	0.920481	-0.185639	0.509623
O9	O	1.110146	-0.379788	0.533953
O10	O	0.995012	-0.193849	0.643252
O11	O	0.930022	-0.285262	0.347101
O12	O	0.801488	-0.304550	0.509537
O13	O	0.884225	-0.413691	0.819464
O14	O	0.785859	-0.402856	0.643100
O15	O	0.974384	-0.323594	0.819530
O16	O	0.991153	-0.498699	0.533867
O17	O	0.893765	-0.513313	0.656942
C18	C	0.768281	-0.354650	0.574761
C19	C	0.690494	-0.357568	0.570012
C20	C	0.941235	-0.531675	0.596968
C21	C	0.937503	-0.610307	0.601733
C22	C	0.650175	-0.319720	0.632000
C23	C	0.577086	-0.322457	0.627529
C24	C	0.544319	-0.363047	0.561075
C25	C	0.584644	-0.400896	0.499080
C26	C	0.657732	-0.398154	0.503546
C27	C	0.323831	-0.373283	0.544372
C28	C	0.250738	-0.376024	0.539912
C29	C	0.243185	-0.297584	0.668361
C30	C	0.316274	-0.294849	0.672826
C31	C	0.356594	-0.332695	0.610827
C32	C	0.469611	-0.365847	0.556505
C33	C	0.431301	-0.329890	0.615391
C34	C	0.986484	-0.639619	0.539950
C35	C	0.982977	-0.713503	0.544438
C36	C	0.930485	-0.758072	0.610703
C37	C	0.881502	-0.728755	0.672493
C38	C	0.885012	-0.654873	0.668010
C39	C	0.917350	-0.981529	0.627446
C40	C	0.913842	-1.055416	0.631922
C41	C	1.015318	-1.040158	0.503868
C42	C	1.018821	-0.966275	0.499386
C43	C	0.969840	-0.936965	0.561180
C44	C	0.926898	-0.833593	0.615289
C45	C	0.973431	-0.861446	0.556599
C46	C	1.132634	-0.341074	0.597126
C47	C	1.210418	-0.338176	0.601900
C48	C	0.925834	-0.372108	0.858472
C49	C	0.915492	-0.382435	0.974617
C50	C	0.959022	-0.163358	0.574855
C51	C	0.962823	-0.084728	0.570139
C52	C	0.974320	-0.323684	0.314430
C53	C	0.984807	-0.313153	0.198282
C54	C	0.955491	-0.342460	1.026430
C55	C	0.944803	-0.353133	1.146472
H56	H	0.676848	-0.286669	0.686117
H57	H	0.902639	-0.395255	1.190978
H58	H	1.026963	-0.271022	1.153776
Br59	Br	1.057720	-0.579138	0.450004
Br60	Br	0.475773	-0.274802	0.705571
H61	H	1.022862	-0.737365	0.494127
Br62	Br	0.810268	-0.789242	0.762435
Br63	Br	1.025737	-0.272227	0.952250
Br64	Br	1.090070	-0.905793	0.409465
Br65	Br	0.425134	-0.420931	0.466319
H66	H	0.845128	-0.631009	0.718321
Br67	Br	1.044671	-0.800959	0.466676
Br68	Br	1.081791	-1.079940	0.420015
Br69	Br	0.842588	-1.115902	0.721841
Br70	Br	0.206264	-0.431136	0.449749
Br71	Br	0.855662	-0.894086	0.705221
H72	H	0.877467	-0.957671	0.677759
Br73	Br	0.845220	-0.452642	1.048793
H74	H	0.544260	-0.291639	0.678009
Br75	Br	0.712453	-0.449520	0.419414
Br76	Br	0.360738	-0.239769	0.763028
H77	H	0.356651	-0.404101	0.493889
Br78	Br	0.540176	-0.455976	0.408881
Br79	Br	0.188463	-0.246224	0.752497
