data_functionalizedCrystal
_audit_creation_method	'MofGen! by Chris Wilmer'
_symmetry_space_group_name_H-M	'P1'
_symmetry_Int_Tables_number	1
_symmetry_cell_setting	triclinic
loop_
_symmetry_equiv_pos_as_xyz
  x,y,z
_cell_length_a	34.408637
_cell_length_b	34.407814
_cell_length_c	34.404193
_cell_angle_alpha	60.004510
_cell_angle_beta	60.009006
_cell_angle_gamma	59.994604
loop_
_atom_site_label
_atom_site_type_symbol
_atom_site_fract_x
_atom_site_fract_y
_atom_site_fract_z
O1	O	0.053973	-0.567860	0.474801
O2	O	0.553973	-0.067860	0.974801
O3	O	0.020377	-0.442124	0.382567
O4	O	0.520377	0.057876	0.882567
O5	O	0.100004	-0.521670	0.382483
O6	O	0.600004	-0.021670	0.882483
O7	O	-0.025653	-0.488314	0.474886
O8	O	0.474347	0.011686	0.974886
O9	O	0.126426	-0.495253	0.408816
O10	O	0.626426	0.004747	0.908816
O11	O	0.046800	-0.415707	0.408900
O12	O	0.546800	0.084293	0.908900
O13	O	0.080396	-0.541443	0.501134
O14	O	0.580396	-0.041443	1.001134
Zn15	Zn	0.067793	-0.474381	0.459198
Zn16	Zn	0.567793	0.025619	0.959198
Zn17	Zn	0.032980	-0.509186	0.424503
Zn18	Zn	0.532980	-0.009186	0.924503
O19	O	0.000769	-0.461897	0.501219
O20	O	0.500769	0.038103	1.001219
N21	N	0.091552	-0.450631	0.482879
N22	N	0.591552	0.049369	0.982879
N23	N	0.009225	-0.532940	0.400823
N24	N	0.509225	-0.032940	0.900823
C25	C	0.142848	-0.268847	0.534081
C26	C	0.642848	0.231153	1.034081
C27	C	0.142979	-0.399386	0.664559
C28	C	0.642979	0.100614	1.164559
C29	C	0.142862	-0.399365	0.534081
C30	C	0.642862	0.100635	1.034081
C31	C	0.273409	-0.399338	0.533986
C32	C	0.773409	0.100662	1.033986
C33	C	0.157225	-0.311914	0.548422
C34	C	0.657225	0.188086	1.048422
C35	C	0.157300	-0.385019	0.621491
C36	C	0.657300	0.114981	1.121491
C37	C	0.230339	-0.384991	0.548370
C38	C	0.730339	0.115009	1.048370
C39	C	0.157235	-0.385007	0.548422
C40	C	0.657235	0.114993	1.048422
C41	C	0.124548	-0.214028	0.515827
C42	C	0.624548	0.285972	1.015827
C43	C	0.124571	-0.417639	0.515827
C44	C	0.624571	0.082361	1.015827
C45	C	0.175526	-0.366733	0.566676
C46	C	0.675526	0.133267	1.066676
C47	C	0.353121	-0.385580	0.491988
C48	C	0.853121	0.114420	0.991988
C49	C	0.402952	-0.402180	0.475348
C50	C	0.902952	0.097820	0.975348
C51	C	0.402981	-0.482812	0.506096
C52	C	0.902981	0.017188	1.006096
C53	C	0.353151	-0.466211	0.522737
C54	C	0.853151	0.033789	1.022737
C55	C	0.136544	-0.189099	0.466839
C56	C	0.636544	0.310901	0.966839
C57	C	0.119905	-0.139265	0.450247
C58	C	0.619905	0.360735	0.950247
C59	C	0.079280	-0.139291	0.531632
C60	C	0.579280	0.360709	1.031632
C61	C	0.095918	-0.189125	0.548224
C62	C	0.595918	0.310875	1.048224
C63	C	0.075577	-0.405615	0.527900
C64	C	0.575577	0.094385	1.027900
C65	C	0.058953	-0.422228	0.511301
C66	C	0.558953	0.077772	1.011301
C67	C	0.140315	-0.462889	0.470566
C68	C	0.640315	0.037111	0.970566
C69	C	0.156941	-0.446276	0.487159
C70	C	0.656941	0.053724	0.987159
C71	C	0.075772	-0.405653	0.744326
C72	C	0.575772	0.094347	1.244326
C73	C	0.059206	-0.422280	0.794159
C74	C	0.559206	0.077720	1.294159
C75	C	0.140607	-0.462951	0.794094
C76	C	0.640607	0.037049	1.294094
C77	C	0.157172	-0.446325	0.744260
C78	C	0.657172	0.053675	1.244260
C79	C	0.124753	-0.417674	0.719377
C80	C	0.624753	0.082326	1.219377
C81	C	0.328223	-0.417595	0.515681
C82	C	0.828223	0.082405	1.015681
C83	C	-0.172390	-0.583988	0.349141
C84	C	0.327610	-0.083988	0.849141
C85	C	-0.041751	-0.584138	0.218783
C86	C	0.458249	-0.084138	0.718783
C87	C	-0.041941	-0.584130	0.349402
C88	C	0.458059	-0.084130	0.849402
C89	C	-0.041957	-0.714607	0.349338
C90	C	0.458043	-0.214607	0.849338
C91	C	-0.129326	-0.598388	0.334853
C92	C	0.370674	-0.098388	0.834853
C93	C	-0.056165	-0.598473	0.261852
C94	C	0.443835	-0.098473	0.761852
C95	C	-0.056282	-0.671535	0.334962
C96	C	0.443718	-0.171535	0.834962
C97	C	-0.056272	-0.598469	0.334999
C98	C	0.443728	-0.098469	0.834999
C99	C	-0.227205	-0.565659	0.367327
C100	C	0.272795	-0.065659	0.867327
C101	C	-0.023703	-0.565882	0.367734
C102	C	0.476297	-0.065882	0.867734
C103	C	-0.074511	-0.616717	0.316667
C104	C	0.425489	-0.116717	0.816667
C105	C	-0.055754	-0.794298	0.391257
C106	C	0.444246	-0.294298	0.891257
C107	C	-0.039181	-0.844132	0.407888
C108	C	0.460819	-0.344132	0.907888
C109	C	0.041447	-0.844215	0.377269
C110	C	0.541447	-0.344215	0.877269
C111	C	0.024873	-0.794381	0.360637
C112	C	0.524873	-0.294381	0.860637
C113	C	-0.252183	-0.577666	0.416302
C114	C	0.247817	-0.077666	0.916302
C115	C	-0.302014	-0.561001	0.432833
C116	C	0.197986	-0.061001	0.932833
C117	C	-0.301886	-0.520329	0.351410
C118	C	0.198114	-0.020329	0.851410
C119	C	-0.252055	-0.536994	0.334880
C120	C	0.247945	-0.036994	0.834880
C121	C	-0.035709	-0.516892	0.355682
C122	C	0.464291	-0.016892	0.855682
C123	C	-0.019129	-0.500308	0.372353
C124	C	0.480871	-0.000308	0.872353
C125	C	0.021465	-0.581700	0.413115
C126	C	0.521465	-0.081700	0.913115
C127	C	0.004884	-0.598286	0.396450
C128	C	0.504884	-0.098286	0.896450
C129	C	-0.035389	-0.516907	0.139026
C130	C	0.464611	-0.016907	0.639026
C131	C	-0.018707	-0.500324	0.089193
C132	C	0.481293	-0.000324	0.589193
C133	C	0.021949	-0.581721	0.089240
C134	C	0.521949	-0.081721	0.589240
C135	C	0.005268	-0.598303	0.139074
C136	C	0.505268	-0.098303	0.639074
C137	C	-0.023402	-0.565894	0.163965
C138	C	0.476598	-0.065894	0.663965
C139	C	-0.023728	-0.769425	0.367633
C140	C	0.476272	-0.269425	0.867633
N141	N	0.427173	-0.450553	0.482630
N142	N	0.927173	0.049447	0.982630
O143	O	0.589997	-0.458460	0.365361
O144	O	1.089997	0.041540	0.865361
O145	O	0.590185	-0.550997	0.490963
O146	O	1.090185	-0.050997	0.990963
O147	O	0.590104	-0.550786	0.411309
O148	O	1.090104	-0.050786	0.911309
O149	O	0.590077	-0.458671	0.445016
O150	O	1.090077	0.041329	0.945016
O151	O	0.510940	-0.524462	0.437777
O152	O	1.010940	-0.024462	0.937777
O153	O	0.511020	-0.524674	0.517432
O154	O	1.011020	-0.024674	1.017432
O155	O	0.510832	-0.432136	0.391830
O156	O	1.010832	0.067864	0.891830
Zn157	Zn	0.498357	-0.474225	0.458833
Zn158	Zn	0.998357	0.025775	0.958833
Zn159	Zn	0.602660	-0.508908	0.423960
Zn160	Zn	1.102660	-0.008908	0.923960
O161	O	0.510913	-0.432348	0.471484
O162	O	1.010913	0.067652	0.971484
N163	N	0.673844	-0.532580	0.400158
N164	N	1.173844	-0.032580	0.900158
N165	N	0.091520	-0.115070	0.482873
N166	N	0.591520	0.384930	0.982873
O167	O	-0.025663	0.047841	0.474857
O168	O	0.474337	0.547841	0.974857
O169	O	0.099940	0.047877	0.382299
O170	O	0.599940	0.547877	0.882299
O171	O	0.020247	0.047844	0.382560
O172	O	0.520247	0.547844	0.882560
O173	O	0.054030	0.047874	0.474596
O174	O	0.554030	0.547874	0.974596
O175	O	0.046674	-0.031326	0.408942
O176	O	0.546674	0.468674	0.908942
O177	O	0.126367	-0.031293	0.408680
O178	O	0.626367	0.468707	0.908680
O179	O	0.000764	-0.031329	0.501238
O180	O	0.500764	0.468671	1.001238
Zn181	Zn	0.067761	-0.043881	0.459148
Zn182	Zn	0.567761	0.456119	0.959148
Zn183	Zn	0.032943	0.060429	0.424389
Zn184	Zn	0.532943	0.560429	0.924389
O185	O	0.080457	-0.031296	0.500977
O186	O	0.580457	0.468704	1.000977
N187	N	0.009178	0.131618	0.400665
N188	N	0.509178	0.631618	0.900665
N189	N	0.091852	-0.450680	0.818332
N190	N	0.591852	0.049320	1.318332
O191	O	0.083862	-0.567845	0.981235
O192	O	0.583862	-0.067845	1.481235
O193	O	-0.008657	-0.442198	0.981276
O194	O	0.491343	0.057802	1.481276
O195	O	-0.008441	-0.521875	0.981252
O196	O	0.491559	-0.021875	1.481252
O197	O	0.083646	-0.488168	0.981258
O198	O	0.583646	0.011832	1.481258
O199	O	0.017919	-0.495468	0.902085
O200	O	0.517919	0.004532	1.402085
O201	O	0.017703	-0.415791	0.902109
O202	O	0.517703	0.084209	1.402109
O203	O	0.110222	-0.541438	0.902067
O204	O	0.610222	-0.041438	1.402067
Zn205	Zn	0.068148	-0.474422	0.889518
Zn206	Zn	0.568148	0.025578	1.389518
Zn207	Zn	0.033417	-0.509214	0.993825
Zn208	Zn	0.533417	-0.009214	1.493825
O209	O	0.110006	-0.461761	0.902091
O210	O	0.610006	0.038239	1.402091
N211	N	0.009712	-0.532961	1.065011
N212	N	0.509712	-0.032961	1.565011
C213	C	0.030439	-0.413071	0.383027
C214	C	0.530439	0.086929	0.883027
C215	C	0.129046	-0.511580	0.382922
C216	C	0.629046	-0.011580	0.882922
C217	C	0.070334	-0.570496	0.500675
C218	C	0.570334	-0.070496	1.000675
C219	C	-0.028274	-0.471987	0.500780
C220	C	0.471726	0.028013	1.000780
C221	C	0.550625	-0.550579	0.520021
C222	C	1.050625	-0.050579	1.020021
C223	C	0.550527	-0.550317	0.421379
C224	C	1.050527	-0.050317	0.921379
C225	C	0.550389	-0.432554	0.362773
C226	C	1.050389	0.067446	0.862773
C227	C	0.550491	-0.432816	0.461414
C228	C	1.050491	0.067184	0.961414
C229	C	0.128944	0.008394	0.382712
C230	C	0.628944	0.508394	0.882712
C231	C	0.030287	0.008256	0.383068
C232	C	0.530287	0.508256	0.883068
C233	C	-0.028273	0.008252	0.500793
C234	C	0.471727	0.508252	1.000793
C235	C	0.070417	0.008292	0.500470
C236	C	0.570417	0.508292	1.000470
C237	C	-0.008218	-0.413165	0.941698
C238	C	0.491782	0.086835	1.441698
C239	C	-0.007945	-0.511830	0.941653
C240	C	0.492055	-0.011830	1.441653
C241	C	0.109783	-0.570471	0.941646
C242	C	0.609783	-0.070471	1.441646
C243	C	0.109516	-0.471800	0.941673
C244	C	0.609516	0.028200	1.441673
H245	H	0.019320	-0.412483	0.814467
H246	H	0.519320	0.087517	1.314467
H247	H	-0.064344	0.008241	0.529850
H248	H	0.435656	0.508241	1.029850
O249	O	0.144079	-0.463284	0.941688
O250	O	0.644079	0.036716	1.441688
C251	C	0.224301	-0.494414	0.941633
C252	C	0.724301	0.005586	1.441633
C253	C	0.185198	-0.504126	0.941628
C254	C	0.685198	-0.004126	1.441628
H255	H	0.257559	-0.527424	0.941575
H256	H	0.757559	-0.027424	1.441575
H257	H	0.211154	-0.485376	0.974777
H258	H	0.711154	0.014624	1.474777
H259	H	0.233149	-0.463232	0.908514
H260	H	0.733149	0.036768	1.408514
H261	H	0.176334	-0.535313	0.974725
H262	H	0.676334	-0.035313	1.474725
H263	H	0.198367	-0.513135	0.908463
H264	H	0.698367	-0.013135	1.408463
O265	O	0.021731	0.008268	0.348511
O266	O	0.521731	0.508268	0.848511
C267	C	0.052831	0.008237	0.268322
C268	C	0.552831	0.508237	0.768322
C269	C	0.062580	0.008235	0.307411
C270	C	0.562580	0.508235	0.807411
H271	H	0.085854	0.008200	0.235088
H272	H	0.585854	0.508200	0.735088
H273	H	0.021676	0.041370	0.259408
H274	H	0.521676	0.541370	0.759408
H275	H	0.043753	-0.024895	0.281549
H276	H	0.543753	0.475105	0.781549
H277	H	0.071679	0.041345	0.294217
H278	H	0.571679	0.541345	0.794217
H279	H	0.093722	-0.024920	0.316320
H280	H	0.593722	0.475080	0.816320
O281	O	0.021929	-0.369963	0.348477
O282	O	0.521929	0.130037	0.848477
C283	C	0.044913	-0.299988	0.296448
C284	C	0.544913	0.200012	0.796448
C285	C	0.054595	-0.348793	0.335582
C286	C	0.554595	0.151207	0.835582
H287	H	0.071324	-0.282863	0.286004
H288	H	0.571324	0.217137	0.786004
H289	H	0.007112	-0.276036	0.310344
H290	H	0.507112	0.223964	0.810344
H291	H	0.049153	-0.304951	0.263999
H292	H	0.549153	0.195049	0.763999
H293	H	0.050381	-0.343876	0.368045
H294	H	0.550381	0.156124	0.868045
H295	H	0.092392	-0.372728	0.321648
H296	H	0.592392	0.127272	0.821648
O297	O	0.079095	0.008209	0.534984
O298	O	0.579095	0.508209	1.034984
C299	C	0.127466	-0.032786	0.584981
C300	C	0.627466	0.467214	1.084981
C301	C	0.117684	-0.032755	0.545898
C302	C	0.617684	0.467245	1.045898
H303	H	0.158671	-0.065897	0.593809
H304	H	0.658671	0.434103	1.093809
H305	H	0.094489	-0.032828	0.618262
H306	H	0.594489	0.467172	1.118262
H307	H	0.136500	0.000367	0.571779
H308	H	0.636500	0.500367	1.071779
H309	H	0.108661	-0.065902	0.559054
H310	H	0.608661	0.434098	1.059054
H311	H	0.150669	-0.032688	0.512625
H312	H	0.650669	0.467312	1.012625
O313	O	0.044214	-0.377842	0.720231
O314	O	0.544214	0.122158	1.220231
C315	C	-0.038274	-0.339231	0.725559
C316	C	0.461726	0.160769	1.225559
C317	C	-0.002588	-0.370737	0.752906
C318	C	0.497412	0.129263	1.252906
H319	H	-0.076121	-0.333469	0.751964
H320	H	0.423879	0.166531	1.251964
H321	H	-0.032589	-0.357477	0.702243
H322	H	0.467411	0.142523	1.202243
H323	H	-0.032526	-0.303392	0.702218
H324	H	0.467474	0.196608	1.202218
H325	H	-0.008315	-0.406581	0.776273
H326	H	0.491685	0.093419	1.276273
H327	H	-0.008282	-0.352454	0.776191
H328	H	0.491718	0.147546	1.276191
H329	H	0.167007	-0.486271	0.814352
H330	H	0.667007	0.013729	1.314352
O331	O	0.550455	-0.584798	0.412783
O332	O	1.050455	-0.084798	0.912783
C333	C	0.509444	-0.607537	0.391845
C334	C	1.009444	-0.107537	0.891845
C335	C	0.509460	-0.568452	0.401578
C336	C	1.009460	-0.068452	0.901578
H337	H	0.476308	-0.594332	0.382773
H338	H	0.976308	-0.094332	0.882773
H339	H	0.509467	-0.640798	0.424848
H340	H	1.009467	-0.140798	0.924848
H341	H	0.542567	-0.616407	0.360674
H342	H	1.042567	-0.116407	0.860674
H343	H	0.476343	-0.559541	0.432733
H344	H	0.976343	-0.059541	0.932733
H345	H	0.509462	-0.535215	0.368551
H346	H	1.009462	-0.035215	0.868551
O347	O	0.550339	-0.397950	0.319708
O348	O	1.050339	0.102050	0.819708
C349	C	0.550207	-0.375802	0.241328
C350	C	1.050207	0.124198	0.741328
C351	C	0.550276	-0.415036	0.290072
C352	C	1.050276	0.084964	0.790072
H353	H	0.550146	-0.389598	0.217357
H354	H	1.050146	0.110402	0.717357
H355	H	0.583324	-0.365389	0.224171
H356	H	1.083324	0.134611	0.724171
H357	H	0.517063	-0.343356	0.246383
H358	H	1.017063	0.156644	0.746383
H359	H	0.583398	-0.447508	0.285058
H360	H	1.083398	0.052492	0.785058
H361	H	0.517138	-0.425409	0.307212
H362	H	1.017138	0.074591	0.807212
H363	H	0.550485	-0.403881	0.468626
H364	H	1.050485	0.096119	0.968626
O365	O	0.171905	0.008692	0.348003
O366	O	0.671905	0.508692	0.848003
C367	C	0.250201	0.009082	0.325712
C368	C	0.750201	0.509082	0.825712
C369	C	0.201565	0.008756	0.365058
C370	C	0.701565	0.508756	0.865058
H371	H	0.274198	0.009124	0.339490
H372	H	0.774198	0.509124	0.839490
H373	H	0.245015	0.042295	0.293355
H374	H	0.745015	0.542295	0.793355
H375	H	0.267406	-0.023969	0.315171
H376	H	0.767406	0.476031	0.815171
H377	H	0.184333	0.041784	0.375640
H378	H	0.684333	0.541784	0.875640
H379	H	0.206782	-0.024479	0.397389
H380	H	0.706782	0.475521	0.897389
H381	H	0.197059	-0.456117	0.723950
H382	H	0.697059	0.043883	1.223950
H383	H	-0.036863	-0.519031	0.941619
H384	H	0.463137	-0.019031	1.441619
O385	O	0.044068	-0.377782	0.555722
O386	O	0.544068	0.122218	1.055722
C387	C	-0.038389	-0.339223	0.594393
C388	C	0.461611	0.160777	1.094393
C389	C	-0.002758	-0.370738	0.562872
C390	C	0.497242	0.129262	1.062872
H391	H	-0.076255	-0.333526	0.600192
H392	H	0.423745	0.166474	1.100192
H393	H	-0.032699	-0.303354	0.576141
H394	H	0.467301	0.196646	1.076141
H395	H	-0.032586	-0.357488	0.630213
H396	H	0.467414	0.142512	1.130213
H397	H	-0.008539	-0.352515	0.527047
H398	H	0.491461	0.147485	1.027047
H399	H	-0.008456	-0.406605	0.581161
H400	H	0.491544	0.093395	1.081161
O401	O	0.172098	-0.520133	0.348319
O402	O	0.672098	-0.020133	0.848319
C403	C	0.229388	-0.568256	0.298073
C404	C	0.729388	-0.068256	0.798073
C405	C	0.180629	-0.558628	0.337269
C406	C	0.680629	-0.058628	0.837269
H407	H	0.236297	-0.599372	0.289120
H408	H	0.736297	-0.099372	0.789120
H409	H	0.258475	-0.577323	0.311163
H410	H	0.758475	-0.077323	0.811163
H411	H	0.229474	-0.535173	0.264893
H412	H	0.729474	-0.035173	0.764893
H413	H	0.180497	-0.591695	0.370463
H414	H	0.680497	-0.091695	0.870463
H415	H	0.151564	-0.549541	0.324140
H416	H	0.651564	-0.049541	0.824140
O417	O	-0.042827	-0.370097	0.941733
O418	O	0.457173	0.129903	1.441733
C419	C	-0.064951	-0.291670	0.941727
C420	C	0.435049	0.208330	1.441727
C421	C	-0.025719	-0.340426	0.941698
C422	C	0.474281	0.159574	1.441698
H423	H	-0.051130	-0.267663	0.941689
H424	H	0.448870	0.232337	1.441689
H425	H	-0.097409	-0.296646	0.974869
H426	H	0.402591	0.203354	1.474869
H427	H	-0.075351	-0.274594	0.908606
H428	H	0.424649	0.225406	1.408606
H429	H	-0.015278	-0.357528	0.974796
H430	H	0.484722	0.142472	1.474796
H431	H	0.006713	-0.335418	0.908534
H432	H	0.506713	0.164582	1.408534
H433	H	0.550674	-0.579628	0.556096
H434	H	1.050674	-0.079628	1.056096
H435	H	0.138832	-0.606554	0.941627
H436	H	0.638832	-0.106554	1.441627
H437	H	0.019058	-0.412426	0.521121
H438	H	0.519058	0.087574	1.021121
O439	O	0.078965	-0.613619	0.535177
O440	O	0.578965	-0.113619	1.035177
C441	C	0.135469	-0.691970	0.557067
C442	C	0.635469	-0.191970	1.057067
C443	C	0.125754	-0.643159	0.517949
C444	C	0.625754	-0.143159	1.017949
H445	H	0.173300	-0.715863	0.543157
H446	H	0.673300	-0.215863	1.043157
H447	H	0.109123	-0.709162	0.567486
H448	H	0.609123	-0.209162	1.067486
H449	H	0.131183	-0.687006	0.589537
H450	H	0.631183	-0.187006	1.089537
H451	H	0.130046	-0.648081	0.485454
H452	H	0.630046	-0.148081	0.985454
H453	H	0.152098	-0.625983	0.507570
H454	H	0.652098	-0.125983	1.007570
H455	H	-0.028907	-0.460416	0.362542
H456	H	0.471093	0.039584	0.862542
H457	H	0.166679	-0.486211	0.447227
H458	H	0.666679	0.013789	0.947227
O459	O	0.204545	-0.457928	0.475347
O460	O	0.704545	0.042072	0.975347
C461	C	0.279128	-0.454057	0.412124
C462	C	0.779128	0.045943	0.912124
C463	C	0.225226	-0.440844	0.425436
C464	C	0.725226	0.059156	0.925436
H465	H	0.295864	-0.440242	0.371772
H466	H	0.795864	0.059758	0.871772
H467	H	0.295985	-0.494407	0.425820
H468	H	0.795985	0.005593	0.925820
H469	H	0.285434	-0.437275	0.428934
H470	H	0.785434	0.062725	0.928934
H471	H	0.218878	-0.457595	0.408631
H472	H	0.718878	0.042405	0.908631
H473	H	0.208397	-0.400490	0.411749
H474	H	0.708397	0.099510	0.911749
O475	O	0.328992	-0.497323	0.545674
O476	O	0.828992	0.002677	1.045674
C477	C	0.313778	-0.555935	0.541251
C478	C	0.813778	-0.055935	1.041251
C479	C	0.341157	-0.520707	0.515218
C480	C	0.841157	-0.020707	1.015218
H481	H	0.323612	-0.574858	0.516642
H482	H	0.823612	-0.074858	1.016642
H483	H	0.273874	-0.535748	0.551921
H484	H	0.773874	-0.035748	1.051921
H485	H	0.323606	-0.583304	0.574479
H486	H	0.823606	-0.083304	1.074479
H487	H	0.331369	-0.493329	0.481973
H488	H	0.831369	0.006671	0.981973
H489	H	0.381055	-0.540926	0.504583
H490	H	0.881055	-0.040926	1.004583
O491	O	0.427120	-0.371051	0.452259
O492	O	0.927120	0.128949	0.952259
C493	C	0.442290	-0.301950	0.385104
C494	C	0.942290	0.198050	0.885104
C495	C	0.414898	-0.337176	0.411202
C496	C	0.914898	0.162824	0.911202
H497	H	0.432411	-0.274548	0.351910
H498	H	0.932411	0.225452	0.851910
H499	H	0.482193	-0.322139	0.374383
H500	H	0.982193	0.177861	0.874383
H501	H	0.432519	-0.283067	0.409722
H502	H	0.932519	0.216933	0.909722
H503	H	0.424629	-0.356069	0.386611
H504	H	0.924629	0.143931	0.886611
H505	H	0.375002	-0.316961	0.421931
H506	H	0.875002	0.183039	0.921931
O507	O	0.328883	-0.338347	0.485074
O508	O	0.828883	0.161653	0.985074
C509	C	0.272556	-0.267564	0.450246
C510	C	0.772556	0.232436	0.950246
C511	C	0.299981	-0.321050	0.458032
C512	C	0.799981	0.178950	0.958032
H513	H	0.249175	-0.253565	0.428391
H514	H	0.749175	0.246435	0.928391
H515	H	0.298892	-0.247506	0.430428
H516	H	0.798892	0.252494	0.930428
H517	H	0.249271	-0.262032	0.486189
H518	H	0.749271	0.237968	0.986189
H519	H	0.323267	-0.326626	0.422110
H520	H	0.823267	0.173374	0.922110
H521	H	0.273619	-0.341081	0.477872
H522	H	0.773619	0.158919	0.977872
H523	H	0.423275	-0.522397	0.511838
H524	H	0.923275	-0.022397	1.011838
H525	H	0.129672	-0.118967	0.410356
H526	H	0.629672	0.381033	0.910356
O527	O	0.164331	-0.213214	0.435303
O528	O	0.664331	0.286786	0.935303
C529	C	0.202888	-0.207929	0.352827
C530	C	0.702888	0.292071	0.852827
C531	C	0.171406	-0.180557	0.388488
C532	C	0.671406	0.319443	0.888488
H533	H	0.208625	-0.181538	0.314970
H534	H	0.708625	0.318462	0.814970
H535	H	0.184639	-0.231255	0.358549
H536	H	0.684639	0.268745	0.858549
H537	H	0.238736	-0.231264	0.358568
H538	H	0.738736	0.268736	0.858568
H539	H	0.135551	-0.157197	0.382769
H540	H	0.635551	0.342803	0.882769
H541	H	0.189691	-0.157261	0.382758
H542	H	0.689691	0.342739	0.882758
O543	O	-0.070262	-0.868320	0.430768
O544	O	0.429738	-0.368320	0.930768
C545	C	-0.093027	-0.924572	0.431519
C546	C	0.406973	-0.424572	0.931519
C547	C	-0.057803	-0.897199	0.405550
C548	C	0.442197	-0.397199	0.905550
H549	H	-0.082961	-0.947935	0.411147
H550	H	0.417039	-0.447935	0.911147
H551	H	-0.130618	-0.898198	0.433652
H552	H	0.369382	-0.398198	0.933652
H553	H	-0.091558	-0.947873	0.469009
H554	H	0.408442	-0.447873	0.969009
H555	H	-0.059229	-0.873898	0.368048
H556	H	0.440771	-0.373898	0.868048
H557	H	-0.020227	-0.923599	0.403456
H558	H	0.479773	-0.423599	0.903456
O559	O	0.051529	-0.115153	0.563149
O560	O	0.551529	0.384847	1.063149
C561	C	0.045236	-0.099899	0.627585
C562	C	0.545236	0.400101	1.127585
C563	C	0.076710	-0.127270	0.591923
C564	C	0.576710	0.372730	1.091923
H565	H	0.065585	-0.109678	0.650851
H566	H	0.565585	0.390322	1.150851
H567	H	0.011440	-0.109723	0.650974
H568	H	0.511440	0.390277	1.150974
H569	H	0.035389	-0.060001	0.607303
H570	H	0.535389	0.439999	1.107303
H571	H	0.086592	-0.167174	0.612166
H572	H	0.586592	0.332826	1.112166
H573	H	0.110482	-0.117406	0.568535
H574	H	0.610482	0.382594	1.068535
O575	O	0.084363	-0.213379	0.595802
O576	O	0.584363	0.286621	1.095802
C577	C	0.113094	-0.269583	0.661737
C578	C	0.613094	0.230417	1.161737
C579	C	0.126241	-0.242162	0.607843
C580	C	0.626241	0.257838	1.107843
H581	H	0.146944	-0.292854	0.671490
H582	H	0.646944	0.207146	1.171490
H583	H	0.092834	-0.292968	0.671614
H584	H	0.592834	0.207032	1.171614
H585	H	0.089765	-0.243199	0.682012
H586	H	0.589765	0.256801	1.182012
H587	H	0.149585	-0.268512	0.587531
H588	H	0.649585	0.231488	1.087531
H589	H	0.146477	-0.218770	0.598003
H590	H	0.646477	0.281230	1.098003
H591	H	-0.058738	-0.490513	0.159288
H592	H	0.441262	0.009487	0.659288
O593	O	-0.030443	-0.452731	0.064992
O594	O	0.469557	0.047269	0.564992
C595	C	-0.093569	-0.378054	0.049665
C596	C	0.406431	0.121946	0.549665
C597	C	-0.080346	-0.431948	0.077093
C598	C	0.419654	0.068052	0.577093
H599	H	-0.133917	-0.361233	0.059447
H600	H	0.366083	0.138767	0.559447
H601	H	-0.076760	-0.371736	0.009767
H602	H	0.423240	0.128264	0.509767
H603	H	-0.079816	-0.361288	0.059502
H604	H	0.420184	0.138712	0.559502
H605	H	-0.094097	-0.448750	0.067296
H606	H	0.405903	0.051250	0.567296
H607	H	-0.097149	-0.438232	0.116985
H608	H	0.402851	0.061768	0.616985
O609	O	0.049802	-0.613268	0.065135
O610	O	0.549802	-0.113268	0.565135
C611	C	0.088333	-0.695752	0.070441
C612	C	0.588333	-0.195752	0.570441
C613	C	0.056793	-0.660080	0.097800
C614	C	0.556793	-0.160080	0.597800
H615	H	0.093986	-0.733608	0.096839
H616	H	0.593986	-0.233608	0.596839
H617	H	0.124216	-0.690093	0.047179
H618	H	0.624216	-0.190093	0.547179
H619	H	0.070115	-0.689961	0.047045
H620	H	0.570115	-0.189961	0.547045
H621	H	0.074968	-0.665849	0.121221
H622	H	0.574968	-0.165849	0.621221
H623	H	0.020911	-0.665748	0.121031
H624	H	0.520911	-0.165748	0.621031
H625	H	0.015032	-0.638195	0.159378
H626	H	0.515032	-0.138195	0.659378
H627	H	-0.064365	-0.464880	0.529794
H628	H	0.435635	0.035120	1.029794
H629	H	-0.058984	-0.490504	0.332300
H630	H	0.441016	0.009496	0.832300
H631	H	0.044746	-0.608091	0.436494
H632	H	0.544746	-0.108091	0.936494
H633	H	0.050956	-0.774133	0.341399
H634	H	0.550956	-0.274133	0.841399
O635	O	0.016526	-0.645886	0.408234
O636	O	0.516526	-0.145886	0.908234
C637	C	0.012602	-0.720489	0.471415
C638	C	0.512602	-0.220489	0.971415
C639	C	-0.000605	-0.666592	0.458139
C640	C	0.499395	-0.166592	0.958139
H641	H	-0.001252	-0.737244	0.511762
H642	H	0.498748	-0.237244	1.011762
H643	H	0.052950	-0.737355	0.457760
H644	H	0.552950	-0.237355	0.957760
H645	H	-0.004146	-0.726763	0.454544
H646	H	0.495854	-0.226763	0.954544
H647	H	0.016110	-0.660275	0.475005
H648	H	0.516110	-0.160275	0.975005
H649	H	-0.040958	-0.649752	0.471785
H650	H	0.459042	-0.149752	0.971785
O651	O	0.088676	-0.868384	0.370417
O652	O	0.588676	-0.368384	0.870417
C653	C	0.166897	-0.863210	0.338318
C654	C	0.666897	-0.363210	0.838318
C655	C	0.113425	-0.835777	0.346035
C656	C	0.613425	-0.335777	0.846035
H657	H	0.186921	-0.836859	0.318613
H658	H	0.686921	-0.336859	0.818613
H659	H	0.180976	-0.886536	0.316380
H660	H	0.680976	-0.386536	0.816380
H661	H	0.172376	-0.886552	0.374281
H662	H	0.672376	-0.386552	0.874281
H663	H	0.107906	-0.812410	0.310093
H664	H	0.607906	-0.312410	0.810093
H665	H	0.099372	-0.812482	0.367994
H666	H	0.599372	-0.312482	0.867994
H667	H	-0.095331	-0.773979	0.396956
H668	H	0.404669	-0.273979	0.896956
H669	H	-0.322352	-0.570775	0.472713
H670	H	0.177648	-0.070775	0.972713
O671	O	-0.228120	-0.605488	0.447887
O672	O	0.271880	-0.105488	0.947887
C673	C	-0.233506	-0.644088	0.530393
C674	C	0.266494	-0.144088	1.030393
C675	C	-0.260820	-0.612566	0.494678
C676	C	0.239180	-0.112566	0.994678
H677	H	-0.259932	-0.649828	0.568231
H678	H	0.240068	-0.149828	1.068231
H679	H	-0.210187	-0.625867	0.524735
H680	H	0.289813	-0.125867	1.024735
H681	H	-0.210173	-0.679935	0.524650
H682	H	0.289827	-0.179935	1.024650
H683	H	-0.284178	-0.576713	0.500400
H684	H	0.215822	-0.076713	1.000400
H685	H	-0.284109	-0.630824	0.500345
H686	H	0.215891	-0.130824	1.000345
H687	H	-0.322118	-0.496994	0.324987
H688	H	0.177882	0.003006	0.824987
H689	H	-0.231721	-0.527215	0.295000
H690	H	0.268279	-0.027215	0.795000
