data_functionalizedCrystal
_audit_creation_method	'MofGen! by Chris Wilmer'
_symmetry_space_group_name_H-M	'P1'
_symmetry_Int_Tables_number	1
_symmetry_cell_setting	triclinic
loop_
_symmetry_equiv_pos_as_xyz
  x,y,z
_cell_length_a	10.654550
_cell_length_b	15.944551
_cell_length_c	9.130313
_cell_angle_alpha	89.994529
_cell_angle_beta	89.999724
_cell_angle_gamma	83.991834
loop_
_atom_site_label
_atom_site_type_symbol
_atom_site_fract_x
_atom_site_fract_y
_atom_site_fract_z
O1	O	1.666313	0.117977	-0.121694
O2	O	1.300689	0.129217	-0.121721
O3	O	1.493485	0.001379	-0.121693
O4	O	1.473517	0.245814	-0.121721
O5	O	1.493472	0.001376	0.121906
O6	O	1.300676	0.129213	0.121878
O7	O	1.666300	0.117973	0.121905
Cu8	Cu	1.483487	0.123592	0.144134
Cu9	Cu	1.483502	0.123597	-0.143950
O10	O	1.473503	0.245810	0.121878
C11	C	1.253895	0.128389	0.000075
C12	C	1.114484	0.125920	0.000065
C13	C	1.034024	0.201189	0.000061
C14	C	0.903034	0.198863	0.000087
C15	C	0.932975	0.045995	0.000115
C16	C	1.063963	0.048321	0.000100
C17	C	1.492650	-0.029921	0.000106
C18	C	1.490165	-0.123182	0.000107
C19	C	1.364720	-0.338764	0.000077
C20	C	1.422966	-0.399446	0.120191
C21	C	1.485668	-0.293933	0.000095
C22	C	1.423007	-0.399426	-0.119979
C23	C	1.481317	-0.458871	0.000078
C24	C	1.543947	-0.353387	0.120308
C25	C	1.543972	-0.353360	-0.119969
C26	C	1.602306	-0.414024	0.000173
C27	C	1.488172	-0.198917	0.000107
C28	C	1.478822	-0.553887	0.000077
C29	C	1.713094	0.118800	0.000106
C30	C	1.852505	0.121269	0.000106
C31	C	1.474339	0.277110	0.000075
C32	C	1.476824	0.370371	0.000065
N33	N	1.483485	0.123589	0.346757
N34	N	1.483514	0.123594	-0.346572
C35	C	1.568884	0.067007	0.423421
C36	C	1.568896	0.067007	0.576758
C37	C	1.398106	0.180179	0.576753
C38	C	1.398089	0.180174	0.423419
H39	H	1.264327	-0.306038	0.000190
H40	H	1.328580	0.226250	0.639186
C41	C	1.353855	-0.427023	0.257359
C42	C	1.214799	-0.393635	0.283735
C43	C	1.145680	-0.421208	0.420896
C44	C	1.215617	-0.482170	0.531681
C45	C	1.354681	-0.515562	0.505309
C46	C	1.423800	-0.487989	0.368148
H47	H	1.163021	-0.348504	0.201722
H48	H	1.042735	-0.396489	0.440417
H49	H	1.164451	-0.502582	0.633216
H50	H	1.406460	-0.560693	0.587322
H51	H	1.526745	-0.512708	0.348626
H52	H	0.837528	0.260155	0.000086
H53	H	1.595055	-0.333102	0.221966
H54	H	1.129477	-0.012976	0.000108
H55	H	1.328541	0.226250	0.360995
H56	H	1.075154	0.264375	0.000044
C57	C	0.877395	-0.039360	0.000137
C58	C	0.791464	-0.061980	0.126639
C59	C	0.735887	-0.147337	0.126655
C60	C	0.766240	-0.210073	0.000169
C61	C	0.852175	-0.187455	-0.126343
C62	C	0.907753	-0.102098	-0.126359
H63	H	0.768991	-0.015537	0.220279
H64	H	0.672271	-0.164080	0.220307
H65	H	0.725098	-0.273259	0.000181
H66	H	0.874649	-0.233897	-0.219984
H67	H	0.971368	-0.085355	-0.220012
C68	C	1.738045	-0.458039	0.000269
C69	C	1.783030	-0.518066	0.126192
C70	C	1.918767	-0.562082	0.126296
C71	C	2.009519	-0.546069	0.000477
C72	C	1.964535	-0.486039	-0.125456
C73	C	1.828798	-0.442024	-0.125560
H74	H	1.715849	-0.529922	0.219339
H75	H	1.952067	-0.606520	0.219520
H76	H	2.110000	-0.578652	0.000554
H77	H	2.031717	-0.474184	-0.218603
H78	H	1.795499	-0.397586	-0.218784
C79	C	1.613030	-0.325754	-0.257144
C80	C	1.562266	-0.343621	-0.410688
C81	C	1.631312	-0.316011	-0.547876
C82	C	1.751121	-0.270533	-0.531520
C83	C	1.801891	-0.252664	-0.377969
C84	C	1.732846	-0.280274	-0.240781
H85	H	1.473570	-0.377289	-0.422802
H86	H	1.593728	-0.329240	-0.661545
H87	H	1.802233	-0.250095	-0.633075
H88	H	1.890587	-0.218996	-0.365855
H89	H	1.770430	-0.267045	-0.127112
H90	H	1.371841	-0.419797	-0.221532
H91	H	1.638416	0.020930	0.361006
H92	H	1.638433	0.020931	0.639173
