data_functionalizedCrystal
_audit_creation_method	'MofGen! by Chris Wilmer'
_symmetry_space_group_name_H-M	'P1'
_symmetry_Int_Tables_number	1
_symmetry_cell_setting	triclinic
loop_
_symmetry_equiv_pos_as_xyz
  x,y,z
_cell_length_a	18.050589
_cell_length_b	12.759401
_cell_length_c	12.759393
_cell_angle_alpha	90.020362
_cell_angle_beta	89.969379
_cell_angle_gamma	89.974311
loop_
_atom_site_label
_atom_site_type_symbol
_atom_site_fract_x
_atom_site_fract_y
_atom_site_fract_z
Zn1	Zn	-0.295666	-1.606157	-0.594040
Zn2	Zn	-0.419876	-1.606010	-0.418363
Zn3	Zn	-0.295699	-1.430459	-0.418374
Zn4	Zn	-0.419813	-1.430406	-0.593999
O5	O	-0.357763	-1.518258	-0.506194
O6	O	-0.312155	-1.753158	-0.570749
O7	O	-0.403444	-1.582683	-0.271344
O8	O	-0.191770	-1.453849	-0.441698
O9	O	-0.403412	-1.753050	-0.441680
O10	O	-0.191746	-1.582934	-0.570760
O11	O	-0.312211	-1.453706	-0.271352
O12	O	-0.312150	-1.283431	-0.441658
O13	O	-0.403304	-1.453759	-0.741026
O14	O	-0.403336	-1.283392	-0.570689
O15	O	-0.312094	-1.582882	-0.741056
O16	O	-0.523792	-1.582632	-0.441640
O17	O	-0.523746	-1.453616	-0.570679
C18	C	-0.550716	-1.518131	-0.506177
C19	C	-0.633261	-1.518173	-0.506205
C20	C	-0.357741	-1.245290	-0.506171
C21	C	-0.357749	-1.128514	-0.506186
C22	C	-0.310322	-0.963978	-0.573502
C23	C	-0.310315	-1.073702	-0.573495
C24	C	-0.405198	-1.073595	-0.438888
C25	C	-0.405208	-0.963873	-0.438901
C26	C	-0.262879	-0.909172	-0.640807
C27	C	-0.215431	-0.964083	-0.708107
C28	C	-0.215424	-1.073807	-0.708100
C29	C	-0.262866	-1.128620	-0.640793
C30	C	-0.832714	-1.448083	-0.576351
C31	C	-0.882162	-1.422469	-0.480482
C32	C	-0.784392	-1.518276	-0.506218
C33	C	-0.882026	-1.543942	-0.602098
C34	C	-0.930377	-1.518374	-0.506240
C35	C	-0.832752	-1.492611	-0.410298
C36	C	-0.832612	-1.614129	-0.531979
C37	C	-0.882037	-1.588551	-0.436044
C38	C	-0.700293	-1.518217	-0.506207
C39	C	-1.014473	-1.518433	-0.506240
C40	C	-0.164058	-1.518414	-0.506235
C41	C	-0.081512	-1.518480	-0.506252
C42	C	-0.357689	-1.518331	-0.780228
C43	C	-0.357657	-1.518363	-0.897005
C44	C	-0.357779	-0.792291	-0.506213
C45	C	-0.357766	-0.909068	-0.506206
C46	C	-0.310159	-1.585606	-0.951884
C47	C	-0.310132	-1.585631	-1.061608
C48	C	-0.405107	-1.451166	-1.061564
C49	C	-0.405130	-1.451136	-0.951841
C50	C	-0.262686	-1.652833	-0.897047
C51	C	-0.215185	-1.720083	-0.951927
C52	C	-0.215158	-1.720108	-1.061651
C53	C	-0.262632	-1.652883	-1.116495
C54	C	-0.357784	-1.518245	-0.233227
C55	C	-0.357607	-1.518417	-0.116451
H56	H	-0.176810	-0.919447	-0.762912
C57	C	-0.115321	-1.734733	-0.828563
C58	C	-0.162999	-1.793968	-0.891646
H59	H	-0.083105	-1.780349	-0.791347
H60	H	-0.086902	-1.689000	-0.871371
H61	H	-0.143622	-1.694689	-0.780177
H62	H	-0.134697	-1.834006	-0.940038
H63	H	-0.191420	-1.839719	-0.848835
H64	H	-0.903670	-1.565611	-0.683175
H65	H	-0.811056	-1.388636	-0.635577
H66	H	-0.443843	-0.919164	-0.384105
C67	C	-0.121634	-1.062886	-0.841147
C68	C	-0.163271	-1.134167	-0.782075
H69	H	-0.089432	-1.100151	-0.886810
H70	H	-0.154025	-1.020096	-0.881262
H71	H	-0.093197	-1.020082	-0.795429
H72	H	-0.191713	-1.176966	-0.827793
H73	H	-0.130876	-1.176975	-0.741957
H74	H	-0.903943	-1.341455	-0.458713
C75	C	-0.211200	-1.285858	-0.714073
C76	C	-0.262860	-1.249232	-0.640788
H77	H	-0.211194	-1.360316	-0.714062
H78	H	-0.224104	-1.261061	-0.781832
H79	H	-0.163265	-1.261047	-0.696014
H80	H	-0.310797	-1.274036	-0.658851
H81	H	-0.249961	-1.274039	-0.573014
C82	C	-0.333389	-1.679594	-0.739891
C83	C	-0.262724	-1.652862	-0.776438
H84	H	-0.333414	-1.679635	-0.665432
H85	H	-0.368446	-1.629917	-0.764668
H86	H	-0.346224	-1.747371	-0.764774
H87	H	-0.249891	-1.585082	-0.751560
H88	H	-0.227655	-1.702542	-0.751650
H89	H	-0.176475	-1.774858	-1.106331
H90	H	-0.443795	-1.396364	-0.907157
H91	H	-0.262876	-0.819830	-0.640816
H92	H	-0.443758	-1.396434	-1.106227
C93	C	-0.447305	-1.241747	-0.379094
C94	C	-0.457337	-1.133844	-0.364898
H95	H	-0.479490	-1.278939	-0.333408
H96	H	-0.458233	-1.259752	-0.449647
H97	H	-0.397389	-1.259729	-0.363837
H98	H	-0.507251	-1.115861	-0.380163
H99	H	-0.446413	-1.115832	-0.294329
C100	C	-0.210890	-1.726133	-1.273699
C101	C	-0.262606	-1.652914	-1.237107
H102	H	-0.210881	-1.726160	-1.348158
H103	H	-0.162975	-1.707992	-1.248899
H104	H	-0.223749	-1.793910	-1.248869
H105	H	-0.249744	-1.585136	-1.261931
H106	H	-0.310531	-1.671050	-1.261918
C107	C	-0.726091	-1.463390	-0.301812
C108	C	-0.803661	-1.463222	-0.300818
H109	H	-0.708133	-1.445238	-0.234227
H110	H	-0.708718	-1.531227	-0.320207
H111	H	-0.708817	-1.413805	-0.351667
H112	H	-0.820936	-1.512813	-0.250969
H113	H	-0.821042	-1.395375	-0.282410
H114	H	-0.903558	-1.647952	-0.376676
H115	H	-0.810833	-1.695124	-0.553794
