data_functionalizedCrystal
_audit_creation_method	'MofGen! by Chris Wilmer'
_symmetry_space_group_name_H-M	'P1'
_symmetry_Int_Tables_number	1
_symmetry_cell_setting	triclinic
loop_
_symmetry_equiv_pos_as_xyz
  x,y,z
_cell_length_a	17.639617
_cell_length_b	17.637651
_cell_length_c	19.077174
_cell_angle_alpha	81.471232
_cell_angle_beta	76.058608
_cell_angle_gamma	109.613464
loop_
_atom_site_label
_atom_site_type_symbol
_atom_site_fract_x
_atom_site_fract_y
_atom_site_fract_z
Zn1	Zn	1.216092	-0.096302	-0.599892
Zn2	Zn	1.182619	-0.228618	-0.452319
Zn3	Zn	1.072744	-0.118611	-0.452341
Zn4	Zn	1.048166	-0.259685	-0.540132
O5	O	1.129905	-0.175804	-0.511171
O6	O	1.327913	-0.091516	-0.605317
O7	O	1.164322	-0.210360	-0.353821
O8	O	1.116054	-0.001236	-0.496933
O9	O	1.303321	-0.188728	-0.496896
O10	O	1.221372	0.015154	-0.605338
O11	O	1.083597	-0.129538	-0.353837
O12	O	0.953222	-0.159662	-0.438986
O13	O	1.074164	-0.241678	-0.646561
O14	O	0.935165	-0.263309	-0.503486
O15	O	1.197539	-0.121641	-0.690466
O16	O	1.140489	-0.347155	-0.438949
O17	O	1.041707	-0.369979	-0.503465
C18	C	0.914048	-0.217278	-0.464754
C19	C	0.821700	-0.235042	-0.444909
C20	C	0.581889	-0.040848	-0.662110
C21	C	0.495109	-0.057559	-0.643444
C22	C	0.469555	-0.158608	-0.530453
C23	C	0.556334	-0.141908	-0.549111
C24	C	0.612495	-0.083027	-0.614940
C25	C	0.586939	-0.184087	-0.501942
C26	C	0.673711	-0.167385	-0.520597
C27	C	0.729878	-0.108505	-0.586422
C28	C	0.699267	-0.066325	-0.633596
C29	C	0.530778	-0.242964	-0.436110
C30	C	0.561383	-0.285142	-0.388941
C31	C	0.648156	-0.268445	-0.407598
C32	C	0.704322	-0.209565	-0.473423
C33	C	0.678767	-0.310625	-0.360425
C34	C	0.765539	-0.293923	-0.379080
C35	C	0.791095	-0.192863	-0.492079
C36	C	1.084822	-0.388230	-0.464740
C37	C	1.065612	-0.479093	-0.444916
C38	C	1.276390	-0.735018	-0.662107
C39	C	1.258312	-0.820402	-0.643462
C40	C	1.148713	-0.837560	-0.530508
C41	C	1.166784	-0.752175	-0.549142
C42	C	1.230623	-0.700911	-0.614943
C43	C	1.121017	-0.718067	-0.501977
C44	C	1.139084	-0.632690	-0.520612
C45	C	1.202918	-0.581421	-0.586411
C46	C	1.248690	-0.615534	-0.633578
C47	C	1.057174	-0.769334	-0.436179
C48	C	1.011407	-0.735226	-0.389015
C49	C	1.029478	-0.649847	-0.407647
C50	C	1.093312	-0.598577	-0.473446
C51	C	0.983706	-0.615734	-0.360480
C52	C	1.001773	-0.530357	-0.379115
C53	C	1.111379	-0.513200	-0.492081
C54	C	1.346605	-0.134168	-0.557770
C55	C	1.438950	-0.116426	-0.577627
C56	C	1.136844	-0.182636	-0.694767
C57	C	1.139801	-0.185547	-0.773005
C58	C	1.175188	0.037455	-0.557804
C59	C	1.194485	0.128333	-0.577676
C60	C	1.099163	-0.144836	-0.809770
C61	C	1.101936	-0.147579	-0.883280
C62	C	1.145353	-0.191029	-0.920027
C63	C	1.185992	-0.231745	-0.883256
C64	C	1.183213	-0.229007	-0.809745
C65	C	1.158167	-0.203736	-1.139879
C66	C	1.160945	-0.206469	-1.213396
C67	C	1.076888	-0.122304	-1.213414
C68	C	1.074117	-0.119565	-1.139903
C69	C	1.114752	-0.160285	-1.103138
N70	N	1.148192	-0.193832	-0.995167
N71	N	1.111908	-0.157487	-1.027997
C72	C	1.123054	-0.168930	-0.328312
C73	C	1.120307	-0.165758	-0.250160
H74	H	0.633030	-0.358560	-0.306823
H75	H	1.221338	-0.267128	-0.913180
H76	H	0.515646	-0.333081	-0.335341
H77	H	0.460126	-0.256542	-0.420912
C78	C	1.007056	-0.433056	-0.302913
C79	C	0.951467	-0.492860	-0.327272
H80	H	0.975995	-0.409906	-0.270911
H81	H	1.035211	-0.458387	-0.276536
H82	H	1.047656	-0.390310	-0.344774
H83	H	0.910871	-0.535610	-0.285411
H84	H	0.923298	-0.467530	-0.353649
C85	C	0.731567	-0.395508	-0.265522
C86	C	0.799186	-0.340293	-0.327237
H87	H	0.752341	-0.424137	-0.233519
H88	H	0.704268	-0.365357	-0.239160
H89	H	0.692242	-0.434484	-0.282034
H90	H	0.838509	-0.301313	-0.310725
H91	H	0.826499	-0.370445	-0.353603
C92	C	0.421223	0.033254	-0.656435
C93	C	0.461471	-0.011190	-0.695301
H94	H	0.400463	0.061885	-0.688451
H95	H	0.375357	-0.004202	-0.614572
H96	H	0.460561	0.072232	-0.639934
H97	H	0.422132	-0.050172	-0.711798
H98	H	0.507343	0.026270	-0.737178
H99	H	1.163369	-0.471457	-0.545659
H100	H	0.627619	0.007096	-0.715716
H101	H	1.217627	-0.511902	-0.601582
H102	H	1.295575	-0.848171	-0.681881
C103	C	0.970665	-0.135499	-1.274528
C104	C	1.032212	-0.077555	-1.253822
H105	H	0.943079	-0.107873	-1.299469
H106	H	0.996924	-0.161756	-1.306934
H107	H	0.930244	-0.176158	-1.231219
H108	H	1.072637	-0.036900	-1.297132
H109	H	1.005953	-0.051285	-1.221415
C110	C	1.355219	-0.607141	-0.743378
C111	C	1.318859	-0.559176	-0.705911
H112	H	1.398530	-0.572348	-0.788035
H113	H	1.378833	-0.633169	-0.712312
H114	H	1.312952	-0.648426	-0.755209
H115	H	1.361124	-0.517895	-0.694075
H116	H	1.295245	-0.533134	-0.736984
C117	C	0.986700	-0.151869	-0.705552
C118	C	1.051437	-0.097075	-0.769378
H119	H	0.957238	-0.122382	-0.680616
H120	H	0.948445	-0.194658	-0.719609
H121	H	1.010517	-0.175716	-0.673141
H122	H	1.027619	-0.073232	-0.801792
H123	H	1.089698	-0.054271	-0.755323
C124	C	1.082801	-0.008728	-1.078801
C125	C	1.026388	-0.071808	-1.099509
H126	H	1.053336	0.020758	-1.053867
H127	H	1.106601	-0.032585	-1.046389
H128	H	1.126719	0.028433	-1.122109
H129	H	0.982473	-0.108972	-1.056201
H130	H	1.002575	-0.047950	-1.131922
H131	H	0.931723	-0.657487	-0.306909
C132	C	1.243746	-0.289404	-1.205993
C133	C	1.208669	-0.254237	-1.253788
H134	H	1.273203	-0.318895	-1.230931
H135	H	1.282006	-0.246613	-1.191944
H136	H	1.199813	-0.326567	-1.162697
H137	H	1.252603	-0.217070	-1.297082
H138	H	1.170405	-0.297034	-1.267848
H139	H	1.216313	-0.262151	-0.779815
C140	C	1.072354	-0.976054	-0.451779
C141	C	1.078547	-0.893913	-0.458178
H142	H	1.029041	-1.010840	-0.407122
H143	H	1.058968	-0.994139	-0.493380
H144	H	1.124850	-0.978892	-0.450484
H145	H	1.026052	-0.891074	-0.459479
H146	H	1.091928	-0.875823	-0.416566
H147	H	1.328380	-0.693275	-0.715685
H148	H	1.191244	-0.236904	-1.109949
H149	H	1.042459	-0.838854	-0.421014
H150	H	0.959427	-0.776977	-0.335441
C151	C	1.018586	-0.064097	-0.875920
C152	C	1.057272	-0.102821	-0.923694
H153	H	0.991016	-0.036461	-0.900872
H154	H	0.978157	-0.104755	-0.832625
H155	H	1.060353	-0.024803	-0.861872
H156	H	1.015504	-0.142120	-0.937738
H157	H	1.097704	-0.062159	-0.967002
H158	H	0.836824	-0.144919	-0.545685
H159	H	0.744996	-0.018381	-0.687202
C160	C	0.838362	-0.163046	-0.613993
C161	C	0.825261	-0.090144	-0.606939
H162	H	0.897248	-0.151708	-0.626665
H163	H	0.809305	-0.204138	-0.568039
H164	H	0.817430	-0.182724	-0.652068
H165	H	0.846187	-0.070469	-0.568859
H166	H	0.854329	-0.049038	-0.652898
C167	C	0.325191	-0.229087	-0.451682
C168	C	0.407818	-0.223332	-0.458097
H169	H	0.287079	-0.269051	-0.407015
H170	H	0.322234	-0.176500	-0.450402
H171	H	0.310218	-0.245626	-0.493276
H172	H	0.422792	-0.206786	-0.416506
H173	H	0.410777	-0.275930	-0.459372
