data_functionalizedCrystal
_audit_creation_method	'MofGen! by Chris Wilmer'
_symmetry_space_group_name_H-M	'P1'
_symmetry_Int_Tables_number	1
_symmetry_cell_setting	triclinic
loop_
_symmetry_equiv_pos_as_xyz
  x,y,z
_cell_length_a	15.995350
_cell_length_b	17.699083
_cell_length_c	16.776229
_cell_angle_alpha	90.001114
_cell_angle_beta	89.995580
_cell_angle_gamma	96.612305
loop_
_atom_site_label
_atom_site_type_symbol
_atom_site_fract_x
_atom_site_fract_y
_atom_site_fract_z
O1	O	0.105885	-1.004255	-0.066173
O2	O	0.605885	-0.504255	0.433827
O3	O	0.119661	-0.783899	-0.066198
O4	O	0.619661	-0.283899	0.433802
O5	O	-0.009127	-0.900100	-0.066184
O6	O	0.490873	-0.400100	0.433816
O7	O	0.234673	-0.888053	-0.066187
O8	O	0.734673	-0.388053	0.433813
O9	O	-0.009135	-0.900085	0.066393
O10	O	0.490865	-0.400085	0.566393
O11	O	0.119653	-0.783884	0.066378
O12	O	0.619653	-0.283884	0.566378
O13	O	0.105877	-1.004239	0.066404
O14	O	0.605877	-0.504239	0.566404
Zn15	Zn	0.112764	-0.894059	0.087441
Zn16	Zn	0.612764	-0.394059	0.587441
Zn17	Zn	0.112774	-0.894079	-0.087235
Zn18	Zn	0.612774	-0.394079	0.412765
O19	O	0.234665	-0.888038	0.066390
O20	O	0.734665	-0.388038	0.566390
C21	C	-0.040324	-0.899595	0.000103
C22	C	0.459676	-0.399595	0.500103
C23	C	-0.133272	-0.898101	0.000098
C24	C	0.366728	-0.398101	0.500098
C25	C	0.119163	-0.755694	0.000087
C26	C	0.619163	-0.255694	0.500087
C27	C	0.117683	-0.671673	0.000077
C28	C	0.617683	-0.171673	0.500077
C29	C	0.106375	-1.032445	0.000117
C30	C	0.606375	-0.532445	0.500117
C31	C	0.107856	-1.116465	0.000122
C32	C	0.607856	-0.616465	0.500122
C33	C	-0.471008	-0.892739	0.000100
C34	C	0.028992	-0.392739	0.500100
C35	C	-0.423406	-0.809983	-0.000207
C36	C	0.076594	-0.309983	0.499793
C37	C	-0.326719	-0.811476	0.000092
C38	C	0.173281	-0.311476	0.500092
C39	C	-0.303453	-0.895399	0.000099
C40	C	0.196547	-0.395399	0.500099
C41	C	-0.344618	-0.936209	0.075810
C42	C	0.155382	-0.436209	0.575810
C43	C	-0.441250	-0.934130	0.075873
C44	C	0.058750	-0.434130	0.575873
C45	C	-0.441602	-0.935857	-0.074891
C46	C	0.058398	-0.435857	0.425109
C47	C	-0.344657	-0.935837	-0.075892
C48	C	0.155343	-0.435837	0.424108
C49	C	-0.208759	-0.896907	0.000101
C50	C	0.291241	-0.396907	0.500101
C51	C	-0.565703	-0.891234	0.000104
C52	C	-0.065703	-0.391234	0.500104
C53	C	0.265863	-0.888544	0.000101
C54	C	0.765863	-0.388544	0.500101
C55	C	0.358810	-0.890037	0.000101
C56	C	0.858810	-0.390037	0.500101
N57	N	0.112756	-0.894051	0.206652
N58	N	0.612756	-0.394051	0.706652
C59	C	0.193278	-0.623178	0.000076
C60	C	0.693278	-0.123178	0.500076
C61	C	0.191882	-0.544232	0.000087
C62	C	0.691882	-0.044232	0.500087
C63	C	0.114889	-0.513783	0.000092
C64	C	0.614889	-0.013783	0.500092
C65	C	0.039287	-0.562285	0.000095
C66	C	0.539287	-0.062285	0.500095
C67	C	0.040685	-0.641229	0.000090
C68	C	0.540685	-0.141229	0.500090
C69	C	0.033651	-0.243912	0.000115
C70	C	0.533651	0.256088	0.500115
C71	C	0.032259	-0.164962	0.000117
C72	C	0.532259	0.335038	0.500117
C73	C	0.184848	-0.146916	0.000111
C74	C	0.684848	0.353084	0.500111
C75	C	0.186245	-0.225860	0.000106
C76	C	0.686245	0.274140	0.500106
C77	C	0.110644	-0.274354	0.000114
C78	C	0.610644	0.225646	0.500114
C79	C	0.112159	-0.359956	0.000104
C80	C	0.612159	0.140044	0.500104
C81	C	0.113373	-0.428183	0.000096
C82	C	0.613373	0.071817	0.500096
N83	N	0.112775	-0.894094	-0.206446
N84	N	0.612775	-0.394094	0.293554
C85	C	0.055752	-0.945520	0.248375
C86	C	0.555752	-0.445520	0.748375
C87	C	0.055752	-0.945524	0.331827
C88	C	0.555752	-0.445524	0.831827
C89	C	0.112760	-0.894062	0.373555
C90	C	0.612760	-0.394062	0.873555
C91	C	0.169766	-0.842587	0.331825
C92	C	0.669766	-0.342587	0.831825
C93	C	0.169762	-0.842580	0.248375
C94	C	0.669762	-0.342580	0.748375
C95	C	0.169783	-0.842614	0.668373
C96	C	0.669783	-0.342614	1.168373
C97	C	0.169784	-0.842627	0.751829
C98	C	0.669784	-0.342627	1.251829
C99	C	0.055772	-0.945559	0.751825
C100	C	0.555772	-0.445559	1.251825
C101	C	0.055768	-0.945552	0.668375
C102	C	0.555768	-0.445552	1.168375
C103	C	0.112771	-0.894074	0.626653
C104	C	0.612771	-0.394074	1.126653
C105	C	0.112770	-0.894069	0.536164
C106	C	0.612770	-0.394069	1.036164
C107	C	0.112765	-0.894070	0.464041
C108	C	0.612765	-0.394070	0.964041
H109	H	-0.298228	-0.779397	-0.054181
H110	H	0.201772	-0.279397	0.445819
H111	H	0.255975	-0.647962	0.000071
H112	H	0.755975	-0.147962	0.500071
H113	H	0.216180	-0.800681	0.365805
H114	H	0.716180	-0.300681	0.865805
C115	C	-0.448352	-0.765298	-0.073545
C116	C	0.051648	-0.265298	0.426455
H117	H	-0.488026	-0.796708	-0.104634
H118	H	0.011974	-0.296708	0.395366
H119	H	-0.399744	-0.750081	-0.104724
H120	H	0.100256	-0.250081	0.395276
H121	H	-0.472700	-0.721541	-0.056518
H122	H	0.027300	-0.221541	0.443482
H123	H	-0.027909	-0.283388	0.000121
H124	H	0.472091	0.216612	0.500121
C125	C	0.232470	-0.785966	0.202479
C126	C	0.732470	-0.285966	0.702479
H127	H	0.266428	-0.755323	0.239281
H128	H	0.766428	-0.255323	0.739281
H129	H	0.202392	-0.754461	0.169932
H130	H	0.702392	-0.254461	0.669932
H131	H	0.267289	-0.813192	0.169918
H132	H	0.767289	-0.313192	0.669918
C133	C	0.232490	-0.785998	0.622489
C134	C	0.732490	-0.285998	1.122489
H135	H	0.266448	-0.755358	0.659294
H136	H	0.766448	-0.255358	1.159294
H137	H	0.202417	-0.754489	0.589942
H138	H	0.702417	-0.254489	1.089942
H139	H	0.267310	-0.813223	0.589928
H140	H	0.767310	-0.313223	1.089928
C141	C	-0.449777	-0.765488	0.072724
C142	C	0.050223	-0.265488	0.572724
H143	H	-0.489669	-0.797127	0.103360
H144	H	0.010331	-0.297127	0.603360
H145	H	-0.474232	-0.721922	0.055314
H146	H	0.025768	-0.221922	0.555314
H147	H	-0.401694	-0.749978	0.104501
H148	H	0.098306	-0.249978	0.604501
C149	C	0.232480	-0.786002	0.797728
C150	C	0.732480	-0.286002	1.297728
H151	H	0.266421	-0.755335	0.760929
H152	H	0.766421	-0.255335	1.260929
H153	H	0.267306	-0.813216	0.830279
H154	H	0.767306	-0.313216	1.330279
H155	H	0.202383	-0.754509	0.830285
H156	H	0.702383	-0.254509	1.330285
C157	C	-0.465900	-0.893902	0.152313
C158	C	0.034100	-0.393902	0.652313
H159	H	-0.416879	-0.878979	0.183034
H160	H	0.083121	-0.378979	0.683034
H161	H	-0.503941	-0.927711	0.182587
H162	H	-0.003941	-0.427711	0.682587
H163	H	-0.492072	-0.850184	0.138474
H164	H	0.007928	-0.350184	0.638474
H165	H	0.253440	-0.504750	0.000085
H166	H	0.753440	-0.004750	0.500085
H167	H	0.009354	-0.987473	0.785804
H168	H	0.509354	-0.487473	1.285804
H169	H	-0.298792	-0.779168	0.054450
H170	H	0.201208	-0.279168	0.554450
C171	C	0.270937	-0.259349	0.000104
C172	C	0.770937	0.240651	0.500104
H173	H	0.315760	-0.219160	0.000113
H174	H	0.815760	0.280840	0.500113
H175	H	0.274659	-0.289771	-0.046128
H176	H	0.774659	0.210229	0.453872
H177	H	0.274646	-0.289770	0.046342
H178	H	0.774646	0.210230	0.546342
C179	C	-0.042470	-0.694574	0.000083
C180	C	0.457530	-0.194574	0.500083
H181	H	-0.088525	-0.665134	0.000078
H182	H	0.411475	-0.165134	0.500078
H183	H	-0.045103	-0.725749	0.046312
H184	H	0.454897	-0.225749	0.546312
H185	H	-0.045091	-0.725740	-0.046158
H186	H	0.454909	-0.225740	0.453842
H187	H	-0.462084	-0.908806	-0.132275
H188	H	0.037916	-0.408806	0.367725
C189	C	0.268011	-0.093573	0.000108
C190	C	0.768011	0.406427	0.500108
H191	H	0.314064	-0.123015	0.000094
H192	H	0.814064	0.376985	0.500094
H193	H	0.270644	-0.062402	0.046341
H194	H	0.770644	0.437598	0.546341
H195	H	0.270636	-0.062402	-0.046129
H196	H	0.770636	0.437598	0.453871
C197	C	-0.484986	-1.016203	0.080535
C198	C	0.015014	-0.516203	0.580535
H199	H	-0.443672	-1.050667	0.082389
H200	H	0.056328	-0.550667	0.582389
H201	H	-0.519522	-1.026650	0.034886
H202	H	-0.019522	-0.526650	0.534886
H203	H	-0.518733	-1.021929	0.127224
H204	H	-0.018733	-0.521929	0.627224
H205	H	-0.030442	-0.140174	0.000122
H206	H	0.469558	0.359826	0.500122
C207	C	-0.325703	-1.019497	0.079629
C208	C	0.174297	-0.519497	0.579629
H209	H	-0.292449	-1.030146	0.034979
H210	H	0.207551	-0.530146	0.534979
H211	H	-0.377056	-1.052315	0.078931
H212	H	0.122944	-0.552315	0.578931
H213	H	-0.295915	-1.027409	0.127332
H214	H	0.204085	-0.527409	0.627332
C215	C	-0.045403	-0.528793	0.000099
C216	C	0.454597	-0.028793	0.500099
H217	H	-0.035410	-0.474831	0.000093
H218	H	0.464590	0.025169	0.500093
H219	H	-0.076528	-0.545440	0.046331
H220	H	0.423472	-0.045440	0.546331
H221	H	-0.076517	-0.545439	-0.046140
H222	H	0.423483	-0.045439	0.453860
H223	H	0.009334	-0.987430	0.214406
H224	H	0.509334	-0.487430	0.714406
C225	C	-0.307684	-0.895599	-0.151562
C226	C	0.192316	-0.395599	0.348438
H227	H	-0.332858	-0.920324	-0.197328
H228	H	0.167142	-0.420324	0.302672
H229	H	-0.248616	-0.897636	-0.152952
H230	H	0.251384	-0.397636	0.347048
H231	H	-0.318779	-0.844013	-0.151094
H232	H	0.181221	-0.344013	0.348906
C233	C	-0.306219	-0.897896	0.151918
C234	C	0.193781	-0.397896	0.651918
H235	H	-0.265111	-0.857037	0.137716
H236	H	0.234889	-0.357037	0.637716
H237	H	-0.280556	-0.934038	0.182554
H238	H	0.219444	-0.434038	0.682554
H239	H	-0.349307	-0.878960	0.182430
H240	H	0.150693	-0.378960	0.682430
C241	C	-0.324080	-1.018516	-0.082062
C242	C	0.175920	-0.518516	0.417938
H243	H	-0.289943	-1.029505	-0.038176
H244	H	0.210057	-0.529505	0.461824
H245	H	-0.294745	-1.024932	-0.130381
H246	H	0.205255	-0.524932	0.369619
H247	H	-0.374865	-1.052122	-0.081416
H248	H	0.125135	-0.552122	0.418584
C249	C	-0.484681	-1.018280	-0.075581
C250	C	0.015319	-0.518280	0.424419
H251	H	-0.520419	-1.026407	-0.030416
H252	H	-0.020419	-0.526407	0.469584
H253	H	-0.443089	-1.052473	-0.073917
H254	H	0.056911	-0.552473	0.426083
H255	H	-0.517132	-1.026801	-0.122830
H256	H	-0.017132	-0.526801	0.377170
C257	C	-0.006952	-1.002139	0.377724
C258	C	0.493048	-0.502139	0.877724
H259	H	0.001206	-0.994767	0.433400
H260	H	0.501206	-0.494767	0.933400
H261	H	0.002071	-1.052647	0.364043
H262	H	0.502071	-0.552647	0.864043
H263	H	-0.062825	-0.993916	0.364051
H264	H	0.437175	-0.493916	0.864051
C265	C	-0.006943	-1.002158	0.622479
C266	C	0.493057	-0.502158	1.122479
H267	H	-0.040899	-1.032808	0.659281
H268	H	0.459101	-0.532808	1.159281
H269	H	0.023129	-1.033658	0.589914
H270	H	0.523129	-0.533658	1.089914
H271	H	-0.041763	-0.974923	0.589936
H272	H	0.458237	-0.474923	1.089936
