data_functionalizedCrystal
_audit_creation_method	'MofGen! by Chris Wilmer'
_symmetry_space_group_name_H-M	'P1'
_symmetry_Int_Tables_number	1
_symmetry_cell_setting	triclinic
loop_
_symmetry_equiv_pos_as_xyz
  x,y,z
_cell_length_a	16.956995
_cell_length_b	13.101039
_cell_length_c	16.992695
_cell_angle_alpha	86.408978
_cell_angle_beta	83.361347
_cell_angle_gamma	93.108940
loop_
_atom_site_label
_atom_site_type_symbol
_atom_site_fract_x
_atom_site_fract_y
_atom_site_fract_z
O1	O	1.064197	0.085286	0.027767
O2	O	0.833786	0.085273	0.055181
O3	O	0.948067	0.085271	-0.072609
O4	O	0.949915	0.085287	0.155556
O5	O	0.939868	-0.085159	-0.063426
O6	O	0.825587	-0.085157	0.064364
O7	O	1.055998	-0.085144	0.036950
Zn8	Zn	0.939491	-0.112210	0.052115
Zn9	Zn	0.950293	0.112339	0.040016
O10	O	0.941717	-0.085142	0.164739
C11	C	0.800068	0.000056	0.061176
C12	C	0.711813	0.000051	0.065349
C13	C	0.214504	0.000091	0.096565
C14	C	0.297429	0.000090	0.092638
C15	C	0.343819	0.000077	0.018926
C16	C	0.307281	0.000076	-0.050864
C17	C	0.224358	0.000084	-0.046936
C18	C	0.592352	0.000058	-0.000513
C19	C	0.675280	0.000046	-0.004435
C20	C	0.665422	0.000063	0.139067
C21	C	0.582498	0.000065	0.142988
C22	C	0.545967	0.000069	0.073198
N23	N	0.428582	0.000073	0.014911
N24	N	0.461206	0.000081	0.077214
N25	N	0.932124	-0.265458	0.060371
C26	C	0.922103	-0.474501	0.071611
C27	C	0.967685	-0.525377	0.020515
C28	C	0.962108	-0.641695	0.026769
C29	C	0.927678	-0.358172	0.065358
C30	C	1.089716	0.000075	0.030954
C31	C	1.177971	0.000087	0.026781
C32	C	0.941591	0.000056	-0.097076
C33	C	0.934501	0.000056	-0.183660
N34	N	0.957665	0.265587	0.031753
C35	C	1.002916	0.000059	-0.238335
C36	C	0.996249	0.000068	-0.319690
C37	C	0.921166	0.000067	-0.346368
C38	C	0.852746	0.000068	-0.291687
C39	C	0.859414	0.000066	-0.210334
C40	C	0.893531	0.000080	-0.588176
C41	C	0.886869	0.000079	-0.669535
C42	C	1.030372	0.000081	-0.697533
C43	C	1.037033	0.000073	-0.616176
C44	C	0.968613	0.000079	-0.561503
N45	N	0.914350	0.000074	-0.429526
N46	N	0.975431	0.000080	-0.478347
C47	C	0.948193	0.000075	0.189206
C48	C	0.955284	0.000082	0.275790
H49	H	0.544732	0.000079	0.203013
Br50	Br	0.766562	0.000070	-0.136131
Br51	Br	1.040064	-0.452379	-0.059917
H52	H	1.064056	0.000053	-0.216620
Br53	Br	0.750848	0.000084	-0.327893
H54	H	0.837819	0.000084	-0.543669
H55	H	0.878894	-0.518297	0.120050
H56	H	0.345059	0.000071	-0.110882
H57	H	1.086075	0.000079	-0.742056
Br58	Br	0.542786	0.000093	-0.095231
H59	H	1.051960	0.000068	-0.364204
Br60	Br	0.784963	0.000067	-0.705740
H61	H	0.327170	0.000104	0.149464
H62	H	0.695175	0.000061	0.195887
H63	H	1.098173	0.000074	-0.594462
H64	H	0.176738	0.000094	0.156590
H65	H	0.194615	0.000082	-0.103763
H66	H	0.713050	0.000041	-0.064464
