data_functionalizedCrystal
_audit_creation_method	'MofGen! by Chris Wilmer'
_symmetry_space_group_name_H-M	'P1'
_symmetry_Int_Tables_number	1
_symmetry_cell_setting	triclinic
loop_
_symmetry_equiv_pos_as_xyz
  x,y,z
_cell_length_a	19.121102
_cell_length_b	21.395361
_cell_length_c	21.395355
_cell_angle_alpha	90.021511
_cell_angle_beta	87.537207
_cell_angle_gamma	92.415181
loop_
_atom_site_label
_atom_site_type_symbol
_atom_site_fract_x
_atom_site_fract_y
_atom_site_fract_z
Zn1	Zn	1.073732	0.290447	-0.395057
Zn2	Zn	1.073623	0.395203	-0.290270
Zn3	Zn	0.956271	0.285969	-0.285830
Zn4	Zn	0.956237	0.390711	-0.390549
O5	O	1.014966	0.340582	-0.340426
O6	O	1.172002	0.308097	-0.384902
O7	O	1.058025	0.380718	-0.202002
O8	O	0.971913	0.198887	-0.300347
O9	O	1.171922	0.385060	-0.307915
O10	O	1.058211	0.202177	-0.380596
O11	O	0.971807	0.300465	-0.198739
O12	O	0.857982	0.296109	-0.295976
O13	O	0.971854	0.377405	-0.478826
O14	O	0.857957	0.373063	-0.372912
O15	O	1.058177	0.303742	-0.482138
O16	O	1.057991	0.482282	-0.303544
O17	O	0.971748	0.478983	-0.377218
C18	C	0.832486	0.333613	-0.333473
C19	C	0.754420	0.330647	-0.330514
C20	C	1.014873	0.503367	-0.340388
C21	C	1.014898	0.573009	-0.340395
C22	C	1.015024	0.340572	-0.503852
C23	C	1.015049	0.340568	-0.573494
C24	C	0.717749	0.369380	-0.369117
C25	C	0.644398	0.366584	-0.366339
C26	C	0.607719	0.325059	-0.324954
C27	C	0.644394	0.286322	-0.286349
C28	C	0.717744	0.289115	-0.289131
C29	C	0.386250	0.314617	-0.314558
C30	C	0.312895	0.311828	-0.311778
C31	C	0.312904	0.392090	-0.391769
C32	C	0.386255	0.394881	-0.394544
C33	C	0.422924	0.356142	-0.355942
C34	C	0.532742	0.322202	-0.322112
C35	C	0.497899	0.358996	-0.358787
C36	C	1.198158	0.347579	-0.347407
C37	C	1.276224	0.350561	-0.350381
C38	C	1.015078	0.177163	-0.340479
C39	C	1.015126	0.107524	-0.340502
C40	C	1.059844	0.607421	-0.302075
C41	C	1.059877	0.672857	-0.302090
C42	C	1.014950	0.703879	-0.340418
C43	C	0.970001	0.669459	-0.378746
C44	C	0.969974	0.604024	-0.378734
C45	C	0.951711	0.805183	-0.342925
C46	C	0.951736	0.870617	-0.342932
C47	C	1.015032	0.905703	-0.340458
C48	C	1.078305	0.875347	-0.337964
C49	C	1.078278	0.809912	-0.337952
C50	C	1.014974	0.774832	-0.340436
C51	C	1.060018	1.011069	-0.302153
C52	C	1.060052	1.076507	-0.302173
C53	C	0.970169	1.073107	-0.378825
C54	C	0.970142	1.007670	-0.378808
C55	C	1.015065	0.976655	-0.340469
C56	C	1.059996	0.302209	-0.607933
C57	C	1.059995	0.302182	-0.673368
C58	C	1.015054	0.340525	-0.704363
C59	C	0.970099	0.378886	-0.669916
C60	C	0.970096	0.378907	-0.604481
C61	C	1.009476	0.396728	-0.807813
C62	C	1.009484	0.396708	-0.873247
C63	C	1.015059	0.340459	-0.906184
C64	C	1.020640	0.284229	-0.873680
C65	C	1.020638	0.284250	-0.808246
C66	C	1.015052	0.340506	-0.775315
C67	C	1.060007	0.302068	-1.011575
C68	C	1.060001	0.302040	-1.077012
C69	C	0.970109	0.378749	-1.073558
C70	C	0.970111	0.378772	-1.008123
C71	C	1.015064	0.340432	-0.977135
C72	C	1.014948	0.340549	-0.177638
C73	C	1.015059	0.340382	-0.108001
H74	H	0.747609	0.403196	-0.402815
O75	O	1.004018	0.451423	-0.775917
C76	C	0.999045	0.501040	-0.818632
H77	H	1.022719	0.487126	-0.866170
H78	H	1.028768	0.544327	-0.800841
H79	H	0.941629	0.511789	-0.823426
H80	H	0.933539	0.979650	-0.410009
O81	O	1.103623	0.981003	-0.264829
C82	C	1.088304	0.996445	-0.201790
H83	H	1.061329	1.042951	-0.199453
H84	H	1.139009	1.000588	-0.175664
H85	H	1.052187	0.958285	-0.179277
O86	O	1.103841	1.109845	-0.264985
C87	C	1.173810	1.096428	-0.281427
H88	H	1.175184	1.048965	-0.305576
H89	H	1.205340	1.095352	-0.237441
H90	H	1.197484	1.134117	-0.314557
O91	O	0.533603	0.399249	-0.399021
C92	C	0.576061	0.365252	-0.441175
H93	H	0.587055	0.318153	-0.419585
H94	H	0.627636	0.392745	-0.451474
H95	H	0.547827	0.357368	-0.486551
H96	H	0.900164	0.776622	-0.344942
H97	H	0.933515	0.410011	-0.980082
H98	H	0.933422	0.694721	-0.409954
H99	H	0.933492	0.410142	-0.576441
O100	O	1.004199	0.451329	-0.904846
C101	C	1.063984	0.461666	-0.944991
H102	H	1.109161	0.434637	-0.927005
H103	H	1.079236	0.513751	-0.946306
H104	H	1.051898	0.444970	-0.994124
H105	H	0.933511	0.409962	-1.098793
H106	H	0.283040	0.423628	-0.423198
H107	H	0.502870	0.288393	-0.288415
H108	H	0.283032	0.278006	-0.278081
H109	H	0.614544	0.398125	-0.397774
H110	H	0.416114	0.428697	-0.428243
O111	O	0.926480	0.416222	-0.699953
C112	C	0.941796	0.479259	-0.684557
H113	H	0.968791	0.481603	-0.638082
H114	H	0.891087	0.505417	-0.680372
H115	H	0.977893	0.501731	-0.722766
H116	H	0.900216	0.895328	-0.344957
O117	O	1.139801	0.780523	-0.335561
C118	C	1.195676	0.825515	-0.333363
H119	H	1.179058	0.871529	-0.353777
H120	H	1.242858	0.808353	-0.361806
H121	H	1.210295	0.833044	-0.282731
H122	H	1.096594	0.270943	-0.701414
O123	O	0.421755	0.276962	-0.276998
C124	C	0.373649	0.239703	-0.239887
H125	H	0.321352	0.263378	-0.235684
H126	H	0.394817	0.233745	-0.191338
H127	H	0.365880	0.191859	-0.262630
O128	O	0.608733	0.246071	-0.246083
C129	C	0.566248	0.280063	-0.203947
H130	H	0.588325	0.330244	-0.200818
H131	H	0.565396	0.257295	-0.155740
H132	H	0.510668	0.280136	-0.221209
O133	O	0.753259	0.251470	-0.251564
C134	C	0.705159	0.214210	-0.214449
H135	H	0.652857	0.237878	-0.210251
H136	H	0.726326	0.208262	-0.165899
H137	H	0.697398	0.166362	-0.237185
O138	O	0.926243	0.570687	-0.415975
C139	C	0.886610	0.612096	-0.449824
H140	H	0.884211	0.658666	-0.424078
H141	H	0.831261	0.591121	-0.454356
H142	H	0.912308	0.619985	-0.498408
O143	O	1.103555	0.577394	-0.264823
C144	C	1.143222	0.621804	-0.230994
H145	H	1.145653	0.668525	-0.256758
H146	H	1.198557	0.604970	-0.226458
H147	H	1.117533	0.627827	-0.182411
H148	H	1.096480	0.700881	-0.270886
O149	O	1.103678	0.264904	-0.577930
C150	C	1.143362	0.231053	-0.622365
H151	H	1.114598	0.227772	-0.667906
H152	H	1.150888	0.181980	-0.603752
H153	H	1.196688	0.256033	-0.631367
O154	O	1.139791	0.909445	-0.335679
C155	C	1.148816	0.947607	-0.389372
H156	H	1.116545	0.926660	-0.428401
H157	H	1.206541	0.950488	-0.405253
H158	H	1.130659	0.996529	-0.377881
O159	O	0.926552	1.103331	-0.416001
C160	C	0.936228	1.168466	-0.407810
H161	H	0.959258	1.178291	-0.360352
H162	H	0.883629	1.191371	-0.410026
H163	H	0.973621	1.188407	-0.446429
O164	O	1.026027	0.229574	-0.776767
C165	C	1.030967	0.179921	-0.819864
H166	H	1.007361	0.193835	-0.865604
H167	H	1.001162	0.136679	-0.799814
H168	H	1.088371	0.169098	-0.829022
O169	O	1.025919	0.229582	-0.905684
C170	C	0.966136	0.219225	-0.941243
H171	H	0.920960	0.246270	-0.919788
H172	H	0.950878	0.167140	-0.941392
H173	H	0.978226	0.235887	-0.991302
O174	O	1.103688	0.264763	-0.981567
C175	C	1.143367	0.230906	-1.025999
H176	H	1.114601	0.227622	-1.071539
H177	H	1.150891	0.181835	-1.007383
H178	H	1.196694	0.255883	-1.035005
O179	O	1.103561	0.264700	-1.110489
C180	C	1.063603	0.222699	-1.146813
H181	H	1.008289	0.216726	-1.124971
H182	H	1.089039	0.175453	-1.148528
H183	H	1.061171	0.241956	-1.196313
