data_functionalizedCrystal
_audit_creation_method	'MofGen! by Chris Wilmer'
_symmetry_space_group_name_H-M	'P1'
_symmetry_Int_Tables_number	1
_symmetry_cell_setting	triclinic
loop_
_symmetry_equiv_pos_as_xyz
  x,y,z
_cell_length_a	11.792241
_cell_length_b	10.868271
_cell_length_c	16.109304
_cell_angle_alpha	89.998605
_cell_angle_beta	83.828027
_cell_angle_gamma	90.000156
loop_
_atom_site_label
_atom_site_type_symbol
_atom_site_fract_x
_atom_site_fract_y
_atom_site_fract_z
O1	O	1.505911	0.102195	0.113950
O2	O	1.175467	0.102222	0.125694
O3	O	1.349765	0.102208	-0.001166
O4	O	1.331613	0.102209	0.240810
O5	O	1.349749	-0.102436	-0.001162
O6	O	1.175452	-0.102422	0.125698
O7	O	1.505895	-0.102450	0.113954
Zn8	Zn	1.340671	-0.134928	0.119827
Zn9	Zn	1.340692	0.134700	0.119821
O10	O	1.331598	-0.102436	0.240814
C11	C	1.133175	-0.000096	0.124959
C12	C	1.007181	-0.000085	0.122750
N13	N	1.340665	-0.318942	0.119830
C14	C	1.340674	-0.430280	0.119830
C15	C	1.340689	-0.569957	0.119823
C16	C	0.776504	-0.000121	0.118690
C17	C	0.904869	-0.000101	0.120946
C18	C	1.548188	-0.000129	0.114690
C19	C	1.674182	-0.000132	0.116898
C20	C	1.349022	-0.000111	-0.032142
C21	C	1.346815	-0.000103	-0.124448
N22	N	1.340707	0.318714	0.119812
C23	C	1.341727	0.111445	-0.336811
C24	C	1.339644	0.111444	-0.423541
C25	C	1.339632	-0.111671	-0.423534
C26	C	1.341707	-0.111668	-0.336805
C27	C	1.342761	-0.000107	-0.293446
C28	C	1.338602	-0.000110	-0.466905
C29	C	1.336343	-0.000112	-0.560942
C30	C	1.345017	-0.000104	-0.199404
C31	C	1.332341	-0.000114	0.271791
C32	C	1.334547	-0.000114	0.364096
H33	H	1.338800	0.202281	-0.458845
C34	C	1.342883	-0.232919	-0.289871
C35	C	1.341555	-0.330620	-0.346407
C36	C	1.342647	-0.442327	-0.303203
H37	H	1.277563	-0.237722	-0.249995
H38	H	1.409863	-0.237624	-0.262099
H39	H	1.274582	-0.325917	-0.374165
H40	H	1.406870	-0.325857	-0.386284
H41	H	1.409627	-0.447032	-0.275430
H42	H	1.277326	-0.447117	-0.263328
H43	H	1.341757	-0.508630	-0.341556
H44	H	1.338777	-0.202500	-0.458847
C45	C	1.342615	0.232609	-0.289764
C46	C	1.244505	0.299884	-0.301940
C47	C	1.245269	0.411505	-0.258609
H48	H	1.408341	0.278595	-0.309981
H49	H	1.343937	0.216702	-0.231884
H50	H	1.243194	0.315795	-0.359807
H51	H	1.178763	0.253936	-0.281719
H52	H	1.246591	0.395597	-0.200730
H53	H	1.311000	0.457479	-0.278831
H54	H	1.178699	0.457159	-0.266859
