data_functionalizedCrystal
_audit_creation_method	'MofGen! by Chris Wilmer'
_symmetry_space_group_name_H-M	'P1'
_symmetry_Int_Tables_number	1
_symmetry_cell_setting	triclinic
loop_
_symmetry_equiv_pos_as_xyz
  x,y,z
_cell_length_a	12.645331
_cell_length_b	18.050590
_cell_length_c	12.645323
_cell_angle_alpha	89.969424
_cell_angle_beta	89.984262
_cell_angle_gamma	90.017788
loop_
_atom_site_label
_atom_site_type_symbol
_atom_site_fract_x
_atom_site_fract_y
_atom_site_fract_z
Zn1	Zn	1.620725	-0.295669	-0.599208
Zn2	Zn	1.620604	-0.419868	-0.421930
Zn3	Zn	1.443439	-0.295694	-0.421974
Zn4	Zn	1.443418	-0.419820	-0.599167
O5	O	1.532047	-0.357763	-0.510570
O6	O	1.769056	-0.312153	-0.575691
O7	O	1.597061	-0.403427	-0.273589
O8	O	1.467016	-0.191766	-0.445520
O9	O	1.768967	-0.403402	-0.445446
O10	O	1.597267	-0.191748	-0.575733
O11	O	1.466899	-0.312197	-0.273621
O12	O	1.295089	-0.312151	-0.445480
O13	O	1.466980	-0.403320	-0.747520
O14	O	1.295074	-0.403345	-0.575663
O15	O	1.597247	-0.312107	-0.747550
O16	O	1.597040	-0.523786	-0.445406
O17	O	1.466863	-0.523751	-0.575621
C18	C	1.256617	-0.357746	-0.510573
C19	C	1.138787	-0.357757	-0.510599
C20	C	0.971249	-0.415442	-0.592070
C21	C	1.093809	-0.415255	-0.592411
C22	C	1.094310	-0.279537	-0.541131
C23	C	0.971712	-0.279889	-0.541705
C24	C	0.971541	-0.377661	-0.398337
C25	C	1.094147	-0.379372	-0.398942
C26	C	1.531965	-0.550715	-0.510528
C27	C	1.532027	-0.633261	-0.510545
C28	C	1.602965	-0.832703	-0.439833
C29	C	1.628865	-0.882034	-0.536583
C30	C	1.532087	-0.784391	-0.510587
C31	C	1.506295	-0.882142	-0.413881
C32	C	1.532148	-0.930376	-0.510620
C33	C	1.558037	-0.832634	-0.607388
C34	C	1.435422	-0.832738	-0.484621
C35	C	1.461286	-0.882046	-0.581438
C36	C	1.532055	-0.700293	-0.510567
C37	C	1.532179	-1.014473	-0.510651
C38	C	1.808552	-0.357780	-0.510568
C39	C	1.926382	-0.357788	-0.510567
C40	C	1.532125	-0.357705	-0.787075
C41	C	1.532158	-0.357681	-0.904905
C42	C	1.532157	-0.164057	-0.510636
C43	C	1.532205	-0.081511	-0.510663
C44	C	1.449955	-0.414793	-1.072451
C45	C	1.450170	-0.415075	-0.949891
C46	C	1.643857	-0.378921	-0.949409
C47	C	1.643406	-0.379280	-1.072007
C48	C	1.503718	-0.279009	-1.072118
C49	C	1.501226	-0.279480	-0.949512
C50	C	1.532030	-0.357766	-0.235140
C51	C	1.532202	-0.357582	-0.117311
H52	H	0.942032	-0.235393	-0.485065
H53	H	1.468973	-0.473325	-0.920566
H54	H	1.706765	-0.339419	-1.101683
C55	C	1.049931	-0.291274	-0.263810
C56	C	1.135445	-0.326772	-0.312577
H57	H	1.075423	-0.258794	-0.210496
H58	H	1.011662	-0.263678	-0.315052
H59	H	1.004722	-0.327279	-0.232794
H60	H	1.180650	-0.290767	-0.343600
H61	H	1.173732	-0.354369	-0.261326
C62	C	1.737860	-0.988831	-0.566940
C63	C	1.739249	-0.911266	-0.566290
H64	H	1.806006	-1.006871	-0.585289
H65	H	1.719060	-1.006513	-0.498718
H66	H	1.687583	-1.005712	-0.617269
H67	H	1.789520	-0.894385	-0.515955
H68	H	1.758062	-0.893576	-0.634521
C69	C	1.559468	-0.955248	-0.264405
C70	C	1.476804	-0.911496	-0.303460
H71	H	1.541268	-0.973364	-0.196232
H72	H	1.571192	-0.995783	-0.310809
H73	H	1.622001	-0.926264	-0.259670
H74	H	1.414273	-0.940482	-0.308202
H75	H	1.465067	-0.870955	-0.257043
C76	C	1.401291	-0.543376	-1.073528
C77	C	1.475081	-0.492938	-1.114037
H78	H	1.416803	-0.591618	-1.099209
H79	H	1.404768	-0.543309	-0.998497
H80	H	1.332258	-0.529412	-1.095422
H81	H	1.544113	-0.506899	-1.092137
H82	H	1.471614	-0.493008	-1.189084
C83	C	1.325997	-0.725909	-0.456169
C84	C	1.325063	-0.803475	-0.454914
H85	H	1.257863	-0.707844	-0.437828
H86	H	1.376490	-0.708284	-0.406597
H87	H	1.344255	-0.708995	-0.524943
H88	H	1.306812	-0.820388	-0.386138
H89	H	1.274554	-0.821107	-0.504489
C90	C	1.631768	-0.760824	-0.282737
C91	C	1.683898	-0.803450	-0.359137
H92	H	1.681735	-0.742768	-0.232920
H93	H	1.597443	-0.720249	-0.316041
H94	H	1.580784	-0.790553	-0.247424
H95	H	1.734877	-0.773719	-0.394457
H96	H	1.718241	-0.844031	-0.325830
H97	H	0.942525	-0.335666	-0.337609
H98	H	1.125036	-0.262373	-0.622288
C99	C	1.270571	-0.386023	-0.995359
C100	C	1.338357	-0.397128	-0.909262
H101	H	1.201539	-0.374948	-0.970278
H102	H	1.295866	-0.345924	-1.036948
H103	H	1.268324	-0.429673	-1.037232
H104	H	1.340611	-0.353477	-0.867393
H105	H	1.313056	-0.437231	-0.867655
H106	H	1.123880	-0.473260	-0.573274
H107	H	1.579796	-0.810980	-0.689255
C108	C	1.093188	-0.475880	-0.268199
C109	C	1.133384	-0.457079	-0.367854
H110	H	1.117412	-0.523855	-0.249014
H111	H	1.116784	-0.440824	-0.217421
H112	H	1.018105	-0.475723	-0.270583
H113	H	1.208468	-0.457231	-0.365468
H114	H	1.109794	-0.492145	-0.418645
C115	C	1.407700	-0.885988	-0.763489
C116	C	1.380406	-0.911119	-0.662318
H117	H	1.357774	-0.903942	-0.813422
H118	H	1.407648	-0.833371	-0.764314
H119	H	1.476183	-0.903619	-0.781351
H120	H	1.311926	-0.893483	-0.644453
H121	H	1.380447	-0.963747	-0.661490
H122	H	1.556755	-0.234601	-0.918890
C123	C	1.695731	-0.502515	-1.023324
C124	C	1.675988	-0.456819	-1.110624
H125	H	1.715837	-0.550387	-1.047163
H126	H	1.751181	-0.481871	-0.982125
H127	H	1.633555	-0.506285	-0.981486
H128	H	1.738166	-0.453045	-1.152458
H129	H	1.620533	-0.477468	-1.151840
C130	C	1.244169	-0.397279	-0.705546
C131	C	1.133441	-0.397520	-0.704675
H132	H	1.268634	-0.386340	-0.774861
H133	H	1.269418	-0.360748	-0.657769
H134	H	1.269549	-0.444592	-0.684614
H135	H	1.108061	-0.350205	-0.725599
H136	H	1.108182	-0.434053	-0.752469
H137	H	1.366880	-0.401628	-1.101936
H138	H	1.706781	-0.338570	-0.920272
C139	C	1.408506	-0.186640	-1.170121
C140	C	1.395676	-0.252865	-1.113843
H141	H	1.341803	-0.170507	-1.195886
H142	H	1.437287	-0.149899	-1.124727
H143	H	1.455116	-0.194605	-1.227931
H144	H	1.349072	-0.244898	-1.056028
H145	H	1.366880	-0.289613	-1.159241
C146	C	1.363353	-0.188053	-0.950417
C147	C	1.390259	-0.257849	-0.910250
H148	H	1.294843	-0.174704	-0.926179
H149	H	1.413339	-0.152429	-0.926815
H150	H	1.363613	-0.189696	-1.025501
H151	H	1.390006	-0.256204	-0.835165
H152	H	1.340260	-0.293482	-0.933846
C153	C	0.866051	-0.491600	-0.477215
C154	C	0.931428	-0.494007	-0.566536
H155	H	0.841458	-0.540105	-0.461457
H156	H	0.904942	-0.472928	-0.418763
H157	H	0.807403	-0.460144	-0.490858
H158	H	0.990081	-0.525459	-0.552890
H159	H	0.892536	-0.512690	-0.625001
C160	C	1.635357	-0.189164	-1.024382
C161	C	1.584582	-0.221465	-1.111285
H162	H	1.685285	-0.153647	-1.048568
H163	H	1.584459	-0.165484	-0.980709
H164	H	1.670777	-0.226454	-0.984941
H165	H	1.549156	-0.184175	-1.150722
H166	H	1.635489	-0.245145	-1.154975
H167	H	0.940458	-0.402459	-0.674745
H168	H	1.668414	-0.435758	-0.918709
H169	H	0.943138	-0.263032	-0.623751
H170	H	1.123444	-0.235413	-0.483623
H171	H	0.940618	-0.433727	-0.370587
