data_functionalizedCrystal
_audit_creation_method	'MofGen! by Chris Wilmer'
_symmetry_space_group_name_H-M	'P1'
_symmetry_Int_Tables_number	1
_symmetry_cell_setting	triclinic
loop_
_symmetry_equiv_pos_as_xyz
  x,y,z
_cell_length_a	19.188933
_cell_length_b	19.188930
_cell_length_c	17.666332
_cell_angle_alpha	89.989930
_cell_angle_beta	89.991845
_cell_angle_gamma	83.145175
loop_
_atom_site_label
_atom_site_type_symbol
_atom_site_fract_x
_atom_site_fract_y
_atom_site_fract_z
O1	O	0.926149	0.087174	-0.062932
O2	O	1.426149	0.587174	0.437068
O3	O	0.722838	0.098906	-0.062940
O4	O	1.222838	0.598906	0.437060
O5	O	0.830361	-0.008616	-0.062921
O6	O	1.330361	0.491384	0.437079
O7	O	0.818626	0.194696	-0.062951
O8	O	1.318626	0.694696	0.437049
O9	O	0.830341	-0.008618	0.062976
O10	O	1.330341	0.491382	0.562976
O11	O	0.722818	0.098904	0.062957
O12	O	1.222818	0.598904	0.562957
O13	O	0.926129	0.087171	0.062965
O14	O	1.426129	0.587171	0.562965
Cu15	Cu	0.824472	0.093037	0.074456
Cu16	Cu	1.324472	0.593037	0.574456
Cu17	Cu	0.824495	0.093040	-0.074431
Cu18	Cu	1.324495	0.593040	0.425569
O19	O	0.818607	0.194693	0.062946
O20	O	1.318607	0.694693	0.562946
C21	C	0.696817	0.098525	0.000008
C22	C	1.196817	0.598525	0.500008
C23	C	0.619313	0.097384	0.000005
C24	C	1.119313	0.597384	0.500005
C25	C	0.066068	0.089240	-0.068612
C26	C	0.566068	0.589240	0.431388
C27	C	0.138892	0.090308	-0.068615
C28	C	0.638892	0.590308	0.431385
C29	C	0.175299	0.090844	0.000011
C30	C	0.675299	0.590844	0.500011
C31	C	0.138877	0.090294	0.068645
C32	C	0.638877	0.590294	0.568645
C33	C	0.066055	0.089219	0.068647
C34	C	0.566055	0.589219	0.568647
N35	N	0.284311	0.132262	0.051087
N36	N	0.784311	0.632262	0.551087
N37	N	0.353488	0.133284	0.051081
N38	N	0.853488	0.633284	0.551081
C39	C	0.394707	0.094082	0.000012
C40	C	0.894707	0.594082	0.500012
N41	N	0.364134	0.053827	-0.051062
N42	N	0.864134	0.553827	0.448938
N43	N	0.294950	0.052807	-0.051059
N44	N	0.794950	0.552807	0.448941
C45	C	0.254262	0.092009	0.000018
C46	C	0.754262	0.592009	0.500018
C47	C	0.510085	0.095785	-0.068621
C48	C	1.010085	0.595785	0.431379
C49	C	0.582911	0.096849	-0.068621
C50	C	1.082911	0.596849	0.431379
C51	C	0.582894	0.096842	0.068641
C52	C	1.082894	0.596842	0.568641
C53	C	0.510070	0.095771	0.068639
C54	C	1.010070	0.595771	0.568639
C55	C	0.473669	0.095246	0.000006
C56	C	0.973669	0.595246	0.500006
C57	C	0.829971	-0.034628	0.000030
C58	C	1.329971	0.465372	0.500030
C59	C	0.828830	-0.112132	0.000036
C60	C	1.328830	0.387868	0.500036
C61	C	0.891921	-0.157056	0.000043
C62	C	1.391921	0.342944	0.500043
C63	C	0.890849	-0.229880	0.000030
C64	C	1.390849	0.270120	0.500030
C65	C	0.826683	-0.257777	0.000027
C66	C	1.326683	0.242223	0.500027
C67	C	0.763584	-0.212843	0.000017
C68	C	1.263584	0.287157	0.500017
C69	C	0.764658	-0.140021	0.000021
C70	C	1.264658	0.359979	0.500021
N71	N	0.777629	-0.365783	0.042870
N72	N	1.277629	0.134217	0.542870
N73	N	0.776614	-0.434961	0.042868
N74	N	1.276614	0.065039	0.542868
C75	C	0.823445	-0.477185	0.000012
C76	C	1.323445	0.022815	0.500012
N77	N	0.871341	-0.447619	-0.042832
N78	N	1.371341	0.052381	0.457168
N79	N	0.872358	-0.378434	-0.042826
N80	N	1.372358	0.121566	0.457174
C81	C	0.825512	-0.336739	0.000022
C82	C	1.325512	0.163261	0.500022
C83	C	0.885378	-0.601073	0.000004
C84	C	1.385378	-0.101073	0.500004
C85	C	0.884304	-0.673898	-0.000013
C86	C	1.384304	-0.173898	0.499987
C87	C	0.757037	-0.656860	-0.000019
C88	C	1.257037	-0.156860	0.499981
C89	C	0.758113	-0.584037	-0.000010
C90	C	1.258113	-0.084037	0.499990
C91	C	0.822286	-0.556148	0.000005
C92	C	1.322286	-0.056148	0.500005
C93	C	0.952150	0.087553	0.000016
C94	C	1.452150	0.587553	0.500016
C95	C	1.029655	0.088694	0.000013
C96	C	1.529655	0.588694	0.500013
C97	C	0.818997	0.220705	-0.000006
C98	C	1.318997	0.720705	0.499994
C99	C	0.820137	0.298210	-0.000018
C100	C	1.320137	0.798210	0.499982
N101	N	0.824461	0.093035	0.179176
N102	N	1.324461	0.593035	0.679176
C103	C	0.866670	0.135281	0.218774
C104	C	1.366670	0.635281	0.718774
C105	C	0.866680	0.135279	0.298022
C106	C	1.366680	0.635279	0.798022
C107	C	0.824469	0.093040	0.337668
C108	C	1.324469	0.593040	0.837668
C109	C	0.782258	0.050785	0.298060
C110	C	1.282258	0.550785	0.798060
C111	C	0.782254	0.050783	0.218814
C112	C	1.282254	0.550783	0.718814
N113	N	0.763320	0.091320	0.462106
N114	N	1.263320	0.591320	0.962106
N115	N	0.763326	0.091326	0.537386
N116	N	1.263326	0.591326	1.037386
C117	C	0.824481	0.093043	0.576432
C118	C	1.324481	0.593043	1.076432
N119	N	0.885630	0.094768	0.537354
N120	N	1.385630	0.594768	1.037354
N121	N	0.885623	0.094765	0.462066
N122	N	1.385623	0.594765	0.962066
C123	C	0.824470	0.093037	0.423597
C124	C	1.324470	0.593037	0.923597
C125	C	0.866705	0.135290	0.701960
C126	C	1.366705	0.635290	1.201960
C127	C	0.866717	0.135283	0.781209
C128	C	1.366717	0.635283	1.281209
C129	C	0.782288	0.050793	0.781245
C130	C	1.282288	0.550793	1.281245
C131	C	0.782282	0.050796	0.701998
C132	C	1.282282	0.550796	1.201998
C133	C	0.824490	0.093048	0.662360
C134	C	1.324490	0.593048	1.162360
N135	N	0.824506	0.093042	0.820850
N136	N	1.324506	0.593042	1.320850
H137	H	0.036407	0.088777	0.124531
H138	H	0.536407	0.588777	0.624531
H139	H	0.935682	-0.710475	-0.000012
H140	H	1.435682	-0.210475	0.499988
H141	H	0.612559	0.097288	-0.124507
H142	H	1.112559	0.597288	0.375493
C143	C	0.959276	-0.278781	0.000006
C144	C	1.459276	0.221219	0.500006
C145	C	0.944599	-0.348525	-0.000017
C146	C	1.444599	0.151475	0.499983
C147	C	1.007615	-0.393590	-0.000048
C148	C	1.507615	0.106410	0.499952
H149	H	0.985636	-0.270445	0.043903
H150	H	1.485636	0.229555	0.543903
H151	H	0.985617	-0.270384	-0.043909
H152	H	1.485617	0.229616	0.456091
H153	H	0.918270	-0.356919	0.043894
H154	H	1.418270	0.143081	0.543894
H155	H	0.918250	-0.356883	-0.043910
H156	H	1.418250	0.143117	0.456090
H157	H	1.033956	-0.385192	-0.043963
H158	H	1.533956	0.114808	0.456037
H159	H	1.033970	-0.385247	0.043850
H160	H	1.533970	0.114753	0.543850
H161	H	0.997666	-0.440915	-0.000070
H162	H	1.497666	0.059085	0.499930
C163	C	0.470690	0.095178	-0.143212
C164	C	0.970690	0.595178	0.356788
C165	C	0.518174	0.095862	-0.203315
C166	C	1.018174	0.595862	0.296685
C167	C	0.481912	0.095295	-0.272039
C168	C	0.981912	0.595295	0.227961
H169	H	0.436835	0.135457	-0.146175
H170	H	0.936835	0.635457	0.353825
H171	H	0.447745	0.054040	-0.146104
H172	H	0.947745	0.554040	0.353896
H173	H	0.541107	0.136996	-0.200425
H174	H	1.041107	0.636996	0.299575
H175	H	0.552029	0.055586	-0.200377
H176	H	1.052029	0.555586	0.299623
H177	H	0.458966	0.054157	-0.274930
H178	H	0.958966	0.554157	0.225070
H179	H	0.448058	0.135575	-0.274993
H180	H	0.948058	0.635575	0.225007
H181	H	0.514124	0.095753	-0.312826
H182	H	1.014124	0.595753	0.187174
C183	C	0.178383	0.091055	-0.143148
C184	C	0.678383	0.591055	0.356852
C185	C	0.152645	0.150866	-0.184538
C186	C	0.652645	0.650866	0.315462
C187	C	0.189011	0.151586	-0.253195
C188	C	0.689011	0.651586	0.246805
H189	H	0.171931	0.050227	-0.171443
H190	H	0.671931	0.550227	0.328557
H191	H	0.226967	0.091811	-0.133346
H192	H	0.726967	0.591811	0.366654
H193	H	0.104072	0.150103	-0.194342
H194	H	0.604072	0.650103	0.305658
H195	H	0.159097	0.191703	-0.156265
H196	H	0.659097	0.691703	0.343735
H197	H	0.237595	0.152342	-0.243393
H198	H	0.737595	0.652342	0.256607
H199	H	0.182557	0.110755	-0.281484
H200	H	0.682557	0.610755	0.218516
H201	H	0.171557	0.192170	-0.281284
H202	H	0.671557	0.692170	0.218716
C203	C	0.736449	0.005000	0.341235
C204	C	1.236449	0.505000	0.841235
C205	C	0.745430	0.014097	0.419113
C206	C	1.245430	0.514097	0.919113
C207	C	0.703236	-0.028066	0.458907
C208	C	1.203236	0.471934	0.958907
H209	H	0.749550	-0.042834	0.328378
H210	H	1.249550	0.457166	0.828378
H211	H	0.688626	0.018074	0.328268
H212	H	1.188626	0.518074	0.828268
H213	H	0.793242	0.001018	0.432075
H214	H	1.293242	0.501018	0.932075
H215	H	0.732324	0.061922	0.431993
H216	H	1.232324	0.561922	0.931993
H217	H	0.655413	-0.014992	0.445940
H218	H	1.155413	0.485008	0.945940
H219	H	0.716341	-0.075898	0.446044
H220	H	1.216341	0.424102	0.946044
H221	H	0.709319	-0.021895	0.511751
H222	H	1.209319	0.478105	1.011751
H223	H	0.706738	-0.547459	-0.000011
H224	H	1.206738	-0.047459	0.499989
C225	C	0.736345	0.004895	0.175953
C226	C	1.236345	0.504895	0.675953
C227	C	0.699368	-0.032088	0.227630
C228	C	1.199368	0.467912	0.727630
C229	C	0.657062	-0.074358	0.188173
C230	C	1.157062	0.425642	0.688173
H231	H	0.764978	-0.027365	0.145034
H232	H	1.264978	0.472635	0.645034
H233	H	0.704085	0.033574	0.145059
H234	H	1.204085	0.533574	0.645059
H235	H	0.731624	-0.060765	0.258511
H236	H	1.231624	0.439235	0.758511
H237	H	0.670722	0.000154	0.258551
H238	H	1.170722	0.500154	0.758551
H239	H	0.624802	-0.045679	0.157279
H240	H	1.124802	0.454321	0.657279
H241	H	0.685700	-0.106614	0.157256
H242	H	1.185700	0.393386	0.657256
H243	H	0.631963	-0.099451	0.223230
H244	H	1.131963	0.400549	0.723230
H245	H	0.901073	0.169693	0.669685
H246	H	1.401073	0.669693	1.169685
C247	C	0.736372	0.004912	0.659137
C248	C	1.236372	0.504912	1.159137
C249	C	0.699393	-0.032067	0.710815
C250	C	1.199393	0.467933	1.210815
C251	C	0.657086	-0.074338	0.671360
C252	C	1.157086	0.425662	1.171360
H253	H	0.765005	-0.027350	0.628220
H254	H	1.265005	0.472650	1.128220
H255	H	0.704114	0.033591	0.628240
H256	H	1.204114	0.533591	1.128240
H257	H	0.731648	-0.060743	0.741698
H258	H	1.231648	0.439257	1.241698
H259	H	0.670747	0.000177	0.741733
H260	H	1.170747	0.500177	1.241733
H261	H	0.624828	-0.045660	0.640463
H262	H	1.124828	0.454340	1.140463
H263	H	0.685725	-0.106596	0.640444
H264	H	1.185725	0.393404	1.140444
H265	H	0.631986	-0.099429	0.706417
H266	H	1.131986	0.400571	1.206417
H267	H	0.704792	-0.679573	-0.000025
H268	H	1.204792	-0.179573	0.499975
H269	H	0.711340	-0.235562	0.000013
H270	H	1.211340	0.264438	0.500013
C271	C	0.912453	0.181265	0.175841
C272	C	1.412453	0.681265	0.675841
C273	C	0.892985	0.251669	0.195123
C274	C	1.392985	0.751669	0.695123
C275	C	0.935152	0.294048	0.155596
C276	C	1.435152	0.794048	0.655596
H277	H	0.906449	0.175311	0.122960
H278	H	1.406449	0.675311	0.622960
H279	H	0.960272	0.168217	0.188842
H280	H	1.460272	0.668217	0.688842
H281	H	0.845178	0.264713	0.182117
H282	H	1.345178	0.764713	0.682117
H283	H	0.898992	0.257645	0.247997
H284	H	1.398992	0.757645	0.747997
H285	H	0.982971	0.280999	0.168597
H286	H	1.482971	0.780999	0.668597
H287	H	0.929145	0.288087	0.102717
H288	H	1.429145	0.788087	0.602717
H289	H	0.921953	0.341820	0.168679
H290	H	1.421953	0.841820	0.668679
C291	C	0.912569	0.181228	0.824068
C292	C	1.412569	0.681228	1.324068
C293	C	0.949513	0.218242	0.772389
C294	C	1.449513	0.718242	1.272389
C295	C	0.991752	0.260581	0.811844
C296	C	1.491752	0.760581	1.311844
H297	H	0.944852	0.152615	0.854983
H298	H	1.444852	0.652615	1.354983
H299	H	0.883871	0.213466	0.854967
H300	H	1.383871	0.713466	1.354967
H301	H	0.978209	0.186008	0.741504
H302	H	1.478209	0.686008	1.241504
H303	H	0.917248	0.246868	0.741473
H304	H	1.417248	0.746868	1.241473
H305	H	0.963054	0.292819	0.842743
H306	H	1.463054	0.792819	1.342743
H307	H	1.024031	0.231963	0.842757
H308	H	1.524031	0.731963	1.342757
H309	H	1.016819	0.285705	0.776786
H310	H	1.516819	0.785705	1.276786
H311	H	0.036436	0.088810	-0.124498
H312	H	0.536436	0.588810	0.375502
C313	C	0.912622	0.181104	0.340932
C314	C	1.412622	0.681104	0.840932
C315	C	0.983035	0.161691	0.321636
C316	C	1.483035	0.661691	0.821636
C317	C	1.025375	0.203895	0.361139
C318	C	1.525375	0.703895	0.861139
H319	H	0.906670	0.175092	0.393816
H320	H	1.406670	0.675092	0.893816
H321	H	0.899537	0.228917	0.327920
H322	H	1.399537	0.728917	0.827920
H323	H	0.996116	0.113889	0.334652
H324	H	1.496116	0.613889	0.834652
H325	H	0.989010	0.167705	0.268758
H326	H	1.489010	0.667705	0.768758
H327	H	1.012290	0.251708	0.348128
H328	H	1.512290	0.751708	0.848128
H329	H	1.019416	0.197880	0.414021
H330	H	1.519416	0.697880	0.914021
H331	H	1.073154	0.190734	0.348047
H332	H	1.573154	0.690734	0.848047
H333	H	0.168524	0.090729	0.124521
H334	H	0.668524	0.590729	0.624521
H335	H	0.937631	-0.578365	0.000012
H336	H	1.437631	-0.078365	0.500012
C337	C	0.961570	-0.126735	0.000204
C338	C	1.461570	0.373265	0.500204
C339	C	0.965903	-0.085450	0.064985
C340	C	1.465903	0.414550	0.564985
C341	C	1.030056	-0.057513	0.065162
C342	C	1.530056	0.442487	0.565162
H343	H	0.964709	-0.098627	-0.043647
H344	H	1.464709	0.401373	0.456353
H345	H	0.999014	-0.163904	0.000245
H346	H	1.499014	0.336096	0.500245
H347	H	0.928469	-0.048287	0.064937
H348	H	1.428469	0.451713	0.564937
H349	H	0.962776	-0.113543	0.108847
H350	H	1.462776	0.386457	0.608847
H351	H	1.067500	-0.094681	0.065203
H352	H	1.567500	0.405319	0.565203
H353	H	1.033190	-0.029408	0.021308
H354	H	1.533190	0.470592	0.521308
H355	H	1.033007	-0.029503	0.109118
H356	H	1.533007	0.470497	0.609118
H357	H	0.480421	0.095329	0.124521
H358	H	0.980421	0.595329	0.624521
C359	C	0.622309	0.097530	0.143206
C360	C	1.122309	0.597530	0.643206
C361	C	0.596541	0.157311	0.184615
C362	C	1.096541	0.657311	0.684615
C363	C	0.632832	0.157960	0.253314
C364	C	1.132832	0.657960	0.753314
H365	H	0.670901	0.098283	0.133484
H366	H	1.170901	0.598283	0.633484
H367	H	0.615802	0.056666	0.171449
H368	H	1.115802	0.556666	0.671449
H369	H	0.603054	0.198164	0.156378
H370	H	1.103054	0.698164	0.656378
H371	H	0.547954	0.156571	0.194357
H372	H	1.047954	0.656571	0.694357
H373	H	0.626325	0.117097	0.281557
H374	H	1.126325	0.617097	0.781557
H375	H	0.681422	0.158711	0.243585
H376	H	1.181422	0.658711	0.743585
H377	H	0.615349	0.198517	0.281421
H378	H	1.115349	0.698517	0.781421
H379	H	0.713280	-0.103444	0.000017
H380	H	1.213280	0.396556	0.500017
H381	H	0.747920	0.016400	0.813524
H382	H	1.247920	0.516400	1.313524
