data_functionalizedCrystal
_audit_creation_method	'MofGen! by Chris Wilmer'
_symmetry_space_group_name_H-M	'P1'
_symmetry_Int_Tables_number	1
_symmetry_cell_setting	triclinic
loop_
_symmetry_equiv_pos_as_xyz
  x,y,z
_cell_length_a	6.817900
_cell_length_b	16.255699
_cell_length_c	16.255661
_cell_angle_alpha	95.343798
_cell_angle_beta	103.488922
_cell_angle_gamma	103.489404
loop_
_atom_site_label
_atom_site_type_symbol
_atom_site_fract_x
_atom_site_fract_y
_atom_site_fract_z
V1	V	-4.026708	-0.117774	-0.264153
O2	O	-4.014191	0.004956	-0.258836
O3	O	-3.978255	-0.232849	-0.262625
O4	O	-3.978270	-0.116271	-0.379233
O5	O	-4.014176	-0.112429	-0.141420
V6	V	-4.510347	-0.103057	-0.249440
O7	O	-4.287710	-0.150055	-0.296429
O8	O	-4.699542	-0.070776	-0.217164
O9	O	-4.335593	0.012018	-0.250969
O10	O	-4.640261	-0.225787	-0.254757
O11	O	-4.640276	-0.108402	-0.372173
O12	O	-4.335579	-0.104560	-0.134360
C13	C	-3.823245	-0.260892	-0.258529
C14	C	-3.864916	-0.354970	-0.258046
C15	C	-3.775496	-0.577782	-0.252513
C16	C	-3.859152	-0.625224	-0.184316
C17	C	-3.941316	-0.527222	-0.257203
C18	C	-3.931935	-0.647410	-0.324549
C19	C	-4.015103	-0.693609	-0.256392
C20	C	-4.024394	-0.573415	-0.188954
C21	C	-4.097180	-0.595606	-0.329250
C22	C	-4.180955	-0.643023	-0.261038
C23	C	-3.898803	-0.431370	-0.257670
C24	C	-4.057627	-0.789458	-0.255920
C25	C	-3.823262	-0.112184	-0.407274
C26	C	-3.864942	-0.111717	-0.501354
C27	C	-3.775498	-0.106134	-0.724159
C28	C	-3.931912	-0.178190	-0.793808
C29	C	-3.941326	-0.110841	-0.673600
C30	C	-3.859203	-0.037959	-0.771587
C31	C	-4.015094	-0.109990	-0.839982
C32	C	-4.097222	-0.182961	-0.742019
C33	C	-4.024451	-0.042667	-0.719783
C34	C	-4.181001	-0.114744	-0.789412
C35	C	-3.898825	-0.111331	-0.577752
C36	C	-4.057612	-0.109506	-0.935829
C37	C	-4.153946	0.040057	-0.255062
C38	C	-4.091513	0.134133	-0.255550
C39	C	-4.153929	-0.108650	-0.106315
C40	C	-4.091487	-0.109113	-0.012234
H41	H	-3.893208	-0.679625	-0.381837
H42	H	-4.352873	-0.118403	-0.817768
H43	H	-3.603670	-0.549269	-0.248827
H44	H	-3.603745	-0.102587	-0.695670
O45	O	-4.216382	-0.579574	-0.402437
C46	C	-4.166555	-0.617517	-0.473749
H47	H	-4.002529	-0.626830	-0.453095
H48	H	-4.283998	-0.682292	-0.500860
C49	C	-4.376512	-0.547441	-0.568293
C50	C	-4.175046	-0.558874	-0.542927
H51	H	-4.381758	-0.511271	-0.610967
H52	H	-4.410089	-0.521881	-0.520250
H53	H	-4.474359	-0.601425	-0.590880
H54	H	-4.077207	-0.504892	-0.520331
H55	H	-4.141453	-0.584424	-0.590968
O56	O	-3.885410	-0.246472	-0.832202
C57	C	-3.672078	-0.241719	-0.798753
H58	H	-3.582615	-0.172460	-0.771032
H59	H	-3.654604	-0.283278	-0.746140
C60	C	-3.693381	-0.359012	-0.904783
C61	C	-3.583498	-0.273945	-0.870742
H62	H	-3.638740	-0.378894	-0.949187
H63	H	-3.837109	-0.362217	-0.927317
H64	H	-3.678809	-0.393634	-0.860931
H65	H	-3.598092	-0.239324	-0.914591
H66	H	-3.439770	-0.270735	-0.848217
H67	H	-3.758971	0.023305	-0.785050
H68	H	-4.197436	-0.244308	-0.728700
H69	H	-4.063048	0.014633	-0.687537
H70	H	-3.758964	-0.638672	-0.123033
H71	H	-4.352788	-0.671366	-0.264621
O72	O	-4.070294	-0.534968	-0.120539
C73	C	-4.030072	-0.446053	-0.121793
H74	H	-3.912002	-0.426269	-0.160464
H75	H	-4.181708	-0.429749	-0.152471
C76	C	-4.085809	-0.421974	0.018014
C77	C	-3.940779	-0.397674	-0.029477
H78	H	-4.030739	-0.392131	0.074958
H79	H	-4.112916	-0.481878	0.018858
H80	H	-4.212162	-0.408386	-0.007561
H81	H	-3.814441	-0.411272	-0.003908
H82	H	-3.913649	-0.337771	-0.030315
