data_functionalizedCrystal
_audit_creation_method	'MofGen! by Chris Wilmer'
_symmetry_space_group_name_H-M	'P1'
_symmetry_Int_Tables_number	1
_symmetry_cell_setting	triclinic
loop_
_symmetry_equiv_pos_as_xyz
  x,y,z
_cell_length_a	19.188930
_cell_length_b	19.188930
_cell_length_c	18.266242
_cell_angle_alpha	90.011475
_cell_angle_beta	89.977082
_cell_angle_gamma	96.855221
loop_
_atom_site_label
_atom_site_type_symbol
_atom_site_fract_x
_atom_site_fract_y
_atom_site_fract_z
O1	O	0.926149	-0.087169	-0.061124
O2	O	0.722838	-0.098903	-0.061075
O3	O	0.830361	0.008620	-0.061087
O4	O	0.818627	-0.194691	-0.061113
O5	O	0.830343	0.008625	0.060675
O6	O	0.722820	-0.098897	0.060687
O7	O	0.926131	-0.087163	0.060638
Zn8	Zn	0.824473	-0.093029	0.079994
Zn9	Zn	0.824497	-0.093037	-0.080432
O10	O	0.818608	-0.194686	0.060649
C11	C	0.696818	-0.098520	-0.000188
C12	C	0.619313	-0.097380	-0.000169
C13	C	0.574389	-0.160470	-0.000188
C14	C	0.501566	-0.159399	-0.000196
C15	C	0.473669	-0.095233	-0.000199
C16	C	0.518603	-0.032133	-0.000175
C17	C	0.591425	-0.033207	-0.000160
N18	N	0.365695	-0.046188	-0.041663
N19	N	0.296516	-0.045172	-0.041679
C20	C	0.254260	-0.091994	-0.000243
N21	N	0.283795	-0.139881	0.041200
N22	N	0.352980	-0.140899	0.041213
C23	C	0.394707	-0.094062	-0.000215
C24	C	0.130372	-0.153928	-0.000270
C25	C	0.057547	-0.152853	-0.000274
C26	C	0.074586	-0.025586	-0.000261
C27	C	0.147409	-0.026662	-0.000250
C28	C	0.175298	-0.090835	-0.000258
C29	C	0.829972	0.034634	-0.000204
C30	C	0.828831	0.112138	-0.000197
C31	C	0.952151	-0.087546	-0.000252
C32	C	1.029656	-0.088687	-0.000276
C33	C	0.818997	-0.220700	-0.000236
C34	C	0.820138	-0.298204	-0.000247
N35	N	0.824461	-0.093024	0.189481
C36	C	0.891922	0.157062	-0.000209
C37	C	0.890850	0.229886	-0.000220
C38	C	0.826684	0.257782	-0.000206
C39	C	0.763585	0.212849	-0.000198
C40	C	0.764658	0.140026	-0.000194
N41	N	0.777631	0.365789	0.041244
N42	N	0.776615	0.434968	0.041242
C43	C	0.823446	0.477191	-0.000220
N44	N	0.871341	0.447624	-0.041669
N45	N	0.872359	0.378439	-0.041664
C46	C	0.825513	0.336745	-0.000210
C47	C	0.885379	0.601079	-0.000245
C48	C	0.884305	0.673904	-0.000261
C49	C	0.757038	0.656865	-0.000231
C50	C	0.758114	0.584042	-0.000222
C51	C	0.822287	0.556154	-0.000226
N52	N	0.824513	-0.093037	-0.189919
C53	C	0.872088	-0.045436	0.227785
C54	C	0.872092	-0.045433	0.304430
C55	C	0.824477	-0.093030	0.342768
C56	C	0.776841	-0.140621	0.304455
C57	C	0.776834	-0.140618	0.227812
N58	N	0.815401	-0.154837	0.463094
N59	N	0.815413	-0.154838	0.535902
C60	C	0.824496	-0.093040	0.573691
N61	N	0.833582	-0.031239	0.535920
N62	N	0.833574	-0.031240	0.463106
C63	C	0.824480	-0.093038	0.425875
C64	C	0.872131	-0.045444	0.695101
C65	C	0.872130	-0.045440	0.771748
C66	C	0.776882	-0.140634	0.771772
C67	C	0.776879	-0.140632	0.695127
C68	C	0.824507	-0.093038	0.656796
H69	H	0.020970	-0.204232	-0.000285
H70	H	0.597091	-0.212725	-0.000196
O71	O	0.047529	0.036763	-0.000134
C72	C	0.070485	0.075222	0.062926
H73	H	0.085497	0.037698	0.107002
H74	H	0.026446	0.104791	0.084088
H75	H	0.118073	0.114275	0.048680
O76	O	0.458016	-0.220752	-0.000254
C77	C	0.498247	-0.277621	-0.000239
H78	H	0.552670	-0.259733	-0.023270
H79	H	0.471269	-0.321809	-0.035608
H80	H	0.503332	-0.297308	0.058173
H81	H	0.495885	0.020111	-0.000188
H82	H	0.910877	-0.006680	0.335623
H83	H	0.628003	0.018171	-0.000145
O84	O	0.694645	0.683839	-0.000249
C85	C	0.639187	0.628567	-0.000213
H86	H	0.658610	0.579148	-0.023265
H87	H	0.594379	0.643640	-0.035555
H88	H	0.619727	0.618218	0.058207
O89	O	0.696873	0.540327	-0.000106
C90	C	0.693669	0.497721	0.062968
H91	H	0.749074	0.494213	0.083981
H92	H	0.667498	0.442903	0.048794
H93	H	0.661846	0.521591	0.107132
H94	H	0.738100	-0.179386	0.663938
O95	O	0.918373	0.000868	0.190666
C96	C	0.960423	0.042860	0.240915
H97	H	0.931807	0.043573	0.295566
H98	H	0.971245	0.098648	0.218783
H99	H	1.012217	0.020315	0.249031
O100	O	0.730560	-0.186761	0.341775
C101	C	0.687601	-0.149475	0.386130
H102	H	0.715580	-0.094772	0.397611
H103	H	0.676472	-0.178647	0.440025
H104	H	0.636012	-0.144856	0.356623
O105	O	0.157352	-0.216323	-0.000238
C106	C	0.102081	-0.271781	-0.000268
H107	H	0.052656	-0.252360	0.022778
H108	H	0.117146	-0.316592	0.035082
H109	H	0.091746	-0.291236	-0.058686
H110	H	0.183988	0.024713	-0.000238
H111	H	0.942228	0.266470	-0.000233
H112	H	0.738049	-0.179371	0.196624
H113	H	0.910910	-0.006688	0.663892
O114	O	0.954318	0.130089	-0.000250
C115	C	1.009774	0.185362	-0.000243
H116	H	0.990358	0.234769	-0.023295
H117	H	1.054596	0.170273	-0.035600
H118	H	1.029213	0.195739	0.058169
O119	O	0.918466	0.000815	0.808845
C120	C	0.960488	0.042830	0.758574
H121	H	0.961179	0.014206	0.703933
H122	H	1.016279	0.053611	0.780693
H123	H	0.937987	0.094646	0.750447
H124	H	0.935683	0.710481	-0.000274
H125	H	0.738110	-0.179386	0.802986
H126	H	0.711340	0.235567	-0.000187
H127	H	0.937632	0.578372	-0.000251
O128	O	0.703305	0.096483	-0.000146
C129	C	0.646437	0.136716	-0.000158
H130	H	0.664321	0.191131	0.022884
H131	H	0.602239	0.109727	0.035204
H132	H	0.626768	0.141825	-0.058570
