data_functionalizedCrystal
_audit_creation_method	'MofGen! by Chris Wilmer'
_symmetry_space_group_name_H-M	'P1'
_symmetry_Int_Tables_number	1
_symmetry_cell_setting	triclinic
loop_
_symmetry_equiv_pos_as_xyz
  x,y,z
_cell_length_a	21.295420
_cell_length_b	21.295417
_cell_length_c	18.050582
_cell_angle_alpha	89.973245
_cell_angle_beta	89.984936
_cell_angle_gamma	90.028757
loop_
_atom_site_label
_atom_site_type_symbol
_atom_site_fract_x
_atom_site_fract_y
_atom_site_fract_z
Zn1	Zn	0.962296	-0.250679	-0.419894
Zn2	Zn	1.462296	0.249321	0.080106
Zn3	Zn	0.962216	-0.355940	-0.295695
Zn4	Zn	1.462216	0.144060	0.204305
Zn5	Zn	0.857036	-0.250685	-0.295718
Zn6	Zn	1.357036	0.249315	0.204282
Zn7	Zn	0.856988	-0.355911	-0.419843
Zn8	Zn	1.356988	0.144089	0.080157
O9	O	0.909634	-0.303304	-0.357787
O10	O	1.409634	0.196696	0.142213
O11	O	1.050374	-0.264651	-0.403430
O12	O	1.550374	0.235349	0.096570
O13	O	0.948250	-0.341993	-0.191773
O14	O	1.448250	0.158007	0.308227
O15	O	0.871053	-0.162595	-0.312221
O16	O	1.371053	0.337405	0.187779
O17	O	1.050316	-0.341986	-0.312182
O18	O	1.550316	0.158014	0.187818
O19	O	0.948386	-0.162590	-0.403452
O20	O	1.448386	0.337410	0.096548
O21	O	0.870975	-0.264662	-0.191790
O22	O	1.370975	0.235338	0.308210
O23	O	0.768941	-0.264634	-0.312171
O24	O	1.268941	0.235366	0.187829
O25	O	0.870971	-0.341936	-0.523774
O26	O	1.370971	0.158064	-0.023774
O27	O	0.768905	-0.341943	-0.403366
O28	O	1.268905	0.158057	0.096634
O29	O	0.948339	-0.264623	-0.523812
O30	O	1.448339	0.235377	-0.023812
O31	O	0.948203	-0.444025	-0.312132
O32	O	1.448203	0.055975	0.187868
O33	O	0.870893	-0.444004	-0.403343
O34	O	1.370893	0.055996	0.096657
C35	C	0.746082	-0.303287	-0.357766
C36	C	1.246082	0.196713	0.142234
C37	C	0.676114	-0.303294	-0.357774
C38	C	1.176114	0.196706	0.142226
C39	C	0.176654	-0.343632	-0.405226
C40	C	0.676654	0.156368	0.094774
C41	C	0.242397	-0.343633	-0.405218
C42	C	0.742397	0.156367	0.094782
C43	C	0.275275	-0.303318	-0.357811
C44	C	0.775275	0.196682	0.142189
C45	C	0.242405	-0.263011	-0.310394
C46	C	0.742405	0.236989	0.189606
C47	C	0.176664	-0.263017	-0.310398
C48	C	0.676664	0.236983	0.189602
N49	N	0.378516	-0.248201	-0.352227
N50	N	0.878516	0.251799	0.147773
N51	N	0.440968	-0.248197	-0.352228
N52	N	0.940968	0.251803	0.147772
C53	C	0.473349	-0.303300	-0.357795
C54	C	0.973349	0.196700	0.142205
N55	N	0.440921	-0.358407	-0.363376
N56	N	0.940921	0.141593	0.136624
N57	N	0.378463	-0.358410	-0.363379
N58	N	0.878463	0.141590	0.136621
C59	C	0.346560	-0.303308	-0.357801
C60	C	0.846560	0.196692	0.142199
C61	C	0.577497	-0.343607	-0.405196
C62	C	1.077497	0.156393	0.094804
C63	C	0.643241	-0.343609	-0.405183
C64	C	1.143241	0.156391	0.094817
C65	C	0.643248	-0.262982	-0.310363
C66	C	1.143248	0.237018	0.189637
C67	C	0.577505	-0.262986	-0.310372
C68	C	1.077505	0.237014	0.189628
C69	C	0.544634	-0.303298	-0.357793
C70	C	1.044634	0.196702	0.142207
C71	C	0.909551	-0.466855	-0.357746
C72	C	1.409551	0.033145	0.142254
C73	C	0.909574	-0.536823	-0.357753
C74	C	1.409574	-0.036823	0.142247
C75	C	0.949865	-0.569680	-0.310308
C76	C	1.449865	-0.069680	0.189692
C77	C	0.949894	-0.635423	-0.310325
C78	C	1.449894	-0.135423	0.189675
C79	C	0.909621	-0.668306	-0.357779
C80	C	1.409621	-0.168306	0.142221
C81	C	0.869327	-0.635441	-0.405233
C82	C	1.369327	-0.135441	0.094767
C83	C	0.869304	-0.569700	-0.405220
C84	C	1.369304	-0.069700	0.094780
N85	N	0.854554	-0.771570	-0.363433
N86	N	1.354554	-0.271570	0.136567
N87	N	0.854578	-0.834022	-0.363441
N88	N	1.354578	-0.334022	0.136559
C89	C	0.909692	-0.866380	-0.357822
C90	C	1.409692	-0.366380	0.142178
N91	N	0.964782	-0.833929	-0.352179
N92	N	1.464782	-0.333929	0.147821
N93	N	0.964756	-0.771471	-0.352168
N94	N	1.464756	-0.271471	0.147832
C95	C	0.909643	-0.739591	-0.357798
C96	C	1.409643	-0.239591	0.142202
C97	C	0.950019	-0.970523	-0.310392
C98	C	1.450019	-0.470523	0.189608
C99	C	0.950049	-1.036267	-0.310414
C100	C	1.450049	-0.536267	0.189586
C101	C	0.869477	-1.036284	-0.405318
C102	C	1.369477	-0.536284	0.094682
C103	C	0.869452	-0.970541	-0.405300
C104	C	1.369452	-0.470541	0.094700
C105	C	0.909722	-0.937665	-0.357833
C106	C	1.409722	-0.437665	0.142167
C107	C	1.073824	-0.303321	-0.357809
C108	C	1.573824	0.196679	0.142191
C109	C	1.143792	-0.303329	-0.357818
C110	C	1.643792	0.196671	0.142182
C111	C	0.909659	-0.303276	-0.551493
C112	C	1.409659	0.196724	-0.051493
C113	C	0.909669	-0.303264	-0.634039
C114	C	1.409669	0.196736	-0.134039
C115	C	0.909734	-0.139113	-0.357845
C116	C	1.409734	0.360887	0.142155
C117	C	0.909777	-0.069145	-0.357869
C118	C	1.409777	0.430855	0.142131
C119	C	0.867628	-0.345249	-0.833469
C120	C	1.367628	0.154751	-0.333469
C121	C	0.925059	-0.360639	-0.882859
C122	C	1.425059	0.139361	-0.382859
C123	C	0.909700	-0.303216	-0.785169
C124	C	1.409700	0.196784	-0.285169
C125	C	0.852301	-0.287809	-0.882861
C126	C	1.352301	0.212191	-0.382861
C127	C	0.909725	-0.303170	-0.931154
C128	C	1.409725	0.196830	-0.431154
C129	C	0.967161	-0.318635	-0.833472
C130	C	1.467161	0.181365	-0.333472
C131	C	0.894365	-0.245779	-0.833469
C132	C	1.394365	0.254221	-0.333469
C133	C	0.951835	-0.261146	-0.882837
C134	C	1.451835	0.238854	-0.382837
C135	C	0.909685	-0.303243	-0.701071
C136	C	1.409685	0.196757	-0.201071
C137	C	0.909747	-0.303143	-1.015251
C138	C	1.409747	0.196857	-0.515251
C139	C	0.909646	-0.303286	-0.164835
C140	C	1.409646	0.196714	0.335165
C141	C	0.909757	-0.303121	-0.082290
C142	C	1.409757	0.196879	0.417710
H143	H	0.149894	-0.376460	-0.443837
H144	H	0.649894	0.123540	0.056163
H145	H	0.982657	-0.542914	-0.271660
H146	H	1.482657	-0.042914	0.228340
Br147	Br	0.132062	-0.208314	-0.246054
Br148	Br	0.632062	0.291686	0.253946
H149	H	0.836688	-1.063056	-0.443959
H150	H	1.336688	-0.563056	0.056041
H151	H	1.015727	-0.331702	-0.811869
H152	H	1.515727	0.168298	-0.311869
Br153	Br	0.946706	-0.441564	-0.919019
Br154	Br	1.446706	0.058436	-0.419019
Br155	Br	1.011218	-0.201867	-0.918743
Br156	Br	1.511218	0.298133	-0.418743
Br157	Br	1.004579	-0.680024	-0.245931
Br158	Br	1.504579	-0.180024	0.254069
Br159	Br	0.872693	-0.164874	-0.797280
Br160	Br	1.372693	0.335126	-0.297280
H161	H	0.269158	-0.376453	-0.443826
H162	H	0.769158	0.123547	0.056174
H163	H	0.669996	-0.376433	-0.443786
H164	H	1.169996	0.123567	0.056214
Br165	Br	0.814676	-0.680066	-0.469641
Br166	Br	1.314676	-0.180066	0.030359
Br167	Br	0.808382	-0.404569	-0.797338
Br168	Br	1.308382	0.095431	-0.297338
Br169	Br	0.814619	-0.525105	-0.469616
Br170	Br	1.314619	-0.025105	0.030384
H171	H	0.982811	-0.943754	-0.271744
H172	H	1.482811	-0.443754	0.228256
Br173	Br	0.771380	-0.266121	-0.919023
Br174	Br	1.271380	0.233879	-0.419023
H175	H	0.550749	-0.230164	-0.271770
H176	H	1.050749	0.269836	0.228230
H177	H	0.269178	-0.230188	-0.271793
H178	H	0.769178	0.269812	0.228207
H179	H	0.550732	-0.376433	-0.443808
H180	H	1.050732	0.123567	0.056192
Br181	Br	1.004742	-1.080860	-0.246026
Br182	Br	1.504742	-0.580860	0.253974
Br183	Br	0.814766	-0.925946	-0.469692
Br184	Br	1.314766	-0.425946	0.030308
Br185	Br	0.687860	-0.208276	-0.246013
Br186	Br	1.187860	0.291724	0.253987
