data_functionalizedCrystal
_audit_creation_method	'MofGen! by Chris Wilmer'
_symmetry_space_group_name_H-M	'P1'
_symmetry_Int_Tables_number	1
_symmetry_cell_setting	triclinic
loop_
_symmetry_equiv_pos_as_xyz
  x,y,z
_cell_length_a	15.944486
_cell_length_b	17.699104
_cell_length_c	16.176319
_cell_angle_alpha	89.993810
_cell_angle_beta	89.996280
_cell_angle_gamma	96.618035
loop_
_atom_site_label
_atom_site_type_symbol
_atom_site_fract_x
_atom_site_fract_y
_atom_site_fract_z
O1	O	-1.114347	0.097383	-0.068815
O2	O	-0.869765	0.109469	-0.068802
O3	O	-0.998957	-0.006752	-0.068802
O4	O	-0.985155	0.213604	-0.068816
O5	O	-0.998975	-0.006760	0.068691
O6	O	-0.869783	0.109461	0.068691
O7	O	-1.114365	0.097375	0.068678
Cu8	Cu	-0.992075	0.103417	0.081239
Cu9	Cu	-0.992054	0.103427	-0.081363
O10	O	-0.985173	0.213596	0.068677
C11	C	-0.838480	0.108972	-0.000054
C12	C	-0.745234	0.107493	-0.000049
C13	C	-0.453560	0.175023	-0.000061
C14	C	-0.514652	0.139927	-0.067853
C15	C	-0.409607	0.102122	-0.000063
C16	C	-0.514655	0.139900	0.067705
C17	C	-0.574511	0.104765	-0.000054
C18	C	-0.469470	0.067006	-0.067910
C19	C	-0.469467	0.066989	0.067708
C20	C	-0.530542	0.031839	-0.000100
C21	C	-0.314609	0.100602	-0.000068
C22	C	-0.669507	0.106280	-0.000055
C23	C	-0.998468	-0.034953	-0.000055
C24	C	-0.996976	-0.118973	-0.000055
C25	C	-1.064391	-0.643743	-0.000082
C26	C	-1.065788	-0.564797	-0.000074
C27	C	-0.989948	-0.516293	-0.000068
C28	C	-0.912705	-0.546739	-0.000062
C29	C	-0.911309	-0.625683	-0.000063
C30	C	-0.918335	-0.228364	-0.000055
C31	C	-0.919738	-0.149415	-0.000056
C32	C	-1.072815	-0.167478	-0.000066
C33	C	-1.071419	-0.246422	-0.000068
C34	C	-0.994176	-0.276861	-0.000056
C35	C	-0.992662	-0.362463	-0.000063
C36	C	-0.991461	-0.430692	-0.000068
C37	C	-0.145648	0.097883	-0.000068
C38	C	-0.238889	0.099392	-0.000067
C39	C	-0.985661	0.241797	-0.000071
C40	C	-0.987154	0.325817	-0.000077
N41	N	-0.992040	0.103427	-0.195728
C42	C	-1.049408	0.052056	-0.761111
C43	C	-1.049398	0.052055	-0.674564
C44	C	-0.992079	0.103413	-0.631304
C45	C	-0.934762	0.154771	-0.674595
C46	C	-0.934769	0.154767	-0.761141
C47	C	-0.934732	0.154786	-0.325567
C48	C	-0.934732	0.154787	-0.239015
C49	C	-1.049361	0.052073	-0.238990
C50	C	-1.049368	0.052070	-0.325535
C51	C	-0.992048	0.103424	-0.368819
C52	C	-0.992059	0.103423	-0.462664
C53	C	-0.992072	0.103418	-0.537461
N54	N	-0.992096	0.103411	0.195604
H55	H	-0.563841	-0.028718	-0.000132
N56	N	-0.444324	0.028339	0.139618
N57	N	-0.458550	0.053180	0.209956
H58	H	-0.440791	0.025889	0.260749
H59	H	-0.888053	0.196610	-0.203795
H60	H	-0.848414	-0.650466	-0.000052
N61	N	-0.876206	0.207250	-0.369786
N62	N	-0.876217	0.207248	-0.447058
H63	H	-0.834883	0.244306	-0.478292
H64	H	-1.096086	0.010237	-0.796327
N65	N	-0.876198	0.207229	-0.630420
N66	N	-0.798585	0.206024	-0.640097
H67	H	-0.757221	0.243073	-0.608900
N68	N	-1.107916	-0.000380	-0.369740
N69	N	-1.159941	0.023750	-0.418032
H70	H	-1.201290	-0.013294	-0.449254
N71	N	-0.876217	0.207227	-0.805346
N72	N	-0.825043	0.253079	-0.766714
H73	H	-0.783686	0.290129	-0.797932
H74	H	-0.855440	-0.253137	-0.000056
N75	N	-0.539758	0.178581	0.139611
N76	N	-0.524385	0.154418	0.209969
H77	H	-0.542110	0.181740	0.260751
H78	H	-1.096032	0.010255	-0.203739
H79	H	-0.420108	0.235527	-0.000130
H80	H	-0.850955	-0.507240	-0.000052
H81	H	-1.096064	0.010237	-0.639321
N82	N	-1.151712	-0.136372	-0.000077
N83	N	-1.152954	-0.065886	-0.000076
H84	H	-1.208673	-0.043917	-0.000086
N85	N	-0.539764	0.178618	-0.139753
N86	N	-0.511830	0.246642	-0.151837
H87	H	-0.529561	0.273972	-0.202615
H88	H	-1.126149	-0.683230	-0.000093
N89	N	-0.444480	0.028378	-0.139897
N90	N	-0.459380	0.052937	-0.210200
H91	H	-0.441728	0.025660	-0.261042
N92	N	-1.144692	-0.533715	-0.000077
N93	N	-1.212400	-0.577030	-0.000087
H94	H	-1.268130	-0.555080	-0.000088
H95	H	-1.133176	-0.285911	-0.000077
N96	N	-0.842256	-0.099878	-0.000054
N97	N	-0.773296	-0.127064	-0.000046
H98	H	-0.718577	-0.092080	-0.000047
