data_functionalizedCrystal
_audit_creation_method	'MofGen! by Chris Wilmer'
_symmetry_space_group_name_H-M	'P1'
_symmetry_Int_Tables_number	1
_symmetry_cell_setting	triclinic
loop_
_symmetry_equiv_pos_as_xyz
  x,y,z
_cell_length_a	10.489741
_cell_length_b	10.489741
_cell_length_c	9.130313
_cell_angle_alpha	89.999004
_cell_angle_beta	90.002436
_cell_angle_gamma	84.539174
loop_
_atom_site_label
_atom_site_type_symbol
_atom_site_fract_x
_atom_site_fract_y
_atom_site_fract_z
O1	O	1.694046	0.179962	-0.121708
O2	O	1.322851	0.196855	-0.121731
O3	O	1.516895	0.002811	-0.121710
O4	O	1.500002	0.374006	-0.121728
O5	O	1.516893	0.002816	0.121889
O6	O	1.322848	0.196860	0.121868
O7	O	1.694044	0.179967	0.121891
Cu8	Cu	1.508446	0.188414	0.144122
Cu9	Cu	1.508449	0.188408	-0.143962
O10	O	1.500000	0.374012	0.121870
C11	C	1.275318	0.195582	0.000066
C12	C	1.133688	0.191765	0.000057
C13	C	1.065548	0.068300	0.000077
C14	C	0.973423	0.126621	-0.120029
C15	C	0.973454	0.126655	0.120140
C16	C	1.043428	0.250136	-0.120149
C17	C	1.043469	0.250154	0.120129
C18	C	0.951371	0.308564	-0.000007
C19	C	1.515618	-0.044718	0.000088
C20	C	1.511801	-0.186348	0.000086
C21	C	1.388336	-0.254488	0.000067
C22	C	1.446658	-0.346608	0.120178
C23	C	1.446690	-0.346588	-0.119992
C24	C	1.570174	-0.276602	0.120295
C25	C	1.570188	-0.276573	-0.119982
C26	C	1.628600	-0.368665	0.000158
C27	C	1.741577	0.181241	0.000091
C28	C	1.883206	0.185058	0.000090
C29	C	1.501277	0.421541	0.000069
C30	C	1.505094	0.563170	0.000062
N31	N	1.508453	0.188418	0.346745
N32	N	1.508451	0.188395	-0.346584
C33	C	1.594398	0.102525	0.423406
C34	C	1.594395	0.102509	0.576743
C35	C	1.422497	0.274292	0.576744
C36	C	1.422496	0.274300	0.423410
C37	C	1.693646	0.003351	0.423406
C38	C	1.693643	0.003336	0.576743
H39	H	1.074514	0.302354	0.221672
H40	H	0.942475	0.074395	0.221681
H41	H	1.352512	0.344214	0.639181
H42	H	1.622368	-0.245768	0.221953
H43	H	1.662607	-0.089331	0.624293
H44	H	1.786273	0.034463	0.375852
H45	H	1.791676	0.025238	0.618365
C46	C	1.664455	-0.127451	0.368187
C47	C	1.646602	-0.207472	0.487704
C48	C	1.619691	-0.327966	0.436893
H49	H	1.733951	-0.163827	0.310422
H50	H	1.588794	-0.118529	0.310427
H51	H	1.722254	-0.216398	0.545440
H52	H	1.577103	-0.171137	0.545482
H53	H	1.544030	-0.319044	0.379133
H54	H	1.689191	-0.364329	0.379127
H55	H	1.607563	-0.382271	0.517976
C56	C	1.131707	-0.067072	-0.000380
C57	C	1.096420	-0.131124	-0.126432
C58	C	1.157359	-0.255818	-0.126924
H59	H	1.106803	-0.111540	0.083981
H60	H	1.221896	-0.063738	0.000406
H61	H	1.006250	-0.134465	-0.127205
H62	H	1.121325	-0.086695	-0.210814
H63	H	1.247548	-0.252484	-0.126138
H64	H	1.132450	-0.300273	-0.042558
H65	H	1.133434	-0.299289	-0.212455
H66	H	1.286824	-0.204837	0.000182
H67	H	0.942409	0.074378	-0.221568
C68	C	1.084364	0.319582	-0.255883
C69	C	1.048024	0.255139	-0.381195
C70	C	1.085702	0.319079	-0.506258
H71	H	1.174705	0.321580	-0.255295
H72	H	1.044209	0.404674	-0.256315
H73	H	1.088184	0.170070	-0.380763
H74	H	0.957689	0.253139	-0.381831
H75	H	1.045546	0.404171	-0.506690
H76	H	1.176042	0.321073	-0.505655
H77	H	1.061040	0.275371	-0.591296
H78	H	1.394417	-0.377617	0.221716
H79	H	0.901947	0.410168	-0.000078
H80	H	1.730204	-0.418089	0.000231
C81	C	1.640006	-0.235120	-0.255197
C82	C	1.747490	-0.174827	-0.212296
C83	C	1.811834	-0.136635	-0.336828
H84	H	1.584282	-0.177126	-0.310857
H85	H	1.666488	-0.308118	-0.313107
H86	H	1.721006	-0.101839	-0.154411
H87	H	1.803243	-0.232797	-0.156653
H88	H	1.838316	-0.209633	-0.394737
H89	H	1.756100	-0.078645	-0.392479
H90	H	1.884775	-0.095732	-0.307737
C91	C	1.376815	-0.387697	-0.255343
C92	C	1.251096	-0.329331	-0.254783
C93	C	1.186687	-0.367150	-0.379447
H94	H	1.375426	-0.478108	-0.254972
H95	H	1.419788	-0.362509	-0.340668
H96	H	1.208134	-0.354527	-0.169480
H97	H	1.252448	-0.238921	-0.255176
H98	H	1.229659	-0.341962	-0.464772
H99	H	1.185306	-0.457561	-0.379065
H100	H	1.101383	-0.327546	-0.379090
H101	H	1.352501	0.344230	0.360994
