data_functionalizedCrystal
_audit_creation_method	'MofGen! by Chris Wilmer'
_symmetry_space_group_name_H-M	'P1'
_symmetry_Int_Tables_number	1
_symmetry_cell_setting	triclinic
loop_
_symmetry_equiv_pos_as_xyz
  x,y,z
_cell_length_a	10.654546
_cell_length_b	9.130313
_cell_length_c	9.065215
_cell_angle_alpha	89.997771
_cell_angle_beta	84.749145
_cell_angle_gamma	89.989399
loop_
_atom_site_label
_atom_site_type_symbol
_atom_site_fract_x
_atom_site_fract_y
_atom_site_fract_z
O1	O	-1.668660	0.122034	-0.207213
O2	O	-1.303260	0.121981	-0.226963
O3	O	-1.493515	0.122011	-0.002404
O4	O	-1.478405	0.122003	-0.431772
O5	O	-1.493502	-0.121587	-0.002392
O6	O	-1.303247	-0.121617	-0.226951
O7	O	-1.668648	-0.121565	-0.207202
Cu8	Cu	-1.485947	-0.143834	-0.217075
Cu9	Cu	-1.485961	0.144250	-0.217089
O10	O	-1.478393	-0.121595	-0.431761
C11	C	-1.256450	0.000175	-0.225508
C12	C	-1.116989	0.000156	-0.221173
N13	N	-1.485945	-0.346457	-0.217065
C14	C	-1.038026	0.000169	-0.353389
C15	C	-0.906989	0.000185	-0.349306
C16	C	-0.933891	0.000180	-0.080780
C17	C	-1.064925	0.000154	-0.084864
C18	C	-1.090089	0.000171	-0.489697
C19	C	-1.011125	0.000186	-0.621924
C20	C	-0.880088	0.000202	-0.617842
C21	C	-0.828015	0.000203	-0.481532
C22	C	-1.408779	-0.576502	-0.126766
C23	C	-1.408769	-0.423166	-0.126750
C24	C	-1.563147	-0.423092	-0.307390
C25	C	-1.563163	-0.576426	-0.307397
C26	C	-1.331588	-0.653203	-0.036457
C27	C	-1.254388	-0.576578	0.053871
C28	C	-1.254377	-0.423241	0.053887
C29	C	-1.331567	-0.346530	-0.036425
C30	C	-0.715458	0.000225	-0.208660
C31	C	-0.854917	0.000198	-0.213006
C32	C	-1.492057	0.000216	0.052580
C33	C	-1.487718	0.000227	0.216400
N34	N	-1.485972	0.346873	-0.217088
C35	C	-1.479850	0.000214	0.513255
C36	C	-1.484189	0.000245	0.349436
H37	H	-1.196785	0.000166	-0.493036
H38	H	-1.053532	0.000174	-0.732902
H39	H	-0.891482	0.000205	0.030197
N40	N	-1.646409	-0.659080	-0.404828
H41	H	-1.634708	-0.767854	-0.391124
H42	H	-1.737419	-0.632250	-0.376672
N43	N	-1.331607	-0.818586	-0.036458
H44	H	-1.392225	-0.855490	-0.107378
H45	H	-1.243963	-0.855431	-0.068560
H46	H	-1.191550	-0.639047	0.127407
H47	H	-0.721315	0.000192	-0.478219
H48	H	-0.815798	0.000199	-0.725507
H49	H	-1.331559	-0.221673	-0.036397
N50	N	-1.171126	-0.340601	0.151322
H51	H	-1.080080	-0.367312	0.123206
H52	H	-1.182933	-0.231851	0.137595
N53	N	-1.150104	0.000132	0.057736
H54	H	-1.097241	0.000146	0.144706
H55	H	-1.205087	0.090425	0.061886
H56	H	-1.625990	-0.360621	-0.380920
