data_functionalizedCrystal
_audit_creation_method	'MofGen! by Chris Wilmer'
_symmetry_space_group_name_H-M	'P1'
_symmetry_Int_Tables_number	1
_symmetry_cell_setting	triclinic
loop_
_symmetry_equiv_pos_as_xyz
  x,y,z
_cell_length_a	18.050591
_cell_length_b	21.395363
_cell_length_c	21.395355
_cell_angle_alpha	90.007968
_cell_angle_beta	90.030556
_cell_angle_gamma	89.996470
loop_
_atom_site_label
_atom_site_type_symbol
_atom_site_fract_x
_atom_site_fract_y
_atom_site_fract_z
Zn1	Zn	1.135506	-0.249578	0.354408
Zn2	Zn	1.635506	0.250422	0.854408
Zn3	Zn	1.135456	-0.354338	0.249650
Zn4	Zn	1.635456	0.145662	0.749650
Zn5	Zn	1.011305	-0.249571	0.249634
Zn6	Zn	1.511305	0.250429	0.749634
Zn7	Zn	1.011334	-0.354314	0.354379
Zn8	Zn	1.511334	0.145686	0.854379
O9	O	1.073400	-0.301950	0.302017
O10	O	1.573400	0.198050	0.802017
O11	O	1.239424	-0.263487	0.340530
O12	O	1.739424	0.236513	0.840530
O13	O	1.118954	-0.340447	0.161970
O14	O	1.618954	0.159553	0.661970
O15	O	1.027789	-0.161894	0.263537
O16	O	1.527789	0.338106	0.763537
O17	O	1.239388	-0.340454	0.263565
O18	O	1.739388	0.159546	0.763565
O19	O	1.119040	-0.161899	0.340515
O20	O	1.619040	0.338101	0.840515
O21	O	1.027741	-0.263475	0.161958
O22	O	1.527741	0.236525	0.661958
O23	O	0.907384	-0.263452	0.263509
O24	O	1.407384	0.236548	0.763509
O25	O	1.027839	-0.340414	0.442061
O26	O	1.527839	0.159586	0.942061
O27	O	0.907405	-0.340407	0.340465
O28	O	1.407405	0.159593	0.840465
O29	O	1.119068	-0.263464	0.442082
O30	O	1.619068	0.236536	0.942082
O31	O	1.118983	-0.442012	0.263537
O32	O	1.618983	0.057988	0.763537
O33	O	1.027790	-0.441995	0.340481
O34	O	1.527790	0.058005	0.840481
C35	C	0.880448	-0.301927	0.301983
C36	C	1.380448	0.198073	0.801983
C37	C	0.797902	-0.301932	0.301983
C38	C	1.297902	0.198068	0.801983
C39	C	1.073404	-0.464738	0.302021
C40	C	1.573404	0.035262	0.802021
C41	C	1.073474	-0.534379	0.302044
C42	C	1.573474	-0.034379	0.802044
C43	C	1.073462	-0.301937	0.465441
C44	C	1.573462	0.198063	0.965441
C45	C	1.073488	-0.301932	0.535082
C46	C	1.573488	0.198068	1.035082
C47	C	0.598419	-0.260035	0.260231
C48	C	1.098419	0.239965	0.760231
C49	C	0.549029	-0.317181	0.244821
C50	C	1.049029	0.182819	0.744821
C51	C	0.646772	-0.301951	0.302011
C52	C	1.146772	0.198049	0.802011
C53	C	0.549080	-0.244825	0.317419
C54	C	1.049080	0.255175	0.817419
C55	C	0.500787	-0.301964	0.302037
C56	C	1.000787	0.198036	0.802037
C57	C	0.598469	-0.359126	0.286572
C58	C	1.098469	0.140874	0.786572
C59	C	0.598525	-0.286732	0.359197
C60	C	1.098525	0.213268	0.859197
C61	C	0.549158	-0.343917	0.343809
C62	C	1.049158	0.156083	0.843809
C63	C	0.730870	-0.301942	0.301994
C64	C	1.230870	0.198058	0.801994
C65	C	0.416691	-0.301979	0.302054
C66	C	0.916691	0.198021	0.802054
C67	C	1.267106	-0.301974	0.302053
C68	C	1.767106	0.198026	0.802053
C69	C	1.349652	-0.301984	0.302068
C70	C	1.849652	0.198016	0.802068
C71	C	1.073417	-0.138527	0.302027
C72	C	1.573417	0.361473	0.802027
C73	C	1.073424	-0.068886	0.302032
C74	C	1.573424	0.431114	0.802032
C75	C	1.026000	0.432919	0.342107
C76	C	1.526000	0.932919	0.842107
C77	C	1.025989	0.367483	0.342104
C78	C	1.525989	0.867483	0.842104
C79	C	1.073465	0.334753	0.302043
C80	C	1.573465	0.834753	0.802043
C81	C	1.120942	0.367463	0.261972
C82	C	1.620942	0.867463	0.761972
C83	C	1.120946	0.432897	0.261972
C84	C	1.620946	0.932897	0.761972
C85	C	1.140365	0.231078	0.297108
C86	C	1.640365	0.731078	0.797108
C87	C	1.140362	0.165645	0.297112
C88	C	1.640362	0.665645	0.797112
C89	C	1.073450	0.132932	0.302039
C90	C	1.573450	0.632932	0.802039
C91	C	1.006540	0.165660	0.306975
C92	C	1.506540	0.665660	0.806975
C93	C	1.006545	0.231094	0.306975
C94	C	1.506545	0.731094	0.806975
C95	C	1.073465	0.263800	0.302038
C96	C	1.573465	0.763800	0.802038
C97	C	1.025961	0.029277	0.342101
C98	C	1.525961	0.529277	0.842101
C99	C	1.025948	-0.036160	0.342093
C100	C	1.525948	0.463840	0.842093
C101	C	1.120908	-0.036178	0.261965
C102	C	1.620908	0.463822	0.761965
C103	C	1.120913	0.029257	0.261970
C104	C	1.620913	0.529257	0.761970
C105	C	1.073441	0.061981	0.302041
C106	C	1.573441	0.561981	0.802041
C107	C	1.073382	-0.301917	0.139230
C108	C	1.573382	0.198083	0.639230
C109	C	1.073499	-0.301746	0.069589
C110	C	1.573499	0.198254	0.569589
C111	C	1.120989	-0.261863	0.567807
C112	C	1.620989	0.238137	1.067807
C113	C	1.120988	-0.261836	0.633243
C114	C	1.620988	0.238164	1.133243
C115	C	1.073494	-0.301889	0.665950
C116	C	1.573494	0.198111	1.165950
C117	C	1.025984	-0.341961	0.633217
C118	C	1.525984	0.158039	1.133217
C119	C	1.025981	-0.341983	0.567783
C120	C	1.525981	0.158017	1.067783
C121	C	1.067631	-0.358304	0.769626
C122	C	1.567631	0.141696	1.269626
C123	C	1.067639	-0.358284	0.835059
C124	C	1.567639	0.141716	1.335059
C125	C	1.073499	-0.301823	0.867771
C126	C	1.573499	0.198177	1.367771
C127	C	1.079365	-0.245381	0.835043
C128	C	1.579365	0.254619	1.335043
C129	C	1.079362	-0.245402	0.769608
C130	C	1.579362	0.254598	1.269608
C131	C	1.073492	-0.301870	0.736903
C132	C	1.573492	0.198130	1.236903
C133	C	1.121001	-0.261721	0.971449
C134	C	1.621001	0.238279	1.471449
C135	C	1.120995	-0.261693	1.036886
C136	C	1.620995	0.238307	1.536886
C137	C	1.025994	-0.341824	1.036859
C138	C	1.525994	0.158176	1.536859
C139	C	1.025997	-0.341847	0.971424
C140	C	1.525997	0.158153	1.471424
C141	C	1.073504	-0.301796	0.938723
C142	C	1.573504	0.198204	1.438723
H143	H	0.620049	-0.224627	0.224860
H144	H	1.120049	0.275373	0.724860
Br145	Br	0.512793	-0.338653	0.164237
Br146	Br	1.012793	0.161347	0.664237
Br147	Br	1.185471	-0.207366	0.927065
Br148	Br	1.685471	0.292634	1.427065
Br149	Br	0.513330	-0.403071	0.402719
Br150	Br	1.013330	0.096929	0.902719
H151	H	0.987336	0.340852	0.374735
H152	H	1.487336	0.840852	0.874735
Br153	Br	1.185440	-0.207437	0.677666
Br154	Br	1.685440	0.292563	1.177666
H155	H	0.987297	-0.374611	0.541139
H156	H	1.487297	0.125389	1.041139
Br157	Br	0.915725	0.121272	0.313664
Br158	Br	1.415725	0.621272	0.813664
Br159	Br	0.634471	-0.439680	0.264776
Br160	Br	1.134471	0.060320	0.764776
Br161	Br	1.185478	-0.207318	1.081300
Br162	Br	1.685478	0.292682	1.581300
H163	H	1.084137	-0.199445	0.742964
H164	H	1.584137	0.300555	1.242964
H165	H	0.987311	-0.374571	0.659852
H166	H	1.487311	0.125429	1.159852
H167	H	0.952065	0.257740	0.310993
H168	H	1.452065	0.757740	0.810993
Br169	Br	0.961532	0.073692	0.396479
Br170	Br	1.461532	0.573692	0.896479
H171	H	1.159606	0.459524	0.229347
H172	H	1.659606	0.959524	0.729347
H173	H	1.062661	-0.404270	0.742997
H174	H	1.562661	0.095730	1.242997
H175	H	0.620283	-0.273833	0.407531
H176	H	1.120283	0.226167	0.907531
H177	H	0.987283	-0.062785	0.374715
H178	H	1.487283	0.437215	0.874715
Br179	Br	1.185370	0.323045	0.207601
Br180	Br	1.685370	0.823045	0.707601
Br181	Br	0.512913	-0.164299	0.339120
Br182	Br	1.012913	0.335701	0.839120
H183	H	1.159562	-0.062827	0.229346
H184	H	1.659562	0.437173	0.729346
H185	H	0.987344	0.459560	0.374734
H186	H	1.487344	0.959560	0.874734
Br187	Br	1.185352	0.073642	0.207600
Br188	Br	1.685352	0.573642	0.707600
Br189	Br	1.231181	0.275468	0.290410
Br190	Br	1.731181	0.775468	0.790410
Br191	Br	1.231168	0.121235	0.290425
Br192	Br	1.731168	0.621235	0.790425
H193	H	0.987316	-0.374430	1.063489
H194	H	1.487316	0.125570	1.563489
Br195	Br	1.185460	-0.207506	0.523430
Br196	Br	1.685460	0.292494	1.023430
H197	H	1.084138	-0.199405	0.861676
H198	H	1.584138	0.300595	1.361676
H199	H	0.987321	-0.374479	0.944779
H200	H	1.487321	0.125521	1.444779
Br201	Br	1.059688	-0.434883	0.879470
Br202	Br	1.559688	0.065117	1.379470
