data_functionalizedCrystal
_audit_creation_method	'MofGen! by Chris Wilmer'
_symmetry_space_group_name_H-M	'P1'
_symmetry_Int_Tables_number	1
_symmetry_cell_setting	triclinic
loop_
_symmetry_equiv_pos_as_xyz
  x,y,z
_cell_length_a	13.262522
_cell_length_b	23.532407
_cell_length_c	12.376457
_cell_angle_alpha	101.199798
_cell_angle_beta	63.170097
_cell_angle_gamma	83.669676
loop_
_atom_site_label
_atom_site_type_symbol
_atom_site_fract_x
_atom_site_fract_y
_atom_site_fract_z
O1	O	1.512232	0.012083	-0.558918
O2	O	1.184891	0.032059	-0.458287
O3	O	1.358427	-0.061159	-0.511615
O4	O	1.338695	0.105301	-0.505590
O5	O	1.315059	-0.037885	-0.310276
O6	O	1.141522	0.055333	-0.256948
O7	O	1.468863	0.035357	-0.357578
Zn8	Zn	1.298307	0.049040	-0.275296
Zn9	Zn	1.355447	0.018376	-0.540569
O10	O	1.295326	0.128575	-0.304251
C11	C	1.121335	0.044717	-0.344746
C12	C	0.996573	0.047752	-0.306391
C13	C	0.914325	0.061866	-0.178615
C14	C	0.797103	0.064714	-0.142569
C15	C	0.762117	0.053451	-0.234295
C16	C	0.844365	0.039341	-0.362073
C17	C	0.961599	0.036489	-0.398123
C18	C	0.809391	0.028074	-0.453803
C19	C	0.891639	0.013963	-0.581581
C20	C	1.008861	0.011112	-0.617625
C21	C	1.043847	0.022374	-0.525899
C22	C	0.692157	0.030926	-0.417753
C23	C	0.739432	0.005548	-0.637262
C24	C	0.856653	0.002701	-0.673308
C25	C	1.336240	-0.070722	-0.410788
C26	C	1.334726	-0.133892	-0.410314
C27	C	1.427958	-0.535843	-0.439037
C28	C	1.426556	-0.595201	-0.438614
O29	O	1.512980	-0.634584	-0.465224
N30	N	1.323386	-0.614684	-0.406897
C31	C	1.221613	-0.574806	-0.375613
O32	O	1.133730	-0.596829	-0.348597
C33	C	1.223019	-0.515450	-0.376044
C34	C	1.326193	-0.495969	-0.407751
C35	C	1.531125	-0.516361	-0.470742
C36	C	1.532526	-0.457007	-0.471162
C37	C	1.430761	-0.417133	-0.439877
C38	C	1.327594	-0.436615	-0.408171
C39	C	1.121249	-0.475574	-0.344769
C40	C	1.122664	-0.416215	-0.345204
C41	C	1.225838	-0.396734	-0.376911
C42	C	1.227230	-0.337387	-0.377306
N43	N	1.330401	-0.317904	-0.409023
C44	C	1.432166	-0.357777	-0.440308
C45	C	1.218671	-0.699460	-0.374711
C46	C	1.217263	-0.758814	-0.374271
C47	C	1.422206	-0.779205	-0.437275
C48	C	1.423612	-0.719849	-0.437706
C49	C	1.321841	-0.679977	-0.406428
C50	C	1.435101	-0.233127	-0.441187
C51	C	1.436492	-0.173766	-0.441599
C52	C	1.231550	-0.153380	-0.378602
C53	C	1.230157	-0.212736	-0.378183
C54	C	1.331942	-0.252609	-0.409483
O55	O	1.140853	-0.297972	-0.350715
O56	O	1.520038	-0.335748	-0.467335
C57	C	1.532419	0.022699	-0.471123
C58	C	1.657183	0.019663	-0.509486
C59	C	1.317515	0.138138	-0.405081
C60	C	1.319030	0.201307	-0.405563
N61	N	1.259319	0.069968	-0.094257
N62	N	1.394444	-0.002556	-0.721611
C63	C	1.484948	-0.051146	0.191393
C64	C	1.512230	-0.065793	0.064669
C65	C	1.449004	-0.031854	0.024931
C66	C	1.358493	0.016734	0.111929
C67	C	1.331214	0.031385	0.238663
C68	C	1.295270	0.050677	0.072202
C69	C	1.204759	0.099266	0.159200
C70	C	1.177484	0.113914	0.285921
C71	C	1.240710	0.079975	0.325659
C72	C	1.322549	0.036026	-0.054532
C73	C	1.168815	0.118557	-0.007261
C74	C	1.141533	0.133204	0.119462
H75	H	0.942824	0.071030	-0.103946
N76	N	1.478423	-0.047650	-0.111747
H77	H	1.545353	-0.083581	-0.160830
H78	H	1.408660	-0.056915	-0.118696
H79	H	1.517985	-0.265586	-0.466679
H80	H	1.396243	-0.003535	-0.125356
H81	H	1.507626	-0.703992	-0.463526
N82	N	1.531972	-0.822217	-0.471020
H83	H	1.515419	-0.862774	-0.465936
H84	H	1.593042	-0.824920	-0.559490
H85	H	1.148694	-0.120905	-0.353126
N86	N	1.553145	-0.087743	0.234248
H87	H	1.522131	-0.071086	0.327729
H88	H	1.545388	-0.130291	0.215971
H89	H	1.133243	-0.774666	-0.348431
H90	H	1.117332	0.146195	-0.039614
H91	H	1.146136	-0.228593	-0.352331
N92	N	1.170283	0.019303	-0.564784
H93	H	1.179731	0.059197	-0.527465
H94	H	1.198670	-0.012020	-0.533283
N95	N	1.108895	-0.656455	-0.340963
H96	H	1.043331	-0.677809	-0.320805
H97	H	1.088932	-0.622760	-0.265128
H98	H	0.710948	-0.003621	-0.711953
H99	H	1.037235	-0.491425	-0.318957
N100	N	1.012901	-0.373204	-0.311464
H101	H	0.983935	-0.387696	-0.372256
H102	H	0.951859	-0.370470	-0.222960
N103	N	1.097577	-0.004120	-0.755440
H104	H	1.057630	-0.010823	-0.808080
H105	H	1.137748	0.029739	-0.772275
H106	H	1.585924	-0.105353	-0.006161
N107	N	1.211281	0.095774	0.462345
H108	H	1.265067	0.066899	0.474312
H109	H	1.220612	0.137480	0.487878
H110	H	0.625201	0.042420	-0.313715
H111	H	1.520511	-0.157908	-0.467417
N112	N	1.079861	0.166317	0.379759
H113	H	1.043939	0.185592	0.335362
H114	H	1.019110	0.152217	0.447544
N115	N	0.635684	0.056528	-0.195411
H116	H	0.607222	0.087832	-0.226904
H117	H	0.626315	0.016615	-0.232735
N118	N	0.708396	0.079929	-0.004764
H119	H	0.748446	0.086230	0.047844
H120	H	0.649676	0.117490	0.018087
N121	N	0.945362	-0.012522	-0.811124
H122	H	0.985550	0.021325	-0.828060
H123	H	1.004482	-0.049881	-0.833790
H124	H	1.616542	-0.441153	-0.496986
N125	N	1.043914	0.185608	0.213307
H126	H	1.075263	0.215491	0.252755
H127	H	1.008028	0.204840	0.168835
N128	N	1.640895	-0.559363	-0.504488
H129	H	1.706453	-0.538005	-0.524634
H130	H	1.628700	-0.575808	-0.431039
