data_functionalizedCrystal
_audit_creation_method	'MofGen! by Chris Wilmer'
_symmetry_space_group_name_H-M	'P1'
_symmetry_Int_Tables_number	1
_symmetry_cell_setting	triclinic
loop_
_symmetry_equiv_pos_as_xyz
  x,y,z
_cell_length_a	16.992694
_cell_length_b	17.038272
_cell_length_c	16.053802
_cell_angle_alpha	92.751609
_cell_angle_beta	87.249047
_cell_angle_gamma	90.889890
loop_
_atom_site_label
_atom_site_type_symbol
_atom_site_fract_x
_atom_site_fract_y
_atom_site_fract_z
O1	O	1.054593	0.163385	-0.069325
O2	O	1.554593	0.663385	0.430675
O3	O	0.826187	0.161558	-0.069350
O4	O	1.326187	0.661558	0.430650
O5	O	0.939032	0.048571	-0.069331
O6	O	1.439032	0.548571	0.430669
O7	O	0.941748	0.276372	-0.069344
O8	O	1.441748	0.776372	0.430656
O9	O	0.932819	0.054763	0.069527
O10	O	1.432819	0.554763	0.569527
O11	O	0.819974	0.167750	0.069508
O12	O	1.319974	0.667750	0.569508
O13	O	1.048380	0.169577	0.069533
O14	O	1.548380	0.669577	0.569533
Zn15	Zn	0.933190	0.169646	0.091567
Zn16	Zn	1.433190	0.669646	0.591567
Zn17	Zn	0.941376	0.161489	-0.091384
Zn18	Zn	1.441376	0.661489	0.408616
O19	O	0.935535	0.282564	0.069514
O20	O	1.435535	0.782564	0.569514
C21	C	0.793711	0.162304	0.000076
C22	C	1.293711	0.662304	0.500076
C23	C	0.706200	0.155293	0.000067
C24	C	1.206200	0.655293	0.500067
C25	C	0.660472	0.222933	0.000064
C26	C	1.160472	0.722933	0.500064
C27	C	0.578245	0.216342	0.000076
C28	C	1.078245	0.716342	0.500076
C29	C	0.541748	0.142110	0.000085
C30	C	1.041748	0.642110	0.500085
C31	C	0.587482	0.074465	0.000091
C32	C	1.087482	0.574465	0.500091
C33	C	0.669707	0.081057	0.000085
C34	C	1.169707	0.581057	0.500085
C35	C	0.296327	0.114789	0.000109
C36	C	0.796327	0.614789	0.500109
C37	C	0.214096	0.108201	0.000112
C38	C	0.714096	0.608201	0.500112
C39	C	0.204864	0.250079	0.000099
C40	C	0.704864	0.750079	0.500099
C41	C	0.287091	0.256665	0.000088
C42	C	0.787091	0.756665	0.500088
C43	C	0.332818	0.189020	0.000098
C44	C	0.832818	0.689020	0.500098
N45	N	0.457699	0.135371	0.000094
N46	N	0.957699	0.635371	0.500094
N47	N	0.416865	0.195760	0.000095
N48	N	0.916865	0.695760	0.500095
C49	C	0.933456	0.022384	0.000098
C50	C	1.433456	0.522384	0.500098
C51	C	0.926089	-0.064871	0.000097
C52	C	1.426089	0.435129	0.500097
C53	C	0.993729	-0.110741	0.000105
C54	C	1.493729	0.389259	0.500105
C55	C	0.986802	-0.192727	0.000096
C56	C	1.486802	0.307273	0.500096
C57	C	0.912235	-0.228840	0.000085
C58	C	1.412235	0.271160	0.500085
C59	C	0.844590	-0.182964	0.000075
C60	C	1.344590	0.317036	0.500075
C61	C	0.851518	-0.100981	0.000077
C62	C	1.351518	0.399019	0.500077
C63	C	0.887761	-0.476135	0.000071
C64	C	1.387761	0.023865	0.500071
C65	C	0.880838	-0.558124	0.000071
C66	C	1.380838	-0.058124	0.500071
C67	C	1.023051	-0.567881	0.000091
C68	C	1.523051	-0.067881	0.500091
C69	C	1.029972	-0.485895	0.000099
C70	C	1.529972	0.014105	0.500099
C71	C	0.962328	-0.440026	0.000084
C72	C	1.462328	0.059974	0.500084
C73	C	0.905153	-0.312643	0.000079
C74	C	1.405153	0.187357	0.500079
C75	C	0.969410	-0.356226	0.000084
C76	C	1.469410	0.143774	0.500084
C77	C	1.080856	0.168831	0.000105
C78	C	1.580856	0.668831	0.500105
C79	C	1.168367	0.175841	0.000109
C80	C	1.668367	0.675841	0.500109
C81	C	0.941111	0.308751	0.000084
C82	C	1.441111	0.808751	0.500084
C83	C	0.948478	0.396006	0.000079
C84	C	1.448478	0.896006	0.500079
N85	N	0.927609	0.175214	0.216427
N86	N	1.427609	0.675214	0.716427
N87	N	0.946963	0.155915	-0.216243
N88	N	1.446963	0.655915	0.283757
C89	C	0.975645	0.127157	0.260129
C90	C	1.475645	0.627157	0.760129
C91	C	0.971749	0.131060	0.347535
C92	C	1.471749	0.631060	0.847535
C93	C	0.919820	0.183023	0.391237
C94	C	1.419820	0.683023	0.891237
C95	C	0.871779	0.231082	0.347529
C96	C	1.371779	0.731082	0.847529
C97	C	0.875672	0.227175	0.260125
C98	C	1.375672	0.727175	0.760125
C99	C	0.902815	0.200067	0.652644
C100	C	1.402815	0.700067	1.152644
C101	C	0.898928	0.203972	0.740055
C102	C	1.398928	0.703972	1.240055
C103	C	0.998897	0.103948	0.740054
C104	C	1.498897	0.603948	1.240054
C105	C	1.002788	0.100050	0.652648
C106	C	1.502788	0.600050	1.152648
C107	C	0.954744	0.148105	0.608948
C108	C	1.454744	0.648105	1.108948
N109	N	0.915838	0.187015	0.480580
N110	N	1.415838	0.687015	0.980580
N111	N	0.958723	0.144109	0.519606
N112	N	1.458723	0.644109	1.019606
H113	H	0.541016	0.271422	0.000072
H114	H	1.041016	0.771422	0.500072
F115	F	0.175255	0.029191	0.000136
F116	F	0.675255	0.529191	0.500136
H117	H	0.706939	0.025977	0.000087
H118	H	1.206939	0.525977	0.500087
H119	H	0.557760	0.014024	0.000110
H120	H	1.057760	0.514024	0.500110
H121	H	0.316801	0.317112	0.000071
H122	H	0.816801	0.817112	0.500071
F123	F	1.058794	-0.241541	0.000106
F124	F	1.558794	0.258459	0.500106
F125	F	0.344982	0.042794	0.000119
F126	F	0.844982	0.542794	0.500119
F127	F	1.073094	-0.072313	0.000125
F128	F	1.573094	0.427687	0.500125
F129	F	1.109337	-0.447467	0.000089
F130	F	1.609337	0.052533	0.500089
H131	H	0.167624	0.305152	0.000092
H132	H	0.667624	0.805152	0.500092
F133	F	0.851686	0.251213	0.606142
F134	F	1.351686	0.751213	1.106142
H135	H	1.078123	-0.605236	0.000102
H136	H	1.578123	-0.105236	0.500102
H137	H	0.690181	0.283381	0.000056
H138	H	1.190181	0.783381	0.500056
F139	F	0.801470	-0.596557	0.000064
F140	F	1.301470	-0.096557	0.500064
F141	F	0.815767	-0.427328	0.000053
F142	F	1.315767	0.072672	0.500053
F143	F	1.058057	0.044745	0.606138
F144	F	1.558057	0.544745	1.106138
F145	F	0.765230	-0.221402	0.000054
F146	F	1.265230	0.278598	0.500054
H147	H	0.829494	0.273389	0.383117
H148	H	1.329494	0.773389	0.883117
H149	H	0.796438	-0.063634	0.000071
H150	H	1.296438	0.436366	0.500071
F151	F	1.030919	0.071854	0.213625
F152	F	1.530919	0.571854	0.713625
F153	F	1.048768	-0.317789	0.000091
F154	F	1.548768	0.182211	0.500091
F155	F	0.825795	-0.351085	0.000064
F156	F	1.325795	0.148915	0.500064
F157	F	1.022873	0.079912	0.394046
F158	F	1.522873	0.579912	0.894046
H159	H	1.038011	0.064823	0.775643
H160	H	1.538011	0.564823	1.275643
F161	F	0.843656	0.259283	0.786561
F162	F	1.343656	0.759283	1.286561
F163	F	0.824543	0.278321	0.213615
F164	F	1.324543	0.778321	0.713615
