data_functionalizedCrystal
_audit_creation_method	'MofGen! by Chris Wilmer'
_symmetry_space_group_name_H-M	'P1'
_symmetry_Int_Tables_number	1
_symmetry_cell_setting	triclinic
loop_
_symmetry_equiv_pos_as_xyz
  x,y,z
_cell_length_a	16.974800
_cell_length_b	15.944493
_cell_length_c	15.455313
_cell_angle_alpha	92.670512
_cell_angle_beta	90.973911
_cell_angle_gamma	83.432052
loop_
_atom_site_label
_atom_site_type_symbol
_atom_site_fract_x
_atom_site_fract_y
_atom_site_fract_z
O1	O	1.049059	0.107079	0.001549
O2	O	0.819624	0.119907	-0.014563
O3	O	0.940631	-0.008771	-0.006073
O4	O	0.928052	0.235757	-0.006942
O5	O	0.933711	-0.001443	0.137704
O6	O	0.812704	0.127235	0.129214
O7	O	1.042139	0.114407	0.145326
Cu8	Cu	0.926790	0.121490	0.150397
Cu9	Cu	0.934973	0.112824	-0.019635
O10	O	0.921132	0.243085	0.136835
C11	C	0.786805	0.122949	0.055263
C12	C	0.699324	0.121085	0.049119
C13	C	0.654458	0.124201	0.124607
C14	C	0.572261	0.122437	0.118837
C15	C	0.534932	0.117561	0.037578
C16	C	0.579804	0.114442	-0.037916
C17	C	0.662000	0.116200	-0.032145
C18	C	0.289508	0.111867	0.011913
C19	C	0.207306	0.110112	0.006147
C20	C	0.199769	0.118105	0.162901
C21	C	0.281966	0.119869	0.168665
C22	C	0.326832	0.116744	0.093172
N23	N	0.450913	0.115760	0.031677
N24	N	0.410849	0.118540	0.099073
C25	C	0.936657	-0.036404	0.065776
C26	C	0.935116	-0.129656	0.065657
C27	C	1.006343	-0.365251	0.070675
C28	C	0.971344	-0.419521	-0.002911
C29	C	0.932260	-0.300383	0.065467
C30	C	0.964505	-0.412272	0.138840
C31	C	0.929506	-0.465299	0.065287
C32	C	0.897284	-0.353428	-0.008177
C33	C	0.890453	-0.346172	0.133639
C34	C	0.855401	-0.400410	0.060032
C35	C	0.933849	-0.205380	0.065569
C36	C	0.927912	-0.560299	0.065178
C37	C	1.074958	0.111365	0.075497
C38	C	1.162440	0.113228	0.081636
C39	C	0.925106	0.270717	0.064985
C40	C	0.926647	0.363969	0.065098
N41	N	0.921040	0.127585	0.269990
N42	N	0.940729	0.106722	-0.139227
C43	C	0.972466	0.072938	0.318992
C44	C	0.968124	0.077555	0.409495
C45	C	0.912361	0.136823	0.450995
C46	C	0.860930	0.191472	0.401986
C47	C	0.865268	0.186851	0.311484
C48	C	0.893636	0.156750	0.721262
C49	C	0.889304	0.161369	0.811771
C50	C	0.996498	0.047450	0.819274
C51	C	1.000834	0.042837	0.728771
C52	C	0.949401	0.097483	0.679769
N53	N	0.907924	0.141546	0.543504
N54	N	0.953834	0.092756	0.587262
H55	H	0.549405	0.110466	-0.104079
N56	N	0.841117	0.212589	0.671222
N57	N	0.868530	0.262231	0.622473
H58	H	0.831438	0.301674	0.587130
N59	N	0.692599	0.129172	0.207607
N60	N	0.765987	0.130739	0.212752
H61	H	0.792925	0.134247	0.271372
N62	N	0.169163	0.105135	-0.076856
N63	N	0.116864	0.162420	-0.098073
H64	H	0.089924	0.158908	-0.156691
H65	H	0.856309	-0.314229	0.191378
H66	H	0.326028	0.109321	-0.049559
N67	N	1.000160	-0.444640	0.216773
N68	N	1.070978	-0.435889	0.234399
H69	H	1.096166	-0.458748	0.289436
H70	H	1.038373	0.002958	0.859179
H71	H	0.823390	0.231349	0.271586
N72	N	1.029391	0.012346	0.276616
N73	N	1.075269	-0.036475	0.320381
H74	H	1.115456	-0.079291	0.290455
N75	N	1.020658	0.021725	0.459536
N76	N	1.070445	-0.031187	0.422473
H77	H	1.107549	-0.070622	0.457814
N78	N	0.526444	0.125615	0.195955
N79	N	0.559783	0.129970	0.268503
H80	H	0.527426	0.132212	0.322972
H81	H	0.698529	0.113664	-0.093616
N82	N	1.057935	-0.017566	0.686406
N83	N	1.103937	-0.066259	0.730176
H84	H	1.144317	-0.108864	0.700261
H85	H	0.868903	-0.327738	-0.070368
H86	H	0.843892	0.209636	0.845555
H87	H	1.070159	-0.349479	0.075085
N88	N	0.320085	0.124827	0.251678
N89	N	0.280017	0.127592	0.319073
H90	H	0.306939	0.131088	0.377703
H91	H	1.005515	-0.451449	-0.060646
H92	H	0.815521	0.239727	0.435779
H93	H	0.163231	0.120647	0.224364
H94	H	0.791540	-0.416025	0.055508
