data_functionalizedCrystal
_audit_creation_method	'MofGen! by Chris Wilmer'
_symmetry_space_group_name_H-M	'P1'
_symmetry_Int_Tables_number	1
_symmetry_cell_setting	triclinic
loop_
_symmetry_equiv_pos_as_xyz
  x,y,z
_cell_length_a	17.038272
_cell_length_b	17.038272
_cell_length_c	9.130313
_cell_angle_alpha	89.998262
_cell_angle_beta	90.005249
_cell_angle_gamma	91.111556
loop_
_atom_site_label
_atom_site_type_symbol
_atom_site_fract_x
_atom_site_fract_y
_atom_site_fract_z
O1	O	1.048750	0.170533	-0.121617
O2	O	0.820938	0.167825	-0.121660
O3	O	0.933490	0.055273	-0.121628
O4	O	0.936198	0.283085	-0.121650
O5	O	0.933489	0.055276	0.121971
O6	O	0.820937	0.167828	0.121938
O7	O	1.048749	0.170536	0.121981
Cu8	Cu	0.934843	0.169182	0.144202
Cu9	Cu	0.934844	0.169179	-0.143881
O10	O	0.936197	0.283088	0.121949
C11	C	0.791645	0.165364	0.000134
C12	C	0.704361	0.158016	0.000117
C13	C	0.658752	0.225479	0.000112
C14	C	0.576740	0.218570	0.000133
C15	C	0.540339	0.144197	0.000149
C16	C	0.585954	0.076728	0.000159
C17	C	0.667965	0.083638	0.000148
C18	C	0.292951	0.119787	0.000190
C19	C	0.210935	0.112882	0.000196
C20	C	0.201726	0.254725	0.000173
C21	C	0.283739	0.261628	0.000154
C22	C	0.329347	0.194159	0.000172
C23	C	0.456510	0.137133	0.000165
C24	C	0.413174	0.201224	0.000165
C25	C	0.931027	0.025982	0.000171
C26	C	0.923679	-0.061301	0.000169
C27	C	0.991142	-0.106911	0.000184
C28	C	0.984233	-0.188923	0.000168
C29	C	0.909860	-0.225324	0.000149
C30	C	0.842391	-0.179708	0.000131
C31	C	0.849301	-0.097698	0.000136
C32	C	0.885449	-0.472712	0.000125
C33	C	0.878545	-0.554728	0.000124
C34	C	1.020387	-0.563937	0.000159
C35	C	1.027291	-0.481924	0.000173
C36	C	0.959822	-0.436316	0.000147
C37	C	0.902796	-0.309153	0.000139
C38	C	0.966886	-0.352488	0.000147
C39	C	1.078042	0.172997	0.000184
C40	C	1.165326	0.180346	0.000191
C41	C	0.938660	0.312379	0.000147
C42	C	0.946008	0.399663	0.000139
N43	N	0.934847	0.169185	0.346825
N44	N	0.934845	0.169170	-0.346504
C45	C	0.984700	0.119366	0.423492
C46	C	0.984697	0.119356	0.576828
C47	C	0.884987	0.218992	0.576819
C48	C	0.884986	0.218997	0.423485
C49	C	1.034561	0.069554	0.346832
C50	C	1.084418	0.019732	0.423499
C51	C	1.084416	0.019722	0.576835
C52	C	1.034556	0.069535	0.653506
H53	H	0.330076	0.064848	0.000206
C54	C	1.058447	-0.239090	0.000197
C55	C	1.073197	-0.296740	0.126694
C56	C	1.147416	-0.346906	0.126724
C57	C	1.206884	-0.339420	0.000257
C58	C	1.192136	-0.281767	-0.126249
C59	C	1.117917	-0.231601	-0.126279
H60	H	1.029174	-0.302284	0.220320
H61	H	1.158334	-0.389585	0.220372
H62	H	1.261825	-0.376555	0.000279
H63	H	1.236159	-0.276223	-0.219875
H64	H	1.106999	-0.188922	-0.219927
C65	C	0.416469	0.055322	0.000175
C66	C	0.431528	-0.002240	-0.126315
C67	C	0.391486	-0.084051	-0.126298
C68	C	0.336384	-0.108301	0.000208
C69	C	0.321322	-0.050738	0.126708
C70	C	0.361364	0.031074	0.126692
H71	H	0.472321	0.015710	-0.219971
H72	H	0.402636	-0.126663	-0.219943
H73	H	0.306742	-0.168862	0.000221
H74	H	0.280530	-0.068688	0.220365
H75	H	0.350214	0.073686	0.220336
H76	H	0.181300	0.052315	0.000208
C77	C	0.545914	-0.005083	0.000176
C78	C	0.490807	-0.029334	0.126674
C79	C	0.450768	-0.111147	0.126686
C80	C	0.465837	-0.168709	0.000200
C81	C	0.520946	-0.144460	-0.126308
C82	C	0.560985	-0.062646	-0.126320
H83	H	0.479650	0.013278	0.220316
H84	H	0.409972	-0.129098	0.220336
H85	H	0.436197	-0.229272	0.000209
H86	H	0.532103	-0.187071	-0.219949
H87	H	0.601781	-0.044695	-0.219970
H88	H	1.075316	-0.601079	0.000178
C89	C	0.830150	0.273800	0.339144
C90	C	0.775345	0.328629	0.423465
C91	C	0.720505	0.383431	0.339125
C92	C	0.720468	0.383404	0.170464
C93	C	0.775275	0.328573	0.086133
C94	C	0.830116	0.273771	0.170473
H95	H	0.775370	0.328651	0.548327
H96	H	0.679933	0.424021	0.401553
H97	H	0.679872	0.423972	0.108030
H98	H	0.775250	0.328551	-0.038729
H99	H	0.870687	0.233181	0.108045
H100	H	0.705099	0.028702	0.000152
H101	H	1.051705	-0.077279	0.000208
H102	H	0.539608	0.273507	0.000127
H103	H	0.688384	0.286042	0.000098
H104	H	1.125008	-0.020829	0.361066
H105	H	0.781835	-0.209353	0.000106
H106	H	0.842241	-0.338800	0.000126
C107	C	0.453214	0.283032	0.000142
C108	C	0.508342	0.307290	0.126620
C109	C	0.548390	0.389099	0.126587
C110	C	0.533310	0.446650	0.000076
C111	C	0.478179	0.422393	-0.126411
C112	C	0.438131	0.340584	-0.126379
H113	H	0.519507	0.264687	0.220279
H114	H	0.589201	0.407055	0.220222
H115	H	0.562956	0.507209	0.000052
H116	H	0.467014	0.464996	-0.220071
H117	H	0.397319	0.322628	-0.220014
C118	C	0.811233	-0.422554	0.000122
C119	C	0.751768	-0.430034	-0.126371
C120	C	0.677546	-0.379874	-0.126365
C121	C	0.662789	-0.322233	0.000133
C122	C	0.722255	-0.314751	0.126636
C123	C	0.796477	-0.364911	0.126630
H124	H	0.762691	-0.472705	-0.220021
H125	H	0.633525	-0.385413	-0.220011
H126	H	0.607845	-0.285101	0.000137
H127	H	0.711332	-0.272079	0.220286
H128	H	0.840497	-0.359371	0.220277
H129	H	0.164583	0.309653	0.000162
C130	C	0.323768	0.343444	0.000175
C131	C	0.378882	0.367693	0.126680
C132	C	0.418908	0.449513	0.126710
C133	C	0.403819	0.507083	0.000235
C134	C	0.348702	0.482836	-0.126280
C135	C	0.308677	0.401016	-0.126310
H136	H	0.390054	0.325075	0.220313
H137	H	0.459709	0.467462	0.220365
H138	H	0.433448	0.567651	0.000257
H139	H	0.337531	0.525454	-0.219913
H140	H	0.267876	0.383067	-0.219965
C141	C	1.139253	-0.035081	0.661173
C142	C	1.194092	-0.089875	0.576847
C143	C	1.248934	-0.144677	0.661183
C144	C	1.248938	-0.144686	0.829844
C145	C	1.194098	-0.089891	0.914180
C146	C	1.139255	-0.035089	0.829844
H147	H	1.194090	-0.089870	0.451986
H148	H	1.289531	-0.185240	0.598751
H149	H	1.289536	-0.185254	0.892274
H150	H	1.194099	-0.089896	1.039041
H151	H	1.098659	0.005474	0.892276
H152	H	1.087853	-0.452293	0.000189
H153	H	1.034552	0.069518	0.778363
H154	H	0.817978	-0.584363	0.000133
H155	H	0.794365	-0.060564	0.000124
H156	H	1.034569	0.069559	0.221978
H157	H	1.027441	-0.322847	0.000130
H158	H	0.844394	0.259548	0.639254
