data_functionalizedCrystal
_audit_creation_method	'MofGen! by Chris Wilmer'
_symmetry_space_group_name_H-M	'P1'
_symmetry_Int_Tables_number	1
_symmetry_cell_setting	triclinic
loop_
_symmetry_equiv_pos_as_xyz
  x,y,z
_cell_length_a	12.645331
_cell_length_b	29.839132
_cell_length_c	12.645323
_cell_angle_alpha	90.036901
_cell_angle_beta	89.985145
_cell_angle_gamma	89.955501
loop_
_atom_site_label
_atom_site_type_symbol
_atom_site_fract_x
_atom_site_fract_y
_atom_site_fract_z
Zn1	Zn	1.620519	0.178850	-0.599176
Zn2	Zn	1.620318	0.253985	-0.421885
Zn3	Zn	1.443236	0.178868	-0.421942
Zn4	Zn	1.443130	0.253953	-0.599122
O5	O	1.531801	0.216414	-0.510531
O6	O	1.768839	0.188823	-0.575657
O7	O	1.596788	0.244041	-0.273545
O8	O	1.466882	0.115999	-0.445499
O9	O	1.768692	0.244023	-0.445402
O10	O	1.597130	0.115986	-0.575712
O11	O	1.466687	0.188853	-0.273587
O12	O	1.294875	0.188823	-0.445446
O13	O	1.466701	0.243970	-0.747476
O14	O	1.294797	0.243987	-0.575620
O15	O	1.597027	0.188792	-0.747516
O16	O	1.596685	0.316848	-0.445349
O17	O	1.466506	0.316824	-0.575564
C18	C	1.256371	0.216404	-0.510534
C19	C	1.138541	0.216410	-0.510560
C20	C	0.970963	0.251305	-0.592025
C21	C	1.093523	0.251192	-0.592366
C22	C	1.094116	0.169092	-0.541101
C23	C	0.971518	0.169305	-0.541675
C24	C	0.971283	0.228453	-0.398296
C25	C	1.093888	0.229488	-0.398901
C26	C	1.531591	0.333137	-0.510468
C27	C	1.531598	0.383071	-0.510476
C28	C	1.599633	0.692714	-0.442784
C29	C	1.599734	0.880387	-0.442808
O30	O	1.657466	0.904651	-0.385234
N31	N	1.531912	0.903856	-0.510548
C32	C	1.464064	0.880404	-0.578293
O33	O	1.406387	0.904672	-0.635918
C34	C	1.463969	0.692732	-0.578273
C35	C	1.531788	0.669265	-0.510521
C36	C	1.667447	0.669247	-0.375037
C37	C	1.667417	0.622332	-0.375028
C38	C	1.599573	0.598883	-0.442765
C39	C	1.531758	0.622350	-0.510511
C40	C	1.396128	0.669281	-0.646022
C41	C	1.396112	0.622360	-0.646013
C42	C	1.463931	0.598893	-0.578260
C43	C	1.463884	0.551986	-0.578239
N44	N	1.531706	0.528516	-0.510498
C45	C	1.599551	0.551965	-0.442761
C46	C	1.464117	0.978935	-0.578297
C47	C	1.464140	1.025853	-0.578300
C48	C	1.599811	1.025832	-0.442816
C49	C	1.599783	0.978913	-0.442808
C50	C	1.531940	0.955466	-0.510556
C51	C	1.599482	0.453439	-0.442746
C52	C	1.599443	0.406520	-0.442739
C53	C	1.463775	0.406544	-0.578227
C54	C	1.463810	0.453460	-0.578230
C55	C	1.531672	0.476906	-0.510486
O56	O	1.406191	0.527692	-0.635790
O57	O	1.657236	0.527689	-0.385160
C58	C	1.599663	0.739629	-0.442793
C59	C	1.531848	0.763096	-0.510539
C60	C	1.464004	0.739647	-0.578276
C61	C	1.531871	0.810014	-0.510543
C62	C	1.599715	0.833463	-0.442806
C63	C	1.667538	0.809993	-0.375066
C64	C	1.667507	0.763078	-0.375056
C65	C	1.396181	0.763117	-0.646017
C66	C	1.396216	0.810032	-0.646020
C67	C	1.464061	0.833481	-0.578283
C68	C	1.808306	0.216425	-0.510529
C69	C	1.926136	0.216429	-0.510528
C70	C	1.531875	0.216375	-0.787036
C71	C	1.531906	0.216359	-0.904867
C72	C	1.532001	1.099236	-0.510595
C73	C	1.531984	1.049301	-0.510563
C74	C	1.449922	0.251064	-0.949724
C75	C	1.449634	0.250933	-1.072284
C76	C	1.502091	0.168938	-1.072792
C77	C	1.501463	0.169167	-0.950194
C78	C	1.643981	0.228601	-0.950039
C79	C	1.643411	0.229618	-1.072645
C80	C	1.531788	0.216420	-0.235101
C81	C	1.531962	0.216310	-0.117272
H82	H	1.122880	0.243234	-0.675525
H83	H	1.665942	0.264482	-1.101711
C84	C	1.135629	0.155064	-0.650747
N85	N	1.166895	0.144501	-0.733335
C86	C	1.133148	0.276522	-0.367767
N87	N	1.162739	0.311945	-0.344312
C88	C	1.392672	0.154682	-1.114287
N89	N	1.310257	0.143947	-1.145542
H90	H	1.559993	0.142359	-1.101933
C91	C	1.321477	0.596570	-0.720544
N92	N	1.265261	0.577146	-0.776678
C93	C	1.474778	0.298681	-0.909870
N94	N	1.493499	0.334547	-0.879842
C95	C	1.135271	0.197656	-0.312466
N96	N	1.166436	0.173675	-0.247366
C97	C	1.338365	0.240231	-0.908129
N98	N	1.254340	0.232070	-0.876801
C99	C	0.929387	0.240691	-0.703720
N100	N	0.898071	0.232696	-0.787849
H101	H	1.366604	0.242805	-1.101623
C102	C	0.929449	0.274270	-0.360793
N103	N	0.897940	0.308781	-0.332559
H104	H	1.340897	0.688379	-0.701189
H105	H	1.419553	0.158808	-0.921610
C106	C	1.578654	0.133029	-0.910103
N107	N	1.636788	0.105809	-0.879912
H108	H	0.941432	0.286510	-0.573093
C109	C	0.932114	0.194138	-0.316260
N110	N	0.902605	0.168290	-0.254478
H111	H	1.671237	0.262574	-0.919106
C112	C	1.389507	0.953148	-0.652858
N113	N	1.333319	0.933727	-0.709026
H114	H	1.408534	0.387445	-0.633374
C115	C	0.931459	0.133008	-0.464993
N116	N	0.901292	0.105667	-0.407242
C117	C	1.133474	0.133036	-0.463390
N118	N	1.163106	0.105880	-0.404845
H119	H	1.707746	0.206184	-1.103272
C120	C	1.726498	0.194457	-0.910840
N121	N	1.788642	0.168738	-0.881309
H122	H	1.123556	0.286281	-0.573223
H123	H	0.942953	0.159107	-0.623722
H124	H	1.408590	0.472567	-0.633403
C125	C	1.674047	0.380709	-0.368198
N126	N	1.730237	0.361270	-0.312054
H127	H	1.654744	0.472524	-0.387585
C128	C	1.742016	0.596524	-0.300485
N129	N	1.798205	0.577089	-0.244333
H130	H	1.722700	0.688334	-0.319877
C131	C	1.742166	0.835796	-0.300553
N132	N	1.798376	0.855233	-0.244438
H133	H	1.655007	0.959810	-0.387639
H134	H	1.468277	0.286056	-1.102357
C135	C	1.321603	0.835840	-0.720557
N136	N	1.265412	0.855277	-0.776703
C137	C	1.674447	1.051634	-0.368311
N138	N	1.730665	1.071071	-0.312203
H139	H	1.408904	1.044955	-0.633461
C140	C	1.742111	0.737271	-0.300518
N141	N	1.798305	0.717836	-0.244372
C142	C	1.321571	0.737330	-0.720566
N143	N	1.265377	0.717909	-0.776728
