data_functionalizedCrystal
_audit_creation_method	'MofGen! by Chris Wilmer'
_symmetry_space_group_name_H-M	'P1'
_symmetry_Int_Tables_number	1
_symmetry_cell_setting	triclinic
loop_
_symmetry_equiv_pos_as_xyz
  x,y,z
_cell_length_a	27.440280
_cell_length_b	14.628931
_cell_length_c	14.628931
_cell_angle_alpha	60.000000
_cell_angle_beta	89.995243
_cell_angle_gamma	59.993894
loop_
_atom_site_label
_atom_site_type_symbol
_atom_site_fract_x
_atom_site_fract_y
_atom_site_fract_z
Zr1	Zr	0.469496	1.000495	-0.119995
O2	O	0.391677	1.191215	-0.265951
O3	O	0.493351	0.809784	-0.075251
O4	O	0.493351	1.000490	-0.265957
O5	O	0.391678	1.000509	0.075187
O6	O	0.573553	1.000476	-0.265963
O7	O	0.391677	1.000509	-0.075245
O8	O	0.573554	0.659337	0.075175
O9	O	0.391677	1.341647	-0.265951
O10	O	0.563379	0.888212	-0.056173
O11	O	0.503525	0.888223	0.056097
O12	O	0.503525	1.112754	-0.168435
O13	O	0.443671	1.112765	-0.056165
Zr14	Zr	0.597409	1.000471	0.119918
Zr15	Zr	0.597408	1.000471	-0.120004
Zr16	Zr	0.469496	1.000495	0.119927
Zr17	Zr	0.469495	1.240417	-0.119995
Zr18	Zr	0.597409	0.760549	0.119918
O19	O	0.573553	1.191182	0.075174
O20	O	0.573553	1.191182	-0.265963
O21	O	0.391677	1.191215	0.075187
O22	O	0.675227	0.809751	0.265874
O23	O	0.675227	0.809751	-0.075264
O24	O	0.493352	0.809784	0.265886
O25	O	0.675227	1.000457	-0.075264
O26	O	0.573553	1.000476	0.265880
O27	O	0.493351	1.000490	0.265886
O28	O	0.675227	1.000457	0.075168
O29	O	0.493350	1.341629	-0.265958
O30	O	0.573554	0.659337	0.265881
O31	O	0.675228	0.659319	0.265874
O32	O	0.675227	0.659319	0.075169
O33	O	0.391677	1.341647	-0.075245
O34	O	0.493351	1.341629	-0.075252
O35	O	0.563379	0.888212	0.168358
O36	O	0.623233	0.888201	0.056088
O37	O	0.563379	1.112743	-0.056174
O38	O	0.503525	1.112754	0.056096
C39	C	0.533452	0.700377	-0.000038
C40	C	0.533453	0.598524	-0.000038
C41	C	0.491462	0.631882	-0.078794
C42	C	0.491461	0.526613	-0.078796
C43	C	0.373453	1.000512	-0.000028
C44	C	0.319150	1.000522	-0.000024
C45	C	-0.017548	1.000454	-0.082914
C46	C	-0.068565	1.000445	-0.082915
O47	O	-0.094940	1.000397	-0.153373
N48	N	-0.094083	1.000447	-0.000042
C49	C	-0.068577	1.000446	0.082843
O50	O	-0.094966	1.000446	0.153334
C51	C	-0.017557	1.000446	0.082848
C52	C	0.007954	1.000457	-0.000037
C53	C	0.007964	1.000464	-0.165792
C54	C	0.058978	1.000475	-0.165792
C55	C	0.084480	1.000477	-0.082915
C56	C	0.058968	1.000468	-0.000037
C57	C	0.007950	1.000435	0.165737
C58	C	0.058974	1.000434	0.165734
C59	C	0.084485	1.000445	0.082850
C60	C	0.135483	1.000482	0.082839
N61	N	0.161001	1.000480	-0.000033
C62	C	0.135499	1.000477	-0.082911
C63	C	-0.175721	1.000444	0.082829
C64	C	-0.226742	1.000453	0.082821
C65	C	-0.226726	1.000450	-0.082936
C66	C	-0.175707	1.000450	-0.082932
C67	C	-0.150203	1.000441	-0.000044
C68	C	0.242632	1.000503	-0.082905
C69	C	0.293648	1.000520	-0.082901
C70	C	0.293630	1.000516	0.082859
C71	C	0.242616	1.000506	0.082852
C72	C	0.217119	1.000495	-0.000036
O73	O	0.161892	1.000525	0.153264
O74	O	0.161899	1.000460	-0.153381
C75	C	0.693452	1.000454	-0.000049
C76	C	0.747754	1.000444	-0.000053
C77	C	0.533452	1.000483	-0.300144
C78	C	0.533452	1.000483	-0.401997
C79	C	0.533452	1.300589	-0.000039
C80	C	0.533452	1.402442	-0.000039
C81	C	0.575442	1.000475	-0.447409
C82	C	0.575443	1.000475	-0.552679
C83	C	0.533452	1.000483	0.300067
C84	C	0.533453	1.000483	0.401920
C85	C	0.693452	0.700348	-0.000049
C86	C	0.747755	0.598485	-0.000052
C87	C	0.533453	0.700377	0.300067
C88	C	0.533453	0.598524	0.401921
C89	C	0.693452	0.700348	0.300057
C90	C	0.747755	0.598485	0.401906
C91	C	0.373452	1.300618	-0.300133
C92	C	0.319149	1.402481	-0.401983
C93	C	0.373452	1.300618	-0.000028
C94	C	0.319150	1.402481	-0.000025
C95	C	0.533451	1.300589	-0.300144
C96	C	0.533451	1.402442	-0.401997
C97	C	0.742012	0.550655	-0.058663
C98	C	0.793030	0.454957	-0.058689
C99	C	0.849790	0.407084	-0.000096
C100	C	0.855531	0.454924	0.058516
C101	C	0.804514	0.550627	0.058535
C102	C	0.804504	0.550643	0.391132
C103	C	0.855532	0.454945	0.486821
C104	C	0.849810	0.407084	0.593283
C105	C	0.793054	0.454935	0.604055
C106	C	0.742027	0.550638	0.508367
C107	C	0.262400	1.450335	-0.391209
C108	C	0.211372	1.546062	-0.486898
C109	C	0.217095	1.593928	-0.593360
C110	C	0.273850	1.546071	-0.604132
C111	C	0.324877	1.450352	-0.508444
C112	C	0.324892	1.450322	0.058576
C113	C	0.273874	1.546046	0.058576
C114	C	0.217114	1.593922	-0.000020
C115	C	0.211373	1.546077	-0.058629
C116	C	0.262391	1.450361	-0.058634
C117	C	0.563145	0.553109	0.503019
C118	C	0.563146	0.447839	0.608291
H119	H	0.569402	0.492032	0.067386
H120	H	0.611390	1.000476	-0.591735
H121	H	0.175577	1.671860	-0.000007
O122	O	0.490640	1.000317	-0.448595
C123	C	0.517719	0.888937	-0.448253
H124	H	0.565990	0.851802	-0.443935
H125	H	0.492390	0.913984	-0.528116
H126	H	0.516674	0.810962	-0.372436
O127	O	0.380038	1.403625	0.115641
C128	C	0.411429	1.269517	0.197877
H129	H	0.378324	1.243325	0.219669
H130	H	0.439642	1.242006	0.276131
H131	H	0.441703	1.214778	0.164333
H132	H	0.165164	1.585011	-0.478105
O133	O	0.686934	0.597115	0.518985
C134	C	0.680390	0.652495	0.578003
H135	H	0.726320	0.609277	0.630798
H136	H	0.653567	0.631482	0.634914
H137	H	0.655990	0.761503	0.516024
H138	H	-0.154961	1.000447	0.150325
H139	H	0.175541	1.671869	-0.671267
H140	H	0.611393	1.000462	-0.408352
H141	H	0.788344	0.416017	-0.106418
O142	O	0.279565	1.592319	0.115617
C143	C	0.340603	1.529540	0.167320
H144	H	0.367801	1.432539	0.178909
H145	H	0.347720	1.513031	0.252453
H146	H	0.355646	1.592281	0.112409
O147	O	0.156191	1.592686	-0.115441
C148	C	0.112399	1.687441	-0.102878
H149	H	0.132297	1.671712	-0.023735
H150	H	0.073052	1.679688	-0.096143
H151	H	0.096438	1.787543	-0.178595
O152	O	0.217834	1.000682	0.163328
C153	C	0.200587	1.112066	0.158050
H154	H	0.227729	1.149209	0.115919
H155	H	0.209005	1.087022	0.246391
H156	H	0.151084	1.190034	0.107577
O157	O	0.910704	0.408384	0.476542
C158	C	0.954521	0.313641	0.583819
H159	H	0.934644	0.329341	0.647268
H160	H	0.993854	0.321444	0.582734
H161	H	0.970496	0.213531	0.608204
H162	H	0.497499	1.000497	-0.559037
H163	H	0.508036	0.441484	0.511281
H164	H	-0.012814	1.000425	0.233229
O165	O	-0.251460	1.000205	-0.163302
C166	C	-0.251292	0.888852	-0.112568
H167	H	-0.215167	0.811025	-0.026624
H168	H	-0.241901	0.851461	-0.167173
H169	H	-0.296670	0.914024	-0.102884
H170	H	0.508031	0.559475	0.393302
H171	H	0.257729	1.411367	-0.304531
O172	O	0.279298	1.592669	-0.707637
C173	C	0.222087	1.687429	-0.789770
H174	H	0.188275	1.671712	-0.752447
H175	H	0.222634	1.679670	-0.863573
H176	H	0.209090	1.787529	-0.819706
O177	O	0.787422	0.408420	0.707414
C178	C	0.755967	0.353022	0.719710
H179	H	0.727798	0.396262	0.633571
H180	H	0.725647	0.373992	0.770068
H181	H	0.789020	0.244020	0.765436
O182	O	0.318371	1.000469	-0.163470
C183	C	0.284911	1.000492	-0.236630
H184	H	0.259397	0.959776	-0.191976
H185	H	0.316298	0.938067	-0.263385
H186	H	0.251983	1.103648	-0.313688
H187	H	0.695800	0.589631	-0.106390
O188	O	0.217768	1.000671	-0.163452
C189	C	0.158573	1.112046	-0.224113
H190	H	0.141021	1.149165	-0.170715
H191	H	0.129380	1.086998	-0.246684
H192	H	0.157451	1.190032	-0.303989
H193	H	0.257707	1.411412	-0.106351
O194	O	0.910714	0.408226	0.115419
C195	C	0.954505	0.313520	0.102806
H196	H	0.934607	0.271701	0.081211
H197	H	0.993852	0.232978	0.184367
H198	H	0.970466	0.359296	0.032645
O199	O	-0.251533	1.000288	0.163354
C200	C	-0.251340	0.888904	0.224017
H201	H	-0.249082	0.851772	0.170627
H202	H	-0.293894	0.913947	0.246577
H203	H	-0.210889	0.810930	0.303901
H204	H	0.455511	0.554998	-0.146220
O205	O	0.899284	0.314071	-0.000188
C206	C	0.882037	0.282150	-0.064509
H207	H	0.834940	0.308542	-0.068901
H208	H	0.914265	0.173980	-0.023942
H209	H	0.882961	0.338112	-0.152693
O210	O	0.379968	1.404097	-0.519073
C211	C	0.386503	1.506230	-0.578094
H212	H	0.340570	1.601971	-0.630876
H213	H	0.413320	1.491824	-0.635017
H214	H	0.410905	1.507484	-0.516117
O215	O	0.083650	1.000506	0.246297
C216	C	0.050195	1.000472	0.319455
H217	H	0.002980	1.041157	0.274804
H218	H	0.048277	1.062919	0.346195
H219	H	0.072273	0.897317	0.396521
O220	O	0.593382	0.599921	0.513165
C221	C	0.553238	0.734026	0.461283
H222	H	0.512108	0.774520	0.396154
H223	H	0.575866	0.783662	0.418673
H224	H	0.539280	0.752338	0.527067
O225	O	0.448650	0.758965	-0.159263
C226	C	0.475727	0.819205	-0.219851
H227	H	0.523998	0.761462	-0.166443
H228	H	0.450397	0.921540	-0.242314
H229	H	0.474680	0.823326	-0.299788
O230	O	0.810202	0.596890	0.115583
C231	C	0.871241	0.534126	0.167268
H232	H	0.898442	0.437134	0.178841
H233	H	0.878364	0.517602	0.252407
H234	H	0.886275	0.596886	0.112352
H235	H	0.809175	0.589597	0.304454
H236	H	0.891364	0.329157	0.671190
H237	H	0.588567	0.408782	0.695020
H238	H	0.569401	0.374048	0.067395
H239	H	0.079748	1.000479	-0.233281
O240	O	-0.016764	1.000236	-0.246170
C241	C	-0.016604	0.888893	-0.195476
H242	H	0.019513	0.811050	-0.109523
H243	H	-0.007206	0.851522	-0.250096
H244	H	-0.061987	0.914073	-0.185818
O245	O	-0.150885	1.000220	-0.163349
C246	C	-0.133680	0.888875	-0.158107
H247	H	-0.126957	0.811041	-0.070698
H248	H	-0.090162	0.851489	-0.177015
H249	H	-0.170007	0.914056	-0.222369
O250	O	0.318419	1.000695	0.163211
C251	C	0.318227	1.112077	0.112484
H252	H	0.315963	1.149211	0.021959
H253	H	0.360784	1.087034	0.160062
H254	H	0.277779	1.190052	0.114411
