data_functionalizedCrystal
_audit_creation_method	'MofGen! by Chris Wilmer'
_symmetry_space_group_name_H-M	'P1'
_symmetry_Int_Tables_number	1
_symmetry_cell_setting	triclinic
loop_
_symmetry_equiv_pos_as_xyz
  x,y,z
_cell_length_a	9.065218
_cell_length_b	10.065875
_cell_length_c	9.065218
_cell_angle_alpha	81.078217
_cell_angle_beta	94.984115
_cell_angle_gamma	81.120447
loop_
_atom_site_label
_atom_site_type_symbol
_atom_site_fract_x
_atom_site_fract_y
_atom_site_fract_z
O1	O	1.981707	-0.113526	-0.194950
O2	O	1.552421	-0.113520	-0.212697
O3	O	1.775937	-0.113521	0.010818
O4	O	1.758192	-0.113526	-0.418466
O5	O	1.733318	0.113468	-0.031976
O6	O	1.509802	0.113469	-0.255492
O7	O	1.939088	0.113462	-0.237745
Zn8	Zn	1.717678	0.149505	-0.253413
Zn9	Zn	1.773831	-0.149563	-0.197029
O10	O	1.715572	0.113463	-0.461260
C11	C	1.476125	-0.000025	-0.232389
C12	C	1.312282	-0.000023	-0.227290
N13	N	1.679367	0.353610	-0.291893
C14	C	1.752922	-0.000029	0.044408
C15	C	1.747824	-0.000035	0.208252
C16	C	2.015385	-0.000036	-0.218052
C17	C	2.179230	-0.000047	-0.223150
N18	N	1.812154	-0.353668	-0.158538
C19	C	1.760492	0.421389	-0.210408
C20	C	1.731017	0.578556	-0.240034
C21	C	1.738588	-0.000032	-0.494849
C22	C	1.743688	-0.000035	-0.658692
H23	H	1.851762	0.363065	-0.118706
Cl24	Cl	1.538433	0.443652	-0.433460
H25	H	1.639731	0.636878	-0.331731
H26	H	1.903430	0.588011	-0.066830
