data_functionalizedCrystal
_audit_creation_method	'MofGen! by Chris Wilmer'
_symmetry_space_group_name_H-M	'P1'
_symmetry_Int_Tables_number	1
_symmetry_cell_setting	triclinic
loop_
_symmetry_equiv_pos_as_xyz
  x,y,z
_cell_length_a	11.169417
_cell_length_b	19.121063
_cell_length_c	11.169409
_cell_angle_alpha	87.599247
_cell_angle_beta	90.019824
_cell_angle_gamma	92.469728
loop_
_atom_site_label
_atom_site_type_symbol
_atom_site_fract_x
_atom_site_fract_y
_atom_site_fract_z
Zn1	Zn	1.814442	-0.279539	0.698851
Zn2	Zn	1.805707	-0.397012	0.506702
Zn3	Zn	1.613724	-0.279582	0.498188
Zn4	Zn	1.605116	-0.396955	0.707343
O5	O	1.709747	-0.338272	0.602771
O6	O	1.981232	-0.295128	0.673371
O7	O	1.780188	-0.381477	0.337626
O8	O	1.647608	-0.181292	0.517690
O9	O	1.974815	-0.381435	0.532200
O10	O	1.795074	-0.181261	0.665116
O11	O	1.639139	-0.295201	0.331371
O12	O	1.444633	-0.295146	0.525924
O13	O	1.632936	-0.381338	0.874163
O14	O	1.438308	-0.381379	0.679589
O15	O	1.786727	-0.295073	0.867924
O16	O	1.771840	-0.495289	0.540435
O17	O	1.624466	-0.495247	0.687844
C18	C	1.397923	-0.338261	0.602755
C19	C	1.264522	-0.338274	0.602778
C20	C	1.696304	-0.520752	0.616011
C21	C	1.690663	-0.598817	0.621715
C22	C	1.764802	-0.635491	0.547710
C23	C	1.759503	-0.708842	0.553082
C24	C	1.680059	-0.745518	0.632454
C25	C	1.605917	-0.708838	0.706467
C26	C	1.611222	-0.635489	0.701100
C27	C	1.660204	-0.966986	0.652499
C28	C	1.654902	-1.040340	0.657858
C29	C	1.808490	-1.040339	0.504474
C30	C	1.813784	-0.966988	0.499110
C31	C	1.739646	-0.930315	0.573127
C32	C	1.674638	-0.820494	0.637944
C33	C	1.745073	-0.855340	0.567642
C34	C	2.022789	-0.338283	0.602788
C35	C	2.156188	-0.338288	0.602795
C36	C	1.709845	-0.338194	0.915808
C37	C	1.709887	-0.338161	1.049206
C38	C	1.723276	-0.155080	0.589506
C39	C	1.729041	-0.077014	0.583853
C40	C	1.709722	-0.338299	0.290948
C41	C	1.709928	-0.338134	0.157537
H42	H	1.819874	-0.738699	0.492818
H43	H	1.878474	-0.937128	0.434479
C44	C	1.588345	-0.860189	0.724235
C45	C	1.524561	-0.812376	0.787922
C46	C	1.445072	-0.848919	0.867438
H47	H	1.533902	-0.888856	0.680508
H48	H	1.632143	-0.888736	0.778720
H49	H	1.480765	-0.783840	0.733444
H50	H	1.578971	-0.783707	0.831674
H51	H	1.488870	-0.877466	0.921923
H52	H	1.390638	-0.877585	0.823700
H53	H	1.401793	-0.816484	0.910666
C54	C	1.530591	-0.595795	0.781509
C55	C	1.459861	-0.643612	0.852149
C56	C	1.385564	-0.607073	0.926233
H57	H	1.578423	-0.567133	0.831848
H58	H	1.480320	-0.567242	0.733498
H59	H	1.510127	-0.672153	0.900155
H60	H	1.412005	-0.672275	0.801841
H61	H	1.335292	-0.578520	0.878222
H62	H	1.433405	-0.578412	0.976564
H63	H	1.337556	-0.639510	0.974163
H64	H	1.809762	-0.825477	0.503022
C65	C	1.568680	-1.080288	0.743918
C66	C	1.579878	-1.152373	0.732742
C67	C	1.500460	-1.189195	0.811980
H68	H	1.586994	-1.068309	0.823747
H69	H	1.488886	-1.068354	0.725402
H70	H	1.659653	-1.164302	0.751266
H71	H	1.561553	-1.164374	0.652931
H72	H	1.420666	-1.177261	0.793465
H73	H	1.518781	-1.177210	0.891804
H74	H	1.508039	-1.238108	0.804401
H75	H	1.541236	-0.738706	0.771098
H76	H	1.599836	-0.937133	0.712765
C77	C	1.851177	-0.595802	0.461494
C78	C	1.914992	-0.643623	0.397857
C79	C	1.994586	-0.607089	0.318435
H80	H	1.807493	-0.567235	0.406963
H81	H	1.905584	-0.567154	0.505325
H82	H	1.860593	-0.672259	0.354028
H83	H	1.958701	-0.672191	0.452355
H84	H	2.048993	-0.578441	0.362266
H85	H	1.950892	-0.578524	0.263913
H86	H	2.037902	-0.639530	0.275255
C87	C	1.888942	-1.080282	0.424275
C88	C	1.867324	-1.152368	0.445984
C89	C	1.941436	-1.189185	0.372143
H90	H	1.872367	-1.068398	0.342698
H91	H	1.970464	-1.068249	0.441055
H92	H	1.785821	-1.164397	0.429196
H93	H	1.883906	-1.164273	0.527546
H94	H	2.022958	-1.177152	0.388923
H95	H	1.924856	-1.177295	0.290571
H96	H	1.926787	-1.238099	0.386870
