data_functionalizedCrystal
_audit_creation_method	'MofGen! by Chris Wilmer'
_symmetry_space_group_name_H-M	'P1'
_symmetry_Int_Tables_number	1
_symmetry_cell_setting	triclinic
loop_
_symmetry_equiv_pos_as_xyz
  x,y,z
_cell_length_a	20.016444
_cell_length_b	23.196402
_cell_length_c	23.196401
_cell_angle_alpha	60.007472
_cell_angle_beta	90.014557
_cell_angle_gamma	60.003412
loop_
_atom_site_label
_atom_site_type_symbol
_atom_site_fract_x
_atom_site_fract_y
_atom_site_fract_z
Zr1	Zr	0.643579	0.631034	-0.075645
O2	O	0.536885	0.751298	-0.167695
O3	O	0.676284	0.510768	-0.047428
O4	O	0.676254	0.631037	-0.167697
O5	O	0.536941	0.631028	0.047445
O6	O	0.786194	0.631042	-0.167697
O7	O	0.536915	0.631029	-0.047426
O8	O	0.786247	0.415903	0.047441
O9	O	0.536888	0.846167	-0.167694
O10	O	0.772282	0.560240	-0.035393
O11	O	0.690255	0.560235	0.035409
O12	O	0.690220	0.701836	-0.106192
O13	O	0.608193	0.701832	-0.035390
Zr14	Zr	0.818962	0.631039	0.075663
Zr15	Zr	0.818920	0.631041	-0.075646
Zr16	Zr	0.643621	0.631032	0.075664
Zr17	Zr	0.643584	0.782339	-0.075643
Zr18	Zr	0.818958	0.479735	0.075661
O19	O	0.786258	0.751305	0.047447
O20	O	0.786198	0.751308	-0.167695
O21	O	0.536945	0.751295	0.047447
O22	O	0.925656	0.510775	0.167713
O23	O	0.925597	0.510779	-0.047429
O24	O	0.676343	0.510765	0.167713
O25	O	0.925601	0.631045	-0.047427
O26	O	0.786287	0.631036	0.167715
O27	O	0.676347	0.631032	0.167715
O28	O	0.925627	0.631044	0.047444
O29	O	0.676261	0.846173	-0.167694
O30	O	0.786280	0.415901	0.167712
O31	O	0.925653	0.415907	0.167712
O32	O	0.925620	0.415908	0.047441
O33	O	0.536921	0.846165	-0.047423
O34	O	0.676294	0.846171	-0.047423
O35	O	0.772321	0.560237	0.106210
O36	O	0.854349	0.560242	0.035408
O37	O	0.772287	0.701838	-0.035391
O38	O	0.690259	0.701834	0.035411
C39	C	0.731265	0.441778	0.000006
C40	C	0.731263	0.377545	0.000005
C41	C	0.511945	0.631028	0.000009
C42	C	0.437508	0.631025	0.000009
C43	C	0.670705	-0.033039	-0.052256
C44	C	0.670698	0.027319	-0.052256
C45	C	0.731278	0.005238	0.000009
C46	C	0.791857	-0.077209	0.052287
C47	C	0.791858	-0.137564	0.052289
C48	C	0.805208	0.060820	0.016296
C49	C	0.805208	0.121176	0.016290
C50	C	0.731277	0.191391	0.000006
C51	C	0.657340	0.201252	-0.016286
C52	C	0.657341	0.140897	-0.016284
C53	C	0.731284	0.070677	0.000012
C54	C	0.670690	0.339274	-0.052266
C55	C	0.670683	0.399630	-0.052261
C56	C	0.791849	0.295100	0.052280
C57	C	0.791850	0.234746	0.052277
C58	C	0.731271	0.256838	0.000001
C59	C	0.309077	0.557122	0.036967
C60	C	0.239132	0.557126	0.036969
C61	C	0.153466	0.704957	-0.036950
C62	C	0.223411	0.704953	-0.036948
C63	C	0.301215	0.631033	0.000010
C64	C	0.161326	0.631041	0.000008
C65	C	0.085488	0.631045	0.000010
C66	C	0.377058	0.631028	0.000009
C67	C	0.950596	0.631046	0.000009
C68	C	1.025033	0.631049	0.000009
C69	C	0.731218	0.631040	-0.189255
C70	C	0.731200	0.631041	-0.253490
C71	C	0.731277	0.820296	0.000012
C72	C	0.731279	0.884528	0.000013
C73	C	0.688369	0.704950	-0.320619
C74	C	0.688390	0.704951	-0.380975
C75	C	0.731231	0.631039	-0.374196
C76	C	0.774072	0.557119	-0.307055
C77	C	0.774057	0.557120	-0.246702
C78	C	0.725145	0.574410	-0.441514
C79	C	0.725155	0.574412	-0.501868
C80	C	0.731283	0.631032	-0.560344
C81	C	0.737385	0.687665	-0.558466
C82	C	0.737369	0.687666	-0.498113
C83	C	0.731253	0.631029	-0.439635
C84	C	0.688472	0.704948	-0.692920
C85	C	0.688498	0.704946	-0.753275
C86	C	0.774175	0.557112	-0.679353
C87	C	0.774154	0.557116	-0.619000
C88	C	0.731298	0.631037	-0.625788
C89	C	0.731323	0.631034	0.189273
C90	C	0.731341	0.631033	0.253508
C91	C	0.950590	0.441787	0.000006
C92	C	1.025025	0.377557	0.000005
C93	C	0.731317	0.441775	0.189270
C94	C	0.731333	0.377541	0.253504
C95	C	0.950643	0.441784	0.189270
C96	C	1.025095	0.377553	0.253504
C97	C	0.511899	0.820289	-0.189252
C98	C	0.437446	0.884520	-0.253486
C99	C	0.511951	0.820287	0.000012
C100	C	0.437516	0.884516	0.000013
C101	C	0.731224	0.820299	-0.189252
C102	C	0.731208	0.884532	-0.253486
C103	C	1.017143	0.347393	-0.036960
C104	C	1.087076	0.287051	-0.036975
C105	C	1.164890	0.256870	-0.000021
C106	C	1.172771	0.287040	0.036945
C107	C	1.102839	0.347385	0.036955
C108	C	0.774178	0.347378	0.320633
C109	C	0.774190	0.287032	0.380993
C110	C	0.731361	0.256846	0.374223
C111	C	0.688510	0.287016	0.307087
C112	C	0.688494	0.347365	0.246728
C113	C	1.102884	0.347392	0.246711
C114	C	1.172847	0.287049	0.307059
C115	C	1.165020	0.256864	0.374200
C116	C	1.087223	0.287031	0.380991
C117	C	1.017262	0.347377	0.320644
C118	C	0.359657	0.914689	-0.246693
C119	C	0.289694	0.975050	-0.307041
C120	C	0.297522	1.005239	-0.374182
C121	C	0.375319	0.975068	-0.380973
C122	C	0.445280	0.914711	-0.320626
C123	C	0.445399	0.914687	0.036971
C124	C	0.375466	0.975046	0.036970
C125	C	0.297651	1.005229	0.000014
C126	C	0.289770	0.975056	-0.036949
C127	C	0.359703	0.914702	-0.036951
C128	C	0.774046	0.914698	-0.246693
C129	C	0.774047	0.975045	-0.307042
C130	C	0.731205	1.005228	-0.374182
C131	C	0.688367	0.975056	-0.380974
C132	C	0.688371	0.914706	-0.320626
H133	H	0.621374	-0.015044	-0.094822
H134	H	0.597139	0.148928	-0.029547
C135	C	0.530846	0.881523	-0.328110
N136	N	0.595293	0.856527	-0.333752
C137	C	1.258416	0.253869	0.299573
N138	N	1.322864	0.228878	0.293932
C139	C	0.821171	1.008227	-0.299555
N140	N	0.856663	1.033219	-0.293914
H141	H	1.221993	0.207726	0.423333
H142	H	0.372426	0.496932	0.067068
H143	H	0.809058	0.496931	-0.673832
H144	H	0.742340	0.733776	-0.496586
H145	H	0.353269	0.890113	-0.192029
H146	H	1.080862	0.262445	0.435665
C147	C	0.744129	0.749951	-0.622787
N148	N	0.749208	0.796863	-0.671235
H149	H	0.240548	1.054385	-0.423315
C150	C	0.821340	0.253848	0.454835
N151	N	0.856856	0.228855	0.510452
C152	C	0.731395	0.190452	0.440626
N153	N	0.731428	0.140441	0.490644
C154	C	0.821195	0.475815	-0.299599
N155	N	0.856690	0.414574	-0.293983
C156	C	0.384153	1.008218	0.077640
N157	N	0.390699	1.033200	0.108274
C158	C	0.220731	1.071616	0.000027
N159	N	0.162798	1.121617	0.000042
H160	H	0.226405	0.999640	-0.067037
H161	H	0.731208	1.054369	-0.423316
H162	H	0.953789	0.371966	-0.067061
H163	H	0.720149	0.528303	-0.393905
H164	H	0.226356	0.999605	-0.301498
H165	H	0.953925	0.371927	0.326185
H166	H	0.381682	0.999655	-0.435647
H167	H	1.109268	0.371937	0.067060
H168	H	0.353273	0.890139	-0.067045
H169	H	0.841186	-0.204688	0.094855
C170	C	1.241810	0.190482	-0.000034
N171	N	1.299743	0.140476	-0.000044
C172	C	1.258375	0.253826	0.077597
N173	N	1.322854	0.228802	0.108221
H174	H	0.809055	0.371948	0.326159
C175	C	0.641406	0.253799	0.299651
N176	N	0.605931	0.228773	0.294053
C177	C	0.530988	0.881500	0.077625
N178	N	0.595453	0.856512	0.108243
H179	H	0.621360	0.094448	-0.094813
H180	H	0.653576	0.765139	-0.698448
C181	C	0.067877	0.786265	-0.077610
N182	N	0.003411	0.847507	-0.108240
H183	H	0.808933	0.890133	-0.192029
H184	H	0.841179	0.167623	0.094838
C185	C	0.247786	0.475818	0.077619
N186	N	0.254306	0.414573	0.108237
C187	C	0.604043	0.490314	-0.109764
N188	N	0.553850	0.558618	-0.153079
H189	H	0.653486	0.999640	-0.435648
H190	H	0.217003	0.765143	-0.067042
H191	H	0.653484	0.890152	-0.326167
H192	H	0.653476	0.765142	-0.326153
H193	H	0.597138	0.258424	-0.029547
C194	C	1.078388	0.253868	-0.077634
N195	N	1.071843	0.228874	-0.108257
H196	H	0.621362	0.357263	-0.094831
C197	C	0.858487	0.270807	0.109773
N198	N	0.908679	0.252511	0.153079
H199	H	0.865417	0.003647	0.029561
C200	C	0.886539	0.110324	0.034209
N201	N	0.947800	0.102147	0.047707
C202	C	0.641270	0.786261	-0.454828
N203	N	0.605778	0.847504	-0.510453
C204	C	0.858499	-0.101496	0.109776
N205	N	0.908695	-0.119792	0.153078
C206	C	0.718438	0.512118	-0.503929
N207	N	0.713379	0.465197	-0.505479
C208	C	0.821263	0.475808	-0.545153
N209	N	0.856748	0.414564	-0.489530
H210	H	0.653607	0.371916	0.192071
H211	H	0.653623	0.765135	-0.807936
H212	H	1.109273	0.371960	0.192047
H213	H	0.808936	0.496932	-0.192040
