data_functionalizedCrystal
_audit_creation_method	'MofGen! by Chris Wilmer'
_symmetry_space_group_name_H-M	'P1'
_symmetry_Int_Tables_number	1
_symmetry_cell_setting	triclinic
loop_
_symmetry_equiv_pos_as_xyz
  x,y,z
_cell_length_a	12.759394
_cell_length_b	12.759401
_cell_length_c	12.759401
_cell_angle_alpha	89.993060
_cell_angle_beta	90.008635
_cell_angle_gamma	89.983638
loop_
_atom_site_label
_atom_site_type_symbol
_atom_site_fract_x
_atom_site_fract_y
_atom_site_fract_z
Zn1	Zn	-0.418407	-1.606120	0.594014
Zn2	Zn	-0.594053	-1.606054	0.418332
Zn3	Zn	-0.418394	-1.430462	0.418350
Zn4	Zn	-0.594049	-1.430410	0.593969
O5	O	-0.506226	-1.518262	0.506166
O6	O	-0.441714	-1.753132	0.570721
O7	O	-0.570748	-1.582755	0.271314
O8	O	-0.271374	-1.453813	0.441678
O9	O	-0.570761	-1.753084	0.441649
O10	O	-0.271384	-1.582868	0.570738
O11	O	-0.441692	-1.453748	0.271326
O12	O	-0.441688	-1.283434	0.441634
O13	O	-0.570754	-1.453725	0.740996
O14	O	-0.570741	-1.283396	0.570662
O15	O	-0.441710	-1.582818	0.741029
O16	O	-0.741074	-1.582705	0.441605
O17	O	-0.741071	-1.453661	0.570645
C18	C	-0.506213	-1.245294	0.506146
C19	C	-0.506233	-1.128518	0.506162
C20	C	-0.779193	-1.518198	0.506141
C21	C	-0.895970	-1.518268	0.506165
C22	C	-0.506233	-1.518273	0.780200
C23	C	-0.506236	-1.518278	0.896976
C24	C	-0.895920	-1.652742	0.371897
C25	C	-0.950756	-1.720007	0.304775
C26	C	-1.060477	-1.720069	0.304804
C27	C	-1.115366	-1.652861	0.371963
C28	C	-1.060530	-1.585596	0.439085
C29	C	-0.950806	-1.585539	0.439047
C30	C	-1.060580	-1.451128	0.573357
C31	C	-0.950858	-1.451059	0.573325
C32	C	-1.115468	-1.383920	0.640517
C33	C	-1.060633	-1.316648	0.707636
C34	C	-0.950904	-1.316588	0.707603
C35	C	-0.896023	-1.383795	0.640447
C36	C	-0.232193	-1.518353	0.506215
C37	C	-0.115416	-1.518393	0.506236
C38	C	-0.506240	-1.792295	0.506188
C39	C	-0.506245	-1.909071	0.506197
C40	C	-0.573533	-1.073663	0.573240
C41	C	-0.573537	-0.963939	0.573261
C42	C	-0.438938	-0.963933	0.439116
C43	C	-0.438929	-1.073655	0.439101
C44	C	-0.439054	-1.585489	0.951857
C45	C	-0.439052	-1.585480	1.061581
C46	C	-0.573423	-1.451047	1.061534
C47	C	-0.573419	-1.451051	0.951812
C48	C	-0.506242	-1.518249	1.233199
C49	C	-0.506238	-1.518265	1.116422
H50	H	-0.806579	-1.652686	0.371853
H51	H	-0.384143	-0.919251	0.384515
H52	H	-1.204810	-1.383979	0.640540
H53	H	-0.806682	-1.383746	0.640408
H54	H	-0.384119	-1.118319	0.384477
O55	O	-0.645863	-1.378523	0.892623
H56	H	-0.728331	-1.396490	0.913652
H57	H	-1.105331	-1.261938	0.762316
H58	H	-0.384346	-1.640226	0.907213
H59	H	-0.384344	-1.640207	1.106260
O60	O	-0.891760	-1.244027	0.779989
H61	H	-0.948364	-1.197300	0.826680
O62	O	-0.646108	-1.132842	0.645578
H63	H	-0.692898	-1.076260	0.692234
O64	O	-0.645885	-1.378541	1.120676
H65	H	-0.634609	-1.389833	1.206194
H66	H	-1.105124	-1.774847	0.250152
O67	O	-0.646127	-0.904715	0.645561
H68	H	-0.699458	-0.854706	0.598391
O69	O	-0.891547	-1.792509	0.232363
H70	H	-0.841615	-1.745509	0.178850
O71	O	-1.233708	-1.652921	0.371998
H72	H	-1.262618	-1.710982	0.314039
