data_functionalizedCrystal
_audit_creation_method	'MofGen! by Chris Wilmer'
_symmetry_space_group_name_H-M	'P1'
_symmetry_Int_Tables_number	1
_symmetry_cell_setting	triclinic
loop_
_symmetry_equiv_pos_as_xyz
  x,y,z
_cell_length_a	10.654550
_cell_length_b	14.472310
_cell_length_c	15.995350
_cell_angle_alpha	90.001162
_cell_angle_beta	96.011361
_cell_angle_gamma	90.016585
loop_
_atom_site_label
_atom_site_type_symbol
_atom_site_fract_x
_atom_site_fract_y
_atom_site_fract_z
O1	O	1.666321	0.076912	-0.117597
O2	O	1.300697	0.076897	-0.128801
O3	O	1.493504	0.076904	-0.001369
O4	O	1.473514	0.076905	-0.245029
O5	O	1.493454	-0.076778	-0.001377
O6	O	1.300647	-0.076785	-0.128808
O7	O	1.666272	-0.076770	-0.117604
Cu8	Cu	1.483455	-0.090810	-0.123207
Cu9	Cu	1.483514	0.090937	-0.123198
O10	O	1.473465	-0.076777	-0.245036
C11	C	1.253885	0.000054	-0.127982
C12	C	1.114473	0.000048	-0.125521
N13	N	1.483423	-0.218641	-0.123212
C14	C	1.034008	0.000062	-0.200551
C15	C	0.903017	0.000078	-0.198233
C16	C	0.932971	0.000070	-0.045849
C17	C	1.063959	0.000047	-0.048167
C18	C	1.016713	0.000070	-0.288528
C19	C	0.885722	0.000086	-0.286211
C20	C	1.483512	-0.592732	-0.123195
C21	C	1.379999	-0.553570	-0.191148
C22	C	1.380237	-0.446482	-0.191400
C23	C	1.483467	-0.407141	-0.123204
C24	C	1.614500	-0.445973	-0.143046
C25	C	1.613918	-0.553094	-0.143530
C26	C	1.457161	-0.553263	-0.035202
C27	C	1.454156	-0.446136	-0.035771
C28	C	1.483449	-0.302253	-0.123207
C29	C	1.483538	-0.697620	-0.123194
C30	C	1.713084	0.000075	-0.118423
C31	C	1.852495	0.000087	-0.120884
C32	C	1.492652	0.000065	0.029827
C33	C	1.490175	0.000070	0.122791
N34	N	1.483556	0.218768	-0.123186
C35	C	1.474316	0.000064	-0.276232
C36	C	1.476793	0.000065	-0.369197
C37	C	1.481278	0.000066	0.460591
C38	C	1.343964	0.000405	0.413954
C39	C	1.346442	0.000059	0.317249
C40	C	1.485691	0.000068	0.293004
C41	C	1.553390	-0.087687	0.333684
C42	C	1.549941	-0.087761	0.430340
C43	C	1.552834	0.087005	0.430690
C44	C	1.552802	0.088164	0.333745
C45	C	1.488192	0.000067	0.198292
C46	C	1.478780	0.000062	0.555303
H47	H	1.129471	0.000023	0.012929
C48	C	0.877400	0.000075	0.039236
C49	C	0.791414	-0.079715	0.061778
C50	C	0.735846	-0.079708	0.146865
C51	C	0.766266	0.000089	0.209410
C52	C	0.852257	0.079885	0.186869
C53	C	0.907824	0.079878	0.101782
H54	H	0.768892	-0.138791	0.015478
H55	H	0.672190	-0.138779	0.163551
H56	H	0.725131	0.000093	0.272397
H57	H	0.874779	0.138961	0.233170
H58	H	0.971481	0.138949	0.085097
C59	C	1.646626	-0.409725	-0.228790
C60	C	1.766662	-0.351711	-0.234311
C61	C	1.798779	-0.315465	-0.320057
C62	C	1.710861	-0.337232	-0.400281
C63	C	1.590818	-0.395248	-0.394763
C64	C	1.558700	-0.431494	-0.309017
H65	H	1.831751	-0.335595	-0.174921
H66	H	1.887644	-0.272518	-0.324141
H67	H	1.734637	-0.310400	-0.463755
H68	H	1.525729	-0.411364	-0.454152
H69	H	1.469836	-0.474442	-0.304932
H70	H	0.839682	-0.066262	-0.312802
C71	C	0.828771	0.086979	-0.330977
C72	C	0.755215	0.157023	-0.282477
C73	C	0.698263	0.243912	-0.327240
C74	C	0.714867	0.260756	-0.420503
C75	C	0.788426	0.190710	-0.469009
C76	C	0.845378	0.103821	-0.424246
H77	H	0.742921	0.144555	-0.213433
H78	H	0.643810	0.295764	-0.291332
H79	H	0.672708	0.325077	-0.453639
H80	H	0.800720	0.203178	-0.538052
H81	H	0.899832	0.051969	-0.460153
H82	H	1.045574	-0.064249	-0.322939
C83	C	1.274523	0.085027	0.279265
C84	C	1.214431	0.153673	0.336921
C85	C	1.142495	0.238639	0.298940
C86	C	1.130651	0.254959	0.203304
C87	C	1.190745	0.186311	0.145643
C88	C	1.262681	0.101346	0.183623
H89	H	1.223197	0.141594	0.407721
H90	H	1.098010	0.289456	0.341626
H91	H	1.077400	0.317856	0.175189
H92	H	1.181979	0.198391	0.074842
H93	H	1.307167	0.050528	0.140938
C94	C	1.064428	0.089698	-0.326375
C95	C	0.970359	0.166524	-0.356415
C96	C	1.018077	0.256153	-0.394259
C97	C	1.159863	0.268957	-0.402064
C98	C	1.253941	0.192129	-0.372023
C99	C	1.206224	0.102500	-0.334179
H100	H	0.865393	0.157047	-0.350638
H101	H	0.948433	0.313026	-0.416497
H102	H	1.195187	0.335306	-0.430079
H103	H	1.358908	0.201605	-0.377800
H104	H	1.275867	0.045627	-0.311941
H105	H	1.282838	-0.420230	-0.179465
H106	H	1.289101	0.063336	0.432807
C107	C	1.721055	-0.411544	-0.078011
C108	C	1.858412	-0.441042	-0.085030
C109	C	1.964965	-0.406613	-0.019993
C110	C	1.934162	-0.342686	0.052062
C111	C	1.796798	-0.313184	0.059083
C112	C	1.690245	-0.347614	-0.005953
H113	H	1.881221	-0.488368	-0.138372
H114	H	2.066651	-0.428452	-0.025191
H115	H	2.013039	-0.317199	0.100206
H116	H	1.773990	-0.265858	0.112426
H117	H	1.588559	-0.325774	-0.000755
C118	C	1.721147	-0.588378	-0.079447
C119	C	1.723190	-0.562803	0.014137
C120	C	1.830444	-0.598217	0.078129
C121	C	1.935653	-0.659207	0.048537
C122	C	1.933613	-0.684785	-0.045053
C123	C	1.826360	-0.649371	-0.109044
H124	H	1.645305	-0.517651	0.036048
H125	H	1.831953	-0.579281	0.147411
H126	H	2.015048	-0.685422	0.095907
H127	H	2.011499	-0.729936	-0.066963
H128	H	1.824851	-0.668306	-0.178326
H129	H	1.289305	-0.062180	0.433862
C130	C	1.549395	-0.409967	0.035826
C131	C	1.691089	-0.430605	0.035293
C132	C	1.786343	-0.394436	0.106886
C133	C	1.739903	-0.337630	0.179011
C134	C	1.598202	-0.316990	0.179546
C135	C	1.502948	-0.353158	0.107953
H136	H	1.725473	-0.472659	-0.018100
H137	H	1.891240	-0.409716	0.106490
H138	H	1.810416	-0.310856	0.232008
H139	H	1.563818	-0.274936	0.232939
H140	H	1.398051	-0.337878	0.108350
C141	C	1.402464	-0.589860	-0.278855
C142	C	1.514295	-0.654839	-0.288984
C143	C	1.536791	-0.691104	-0.376694
C144	C	1.447456	-0.662388	-0.454273
C145	C	1.335618	-0.597405	-0.444146
C146	C	1.313122	-0.561141	-0.356437
H147	H	1.580433	-0.676099	-0.231553
H148	H	1.619582	-0.739209	-0.384190
H149	H	1.464109	-0.689233	-0.519200
H150	H	1.269480	-0.576145	-0.501577
H151	H	1.230331	-0.513035	-0.348940
C152	C	1.559124	-0.587480	0.033130
C153	C	1.665779	-0.650916	0.009259
C154	C	1.767743	-0.685140	0.077584
C155	C	1.763054	-0.655929	0.169780
C156	C	1.656395	-0.592490	0.193655
C157	C	1.554430	-0.558266	0.125331
H158	H	1.669254	-0.672542	-0.058993
H159	H	1.846699	-0.732102	0.059909
H160	H	1.838534	-0.681264	0.220358
H161	H	1.652920	-0.570863	0.261908
H162	H	1.475475	-0.511304	0.143005
C163	C	1.483178	-0.176381	0.455454
C164	C	1.433369	-0.246591	0.387591
C165	C	1.366601	-0.335211	0.412699
C166	C	1.349641	-0.353621	0.505670
C167	C	1.399452	-0.283408	0.573539
C168	C	1.466220	-0.194788	0.548431
H169	H	1.445923	-0.232965	0.318763
H170	H	1.329728	-0.387186	0.362457
H171	H	1.300215	-0.419222	0.524256
H172	H	1.386898	-0.297035	0.642367
H173	H	1.503093	-0.142813	0.598673
H174	H	1.282284	-0.579362	-0.179399
C175	C	1.274023	-0.085079	0.280014
C176	C	1.213760	-0.152968	0.338286
C177	C	1.141342	-0.238112	0.301052
C178	C	1.129187	-0.255366	0.205546
C179	C	1.189452	-0.187475	0.147268
C180	C	1.261870	-0.102332	0.184502
H181	H	1.222756	-0.140197	0.408991
H182	H	1.096729	-0.288369	0.344194
H183	H	1.075578	-0.318395	0.177983
H184	H	1.180455	-0.200247	0.076564
H185	H	1.306482	-0.052075	0.141361
C186	C	1.686122	-0.093152	0.473125
C187	C	1.770092	-0.176305	0.456363
C188	C	1.906268	-0.181705	0.499145
C189	C	1.958474	-0.103951	0.558689
C190	C	1.874503	-0.020792	0.575454
C191	C	1.738327	-0.015392	0.532672
H192	H	1.731448	-0.233868	0.412282
H193	H	1.968429	-0.243265	0.486734
H194	H	2.059280	-0.107949	0.590359
H195	H	1.913147	0.036771	0.619535
H196	H	1.676166	0.046168	0.545083
H197	H	1.397065	-0.420847	-0.256682
C198	C	1.691582	-0.092099	0.313776
C199	C	1.737879	-0.175291	0.265419
C200	C	1.876065	-0.179701	0.245499
C201	C	1.967953	-0.100920	0.273936
C202	C	1.921658	-0.017722	0.322296
C203	C	1.783472	-0.013312	0.342216
H204	H	1.669856	-0.233615	0.244366
H205	H	1.910335	-0.241290	0.209699
H206	H	2.070247	-0.104185	0.259190
H207	H	1.989681	0.040602	0.343349
H208	H	1.749202	0.048277	0.378016
H209	H	1.637139	-0.578068	-0.207726
C210	C	1.485924	0.175845	0.297286
C211	C	1.427026	0.244075	0.355900
C212	C	1.360092	0.331739	0.319449
C213	C	1.352057	0.351174	0.224384
C214	C	1.410957	0.282941	0.165765
C215	C	1.477890	0.195277	0.202216
H216	H	1.432972	0.229690	0.426277
H217	H	1.316491	0.382249	0.362843
H218	H	1.302509	0.416068	0.197401
H219	H	1.405010	0.297326	0.095388
H220	H	1.521492	0.144767	0.158822
H221	H	1.363686	-0.580335	-0.016311
H222	H	1.357766	-0.420758	-0.020730
H223	H	1.506329	-0.152998	0.305573
H224	H	1.507961	0.153518	0.451493
H225	H	1.654350	0.093470	0.317793
H226	H	1.654075	0.087601	0.461863
