data_functionalizedCrystal
_audit_creation_method	'MofGen! by Chris Wilmer'
_symmetry_space_group_name_H-M	'P1'
_symmetry_Int_Tables_number	1
_symmetry_cell_setting	triclinic
loop_
_symmetry_equiv_pos_as_xyz
  x,y,z
_cell_length_a	14.971491
_cell_length_b	13.262508
_cell_length_c	13.448316
_cell_angle_alpha	105.911733
_cell_angle_beta	89.991393
_cell_angle_gamma	84.042216
loop_
_atom_site_label
_atom_site_type_symbol
_atom_site_fract_x
_atom_site_fract_y
_atom_site_fract_z
O1	O	1.187326	0.136804	-0.045732
O2	O	0.926972	0.153178	-0.041296
O3	O	1.063702	-0.007787	-0.084831
O4	O	1.050595	0.297769	-0.002197
O5	O	1.063685	-0.007797	0.080550
O6	O	0.926955	0.153168	0.124085
O7	O	1.187309	0.136794	0.119649
Cu8	Cu	1.057130	0.144980	0.136968
Cu9	Cu	1.057150	0.144992	-0.058615
O10	O	1.050578	0.297759	0.163184
C11	C	0.893637	0.152440	0.041197
C12	C	0.794334	0.150243	0.040606
C13	C	0.366611	0.140767	-0.052130
C14	C	0.459917	0.142828	-0.051569
C15	C	0.506556	0.143860	0.038864
C16	C	0.459886	0.142820	0.128739
C17	C	0.366582	0.140751	0.128175
C18	C	0.654360	0.147135	0.129910
C19	C	0.747669	0.149206	0.130475
C20	C	0.747694	0.149212	-0.049834
C21	C	0.654391	0.147143	-0.050399
C22	C	0.607727	0.146105	0.039477
C23	C	1.062961	-0.046896	-0.012717
C24	C	1.060765	-0.163412	-0.044233
C25	C	1.054534	-0.491887	0.227536
C26	C	1.056590	-0.382413	0.257148
C27	C	1.057634	-0.327658	0.181805
C28	C	1.056622	-0.382387	0.076845
C29	C	1.054559	-0.491870	0.047230
C30	C	1.057659	-0.327641	0.001499
C31	C	1.056646	-0.382370	-0.103461
C32	C	1.054584	-0.491843	-0.133071
C33	C	1.053540	-0.546599	-0.057728
C34	C	1.059722	-0.218157	0.031115
C35	C	1.059746	-0.218140	-0.149191
C36	C	1.057691	-0.327614	-0.178804
C37	C	1.220644	0.137533	0.037154
C38	C	1.319947	0.139730	0.037739
C39	C	1.051320	0.336868	0.091068
C40	C	1.053515	0.453385	0.122578
N41	N	1.057122	0.144971	0.274530
N42	N	1.057165	0.144993	-0.196179
C43	C	1.117685	0.073725	0.307301
C44	C	1.117691	0.073725	0.411404
C45	C	1.057137	0.144976	0.482735
C46	C	0.996567	0.216225	0.449958
C47	C	0.996558	0.216220	0.345855
C48	C	0.996592	0.216232	0.666940
C49	C	0.996602	0.216239	0.771050
C50	C	1.117725	0.073737	0.732488
C51	C	1.117716	0.073732	0.628386
C52	C	1.057147	0.144983	0.595616
H53	H	0.328643	0.139934	-0.125770
H54	H	0.947240	0.274234	0.319175
Cl55	Cl	1.050955	-0.684229	-0.094951
H56	H	0.328588	0.139918	0.201358
Cl57	Cl	0.806356	0.150529	-0.162818
Cl58	Cl	1.193868	-0.015833	0.773689
Cl59	Cl	0.920471	0.305813	0.860717
Cl60	Cl	1.193828	-0.015844	0.452603
H61	H	1.060590	-0.173557	-0.210542
H62	H	1.053752	-0.536399	-0.218536
H63	H	0.947258	0.274235	0.508041
Cl64	Cl	1.060996	-0.149369	0.163060
H65	H	0.497908	0.143666	-0.124751
H66	H	1.056865	-0.372190	-0.264264
Cl67	Cl	1.193846	-0.015835	0.538711
Cl68	Cl	1.193820	-0.015848	0.217638
Cl69	Cl	0.518519	0.144116	0.242427
Cl70	Cl	0.806302	0.150495	0.244162
H71	H	0.616419	0.146310	-0.124036
Cl72	Cl	0.595699	0.145818	0.242895
Cl73	Cl	1.060217	-0.190031	0.219035
Cl74	Cl	1.057847	-0.313617	0.389092
Cl75	Cl	1.053204	-0.560724	0.322240
H76	H	0.947267	0.274249	0.640263
