data_functionalizedCrystal
_audit_creation_method	'MofGen! by Chris Wilmer'
_symmetry_space_group_name_H-M	'P1'
_symmetry_Int_Tables_number	1
_symmetry_cell_setting	triclinic
loop_
_symmetry_equiv_pos_as_xyz
  x,y,z
_cell_length_a	18.050591
_cell_length_b	21.295417
_cell_length_c	18.050582
_cell_angle_alpha	90.025708
_cell_angle_beta	90.020922
_cell_angle_gamma	90.025707
loop_
_atom_site_label
_atom_site_type_symbol
_atom_site_fract_x
_atom_site_fract_y
_atom_site_fract_z
Zn1	Zn	1.135285	-0.250716	0.420015
Zn2	Zn	1.135192	-0.355977	0.295818
Zn3	Zn	1.011104	-0.250719	0.295826
Zn4	Zn	1.011049	-0.355944	0.419954
O5	O	1.073158	-0.303339	0.357903
O6	O	1.239197	-0.264692	0.403563
O7	O	1.118716	-0.342030	0.191895
O8	O	1.027639	-0.162629	0.312329
O9	O	1.239129	-0.342027	0.312316
O10	O	1.118874	-0.162627	0.403570
O11	O	1.027549	-0.264697	0.191901
O12	O	0.907172	-0.264664	0.312270
O13	O	1.027545	-0.341970	0.523887
O14	O	0.907132	-0.341973	0.403466
O15	O	1.118820	-0.264660	0.523932
O16	O	1.118663	-0.444062	0.312256
O17	O	1.027455	-0.444038	0.403458
C18	C	0.880205	-0.303316	0.357862
C19	C	0.797660	-0.303321	0.357862
C20	C	0.598210	-0.261232	0.308384
C21	C	0.548788	-0.318646	0.290105
C22	C	0.646529	-0.303340	0.357896
C23	C	0.548869	-0.245945	0.376174
C24	C	0.500544	-0.303353	0.357927
C25	C	0.598195	-0.360785	0.339581
C26	C	0.598280	-0.288045	0.425682
C27	C	0.548881	-0.345499	0.407428
C28	C	0.730628	-0.303331	0.357876
C29	C	0.416448	-0.303368	0.357947
C30	C	1.073063	-0.466891	0.357866
C31	C	1.073090	-0.536859	0.357875
C32	C	1.120569	-0.569667	0.405418
C33	C	1.120595	-0.635410	0.405436
C34	C	1.073151	-0.668341	0.357898
C35	C	1.025662	-0.635525	0.310352
C36	C	1.025632	-0.569784	0.310340
N37	N	1.067546	-0.771598	0.292903
N38	N	1.067579	-0.834050	0.292916
C39	C	1.073237	-0.866416	0.357932
N40	N	1.078876	-0.833972	0.422935
N41	N	1.078846	-0.771515	0.422920
C42	C	1.073178	-0.739627	0.357906
C43	C	1.120747	-0.970510	0.405499
C44	C	1.120768	-1.036254	0.405518
C45	C	1.025839	-1.036368	0.310427
C46	C	1.025814	-0.970625	0.310414
C47	C	1.073272	-0.937700	0.357949
C48	C	1.266863	-0.303363	0.357945
C49	C	1.349409	-0.303373	0.357963
C50	C	1.073187	-0.303311	0.551609
C51	C	1.073199	-0.303299	0.634155
C52	C	1.073273	-0.139149	0.357957
C53	C	1.073322	-0.069181	0.357980
C54	C	1.073171	-0.303322	0.164951
C55	C	1.073303	-0.303156	0.082406
C56	C	1.023601	-0.345283	0.833581
C57	C	1.091356	-0.360675	0.882979
C58	C	1.073236	-0.303251	0.785285
C59	C	1.005518	-0.287842	0.882970
C60	C	1.073265	-0.303206	0.931271
C61	C	1.141026	-0.318673	0.833596
C62	C	1.055142	-0.245814	0.833582
C63	C	1.122944	-0.261183	0.882958
C64	C	1.073218	-0.303279	0.701187
C65	C	1.073291	-0.303178	1.015367
H66	H	1.159252	-0.662128	0.444160
H67	H	0.527163	-0.197408	0.391595
H68	H	0.986968	-0.543070	0.271624
H69	H	0.527359	-0.381156	0.449311
H70	H	0.987204	-1.063180	0.271725
H71	H	1.159210	-0.542862	0.444125
C72	C	0.983567	-0.736353	0.268141
C73	C	0.973511	-0.671721	0.258095
H74	H	0.951371	-0.758697	0.235877
H75	H	0.972670	-0.747107	0.318024
H76	H	1.033480	-0.747089	0.257323
H77	H	0.923600	-0.660984	0.268918
H78	H	0.984404	-0.660963	0.208201
H79	H	0.619868	-0.225660	0.266468
C80	C	1.214568	-0.976998	0.499507
C81	C	1.172897	-0.934314	0.457761
H82	H	1.246758	-0.954652	0.531776
H83	H	1.243013	-1.002634	0.467189
H84	H	1.182192	-1.002651	0.527878
H85	H	1.205274	-0.908665	0.429386
H86	H	1.144450	-0.908668	0.490083
H87	H	0.620036	-0.275080	0.482976
H88	H	1.159431	-1.062965	0.444237
C89	C	1.092861	-0.156572	0.761601
C90	C	1.034436	-0.180287	0.804261
H91	H	1.080071	-0.116117	0.743503
H92	H	1.101970	-0.183940	0.721054
H93	H	1.136162	-0.153567	0.791320
H94	H	0.991136	-0.183296	0.774541
H95	H	1.025317	-0.152912	0.844814
C96	C	0.567405	-0.466695	0.305790
C97	C	0.627315	-0.426337	0.318635
H98	H	0.585385	-0.507163	0.292862
H99	H	0.538067	-0.450652	0.266424
H100	H	0.538138	-0.469647	0.349378
H101	H	0.656579	-0.423381	0.275045
H102	H	0.656665	-0.442384	0.358004
C103	C	0.931995	-0.977343	0.216417
C104	C	0.973633	-0.934558	0.258142
H105	H	0.899783	-0.955075	0.184143
H106	H	0.903577	-1.002985	0.248748
H107	H	0.964392	-1.002979	0.188052
H108	H	0.941237	-0.908925	0.286512
H109	H	1.002054	-0.908905	0.225807
C110	C	0.986139	-0.453422	0.829244
C111	C	0.966992	-0.393327	0.804306
H112	H	0.951195	-0.483082	0.811166
H113	H	0.986071	-0.453998	0.881859
H114	H	1.034133	-0.463947	0.811608
H115	H	0.919000	-0.382801	0.821947
H116	H	0.967052	-0.392750	0.751680
C117	C	1.112482	-0.425338	0.989846
C118	C	1.112036	-0.426218	0.912281
H119	H	1.125248	-0.465802	1.007934
H120	H	1.064710	-0.414119	1.007469
H121	H	1.147800	-0.395503	1.006739
H122	H	1.076714	-0.456050	0.895388
H123	H	1.159815	-0.437446	0.894651
H124	H	1.198323	-0.331742	0.811998
H125	H	1.164979	-0.225619	0.904500
H126	H	0.527050	-0.331593	0.232793
H127	H	0.948238	-0.274828	0.904659
