data_functionalizedCrystal
_audit_creation_method	'MofGen! by Chris Wilmer'
_symmetry_space_group_name_H-M	'P1'
_symmetry_Int_Tables_number	1
_symmetry_cell_setting	triclinic
loop_
_symmetry_equiv_pos_as_xyz
  x,y,z
_cell_length_a	16.109302
_cell_length_b	8.559649
_cell_length_c	15.186229
_cell_angle_alpha	89.998840
_cell_angle_beta	90.007553
_cell_angle_gamma	76.620223
loop_
_atom_site_label
_atom_site_type_symbol
_atom_site_fract_x
_atom_site_fract_y
_atom_site_fract_z
O1	O	1.090048	0.205386	0.073263
O2	O	1.590048	0.705386	0.573263
O3	O	0.846358	0.230945	0.073256
O4	O	1.346358	0.730945	0.573256
O5	O	0.989673	-0.014448	0.073259
O6	O	1.489673	0.485552	0.573259
O7	O	0.946734	0.450779	0.073260
O8	O	1.446734	0.950779	0.573260
O9	O	0.989657	-0.014434	-0.073198
O10	O	1.489657	0.485566	0.426802
O11	O	0.846342	0.230959	-0.073201
O12	O	1.346342	0.730959	0.426799
O13	O	1.090033	0.205400	-0.073194
O14	O	1.590033	0.705400	0.426806
Zn15	Zn	0.968185	0.218182	-0.096451
Zn16	Zn	1.468185	0.718182	0.403549
Zn17	Zn	0.968206	0.218163	0.096513
Zn18	Zn	1.468206	0.718163	0.596513
O19	O	0.946718	0.450792	-0.073197
O20	O	1.446718	0.950792	0.426803
C21	C	0.815441	0.229917	0.000026
C22	C	1.315441	0.729917	0.500026
C23	C	0.723344	0.226812	0.000024
C24	C	1.223344	0.726812	0.500024
C25	C	0.511452	0.219641	-0.079801
C26	C	1.011452	0.719641	0.420199
C27	C	0.424919	0.216707	-0.079798
C28	C	0.924919	0.716707	0.420202
C29	C	0.424946	0.216700	0.079877
C30	C	0.924946	0.716700	0.579877
C31	C	0.511479	0.219622	0.079873
C32	C	1.011479	0.719622	0.579873
C33	C	0.554728	0.221101	0.000031
C34	C	1.054728	0.721101	0.500031
C35	C	0.381662	0.215244	0.000038
C36	C	0.881662	0.715244	0.500038
C37	C	0.287839	0.212063	0.000042
C38	C	0.787839	0.712063	0.500042
C39	C	0.648558	0.224280	0.000027
C40	C	1.148558	0.724280	0.500027
C41	C	0.992919	-0.073972	0.000032
C42	C	1.492919	0.426028	0.500032
C43	C	1.002605	-0.251357	0.000038
C44	C	1.502605	0.248643	0.500038
C45	C	1.120949	0.206428	0.000038
C46	C	1.620949	0.706428	0.500038
C47	C	1.213047	0.209533	0.000046
C48	C	1.713047	0.709533	0.500046
C49	C	0.943472	0.510317	0.000031
C50	C	1.443472	1.010317	0.500031
C51	C	0.933786	0.687702	0.000032
C52	C	1.433786	1.187702	0.500032
N53	N	0.968177	0.218193	-0.228144
N54	N	1.468177	0.718193	0.271856
C55	C	1.012426	0.315113	-0.453865
C56	C	1.512426	0.815113	0.046135
C57	C	1.012436	0.315101	-0.546054
C58	C	1.512436	0.815101	-0.046054
C59	C	0.923971	0.121208	-0.546067
C60	C	1.423971	0.621208	-0.046067
C61	C	0.923967	0.121212	-0.453879
C62	C	1.423967	0.621212	0.046121
C63	C	0.968192	0.218174	-0.407780
C64	C	1.468192	0.718174	0.092220
C65	C	0.968206	0.218158	-0.592158
C66	C	1.468206	0.718158	-0.092158
C67	C	0.968216	0.218145	-0.692114
C68	C	1.468216	0.718145	-0.192114
C69	C	0.968183	0.218185	-0.307818
C70	C	1.468183	0.718185	0.192182
N71	N	0.968221	0.218139	0.228206
N72	N	1.468221	0.718139	0.728206
H73	H	0.546663	0.220845	-0.144814
H74	H	1.046663	0.720845	0.355186
Cl75	Cl	0.565890	0.221445	0.180243
Cl76	Cl	1.065890	0.721445	0.680243
H77	H	1.048456	0.394037	-0.583572
H78	H	1.548456	0.894037	-0.083572
Cl79	Cl	0.868369	-0.000666	-0.604026
Cl80	Cl	1.368369	0.499334	-0.104026
Cl81	Cl	1.068031	0.436993	-0.395915
Cl82	Cl	1.568031	0.936993	0.104085
Cl83	Cl	0.868352	-0.000661	-0.395940
Cl84	Cl	1.368352	0.499339	0.104060
Cl85	Cl	1.105020	-0.380326	0.000029
Cl86	Cl	1.605020	0.119674	0.500029
Cl87	Cl	0.831376	-0.183336	0.000027
Cl88	Cl	1.331376	0.316664	0.500027
Cl89	Cl	0.370574	0.214802	0.180244
Cl90	Cl	0.870574	0.714802	0.680244
H91	H	0.389686	0.215518	-0.144806
H92	H	0.889686	0.715518	0.355194
