data_functionalizedCrystal
_audit_creation_method	'MofGen! by Chris Wilmer'
_symmetry_space_group_name_H-M	'P1'
_symmetry_Int_Tables_number	1
_symmetry_cell_setting	triclinic
loop_
_symmetry_equiv_pos_as_xyz
  x,y,z
_cell_length_a	10.489741
_cell_length_b	10.489763
_cell_length_c	13.330367
_cell_angle_alpha	90.009358
_cell_angle_beta	89.995141
_cell_angle_gamma	95.456232
loop_
_atom_site_label
_atom_site_type_symbol
_atom_site_fract_x
_atom_site_fract_y
_atom_site_fract_z
O1	O	1.694074	-0.179965	-0.083373
O2	O	2.194074	0.320035	0.416627
O3	O	1.322880	-0.196858	-0.083390
O4	O	1.822880	0.303142	0.416610
O5	O	1.516908	-0.002816	-0.083363
O6	O	2.016908	0.497184	0.416637
O7	O	1.500045	-0.374008	-0.083401
O8	O	2.000045	0.125992	0.416599
O9	O	1.516880	-0.002811	0.083485
O10	O	2.016880	0.497189	0.583485
O11	O	1.322851	-0.196853	0.083457
O12	O	1.822851	0.303147	0.583457
O13	O	1.694046	-0.179961	0.083474
O14	O	2.194046	0.320039	0.583474
Cu15	Cu	1.508446	-0.188407	0.098700
Cu16	Cu	2.008446	0.311593	0.598700
Cu17	Cu	1.508479	-0.188412	-0.098616
Cu18	Cu	2.008479	0.311588	0.401384
O19	O	1.500017	-0.374003	0.083446
O20	O	2.000017	0.125997	0.583446
C21	C	1.275334	-0.195580	0.000032
C22	C	1.775334	0.304420	0.500032
C23	C	1.133704	-0.191763	0.000026
C24	C	1.633704	0.308237	0.500026
C25	C	1.065554	-0.068299	0.000048
C26	C	1.565554	0.431701	0.500048
C27	C	0.973446	-0.126624	-0.082220
C28	C	1.473446	0.373376	0.417780
C29	C	0.973452	-0.126649	0.082278
C30	C	1.473452	0.373351	0.582278
C31	C	1.043461	-0.250139	-0.082310
C32	C	1.543461	0.249861	0.417690
C33	C	1.043477	-0.250146	0.082262
C34	C	1.543477	0.249854	0.582262
C35	C	0.951396	-0.308561	-0.000026
C36	C	1.451396	0.191439	0.499974
C37	C	1.515614	0.044718	0.000064
C38	C	2.015614	0.544718	0.500064
C39	C	1.511786	0.186346	0.000072
C40	C	2.011786	0.686346	0.500072
C41	C	1.388316	0.254485	0.000064
C42	C	1.888316	0.754485	0.500064
C43	C	1.446618	0.346609	0.082337
C44	C	1.946618	0.846609	0.582337
C45	C	1.446675	0.346579	-0.082161
C46	C	1.946675	0.846579	0.417839
C47	C	1.570139	0.276604	0.082412
C48	C	2.070139	0.776604	0.582412
C49	C	1.570179	0.276565	-0.082160
C50	C	2.070179	0.776565	0.417840
C51	C	1.628571	0.368661	0.000133
C52	C	2.128571	0.868661	0.500133
C53	C	1.741591	-0.181239	0.000050
C54	C	2.241591	0.318761	0.500050
C55	C	1.883221	-0.185056	0.000049
C56	C	2.383221	0.314944	0.500049
C57	C	1.501291	0.578461	0.000035
C58	C	2.001291	1.078461	0.500035
C59	C	1.505059	0.436826	0.000073
C60	C	2.005059	0.936826	0.500073
N61	N	1.508431	-0.188402	0.237481
N62	N	2.008431	0.311598	0.737481
N63	N	1.508504	-0.188407	-0.237398
N64	N	2.008504	0.311593	0.262602
C65	C	1.422559	-0.274300	0.710092
C66	C	1.922559	0.225700	1.210092
C67	C	1.594434	-0.102515	0.710084
C68	C	2.094434	0.397485	1.210084
C69	C	1.594419	-0.102511	0.605066
C70	C	2.094419	0.397489	1.105066
C71	C	1.508475	-0.188404	0.552556
C72	C	2.008475	0.311596	1.052556
C73	C	1.422545	-0.274301	0.605064
C74	C	1.922545	0.225699	1.105064
C75	C	1.680356	-0.016624	0.552550
C76	C	2.180356	0.483376	1.052550
C77	C	1.680346	-0.016617	0.447525
C78	C	2.180346	0.483383	0.947525
C79	C	1.594395	-0.102505	0.395013
C80	C	2.094395	0.397495	0.895013
C81	C	1.508460	-0.188405	0.447528
C82	C	2.008460	0.311595	0.947528
C83	C	1.422516	-0.274298	0.395018
C84	C	1.922516	0.225702	0.895018
C85	C	1.336574	-0.360193	0.447530
C86	C	1.836574	0.139807	0.947530
C87	C	1.336593	-0.360189	0.552552
C88	C	1.836593	0.139811	1.052552
C89	C	1.594376	-0.102509	0.289992
C90	C	2.094376	0.397491	0.789992
C91	C	1.422501	-0.274299	0.289990
C92	C	1.922501	0.225701	0.789990
H93	H	1.074515	-0.302342	0.151808
H94	H	1.574515	0.197658	0.651808
F95	F	1.761367	0.433265	0.000200
F96	F	2.261367	0.933265	0.500200
F97	F	1.378320	0.387146	0.173243
F98	F	1.878320	0.887146	0.673243
H99	H	1.622390	0.245519	-0.151712
H100	H	2.122390	0.745519	0.348288
H101	H	0.942458	-0.074385	0.151830
H102	H	1.442458	0.425615	0.651830
F103	F	1.255638	0.189590	0.000157
F104	F	1.755638	0.689590	0.500157
F105	F	1.685842	-0.011107	0.234110
F106	F	2.185842	0.488893	0.734110
F107	F	1.378377	0.387076	-0.173061
F108	F	1.878377	0.887076	0.326939
H109	H	1.115235	0.033196	-0.000044
H110	H	1.615235	0.533196	0.499956
F111	F	1.331019	-0.365715	0.234112
F112	F	1.831019	0.134285	0.734112
H113	H	1.622325	0.245775	0.152038
H114	H	2.122325	0.745775	0.652038
H115	H	1.664413	-0.032589	0.752842
H116	H	2.164413	0.467411	1.252842
F117	F	1.245116	-0.451612	0.391634
F118	F	1.745116	0.048388	0.891634
F119	F	1.771828	0.074778	0.608435
F120	F	2.271828	0.574778	1.108435
H121	H	1.266624	-0.430123	0.595314
H122	H	1.766624	0.069877	1.095314
H123	H	1.352583	-0.344231	0.752851
H124	H	1.852583	0.155769	1.252851
F125	F	1.771807	0.074800	0.391645
F126	F	2.271807	0.574800	0.891645
H127	H	0.942439	-0.074386	-0.151763
H128	H	1.442439	0.425614	0.348237
H129	H	1.074305	-0.302340	-0.151940
H130	H	1.574305	0.197660	0.348060
H131	H	0.901980	-0.410164	-0.000082
H132	H	1.401980	0.089836	0.499918
