data_functionalizedCrystal
_audit_creation_method	'MofGen! by Chris Wilmer'
_symmetry_space_group_name_H-M	'P1'
_symmetry_Int_Tables_number	1
_symmetry_cell_setting	triclinic
loop_
_symmetry_equiv_pos_as_xyz
  x,y,z
_cell_length_a	13.897449
_cell_length_b	19.805404
_cell_length_c	19.805399
_cell_angle_alpha	90.029797
_cell_angle_beta	90.020133
_cell_angle_gamma	90.030177
loop_
_atom_site_label
_atom_site_type_symbol
_atom_site_fract_x
_atom_site_fract_y
_atom_site_fract_z
Zn1	Zn	1.474593	-0.269464	0.382719
Zn2	Zn	1.474464	-0.382652	0.269527
Zn3	Zn	1.313292	-0.269484	0.269543
Zn4	Zn	1.313231	-0.382618	0.382672
O5	O	1.393895	-0.326055	0.326115
O6	O	1.609558	-0.284485	0.367717
O7	O	1.453055	-0.367663	0.174812
O8	O	1.334768	-0.174765	0.284582
O9	O	1.609463	-0.367644	0.284555
O10	O	1.453276	-0.174750	0.367733
O11	O	1.334643	-0.284519	0.174824
O12	O	1.178302	-0.284486	0.284537
O13	O	1.334666	-0.367585	0.477395
O14	O	1.178258	-0.367605	0.367653
O15	O	1.453217	-0.284451	0.477430
O16	O	1.452996	-0.477364	0.284509
O17	O	1.334540	-0.477339	0.367637
C18	C	1.393774	-0.501911	0.326081
C19	C	1.393810	-0.577143	0.326089
C20	C	1.143281	-0.326044	0.326092
C21	C	1.036067	-0.326056	0.326098
C22	C	1.455733	-1.038867	0.369507
C23	C	1.455695	-0.968178	0.369491
C24	C	1.394025	-0.932904	0.326157
C25	C	1.332395	-0.968322	0.282831
C26	C	1.332439	-1.039009	0.282844
C27	C	1.332219	-0.683249	0.282778
C28	C	1.332178	-0.612557	0.282771
C29	C	1.455475	-0.612418	0.369426
C30	C	1.455518	-0.683105	0.369439
C31	C	1.393893	-0.718517	0.326110
C32	C	1.393936	-0.795165	0.326127
C33	C	1.393976	-0.856257	0.326144
C34	C	0.948997	-0.326058	0.326109
C35	C	0.839765	-0.326063	0.326130
C36	C	1.645488	-0.326066	0.326139
C37	C	1.752702	-0.326070	0.326150
C38	C	1.393949	-0.326012	0.502658
C39	C	1.393972	-0.325994	0.577890
C40	C	1.394043	-0.149512	0.326165
C41	C	1.394106	-0.074280	0.326185
C42	C	1.393897	-0.326048	0.150259
C43	C	1.394061	-0.325876	0.075028
C44	C	1.455704	-0.282704	0.613253
C45	C	1.455714	-0.282684	0.683942
C46	C	1.393996	-0.325958	0.719266
C47	C	1.332258	-0.369250	0.683898
C48	C	1.332244	-0.369266	0.613210
C49	C	1.332312	-0.369187	0.968971
C50	C	1.332333	-0.369170	1.039663
C51	C	1.455782	-0.282605	1.039702
C52	C	1.455768	-0.282621	0.969015
C53	C	1.394027	-0.325910	0.933653
C54	C	1.394015	-0.325930	0.857005
C55	C	1.394012	-0.325943	0.795913
H56	H	1.505943	-1.067582	0.404801
O57	O	1.515578	-0.240542	0.934633
C58	C	1.460673	-0.196823	0.893770
H59	H	1.387559	-0.220704	0.883160
H60	H	1.499956	-0.187750	0.844072
H61	H	1.450107	-0.146664	0.921035
H62	H	1.505733	-0.711822	0.404728
H63	H	1.281957	-0.583838	0.247480
O64	O	1.515554	-0.240569	0.578974
C65	C	1.494545	-0.173107	0.596280
H66	H	1.417492	-0.169684	0.615699
H67	H	1.502874	-0.139676	0.549806
H68	H	1.546280	-0.155408	0.637326
O69	O	1.515316	-0.577913	0.411448
C70	C	1.502044	-0.507959	0.402158
H71	H	1.470497	-0.498360	0.349900
H72	H	1.574278	-0.481045	0.406796
H73	H	1.450629	-0.487905	0.442266
O74	O	1.272467	-0.411186	1.074083
C75	C	1.285710	-0.401878	1.144055
H76	H	1.360174	-0.379714	1.153721
H77	H	1.279132	-0.452571	1.170905
H78	H	1.228535	-0.365825	1.164122
H79	H	1.282039	-0.712073	0.247498
O80	O	1.272519	-0.933954	0.240799
C81	C	1.285709	-0.863970	0.250066
H82	H	1.317248	-0.854258	0.302320
H83	H	1.213444	-0.837158	0.245422
H84	H	1.337098	-0.843902	0.209950
H85	H	1.282256	-1.067842	0.247567
H86	H	1.281966	-0.404510	0.584419
O87	O	1.272394	-0.411264	0.718314
C88	C	1.285626	-0.401958	0.788288
H89	H	1.360088	-0.379793	0.797960
H90	H	1.279044	-0.452651	0.815136
H91	H	1.228447	-0.365905	0.808350
H92	H	1.505877	-0.939346	0.404766
H93	H	1.506052	-0.247355	1.068503
H94	H	1.505984	-0.247435	0.712731
H95	H	1.282053	-0.404446	0.940188
