data_functionalizedCrystal
_audit_creation_method	'MofGen! by Chris Wilmer'
_symmetry_space_group_name_H-M	'P1'
_symmetry_Int_Tables_number	1
_symmetry_cell_setting	triclinic
loop_
_symmetry_equiv_pos_as_xyz
  x,y,z
_cell_length_a	16.109301
_cell_length_b	10.540539
_cell_length_c	14.586319
_cell_angle_alpha	89.998343
_cell_angle_beta	89.999213
_cell_angle_gamma	83.993486
loop_
_atom_site_label
_atom_site_type_symbol
_atom_site_fract_x
_atom_site_fract_y
_atom_site_fract_z
O1	O	1.104129	0.163159	-0.076178
O2	O	0.862191	0.183464	-0.076192
O3	O	0.988679	-0.011474	-0.076184
O4	O	0.977640	0.358096	-0.076186
O5	O	0.988670	-0.011477	0.076297
O6	O	0.862182	0.183461	0.076289
O7	O	1.104120	0.163156	0.076303
Cu8	Cu	0.983150	0.173308	0.090219
Cu9	Cu	0.983160	0.173312	-0.090108
O10	O	0.977631	0.358094	0.076294
C11	C	0.831206	0.182640	0.000047
C12	C	0.738896	0.180174	0.000041
C13	C	0.517296	0.290112	0.000051
C14	C	0.430561	0.287785	0.000057
C15	C	0.449021	0.056499	0.000055
C16	C	0.535754	0.058827	0.000055
C17	C	0.569889	0.175637	0.000049
C18	C	0.396421	0.170982	0.000054
C19	C	0.302380	0.168459	0.000060
C20	C	0.663936	0.178162	0.000044
C21	C	0.987847	-0.058767	0.000055
C22	C	0.985370	-0.199679	0.000050
C23	C	0.890460	-0.381753	-0.000298
C24	C	0.892971	-0.235171	0.000046
C25	C	1.029832	-0.261973	0.087127
C26	C	1.026678	-0.408472	0.087200
C27	C	1.028567	-0.409014	-0.086199
C28	C	1.029419	-0.262044	-0.087350
C29	C	1.135104	0.163980	0.000062
C30	C	1.227414	0.166446	0.000062
C31	C	0.978463	0.405386	0.000054
C32	C	0.980940	0.546299	0.000053
N33	N	0.983149	0.173305	0.217050
N34	N	0.983168	0.173305	-0.216939
C35	C	1.039177	0.087015	0.452060
C36	C	1.039179	0.087012	0.548042
C37	C	0.927134	0.259598	0.548044
C38	C	0.927129	0.259594	0.452064
C39	C	0.983154	0.173304	0.404075
C40	C	0.983163	0.173305	0.596036
C41	C	0.983165	0.173303	0.700103
C42	C	0.983151	0.173305	0.300001
H43	H	0.421218	-0.038605	0.000066
C44	C	0.545297	-0.170034	0.000043
C45	C	0.593572	-0.067014	0.000049
H46	H	0.580993	-0.247717	0.000036
H47	H	0.511085	-0.166140	0.053213
H48	H	0.511083	-0.166121	-0.053135
H49	H	0.627782	-0.070922	0.053231
H50	H	0.627798	-0.070910	-0.053126
C51	C	0.289411	0.386916	0.000060
C52	C	0.372750	0.413619	0.000054
H53	H	0.253723	0.464606	0.000064
H54	H	0.278993	0.339028	-0.053108
H55	H	0.278998	0.339020	0.053239
H56	H	0.383165	0.461507	-0.053129
H57	H	0.383172	0.461527	0.053228
H58	H	0.996887	-0.220721	-0.151767
H59	H	0.998666	-0.440139	-0.152197
H60	H	0.545085	0.385227	0.000052
H61	H	0.881505	0.329862	0.412992
H62	H	1.093130	-0.457388	0.091154
C63	C	0.814911	-0.274136	-0.135455
C64	C	0.845733	-0.176971	-0.084210
H65	H	0.785740	-0.238206	-0.187467
H66	H	0.860060	-0.333085	-0.155047
H67	H	0.778019	-0.317001	-0.098607
H68	H	0.882630	-0.134112	-0.121057
H69	H	0.800577	-0.118000	-0.064620
C70	C	1.088865	0.010290	0.304930
C71	C	1.100713	-0.007901	0.399309
H72	H	1.126847	-0.048325	0.272367
H73	H	1.033288	-0.003458	0.289235
H74	H	1.098440	0.094988	0.289180
H75	H	1.091132	-0.092596	0.415059
H76	H	1.156304	0.005838	0.415010
C77	C	0.958798	-0.336435	0.227133
C78	C	0.982300	-0.445918	0.175058
H79	H	0.931395	-0.359549	0.281370
H80	H	1.007051	-0.296649	0.243041
H81	H	0.921999	-0.278865	0.192308
H82	H	1.019104	-0.503484	0.209881
H83	H	0.934040	-0.485723	0.159151
C84	C	0.814166	0.287100	0.656000
C85	C	0.865560	0.354451	0.600801
H86	H	0.776158	0.345663	0.688573
H87	H	0.783945	0.234262	0.618564
H88	H	0.847543	0.235713	0.698310
H89	H	0.832183	0.405831	0.558486
H90	H	0.895784	0.407311	0.638241
H91	H	0.853964	-0.409832	-0.062742
C92	C	0.836104	-0.553512	0.080498
C93	C	0.841383	-0.421822	0.083526
H94	H	0.805813	-0.578249	0.132252
H95	H	0.808225	-0.574199	0.025979
H96	H	0.890697	-0.597398	0.081224
H97	H	0.786790	-0.377935	0.082793
H98	H	0.869261	-0.401123	0.138060
C99	C	1.157246	-0.287833	-0.173195
C100	C	1.120344	-0.230571	-0.094488
H101	H	1.213375	-0.268373	-0.177608
H102	H	1.156325	-0.377643	-0.169527
H103	H	1.127072	-0.256299	-0.225831
H104	H	1.150515	-0.262112	-0.041851
H105	H	1.121270	-0.140742	-0.098148
C106	C	1.149936	-0.083567	0.538393
C107	C	1.100764	-0.007834	0.600787
H108	H	1.187960	-0.142118	0.570957
H109	H	1.115059	-0.129242	0.500963
H110	H	1.180147	-0.030698	0.500952
H111	H	1.070548	-0.060703	0.638224
H112	H	1.135645	0.037845	0.638232
C113	C	1.173875	-0.347750	0.090320
C114	C	1.121434	-0.233103	0.091510
H115	H	1.230425	-0.329923	0.093019
H116	H	1.161873	-0.398159	0.141669
H117	H	1.164900	-0.392912	0.035454
H118	H	1.130405	-0.187946	0.146379
H119	H	1.133440	-0.182674	0.040156
H120	H	1.095307	-0.457191	-0.086781
C121	C	0.778863	-0.091016	0.055811
C122	C	0.845409	-0.178120	0.084450
H123	H	0.749498	-0.055805	0.107924
H124	H	0.799809	-0.024629	0.021584
H125	H	0.742144	-0.133550	0.018514
H126	H	0.882132	-0.135584	0.121743
H127	H	0.824463	-0.244518	0.118693
H128	H	0.998939	-0.218934	0.151923
