data_functionalizedCrystal
_audit_creation_method	'MofGen! by Chris Wilmer'
_symmetry_space_group_name_H-M	'P1'
_symmetry_Int_Tables_number	1
_symmetry_cell_setting	triclinic
loop_
_symmetry_equiv_pos_as_xyz
  x,y,z
_cell_length_a	14.908742
_cell_length_b	14.908520
_cell_length_c	14.908694
_cell_angle_alpha	96.744522
_cell_angle_beta	90.175515
_cell_angle_gamma	89.837416
loop_
_atom_site_label
_atom_site_type_symbol
_atom_site_fract_x
_atom_site_fract_y
_atom_site_fract_z
Zn1	Zn	1.378674	-0.465031	-0.457178
Zn2	Zn	1.878674	0.034969	0.042822
Zn3	Zn	1.362214	-0.606780	-0.315447
Zn4	Zn	1.862214	-0.106780	0.184553
Zn5	Zn	1.220585	-0.447716	-0.314479
Zn6	Zn	1.720585	0.052284	0.185521
Zn7	Zn	1.220547	-0.607729	-0.474505
Zn8	Zn	1.720547	-0.107729	0.025495
O9	O	1.295505	-0.531814	-0.390402
O10	O	1.795505	-0.031814	0.109598
O11	O	1.501939	-0.490683	-0.431530
O12	O	2.001939	0.009317	0.068470
O13	O	1.336554	-0.578036	-0.189032
O14	O	1.836554	-0.078036	0.310968
O15	O	1.248461	-0.323724	-0.325752
O16	O	1.748461	0.176276	0.174248
O17	O	1.489846	-0.594826	-0.327401
O18	O	1.989846	-0.094826	0.172599
O19	O	1.364608	-0.336446	-0.430592
O20	O	1.864608	0.163554	0.069408
O21	O	1.232500	-0.461172	-0.188321
O22	O	1.732500	0.038828	0.311679
O23	O	1.095131	-0.462093	-0.342554
O24	O	1.595131	0.037907	0.157446
O25	O	1.248396	-0.596443	-0.598493
O26	O	1.748396	-0.096443	-0.098493
O27	O	1.095103	-0.579653	-0.460124
O28	O	1.595103	-0.079653	0.039876
O29	O	1.364571	-0.491604	-0.585763
O30	O	1.864571	0.008396	-0.085763
O31	O	1.336517	-0.733194	-0.344202
O32	O	1.836517	-0.233194	0.155798
O33	O	1.232435	-0.733891	-0.461062
O34	O	1.732435	-0.233891	0.038938
C35	C	1.062590	-0.519098	-0.403114
C36	C	1.562590	-0.019098	0.096886
C37	C	0.962948	-0.513681	-0.408575
C38	C	1.462948	-0.013681	0.091425
C39	C	1.282711	-0.766290	-0.404635
C40	C	1.782711	-0.266290	0.095365
C41	C	1.277321	-0.866606	-0.410750
C42	C	1.777321	-0.366606	0.089250
C43	C	1.375697	-1.054336	-0.300642
C44	C	1.875697	-0.554336	0.199358
C45	C	1.370635	-1.148592	-0.306384
C46	C	1.870635	-0.648592	0.193616
C47	C	1.262142	-1.149377	-0.427981
C48	C	1.762142	-0.649377	0.072019
C49	C	1.267204	-1.055121	-0.422239
C50	C	1.767204	-0.555121	0.077761
C51	C	1.323982	-1.007603	-0.358566
C52	C	1.823982	-0.507603	0.141434
C53	C	1.329038	-0.913345	-0.352820
C54	C	1.829038	-0.413345	0.147180
C55	C	1.220550	-0.914132	-0.474420
C56	C	1.720550	-0.414132	0.025580
C57	C	1.215489	-1.008388	-0.480163
C58	C	1.715489	-0.508388	0.019837
C59	C	0.828798	-0.451932	-0.470576
C60	C	1.328798	0.048068	0.029424
C61	C	0.922421	-0.457014	-0.465449
C62	C	1.422421	0.042986	0.034551
C63	C	0.909844	-0.565271	-0.356827
C64	C	1.409844	-0.065271	0.143173
C65	C	0.816220	-0.560189	-0.361954
C66	C	1.316220	-0.060189	0.138046
C67	C	0.775701	-0.503516	-0.418830
C68	C	1.275701	-0.003516	0.081170
C69	C	0.682076	-0.498430	-0.423951
C70	C	1.182076	0.001570	0.076049
C71	C	0.669500	-0.606691	-0.315334
C72	C	1.169500	-0.106691	0.184666
C73	C	0.763123	-0.611773	-0.310207
C74	C	1.263123	-0.111773	0.189793
C75	C	1.529330	-0.544580	-0.377641
C76	C	2.029330	-0.044580	0.122359
C77	C	1.628972	-0.550020	-0.372203
C78	C	2.128972	-0.050020	0.127797
C79	C	1.308315	-0.546061	-0.625788
C80	C	1.808315	-0.046061	-0.125788
C81	C	1.313774	-0.552132	-0.726095
C82	C	1.813774	-0.052132	-0.226095
C83	C	1.308375	-0.296424	-0.376132
C84	C	1.808375	0.203576	0.123868
C85	C	1.313859	-0.196116	-0.370050
C86	C	1.813859	0.303884	0.129950
C87	C	1.215659	-0.441852	-0.913846
C88	C	1.715659	0.058148	-0.413846
C89	C	1.220786	-0.447553	-1.008093
C90	C	1.720786	0.052447	-0.508093
C91	C	1.329147	-0.569240	-1.008840
C92	C	1.829147	-0.069240	-0.508840
C93	C	1.324021	-0.563538	-0.914593
C94	C	1.824021	-0.063538	-0.414593
C95	C	1.267276	-0.499841	-0.867099
C96	C	1.767276	0.000159	-0.367099
C97	C	1.262155	-0.494136	-0.772849
C98	C	1.762155	0.005864	-0.272849
C99	C	1.370512	-0.615827	-0.773598
C100	C	1.870512	-0.115827	-0.273598
C101	C	1.375638	-0.621528	-0.867845
C102	C	1.875638	-0.121528	-0.367845
C103	C	1.282800	-0.517560	-0.155926
C104	C	1.782800	-0.017560	0.344074
C105	C	1.277529	-0.511244	-0.055594
C106	C	1.777529	-0.011244	0.444406
H107	H	1.375267	-0.874657	-0.300972
H108	H	1.875267	-0.374657	0.199028
H109	H	0.942851	-0.611414	-0.310524
H110	H	1.442851	-0.111414	0.189476
H111	H	0.796127	-0.657917	-0.263903
H112	H	1.296127	-0.157917	0.236097
C113	C	1.250557	-0.365643	-0.660182
C114	C	1.750557	0.134357	-0.160182
C115	C	1.199781	-0.424123	-0.720643
C116	C	1.699781	0.075877	-0.220643
H117	H	1.212045	-0.322418	-0.627960
H118	H	1.712045	0.177582	-0.127960
H119	H	1.280555	-0.399361	-0.618852
H120	H	1.780555	0.100639	-0.118852
H121	H	1.293497	-0.335480	-0.692735
H122	H	1.793497	0.164520	-0.192735
H123	H	1.156845	-0.454292	-0.688089
H124	H	1.656845	0.045708	-0.188089
H125	H	1.169768	-0.390402	-0.761978
H126	H	1.669768	0.109598	-0.261978
H127	H	1.421921	-1.015646	-0.248791
H128	H	1.921921	-0.515646	0.251209
H129	H	0.626258	-0.648697	-0.273200
H130	H	1.126258	-0.148697	0.226800
C131	C	1.159552	-1.153225	-0.542954
C132	C	1.659552	-0.653225	-0.042954
C133	C	1.153076	-1.060624	-0.550145
C134	C	1.653076	-0.560624	-0.050145
H135	H	1.121014	-1.185468	-0.586154
H136	H	1.621014	-0.685468	-0.086154
H137	H	1.219661	-1.172694	-0.553873
H138	H	1.719661	-0.672694	-0.053873
H139	H	1.142358	-1.164312	-0.483959
H140	H	1.642358	-0.664312	0.016041
H141	H	1.170277	-1.049535	-0.609138
H142	H	1.670277	-0.549535	-0.109138
H143	H	1.092954	-1.041148	-0.539232
H144	H	1.592954	-0.541148	-0.039232
H145	H	1.178438	-0.876071	-0.521584
H146	H	1.678438	-0.376071	-0.021584
C147	C	1.501304	-0.647052	-0.968018
C148	C	2.001304	-0.147052	-0.468018
C149	C	1.438012	-0.691539	-0.920055
C150	C	1.938012	-0.191539	-0.420055
H151	H	1.539815	-0.690275	-1.000243
H152	H	2.039815	-0.190275	-0.500243
H153	H	1.471293	-0.613342	-1.009345
H154	H	1.971293	-0.113342	-0.509345
H155	H	1.535738	-0.607378	-0.926987
H156	H	2.035738	-0.107378	-0.426987
H157	H	1.403573	-0.731208	-0.961086
H158	H	1.903573	-0.231208	-0.461086
H159	H	1.468025	-0.725264	-0.878723
H160	H	1.968025	-0.225264	-0.378723
C161	C	1.410772	-0.661125	-0.629456
C162	C	1.910772	-0.161125	-0.129456
C163	C	1.427251	-0.679577	-0.722211
C164	C	1.927251	-0.179577	-0.222211
H165	H	1.445797	-0.700484	-0.597735
H166	H	1.945797	-0.200484	-0.097735
H167	H	1.426366	-0.600277	-0.609625
H168	H	1.926366	-0.100277	-0.109625
H169	H	1.348975	-0.670114	-0.618105
H170	H	1.848975	-0.170114	-0.118105
H171	H	1.489047	-0.670581	-0.733564
H172	H	1.989047	-0.170581	-0.233564
H173	H	1.411663	-0.740439	-0.742049
H174	H	1.911663	-0.240439	-0.242049
H175	H	1.412749	-1.186638	-0.259217
H176	H	1.912749	-0.686638	0.240783
C177	C	1.109063	-0.322142	-0.922570
C178	C	1.609063	0.177858	-0.422570
C179	C	1.153287	-0.371840	-0.861634
C180	C	1.653287	0.128160	-0.361634
H181	H	1.070552	-0.278925	-0.890337
H182	H	1.570552	0.221075	-0.390337
H183	H	1.152007	-0.291975	-0.955101
H184	H	1.652007	0.208025	-0.455101
H185	H	1.074626	-0.361824	-0.963590
H186	H	1.574626	0.138176	-0.463590
H187	H	1.187730	-0.332159	-0.820618
H188	H	1.687730	0.167841	-0.320618
H189	H	1.110338	-0.402009	-0.829088
H190	H	1.610338	0.097991	-0.329088
H191	H	0.795807	-0.405778	-0.516878
H192	H	1.295807	0.094222	-0.016878
C193	C	0.925446	-0.349494	-0.573328
C194	C	1.425446	0.150506	-0.073328
C195	C	0.980787	-0.400308	-0.522328
C196	C	1.480787	0.099692	-0.022328
H197	H	0.961480	-0.314482	-0.608440
H198	H	1.461480	0.185518	-0.108440
H199	H	0.888672	-0.388972	-0.612171
H200	H	1.388672	0.111028	-0.112171
H201	H	0.888663	-0.310555	-0.533957
H202	H	1.388663	0.189445	-0.033957
H203	H	1.017565	-0.439252	-0.561699
H204	H	1.517565	0.060748	-0.061699
H205	H	1.017576	-0.360825	-0.483481
H206	H	1.517576	0.139175	0.016519
C207	C	0.703916	-0.391946	-0.530815
C208	C	1.203916	0.108054	-0.030815
C209	C	0.637534	-0.436143	-0.486473
C210	C	1.137534	0.063857	0.013527
H211	H	0.676417	-0.353498	-0.569421
H212	H	1.176417	0.146502	-0.069421
H213	H	0.740165	-0.356967	-0.487457
H214	H	1.240165	0.143033	0.012543
H215	H	0.740174	-0.435401	-0.565654
H216	H	1.240174	0.064599	-0.065654
H217	H	0.601279	-0.392688	-0.451629
H218	H	1.101279	0.107312	0.048371
H219	H	0.601269	-0.471124	-0.529838
H220	H	1.101269	0.028876	-0.029838
H221	H	1.375333	-0.621110	-1.047527
H222	H	1.875333	-0.121110	-0.547527
C223	C	1.106642	-0.434852	-1.119890
C224	C	1.606642	0.065148	-0.619890
C225	C	1.164044	-0.383809	-1.059476
C226	C	1.664044	0.116191	-0.559476
H227	H	1.071606	-0.395497	-1.151606
H228	H	1.571606	0.104503	-0.651606
H229	H	1.141170	-0.473588	-1.161664
H230	H	1.641170	0.026412	-0.661664
H231	H	1.068211	-0.470077	-1.087366
H232	H	1.568211	0.029923	-0.587366
H233	H	1.202480	-0.348589	-1.092000
H234	H	1.702480	0.151411	-0.592000
H235	H	1.129513	-0.345058	-1.017697
H236	H	1.629513	0.154942	-0.517697
H237	H	1.215923	-1.188082	-0.479825
H238	H	1.715923	-0.688082	0.020175
