data_functionalizedCrystal
_audit_creation_method	'MofGen! by Chris Wilmer'
_symmetry_space_group_name_H-M	'P1'
_symmetry_Int_Tables_number	1
_symmetry_cell_setting	triclinic
loop_
_symmetry_equiv_pos_as_xyz
  x,y,z
_cell_length_a	19.188930
_cell_length_b	19.188930
_cell_length_c	18.266242
_cell_angle_alpha	90.011475
_cell_angle_beta	90.022918
_cell_angle_gamma	83.144779
loop_
_atom_site_label
_atom_site_type_symbol
_atom_site_fract_x
_atom_site_fract_y
_atom_site_fract_z
O1	O	0.926149	0.087169	0.061124
O2	O	1.259483	0.420502	0.394458
O3	O	1.592816	0.753835	0.727791
O4	O	0.722838	0.098903	0.061075
O5	O	1.056171	0.432236	0.394409
O6	O	1.389505	0.765570	0.727742
O7	O	0.830361	-0.008620	0.061087
O8	O	1.163694	0.324714	0.394420
O9	O	1.497027	0.658047	0.727754
O10	O	0.818627	0.194691	0.061113
O11	O	1.151960	0.528025	0.394446
O12	O	1.485293	0.861358	0.727779
O13	O	0.830343	-0.008625	-0.060675
O14	O	1.163676	0.324708	0.272658
O15	O	1.497009	0.658041	0.605992
O16	O	0.722820	0.098897	-0.060687
O17	O	1.056153	0.432231	0.272647
O18	O	1.389486	0.765564	0.605980
O19	O	0.926131	0.087163	-0.060638
O20	O	1.259464	0.420497	0.272696
O21	O	1.592798	0.753830	0.606029
Zn22	Zn	0.824473	0.093029	-0.079994
Zn23	Zn	1.157806	0.426363	0.253339
Zn24	Zn	1.491139	0.759696	0.586672
Zn25	Zn	0.824497	0.093037	0.080432
Zn26	Zn	1.157830	0.426370	0.413766
Zn27	Zn	1.491163	0.759703	0.747099
O28	O	0.818608	0.194686	-0.060649
O29	O	1.151942	0.528019	0.272684
O30	O	1.485275	0.861353	0.606017
C31	C	0.696818	0.098520	0.000188
C32	C	1.030151	0.431854	0.333521
C33	C	1.363485	0.765187	0.666855
C34	C	0.619313	0.097380	0.000169
C35	C	0.952647	0.430713	0.333502
C36	C	1.285980	0.764046	0.666835
C37	C	0.574389	0.160470	0.000188
C38	C	0.907723	0.493804	0.333521
C39	C	1.241056	0.827137	0.666855
C40	C	0.501566	0.159399	0.000196
C41	C	0.834899	0.492732	0.333529
C42	C	1.168232	0.826065	0.666863
C43	C	0.473669	0.095233	0.000199
C44	C	0.807002	0.428566	0.333532
C45	C	1.140336	0.761899	0.666866
C46	C	0.518603	0.032133	0.000175
C47	C	0.851936	0.365467	0.333509
C48	C	1.185270	0.698800	0.666842
C49	C	0.591425	0.033207	0.000160
C50	C	0.924758	0.366540	0.333494
C51	C	1.258092	0.699874	0.666827
N52	N	0.365695	0.046188	0.041663
N53	N	0.699028	0.379521	0.374997
N54	N	1.032362	0.712854	0.708330
N55	N	0.296516	0.045172	0.041679
N56	N	0.629850	0.378505	0.375013
N57	N	0.963183	0.711839	0.708346
C58	C	0.254260	0.091994	0.000243
C59	C	0.587594	0.425328	0.333577
C60	C	0.920927	0.758661	0.666910
N61	N	0.283795	0.139881	-0.041200
N62	N	0.617128	0.473215	0.292133
N63	N	0.950462	0.806548	0.625467
N64	N	0.352980	0.140899	-0.041213
N65	N	0.686313	0.474232	0.292121
N66	N	1.019646	0.807566	0.625454
C67	C	0.394707	0.094062	0.000215
C68	C	0.728040	0.427395	0.333548
C69	C	1.061373	0.760728	0.666882
C70	C	0.130372	0.153928	0.000270
C71	C	0.463705	0.487261	0.333604
C72	C	0.797039	0.820594	0.666937
C73	C	0.057547	0.152853	0.000274
C74	C	0.390881	0.486187	0.333607
C75	C	0.724214	0.819520	0.666940
C76	C	0.074586	0.025586	0.000261
C77	C	0.407919	0.358920	0.333594
C78	C	0.741253	0.692253	0.666927
C79	C	0.147409	0.026662	0.000250
C80	C	0.480743	0.359996	0.333583
C81	C	0.814076	0.693329	0.666917
C82	C	0.175298	0.090835	0.000258
C83	C	0.508631	0.424168	0.333592
C84	C	0.841964	0.757502	0.666925
C85	C	0.829972	-0.034634	0.000204
C86	C	1.163305	0.298700	0.333537
C87	C	1.496638	0.632033	0.666870
C88	C	0.828831	-0.112138	0.000197
C89	C	1.162164	0.221195	0.333531
C90	C	1.495498	0.554529	0.666864
C91	C	0.891922	-0.157062	0.000209
C92	C	1.225255	0.176271	0.333542
C93	C	1.558589	0.509605	0.666876
C94	C	0.890850	-0.229886	0.000220
C95	C	1.224184	0.103448	0.333554
C96	C	1.557517	0.436781	0.666887
C97	C	0.826684	-0.257782	0.000206
C98	C	1.160017	0.075551	0.333539
C99	C	1.493351	0.408884	0.666872
C100	C	0.763585	-0.212849	0.000198
C101	C	1.096918	0.120485	0.333531
C102	C	1.430252	0.453818	0.666865
C103	C	0.764658	-0.140026	0.000194
C104	C	1.097992	0.193307	0.333527
C105	C	1.431325	0.526640	0.666860
N106	N	0.777631	-0.365789	-0.041244
N107	N	1.110964	-0.032456	0.292089
N108	N	1.444297	0.300877	0.625422
N109	N	0.776615	-0.434968	-0.041242
N110	N	1.109948	-0.101635	0.292091
N111	N	1.443282	0.231699	0.625425
C112	C	0.823446	-0.477191	0.000220
C113	C	1.156779	-0.143858	0.333553
C114	C	1.490113	0.189476	0.666886
N115	N	0.871341	-0.447624	0.041669
N116	N	1.204675	-0.114290	0.375003
N117	N	1.538008	0.219043	0.708336
N118	N	0.872359	-0.378439	0.041664
N119	N	1.205692	-0.045106	0.374997
N120	N	1.539025	0.288228	0.708330
C121	C	0.825513	-0.336745	0.000210
C122	C	1.158846	-0.003412	0.333544
C123	C	1.492180	0.329922	0.666877
C124	C	0.885379	-0.601079	0.000245
C125	C	1.218712	-0.267746	0.333578
C126	C	1.552046	0.065587	0.666911
C127	C	0.884305	-0.673904	0.000261
C128	C	1.217638	-0.340571	0.333594
C129	C	1.550971	-0.007238	0.666927
C130	C	0.757038	-0.656865	0.000231
C131	C	1.090371	-0.323532	0.333564
C132	C	1.423704	0.009801	0.666897
C133	C	0.758114	-0.584042	0.000222
C134	C	1.091447	-0.250709	0.333556
C135	C	1.424781	0.082624	0.666889
C136	C	0.822287	-0.556154	0.000226
C137	C	1.155620	-0.222821	0.333559
C138	C	1.488953	0.110513	0.666892
C139	C	0.952151	0.087546	0.000252
C140	C	1.285485	0.420879	0.333585
C141	C	1.618818	0.754213	0.666918
C142	C	1.029656	0.088687	0.000276
C143	C	1.362989	0.422020	0.333609
C144	C	1.696322	0.755353	0.666942
C145	C	0.818997	0.220700	0.000236
C146	C	1.152331	0.554033	0.333569
C147	C	1.485664	0.887366	0.666902
C148	C	0.820138	0.298204	0.000247
C149	C	1.153471	0.631538	0.333580
C150	C	1.486805	0.964871	0.666914
N151	N	0.824461	0.093024	-0.189481
N152	N	1.157795	0.426357	0.143852
N153	N	1.491128	0.759691	0.477185
C154	C	0.872088	0.045436	-0.227785
C155	C	1.205421	0.378770	0.105548
C156	C	1.538755	0.712103	0.438882
C157	C	0.872092	0.045433	-0.304430
C158	C	1.205426	0.378766	0.028903
C159	C	1.538759	0.712100	0.362237
C160	C	0.824477	0.093030	-0.342768
C161	C	1.157810	0.426363	-0.009435
C162	C	1.491144	0.759696	0.323898
C163	C	0.776841	0.140621	-0.304455
C164	C	1.110175	0.473954	0.028878
C165	C	1.443508	0.807288	0.362211
C166	C	0.776834	0.140618	-0.227812
C167	C	1.110167	0.473952	0.105521
C168	C	1.443500	0.807285	0.438855
N169	N	0.815401	0.154837	-0.463094
N170	N	1.148735	0.488170	-0.129761
N171	N	1.482068	0.821504	0.203573
N172	N	0.815413	0.154838	-0.535902
N173	N	1.148746	0.488171	-0.202569
N174	N	1.482080	0.821504	0.130764
C175	C	0.824496	0.093040	-0.573691
C176	C	1.157830	0.426373	-0.240357
C177	C	1.491163	0.759706	0.092976
N178	N	0.833582	0.031239	-0.535920
N179	N	1.166915	0.364573	-0.202587
N180	N	1.500248	0.697906	0.130746
N181	N	0.833574	0.031240	-0.463106
N182	N	1.166907	0.364573	-0.129772
N183	N	1.500240	0.697906	0.203561
C184	C	0.824480	0.093038	-0.425875
C185	C	1.157813	0.426371	-0.092542
C186	C	1.491146	0.759704	0.240791
C187	C	0.872131	0.045444	-0.695101
C188	C	1.205464	0.378778	-0.361768
C189	C	1.538797	0.712111	-0.028435
C190	C	0.872130	0.045440	-0.771748
C191	C	1.205463	0.378774	-0.438414
C192	C	1.538797	0.712107	-0.105081
C193	C	0.776882	0.140634	-0.771772
C194	C	1.110216	0.473968	-0.438438
C195	C	1.443549	0.807301	-0.105105
C196	C	0.776879	0.140632	-0.695127
C197	C	1.110213	0.473966	-0.361794
C198	C	1.443546	0.807299	-0.028460
C199	C	0.824507	0.093038	-0.656796
C200	C	1.157841	0.426372	-0.323463
C201	C	1.491174	0.759705	0.009870
N202	N	0.824513	0.093037	0.189919
N203	N	1.157847	0.426370	0.523253
N204	N	1.491180	0.759703	0.856586
H205	H	0.020970	0.204232	0.000285
H206	H	0.354303	0.537565	0.333619
H207	H	0.687637	0.870898	0.666952
H208	H	0.628003	-0.018171	0.000145
H209	H	0.961336	0.315162	0.333478
H210	H	1.294670	0.648496	0.666811
N211	N	0.044504	-0.043621	0.000257
N212	N	0.377837	0.289713	0.333590
N213	N	0.711170	0.623046	0.666924
H214	H	0.014694	-0.046903	0.045399
H215	H	0.348027	0.286431	0.378732
H216	H	0.681360	0.619764	0.712066
H217	H	0.084054	-0.083387	0.000217
H218	H	0.417387	0.249946	0.333550
H219	H	0.750721	0.583279	0.666884
N220	N	0.952358	-0.722360	0.000268
N221	N	1.285691	-0.389027	0.333601
N222	N	1.619024	-0.055693	0.666934
H223	H	0.941942	-0.772725	0.000273
H224	H	1.275275	-0.439392	0.333606
H225	H	1.608609	-0.106058	0.666940
H226	H	0.980345	-0.713339	0.045408
H227	H	1.313678	-0.380006	0.378741
H228	H	1.647011	-0.046672	0.712074
N229	N	0.958900	-0.278352	0.000235
N230	N	1.292234	0.054981	0.333568
N231	N	1.625567	0.388315	0.666901
H232	H	0.999715	-0.249634	0.000238
H233	H	1.333049	0.083699	0.333571
H234	H	1.666382	0.417032	0.666904
H235	H	0.961213	-0.308946	-0.044903
H236	H	1.294546	0.024388	0.288430
H237	H	1.627880	0.357721	0.621764
H238	H	0.711340	-0.235567	0.000187
H239	H	1.044674	0.097767	0.333521
H240	H	1.378007	0.431100	0.666854
H241	H	0.738049	0.179371	-0.196624
H242	H	1.071383	0.512704	0.136709
H243	H	1.404716	0.846037	0.470042
N244	N	0.488524	-0.037077	0.000184
N245	N	0.821857	0.296256	0.333517
N246	N	1.155191	0.629589	0.666850
H247	H	0.504894	-0.064709	-0.044961
H248	H	0.838228	0.268624	0.288373
H249	H	1.171561	0.601957	0.621706
H250	H	0.435579	-0.028130	0.000227
H251	H	0.768912	0.305203	0.333560
H252	H	1.102245	0.638537	0.666893
H253	H	0.738100	0.179386	-0.663938
H254	H	1.071433	0.512719	-0.330605
H255	H	1.404767	0.846052	0.002729
N256	N	0.696608	-0.091567	0.000182
N257	N	1.029941	0.241766	0.333515
N258	N	1.363275	0.575100	0.666848
H259	H	0.655794	-0.120287	0.000176
H260	H	0.989128	0.213047	0.333510
H261	H	1.322461	0.546380	0.666843
H262	H	0.694274	-0.060994	-0.044961
H263	H	1.027608	0.272339	0.288372
H264	H	1.360941	0.605673	0.621706
N265	N	0.923495	-0.005888	-0.653752
N266	N	1.256828	0.327446	-0.320419
N267	N	1.590162	0.660779	0.012914
H268	H	0.953664	-0.036040	-0.689651
H269	H	1.286998	0.297293	-0.356318
H270	H	1.620331	0.630627	-0.022984
H271	H	0.896860	-0.036688	-0.621971
H272	H	1.230194	0.296645	-0.288638
H273	H	1.563527	0.629978	0.044695
N274	N	0.923505	-0.005883	-0.813068
N275	N	1.256838	0.327450	-0.479734
N276	N	1.590172	0.660783	-0.146401
H277	H	0.954327	0.020735	-0.844844
H278	H	1.287660	0.354068	-0.511511
H279	H	1.620993	0.687401	-0.178178
H280	H	0.896879	-0.036722	-0.844848
H281	H	1.230213	0.296611	-0.511514
H282	H	1.563546	0.629944	-0.178181
N283	N	0.954589	-0.570993	0.000252
N284	N	1.287922	-0.237659	0.333585
N285	N	1.621256	0.095674	0.666918
H286	H	0.994396	-0.610505	0.000267
H287	H	1.327729	-0.277172	0.333600
H288	H	1.661063	0.056161	0.666934
H289	H	0.957813	-0.541136	0.045387
H290	H	1.291146	-0.207802	0.378720
H291	H	1.624479	0.125531	0.712054
H292	H	0.738110	0.179386	-0.802986
H293	H	1.071444	0.512719	-0.469653
H294	H	1.404777	0.846052	-0.136319
H295	H	0.704792	-0.679578	0.000222
H296	H	1.038126	-0.346245	0.333556
H297	H	1.371459	-0.012911	0.666889
N298	N	0.923471	-0.005894	-0.345748
N299	N	1.256804	0.327439	-0.012415
N300	N	1.590137	0.660773	0.320919
H301	H	0.954298	0.020719	-0.377522
H302	H	1.287632	0.354053	-0.044189
H303	H	1.620965	0.687386	0.289145
H304	H	0.896847	-0.036734	-0.377530
H305	H	1.230181	0.296600	-0.044196
H306	H	1.563514	0.629933	0.289137
H307	H	0.183988	-0.024713	0.000238
H308	H	0.517321	0.308620	0.333571
H309	H	0.850654	0.641954	0.666905
N310	N	0.690066	-0.535583	0.000205
N311	N	1.023399	-0.202249	0.333539
N312	N	1.356732	0.131084	0.666872
H313	H	0.649253	-0.564303	0.000197
H314	H	0.982586	-0.230970	0.333530
H315	H	1.315919	0.102364	0.666864
H316	H	0.687733	-0.505008	-0.044936
H317	H	1.021066	-0.171675	0.288397
H318	H	1.354399	0.161659	0.621731
H319	H	0.910868	0.006681	-0.196579
H320	H	1.244201	0.340014	0.136755
H321	H	1.577534	0.673347	0.470088
N322	N	0.725483	0.191953	-0.345805
N323	N	1.058816	0.525287	-0.012472
N324	N	1.392149	0.858620	0.320862
H325	H	0.752068	0.222806	-0.377580
H326	H	1.085401	0.556139	-0.044247
H327	H	1.418734	0.889473	0.289086
H328	H	0.695320	0.222053	-0.309861
H329	H	1.028653	0.555387	0.023472
H330	H	1.361987	0.888720	0.356805
N331	N	0.604460	0.229687	0.000198
N332	N	0.937793	0.563020	0.333531
N333	N	1.271127	0.896353	0.666865
H334	H	0.588035	0.257319	-0.044931
H335	H	0.921368	0.590652	0.288402
H336	H	1.254701	0.923985	0.621736
H337	H	0.657406	0.220744	0.000215
H338	H	0.990739	0.554077	0.333549
H339	H	1.324072	0.887410	0.666882
N340	N	0.453100	0.227449	0.000219
N341	N	0.786433	0.560782	0.333552
N342	N	1.119766	0.894115	0.666885
H343	H	0.481817	0.268264	0.000221
H344	H	0.815151	0.601597	0.333555
H345	H	1.148484	0.934930	0.666888
H346	H	0.422543	0.229769	0.045366
H347	H	0.755876	0.563102	0.378699
H348	H	1.089210	0.896435	0.712033
H349	H	0.944176	-0.134360	0.000214
H350	H	1.277509	0.198973	0.333548
H351	H	1.610843	0.532306	0.666881
N352	N	0.160459	0.223138	0.000276
N353	N	0.493792	0.556471	0.333609
N354	N	0.827126	0.889804	0.666942
H355	H	0.120946	0.262945	0.000283
H356	H	0.454279	0.596278	0.333616
H357	H	0.787613	0.929611	0.666950
H358	H	0.190280	0.226352	-0.044867
H359	H	0.523613	0.559685	0.288467
H360	H	0.856947	0.893018	0.621800
