data_functionalizedCrystal
_audit_creation_method	'MofGen! by Chris Wilmer'
_symmetry_space_group_name_H-M	'P1'
_symmetry_Int_Tables_number	1
_symmetry_cell_setting	triclinic
loop_
_symmetry_equiv_pos_as_xyz
  x,y,z
_cell_length_a	6.817900
_cell_length_b	11.102294
_cell_length_c	9.582880
_cell_angle_alpha	90.972313
_cell_angle_beta	111.207034
_cell_angle_gamma	108.605785
loop_
_atom_site_label
_atom_site_type_symbol
_atom_site_fract_x
_atom_site_fract_y
_atom_site_fract_z
V1	V	-4.142615	-0.175303	-0.466600
O2	O	-4.101056	0.008976	-0.457719
O3	O	-4.119179	-0.348126	-0.463407
O4	O	-4.132953	-0.172364	-0.670101
O5	O	-4.087186	-0.168003	-0.249594
V6	V	-4.617988	-0.153289	-0.440644
O7	O	-4.421749	-0.223590	-0.523535
O8	O	-4.789051	-0.105002	-0.383709
O9	O	-4.418218	0.019534	-0.443837
O10	O	-4.776944	-0.337568	-0.449525
O11	O	-4.790813	-0.160589	-0.657649
O12	O	-4.404443	-0.156228	-0.237143
C13	C	-3.968999	-0.390265	-0.456045
C14	C	-4.031382	-0.531549	-0.454791
C15	C	-4.303811	-0.737151	-0.460511
C16	C	-4.245201	-0.604398	-0.461672
C17	C	-3.876156	-0.591457	-0.446734
C18	C	-3.934761	-0.724206	-0.445562
C19	C	-3.986568	-0.166061	-0.719702
C20	C	-4.060117	-0.164802	-0.886065
C21	C	-4.231740	0.061666	-0.451194
C22	C	-4.148597	0.202949	-0.452458
C23	C	-4.214170	-0.162536	-0.187534
C24	C	-4.119858	-0.163788	-0.021169
H25	H	-4.371596	-0.555633	-0.468225
H26	H	-4.477924	-0.796458	-0.466122
H27	H	-3.702052	-0.532131	-0.441122
H28	H	-3.808354	-0.772977	-0.439002
