data_functionalizedCrystal
_audit_creation_method	'MofGen! by Chris Wilmer'
_symmetry_space_group_name_H-M	'P1'
_symmetry_Int_Tables_number	1
_symmetry_cell_setting	triclinic
loop_
_symmetry_equiv_pos_as_xyz
  x,y,z
_cell_length_a	10.723024
_cell_length_b	8.559649
_cell_length_c	7.088929
_cell_angle_alpha	84.674985
_cell_angle_beta	83.718137
_cell_angle_gamma	102.876733
loop_
_atom_site_label
_atom_site_type_symbol
_atom_site_fract_x
_atom_site_fract_y
_atom_site_fract_z
O1	O	-0.027906	-2.103422	-0.158957
O2	O	0.036470	-1.638923	-0.158966
O3	O	-0.178393	-1.881888	-0.158954
O4	O	0.186957	-1.860458	-0.158969
O5	O	-0.207166	-1.914357	0.159022
O6	O	0.007698	-1.671392	0.159011
O7	O	-0.056678	-2.135892	0.159020
Cu8	Cu	-0.027117	-1.906607	0.188049
Cu9	Cu	0.006909	-1.868208	-0.187995
O10	O	0.158185	-1.892927	0.159008
C11	C	0.026962	-1.595681	0.000021
C12	C	0.041484	-1.418460	0.000018
C13	C	-0.239119	-1.896563	0.000032
C14	C	-0.377194	-1.891897	0.000025
C15	C	-0.047170	-2.179133	0.000028
C16	C	-0.061691	-2.356353	0.000019
C17	C	-0.466115	-2.027846	0.000025
C18	C	-0.608824	-2.023026	0.000018
C19	C	0.218911	-1.878252	0.000017
C20	C	0.356987	-1.882917	0.000012
N21	N	-0.051052	-1.933626	0.452538
N22	N	0.030832	-1.841202	-0.452485
H23	H	-0.436593	-2.147807	0.000039
O24	O	0.132114	-1.727118	0.449910
C25	C	0.211163	-1.801840	0.334141
H26	H	0.152159	-1.923098	0.304327
H27	H	0.295296	-1.821669	0.411165
C28	C	0.336036	-1.543942	0.180523
C29	C	0.263563	-1.692869	0.143892
H30	H	0.368364	-1.476723	0.063172
H31	H	0.282783	-1.493599	0.258523
H32	H	0.406138	-1.560489	0.244715
H33	H	0.193454	-1.676322	0.079724
H34	H	0.316805	-1.743207	0.065876
H35	H	-0.685189	-2.139411	0.000026
O36	O	-0.152328	-2.048034	0.549647
C37	C	-0.224609	-2.129558	0.418574
H38	H	-0.160872	-2.117530	0.275833
H39	H	-0.310270	-2.074388	0.397368
C40	C	-0.352231	-2.324156	0.672180
C41	C	-0.273945	-2.309395	0.496868
H42	H	-0.382670	-2.435087	0.720477
H43	H	-0.303538	-2.269230	0.760489
H44	H	-0.423605	-2.278172	0.654485
H45	H	-0.202565	-2.355360	0.514570
H46	H	-0.322628	-2.364334	0.408564
O47	O	-0.412267	-1.748706	0.000270
C48	C	-0.378067	-1.678192	0.164977
H49	H	-0.296958	-1.728124	0.219893
H50	H	-0.465520	-1.707756	0.280288
C51	C	-0.431760	-1.432450	0.047498
C52	C	-0.332133	-1.493768	0.114937
H53	H	-0.403431	-1.318689	0.016636
H54	H	-0.454807	-1.479958	-0.063465
H55	H	-0.504629	-1.457102	0.143602
H56	H	-0.259273	-1.469134	0.018826
H57	H	-0.309073	-1.446252	0.225883
H58	H	-0.566656	-1.766528	0.000025
H59	H	-0.161133	-1.438759	0.000013
H60	H	0.140934	-1.336043	0.000003
