data_functionalizedCrystal
_audit_creation_method	'MofGen! by Chris Wilmer'
_symmetry_space_group_name_H-M	'P1'
_symmetry_Int_Tables_number	1
_symmetry_cell_setting	triclinic
loop_
_symmetry_equiv_pos_as_xyz
  x,y,z
_cell_length_a	19.851628
_cell_length_b	14.809374
_cell_length_c	14.809374
_cell_angle_alpha	60.797835
_cell_angle_beta	90.004296
_cell_angle_gamma	67.424787
loop_
_atom_site_label
_atom_site_type_symbol
_atom_site_fract_x
_atom_site_fract_y
_atom_site_fract_z
Zr1	Zr	0.744092	0.955109	-0.203554
O2	O	0.661571	1.113040	-0.350726
O3	O	0.757706	0.777341	-0.145475
O4	O	0.785262	0.926485	-0.332010
O5	O	0.625568	0.993393	-0.031794
O6	O	0.896121	0.926471	-0.331992
O7	O	0.634015	0.963896	-0.164191
O8	O	0.846829	0.659680	0.001686
O9	O	0.674861	1.260185	-0.365472
O10	O	0.860360	0.857796	-0.136353
O11	O	0.771323	0.879820	-0.037560
O12	O	0.803767	1.055418	-0.257181
O13	O	0.714730	1.077441	-0.158388
Zr14	Zr	0.907427	1.002131	0.007632
Zr15	Zr	0.920899	0.955087	-0.203525
Zr16	Zr	0.730620	1.002153	0.007604
Zr17	Zr	0.765287	1.189787	-0.227071
Zr18	Zr	0.886232	0.767453	0.031150
O19	O	0.893813	1.179900	-0.050447
O20	O	0.912969	1.113009	-0.350686
O21	O	0.642415	1.179931	-0.050487
O22	O	0.989948	0.844200	0.154805
O23	O	1.009104	0.777310	-0.145434
O24	O	0.738550	0.844231	0.154764
O25	O	1.025951	0.963848	-0.164128
O26	O	0.866257	1.030755	0.136089
O27	O	0.755398	1.030769	0.136071
O28	O	1.017504	0.993344	-0.031731
O29	O	0.815399	1.260167	-0.365449
O30	O	0.836120	0.697073	0.169528
O31	O	0.976659	0.697056	0.169550
O32	O	0.987367	0.659662	0.001708
O33	O	0.664152	1.297578	-0.197630
O34	O	0.804691	1.297561	-0.197607
O35	O	0.847752	0.901823	0.061260
O36	O	0.936789	0.879799	-0.037533
O37	O	0.880196	1.077421	-0.158362
O38	O	0.791159	1.099444	-0.059569
C39	C	0.799247	0.685074	-0.068544
C40	C	0.790250	0.585447	-0.058560
C41	C	0.830406	0.530105	-0.103117
C42	C	0.821107	0.427135	-0.092799
C43	C	0.604600	0.978648	-0.097996
C44	C	0.529541	0.978657	-0.098008
C45	C	0.317334	1.086388	-0.163853
C46	C	0.292057	1.017828	-0.196895
C47	C	0.392129	0.978630	-0.097977
C48	C	0.283668	1.047194	-0.064954
C49	C	0.259393	0.978614	-0.097948
C50	C	0.367844	0.910058	-0.131073
C51	C	0.359451	0.939453	0.000918
C52	C	0.334217	0.870811	-0.032092
C53	C	0.468594	0.978643	-0.097996
C54	C	0.182933	0.978591	-0.097929
C55	C	1.046919	0.978593	-0.097925
C56	C	1.121978	0.978584	-0.097913
C57	C	0.842611	0.919775	-0.362087
C58	C	0.848330	0.899804	-0.451728
C59	C	0.852272	1.272167	-0.127378
C60	C	0.861270	1.371794	-0.137362
C61	C	0.822806	0.988934	-0.551633
C62	C	0.828717	0.968295	-0.644284
C63	C	0.808908	1.037465	0.166165
C64	C	0.803189	1.057436	0.255807
C65	C	1.020407	0.685046	-0.068508
C66	C	1.086468	0.585410	-0.058512
C67	C	0.782396	0.743918	0.195582
C68	C	0.767679	0.664263	0.295208
C69	C	1.003555	0.743891	0.195618
C70	C	1.063898	0.664226	0.295256
C71	C	0.647964	1.213349	-0.391539
C72	C	0.587622	1.293014	-0.491177
C73	C	0.631112	1.272194	-0.127413
C74	C	0.565051	1.371830	-0.137409
C75	C	0.869123	1.213322	-0.391504
C76	C	0.883840	1.292978	-0.491129
C77	C	1.077597	0.527132	-0.105409
C78	C	1.139664	0.433522	-0.096038
C79	C	1.210602	0.398186	-0.039763
C80	C	1.219472	0.456473	0.007135
C81	C	1.157406	0.550087	-0.002243
C82	C	0.800662	0.638343	0.393585
C83	C	0.786831	0.563513	0.487201
C84	C	0.740021	0.514598	0.482438
C85	C	0.707034	0.540524	0.384050
C86	C	0.720861	0.615360	0.290436
C87	C	1.138719	0.615319	0.290478
C88	C	1.195425	0.540476	0.384089
C89	C	1.177308	0.514536	0.482477
C90	C	1.102480	0.563453	0.487252
C91	C	1.045776	0.638300	0.393642
C92	C	0.512801	1.341933	-0.486400
C93	C	0.456098	1.416805	-0.580014
C94	C	0.474215	1.442749	-0.678403
C95	C	0.549043	1.393827	-0.683177
C96	C	0.605746	1.318964	-0.589565
C97	C	0.573924	1.430116	-0.090522
C98	C	0.511860	1.523747	-0.099919
C99	C	0.440923	1.559085	-0.156198
C100	C	0.432052	1.500795	-0.203091
C101	C	0.494116	1.407171	-0.193700
C102	C	0.930654	1.341870	-0.486332
C103	C	0.944497	1.416705	-0.579932
C104	C	0.911521	1.442651	-0.678328
C105	C	0.864705	1.393750	-0.683123
C106	C	0.850867	1.318910	-0.589524
H107	H	0.310939	1.177485	-0.219627
C108	C	0.966936	1.313339	-0.378108
H109	H	0.996804	1.353173	-0.388671
H110	H	0.928817	1.336487	-0.344646
H111	H	0.997590	1.232748	-0.334247
H112	H	0.776961	1.149031	-0.761142
H113	H	0.395174	1.456626	-0.576106
C114	C	0.883761	0.776075	-0.428834
H115	H	0.883080	0.778435	-0.494110
H116	H	0.934100	0.736721	-0.389129
H117	H	0.855949	0.736740	-0.389148
C118	C	0.995987	1.470495	-0.574645
H119	H	0.999517	1.518775	-0.644476
H120	H	0.975717	1.514814	-0.543315
H121	H	1.044501	1.411073	-0.532892
H122	H	0.922795	1.503592	-0.754535
H123	H	0.668920	0.500687	0.380188
H124	H	0.812745	1.279109	-0.593445
C125	C	0.651946	1.391260	-0.028611
H126	H	0.648332	1.439399	-0.002046
H127	H	0.670157	1.313756	0.029061
H128	H	0.685481	1.396682	-0.074667
C129	C	0.917019	0.410753	-0.199218
H130	H	0.915953	0.474854	-0.198045
H131	H	0.966156	0.349259	-0.167023
H132	H	0.903329	0.432205	-0.270759
C133	C	0.684581	0.643854	0.182228
H134	H	0.654730	0.603992	0.192810
H135	H	0.653926	0.724436	0.138350
H136	H	0.722708	0.620690	0.148777
C137	C	0.234590	1.125519	-0.027230
H138	H	0.220959	1.081200	0.035172
H139	H	0.261930	1.158853	-0.012081
H140	H	0.190590	1.184824	-0.081514
H141	H	1.153484	0.636426	0.210374
H142	H	0.837859	1.414887	-0.763250
C143	C	1.278866	0.295203	-0.029444
H144	H	1.263415	0.265554	-0.065427
H145	H	1.315310	0.319713	-0.060125
H146	H	1.299977	0.236791	0.043596
H147	H	0.519097	1.571193	-0.061727
H148	H	0.374287	1.529582	-0.248913
C149	C	0.886150	0.569073	-0.164972
H150	H	0.885083	0.633174	-0.163799
H151	H	0.935288	0.507582	-0.132780
H152	H	0.872458	0.590526	-0.236513
H153	H	0.779842	0.398285	-0.047008
C154	C	1.239687	0.432195	0.585440
H155	H	1.286841	0.406777	0.568495
H156	H	1.240042	0.471353	0.620479
H157	H	1.230670	0.367635	0.630861
C158	C	0.852150	0.692145	0.398839
H159	H	0.855672	0.740423	0.329002
H160	H	0.831884	0.736467	0.430167
H161	H	0.900667	0.632728	0.440585
C162	C	0.734515	0.546469	0.003315
H163	H	0.710534	0.594533	0.029943
H164	H	0.697898	0.551874	-0.042760
H165	H	0.760740	0.468947	0.060958
H166	H	1.019843	0.555898	-0.151247
C167	C	0.252568	1.062560	-0.309854
H168	H	0.245991	1.139138	-0.356586
H169	H	0.282341	1.014590	-0.333758
H170	H	0.205000	1.061574	-0.308907
H171	H	1.087739	0.542321	0.567372
H172	H	1.256349	0.500654	0.380182
H173	H	0.404082	0.852108	-0.159085
C174	C	1.167170	0.614186	0.049348
H175	H	1.120052	0.675009	0.035702
H176	H	1.186082	0.562089	0.123939
H177	H	1.201398	0.645026	0.020210
H178	H	0.390393	1.635322	-0.163836
H179	H	0.984853	0.678111	0.397547
C180	C	0.492860	1.313422	-0.378187
H181	H	0.440177	1.353299	-0.388766
H182	H	0.508353	1.232843	-0.334316
H183	H	0.517735	1.336566	-0.344728
H184	H	0.428037	1.503709	-0.754620
H185	H	0.854949	0.876701	-0.627337
H186	H	0.563786	1.414961	-0.763297
C187	C	0.343050	0.747622	0.043173
H188	H	0.372411	0.699078	0.019556
H189	H	0.367199	0.719414	0.113165
H190	H	0.294981	0.748379	0.043211
C191	C	1.297500	0.417582	0.069055
H192	H	1.293903	0.465693	0.095647
H193	H	1.315697	0.340072	0.126710
H194	H	1.331038	0.423002	0.023004
C195	C	0.688044	1.265145	-0.594831
H196	H	0.690705	1.291314	-0.666837
H197	H	0.716793	1.287308	-0.565653
H198	H	0.707401	1.183602	-0.555270
C199	C	0.484349	1.343051	-0.245265
H200	H	0.531467	1.282231	-0.231622
H201	H	0.450116	1.312227	-0.216134
H202	H	0.465444	1.395144	-0.319864
H203	H	0.796582	1.080521	-0.568572
C204	C	0.398949	0.894781	0.113845
H205	H	0.369617	0.943622	0.137198
H206	H	0.404707	0.818732	0.160889
H207	H	0.446890	0.894461	0.113110
C208	C	0.823128	0.534996	0.595413
H209	H	0.852996	0.574833	0.584836
H210	H	0.785014	0.558149	0.628879
H211	H	0.853783	0.454406	0.639279
H212	H	1.132427	0.386075	-0.134230
C213	C	0.724822	0.432274	0.585419
H214	H	0.751179	0.423840	0.644689
H215	H	0.672574	0.462955	0.582355
H216	H	0.741357	0.359225	0.592758
