data_functionalizedCrystal
_audit_creation_method	'MofGen! by Chris Wilmer'
_symmetry_space_group_name_H-M	'P1'
_symmetry_Int_Tables_number	1
_symmetry_cell_setting	triclinic
loop_
_symmetry_equiv_pos_as_xyz
  x,y,z
_cell_length_a	6.817900
_cell_length_b	10.773890
_cell_length_c	14.858340
_cell_angle_alpha	96.152117
_cell_angle_beta	104.519754
_cell_angle_gamma	96.645716
loop_
_atom_site_label
_atom_site_type_symbol
_atom_site_fract_x
_atom_site_fract_y
_atom_site_fract_z
V1	V	-4.003605	-0.173386	-0.288438
V2	V	-3.670271	0.159947	0.044895
V3	V	-3.336938	0.493281	0.378228
O4	O	-4.027072	0.007513	-0.284507
O5	O	-3.693739	0.340847	0.048827
O6	O	-3.360405	0.674180	0.382160
O7	O	-3.921125	-0.343008	-0.284966
O8	O	-3.587791	-0.009674	0.048367
O9	O	-3.254458	0.323659	0.381700
O10	O	-3.960687	-0.171078	-0.414920
O11	O	-3.627354	0.162255	-0.081587
O12	O	-3.294020	0.495589	0.251746
O13	O	-3.987236	-0.165607	-0.153653
O14	O	-3.653902	0.167727	0.179680
O15	O	-3.320569	0.501060	0.513014
V16	V	-4.490938	-0.151706	-0.272499
V17	V	-4.157605	0.181628	0.060834
V18	V	-3.824271	0.514961	0.394168
O19	O	-4.256504	-0.220943	-0.323403
O20	O	-3.923171	0.112390	0.009931
O21	O	-3.589838	0.445724	0.343264
O22	O	-4.688236	-0.104149	-0.237535
O23	O	-4.354902	0.229185	0.095798
O24	O	-4.021569	0.562518	0.429132
O25	O	-4.350211	0.017916	-0.275971
O26	O	-4.016878	0.351249	0.057362
O27	O	-3.683545	0.684583	0.390696
O28	O	-4.584868	-0.332605	-0.276431
O29	O	-4.251534	0.000728	0.056902
O30	O	-3.918201	0.334062	0.390236
O31	O	-4.624704	-0.159485	-0.407285
O32	O	-4.291370	0.173848	-0.073951
O33	O	-3.958037	0.507182	0.259382
O34	O	-4.310649	-0.154014	-0.146017
O35	O	-3.977316	0.179320	0.187316
O36	O	-3.643983	0.512653	0.520649
C37	C	-3.757658	-0.384347	-0.280029
C38	C	-3.424324	-0.051013	0.053304
C39	C	-3.090991	0.282320	0.386637
C40	C	-3.771544	-0.523017	-0.278034
C41	C	-3.438211	-0.189684	0.055300
C42	C	-3.104877	0.143650	0.388633
C43	C	-3.949769	-0.590889	-0.281501
C44	C	-3.616436	-0.257556	0.051832
C45	C	-3.283103	0.075777	0.385165
C46	C	-3.964126	-0.734213	-0.279439
C47	C	-3.630792	-0.400879	0.053894
C48	C	-3.297459	-0.067546	0.387228
C49	C	-3.808122	-0.165032	-0.445797
C50	C	-3.474789	0.168302	-0.112464
C51	C	-3.141456	0.501635	0.220869
C52	C	-3.854090	-0.164267	-0.549187
C53	C	-3.520757	0.169066	-0.215854
C54	C	-3.187424	0.502400	0.117479
C55	C	-3.891420	-0.163645	-0.633151
C56	C	-3.558086	0.169689	-0.299818
C57	C	-3.224753	0.503022	0.033515
C58	C	-3.938267	-0.162859	-0.738487
C59	C	-3.604934	0.170475	-0.405154
C60	C	-3.271600	0.503808	-0.071820
C61	C	-3.975621	-0.162232	-0.822444
C62	C	-3.642288	0.171101	-0.489111
C63	C	-3.308954	0.504434	-0.155778
C64	C	-4.022473	-0.161449	-0.927787
C65	C	-3.689139	0.171885	-0.594454
C66	C	-3.355806	0.505218	-0.261121
C67	C	-4.177019	0.059248	-0.280906
C68	C	-3.843686	0.392582	0.052428
C69	C	-3.510353	0.725915	0.385761
C70	C	-4.142371	0.197918	-0.282907
C71	C	-3.809038	0.531251	0.050426
C72	C	-3.475704	0.864584	0.383759
C73	C	-4.126555	-0.160064	-0.115135
C74	C	-3.793222	0.173269	0.218198
C75	C	-3.459888	0.506603	0.551531
C76	C	-4.059827	-0.160822	-0.011745
C77	C	-3.726493	0.172511	0.321589
C78	C	-3.393160	0.505844	0.654922
H79	H	-3.629590	-0.571016	-0.273543
H80	H	-3.296256	-0.237683	0.059790
H81	H	-2.962923	0.095650	0.393123
H82	H	-4.091728	-0.542892	-0.286003
H83	H	-3.758395	-0.209559	0.047331
H84	H	-3.425062	0.123774	0.380664
H85	H	-4.284344	-0.754092	-0.287407
H86	H	-3.951011	-0.420759	0.045926
H87	H	-3.617678	-0.087425	0.379259
F88	F	-3.778560	-0.796939	-0.273569
F89	F	-3.445226	-0.463606	0.059764
F90	F	-3.111893	-0.130273	0.393098
