data_functionalizedCrystal
_audit_creation_method	'MofGen! by Chris Wilmer'
_symmetry_space_group_name_H-M	'P1'
_symmetry_Int_Tables_number	1
_symmetry_cell_setting	triclinic
loop_
_symmetry_equiv_pos_as_xyz
  x,y,z
_cell_length_a	17.038272
_cell_length_b	19.188930
_cell_length_c	16.098538
_cell_angle_alpha	92.708456
_cell_angle_beta	87.069734
_cell_angle_gamma	87.128169
loop_
_atom_site_label
_atom_site_type_symbol
_atom_site_fract_x
_atom_site_fract_y
_atom_site_fract_z
O1	O	1.040399	0.148677	-0.069168
O2	O	0.812777	0.146269	-0.069192
O3	O	0.933156	0.046226	-0.069163
O4	O	0.920020	0.248720	-0.069197
O5	O	0.926124	0.052046	0.069348
O6	O	0.805745	0.152089	0.069319
O7	O	1.033367	0.154497	0.069343
Zn8	Zn	0.918440	0.154217	0.091323
Zn9	Zn	0.927705	0.146549	-0.091172
O10	O	0.912989	0.254540	0.069314
C11	C	0.780140	0.146990	0.000061
C12	C	0.693368	0.140458	0.000052
C13	C	0.643067	0.200424	0.000043
C14	C	0.561535	0.194283	0.000055
C15	C	0.530306	0.128176	0.000071
C16	C	0.580613	0.068205	0.000083
C17	C	0.662144	0.074347	0.000077
C18	C	0.284615	0.106479	0.000097
C19	C	0.203078	0.100342	0.000101
C20	C	0.184005	0.226420	0.000075
C21	C	0.265538	0.232556	0.000063
C22	C	0.315838	0.172586	0.000080
C23	C	0.446968	0.121897	0.000081
C24	C	0.399175	0.178865	0.000075
C25	C	0.929215	0.023099	0.000095
C26	C	0.927937	-0.054485	0.000102
C27	C	0.998572	-0.095020	0.000113
C28	C	0.997373	-0.167919	0.000100
C29	C	0.925534	-0.200279	0.000092
C30	C	0.854890	-0.159735	0.000076
C31	C	0.856092	-0.086838	0.000081
N32	N	0.868229	-0.309715	0.047224
N33	N	0.867092	-0.378964	0.047221
C34	C	0.921910	-0.419913	0.000075
N35	N	0.977918	-0.388997	-0.047058
N36	N	0.979057	-0.319742	-0.047051
C37	C	0.924223	-0.279323	0.000086
C38	C	0.991249	-0.539494	0.000070
C39	C	0.990047	-0.612395	0.000052
C40	C	0.847562	-0.604208	0.000036
C41	C	0.848767	-0.531310	0.000046
C42	C	0.920612	-0.498957	0.000067
C43	C	1.066005	0.153776	0.000089
C44	C	1.152777	0.160308	0.000092
C45	C	0.916930	0.277667	0.000054
C46	C	0.918208	0.355250	0.000042
N47	N	0.912123	0.159449	0.215871
N48	N	0.934028	0.141311	-0.215719
C49	C	0.963235	0.117004	0.259468
C50	C	0.958823	0.120672	0.346656
C51	C	0.903302	0.166789	0.390245
C52	C	0.852184	0.209235	0.346641
C53	C	0.856593	0.205564	0.259455
C54	C	0.887319	0.180086	0.653491
C55	C	0.882916	0.183756	0.740683
C56	C	0.989554	0.095192	0.740692
C57	C	0.993961	0.091527	0.653504
C58	C	0.942841	0.133971	0.609908
C59	C	0.898792	0.170540	0.479365
C60	C	0.947347	0.130216	0.520790
H61	H	0.177655	0.046506	0.000113
H62	H	0.703099	0.025516	0.000084
H63	H	0.992550	0.092665	0.485297
H64	H	0.798571	-0.053834	0.000072
H65	H	1.047569	-0.645398	0.000056
H66	H	0.424604	0.232690	0.000067
F67	F	0.338137	0.042652	0.000114
H68	H	0.143042	0.275245	0.000063
H69	H	0.789070	-0.630555	0.000025
F70	F	0.413724	0.051542	0.000095
F71	F	1.067712	-0.505059	0.000097
H72	H	0.791248	-0.498305	0.000041
F73	F	0.832916	0.225260	0.607100
H74	H	0.837702	0.221313	0.776169
F75	F	1.053053	0.042446	0.607114
F76	F	0.778435	-0.194175	0.000061
F77	F	0.547375	-0.002152	0.000106
F78	F	1.022332	0.067924	0.213086
H79	H	0.814971	0.240126	0.223959
H80	H	1.057074	-0.068683	0.000128
H81	H	0.520582	0.243114	0.000047
H82	H	0.853587	0.208090	0.514862
H83	H	1.000442	0.086110	0.382152
F84	F	1.072555	-0.211068	0.000111
F85	F	1.043955	0.050021	0.787095
H86	H	0.668487	0.254256	0.000029
F87	F	0.793090	0.258313	0.393033
H88	H	0.290958	0.286387	0.000041
