data_functionalizedCrystal
_audit_creation_method	'MofGen! by Chris Wilmer'
_symmetry_space_group_name_H-M	'P1'
_symmetry_Int_Tables_number	1
_symmetry_cell_setting	triclinic
loop_
_symmetry_equiv_pos_as_xyz
  x,y,z
_cell_length_a	21.295420
_cell_length_b	21.295418
_cell_length_c	11.169409
_cell_angle_alpha	90.039711
_cell_angle_beta	90.023225
_cell_angle_gamma	90.023182
loop_
_atom_site_label
_atom_site_type_symbol
_atom_site_fract_x
_atom_site_fract_y
_atom_site_fract_z
Zn1	Zn	0.962360	-0.250629	0.678590
Zn2	Zn	1.462360	0.249371	1.178590
Zn3	Zn	0.962271	-0.355917	0.477881
Zn4	Zn	1.462271	0.144083	0.977881
Zn5	Zn	0.857086	-0.250658	0.477912
Zn6	Zn	1.357086	0.249342	0.977912
Zn7	Zn	0.857059	-0.355857	0.678514
Zn8	Zn	1.357059	0.144143	1.178514
O9	O	0.909694	-0.303265	0.578224
O10	O	1.409694	0.196735	1.078224
O11	O	1.050438	-0.264609	0.651984
O12	O	1.550438	0.235391	1.151984
O13	O	0.948292	-0.341992	0.309935
O14	O	1.448292	0.158008	0.809935
O15	O	0.871100	-0.162565	0.504578
O16	O	1.371100	0.337435	1.004578
O17	O	1.050372	-0.341964	0.504524
O18	O	1.550372	0.158036	1.004524
O19	O	0.948444	-0.162543	0.652015
O20	O	1.448444	0.337457	1.152015
O21	O	0.871013	-0.264658	0.309958
O22	O	1.371013	0.235342	0.809958
O23	O	0.768993	-0.264600	0.504504
O24	O	1.268993	0.235400	1.004504
O25	O	0.871053	-0.341860	0.846474
O26	O	1.371053	0.158140	1.346474
O27	O	0.768973	-0.341889	0.651885
O28	O	1.268973	0.158111	1.151885
O29	O	0.948418	-0.264550	0.846530
O30	O	1.448418	0.235450	1.346530
O31	O	0.948266	-0.443999	0.504451
O32	O	1.448266	0.056001	1.004451
O33	O	0.870967	-0.443954	0.651855
O34	O	1.370967	0.056046	1.151855
C35	C	0.746143	-0.303241	0.578190
C36	C	1.246143	0.196759	1.078190
C37	C	0.676174	-0.303246	0.578204
C38	C	1.176174	0.196754	1.078204
C39	C	0.176750	-0.263082	0.655150
C40	C	0.676750	0.236918	1.155150
C41	C	0.242493	-0.263077	0.655149
C42	C	0.742493	0.236923	1.155149
C43	C	0.275335	-0.303284	0.578252
C44	C	0.775335	0.196716	1.078252
C45	C	0.242429	-0.343511	0.501371
C46	C	0.742429	0.156489	1.001371
C47	C	0.176688	-0.343519	0.501382
C48	C	0.676688	0.156481	1.001382
N49	N	0.378526	-0.308039	0.473162
N50	N	0.878526	0.191961	0.973162
N51	N	0.440978	-0.308028	0.473155
N52	N	0.940978	0.191972	0.973155
C53	C	0.473410	-0.303264	0.578217
C54	C	0.973410	0.196736	1.078217
N55	N	0.441031	-0.298499	0.683288
N56	N	0.941031	0.201501	1.183288
N57	N	0.378574	-0.298507	0.683293
N58	N	0.878574	0.201493	1.183293
C59	C	0.346620	-0.303280	0.578233
C60	C	0.846620	0.196720	1.078233
C61	C	0.577593	-0.263038	0.655099
C62	C	1.077593	0.236962	1.155099
C63	C	0.643337	-0.263037	0.655101
C64	C	1.143337	0.236963	1.155101
C65	C	0.643272	-0.343468	0.501312
C66	C	1.143272	0.156532	1.001312
C67	C	0.577530	-0.343472	0.501321
C68	C	1.077530	0.156528	1.001321
C69	C	0.544694	-0.303253	0.578213
C70	C	1.044694	0.196747	1.078213
C71	C	0.909620	-0.466817	0.578167
C72	C	1.409620	0.033183	1.078167
C73	C	0.909647	-0.536785	0.578183
C74	C	1.409647	-0.036785	1.078183
C75	C	0.950095	-1.036245	0.501665
C76	C	1.450095	-0.536245	1.001665
C77	C	0.950071	-0.970503	0.501636
C78	C	1.450071	-0.470503	1.001636
C79	C	0.909783	-0.937624	0.578308
C80	C	1.409783	-0.437624	1.078308
C81	C	0.869504	-0.970494	0.654993
C82	C	1.369504	-0.470494	1.154993
C83	C	0.869525	-1.036235	0.655011
C84	C	1.369525	-0.536235	1.155011
N85	N	0.904892	-0.834362	0.683329
N86	N	1.404892	-0.334362	1.183329
N87	N	0.904877	-0.771911	0.683308
N88	N	1.404877	-0.271911	1.183308
C89	C	0.909717	-0.739550	0.578258
C90	C	1.409717	-0.239550	1.078258
N91	N	0.914587	-0.771999	0.473226
N92	N	1.414587	-0.271999	0.973226
N93	N	0.914606	-0.834457	0.473248
N94	N	1.414606	-0.334457	0.973248
C95	C	0.909756	-0.866339	0.578297
C96	C	1.409756	-0.366339	1.078297
C97	C	0.949964	-0.635402	0.501542
C98	C	1.449964	-0.135402	1.001542
C99	C	0.949936	-0.569659	0.501511
C100	C	1.449936	-0.069659	1.001511
C101	C	0.869372	-0.569651	0.654879
C102	C	1.369372	-0.069651	1.154879
C103	C	0.869397	-0.635394	0.654898
C104	C	1.369397	-0.135394	1.154898
C105	C	0.909697	-0.668265	0.578231
C106	C	1.409697	-0.168265	1.078231
C107	C	1.073884	-0.303290	0.578259
C108	C	1.573884	0.196710	1.078259
C109	C	1.143852	-0.303300	0.578274
C110	C	1.643852	0.196700	1.078274
C111	C	0.909742	-0.303195	0.891267
C112	C	1.409742	0.196805	1.391267
C113	C	0.909763	-0.303166	1.024667
C114	C	1.409763	0.196834	1.524667
C115	C	0.909785	-0.139075	0.578308
C116	C	1.409785	0.360925	1.078308
C117	C	0.909824	-0.069107	0.578344
C118	C	1.409824	0.430893	1.078344
C119	C	0.909682	-0.303289	0.266400
C120	C	1.409682	0.196711	0.766400
C121	C	0.909784	-0.303142	0.133000
C122	C	1.409784	0.196858	0.633000
H123	H	0.269174	-0.376250	0.438764
H124	H	0.769174	0.123750	0.938764
H125	H	0.982777	-0.662168	0.439113
H126	H	1.482777	-0.162168	0.939113
H127	H	0.982727	-0.542902	0.439063
H128	H	1.482727	-0.042902	0.939063
O129	O	0.675365	-0.223937	0.729617
O130	O	1.175365	0.276063	1.229617
C131	C	0.713379	-0.183231	0.661413
C132	C	1.213379	0.316769	1.161413
H133	H	0.723198	-0.205384	0.570387
H134	H	1.223198	0.294616	1.070387
H135	H	0.759623	-0.174818	0.710321
H136	H	1.259623	0.325182	1.210321
H137	H	0.688056	-0.136576	0.648380
H138	H	1.188056	0.363424	1.148380
O139	O	0.830175	-0.537819	0.729395
O140	O	1.330175	-0.037819	1.229395
C141	C	0.794648	-0.580925	0.797108
C142	C	1.294648	-0.080925	1.297108
H143	H	0.792501	-0.627812	0.747960
H144	H	1.292501	-0.127812	1.247960
H145	H	0.745041	-0.561962	0.809810
H146	H	1.245041	-0.061962	1.309810
H147	H	0.817675	-0.587858	0.888305
H148	H	1.317675	-0.087858	1.388305
O149	O	0.830372	-0.667387	0.729459
O150	O	1.330372	-0.167387	1.229459
C151	C	0.866203	-0.705341	0.807071
C152	C	1.366203	-0.205341	1.307071
H153	H	0.913923	-0.715174	0.764829
H154	H	1.413923	-0.215174	1.264829
H155	H	0.840573	-0.751582	0.823127
H156	H	1.340573	-0.251582	1.323127
H157	H	0.873087	-0.679959	0.896016
H158	H	1.373087	-0.179959	1.396016
O159	O	0.675236	-0.382559	0.426781
O160	O	1.175236	0.117441	0.926781
C161	C	0.713255	-0.423262	0.494972
C162	C	1.213255	0.076738	0.994972
H163	H	0.723134	-0.401110	0.585998
H164	H	1.223134	0.098890	1.085998
H165	H	0.759469	-0.431668	0.446051
H166	H	1.259469	0.068332	0.946051
H167	H	0.687906	-0.469921	0.508007
H168	H	1.187906	0.030079	1.008007
O169	O	0.545621	-0.224065	0.729855
O170	O	1.045621	0.275935	1.229855
C171	C	0.507612	-0.259954	0.807269
C172	C	1.007612	0.240046	1.307269
H173	H	0.497740	-0.307635	0.764776
H174	H	0.997740	0.192365	1.264776
H175	H	0.461394	-0.234328	0.823444
H176	H	0.961394	0.265672	1.323444
H177	H	0.532966	-0.266920	0.896186
H178	H	1.032966	0.233080	1.396186
O179	O	0.545667	-0.382555	0.426519
O180	O	1.045667	0.117445	0.926519
C181	C	0.588749	-0.418055	0.358666
C182	C	1.088749	0.081945	0.858666
H183	H	0.635618	-0.392264	0.354592
H184	H	1.135618	0.107736	0.854592
H185	H	0.569728	-0.424717	0.264085
H186	H	1.069728	0.075283	0.764085
H187	H	0.595737	-0.465888	0.402452
H188	H	1.095737	0.034112	0.902452
O189	O	0.830461	-0.938530	0.729603
O190	O	1.330461	-0.438530	1.229603
C191	C	0.866266	-0.900433	0.807157
C192	C	1.366266	-0.400433	1.307157
H193	H	0.915848	-0.920209	0.814667
H194	H	1.415848	-0.420209	1.314667
H195	H	0.843472	-0.899662	0.899478
H196	H	1.343472	-0.399662	1.399478
H197	H	0.868433	-0.850624	0.770040
H198	H	1.368433	-0.350624	1.270040
O199	O	0.830341	-1.068189	0.729336
O200	O	1.330341	-0.568189	1.229336
C201	C	0.789728	-1.106292	0.660947
C202	C	1.289728	-0.606292	1.160947
H203	H	0.785858	-1.086526	0.566407
H204	H	1.285858	-0.586526	1.066407
H205	H	0.741272	-1.107057	0.704268
H206	H	1.241272	-0.607057	1.204268
H207	H	0.809213	-1.156102	0.656864
H208	H	1.309213	-0.656102	1.156864
H209	H	0.269283	-0.230323	0.717749
H210	H	0.769283	0.269677	1.217749
O211	O	0.144952	-0.223998	0.729960
O212	O	0.644952	0.276002	1.229960
C213	C	0.188091	-0.188487	0.797791
C214	C	0.688091	0.311513	1.297791
H215	H	0.234948	-0.214268	0.801850
H216	H	0.734948	0.285732	1.301850
H217	H	0.169125	-0.181826	0.892379
H218	H	0.669125	0.318174	1.392379
H219	H	0.195085	-0.140654	0.753998
H220	H	0.695085	0.359346	1.253998
H221	H	0.982908	-1.063005	0.439232
H222	H	1.482908	-0.563005	0.939232
H223	H	0.149903	-0.376271	0.438779
H224	H	0.649903	0.123729	0.938779
H225	H	0.982865	-0.943742	0.439192
H226	H	1.482865	-0.443742	0.939192
