data_functionalizedCrystal
_audit_creation_method	'MofGen! by Chris Wilmer'
_symmetry_space_group_name_H-M	'P1'
_symmetry_Int_Tables_number	1
_symmetry_cell_setting	triclinic
loop_
_symmetry_equiv_pos_as_xyz
  x,y,z
_cell_length_a	13.897449
_cell_length_b	13.032721
_cell_length_c	13.032268
_cell_angle_alpha	76.710373
_cell_angle_beta	97.163294
_cell_angle_gamma	82.794330
loop_
_atom_site_label
_atom_site_type_symbol
_atom_site_fract_x
_atom_site_fract_y
_atom_site_fract_z
Zn1	Zn	1.339434	0.499048	-0.654185
Zn2	Zn	1.672767	0.832382	-0.320852
Zn3	Zn	2.006101	1.165715	0.012481
Zn4	Zn	1.339329	0.654133	-0.499133
Zn5	Zn	1.672662	0.987466	-0.165800
Zn6	Zn	2.005995	1.320799	0.167534
Zn7	Zn	1.201593	0.476547	-0.476607
Zn8	Zn	1.534927	0.809880	-0.143273
Zn9	Zn	1.868260	1.143213	0.190060
Zn10	Zn	1.154642	0.676611	-0.676677
Zn11	Zn	1.487975	1.009944	-0.343344
Zn12	Zn	1.821309	1.343278	-0.010011
O13	O	1.258750	0.576585	-0.576651
O14	O	1.592083	0.909918	-0.243317
O15	O	1.925416	1.243251	0.090016
O16	O	1.474399	0.519630	-0.633632
O17	O	1.807732	0.852964	-0.300298
O18	O	2.141065	1.186297	0.033035
O19	O	1.340663	0.611751	-0.347525
O20	O	1.673996	0.945085	-0.014192
O21	O	2.007330	1.278418	0.319142
O22	O	1.239572	0.330901	-0.481323
O23	O	1.572905	0.664234	-0.147989
O24	O	1.906238	0.997567	0.185344
O25	O	1.474321	0.633570	-0.519716
O26	O	1.807655	0.966903	-0.186382
O27	O	2.140988	1.300237	0.146951
O28	O	1.340843	0.347432	-0.611789
O29	O	1.674176	0.680766	-0.278455
O30	O	2.007509	1.014099	0.054878
O31	O	1.239470	0.481279	-0.330975
O32	O	1.572803	0.814613	0.002359
O33	O	1.906136	1.147946	0.335692
O34	O	1.060386	0.503076	-0.503132
O35	O	1.393720	0.836409	-0.169799
O36	O	1.727053	1.169743	0.163535
O37	O	1.159550	0.671881	-0.822314
O38	O	1.492883	1.005215	-0.488981
O39	O	1.826217	1.338548	-0.155647
O40	O	1.025891	0.650062	-0.650123
O41	O	1.359225	0.983396	-0.316790
O42	O	1.692558	1.316729	0.016543
O43	O	1.295316	0.541427	-0.805789
O44	O	1.628649	0.874760	-0.472456
O45	O	1.961982	1.208093	-0.139122
O46	O	1.295136	0.805745	-0.541525
O47	O	1.628470	1.139079	-0.208192
O48	O	1.961803	1.472412	0.125141
O49	O	1.159448	0.822260	-0.671966
O50	O	1.492781	1.155594	-0.338633
O51	O	1.826114	1.488927	-0.005299
C52	C	1.222209	0.852544	-0.611654
C53	C	1.555542	1.185877	-0.278321
C54	C	1.888875	1.519211	0.055013
C55	C	1.206660	0.970605	-0.626664
C56	C	1.539993	1.303939	-0.293331
C57	C	1.873327	1.637272	0.040003
C58	C	1.008140	0.576567	-0.576625
C59	C	1.341474	0.909901	-0.243291
C60	C	1.674807	1.243234	0.090042
C61	C	0.900922	0.576589	-0.576642
C62	C	1.234255	0.909922	-0.243309
C63	C	1.567588	1.243256	0.090025
C64	C	1.222207	0.611671	-0.853665
C65	C	1.555541	0.945005	-0.520331
C66	C	1.888874	1.278338	-0.186998
C67	C	1.206635	0.626623	-0.971711
C68	C	1.539968	0.959957	-0.638378
C69	C	1.873302	1.293290	-0.305045
C70	C	0.704623	0.576596	-0.576670
C71	C	1.037956	0.909929	-0.243337
C72	C	1.371289	1.243263	0.089996
C73	C	0.813858	0.576588	-0.576651
C74	C	1.147192	0.909922	-0.243318
C75	C	1.480525	1.243255	0.090016
C76	C	1.510337	0.576603	-0.576677
C77	C	1.843671	0.909936	-0.243344
C78	C	2.177004	1.243270	0.089989
C79	C	1.617549	0.576611	-0.576689
C80	C	1.950882	0.909944	-0.243356
C81	C	2.284216	1.243277	0.089978
C82	C	1.295456	0.299551	-0.541534
C83	C	1.628789	0.632884	-0.208201
C84	C	1.962123	0.966217	0.125133
C85	C	1.311098	0.181495	-0.526569
C86	C	1.644432	0.514828	-0.193236
C87	C	1.977765	0.848162	0.140097
C88	C	1.266909	1.015041	-0.568865
C89	C	1.600243	1.348374	-0.235531
C90	C	1.933576	1.681708	0.097802
C91	C	1.250841	1.137063	-0.584377
C92	C	1.584174	1.470397	-0.251043
C93	C	1.917507	1.803730	0.082290
C94	C	1.266867	0.568743	-1.016164
C95	C	1.600200	0.902076	-0.682831
C96	C	1.933533	1.235410	-0.349497
C97	C	1.250774	0.584195	-1.138171
C98	C	1.584107	0.917528	-0.804838
C99	C	1.917440	1.250862	-0.471505
C100	C	1.295215	0.541558	-0.300705
C101	C	1.628549	0.874891	0.032629
C102	C	1.961882	1.208224	0.365962
C103	C	1.311014	0.526307	-0.182621
C104	C	1.644347	0.859640	0.150713
C105	C	1.977680	1.192973	0.484046
H106	H	1.330391	0.962750	-0.507900
H107	H	1.663725	1.296084	-0.174566
H108	H	1.997058	1.629417	0.158767
H109	H	1.330345	0.507746	-0.963896
H110	H	1.663678	0.841080	-0.630562
H111	H	1.997011	1.174413	-0.297229
F112	F	1.167868	1.205407	-0.664078
F113	F	1.501201	1.538740	-0.330745
F114	F	1.834535	1.872073	0.002588
F115	F	1.167789	0.663918	-1.206480
F116	F	1.501122	0.997252	-0.873147
F117	F	1.834456	1.330585	-0.539813
F118	F	1.394079	1.113155	-0.446877
F119	F	1.727413	1.446489	-0.113544
F120	F	2.060746	1.779822	0.219790
F121	F	1.123692	1.038952	-0.706361
F122	F	1.457025	1.372285	-0.373028
F123	F	1.790359	1.705619	-0.039695
H124	H	1.374495	0.465303	-1.130357
H125	H	1.707828	0.798637	-0.797023
H126	H	2.041161	1.131970	-0.463690
H127	H	1.143149	0.687609	-1.023978
H128	H	1.476482	1.020943	-0.690645
H129	H	1.809816	1.354276	-0.357312
