data_functionalizedCrystal
_audit_creation_method	'MofGen! by Chris Wilmer'
_symmetry_space_group_name_H-M	'P1'
_symmetry_Int_Tables_number	1
_symmetry_cell_setting	triclinic
loop_
_symmetry_equiv_pos_as_xyz
  x,y,z
_cell_length_a	14.908520
_cell_length_b	11.169417
_cell_length_c	11.169409
_cell_angle_alpha	90.020564
_cell_angle_beta	86.739567
_cell_angle_gamma	93.321403
loop_
_atom_site_label
_atom_site_type_symbol
_atom_site_fract_x
_atom_site_fract_y
_atom_site_fract_z
Zn1	Zn	-0.359063	1.807307	0.706060
Zn2	Zn	0.140937	2.307307	1.206060
Zn3	Zn	-0.509955	1.795569	0.516941
Zn4	Zn	-0.009955	2.295569	1.016941
Zn5	Zn	-0.359118	1.606586	0.505398
Zn6	Zn	0.140882	2.106586	1.005398
Zn7	Zn	-0.509882	1.594981	0.717580
Zn8	Zn	-0.009882	2.094981	1.217580
O9	O	-0.434504	1.701111	0.611495
O10	O	0.065496	2.201111	1.111495
O11	O	-0.379087	1.973699	0.680982
O12	O	0.120913	2.473699	1.180982
O13	O	-0.490000	1.770444	0.347464
O14	O	0.010000	2.270444	0.847464
O15	O	-0.232867	1.642982	0.522365
O16	O	0.267133	2.142982	1.022365
O17	O	-0.489947	1.965075	0.542037
O18	O	0.010053	2.465075	1.042037
O19	O	-0.232826	1.790451	0.669790
O20	O	0.267174	2.290451	1.169790
O21	O	-0.379180	1.631600	0.338984
O22	O	0.120820	2.131600	0.838984
O23	O	-0.379109	1.437098	0.533535
O24	O	0.120891	1.937098	1.033535
O25	O	-0.489822	1.623202	0.883997
O26	O	0.010178	2.123202	1.383997
O27	O	-0.489875	1.428571	0.689424
O28	O	0.010125	1.928571	1.189424
O29	O	-0.379016	1.779198	0.875534
O30	O	0.120984	2.279198	1.375534
O31	O	-0.636189	1.759191	0.553207
O32	O	-0.136189	2.259191	1.053207
O33	O	-0.636135	1.611820	0.700616
O34	O	-0.136135	2.111820	1.200616
C35	C	-0.434491	1.389287	0.611478
C36	C	0.065509	1.889287	1.111478
C37	C	-0.434507	1.255886	0.611501
C38	C	0.065493	1.755886	1.111501
C39	C	-0.668896	1.683005	0.629440
C40	C	-0.168896	2.183005	1.129440
C41	C	-0.769170	1.675369	0.637158
C42	C	-0.269170	2.175369	1.137158
C43	C	-0.957589	1.814635	0.498287
C44	C	-0.457589	2.314635	0.998287
C45	C	-1.051806	1.807464	0.505534
C46	C	-0.551806	2.307464	1.005534
C47	C	-1.051820	1.653864	0.658905
C48	C	-0.551820	2.153864	1.158905
C49	C	-0.957603	1.661034	0.651658
C50	C	-0.457603	2.161034	1.151658
C51	C	-0.910492	1.741422	0.571345
C52	C	-0.410492	2.241422	1.071345
C53	C	-0.816274	1.748585	0.564092
C54	C	-0.316274	2.248585	1.064092
C55	C	-0.816290	1.594991	0.717468
C56	C	-0.316290	2.094991	1.217468
C57	C	-0.910506	1.587821	0.724716
C58	C	-0.410506	2.087821	1.224716
C59	C	-0.199198	1.719320	0.593505
C60	C	0.300802	2.219320	1.093505
C61	C	-0.098924	1.727080	0.585839
C62	C	0.401076	2.227080	1.085839
C63	C	-0.434404	1.701215	0.924530
C64	C	0.065596	2.201215	1.424530
C65	C	-0.434362	1.701259	1.057926
C66	C	0.065638	2.201259	1.557926
C67	C	-0.434519	2.014152	0.611512
C68	C	0.065481	2.514152	1.111512
C69	C	-0.434525	2.147552	0.611519
C70	C	0.065475	2.647552	1.111519
C71	C	-0.434539	1.701082	0.299673
C72	C	0.065461	2.201082	0.799673
C73	C	-0.434327	1.701289	0.166257
C74	C	0.065673	2.201289	0.666257
H75	H	-0.777916	1.814037	0.498694
H76	H	-0.277916	2.314037	0.998694
H77	H	-0.919230	1.880081	0.432884
H78	H	-0.419230	2.380081	0.932884
Cl79	Cl	-1.111011	1.899511	0.413688
Cl80	Cl	-0.611011	2.399511	0.913688
H81	H	-0.777932	1.535372	0.776954
H82	H	-0.277932	2.035372	1.276954
Cl83	Cl	-1.111061	1.552830	0.759877
Cl84	Cl	-0.611061	2.052830	1.259877
Cl85	Cl	-0.969740	1.486772	0.825678
Cl86	Cl	-0.469740	1.986772	1.325678
