data_functionalizedCrystal
_audit_creation_method	'MofGen! by Chris Wilmer'
_symmetry_space_group_name_H-M	'P1'
_symmetry_Int_Tables_number	1
_symmetry_cell_setting	triclinic
loop_
_symmetry_equiv_pos_as_xyz
  x,y,z
_cell_length_a	42.784839
_cell_length_b	42.784841
_cell_length_c	42.795305
_cell_angle_alpha	90.002005
_cell_angle_beta	120.002520
_cell_angle_gamma	60.000137
loop_
_atom_site_label
_atom_site_type_symbol
_atom_site_fract_x
_atom_site_fract_y
_atom_site_fract_z
O1	O	-0.275695	-0.214412	-0.009298
O2	O	-0.211692	-0.168961	0.009250
O3	O	-0.275693	-0.168960	-0.054737
O4	O	-0.211693	-0.214413	0.054690
O5	O	-0.223709	-0.220945	-0.054737
O6	O	-0.159707	-0.220945	0.009251
O7	O	-0.223711	-0.266396	-0.009297
Cu8	Cu	-0.186962	-0.248417	-0.000023
Cu9	Cu	-0.248440	-0.186940	-0.000024
O10	O	-0.159709	-0.266397	0.054690
C11	C	-0.051020	-0.022779	0.028106
C12	C	-0.013141	-0.041761	0.028369
C13	C	-0.051018	-0.079379	0.028109
C14	C	-0.013139	-0.098275	0.028372
C15	C	0.005578	-0.079377	0.028105
C16	C	-0.069651	-0.041763	0.028372
C17	C	-0.152948	0.113708	0.017859
C18	C	-0.173786	0.152360	0.014962
C19	C	-0.155902	0.171750	0.013505
C20	C	-0.178499	0.213661	0.010357
C21	C	-0.117177	0.152485	0.014950
C22	C	-0.096338	0.113835	0.017852
C23	C	-0.114226	0.094446	0.019307
C24	C	0.131813	-0.113936	0.017855
C25	C	0.167567	-0.131751	0.014957
C26	C	0.185503	-0.169024	0.013503
C27	C	0.224264	-0.188341	0.010355
C28	C	0.167685	-0.188486	0.014951
C29	C	0.131938	-0.170675	0.017855
C30	C	0.114002	-0.133396	0.019305
C31	C	-0.152939	-0.113943	0.017873
C32	C	-0.173778	-0.131757	0.014973
C33	C	-0.155892	-0.169033	0.013520
C34	C	-0.178486	-0.188349	0.010375
C35	C	-0.117170	-0.188491	0.014963
C36	C	-0.096334	-0.170676	0.017861
C37	C	-0.114220	-0.133402	0.019319
C38	C	-0.091629	0.052537	0.022451
C39	C	-0.073617	0.019131	0.024958
C40	C	-0.073612	-0.098693	0.024965
C41	C	-0.091622	-0.114089	0.022461
C42	C	0.044339	-0.098690	0.024958
C43	C	0.075238	-0.114085	0.022450
C44	C	-0.440743	-0.022789	-0.361521
C45	C	-0.422025	-0.041771	-0.323915
C46	C	-0.384144	-0.079388	-0.361520
C47	C	-0.365512	-0.098284	-0.323914
C48	C	-0.384145	-0.079387	-0.304936
C49	C	-0.422024	-0.041772	-0.380413
C50	C	-0.566982	0.113697	-0.453179
C51	C	-0.602737	0.152349	-0.471115
C52	C	-0.620673	0.171739	-0.451781
C53	C	-0.659435	0.213649	-0.471224
C54	C	-0.602854	0.152474	-0.414510
C55	C	-0.567106	0.113824	-0.396579
C56	C	-0.549170	0.094435	-0.415915
C57	C	-0.339338	-0.113946	-0.168482
C58	C	-0.318627	-0.131760	-0.129840
C59	C	-0.279897	-0.169034	-0.110453
C60	C	-0.257434	-0.188350	-0.068553
C61	C	-0.261882	-0.188495	-0.129713
C62	C	-0.282597	-0.170684	-0.168356
C63	C	-0.321326	-0.133406	-0.187738
C64	C	-0.339333	-0.113951	-0.453174
C65	C	-0.318618	-0.131764	-0.471108
C66	C	-0.279888	-0.169039	-0.451772
C67	C	-0.257424	-0.188355	-0.471214
C68	C	-0.261874	-0.188498	-0.414503
C69	C	-0.282590	-0.170683	-0.396571
C70	C	-0.321322	-0.133409	-0.415912
C71	C	-0.510404	0.052526	-0.396467
C72	C	-0.479505	0.019120	-0.380966
C73	C	-0.361683	-0.098702	-0.380964
C74	C	-0.343780	-0.114097	-0.396463
C75	C	-0.361685	-0.098700	-0.263037
C76	C	-0.343783	-0.114094	-0.229639
C77	C	-0.440759	-0.356211	-0.028187
C78	C	-0.422041	-0.393827	-0.028452
C79	C	-0.384158	-0.356212	-0.028184
C80	C	-0.365526	-0.393828	-0.028449
C81	C	-0.384160	-0.412810	-0.028186
C82	C	-0.422039	-0.337315	-0.028449
C83	C	-0.567000	-0.264532	-0.017945
C84	C	-0.602756	-0.246591	-0.015049
C85	C	-0.620692	-0.265930	-0.013597
C86	C	-0.659455	-0.246482	-0.010451
C87	C	-0.602874	-0.303210	-0.015044
C88	C	-0.567125	-0.321146	-0.017944
C89	C	-0.549188	-0.301805	-0.019395
C90	C	-0.339356	-0.549295	-0.017947
C91	C	-0.318645	-0.587946	-0.015051
C92	C	-0.279915	-0.607338	-0.013594
C93	C	-0.257452	-0.649247	-0.010449
C94	C	-0.261899	-0.588073	-0.015038
C95	C	-0.282613	-0.549422	-0.017940
C96	C	-0.321343	-0.530035	-0.019392
C97	C	-0.339345	-0.264536	-0.017932
C98	C	-0.318628	-0.246599	-0.015029
C99	C	-0.279898	-0.265939	-0.013573
C100	C	-0.257433	-0.246493	-0.010423
C101	C	-0.261884	-0.303217	-0.015018
C102	C	-0.282601	-0.321153	-0.017920
C103	C	-0.321334	-0.301808	-0.019380
C104	C	-0.510422	-0.321257	-0.022536
C105	C	-0.479522	-0.336762	-0.025042
C106	C	-0.361696	-0.336764	-0.025035
C107	C	-0.343793	-0.321261	-0.022527
C108	C	-0.361701	-0.454719	-0.025041
C109	C	-0.343800	-0.488125	-0.022536
O110	O	0.327856	-0.266388	-0.009320
O111	O	0.236954	-0.220936	0.009226
O112	O	0.236949	-0.220938	-0.054760
O113	O	0.327861	-0.266386	0.054667
O114	O	0.236947	-0.168953	-0.054763
O115	O	0.236952	-0.168951	0.009223
O116	O	0.327854	-0.214403	-0.009323
Cu117	Cu	0.282403	-0.186930	-0.000050
Cu118	Cu	0.282405	-0.248408	-0.000046
O119	O	0.327859	-0.214401	0.054664
O120	O	-0.223728	0.336934	-0.009321
O121	O	-0.159726	0.227482	0.009224
O122	O	-0.223730	0.291479	-0.054762
O123	O	-0.159724	0.272937	0.054665
O124	O	-0.275712	0.291477	-0.054759
O125	O	-0.211707	0.227480	0.009228
O126	O	-0.275710	0.336932	-0.009318
Cu127	Cu	-0.248455	0.282206	-0.000045
Cu128	Cu	-0.186981	0.282208	-0.000049
O129	O	-0.211706	0.272935	0.054668
O130	O	-0.211682	-0.214424	-0.548724
O131	O	-0.275685	-0.168968	-0.503287
O132	O	-0.211682	-0.168970	-0.503282
O133	O	-0.275685	-0.214422	-0.548729
O134	O	-0.159699	-0.220953	-0.451309
O135	O	-0.223702	-0.220951	-0.451314
O136	O	-0.159699	-0.266407	-0.496751
Cu137	Cu	-0.186954	-0.248425	-0.469287
Cu138	Cu	-0.248430	-0.186950	-0.530751
O139	O	-0.223702	-0.266405	-0.496756
O140	O	-0.763029	0.336920	-0.496764
O141	O	-0.672124	0.227469	-0.451324
O142	O	-0.672122	0.291467	-0.451320
O143	O	-0.763031	0.272922	-0.496768
O144	O	-0.672123	0.291468	-0.503292
O145	O	-0.672125	0.227470	-0.503295
O146	O	-0.763030	0.336921	-0.548735
Cu147	Cu	-0.717577	0.282195	-0.530761
Cu148	Cu	-0.717577	0.282195	-0.469298
O149	O	-0.763032	0.272923	-0.548739
C150	C	0.005349	-0.412578	0.361473
C151	C	-0.013368	-0.393595	0.380366
C152	C	-0.051250	-0.355979	0.304889
C153	C	-0.069882	-0.337082	0.323868
C154	C	-0.051248	-0.355980	0.361475
C155	C	-0.013370	-0.393594	0.323867
C156	C	0.131588	-0.549064	0.396023
C157	C	0.167343	-0.587715	0.413833
C158	C	0.185279	-0.607105	0.451099
C159	C	0.224041	-0.649016	0.470408
C160	C	0.167460	-0.587841	0.470555
C161	C	0.131712	-0.549190	0.452747
C162	C	0.113776	-0.529802	0.415480
C163	C	-0.096054	-0.321421	0.453132
C164	C	-0.116765	-0.303607	0.471069
C165	C	-0.155495	-0.266334	0.451736
C166	C	-0.177958	-0.247018	0.471177
C167	C	-0.173510	-0.246873	0.414465
C168	C	-0.152795	-0.264683	0.396532
C169	C	-0.114066	-0.301962	0.415870
C170	C	-0.096061	-0.321414	0.168434
C171	C	-0.116777	-0.303601	0.129790
C172	C	-0.155507	-0.266326	0.110406
C173	C	-0.177971	-0.247010	0.068505
C174	C	-0.173520	-0.246867	0.129666
C175	C	-0.152805	-0.264683	0.168308
C176	C	-0.114072	-0.301956	0.187691
C177	C	0.075011	-0.487893	0.396172
C178	C	0.044112	-0.454487	0.380781
C179	C	-0.073711	-0.336664	0.262990
C180	C	-0.091614	-0.321269	0.229592
C181	C	-0.073708	-0.336667	0.380919
C182	C	-0.091610	-0.321273	0.396420
C183	C	-0.051052	-0.022788	-0.361549
C184	C	-0.069685	-0.041772	-0.380440
C185	C	0.005551	-0.079385	-0.304962
C186	C	-0.013169	-0.098283	-0.323940
C187	C	-0.051051	-0.079387	-0.361546
C188	C	-0.013170	-0.041770	-0.323942
C189	C	-0.095864	0.113699	-0.396107
C190	C	-0.116577	0.152350	-0.413918
C191	C	-0.155309	0.171739	-0.451184
C192	C	-0.177774	0.213649	-0.470496
C193	C	-0.173324	0.152472	-0.470639
C194	C	-0.152608	0.113822	-0.452829
C195	C	-0.113876	0.094436	-0.415561
C196	C	-0.152980	-0.113952	-0.453200
C197	C	-0.173818	-0.131768	-0.471134
C198	C	-0.155934	-0.169041	-0.451799
C199	C	-0.178527	-0.188359	-0.471239
C200	C	-0.117205	-0.188500	-0.414528
C201	C	-0.096364	-0.170688	-0.396597
C202	C	-0.114258	-0.133410	-0.415937
C203	C	0.131799	-0.113941	-0.168509
C204	C	0.167552	-0.131753	-0.129864
C205	C	0.185489	-0.169028	-0.110478
C206	C	0.224254	-0.188342	-0.068577
C207	C	0.167669	-0.188488	-0.129736
C208	C	0.131915	-0.170674	-0.168379
C209	C	0.113985	-0.133401	-0.187763
C210	C	-0.091417	0.052527	-0.396251
C211	C	-0.073514	0.019121	-0.380859
C212	C	0.044316	-0.098697	-0.263063
C213	C	0.075217	-0.114091	-0.229665
C214	C	-0.073647	-0.098702	-0.380989
C215	C	-0.091659	-0.114097	-0.396489
C216	C	0.615859	-0.356198	0.361450
C217	C	0.634493	-0.393814	0.380344
C218	C	0.559257	-0.356200	0.304866
C219	C	0.577977	-0.393815	0.323845
C220	C	0.615860	-0.412797	0.361452
C221	C	0.577977	-0.337302	0.323843
C222	C	0.660668	-0.264518	0.395999
C223	C	0.681380	-0.246577	0.413809
C224	C	0.720112	-0.265916	0.451075
C225	C	0.742576	-0.246468	0.470384
C226	C	0.738128	-0.303196	0.470532
C227	C	0.717412	-0.321132	0.452724
C228	C	0.678680	-0.301791	0.415456
C229	C	0.717791	-0.549282	0.453112
C230	C	0.738630	-0.587934	0.471048
C231	C	0.720747	-0.607325	0.451715
C232	C	0.743341	-0.649234	0.471157
C233	C	0.682019	-0.588061	0.414444
C234	C	0.661177	-0.549409	0.396511
C235	C	0.679070	-0.530023	0.415849
C236	C	0.433009	-0.264525	0.168410
C237	C	0.397255	-0.246587	0.129765
C238	C	0.379319	-0.265928	0.110381
C239	C	0.340554	-0.246481	0.068480
C240	C	0.397140	-0.303206	0.129642
C241	C	0.432894	-0.321142	0.168284
C242	C	0.450823	-0.301796	0.187667
C243	C	0.656223	-0.321244	0.396148
C244	C	0.638320	-0.336749	0.380758
C245	C	0.520492	-0.336752	0.262966
C246	C	0.489591	-0.321249	0.229568
C247	C	0.638457	-0.454706	0.380897
C248	C	0.656469	-0.488112	0.396398
C249	C	-0.440761	0.310307	-0.361535
C250	C	-0.422044	0.310569	-0.380429
C251	C	-0.384165	0.310317	-0.304954
C252	C	-0.365533	0.310579	-0.323933
C253	C	-0.384165	0.310309	-0.361539
C254	C	-0.422043	0.310578	-0.323930
C255	C	-0.566995	0.300052	-0.396079
C256	C	-0.602748	0.297151	-0.413886
C257	C	-0.620683	0.295691	-0.451151
C258	C	-0.659443	0.292538	-0.470459
C259	C	-0.602864	0.297135	-0.470608
C260	C	-0.567118	0.300040	-0.452803
C261	C	-0.549183	0.301499	-0.415536
C262	C	-0.339358	0.300049	-0.453196
C263	C	-0.318647	0.297149	-0.471133
C264	C	-0.279919	0.295697	-0.451801
C265	C	-0.257456	0.292548	-0.471243
C266	C	-0.261905	0.297149	-0.414532
C267	C	-0.282620	0.300055	-0.396598
C268	C	-0.321348	0.301503	-0.415935
C269	C	-0.339357	0.300090	-0.168501
C270	C	-0.318642	0.297194	-0.129857
C271	C	-0.279914	0.295744	-0.110475
C272	C	-0.257451	0.292602	-0.068575
C273	C	-0.261900	0.297186	-0.129735
C274	C	-0.282615	0.300080	-0.168377
C275	C	-0.321347	0.301536	-0.187758
C276	C	-0.510420	0.304646	-0.396230
C277	C	-0.479522	0.307157	-0.380841
C278	C	-0.361705	0.307177	-0.263056
C279	C	-0.343803	0.304675	-0.229658
C280	C	-0.361706	0.307159	-0.380984
C281	C	-0.343804	0.304650	-0.396485
O282	O	-0.275512	0.336921	-0.548522
O283	O	-0.211502	0.227468	-0.503082
O284	O	-0.275498	0.291463	-0.503074
O285	O	-0.211516	0.272927	-0.548530
O286	O	-0.223509	0.291464	-0.451104
O287	O	-0.159514	0.227469	-0.451113
O288	O	-0.223523	0.336923	-0.496552
Cu289	Cu	-0.186771	0.282196	-0.469087
Cu290	Cu	-0.248254	0.282195	-0.530547
O291	O	-0.159527	0.272928	-0.496560
C292	C	-0.051026	0.254106	0.361445
C293	C	-0.013148	0.253845	0.380336
C294	C	-0.051026	0.254098	0.304861
C295	C	-0.013148	0.253837	0.323837
C296	C	0.005570	0.254108	0.361442
C297	C	-0.069658	0.253835	0.323840
C298	C	-0.152947	0.264354	0.396003
C299	C	-0.173784	0.267253	0.413814
C300	C	-0.155899	0.268714	0.451079
C301	C	-0.178494	0.271864	0.470390
C302	C	-0.117174	0.267272	0.470533
C303	C	-0.096338	0.264368	0.452723
C304	C	-0.114226	0.262909	0.415457
C305	C	0.131803	0.264372	0.453089
C306	C	0.167556	0.267273	0.471022
C307	C	0.185490	0.268727	0.451687
C308	C	0.224250	0.271878	0.471125
C309	C	0.167671	0.267275	0.414417
C310	C	0.131925	0.264368	0.396487
C311	C	0.113991	0.262919	0.415827
C312	C	-0.152949	0.264322	0.168411
C313	C	-0.173790	0.267219	0.129768
C314	C	-0.155905	0.268671	0.110381
C315	C	-0.178501	0.271813	0.068481
C316	C	-0.117184	0.267230	0.129639
C317	C	-0.096347	0.264336	0.168280
C318	C	-0.114231	0.262879	0.187665
C319	C	-0.091631	0.259763	0.396147
C320	C	-0.073621	0.257254	0.380755
C321	C	-0.073622	0.257238	0.262962
C322	C	-0.091633	0.259740	0.229565
C323	C	0.044330	0.257259	0.380883
C324	C	0.075228	0.259769	0.396381
H325	H	-0.064808	0.098152	0.019030
H326	H	-0.335051	0.311004	-0.308696
O327	O	-0.265184	0.301541	-0.360426
C328	C	-0.296279	0.336106	-0.360453
H329	H	-0.320678	0.358211	-0.390370
H330	H	-0.314893	0.330872	-0.351727
C331	C	-0.242174	0.323923	-0.295115
C332	C	-0.272139	0.351074	-0.331858
H333	H	-0.227284	0.333155	-0.277475
H334	H	-0.221224	0.300635	-0.295095
H335	H	-0.257690	0.319563	-0.287848
H336	H	-0.256622	0.355429	-0.339127
H337	H	-0.293085	0.374362	-0.331878
O338	O	-0.377015	0.301516	-0.471961
C339	C	-0.411498	0.336087	-0.475377
H340	H	-0.396903	0.347483	-0.452148
H341	H	-0.432081	0.357998	-0.504718
C342	C	-0.459004	0.314859	-0.499384
C343	C	-0.441078	0.328855	-0.470851
H344	H	-0.477252	0.310399	-0.496594
H345	H	-0.435773	0.291569	-0.497084
H346	H	-0.476153	0.333121	-0.523832
H347	H	-0.423925	0.310591	-0.446404
H348	H	-0.464307	0.352142	-0.473147
H349	H	0.182070	-0.115902	0.013777
H350	H	-0.167515	0.263137	0.184192
H351	H	-0.333310	0.296018	-0.114177
O352	O	-0.170396	0.262987	0.359786
C353	C	-0.213506	0.296581	0.334795
H354	H	-0.227523	0.309655	0.351760
H355	H	-0.212425	0.317978	0.320236
C356	C	-0.225908	0.270653	0.283412
C357	C	-0.243125	0.286709	0.304248
H358	H	-0.244178	0.264564	0.264568
H359	H	-0.196863	0.248020	0.300248
H360	H	-0.225007	0.288486	0.271283
H361	H	-0.244020	0.268874	0.316380
H362	H	-0.272170	0.309338	0.287413
H363	H	0.182278	-0.218841	-0.113950
O364	O	0.114576	0.262937	0.360294
C365	C	0.079170	0.260074	0.348612
H366	H	0.083077	0.247654	0.374906
H367	H	0.046632	0.289715	0.330987
C368	C	0.074369	0.248939	0.291848
C369	C	0.079170	0.233681	0.324142
H370	H	0.074367	0.232660	0.276752
H371	H	0.098222	0.250869	0.299717
H372	H	0.047254	0.273639	0.277165
H373	H	0.106287	0.208984	0.338827
H374	H	0.055322	0.231746	0.316275
H375	H	-0.230365	-0.603862	-0.013855
H376	H	0.117205	0.263192	0.468839
H377	H	-0.267944	0.301252	-0.184056
O378	O	0.114413	-0.077759	-0.187371
C379	C	0.117893	-0.077841	-0.218444
H380	H	0.145598	-0.107754	-0.212851
H381	H	0.085347	-0.069230	-0.245744
C382	C	0.094205	-0.012416	-0.229930
C383	C	0.128235	-0.049155	-0.223060
H384	H	0.100583	0.005280	-0.232780
H385	H	0.091858	-0.012360	-0.208997
H386	H	0.067087	-0.005246	-0.252680
H387	H	0.155351	-0.056327	-0.200308
H388	H	0.130586	-0.049212	-0.243990
O389	O	-0.211361	0.171071	0.013621
C390	C	-0.204314	0.184724	0.044817
H391	H	-0.167435	0.167023	0.068671
H392	H	-0.217205	0.216003	0.035182
C393	C	-0.274316	0.203035	0.030384
C394	C	-0.229021	0.181293	0.059685
H395	H	-0.289558	0.200921	0.039555
H396	H	-0.279065	0.193839	0.009366
H397	H	-0.285053	0.229100	0.022358
H398	H	-0.218285	0.155229	0.067707
H399	H	-0.224271	0.190485	0.080704
H400	H	-0.102617	0.168275	0.013766
H401	H	0.002526	-0.129182	0.028798
O402	O	0.114109	-0.530222	0.359805
C403	C	0.069244	-0.516554	0.335713
H404	H	0.063144	-0.534331	0.348708
H405	H	0.047637	-0.485313	0.332582
C406	C	0.065155	-0.497979	0.280110
C407	C	0.057664	-0.519815	0.296070
H408	H	0.058011	-0.499989	0.255656
H409	H	0.095381	-0.507186	0.296341
H410	H	0.047149	-0.471946	0.277504
H411	H	0.075674	-0.545848	0.298680
H412	H	0.027441	-0.510613	0.279838
O413	O	-0.376990	0.301521	-0.187388
C414	C	-0.391405	0.304377	-0.225622
H415	H	-0.377459	0.316794	-0.234032
H416	H	-0.379356	0.274734	-0.228518
C417	C	-0.459396	0.315517	-0.241782
C418	C	-0.442270	0.330770	-0.252113
H419	H	-0.490771	0.331796	-0.258123
H420	H	-0.449684	0.313591	-0.216023
H421	H	-0.449351	0.290815	-0.244196
H422	H	-0.452311	0.355470	-0.249694
H423	H	-0.451985	0.332701	-0.277872
O424	O	0.735118	-0.530396	0.471837
C425	C	0.708417	-0.492149	0.448021
H426	H	0.688850	-0.490110	0.416831
H427	H	0.684576	-0.473107	0.455466
C428	C	0.761916	-0.481350	0.492389
C429	C	0.737888	-0.478846	0.454080
H430	H	0.780095	-0.473143	0.496128
H431	H	0.779905	-0.507117	0.508435
H432	H	0.742045	-0.465482	0.498588
H433	H	0.757759	-0.494718	0.447883
H434	H	0.719903	-0.453081	0.438033
O435	O	-0.099882	0.268695	0.110756
C436	C	-0.131038	0.303261	0.079691
H437	H	-0.165669	0.314654	0.071050
H438	H	-0.123608	0.325177	0.088450
C439	C	-0.085792	0.282030	0.056211
C440	C	-0.128327	0.296022	0.045596
H441	H	-0.084119	0.277565	0.035179
H442	H	-0.064801	0.258742	0.077140
H443	H	-0.079606	0.300296	0.063510
H444	H	-0.134511	0.277754	0.038301
H445	H	-0.149320	0.319306	0.024664
O446	O	0.664582	-0.606860	0.395675
C447	C	0.621469	-0.588735	0.386156
H448	H	0.617767	-0.571981	0.406233
H449	H	0.596424	-0.568311	0.355367
C450	C	0.617753	-0.639735	0.365574
C451	C	0.613208	-0.619161	0.390234
H452	H	0.612656	-0.658503	0.368087
H453	H	0.646798	-0.651946	0.371985
H454	H	0.596882	-0.622711	0.339918
H455	H	0.634083	-0.636184	0.415889
H456	H	0.584166	-0.606954	0.383827
H457	H	0.117209	-0.533507	0.468592
H458	H	-0.205313	0.268429	0.397972
O459	O	0.775706	-0.321970	0.506755
C460	C	0.767111	-0.331495	0.531742
H461	H	0.730278	-0.311415	0.518700
H462	H	0.777481	-0.362291	0.536357
C463	C	0.838707	-0.352087	0.586437
C464	C	0.793469	-0.327422	0.570420
H465	H	0.854967	-0.349577	0.610296
H466	H	0.844499	-0.345672	0.569603
H467	H	0.847343	-0.377748	0.590279
H468	H	0.784833	-0.301762	0.566574
H469	H	0.787677	-0.333834	0.587255
O470	O	0.734844	-0.357335	0.471573
C471	C	0.708262	-0.369024	0.447858
H472	H	0.673445	-0.342727	0.425473
H473	H	0.722994	-0.386649	0.432951
C474	C	0.749122	-0.425806	0.499824
C475	C	0.706358	-0.393508	0.472332
H476	H	0.747949	-0.440910	0.514921
H477	H	0.767032	-0.417932	0.515801
H478	H	0.761394	-0.440489	0.487397
H479	H	0.694090	-0.378824	0.484760
H480	H	0.688446	-0.401380	0.456358
H481	H	0.770163	-0.603616	0.501393
O482	O	-0.336070	-0.606712	-0.013592
C483	C	-0.304987	-0.637771	0.020970
H484	H	-0.270317	-0.646521	0.032369
H485	H	-0.312404	-0.628944	0.042875
C486	C	-0.350434	-0.661057	-0.000265
C487	C	-0.307850	-0.671806	0.013734
H488	H	-0.352201	-0.682051	-0.004727
H489	H	-0.371376	-0.640131	-0.023549
H490	H	-0.356610	-0.653701	0.017991
H491	H	-0.301678	-0.679157	-0.004524
H492	H	-0.286908	-0.692734	0.037015
H493	H	-0.167550	-0.083601	-0.468950
H494	H	-0.267928	-0.186532	-0.184035
H495	H	-0.064831	-0.186535	-0.366252
O496	O	-0.170096	0.095081	-0.471667
C497	C	-0.180618	0.081450	-0.450978
H498	H	-0.159815	0.078514	-0.419659
H499	H	-0.217168	0.102477	-0.463375
C500	C	-0.196393	0.045729	-0.492406
C501	C	-0.170839	0.042120	-0.453939
H502	H	-0.190362	0.021469	-0.494234
H503	H	-0.189305	0.054913	-0.506346
H504	H	-0.226848	0.063253	-0.502732
H505	H	-0.140384	0.024600	-0.443615
H506	H	-0.177921	0.032931	-0.439998
H507	H	0.117409	-0.186522	-0.184057
H508	H	-0.205307	-0.115911	0.013798
O509	O	-0.265048	-0.189647	-0.360376
C510	C	-0.226419	-0.226364	-0.347152
H511	H	-0.227571	-0.235163	-0.372650
H512	H	-0.196222	-0.225787	-0.329156
C513	C	-0.222042	-0.244555	-0.291257
C514	C	-0.223459	-0.255364	-0.322574
H515	H	-0.220214	-0.262444	-0.276094
H516	H	-0.248066	-0.219818	-0.300165
H517	H	-0.196877	-0.244075	-0.276265
H518	H	-0.248626	-0.255839	-0.337568
H519	H	-0.197439	-0.280101	-0.313667
O520	O	0.623516	-0.530663	0.360335
C521	C	0.588973	-0.499591	0.360352
H522	H	0.596778	-0.505113	0.390264
H523	H	0.585488	-0.472251	0.351632
C524	C	0.535818	-0.488338	0.295006
C525	C	0.545403	-0.495122	0.331743
H526	H	0.508941	-0.485580	0.277358
H527	H	0.559090	-0.509272	0.294993
H528	H	0.532917	-0.465556	0.287745
H529	H	0.548309	-0.517906	0.339006
H530	H	0.522130	-0.474193	0.331756
H531	H	-0.102615	0.268458	0.500874
O532	O	-0.170395	0.094929	0.019223
C533	C	-0.213504	0.113041	-0.014364
H534	H	-0.227523	0.144026	-0.027435
H535	H	-0.212422	0.097396	-0.035756
C536	C	-0.225903	0.074045	0.011556
C537	C	-0.243122	0.112103	-0.004497
H538	H	-0.244173	0.073465	0.017641
H539	H	-0.196859	0.061841	0.034183
H540	H	-0.225002	0.061011	-0.006274
H541	H	-0.244018	0.125134	0.013335
H542	H	-0.272167	0.124308	-0.027121
H543	H	-0.552397	0.301241	-0.365736
H544	H	-0.205351	-0.115920	-0.501478
H545	H	0.182057	-0.115905	-0.114186
H546	H	-0.437714	0.310994	-0.411328
H547	H	-0.064818	0.263161	0.183958
H548	H	0.117214	-0.083585	0.019038
H549	H	-0.437709	0.311003	-0.308693
O550	O	0.450140	-0.357348	0.186940
C551	C	0.426652	-0.370577	0.161543
H552	H	0.392344	-0.345075	0.137202
H553	H	0.445223	-0.388567	0.149342
C554	C	0.464392	-0.426498	0.213060
C555	C	0.422253	-0.395176	0.183166
H556	H	0.461680	-0.441673	0.226398
H557	H	0.480218	-0.417586	0.230170
H558	H	0.479864	-0.441485	0.202888
H559	H	0.406785	-0.380187	0.193338
H560	H	0.406425	-0.404086	0.166058
O561	O	0.379909	-0.210351	0.111091
C562	C	0.364515	-0.185428	0.129289
H563	H	0.357417	-0.198477	0.145965
H564	H	0.390767	-0.180918	0.149788
C565	C	0.330544	-0.130642	0.078468
C566	C	0.321822	-0.146668	0.098947
H567	H	0.304210	-0.106732	0.059753
H568	H	0.340916	-0.147433	0.066209
H569	H	0.352421	-0.126887	0.095554
H570	H	0.299949	-0.150427	0.081862
H571	H	0.311445	-0.129877	0.111203
O572	O	0.184861	0.268744	0.507200
C573	C	0.181344	0.303317	0.507166
H574	H	0.178689	0.314711	0.481246
H575	H	0.150607	0.325228	0.505754
C576	C	0.225873	0.282098	0.575881
C577	C	0.222615	0.296091	0.544048
H578	H	0.251330	0.277641	0.598632
H579	H	0.228241	0.258805	0.575905
H580	H	0.200256	0.300359	0.574700
H581	H	0.248229	0.277828	0.545227
H582	H	0.220252	0.319380	0.544025
H583	H	0.117435	-0.186523	0.019036
O584	O	-0.058760	-0.189538	0.019199
C585	C	-0.065811	-0.168840	-0.011999
H586	H	-0.102691	-0.149665	-0.035852
H587	H	-0.052922	-0.150450	-0.002369
C588	C	0.004190	-0.220529	0.002430
C589	C	-0.041106	-0.196980	-0.026868
H590	H	0.019431	-0.237886	-0.006741
H591	H	0.008942	-0.234472	0.023450
H592	H	0.014925	-0.205199	0.010453
H593	H	-0.051841	-0.212309	-0.034887
H594	H	-0.045859	-0.183039	-0.047890
H595	H	0.382534	-0.318954	0.113857
O596	O	-0.170275	-0.245738	0.187017
C597	C	-0.171803	-0.212038	0.186239
H598	H	-0.146357	-0.215293	0.181742
H599	H	-0.206219	-0.186742	0.161800
C600	C	-0.192604	-0.201000	0.230002
C601	C	-0.161349	-0.205000	0.224481
H602	H	-0.186159	-0.196657	0.253590
H603	H	-0.191577	-0.223703	0.230525
H604	H	-0.221282	-0.179921	0.209633
H605	H	-0.132673	-0.226081	0.244846
H606	H	-0.162372	-0.182299	0.223962
H607	H	-0.617461	0.168263	-0.398771
O608	O	0.185066	-0.224702	0.013561
C609	C	0.161668	-0.238054	0.015452
H610	H	0.145006	-0.221459	0.029541
H611	H	0.135488	-0.233686	-0.014698
C612	C	0.214448	-0.301342	0.021908
C613	C	0.193987	-0.280961	0.039216
H614	H	0.234383	-0.327809	0.036565
H615	H	0.230211	-0.292346	0.020633
H616	H	0.192627	-0.297697	-0.003216
H617	H	0.215807	-0.284602	0.064338
H618	H	0.178229	-0.289959	0.040496
H619	H	-0.102606	-0.218844	0.013780
O620	O	0.005449	-0.135146	-0.305811
C621	C	-0.019207	-0.147828	-0.330645
H622	H	-0.054299	-0.122086	-0.353386
H623	H	-0.002985	-0.164375	-0.345053
C624	C	0.022451	-0.205721	-0.279660
C625	C	-0.020651	-0.174104	-0.307589
H626	H	0.021562	-0.221930	-0.265438
H627	H	0.039064	-0.197178	-0.262929
H628	H	0.035964	-0.219506	-0.291671
H629	H	-0.034161	-0.160317	-0.295577
H630	H	-0.037266	-0.182645	-0.324317
O631	O	0.184646	-0.606478	0.394950
C632	C	0.181135	-0.637537	0.391458
H633	H	0.178487	-0.646291	0.414721
H634	H	0.150396	-0.628708	0.362137
C635	C	0.225654	-0.660815	0.367252
C636	C	0.222405	-0.671569	0.395827
H637	H	0.251110	-0.681807	0.369945
H638	H	0.228018	-0.639889	0.369603
H639	H	0.200036	-0.653457	0.342821
H640	H	0.248021	-0.678922	0.420257
H641	H	0.220047	-0.692497	0.393480
O642	O	-0.440682	-0.023557	-0.305727
C643	C	-0.440883	0.009437	-0.303823
H644	H	-0.414077	0.005979	-0.306285
H645	H	-0.474505	0.035513	-0.328306
C646	C	-0.464821	0.019169	-0.262322
C647	C	-0.431894	0.014921	-0.265342
H648	H	-0.459277	0.022553	-0.238587
H649	H	-0.464687	-0.003059	-0.263606
H650	H	-0.492836	0.040899	-0.282727
H651	H	-0.403880	-0.006812	-0.244941
H652	H	-0.432022	0.037145	-0.264054
O653	O	0.005262	-0.411762	0.417214
C654	C	-0.025613	-0.413681	0.419326
H655	H	-0.060515	-0.390079	0.393941
H656	H	-0.019538	-0.442752	0.418645
C657	C	0.022465	-0.437381	0.488024
C658	C	-0.020402	-0.408389	0.456847
H659	H	0.025681	-0.434118	0.511169
H660	H	0.043268	-0.436089	0.486601
H661	H	0.027523	-0.461604	0.487451
H662	H	-0.025457	-0.384168	0.457418
H663	H	-0.041205	-0.409677	0.458271
O664	O	-0.211101	-0.210633	0.110841
C665	C	-0.203986	-0.186544	0.097189
H666	H	-0.167104	-0.199561	0.114957
H667	H	-0.216770	-0.183392	0.065949
C668	C	-0.274063	-0.130914	0.078655
C669	C	-0.228765	-0.146901	0.100479
H670	H	-0.289349	-0.106459	0.080682
H671	H	-0.278857	-0.147143	0.087850
H672	H	-0.284710	-0.128291	0.052623
H673	H	-0.218117	-0.149528	0.126510
H674	H	-0.223969	-0.130671	0.091288
H675	H	0.002298	-0.408835	0.308631
H676	H	0.002524	-0.026520	0.028795
H677	H	-0.100172	-0.026529	-0.411338
H678	H	-0.617248	0.295969	-0.398040
O679	O	-0.224323	0.295845	-0.110912
C680	C	-0.231445	0.327054	-0.097265
H681	H	-0.268327	0.350913	-0.115035
H682	H	-0.218662	0.317427	-0.066025
C683	C	-0.161370	0.312616	-0.078730
C684	C	-0.206670	0.341922	-0.100557
H685	H	-0.146087	0.321786	-0.080759
H686	H	-0.156571	0.291589	-0.087923
H687	H	-0.150724	0.304596	-0.052698
H688	H	-0.217316	0.349938	-0.126589
H689	H	-0.211470	0.362951	-0.091369
O690	O	-0.224230	-0.224684	-0.110909
C691	C	-0.191230	-0.225496	-0.111593
H692	H	-0.207404	-0.200468	-0.136766
H693	H	-0.168943	-0.223120	-0.083755
C694	C	-0.143573	-0.294140	-0.085023
C695	C	-0.163438	-0.263402	-0.115943
H696	H	-0.126428	-0.317523	-0.087704
H697	H	-0.165805	-0.293593	-0.084560
H698	H	-0.125004	-0.292154	-0.061828
H699	H	-0.182011	-0.265385	-0.139137
H700	H	-0.141208	-0.263950	-0.116409
O701	O	-0.105965	-0.023593	0.028952
C702	C	-0.096086	-0.012977	0.062084
H703	H	-0.058866	-0.032080	0.084819
H704	H	-0.107798	0.018160	0.054719
C705	C	-0.165465	0.005823	0.049588
C706	C	-0.119752	-0.017641	0.077513
H707	H	-0.180065	0.002948	0.059106
H708	H	-0.172122	-0.001328	0.027266
H709	H	-0.175220	0.031768	0.043454
H710	H	-0.109997	-0.043586	0.083644
H711	H	-0.113094	-0.010495	0.099837
O712	O	-0.170383	-0.077728	0.019266
C713	C	-0.209022	-0.064376	0.017378
H714	H	-0.223184	-0.080970	0.003289
H715	H	-0.200672	-0.068746	0.047529
C716	C	-0.225986	-0.001089	0.010924
C717	C	-0.243382	-0.021468	-0.006383
H718	H	-0.247180	0.025379	-0.003732
H719	H	-0.199953	-0.010084	0.012197
H720	H	-0.219028	-0.004735	0.036049
H721	H	-0.250334	-0.017826	-0.031506
H722	H	-0.269417	-0.012471	-0.007661
H723	H	-0.617471	0.295948	-0.500950
O724	O	0.005449	-0.023533	-0.305785
C725	C	-0.025438	0.009448	-0.303868
H726	H	-0.060335	0.018943	-0.327462
H727	H	-0.019356	0.002688	-0.274801
C728	C	0.022607	0.030119	-0.280186
C729	C	-0.020254	0.041783	-0.309167
H730	H	0.025805	0.050064	-0.283453
H731	H	0.043417	0.007898	-0.281476
H732	H	0.027670	0.024485	-0.255967
H733	H	-0.025315	0.047412	-0.333385
H734	H	-0.041065	0.064005	-0.307881
O735	O	-0.440790	-0.300441	-0.028968
C736	C	-0.478295	-0.287762	-0.029126
H737	H	-0.491223	-0.305760	-0.040878
H738	H	-0.468897	-0.290839	0.001318
C739	C	-0.498617	-0.223339	-0.040117
C740	C	-0.514498	-0.245443	-0.054554
H741	H	-0.520949	-0.197234	-0.055800
H742	H	-0.473348	-0.231881	-0.040008
H743	H	-0.490786	-0.225907	-0.014746
H744	H	-0.522324	-0.242878	-0.079922
H745	H	-0.539769	-0.236899	-0.054667
O746	O	-0.329098	-0.135131	-0.305683
C747	C	-0.294227	-0.137209	-0.272693
H748	H	-0.300160	-0.107935	-0.276167
H749	H	-0.292664	-0.146321	-0.246632
C750	C	-0.242943	-0.202668	-0.262902
C751	C	-0.250229	-0.166714	-0.267170
H752	H	-0.215803	-0.220870	-0.259493
H753	H	-0.266437	-0.201269	-0.285127
H754	H	-0.241643	-0.210257	-0.241185
H755	H	-0.251534	-0.159124	-0.288889
H756	H	-0.226735	-0.168113	-0.244948
O757	O	0.559240	-0.300438	0.305602
C758	C	0.521713	-0.287756	0.268275
H759	H	0.524713	-0.313499	0.258927
H760	H	0.490759	-0.271216	0.267957
C761	C	0.514801	-0.229854	0.252041
C762	C	0.518486	-0.261472	0.240558
H763	H	0.512808	-0.213640	0.234944
H764	H	0.540082	-0.238397	0.277189
H765	H	0.489006	-0.216076	0.251776
H766	H	0.544284	-0.275253	0.240829
H767	H	0.493209	-0.252931	0.215410
O768	O	-0.549851	0.301422	-0.471749
C769	C	-0.573352	0.299520	-0.508461
H770	H	-0.589981	0.285432	-0.508424
H771	H	-0.599566	0.329673	-0.530273
C772	C	-0.520721	0.293046	-0.519196
C773	C	-0.541143	0.275739	-0.519150
H774	H	-0.500854	0.278378	-0.525791
H775	H	-0.504889	0.294328	-0.494463
H776	H	-0.542571	0.318172	-0.537372
H777	H	-0.519294	0.250615	-0.500971
H778	H	-0.556970	0.274452	-0.543880
O779	O	-0.265058	-0.357357	-0.019341
C780	C	-0.226427	-0.370585	-0.017426
H781	H	-0.227580	-0.345082	-0.027377
H782	H	-0.196232	-0.388581	0.013340
C783	C	-0.222047	-0.426497	-0.031234
C784	C	-0.223464	-0.395174	-0.043458
H785	H	-0.220217	-0.441666	-0.047289
H786	H	-0.248072	-0.417586	-0.032522
H787	H	-0.196884	-0.441489	-0.005595
H788	H	-0.248630	-0.380179	-0.069094
H789	H	-0.197443	-0.404083	-0.042174
O790	O	0.005495	0.253313	0.305609
C791	C	-0.019172	0.253149	0.268272
H792	H	-0.038344	0.241396	0.267102
H793	H	-0.043304	0.283598	0.247219
C794	C	0.035925	0.242147	0.258947
C795	C	0.012381	0.227710	0.257510
H796	H	0.055388	0.226457	0.252307
H797	H	0.052544	0.242260	0.284101
H798	H	0.015811	0.267522	0.241402
H799	H	0.032494	0.202338	0.275058
H800	H	-0.004234	0.227593	0.232359
H801	H	-0.333316	0.295967	-0.501477
O802	O	-0.265045	-0.530771	-0.019321
C803	C	-0.226426	-0.556169	-0.017425
H804	H	-0.212374	-0.586887	-0.003343
H805	H	-0.234768	-0.552226	-0.047572
C806	C	-0.209214	-0.510012	-0.010949
C807	C	-0.191953	-0.547741	0.006351
H808	H	-0.187950	-0.504812	0.003716
H809	H	-0.235233	-0.492900	-0.012227
H810	H	-0.216165	-0.506731	-0.036071
H811	H	-0.185008	-0.551020	0.031471
H812	H	-0.165932	-0.564853	0.007635
O813	O	-0.224318	0.295790	-0.395809
C814	C	-0.231446	0.327003	-0.416574
H815	H	-0.259910	0.337531	-0.447862
H816	H	-0.239996	0.351151	-0.404163
C817	C	-0.154270	0.301325	-0.375329
C818	C	-0.189229	0.314254	-0.413758
H819	H	-0.128229	0.293461	-0.373591
H820	H	-0.149469	0.280296	-0.361339
H821	H	-0.161402	0.321450	-0.364991
H822	H	-0.182099	0.294127	-0.424094
H823	H	-0.194028	0.335278	-0.427751
O824	O	0.005465	0.253376	0.417186
C825	C	-0.019193	0.253205	0.429867
H826	H	-0.054283	0.265541	0.404130
H827	H	-0.002969	0.222576	0.446425
C828	C	0.022452	0.262575	0.487730
C829	C	-0.020646	0.277731	0.456119
H830	H	0.021557	0.277702	0.503925
H831	H	0.039066	0.262689	0.479187
H832	H	0.035968	0.237052	0.501524
H833	H	-0.034159	0.303252	0.442324
H834	H	-0.037263	0.277622	0.464660
O835	O	-0.106030	0.253339	0.305603
C836	C	-0.118522	0.253143	0.268277
H837	H	-0.105134	0.265495	0.258925
H838	H	-0.104420	0.222506	0.267964
C839	C	-0.185744	0.262459	0.252049
C840	C	-0.169304	0.277633	0.240561
H841	H	-0.217069	0.277564	0.234952
H842	H	-0.177327	0.262590	0.277196
H843	H	-0.173989	0.236928	0.251788
H844	H	-0.181056	0.303162	0.240827
H845	H	-0.177724	0.277508	0.215413
H846	H	-0.370874	-0.083595	-0.184262
O847	O	-0.211390	0.268598	0.111124
C848	C	-0.222711	0.266703	0.136517
H849	H	-0.191956	0.252619	0.167229
H850	H	-0.248468	0.296857	0.132575
C851	C	-0.279604	0.260222	0.090374
C852	C	-0.241829	0.242921	0.128095
H853	H	-0.291399	0.245554	0.085178
H854	H	-0.271978	0.261501	0.073266
H855	H	-0.301063	0.285350	0.087094
H856	H	-0.220369	0.217795	0.131374
H857	H	-0.249452	0.241638	0.145204
H858	H	-0.064327	0.097917	-0.365762
H859	H	0.182068	-0.603630	0.500898
O860	O	-0.224211	-0.224684	-0.395728
C861	C	-0.189731	-0.224588	-0.392310
H862	H	-0.204330	-0.198604	-0.415548
H863	H	-0.169163	-0.223240	-0.362975
C864	C	-0.142201	-0.293319	-0.368271
C865	C	-0.160132	-0.261407	-0.396815
H866	H	-0.123941	-0.316031	-0.371049
H867	H	-0.165430	-0.293384	-0.370572
H868	H	-0.125064	-0.292191	-0.343828
H869	H	-0.177273	-0.262533	-0.421258
H870	H	-0.136905	-0.261343	-0.394518
O871	O	-0.224306	-0.321966	-0.013675
C872	C	-0.231426	-0.301192	-0.044874
H873	H	-0.268309	-0.282082	-0.068728
H874	H	-0.218642	-0.282729	-0.035243
C875	C	-0.161353	-0.352727	-0.030439
C876	C	-0.206652	-0.329258	-0.059739
H877	H	-0.146070	-0.370039	-0.039609
H878	H	-0.156555	-0.366723	-0.009420
H879	H	-0.150705	-0.337337	-0.022417
H880	H	-0.217300	-0.344648	-0.067758
H881	H	-0.211452	-0.315266	-0.080761
H882	H	0.666710	-0.216226	0.397964
O883	O	-0.440763	-0.023535	-0.417273
C884	C	-0.478262	0.013816	-0.429946
H885	H	-0.491205	0.014988	-0.411966
H886	H	-0.468849	0.034861	-0.426846
C887	C	-0.498558	0.023163	-0.494347
C888	C	-0.514457	0.024602	-0.472265
H889	H	-0.520884	0.029818	-0.520452
H890	H	-0.473294	-0.002001	-0.485809
H891	H	-0.490714	0.040700	-0.491759
H892	H	-0.522295	0.007062	-0.474849
H893	H	-0.539723	0.049763	-0.480804
H894	H	-0.102108	-0.319447	0.114111
O895	O	0.623035	-0.245668	0.359804
C896	C	0.611582	-0.208924	0.346448
H897	H	0.627063	-0.200017	0.371875
H898	H	0.624327	-0.209508	0.328427
C899	C	0.541928	-0.190967	0.290625
C900	C	0.560939	-0.180027	0.321855
H901	H	0.510689	-0.173142	0.275453
H902	H	0.549645	-0.215723	0.299622
H903	H	0.552554	-0.191454	0.275612
H904	H	0.550318	-0.179545	0.336870
H905	H	0.553219	-0.155270	0.312860
H906	H	-0.101907	0.168034	-0.398076
H907	H	-0.335043	-0.409068	-0.028871
O908	O	0.185057	0.268753	0.395625
C909	C	0.181570	0.303316	0.392221
H910	H	0.153864	0.325427	0.394428
H911	H	0.214114	0.298083	0.416147
C912	C	0.205254	0.291117	0.350492
C913	C	0.171223	0.318275	0.353200
H914	H	0.198874	0.300344	0.326423
H915	H	0.207605	0.267831	0.352786
H916	H	0.232371	0.286758	0.370432
H917	H	0.144108	0.322629	0.333263
H918	H	0.168867	0.341562	0.350902
H919	H	-0.064808	0.263191	0.468565
O920	O	-0.099223	-0.322573	0.507263
C921	C	-0.060595	-0.359290	0.520485
H922	H	-0.061748	-0.368087	0.494987
H923	H	-0.030397	-0.358715	0.538482
C924	C	-0.056218	-0.377484	0.576379
C925	C	-0.057636	-0.388291	0.545061
H926	H	-0.054392	-0.395374	0.591541
H927	H	-0.082242	-0.352747	0.567472
H928	H	-0.031053	-0.377005	0.591373
H929	H	-0.082804	-0.388765	0.530066
H930	H	-0.031617	-0.413029	0.553967
O931	O	-0.336181	-0.112812	-0.507315
C932	C	-0.374799	-0.076090	-0.520533
H933	H	-0.388857	-0.076126	-0.503876
H934	H	-0.366455	-0.054278	-0.516126
C935	C	-0.392000	-0.065347	-0.583882
C936	C	-0.409268	-0.065393	-0.563426
H937	H	-0.413262	-0.058748	-0.610341
H938	H	-0.365981	-0.090087	-0.574977
H939	H	-0.385047	-0.047171	-0.580206
H940	H	-0.416215	-0.083572	-0.567098
H941	H	-0.435289	-0.040655	-0.572333
H942	H	-0.370870	-0.083600	-0.468924
H943	H	-0.552384	0.097914	-0.468928
O944	O	-0.106265	-0.300221	0.305739
C945	C	-0.118762	-0.287541	0.330574
H946	H	-0.105357	-0.313286	0.353317
H947	H	-0.104681	-0.270989	0.344979
C948	C	-0.186006	-0.229654	0.279587
C949	C	-0.169545	-0.261274	0.307518
H950	H	-0.217332	-0.213450	0.265366
H951	H	-0.177586	-0.238196	0.262856
H952	H	-0.174268	-0.215865	0.291596
H953	H	-0.181279	-0.275065	0.295509
H954	H	-0.177968	-0.252734	0.324247
O955	O	-0.211098	-0.210647	0.395740
C956	C	-0.203972	-0.186557	0.416502
H957	H	-0.175508	-0.204489	0.447790
H958	H	-0.195422	-0.170961	0.404089
C959	C	-0.281147	-0.135065	0.375255
C960	C	-0.246190	-0.157088	0.413685
H961	H	-0.307190	-0.116886	0.373516
H962	H	-0.285948	-0.151294	0.361266
H963	H	-0.274017	-0.122072	0.364916
H964	H	-0.253318	-0.170085	0.424022
H965	H	-0.241391	-0.140861	0.427675
O966	O	-0.440805	-0.411953	-0.029021
C967	C	-0.484550	-0.391471	-0.062168
H968	H	-0.497271	-0.360405	-0.072845
H969	H	-0.485297	-0.404858	-0.085347
C970	C	-0.498519	-0.431132	-0.039524
C971	C	-0.514144	-0.392976	-0.052637
H972	H	-0.516774	-0.432061	-0.033646
H973	H	-0.469047	-0.444932	-0.017193
H974	H	-0.499142	-0.442284	-0.058843
H975	H	-0.513516	-0.381826	-0.033317
H976	H	-0.543617	-0.379173	-0.074964
O977	O	-0.619974	0.171062	-0.507290
C978	C	-0.587018	0.170279	-0.508033
H979	H	-0.560329	0.165779	-0.478094
H980	H	-0.571693	0.145835	-0.518002
C981	C	-0.640550	0.214053	-0.572593
C982	C	-0.607773	0.208528	-0.535822
H983	H	-0.653353	0.237646	-0.589735
H984	H	-0.662754	0.214579	-0.572093
H985	H	-0.627775	0.193680	-0.580895
H986	H	-0.620549	0.228899	-0.527518
H987	H	-0.585572	0.208006	-0.536320
O988	O	-0.336170	-0.112796	-0.111184
C989	C	-0.374799	-0.076080	-0.136581
H990	H	-0.373646	-0.067280	-0.160925
H991	H	-0.404996	-0.076656	-0.148778
C992	C	-0.379180	-0.057887	-0.085062
C993	C	-0.377761	-0.047079	-0.114960
H994	H	-0.381009	-0.039998	-0.071726
H995	H	-0.353156	-0.082624	-0.067952
H996	H	-0.404344	-0.058368	-0.095231
H997	H	-0.352595	-0.046603	-0.104791
H998	H	-0.403782	-0.022341	-0.132068
O999	O	-0.210989	0.171339	-0.506811
C1000	C	-0.245466	0.202418	-0.506727
H1001	H	-0.237659	0.196824	-0.476819
H1002	H	-0.248842	0.229725	-0.515338
C1003	C	-0.298700	0.213906	-0.572135
C1004	C	-0.289113	0.207034	-0.535402
H1005	H	-0.325625	0.216755	-0.589824
H1006	H	-0.275473	0.192968	-0.572193
H1007	H	-0.301511	0.236661	-0.579306
H1008	H	-0.286298	0.184277	-0.528230
H1009	H	-0.312342	0.227967	-0.535344
H1010	H	-0.333297	-0.216247	-0.013849
H1011	H	-0.552602	0.098141	-0.366234
O1012	O	-0.376952	-0.245700	-0.019322
C1013	C	-0.388412	-0.208950	-0.017429
H1014	H	-0.357725	-0.208882	-0.003342
H1015	H	-0.414204	-0.187138	-0.047577
C1016	C	-0.445236	-0.198447	-0.010965
C1017	C	-0.407544	-0.198365	0.006340
H1018	H	-0.457039	-0.191917	0.003695
H1019	H	-0.437516	-0.223205	-0.012242
H1020	H	-0.466724	-0.180271	-0.036088
H1021	H	-0.386055	-0.216544	0.031461
H1022	H	-0.415261	-0.173610	0.007622
O1023	O	-0.619994	-0.210388	-0.013627
C1024	C	-0.596503	-0.197162	-0.015538
H1025	H	-0.562200	-0.222665	-0.005587
H1026	H	-0.615078	-0.179164	-0.046303
C1027	C	-0.634222	-0.141251	-0.001728
C1028	C	-0.592088	-0.172575	0.010496
H1029	H	-0.631500	-0.126083	0.014329
H1030	H	-0.650050	-0.150160	-0.000443
H1031	H	-0.649696	-0.126257	-0.027366
H1032	H	-0.576617	-0.187570	0.036132
H1033	H	-0.576258	-0.163667	0.009216
H1034	H	0.664975	-0.409052	0.411243
H1035	H	-0.617482	-0.318952	-0.013864
O1036	O	-0.376945	-0.530517	-0.019308
C1037	C	-0.368341	-0.548632	0.014280
H1038	H	-0.338300	-0.579617	0.027348
H1039	H	-0.361502	-0.532989	0.035674
C1040	C	-0.445662	-0.509636	-0.011634
C1041	C	-0.408767	-0.547694	0.004415
H1042	H	-0.470599	-0.509057	-0.017718
H1043	H	-0.451459	-0.497431	-0.034262
H1044	H	-0.439956	-0.496604	0.006197
H1045	H	-0.414471	-0.560724	-0.013418
H1046	H	-0.402972	-0.559902	0.027040
O1047	O	-0.058447	-0.357627	0.187202
C1048	C	-0.046982	-0.370978	0.161922
H1049	H	-0.077671	-0.354389	0.131173
H1050	H	-0.021202	-0.366598	0.165895
C1051	C	0.009866	-0.434260	0.208240
C1052	C	-0.027828	-0.413888	0.170475
H1053	H	0.021683	-0.460730	0.213517
H1054	H	0.002143	-0.425266	0.225273
H1055	H	0.031344	-0.430607	0.211547
H1056	H	-0.049307	-0.417539	0.167170
H1057	H	-0.020108	-0.422885	0.153441
H1058	H	-0.552401	-0.248779	-0.019127
H1059	H	-0.064519	-0.351773	0.468881
O1060	O	-0.099767	-0.224733	-0.395753
C1061	C	-0.056653	-0.249722	-0.386232
H1062	H	-0.052951	-0.236676	-0.406311
H1063	H	-0.031610	-0.254335	-0.355444
C1064	C	-0.052936	-0.304434	-0.365637
C1065	C	-0.048390	-0.288412	-0.390301
H1066	H	-0.047837	-0.328300	-0.368145
H1067	H	-0.081982	-0.287599	-0.372051
H1068	H	-0.032066	-0.308275	-0.339983
H1069	H	-0.069263	-0.284566	-0.415954
H1070	H	-0.019347	-0.305247	-0.383892
H1071	H	-0.552621	-0.351497	-0.019124
H1072	H	-0.167464	-0.248835	0.366187
H1073	H	0.447606	-0.248771	0.184189
H1074	H	0.562309	-0.409055	0.308608
