data_functionalizedCrystal
_audit_creation_method	'MofGen! by Chris Wilmer'
_symmetry_space_group_name_H-M	'P1'
_symmetry_Int_Tables_number	1
_symmetry_cell_setting	triclinic
loop_
_symmetry_equiv_pos_as_xyz
  x,y,z
_cell_length_a	16.625546
_cell_length_b	21.395364
_cell_length_c	21.395355
_cell_angle_alpha	89.974702
_cell_angle_beta	90.018476
_cell_angle_gamma	89.960831
loop_
_atom_site_label
_atom_site_type_symbol
_atom_site_fract_x
_atom_site_fract_y
_atom_site_fract_z
Zn1	Zn	-0.320736	-0.957895	0.354274
Zn2	Zn	0.179264	-0.457895	0.854274
Zn3	Zn	-0.455551	-0.957813	0.249497
Zn4	Zn	0.044449	-0.457813	0.749497
Zn5	Zn	-0.320775	-0.853110	0.249509
Zn6	Zn	0.179225	-0.353110	0.749509
Zn7	Zn	-0.455569	-0.853094	0.354236
Zn8	Zn	0.044431	-0.353094	0.854236
O9	O	-0.388158	-0.905478	0.301879
O10	O	0.111842	-0.405478	0.801879
O11	O	-0.338595	-1.045562	0.340386
O12	O	0.161405	-0.545562	0.840386
O13	O	-0.437681	-0.943896	0.161821
O14	O	0.062319	-0.443896	0.661821
O15	O	-0.207937	-0.867051	0.263428
O16	O	0.292063	-0.367051	0.763428
O17	O	-0.437643	-1.045501	0.263407
O18	O	0.062357	-0.545501	0.763407
O19	O	-0.207909	-0.944036	0.340398
O20	O	0.292091	-0.444036	0.840398
O21	O	-0.338662	-0.866971	0.161830
O22	O	0.161338	-0.366971	0.661830
O23	O	-0.338680	-0.765430	0.263391
O24	O	0.161320	-0.265430	0.763391
O25	O	-0.437675	-0.867024	0.441919
O26	O	0.062325	-0.367024	0.941919
O27	O	-0.437713	-0.765419	0.340333
O28	O	0.062287	-0.265419	0.840333
O29	O	-0.338613	-0.944021	0.441947
O30	O	0.161387	-0.444021	0.941947
O31	O	-0.568386	-0.943880	0.263369
O32	O	-0.068386	-0.443880	0.763369
O33	O	-0.568399	-0.866944	0.340320
O34	O	-0.068399	-0.366944	0.840320
C35	C	-0.388203	-0.742690	0.301859
C36	C	0.111797	-0.242690	0.801859
C37	C	-0.388242	-0.673049	0.301866
C38	C	0.111758	-0.173049	0.801866
C39	C	-0.336754	-0.640390	0.342010
C40	C	0.163246	-0.140390	0.842010
C41	C	-0.336735	-0.574955	0.342012
C42	C	0.163265	-0.074955	0.842012
C43	C	-0.388219	-0.542181	0.301875
C44	C	0.111781	-0.042181	0.801875
C45	C	-0.439711	-0.574848	0.261723
C46	C	0.060289	-0.074848	0.761723
C47	C	-0.439723	-0.640282	0.261718
C48	C	0.060277	-0.140282	0.761718
C49	C	-0.460836	-0.438465	0.296837
C50	C	0.039164	0.061535	0.796837
C51	C	-0.460825	-0.373032	0.296846
C52	C	0.039175	0.126968	0.796846
C53	C	-0.388183	-0.340360	0.301887
C54	C	0.111817	0.159640	0.801887
C55	C	-0.315548	-0.373130	0.306932
C56	C	0.184452	0.126870	0.806932
C57	C	-0.315559	-0.438564	0.306927
C58	C	0.184441	0.061436	0.806927
C59	C	-0.388212	-0.471228	0.301876
C60	C	0.111788	0.028772	0.801876
C61	C	-0.336669	-0.236748	0.342035
C62	C	0.163331	0.263252	0.842035
C63	C	-0.336649	-0.171312	0.342032
C64	C	0.163351	0.328688	0.842032
C65	C	-0.439632	-0.171206	0.261747
C66	C	0.060368	0.328794	0.761747
C67	C	-0.439645	-0.236642	0.261746
C68	C	0.060355	0.263358	0.761746
C69	C	-0.388165	-0.269409	0.301894
C70	C	0.111835	0.230591	0.801894
C71	C	-0.597649	-0.905419	0.301853
C72	C	-0.097649	-0.405419	0.801853
C73	C	-0.687270	-0.905451	0.301862
C74	C	-0.187270	-0.405451	0.801862
C75	C	-1.015445	-0.905560	0.301928
C76	C	-0.515445	-0.405560	0.801928
C77	C	-0.924137	-0.905528	0.301911
C78	C	-0.424137	-0.405528	0.801911
C79	C	-0.851360	-0.905505	0.301895
C80	C	-0.351360	-0.405505	0.801895
C81	C	-0.760046	-0.905473	0.301879
C82	C	-0.260046	-0.405473	0.801879
C83	C	-0.177849	-0.905555	0.301919
C84	C	0.322151	-0.405555	0.801919
C85	C	-0.088228	-0.905587	0.301936
C86	C	0.411772	-0.405587	0.801936
C87	C	-0.388141	-0.905530	0.465302
C88	C	0.111859	-0.405530	0.965302
C89	C	-0.388134	-0.905552	0.534944
C90	C	0.111866	-0.405552	1.034944
C91	C	-0.388122	-0.068901	0.301896
C92	C	0.111878	0.431099	0.801896
C93	C	-0.388133	-0.138543	0.301895
C94	C	0.111867	0.361457	0.801895
C95	C	-0.388116	-0.905462	0.139091
C96	C	0.111884	-0.405462	0.639091
C97	C	-0.387896	-0.905562	0.069451
C98	C	0.112104	-0.405562	0.569451
C99	C	-0.336551	-0.945643	0.567672
C100	C	0.163449	-0.445643	1.067672
C101	C	-0.336516	-0.945642	0.633108
C102	C	0.163484	-0.445642	1.133108
C103	C	-0.388079	-0.905557	0.665812
C104	C	0.111921	-0.405557	1.165812
C105	C	-0.439667	-0.865459	0.633075
C106	C	0.060333	-0.365459	1.133075
C107	C	-0.439694	-0.865456	0.567641
C108	C	0.060306	-0.365456	1.067641
C109	C	-0.460682	-0.900589	0.769478
C110	C	0.039318	-0.400589	1.269478
C111	C	-0.460656	-0.900596	0.834911
C112	C	0.039344	-0.400596	1.334911
C113	C	-0.387994	-0.905561	0.867633
C114	C	0.112006	-0.405561	1.367633
C115	C	-0.315357	-0.910532	0.834914
C116	C	0.184643	-0.410532	1.334914
C117	C	-0.315384	-0.910530	0.769480
C118	C	0.184616	-0.410530	1.269480
C119	C	-0.388055	-0.905555	0.736764
C120	C	0.111945	-0.405555	1.236764
C121	C	-0.336369	-0.945653	0.971314
C122	C	0.163631	-0.445653	1.471314
C123	C	-0.336333	-0.945647	1.036751
C124	C	0.163667	-0.445647	1.536751
C125	C	-0.439490	-0.865468	1.036717
C126	C	0.060510	-0.365468	1.536717
C127	C	-0.439519	-0.865470	0.971282
C128	C	0.060481	-0.365470	1.471282
C129	C	-0.387960	-0.905565	0.938584
C130	C	0.112040	-0.405565	1.438584
H131	H	-0.481576	-0.263233	0.229058
H132	H	0.018424	0.236767	0.729058
H133	H	-0.519969	-0.346356	0.292741
H134	H	-0.019969	0.153644	0.792741
H135	H	-0.294566	-0.978291	0.541054
H136	H	0.205434	-0.478291	1.041054
C137	C	-0.540558	-0.895127	0.870895
C138	C	-0.040558	-0.395127	1.370895
N139	N	-0.600743	-0.891007	0.897997
N140	N	-0.100743	-0.391007	1.397997
C141	C	-0.496445	-0.821353	0.531638
C142	C	0.003555	-0.321353	1.031638
N143	N	-0.539191	-0.788135	0.504520
N144	N	-0.039191	-0.288135	1.004520
H145	H	-0.294506	-0.978287	0.659761
H146	H	0.205494	-0.478287	1.159761
H147	H	-0.294381	-0.978298	0.944691
H148	H	0.205619	-0.478298	1.444691
C149	C	-0.279582	-0.989751	1.072753
C150	C	0.220418	-0.489751	1.572753
N151	N	-0.236837	-1.022972	1.099870
N152	N	0.263163	-0.522972	1.599870
H153	H	-0.481552	-0.144523	0.229066
H154	H	0.018448	0.355477	0.729066
H155	H	-0.519995	-0.465060	0.292731
H156	H	-0.019995	0.034940	0.792731
H157	H	-0.294803	-0.548358	0.374702
H158	H	0.205197	-0.048358	0.874702
C159	C	-0.496371	-0.676208	0.217557
C160	C	0.003629	-0.176208	0.717557
N161	N	-0.539041	-0.703269	0.184295
N162	N	-0.039041	-0.203269	0.684295
H163	H	-0.481529	-0.832827	0.944633
H164	H	0.018471	-0.332827	1.444633
H165	H	-0.294745	-0.263429	0.374722
H166	H	0.205255	0.236571	0.874722
H167	H	-0.481647	-0.832820	0.659707
H168	H	0.018353	-0.332820	1.159707
C169	C	-0.280113	-0.676430	0.386166
C170	C	0.219887	-0.176430	0.886166
N171	N	-0.237448	-0.703576	0.419422
N172	N	0.262552	-0.203576	0.919422
C173	C	-0.496344	-0.538796	0.217573
C174	C	0.003656	-0.038796	0.717573
N175	N	-0.539001	-0.511641	0.184316
N176	N	-0.039001	-0.011641	0.684316
H177	H	-0.519837	-0.896379	0.742841
H178	H	-0.019837	-0.396379	1.242841
H179	H	-0.294716	-0.144722	0.374722
H180	H	0.205284	0.355278	0.874722
H181	H	-0.256418	-0.465242	0.311032
H182	H	0.243582	0.034758	0.811032
H183	H	-0.256189	-0.914576	0.861555
H184	H	0.243811	-0.414576	1.361555
C185	C	-0.235633	-0.337196	0.312471
C186	C	0.264367	0.162804	0.812471
N187	N	-0.175443	-0.310128	0.316642
N188	N	0.324557	0.189872	0.816642
C189	C	-0.235483	-0.915989	0.733492
C190	C	0.264517	-0.415989	1.233492
N191	N	-0.175301	-0.920097	0.706386
N192	N	0.324699	-0.420097	1.206386
C193	C	-0.496212	-0.821374	1.072688
C194	C	0.003788	-0.321374	1.572688
N195	N	-0.538935	-0.788162	1.099784
N196	N	-0.038935	-0.288162	1.599784
