data_functionalizedCrystal
_audit_creation_method	'MofGen! by Chris Wilmer'
_symmetry_space_group_name_H-M	'P1'
_symmetry_Int_Tables_number	1
_symmetry_cell_setting	triclinic
loop_
_symmetry_equiv_pos_as_xyz
  x,y,z
_cell_length_a	16.992694
_cell_length_b	16.974813
_cell_length_c	16.053802
_cell_angle_alpha	88.912550
_cell_angle_beta	87.249047
_cell_angle_gamma	87.024634
loop_
_atom_site_label
_atom_site_type_symbol
_atom_site_fract_x
_atom_site_fract_y
_atom_site_fract_z
O1	O	1.044046	0.164036	-0.080405
O2	O	1.544046	0.664036	0.419595
O3	O	0.815757	0.162201	-0.080306
O4	O	1.315757	0.662201	0.419694
O5	O	0.935897	0.048765	-0.072625
O6	O	1.435897	0.548765	0.427375
O7	O	0.923906	0.277473	-0.088087
O8	O	1.423906	0.777473	0.411913
O9	O	0.929284	0.054981	0.065813
O10	O	1.429284	0.554981	0.565813
O11	O	0.809145	0.168418	0.058132
O12	O	1.309145	0.668418	0.558132
O13	O	1.037433	0.170253	0.058033
O14	O	1.537433	0.670253	0.558033
Zn15	Zn	0.922239	0.170322	0.080062
Zn16	Zn	1.422239	0.670322	0.580062
Zn17	Zn	0.930951	0.162132	-0.102336
Zn18	Zn	1.430951	0.662132	0.397664
O19	O	0.917293	0.283689	0.050351
O20	O	1.417293	0.783689	0.550351
C21	C	0.783234	0.162951	-0.010931
C22	C	1.283234	0.662951	0.489069
C23	C	0.696175	0.155912	-0.010465
C24	C	1.196175	0.655912	0.489535
C25	C	0.646080	0.223821	-0.015055
C26	C	1.146080	0.723821	0.484945
C27	C	0.564279	0.217204	-0.014596
C28	C	1.064279	0.717204	0.485404
C29	C	0.532574	0.142676	-0.009553
C30	C	1.032574	0.642676	0.490447
C31	C	0.582675	0.074762	-0.004959
C32	C	1.082675	0.574762	0.495041
C33	C	0.664475	0.081380	-0.005412
C34	C	1.164475	0.581380	0.494588
C35	C	0.288916	0.115246	-0.007676
C36	C	0.788916	0.615246	0.492324
C37	C	0.207111	0.108632	-0.007226
C38	C	0.707111	0.608632	0.492774
C39	C	0.188719	0.251075	-0.016861
C40	C	0.688719	0.751075	0.483139
C41	C	0.270522	0.257687	-0.017318
C42	C	0.770522	0.757687	0.482682
C43	C	0.320615	0.189773	-0.012721
C44	C	0.820615	0.689773	0.487279
N45	N	0.448960	0.135910	-0.009086
N46	N	0.948960	0.635910	0.490914
N47	N	0.404227	0.196540	-0.013181
N48	N	0.904227	0.696540	0.486819
C49	C	0.932011	0.022473	-0.001420
C50	C	1.432011	0.522473	0.498580
C51	C	0.930277	-0.065130	0.004496
C52	C	1.430277	0.434870	0.504496
C53	C	0.933069	-0.109669	-0.068186
C54	C	1.433069	0.390331	0.431814
C55	C	0.931434	-0.191981	-0.062625
C56	C	1.431434	0.308019	0.437375
C57	C	0.927013	-0.229752	0.015620
C58	C	1.427013	0.270248	0.515620
C59	C	0.924219	-0.185206	0.088308
C60	C	1.424219	0.314794	0.588308
C61	C	0.925848	-0.102895	0.082746
C62	C	1.425848	0.397105	0.582746
C63	C	0.921749	-0.475560	0.040348
C64	C	1.421749	0.024440	0.540348
C65	C	0.920122	-0.557877	0.045906
C66	C	1.420122	-0.057877	0.545906
C67	C	0.927336	-0.564647	-0.105028
C68	C	1.427336	-0.064647	0.394972
C69	C	0.928969	-0.482334	-0.110584
C70	C	1.428969	0.017666	0.389416
C71	C	0.926171	-0.437795	-0.037896
C72	C	1.426171	0.062205	0.462104
N73	N	0.925344	-0.313887	0.021307
N74	N	1.425344	0.186113	0.521307
N75	N	0.927834	-0.353661	-0.043583
N76	N	1.427834	0.146339	0.456417
C77	C	1.069957	0.169503	-0.011344
C78	C	1.569957	0.669503	0.488656
C79	C	1.157016	0.176542	-0.011816
C80	C	1.657016	0.676542	0.488184
C81	C	0.921179	0.309981	-0.020855
C82	C	1.421179	0.809981	0.479145
C83	C	0.922914	0.397583	-0.026777
C84	C	1.422914	0.897583	0.473223
N85	N	0.916298	0.175912	0.204544
N86	N	1.416298	0.675912	0.704544
N87	N	0.936898	0.156536	-0.226817
N88	N	1.436898	0.656536	0.273183
C89	C	0.967436	0.127664	0.251505
C90	C	1.467436	0.627664	0.751505
C91	C	0.963288	0.131582	0.338647
C92	C	1.463288	0.631582	0.838647
C93	C	0.908005	0.183752	0.378825
C94	C	1.408005	0.683752	0.878825
C95	C	0.856862	0.232002	0.331858
C96	C	1.356862	0.732002	0.831858
C97	C	0.861007	0.228080	0.244718
C98	C	1.361007	0.728080	0.744718
C99	C	0.889899	0.200864	0.639076
C100	C	1.389899	0.700864	1.139076
C101	C	0.885760	0.204784	0.726222
C102	C	1.385760	0.704784	1.226222
C103	C	0.992186	0.104363	0.733005
C104	C	1.492186	0.604363	1.233005
C105	C	0.996329	0.100448	0.645863
C106	C	1.496329	0.600448	1.145863
C107	C	0.945183	0.148695	0.598903
C108	C	1.445183	0.648695	1.098903
N109	N	0.903765	0.187760	0.467898
N110	N	1.403765	0.687760	0.967898
N111	N	0.949419	0.144683	0.509833
N112	N	1.449419	0.644683	1.009833
H113	H	0.936673	-0.078923	-0.131902
H114	H	1.436673	0.421077	0.368098
H115	H	0.671887	0.284510	-0.019162
H116	H	1.171887	0.784510	0.480838
O117	O	0.176407	0.036185	-0.002433
O118	O	0.676407	0.536185	0.497567
C119	C	0.205389	-0.008744	-0.071319
C120	C	0.705389	0.491256	0.428681
H121	H	0.263309	0.015229	-0.096916
H122	H	0.763309	0.515229	0.403084
H123	H	0.215824	-0.072947	-0.050800
H124	H	0.715824	0.427053	0.449200
H125	H	0.160471	-0.004846	-0.121942
H126	H	0.660471	0.495154	0.378058
O127	O	0.915976	-0.594607	0.121903
O128	O	1.415976	-0.094607	0.621903
C129	C	0.982674	-0.646670	0.129942
C130	C	1.482674	-0.146670	0.629942
H131	H	1.032627	-0.627032	0.085657
H132	H	1.532627	-0.127032	0.585657
H133	H	1.002253	-0.646161	0.196854
H134	H	1.502253	-0.146161	0.696854
H135	H	0.967075	-0.708914	0.113818
H136	H	1.467075	-0.208914	0.613818
H137	H	0.840739	0.247271	0.758931
H138	H	1.340739	0.747271	1.258931
H139	H	0.819364	0.267367	0.206483
H140	H	1.319364	0.767367	0.706483
H141	H	0.929612	-0.600919	-0.164206
H142	H	1.429612	-0.100919	0.335794
H143	H	0.920614	-0.215965	0.152017
H144	H	1.420614	0.284035	0.652017
O145	O	0.515730	0.283250	-0.019099
O146	O	1.015730	0.783250	0.480901
C147	C	0.561254	0.350449	-0.023631
C148	C	1.061254	0.850449	0.476369
H149	H	0.623506	0.333108	-0.048754
H150	H	1.123506	0.833108	0.451246
H151	H	0.533099	0.396541	-0.067061
H152	H	1.033099	0.896541	0.432939
H153	H	0.563967	0.376037	0.041254
H154	H	1.063967	0.876037	0.541254
H155	H	0.296329	0.318375	-0.021435
H156	H	0.796329	0.818375	0.478565
O157	O	0.139944	0.316965	-0.021277
O158	O	0.639944	0.816965	0.478723
C159	C	0.060948	0.295146	-0.019818
C160	C	0.560948	0.795146	0.480182
H161	H	0.056431	0.234211	0.010590
H162	H	0.556431	0.734211	0.510590
H163	H	0.022074	0.339921	0.017473
H164	H	0.522074	0.839921	0.517473
H165	H	0.040461	0.293663	-0.086333
H166	H	0.540461	0.793663	0.413667
H167	H	0.811845	0.274478	0.364576
H168	H	1.311845	0.774478	0.864576
O169	O	0.840186	0.247813	0.593591
O170	O	1.340186	0.747813	1.093591
C171	C	0.790495	0.294687	0.647744
C172	C	1.290495	0.794687	1.147744
H173	H	0.819698	0.300416	0.709655
H174	H	1.319698	0.800416	1.209655
H175	H	0.779859	0.355745	0.618358
H176	H	1.279859	0.855745	1.118358
H177	H	0.731748	0.265807	0.659007
H178	H	1.231748	0.765807	1.159007
O179	O	0.337653	0.049326	-0.003335
O180	O	0.837653	0.549326	0.496665
C181	C	0.388920	0.045659	-0.075017
C182	C	0.888920	0.545659	0.424983
H183	H	0.394335	0.107413	-0.103165
H184	H	0.894335	0.607413	0.396835
H185	H	0.449563	0.020884	-0.057173
H186	H	0.949563	0.520884	0.442827
H187	H	0.364318	0.005714	-0.122674
H188	H	0.864318	0.505714	0.377326
H189	H	0.556854	0.014080	-0.000841
H190	H	1.056854	0.514080	0.499159
O191	O	0.713115	0.015384	-0.001104
O192	O	1.213115	0.515384	0.498896
C193	C	0.702124	-0.032791	-0.069750
C194	C	1.202124	0.467209	0.430250
H195	H	0.676641	0.004809	-0.122557
H196	H	1.176641	0.504809	0.377443
H197	H	0.761238	-0.061824	-0.091930
H198	H	1.261238	0.438176	0.408070
H199	H	0.659608	-0.080313	-0.050275
H200	H	1.159608	0.419687	0.449725
H201	H	0.933710	-0.228242	-0.121810
H202	H	1.433710	0.271758	0.378190
O203	O	0.919084	-0.432424	0.111038
O204	O	1.419084	0.067576	0.611038
C205	C	0.914827	-0.483415	0.181288
C206	C	1.414827	0.016585	0.681288
H207	H	0.939512	-0.544784	0.163233
H208	H	1.439512	-0.044784	0.663233
H209	H	0.950835	-0.459883	0.232630
H210	H	1.450835	0.040117	0.732630
H211	H	0.850695	-0.486811	0.204806
H212	H	1.350695	0.013189	0.704806
H213	H	0.923564	-0.066631	0.141932
H214	H	1.423564	0.433369	0.641932
H215	H	0.932570	-0.451588	-0.174299
H216	H	1.432570	0.048412	0.325701
O217	O	1.021163	0.076917	0.212613
O218	O	1.521163	0.576917	0.712613
C219	C	1.065420	0.035186	0.272752
C220	C	1.565420	0.535186	0.772752
H221	H	1.030312	0.035049	0.335070
H222	H	1.530312	0.535049	0.835070
H223	H	1.078449	-0.028138	0.251787
H224	H	1.578449	0.471862	0.751787
H225	H	1.123286	0.064901	0.280029
H226	H	1.623286	0.564901	0.780029
O227	O	1.012860	0.084633	0.384303
O228	O	1.512860	0.584633	0.884303
C229	C	0.968374	0.035605	0.438201
C230	C	1.468374	0.535605	0.938201
H231	H	0.907777	0.029157	0.412310
H232	H	1.407777	0.529157	0.912310
H233	H	1.000197	-0.024967	0.443283
H234	H	1.500197	0.475033	0.943283
H235	H	0.961177	0.062981	0.502593
H236	H	1.461177	0.562981	1.002593
H237	H	1.041345	0.057967	0.613151
H238	H	1.541345	0.557967	1.113151
H239	H	1.033826	0.065081	0.771247
H240	H	1.533826	0.565081	1.271247
