data_functionalizedCrystal
_audit_creation_method	'MofGen! by Chris Wilmer'
_symmetry_space_group_name_H-M	'P1'
_symmetry_Int_Tables_number	1
_symmetry_cell_setting	triclinic
loop_
_symmetry_equiv_pos_as_xyz
  x,y,z
_cell_length_a	14.519709
_cell_length_b	16.053802
_cell_length_c	16.992695
_cell_angle_alpha	92.741074
_cell_angle_beta	87.174184
_cell_angle_gamma	87.419624
loop_
_atom_site_label
_atom_site_type_symbol
_atom_site_fract_x
_atom_site_fract_y
_atom_site_fract_z
O1	O	1.234886	-0.069320	0.099504
O2	O	0.967279	-0.069346	0.111608
O3	O	1.100010	-0.069327	-0.008588
O4	O	1.102156	-0.069340	0.219700
O5	O	1.092702	0.069531	-0.001999
O6	O	0.959971	0.069512	0.118197
O7	O	1.227578	0.069537	0.106092
Zn8	Zn	1.092615	0.091571	0.113191
Zn9	Zn	1.102243	-0.091380	0.104510
O10	O	1.094848	0.069518	0.226288
C11	C	0.929225	0.000080	0.114338
C12	C	0.826723	0.000070	0.112647
C13	C	1.093596	0.000102	-0.034510
C14	C	1.085360	0.000101	-0.121566
N15	N	1.086050	0.216431	0.119115
C16	C	0.451379	0.000108	0.106425
C17	C	0.555811	0.000097	0.108153
C18	C	0.639048	0.000088	0.109536
C19	C	0.743487	0.000079	0.111264
C20	C	1.265632	0.000110	0.103362
C21	C	1.368135	0.000114	0.105053
N22	N	1.108814	-0.216239	0.098580
C23	C	1.142550	0.260133	0.067989
C24	C	1.137968	0.347539	0.072141
C25	C	1.076889	0.391241	0.127422
C26	C	1.020382	0.347533	0.178549
C27	C	1.024961	0.260128	0.174393
C28	C	1.056886	0.652648	0.145552
C29	C	1.052314	0.740059	0.149705
C30	C	1.169899	0.740058	0.043295
C31	C	1.174476	0.652652	0.039147
C32	C	1.117966	0.608952	0.090272
N33	N	1.072205	0.480584	0.131668
N34	N	1.122646	0.519610	0.086022
C35	C	1.164820	0.000109	-0.171694
C36	C	1.157077	0.000101	-0.253492
C37	C	1.069873	0.000089	-0.285160
C38	C	0.990408	0.000079	-0.235025
C39	C	0.998152	0.000081	-0.153229
C40	C	1.037777	0.000075	-0.528803
C41	C	1.030038	0.000075	-0.610605
C42	C	1.196708	0.000095	-0.629067
C43	C	1.204444	0.000103	-0.547269
C44	C	1.124979	0.000088	-0.497141
N45	N	1.061956	0.000083	-0.368770
N46	N	1.132897	0.000088	-0.413533
C47	C	1.101262	0.000088	0.252210
C48	C	1.109498	0.000083	0.339266
H49	H	1.192291	0.224556	0.022977
C50	C	0.950368	0.000073	-0.473673
H51	H	0.897325	0.000077	-0.504250
H52	H	0.952463	-0.048348	-0.443671
H53	H	0.947378	0.048504	-0.439089
H54	H	1.221781	0.000109	-0.294304
H55	H	0.933447	0.000074	-0.112414
C56	C	0.894486	0.000069	-0.269857
H57	H	0.901252	0.000078	-0.325751
H58	H	0.864060	-0.048356	-0.254954
H59	H	0.858970	0.048495	-0.250361
C60	C	0.985124	0.788134	0.210514
H61	H	0.990501	0.846447	0.205671
H62	H	0.923691	0.773825	0.201199
H63	H	0.999747	0.773798	0.262192
H64	H	1.010876	0.617074	0.187181
C65	C	0.953166	0.395599	0.239335
H66	H	0.920158	0.357051	0.269176
H67	H	0.986933	0.429699	0.273673
H68	H	0.910917	0.429691	0.212645
C69	C	1.300369	0.000104	-0.512441
H70	H	1.346585	0.000099	-0.554012
H71	H	1.304310	0.048526	-0.478619
H72	H	1.309396	-0.048326	-0.483213
H73	H	1.261404	0.000106	-0.669890
H74	H	1.215905	0.775647	0.001671
H75	H	1.183974	0.383121	0.030510
H76	H	0.978951	0.224547	0.216024
C77	C	1.260742	0.000124	-0.136863
H78	H	1.253977	0.000133	-0.080969
H79	H	1.296264	-0.048294	-0.156356
H80	H	1.291160	0.048557	-0.151770
C81	C	1.241657	0.604586	-0.021666
H82	H	1.274645	0.643132	-0.051526
H83	H	1.283913	0.570478	0.004993
H84	H	1.207852	0.570501	-0.055995
C85	C	0.934111	0.000048	-0.645439
H86	H	0.887893	0.000029	-0.603870
H87	H	0.925068	0.048468	-0.674670
H88	H	0.930191	-0.048384	-0.679257
