data_functionalizedCrystal
_audit_creation_method	'MofGen! by Chris Wilmer'
_symmetry_space_group_name_H-M	'P1'
_symmetry_Int_Tables_number	1
_symmetry_cell_setting	triclinic
loop_
_symmetry_equiv_pos_as_xyz
  x,y,z
_cell_length_a	12.811424
_cell_length_b	12.837943
_cell_length_c	11.892113
_cell_angle_alpha	86.040150
_cell_angle_beta	80.231028
_cell_angle_gamma	89.412067
loop_
_atom_site_label
_atom_site_type_symbol
_atom_site_fract_x
_atom_site_fract_y
_atom_site_fract_z
O1	O	-0.281577	-1.384397	0.122847
O2	O	0.218423	-0.884397	0.622847
O3	O	-0.267996	-1.082445	0.121461
O4	O	0.232004	-0.582445	0.621461
O5	O	-0.121654	-1.240022	0.106450
O6	O	0.378346	-0.740022	0.606450
O7	O	-0.427919	-1.226820	0.137858
O8	O	0.072081	-0.726820	0.637858
O9	O	-0.108392	-1.228040	-0.082917
O10	O	0.391608	-0.728040	0.417083
O11	O	-0.254733	-1.070464	-0.067906
O12	O	0.245267	-0.570464	0.432094
O13	O	-0.268315	-1.372415	-0.066520
O14	O	0.231685	-0.872415	0.433480
Zn15	Zn	-0.259418	-1.219537	-0.097279
Zn16	Zn	0.240582	-0.719537	0.402721
Zn17	Zn	-0.276892	-1.235323	0.152220
Zn18	Zn	0.223108	-0.735323	0.652220
O19	O	-0.414657	-1.214838	-0.051509
O20	O	0.085343	-0.714838	0.448491
C21	C	-0.256776	-1.037785	0.026308
C22	C	0.243224	-0.537785	0.526308
C23	C	-0.243092	-0.922560	0.024908
C24	C	0.256908	-0.422560	0.524908
C25	C	-0.075550	-1.232924	0.007721
C26	C	0.424450	-0.732924	0.507721
C27	C	0.042067	-1.229613	-0.004334
C28	C	0.542067	-0.729613	0.495666
C29	C	0.248612	-1.236436	0.179486
C30	C	0.748612	-0.736436	0.679486
C31	C	0.359123	-1.233325	0.168165
C32	C	0.859123	-0.733325	0.668165
C33	C	0.373603	-1.220273	-0.038296
C34	C	0.873603	-0.720273	0.461704
C35	C	0.263091	-1.223384	-0.026975
C36	C	0.763091	-0.723384	0.473025
C37	C	0.200600	-1.231467	0.081919
C38	C	0.700600	-0.731467	0.581919
C39	C	0.090087	-1.234585	0.093239
C40	C	0.590087	-0.734585	0.593239
C41	C	0.104568	-1.221525	-0.113220
C42	C	0.604568	-0.721525	0.386780
C43	C	0.215079	-1.218415	-0.124541
C44	C	0.715079	-0.718415	0.375459
C45	C	-0.279534	-1.417076	0.028635
C46	C	0.220466	-0.917076	0.528635
C47	C	-0.293219	-1.532301	0.030043
C48	C	0.206781	-1.032301	0.530043
C49	C	0.539240	-1.221936	0.047221
C50	C	1.039240	-0.721936	0.547221
C51	C	0.421622	-1.225245	0.059278
C52	C	0.921622	-0.725245	0.559278
N53	N	-0.247493	-1.208771	-0.267556
N54	N	0.252507	-0.708771	0.232444
C55	C	-0.407602	-0.683373	0.041763
C56	C	0.092398	-0.183373	0.541763
C57	C	-0.394750	-0.575109	0.040447
C58	C	0.105250	-0.075109	0.540447
C59	C	-0.204535	-0.597765	0.020951
C60	C	0.295465	-0.097765	0.520951
C61	C	-0.217387	-0.706029	0.022268
C62	C	0.282613	-0.206029	0.522268
C63	C	-0.318924	-0.748829	0.032675
C64	C	0.181076	-0.248829	0.532675
C65	C	-0.331777	-0.857096	0.033999
C66	C	0.168223	-0.357096	0.533999
C67	C	-0.141562	-0.879750	0.014496
C68	C	0.358438	-0.379750	0.514496
C69	C	-0.128709	-0.771486	0.013180
C70	C	0.371291	-0.271486	0.513180
C71	C	-0.371843	-1.321004	-0.491455
C72	C	0.128157	-0.821004	0.008545
C73	C	-0.363499	-1.313487	-0.610653
C74	C	0.136501	-0.813487	-0.110653
C75	C	-0.222457	-1.186224	-0.625151
C76	C	0.277543	-0.686224	-0.125151
C77	C	-0.230801	-1.193742	-0.505953
C78	C	0.269199	-0.693742	-0.005953
C79	C	-0.305498	-1.261133	-0.439109
C80	C	0.194502	-0.761133	0.060891
C81	C	-0.313846	-1.268644	-0.319909
C82	C	0.186154	-0.768644	0.180091
C83	C	-0.172799	-1.141388	-0.334410
C84	C	0.327201	-0.641388	0.165590
C85	C	-0.164455	-1.133871	-0.453607
C86	C	0.335545	-0.633871	0.046393
N87	N	-0.288810	-1.246098	0.322496
N88	N	0.211190	-0.746098	0.822496
H89	H	0.039207	-1.241170	0.181907
H90	H	0.539207	-0.741170	0.681907
N91	N	-0.517114	-0.729535	0.052994
N92	N	-0.017114	-0.229535	0.552994
H93	H	-0.521772	-0.769509	-0.016222
H94	H	-0.021772	-0.269509	0.483778
H95	H	-0.531535	-0.778340	0.124214
H96	H	-0.031535	-0.278340	0.624214
H97	H	0.065465	-1.217483	-0.192666
H98	H	0.565465	-0.717483	0.307334
H99	H	-0.466961	-0.521817	0.047843
H100	H	0.033039	-0.021817	0.547843
H101	H	-0.103637	-1.079006	-0.508048
H102	H	0.396363	-0.579006	-0.008048
H103	H	-0.414453	-0.891941	0.042472
H104	H	0.085547	-0.391941	0.542472
H105	H	0.197730	-1.243027	0.268152
H106	H	0.697730	-0.743027	0.768152
H107	H	-0.432673	-1.375867	-0.437029
H108	H	0.067327	-0.875867	0.062971
N109	N	-0.095032	-0.551577	0.009703
N110	N	0.404968	-0.051577	0.509703
H111	H	-0.090377	-0.511594	0.078913
H112	H	0.409623	-0.011594	0.578913
H113	H	-0.040856	-0.609517	0.004103
H114	H	0.459144	-0.109517	0.504103
N115	N	0.441013	-1.211575	-0.155737
N116	N	0.941013	-0.711575	0.344263
H117	H	0.518306	-1.210365	-0.148099
H118	H	1.018306	-0.710365	0.351901
H119	H	0.426952	-1.273481	-0.199028
H120	H	0.926952	-0.773481	0.300972
H121	H	-0.046039	-0.736622	0.004693
H122	H	0.453961	-0.236622	0.504693
H123	H	-0.417524	-1.362241	-0.653267
H124	H	0.082476	-0.862241	-0.153267
H125	H	-0.069354	-0.933057	0.007104
H126	H	0.430646	-0.433057	0.507104
N127	N	-0.394409	-1.341324	-0.247809
N128	N	0.105591	-0.841324	0.252191
H129	H	-0.435169	-1.378113	-0.299062
H130	H	0.064831	-0.878113	0.200938
H131	H	-0.356888	-1.394673	-0.202547
H132	H	0.143112	-0.894673	0.297453
H133	H	0.398210	-1.237367	0.247613
H134	H	0.898210	-0.737367	0.747613
N135	N	-0.101228	-1.076816	-0.277950
N136	N	0.398772	-0.576816	0.222050
H137	H	-0.052645	-1.032987	-0.338386
H138	H	0.447355	-0.532987	0.161614
H139	H	-0.145671	-1.029701	-0.224303
H140	H	0.354329	-0.529701	0.275697
N141	N	-0.141897	-1.113556	-0.697273
N142	N	0.358103	-0.613556	-0.197273
H143	H	-0.179347	-1.060150	-0.742547
H144	H	0.320653	-0.560150	-0.242547
H145	H	-0.101145	-1.076832	-0.645966
H146	H	0.398855	-0.576832	-0.145966
N147	N	0.282483	-1.209710	-0.241986
N148	N	0.782483	-0.709710	0.258014
H149	H	0.359778	-1.208498	-0.234355
H150	H	0.859778	-0.708498	0.265645
H151	H	0.268421	-1.271613	-0.285280
H152	H	0.768421	-0.771613	0.214720
