data_functionalizedCrystal
_audit_creation_method	'MofGen! by Chris Wilmer'
_symmetry_space_group_name_H-M	'P1'
_symmetry_Int_Tables_number	1
_symmetry_cell_setting	triclinic
loop_
_symmetry_equiv_pos_as_xyz
  x,y,z
_cell_length_a	19.805407
_cell_length_b	19.805405
_cell_length_c	19.805399
_cell_angle_alpha	89.973385
_cell_angle_beta	89.982197
_cell_angle_gamma	90.024042
loop_
_atom_site_label
_atom_site_type_symbol
_atom_site_fract_x
_atom_site_fract_y
_atom_site_fract_z
Zn1	Zn	1.034734	-0.269527	-0.382692
Zn2	Zn	1.534734	0.230473	0.117308
Zn3	Zn	1.034648	-0.382716	-0.269506
Zn4	Zn	1.534648	0.117284	0.230494
Zn5	Zn	0.921549	-0.269541	-0.269520
Zn6	Zn	1.421549	0.230459	0.230480
Zn7	Zn	0.921512	-0.382674	-0.382656
Zn8	Zn	1.421512	0.117326	0.117344
O9	O	0.978111	-0.326115	-0.326094
O10	O	1.478111	0.173885	0.173906
O11	O	1.129439	-0.284554	-0.367687
O12	O	1.629439	0.215446	0.132313
O13	O	1.019625	-0.367726	-0.174791
O14	O	1.519625	0.132274	0.325209
O15	O	0.936615	-0.174822	-0.284554
O16	O	1.436615	0.325178	0.215446
O17	O	1.129376	-0.367713	-0.284529
O18	O	1.629376	0.132287	0.215471
O19	O	1.019771	-0.174813	-0.367701
O20	O	1.519771	0.325187	0.132299
O21	O	0.936531	-0.284576	-0.174802
O22	O	1.436531	0.215424	0.325198
O23	O	0.826827	-0.284536	-0.284519
O24	O	1.326827	0.215464	0.215481
O25	O	0.936551	-0.367642	-0.477378
O26	O	1.436551	0.132358	0.022622
O27	O	0.826800	-0.367655	-0.367639
O28	O	1.326800	0.132345	0.132361
O29	O	1.019735	-0.284514	-0.477404
O30	O	1.519735	0.215486	0.022596
O31	O	1.019589	-0.477427	-0.284494
O32	O	1.519589	0.022573	0.215506
O33	O	0.936468	-0.477396	-0.367625
O34	O	1.436468	0.022604	0.132375
C35	C	0.802255	-0.326093	-0.326077
C36	C	1.302255	0.173907	0.173923
C37	C	0.727023	-0.326101	-0.326086
C38	C	1.227023	0.173899	0.173914
C39	C	0.691712	-0.282876	-0.369452
C40	C	1.191712	0.217124	0.130548
C41	C	0.621024	-0.282880	-0.369455
C42	C	1.121024	0.217120	0.130545
C43	C	0.585647	-0.326112	-0.326094
C44	C	1.085647	0.173888	0.173906
C45	C	0.620963	-0.369338	-0.282724
C46	C	1.120963	0.130662	0.217276
C47	C	0.691650	-0.369330	-0.282718
C48	C	1.191650	0.130670	0.217282
C49	C	0.335890	-0.369368	-0.282744
C50	C	0.835890	0.130632	0.217256
C51	C	0.265197	-0.369374	-0.282755
C52	C	0.765197	0.130626	0.217245
C53	C	0.265263	-0.282918	-0.369481
C54	C	0.765263	0.217082	0.130519
C55	C	0.335950	-0.282910	-0.369476
C56	C	0.835950	0.217090	0.130524
C57	C	0.371260	-0.326134	-0.326103
C58	C	0.871260	0.173866	0.173897
C59	C	0.447908	-0.326128	-0.326099
C60	C	0.947908	0.173872	0.173901
C61	C	0.509000	-0.326121	-0.326100
C62	C	1.009000	0.173879	0.173900
C63	C	0.978034	-0.501971	-0.326069
C64	C	1.478034	-0.001971	0.173931
C65	C	0.978063	-0.577203	-0.326081
C66	C	1.478063	-0.077203	0.173919
C67	C	1.021337	-0.612483	-0.369410
C68	C	1.521337	-0.112483	0.130590
C69	C	1.021361	-0.683172	-0.369422
C70	C	1.521361	-0.183172	0.130578
C71	C	0.978114	-0.718578	-0.326103
C72	C	1.478114	-0.218578	0.173897
C73	C	0.934835	-0.683292	-0.282772
C74	C	1.434835	-0.183292	0.217228
C75	C	0.934808	-0.612605	-0.282763
C76	C	1.434808	-0.112605	0.217237
C77	C	0.934944	-0.968366	-0.282807
C78	C	1.434944	-0.468366	0.217193
C79	C	0.934976	-1.039058	-0.282817
C80	C	1.434976	-0.539058	0.217183
C81	C	1.021497	-1.038932	-0.369466
C82	C	1.521497	-0.538932	0.130534
C83	C	1.021470	-0.968245	-0.369457
C84	C	1.521470	-0.468245	0.130543
C85	C	0.978189	-0.932965	-0.326129
C86	C	1.478189	-0.432965	0.173871
C87	C	0.978162	-0.856317	-0.326117
C88	C	1.478162	-0.356317	0.173883
C89	C	0.978144	-0.795225	-0.326111
C90	C	1.478144	-0.295225	0.173889
C91	C	1.154653	-0.326136	-0.326111
C92	C	1.654653	0.173864	0.173889
C93	C	1.229885	-0.326146	-0.326118
C94	C	1.729885	0.173854	0.173882
C95	C	0.978149	-0.326072	-0.502636
C96	C	1.478149	0.173928	-0.002636
C97	C	0.978165	-0.326054	-0.577868
C98	C	1.478165	0.173946	-0.077868
C99	C	0.978207	-0.149572	-0.326133
C100	C	1.478207	0.350428	0.173867
C101	C	0.978247	-0.074340	-0.326150
C102	C	1.478247	0.425660	0.173850
C103	C	1.021480	-0.282766	-0.613227
C104	C	1.521480	0.217234	-0.113227
C105	C	1.021487	-0.282747	-0.683916
C106	C	1.521487	0.217253	-0.183916
C107	C	0.978182	-0.326018	-0.719244
C108	C	1.478182	0.173982	-0.219244
C109	C	0.934862	-0.369308	-0.683880
C110	C	1.434862	0.130692	-0.183880
C111	C	0.934852	-0.369323	-0.613193
C112	C	1.434852	0.130677	-0.113193
C113	C	0.934900	-0.369244	-0.968954
C114	C	1.434900	0.130756	-0.468954
C115	C	0.934915	-0.369227	-1.039646
C116	C	1.434915	0.130773	-0.539646
C117	C	1.021535	-0.282668	-1.039677
C118	C	1.521535	0.217332	-0.539677
C119	C	1.021525	-0.282684	-0.968989
C120	C	1.521525	0.217316	-0.468989
C121	C	0.978203	-0.325970	-0.933632
C122	C	1.478203	0.174030	-0.433632
C123	C	0.978195	-0.325990	-0.856983
C124	C	1.478195	0.174010	-0.356983
C125	C	0.978193	-0.326002	-0.795891
C126	C	1.478193	0.173998	-0.295891
C127	C	0.978112	-0.326108	-0.150238
C128	C	1.478112	0.173892	0.349762
C129	C	0.978227	-0.325936	-0.075006
C130	C	1.478227	0.174064	0.424994
H131	H	0.592277	-0.247684	-0.404769
H132	H	1.092277	0.252316	0.095231
H133	H	0.236396	-0.404580	-0.247443
H134	H	0.736396	0.095420	0.252557
H135	H	0.720511	-0.247674	-0.404763
H136	H	1.220511	0.252326	0.095237
C137	C	0.887808	-0.416406	-0.574922
C138	C	1.387808	0.083594	-0.074922
C139	C	0.849902	-0.454315	-0.620989
C140	C	1.349902	0.045685	-0.120989
C141	C	0.806565	-0.497704	-0.585760
C142	C	1.306565	0.002296	-0.085760
H143	H	0.858265	-0.390599	-0.547342
H144	H	1.358265	0.109401	-0.047342
H145	H	0.913673	-0.445940	-0.547363
H146	H	1.413673	0.054060	-0.047363
H147	H	0.824039	-0.424785	-0.648536
H148	H	1.324039	0.075215	-0.148536
H149	H	0.879428	-0.480136	-0.648571
H150	H	1.379428	0.019864	-0.148571
H151	H	0.832430	-0.527238	-0.558200
H152	H	1.332430	-0.027238	-0.058200
H153	H	0.777026	-0.471892	-0.558181
H154	H	1.277026	0.028108	-0.058181
H155	H	0.780845	-0.523435	-0.617010
H156	H	1.280845	-0.023435	-0.117010
C157	C	0.887842	-0.721819	-0.235847
C158	C	1.387842	-0.221819	0.264153
C159	C	0.844465	-0.762428	-0.274135
C160	C	1.344465	-0.262428	0.225865
C161	C	0.801174	-0.797934	-0.230928
C162	C	1.301174	-0.297934	0.269072
H163	H	0.862000	-0.690759	-0.210025
H164	H	1.362000	-0.190759	0.289975
H165	H	0.913746	-0.749427	-0.206394
H166	H	1.413746	-0.249427	0.293606
H167	H	0.818564	-0.734822	-0.303577
H168	H	1.318564	-0.234822	0.196423
H169	H	0.870289	-0.793500	-0.299955
H170	H	1.370289	-0.293500	0.200045
H171	H	0.827077	-0.825542	-0.201474
H172	H	1.327077	-0.325542	0.298526
H173	H	0.775336	-0.766869	-0.205108
H174	H	1.275336	-0.266869	0.294892
H175	H	0.771741	-0.825496	-0.256899
H176	H	1.271741	-0.325496	0.243101
C177	C	1.068313	-0.929719	-0.416531
C178	C	1.568313	-0.429719	0.083469
C179	C	1.029945	-0.889131	-0.459861
C180	C	1.529945	-0.389131	0.040139
C181	C	1.073072	-0.853625	-0.503231
C182	C	1.573072	-0.353625	-0.003231
H183	H	1.094104	-0.960778	-0.442404
H184	H	1.594104	-0.460778	0.057596
H185	H	1.097799	-0.902095	-0.390683
H186	H	1.597799	-0.402095	0.109317
H187	H	1.000471	-0.916752	-0.485707
H188	H	1.500471	-0.416752	0.014293
H189	H	1.004155	-0.858059	-0.434006
H190	H	1.504155	-0.358059	0.065994
H191	H	1.102558	-0.826002	-0.477383
H192	H	1.602558	-0.326002	0.022617
H193	H	1.098861	-0.884689	-0.529100
H194	H	1.598861	-0.384689	-0.029100
H195	H	1.047046	-0.826078	-0.532631
H196	H	1.547046	-0.326078	-0.032631
C197	C	0.374236	-0.235897	-0.416578
C198	C	0.874236	0.264103	0.083422
C199	C	0.328182	-0.198029	-0.454545
C200	C	0.828182	0.301971	0.045455
C201	C	0.363425	-0.154705	-0.497934
C202	C	0.863425	0.345295	0.002066
H203	H	0.401818	-0.261748	-0.446081
H204	H	0.901818	0.238252	0.053919
H205	H	0.401795	-0.206334	-0.390749
H206	H	0.901795	0.293666	0.109251
H207	H	0.300635	-0.227589	-0.480372
H208	H	0.800635	0.272411	0.019628
H209	H	0.300599	-0.172165	-0.425059
H210	H	0.800599	0.327835	0.074941
H211	H	0.390984	-0.125142	-0.472105
H212	H	0.890984	0.374858	0.027895
H213	H	0.391006	-0.180561	-0.527433
H214	H	0.891006	0.319439	-0.027433
H215	H	0.332183	-0.129002	-0.523695
H216	H	0.832183	0.370998	-0.023695
C217	C	0.226804	-0.236008	-0.416495
C218	C	0.726804	0.263992	0.083505
C219	C	0.157327	-0.245249	-0.407208
C220	C	0.657327	0.254751	0.092792
C221	C	0.121879	-0.202045	-0.450499
C222	C	0.621879	0.297955	0.049501
H223	H	0.238321	-0.245932	-0.461980
H224	H	0.738321	0.254068	0.038020
H225	H	0.238362	-0.190502	-0.406664
H226	H	0.738362	0.309498	0.093336
H227	H	0.145773	-0.290745	-0.417044
H228	H	0.645773	0.209255	0.082956
H229	H	0.145789	-0.235320	-0.361732
H230	H	0.645789	0.264680	0.138268
H231	H	0.133438	-0.156539	-0.440668
H232	H	0.633438	0.343461	0.059332
H233	H	0.133402	-0.211972	-0.495982
H234	H	0.633402	0.288028	0.004018
H235	H	0.074736	-0.208304	-0.444200
H236	H	0.574736	0.291696	0.055800
C237	C	0.582434	-0.416250	-0.235719
C238	C	1.082434	0.083750	0.264281
C239	C	0.512971	-0.407021	-0.245018
C240	C	1.012971	0.092979	0.254982
C241	C	0.477460	-0.450233	-0.201736
C242	C	0.977460	0.049767	0.298264
H243	H	0.593921	-0.406326	-0.190231
H244	H	1.093921	0.093674	0.309769
H245	H	0.593971	-0.461754	-0.245549
H246	H	1.093971	0.038246	0.254451
H247	H	0.501439	-0.361527	-0.235183
H248	H	1.001439	0.138473	0.264817
H249	H	0.501464	-0.416949	-0.290497
H250	H	1.001464	0.083051	0.209503
H251	H	0.488996	-0.495737	-0.211567
H252	H	0.988996	0.004263	0.288433
H253	H	0.488952	-0.440306	-0.156251
H254	H	0.988952	0.059694	0.343749
H255	H	0.430326	-0.443981	-0.208044
H256	H	0.930326	0.056019	0.291956
H257	H	0.720399	-0.404528	-0.247405
H258	H	1.220399	0.095472	0.252595
C259	C	1.068527	-0.235553	-1.077980
C260	C	1.568527	0.264447	-0.577980
C261	C	1.053837	-0.168588	-1.060781
C262	C	1.553837	0.331412	-0.560781
C263	C	1.097118	-0.125171	-1.096043
C264	C	1.597118	0.374829	-0.596043
H265	H	1.062375	-0.241644	-1.125149
H266	H	1.562375	0.258356	-0.625149
H267	H	1.114008	-0.245430	-1.066386
H268	H	1.614008	0.254570	-0.566386
H269	H	1.008367	-0.158715	-1.072379
H270	H	1.508367	0.341285	-0.572379
H271	H	1.059993	-0.162476	-1.013618
H272	H	1.559993	0.337524	-0.513618
H273	H	1.142599	-0.135048	-1.084449
H274	H	1.642599	0.364952	-0.584449
H275	H	1.090962	-0.131268	-1.143210
H276	H	1.590962	0.368732	-0.643210
H277	H	1.087160	-0.079731	-1.084373
H278	H	1.587160	0.420269	-0.584373
C279	C	1.068552	-1.077115	-0.416547
C280	C	1.568552	-0.577115	0.083453
C281	C	1.106431	-1.030977	-0.454469
C282	C	1.606431	-0.530977	0.045531
C283	C	1.149788	-1.066124	-0.497840
C284	C	1.649788	-0.566124	0.002160
H285	H	1.042725	-1.104691	-0.446079
H286	H	1.542725	-0.604691	0.053921
H287	H	1.098107	-1.104671	-0.390706
H288	H	1.598107	-0.604671	0.109294
H289	H	1.076879	-1.003432	-0.480308
H290	H	1.576879	-0.503432	0.019692
H291	H	1.132272	-1.003399	-0.424955
H292	H	1.632272	-0.503399	0.075045
H293	H	1.179343	-1.093680	-0.472000
H294	H	1.679343	-0.593680	0.028000
H295	H	1.123955	-1.093699	-0.527368
H296	H	1.623955	-0.593699	-0.027368
H297	H	1.175498	-1.034824	-0.523571
H298	H	1.675498	-0.534824	-0.023571
C299	C	0.374098	-0.416371	-0.235631
C300	C	0.874098	0.083629	0.264369
C301	C	0.327984	-0.454245	-0.197675
C302	C	0.827984	0.045755	0.302325
C303	C	0.363159	-0.497559	-0.154272
C304	C	0.863159	0.002441	0.345728
H305	H	0.401669	-0.390513	-0.206122
H306	H	0.901669	0.109487	0.293878
H307	H	0.401661	-0.445931	-0.261450
H308	H	0.901661	0.054069	0.238550
H309	H	0.300432	-0.424689	-0.171859
H310	H	0.800432	0.075311	0.328141
H311	H	0.300411	-0.480117	-0.227167
H312	H	0.800411	0.019883	0.272833
H313	H	0.390723	-0.527119	-0.180090
H314	H	0.890723	-0.027119	0.319910
H315	H	0.390730	-0.471695	-0.124767
H316	H	0.890730	0.028305	0.375233
H317	H	0.331877	-0.523266	-0.128518
H318	H	0.831877	-0.023266	0.371482
C319	C	0.887916	-0.416262	-0.722356
C320	C	1.387916	0.083738	-0.222356
C321	C	0.897208	-0.406998	-0.791830
C322	C	1.397208	0.093002	-0.291830
C323	C	0.853980	-0.450249	-0.827293
C324	C	1.353980	0.049751	-0.327293
H325	H	0.842416	-0.406395	-0.710849
H326	H	1.342416	0.093605	-0.210849
H327	H	0.897801	-0.461758	-0.710800
H328	H	1.397801	0.038242	-0.210800
H329	H	0.887318	-0.361513	-0.803381
H330	H	1.387318	0.138487	-0.303381
H331	H	0.942700	-0.416870	-0.803357
H332	H	1.442700	0.083130	-0.303357
H333	H	0.863865	-0.495745	-0.815737
H334	H	1.363865	0.004255	-0.315737
H335	H	0.808482	-0.440379	-0.815780
H336	H	1.308482	0.059621	-0.315780
H337	H	0.860283	-0.443974	-0.874434
H338	H	1.360283	0.056026	-0.374434
H339	H	0.899756	-1.067884	-0.247540
H340	H	1.399756	-0.567884	0.252460
C341	C	1.068315	-0.574167	-0.416521
C342	C	1.568315	-0.074167	0.083479
C343	C	1.106203	-0.620198	-0.454483
C344	C	1.606203	-0.120198	0.045517
C345	C	1.149478	-0.584929	-0.497898
C346	C	1.649478	-0.084929	0.002102
H347	H	1.097873	-0.546580	-0.390732
H348	H	1.597873	-0.046580	0.109268
H349	H	1.042407	-0.546612	-0.446021
H350	H	1.542407	-0.046612	0.053979
H351	H	1.132109	-0.647742	-0.424987
H352	H	1.632109	-0.147742	0.075013
H353	H	1.076663	-0.647788	-0.480286
H354	H	1.576663	-0.147788	0.019714
H355	H	1.123570	-0.557373	-0.527398
H356	H	1.623570	-0.057373	-0.027398
H357	H	1.179032	-0.557342	-0.472104
H358	H	1.679032	-0.057342	0.027896
H359	H	1.175186	-0.616155	-0.523665
H360	H	1.675186	-0.116155	-0.023665
H361	H	0.899648	-0.404465	-1.068408
H362	H	1.399648	0.095535	-0.568408
H363	H	1.056604	-0.711894	-0.404700
H364	H	1.556604	-0.211894	0.095300
C365	C	0.887852	-0.930158	-0.235796
C366	C	1.387852	-0.430158	0.264204
C367	C	0.820882	-0.947416	-0.250458
C368	C	1.320882	-0.447416	0.249542
C369	C	0.777483	-0.912237	-0.207154
C370	C	1.277483	-0.412237	0.292846
H371	H	0.893931	-0.882977	-0.241946
H372	H	1.393931	-0.382977	0.258054
H373	H	0.897756	-0.941781	-0.190320
H374	H	1.397756	-0.441781	0.309680
H375	H	0.810982	-0.935788	-0.295923
H376	H	1.310982	-0.435788	0.204077
H377	H	0.814782	-0.994590	-0.244304
H378	H	1.314782	-0.494590	0.255696
H379	H	0.787386	-0.923860	-0.161679
H380	H	1.287386	-0.423860	0.338321
H381	H	0.783568	-0.865058	-0.213308
H382	H	1.283568	-0.365058	0.286692
H383	H	0.732039	-0.923946	-0.217092
H384	H	1.232039	-0.423946	0.282908
H385	H	0.899569	-0.583880	-0.247482
H386	H	1.399569	-0.083880	0.252518
H387	H	1.056746	-0.247532	-0.584468
H388	H	1.556746	0.252468	-0.084468
H389	H	1.056791	-0.247450	-0.940229
H390	H	1.556791	0.252550	-0.440229
C391	C	1.068592	-0.235726	-0.722184
C392	C	1.568592	0.264274	-0.222184
C393	C	1.106531	-0.197851	-0.676116
C394	C	1.606531	0.302149	-0.176116
C395	C	1.149940	-0.154533	-0.711342
C396	C	1.649940	0.345467	-0.211342
H397	H	1.042799	-0.206162	-0.749763
H398	H	1.542799	0.293838	-0.249763
H399	H	1.098107	-0.261603	-0.749744
H400	H	1.598107	0.238397	-0.249744
H401	H	1.077020	-0.171976	-0.648567
H402	H	1.577020	0.328024	-0.148567
H403	H	1.132338	-0.227397	-0.648535
H404	H	1.632338	0.272603	-0.148535
H405	H	1.179454	-0.180410	-0.738903
H406	H	1.679454	0.319590	-0.238903
H407	H	1.124141	-0.124973	-0.738921
H408	H	1.624141	0.375027	-0.238921
H409	H	1.175690	-0.128834	-0.680091
H410	H	1.675690	0.371166	-0.180091
C411	C	0.887831	-0.416304	-0.930693
C412	C	1.387831	0.083696	-0.430693
C413	C	0.849919	-0.454202	-0.976764
C414	C	1.349919	0.045798	-0.476764
C415	C	0.806551	-0.497563	-0.941540
C416	C	1.306551	0.002437	-0.441540
H417	H	0.858292	-0.390478	-0.903125
H418	H	1.358292	0.109522	-0.403125
H419	H	0.913673	-0.445847	-0.903121
H420	H	1.413673	0.054153	-0.403121
H421	H	0.824079	-0.424664	-1.004324
H422	H	1.324079	0.075336	-0.504324
H423	H	0.879440	-0.480042	-1.004333
H424	H	1.379440	0.019958	-0.504333
H425	H	0.832393	-0.527106	-0.913969
H426	H	1.332393	-0.027106	-0.413969
H427	H	0.777017	-0.471732	-0.913974
H428	H	1.277017	0.028268	-0.413974
H429	H	0.780827	-0.523287	-0.972794
H430	H	1.280827	-0.023287	-0.472794
