data_functionalizedCrystal
_audit_creation_method	'MofGen! by Chris Wilmer'
_symmetry_space_group_name_H-M	'P1'
_symmetry_Int_Tables_number	1
_symmetry_cell_setting	triclinic
loop_
_symmetry_equiv_pos_as_xyz
  x,y,z
_cell_length_a	19.188925
_cell_length_b	19.188925
_cell_length_c	9.730223
_cell_angle_alpha	89.995959
_cell_angle_beta	89.995762
_cell_angle_gamma	83.142549
loop_
_atom_site_label
_atom_site_type_symbol
_atom_site_fract_x
_atom_site_fract_y
_atom_site_fract_z
O1	O	0.926144	0.087149	-0.114318
O2	O	1.259478	0.420483	0.219015
O3	O	1.592811	0.753816	0.552348
O4	O	0.722832	0.098888	-0.114315
O5	O	1.056166	0.432221	0.219019
O6	O	1.389499	0.765554	0.552352
O7	O	0.830357	-0.008637	-0.114309
O8	O	1.163691	0.324696	0.219025
O9	O	1.497024	0.658029	0.552358
O10	O	0.818619	0.194675	-0.114324
O11	O	1.151952	0.528008	0.219009
O12	O	1.485286	0.861341	0.552343
O13	O	0.830351	-0.008640	0.114271
O14	O	1.163684	0.324693	0.447604
O15	O	1.497017	0.658026	0.780938
O16	O	0.722825	0.098885	0.114265
O17	O	1.056159	0.432218	0.447599
O18	O	1.389492	0.765552	0.780932
O19	O	0.926137	0.087147	0.114262
O20	O	1.259471	0.420480	0.447595
O21	O	1.592804	0.753813	0.780928
Zn22	Zn	0.824480	0.093015	0.150555
Zn23	Zn	1.157814	0.426349	0.483889
Zn24	Zn	1.491147	0.759682	0.817222
Zn25	Zn	0.824489	0.093019	-0.150608
Zn26	Zn	1.157823	0.426352	0.182725
Zn27	Zn	1.491156	0.759686	0.516058
O28	O	0.818612	0.194672	0.114256
O29	O	1.151946	0.528005	0.447589
O30	O	1.485279	0.861338	0.780922
C31	C	0.696818	0.098507	-0.000024
C32	C	1.030151	0.431840	0.333309
C33	C	1.363484	0.765173	0.666643
C34	C	0.619313	0.097368	-0.000022
C35	C	0.952646	0.430701	0.333311
C36	C	1.285980	0.764034	0.666644
C37	C	0.829974	-0.034650	-0.000020
C38	C	1.163308	0.298683	0.333314
C39	C	1.496641	0.632017	0.666647
C40	C	0.828835	-0.112155	-0.000023
C41	C	1.162169	0.221179	0.333311
C42	C	1.495502	0.554512	0.666644
C43	C	0.057542	0.152832	-0.000030
C44	C	0.390875	0.486165	0.333304
C45	C	0.724208	0.819498	0.666637
C46	C	0.130365	0.153908	-0.000037
C47	C	0.463698	0.487242	0.333296
C48	C	0.797032	0.820575	0.666629
C49	C	0.175301	0.090816	-0.000030
C50	C	0.508634	0.424149	0.333303
C51	C	0.841967	0.757483	0.666637
C52	C	0.147408	0.026642	-0.000051
C53	C	0.480741	0.359976	0.333283
C54	C	0.814074	0.693309	0.666616
C55	C	0.074586	0.025568	-0.000057
C56	C	0.407919	0.358901	0.333276
C57	C	0.741252	0.692234	0.666610
N58	N	0.295976	0.045139	0.077784
N59	N	0.629310	0.378472	0.411117
N60	N	0.962643	0.711805	0.744450
N61	N	0.365154	0.046164	0.077792
N62	N	0.698487	0.379497	0.411126
N63	N	1.031820	0.712831	0.744459
C64	C	0.394710	0.094050	-0.000014
C65	C	0.728043	0.427383	0.333319
C66	C	1.061376	0.760717	0.666653
N67	N	0.352474	0.140883	-0.077813
N68	N	0.685807	0.474216	0.255521
N69	N	1.019140	0.807550	0.588854
N70	N	0.283290	0.139860	-0.077815
N71	N	0.616623	0.473193	0.255518
N72	N	0.949957	0.806526	0.588851
C73	C	0.254265	0.091974	-0.000024
C74	C	0.587598	0.425308	0.333309
C75	C	0.920931	0.758641	0.666643
C76	C	0.501557	0.159387	-0.000011
C77	C	0.834891	0.492720	0.333322
C78	C	1.168224	0.826053	0.666655
C79	C	0.574382	0.160461	-0.000027
C80	C	0.907716	0.493794	0.333306
C81	C	1.241049	0.827127	0.666639
C82	C	0.591424	0.033193	-0.000027
C83	C	0.924757	0.366526	0.333306
C84	C	1.258091	0.699860	0.666640
C85	C	0.518600	0.032121	-0.000025
C86	C	0.851934	0.365454	0.333309
C87	C	1.185267	0.698788	0.666642
C88	C	0.473671	0.095220	-0.000010
C89	C	0.807004	0.428553	0.333323
C90	C	1.140338	0.761886	0.666656
C91	C	0.884299	-0.673926	-0.000058
C92	C	1.217633	-0.340593	0.333275
C93	C	1.550966	-0.007259	0.666608
C94	C	0.885376	-0.601103	-0.000046
C95	C	1.218709	-0.267769	0.333287
C96	C	1.552043	0.065564	0.666621
C97	C	0.822284	-0.556167	-0.000045
C98	C	1.155617	-0.222834	0.333288
C99	C	1.488950	0.110500	0.666621
C100	C	0.758110	-0.584060	-0.000022
C101	C	1.091443	-0.250727	0.333312
C102	C	1.424777	0.082607	0.666645
C103	C	0.757035	-0.656882	-0.000020
C104	C	1.090369	-0.323549	0.333313
C105	C	1.423702	0.009785	0.666646
N106	N	0.776610	-0.435485	-0.077847
N107	N	1.109943	-0.102151	0.255486
N108	N	1.443276	0.231182	0.588820
N109	N	0.777635	-0.366307	-0.077851
N110	N	1.110968	-0.032974	0.255482
N111	N	1.444302	0.300359	0.588816
C112	C	0.825518	-0.336758	-0.000046
C113	C	1.158851	-0.003425	0.333287
C114	C	1.492184	0.329909	0.666621
N115	N	0.872347	-0.379001	0.077746
N116	N	1.205681	-0.045667	0.411079
N117	N	1.539014	0.287666	0.744413
N118	N	0.871324	-0.448184	0.077744
N119	N	1.204657	-0.114851	0.411077
N120	N	1.537991	0.218482	0.744411
C121	C	0.823442	-0.477203	-0.000046
C122	C	1.156775	-0.143870	0.333288
C123	C	1.490109	0.189464	0.666621
C124	C	0.890854	-0.229910	-0.000047
C125	C	1.224188	0.103423	0.333287
C126	C	1.557521	0.436756	0.666620
C127	C	0.891928	-0.157085	-0.000026
C128	C	1.225262	0.176248	0.333308
C129	C	1.558595	0.509581	0.666641
C130	C	0.764661	-0.140044	-0.000015
C131	C	1.097994	0.193290	0.333318
C132	C	1.431327	0.526623	0.666652
C133	C	0.763589	-0.212867	-0.000022
C134	C	1.096922	0.120466	0.333311
C135	C	1.430255	0.453799	0.666644
C136	C	0.826688	-0.257797	-0.000044
C137	C	1.160021	0.075537	0.333289
C138	C	1.493354	0.408870	0.666622
C139	C	0.952152	0.087528	-0.000032
C140	C	1.285485	0.420861	0.333301
C141	C	1.618819	0.754194	0.666635
C142	C	1.029657	0.088667	-0.000043
C143	C	1.362990	0.422000	0.333291
C144	C	1.696323	0.755333	0.666624
C145	C	0.818995	0.220684	-0.000036
C146	C	1.152329	0.554018	0.333297
C147	C	1.485662	0.887351	0.666630
C148	C	0.820134	0.298189	-0.000043
C149	C	1.153468	0.631522	0.333291
C150	C	1.486801	0.964856	0.666624
N151	N	0.824479	0.093012	0.356092
N152	N	1.157813	0.426346	0.689425
N153	N	1.491146	0.759679	1.022759
N154	N	0.824496	0.093017	-0.356145
N155	N	1.157829	0.426350	-0.022812
N156	N	1.491163	0.759683	0.310522
C157	C	0.872107	0.045420	0.428020
C158	C	1.205441	0.378753	0.761354
C159	C	1.538774	0.712087	1.094687
C160	C	0.872114	0.045420	0.571903
C161	C	1.205448	0.378753	0.905237
C162	C	1.538781	0.712087	1.238570
C163	C	0.776863	0.140611	0.571917
C164	C	1.110196	0.473944	0.905250
C165	C	1.443529	0.807278	1.238583
C166	C	0.776853	0.140607	0.428036
C167	C	1.110186	0.473940	0.761370
C168	C	1.443520	0.807274	1.094703
H169	H	0.020964	0.204212	-0.000025
H170	H	0.354298	0.537545	0.333308
H171	H	0.687631	0.870879	0.666642
Br172	Br	0.036739	-0.061520	-0.000083
Br173	Br	0.370072	0.271813	0.333251
Br174	Br	0.703406	0.605146	0.666584
Br175	Br	0.976486	-0.290889	-0.000073
Br176	Br	1.309819	0.042444	0.333260
Br177	Br	1.643153	0.375777	0.666593
H178	H	0.738065	0.179363	0.369468
H179	H	1.071399	0.512696	0.702802
H180	H	1.404732	0.846029	1.036135
H181	H	0.153074	0.206161	-0.000014
H182	H	0.486407	0.539494	0.333319
H183	H	0.819740	0.872827	0.666653
Br184	Br	0.652400	-0.052434	-0.000046
Br185	Br	0.985734	0.280899	0.333288
Br186	Br	1.319067	0.614232	0.666621
H187	H	0.597084	0.212714	-0.000028
H188	H	0.930417	0.546047	0.333305
H189	H	1.263751	0.879380	0.666638
Br190	Br	0.208390	-0.058984	-0.000053
Br191	Br	0.541723	0.274350	0.333281
Br192	Br	0.875057	0.607683	0.666614
H193	H	0.495897	-0.020129	-0.000027
H194	H	0.829230	0.313204	0.333306
H195	H	1.162563	0.646537	0.666640
H196	H	0.935680	-0.710503	-0.000069
H197	H	1.269013	-0.377170	0.333264
H198	H	1.602346	-0.043837	0.666598
H199	H	0.910887	0.006664	0.369447
H200	H	1.244220	0.339998	0.702780
H201	H	1.577553	0.673331	1.036113
H202	H	0.944181	-0.134384	-0.000030
H203	H	1.277515	0.198950	0.333303
H204	H	1.610848	0.532283	0.666637
H205	H	0.464974	0.210766	-0.000002
H206	H	0.798307	0.544099	0.333331
H207	H	1.131641	0.877432	0.666664
Br208	Br	0.712231	0.205203	0.669560
Br209	Br	1.045564	0.538536	1.002893
Br210	Br	1.378898	0.871870	1.336227
H211	H	0.937628	-0.578394	-0.000059
H212	H	1.270962	-0.245061	0.333275
H213	H	1.604295	0.088273	0.666608
Br214	Br	0.672484	-0.523078	-0.000008
Br215	Br	1.005817	-0.189744	0.333326
Br216	Br	1.339151	0.143589	0.666659
Br217	Br	0.936752	-0.019175	0.669518
Br218	Br	1.270085	0.314158	1.002851
Br219	Br	1.603418	0.647492	1.336185
H220	H	0.704783	-0.679584	-0.000004
H221	H	1.038116	-0.346251	0.333329
H222	H	1.371450	-0.012918	0.666662
H223	H	0.711338	-0.235571	-0.000019
H224	H	1.044672	0.097762	0.333314
H225	H	1.378005	0.431096	0.666647
H226	H	0.713290	-0.103458	-0.000002
H227	H	1.046623	0.229876	0.333331
H228	H	1.379956	0.563209	0.666664
