data_functionalizedCrystal
_audit_creation_method	'MofGen! by Chris Wilmer'
_symmetry_space_group_name_H-M	'P1'
_symmetry_Int_Tables_number	1
_symmetry_cell_setting	triclinic
loop_
_symmetry_equiv_pos_as_xyz
  x,y,z
_cell_length_a	19.288864
_cell_length_b	17.000371
_cell_length_c	18.366186
_cell_angle_alpha	89.992984
_cell_angle_beta	89.977106
_cell_angle_gamma	79.367747
loop_
_atom_site_label
_atom_site_type_symbol
_atom_site_fract_x
_atom_site_fract_y
_atom_site_fract_z
O1	O	0.915558	0.099313	-0.060782
O2	O	1.415558	0.599313	0.439218
O3	O	0.712516	0.112710	-0.060732
O4	O	1.212516	0.612710	0.439268
O5	O	0.826644	-0.009900	-0.060755
O6	O	1.326644	0.490100	0.439245
O7	O	0.801430	0.221923	-0.060759
O8	O	1.301430	0.721923	0.439241
O9	O	0.826627	-0.009906	0.060344
O10	O	1.326627	0.490094	0.560344
O11	O	0.712498	0.112704	0.060367
O12	O	1.212498	0.612704	0.560367
O13	O	0.915541	0.099307	0.060317
O14	O	1.415541	0.599307	0.560317
Zn15	Zn	0.814017	0.106005	0.079569
Zn16	Zn	1.314017	0.606005	0.579569
Zn17	Zn	0.814040	0.106013	-0.079984
Zn18	Zn	1.314040	0.606013	0.420016
O19	O	0.801412	0.221917	0.060340
O20	O	1.301412	0.721917	0.560340
C21	C	0.686656	0.112276	-0.000176
C22	C	1.186656	0.612276	0.499824
C23	C	0.609628	0.110982	-0.000157
C24	C	1.109628	0.610982	0.499843
C25	C	0.560734	0.182924	-0.000170
C26	C	1.060734	0.682924	0.499830
C27	C	0.488358	0.181709	-0.000178
C28	C	0.988358	0.681709	0.499822
C29	C	0.464879	0.108547	-0.000188
C30	C	0.964879	0.608547	0.499812
C31	C	0.513783	0.036595	-0.000171
C32	C	1.013783	0.536595	0.499829
C33	C	0.586157	0.037813	-0.000155
C34	C	1.086157	0.537813	0.499845
C35	C	0.359979	0.051036	-0.042638
C36	C	0.859979	0.551036	0.457362
C37	C	0.287605	0.049821	-0.042657
C38	C	0.787605	0.549821	0.457343
C39	C	0.241653	0.104788	-0.000232
C40	C	0.741653	0.604788	0.499768
C41	C	0.268080	0.160983	0.042205
C42	C	0.768080	0.660983	0.542205
C43	C	0.340455	0.162201	0.042220
C44	C	0.840455	0.662201	0.542220
C45	C	0.386402	0.107218	-0.000204
C46	C	0.886402	0.607218	0.499796
C47	C	0.114279	0.175417	-0.000252
C48	C	0.614279	0.675417	0.499748
C49	C	0.041903	0.174198	-0.000255
C50	C	0.541903	0.674198	0.499745
C51	C	0.067330	0.029082	-0.000256
C52	C	0.567330	0.529082	0.499744
C53	C	0.139705	0.030303	-0.000245
C54	C	0.639705	0.530303	0.499755
C55	C	0.163175	0.103473	-0.000247
C56	C	0.663175	0.603473	0.499753
C57	C	0.827990	-0.039561	-0.000206
C58	C	1.327990	0.460439	0.499794
C59	C	0.832017	-0.127934	-0.000208
C60	C	1.332017	0.372066	0.499792
C61	C	0.770043	-0.159738	-0.000196
C62	C	1.270043	0.340262	0.499804
C63	C	0.773831	-0.242774	-0.000194
C64	C	1.273831	0.257226	0.499806
C65	C	0.839594	-0.294006	-0.000211
C66	C	1.339594	0.205994	0.499789
C67	C	0.901573	-0.262198	-0.000221
C68	C	1.401573	0.237802	0.499779
C69	C	0.897784	-0.179162	-0.000216
C70	C	1.397784	0.320838	0.499784
C71	C	0.854229	-0.545204	-0.000219
C72	C	1.354229	-0.045204	0.499781
C73	C	0.858013	-0.628245	-0.000226
C74	C	1.358013	-0.128245	0.499774
C75	C	0.730272	-0.608815	-0.000198
C76	C	1.230272	-0.108815	0.499802
C77	C	0.726489	-0.525780	-0.000198
C78	C	1.226489	-0.025780	0.499802
C79	C	0.788467	-0.493978	-0.000204
C80	C	1.288467	0.006022	0.499796
C81	C	0.843468	-0.378883	-0.000212
C82	C	1.343468	0.121117	0.499788
C83	C	0.784593	-0.409103	-0.000198
C84	C	1.284593	0.090897	0.499802
C85	C	0.941401	0.099741	-0.000240
C86	C	1.441401	0.599741	0.499760
C87	C	1.018429	0.101035	-0.000264
C88	C	1.518429	0.601035	0.499736
C89	C	0.800067	0.251579	-0.000210
C90	C	1.300067	0.751579	0.499790
C91	C	0.796039	0.339952	-0.000214
C92	C	1.296039	0.839952	0.499786
N93	N	0.814006	0.105999	0.188461
N94	N	1.314006	0.605999	0.688461
N95	N	0.814057	0.106012	-0.188875
N96	N	1.314057	0.606012	0.311125
C97	C	0.864556	0.051734	0.226551
C98	C	1.364556	0.551734	0.726551
C99	C	0.864560	0.051730	0.302779
C100	C	1.364560	0.551730	0.802779
C101	C	0.814021	0.106006	0.340913
C102	C	1.314021	0.606006	0.840913
C103	C	0.763462	0.160275	0.302814
C104	C	1.263462	0.660275	0.802814
C105	C	0.763454	0.160272	0.226588
C106	C	1.263454	0.660272	0.726588
C107	C	0.800490	0.178544	0.461674
C108	C	1.300490	0.678544	0.961674
C109	C	0.800503	0.178548	0.537899
C110	C	1.300503	0.678548	1.037899
C111	C	0.814040	0.106016	0.576021
C112	C	1.314040	0.606016	1.076021
C113	C	0.827580	0.033476	0.537909
C114	C	1.327580	0.533476	1.037909
C115	C	0.827572	0.033472	0.461682
C116	C	1.327572	0.533472	0.961682
C117	C	0.814023	0.106015	0.423568
C118	C	1.314023	0.606015	0.923568
C119	C	0.864598	0.051742	0.696766
C120	C	1.364598	0.551742	1.196766
C121	C	0.864598	0.051737	0.772995
C122	C	1.364598	0.551737	1.272995
C123	C	0.763502	0.160289	0.773029
C124	C	1.263502	0.660289	1.273029
C125	C	0.763499	0.160287	0.696801
C126	C	1.263499	0.660287	1.196801
C127	C	0.814051	0.106014	0.658674
C128	C	1.314051	0.606014	1.158674
H129	H	0.002092	0.232784	-0.000262
H130	H	0.502092	0.732784	0.499738
H131	H	0.716492	-0.118030	-0.000186
H132	H	1.216492	0.381970	0.499814
H133	H	0.361969	0.207955	0.076775
H134	H	0.861969	0.707955	0.576775
H135	H	0.955118	-0.303917	-0.000229
H136	H	1.455118	0.196083	0.499771
H137	H	0.048214	-0.030487	-0.000309
H138	H	0.548214	0.469513	0.499691
H139	H	0.230666	0.205742	0.076752
H140	H	0.730666	0.705742	0.576752
H141	H	0.266093	0.004066	-0.077214
H142	H	0.766093	0.504066	0.422786
H143	H	0.625968	-0.020773	-0.000145
H144	H	1.125968	0.479227	0.499855
C145	C	0.662102	-0.643799	-0.000182
C146	C	1.162102	-0.143799	0.499818
H147	H	0.673774	-0.700589	-0.000181
H148	H	1.173774	-0.200589	0.499819
H149	H	0.635241	-0.626194	-0.042403
H150	H	1.135241	-0.126194	0.457597
H151	H	0.635237	-0.626205	0.042062
H152	H	1.135237	-0.126205	0.542062
H153	H	0.179516	-0.028280	-0.000239
H154	H	0.679516	0.471720	0.499761
H155	H	0.904696	-0.519322	-0.000226
H156	H	1.404696	-0.019322	0.499774
H157	H	0.948249	-0.153270	-0.000225
H158	H	1.448249	0.346730	0.499775
C159	C	0.842476	-0.046316	0.579829
C160	C	1.342476	0.453684	1.079829
H161	H	0.850545	-0.089515	0.546214
H162	H	1.350545	0.410485	1.046214
H163	H	0.803058	-0.050623	0.609587
H164	H	1.303058	0.449377	1.109587
H165	H	0.883032	-0.048039	0.609542
H166	H	1.383032	0.451961	1.109542
H167	H	0.723366	-0.268664	-0.000190
H168	H	1.223366	0.231336	0.499810
H169	H	0.731049	-0.367387	-0.000180
H170	H	1.231049	0.132613	0.499820
C171	C	0.707855	0.219973	0.184683
C172	C	1.207855	0.719973	0.684683
H173	H	0.715089	0.212196	0.133825
H174	H	1.215089	0.712196	0.633825
H175	H	0.712154	0.273083	0.197168
H176	H	1.212154	0.773083	0.697168
H177	H	0.662018	0.211460	0.197196
H178	H	1.162018	0.711460	0.697196
C179	C	0.654150	-0.469430	-0.000171
C180	C	1.154150	0.030570	0.499829
H181	H	0.617782	-0.500264	-0.000157
H182	H	1.117782	-0.000264	0.499843
H183	H	0.650019	-0.436625	-0.042397
H184	H	1.150019	0.063375	0.457603
H185	H	0.650015	-0.436645	0.042068
H186	H	1.150015	0.063355	0.542068
C187	C	0.140101	0.255898	-0.000246
C188	C	0.640101	0.755898	0.499754
H189	H	0.100612	0.298571	-0.000244
H190	H	0.600612	0.798571	0.499756
H191	H	0.167827	0.259392	-0.042472
H192	H	0.667827	0.759392	0.457528
H193	H	0.167783	0.259385	0.041993
H194	H	0.667783	0.759385	0.541993
C195	C	0.434566	0.260848	-0.000203
C196	C	0.934566	0.760848	0.499797
H197	H	0.458910	0.304598	-0.000208
H198	H	0.958910	0.804598	0.499792
H199	H	0.405773	0.263396	0.042017
H200	H	0.905773	0.763396	0.542017
H201	H	0.405835	0.263377	-0.042448
H202	H	0.905835	0.763377	0.457552
C203	C	0.915804	-0.435237	-0.000238
C204	C	1.415804	0.064763	0.499762
H205	H	0.952176	-0.404407	-0.000243
H206	H	1.452176	0.095593	0.499757
H207	H	0.919938	-0.468027	-0.042469
H208	H	1.419938	0.031973	0.457531
H209	H	0.919931	-0.468037	0.041996
H210	H	1.419931	0.031963	0.541996
C211	C	0.930354	-0.684602	-0.000237
C212	C	1.430354	-0.184602	0.499763
H213	H	0.923731	-0.738609	-0.000246
H214	H	1.423731	-0.238609	0.499754
H215	H	0.955967	-0.674995	0.041990
H216	H	1.455967	-0.174995	0.541990
H217	H	0.955986	-0.674980	-0.042475
H218	H	1.455986	-0.174980	0.457525
C219	C	0.920153	-0.007972	0.184615
C220	C	1.420153	0.492028	0.684615
H221	H	0.950256	-0.040296	0.218222
H222	H	1.450256	0.459704	0.718222
H223	H	0.947317	0.020577	0.154857
H224	H	1.447317	0.520577	0.654857
H225	H	0.897181	-0.041045	0.154901
H226	H	1.397181	0.458955	0.654901
C227	C	0.410524	-0.009432	-0.089306
C228	C	0.910524	0.490568	0.410694
H229	H	0.457413	-0.000665	-0.083214
H230	H	0.957413	0.499335	0.416786
H231	H	0.397466	-0.002634	-0.139094
H232	H	0.897466	0.497366	0.360906
H233	H	0.407882	-0.062306	-0.074386
H234	H	0.907882	0.437694	0.425614
C235	C	0.487959	-0.043880	-0.000186
C236	C	0.987959	0.456120	0.499814
H237	H	0.437852	-0.034303	-0.000205
H238	H	0.937852	0.465697	0.499795
H239	H	0.505017	-0.073497	0.042046
H240	H	1.005017	0.426503	0.542046
H241	H	0.505069	-0.073487	-0.042419
H242	H	1.005069	0.426513	0.457581
C243	C	0.920168	-0.007962	0.344687
C244	C	1.420168	0.492038	0.844687
H245	H	0.950275	-0.040282	0.311062
H246	H	1.450275	0.459718	0.811062
H247	H	0.897210	-0.041029	0.374443
H248	H	1.397210	0.458971	0.874443
H249	H	0.947336	0.020604	0.374401
H250	H	1.447336	0.520604	0.874401
H251	H	0.838595	-0.025592	0.430654
H252	H	1.338595	0.474408	0.930654
C253	C	0.920191	-0.007963	0.654820
C254	C	1.420191	0.492037	1.154820
H255	H	0.912952	-0.000187	0.603966
H256	H	1.412952	0.499813	1.103966
H257	H	0.915892	-0.061072	0.667323
H258	H	1.415892	0.438928	1.167323
H259	H	0.966029	0.000549	0.667287
H260	H	1.466029	0.500549	1.167287
C261	C	0.920207	-0.007956	0.814895
C262	C	1.420207	0.492044	1.314895
H263	H	0.950314	-0.040271	0.781268
H264	H	1.450314	0.459729	1.281268
H265	H	0.897251	-0.041028	0.844648
H266	H	1.397251	0.458972	1.344648
H267	H	0.947373	0.020610	0.844611
H268	H	1.447373	0.520610	1.344611
C269	C	0.707909	0.219991	0.814968
C270	C	1.207909	0.719991	1.314968
H271	H	0.715155	0.212224	0.865822
H272	H	1.215155	0.712224	1.365822
H273	H	0.662074	0.211481	0.802500
H274	H	1.162074	0.711481	1.302500
H275	H	0.712209	0.273104	0.802465
H276	H	1.212209	0.773104	1.302465
H277	H	0.722339	0.204478	0.665786
H278	H	1.222339	0.704478	1.165786
H279	H	0.789482	0.237614	0.568924
H280	H	1.289482	0.737614	1.068924
H281	H	0.789454	0.237612	0.430641
H282	H	1.289454	0.737612	0.930641
C283	C	0.707856	0.219963	0.344755
C284	C	1.207856	0.719963	0.844755
H285	H	0.677741	0.252274	0.311150
H286	H	1.177741	0.752274	0.811150
H287	H	0.730807	0.253040	0.374481
H288	H	1.230807	0.753040	0.874481
H289	H	0.680698	0.191388	0.374503
H290	H	1.180698	0.691388	0.874503
C291	C	0.586548	0.263407	-0.000158
C292	C	1.086548	0.763407	0.499842
H293	H	0.547058	0.306079	-0.000159
H294	H	1.047058	0.806079	0.499841
H295	H	0.614280	0.266906	-0.042379
H296	H	1.114280	0.766906	0.457621
H297	H	0.614225	0.266893	0.042087
H298	H	1.114225	0.766893	0.542087
