data_functionalizedCrystal
_audit_creation_method	'MofGen! by Chris Wilmer'
_symmetry_space_group_name_H-M	'P1'
_symmetry_Int_Tables_number	1
_symmetry_cell_setting	triclinic
loop_
_symmetry_equiv_pos_as_xyz
  x,y,z
_cell_length_a	16.625547
_cell_length_b	12.759395
_cell_length_c	12.759387
_cell_angle_alpha	89.979491
_cell_angle_beta	90.024633
_cell_angle_gamma	89.994264
loop_
_atom_site_label
_atom_site_type_symbol
_atom_site_fract_x
_atom_site_fract_y
_atom_site_fract_z
Zn1	Zn	0.320926	1.606345	-0.594050
Zn2	Zn	0.455781	1.606268	-0.418390
Zn3	Zn	0.320970	1.430644	-0.418387
Zn4	Zn	0.455724	1.430668	-0.594029
O5	O	0.388350	1.518481	-0.506214
O6	O	0.338820	1.753356	-0.570758
O7	O	0.437941	1.582929	-0.271368
O8	O	0.208132	1.453973	-0.441697
O9	O	0.437898	1.753299	-0.441701
O10	O	0.208099	1.583060	-0.570756
O11	O	0.338895	1.453898	-0.271366
O12	O	0.338840	1.283626	-0.441676
O13	O	0.437800	1.454015	-0.741053
O14	O	0.437843	1.283644	-0.570719
O15	O	0.338765	1.583084	-0.741068
O16	O	0.568606	1.582952	-0.441680
O17	O	0.568564	1.453940	-0.570722
C18	C	0.388340	1.245514	-0.506196
C19	C	0.388356	1.128737	-0.506213
C20	C	0.178041	1.518522	-0.506229
C21	C	0.088420	1.518540	-0.506235
C22	C	0.491614	1.128794	-0.640368
C23	C	0.543250	1.073962	-0.707449
C24	C	0.543260	0.964241	-0.707462
C25	C	0.491627	0.909349	-0.640389
C26	C	0.439991	0.964181	-0.573308
C27	C	0.439989	1.073905	-0.573300
C28	C	0.336729	0.964123	-0.439160
C29	C	0.336722	1.073845	-0.439140
C30	C	0.285096	0.909231	-0.372087
C31	C	0.233463	0.964064	-0.305000
C32	C	0.233456	1.073792	-0.304989
C33	C	0.285087	1.128677	-0.372060
C34	C	0.015638	1.518552	-0.506244
C35	C	-0.075671	1.518557	-0.506252
C36	C	-0.148447	1.518555	-0.506253
C37	C	-0.239761	1.518561	-0.506259
C38	C	0.597841	1.518469	-0.506222
C39	C	0.687462	1.518560	-0.506261
C40	C	0.388271	1.518561	-0.780247
C41	C	0.388238	1.518594	-0.897024
C42	C	0.388361	1.792515	-0.506233
C43	C	0.388365	1.909291	-0.506241
C44	C	0.285119	1.653003	-0.897060
C45	C	0.233547	1.720223	-0.951939
C46	C	0.233518	1.720248	-1.061661
C47	C	0.285064	1.653045	-1.116506
C48	C	0.336635	1.585826	-1.061627
C49	C	0.336661	1.585810	-0.951903
C50	C	0.439749	1.451413	-1.061591
C51	C	0.439783	1.451391	-0.951869
C52	C	0.491295	1.384210	-1.116436
C53	C	0.542872	1.316995	-1.061557
C54	C	0.542899	1.316973	-0.951829
C55	C	0.491355	1.384172	-0.896990
C56	C	0.388371	1.518463	-0.233246
C57	C	0.388177	1.518632	-0.116470
H58	H	0.491618	1.218136	-0.640357
H59	H	0.191424	0.919362	-0.250399
H60	H	0.491632	0.820008	-0.640414
H61	H	0.191519	1.774977	-1.106343
H62	H	0.585287	1.118668	-0.762060
H63	H	0.285028	1.653063	-1.205848
H64	H	0.491264	1.384232	-1.205778
H65	H	0.585302	0.919597	-0.762090
H66	H	0.285105	0.819890	-0.372107
H67	H	0.191578	1.774936	-0.907272
H68	H	0.584832	1.262278	-1.106221
H69	H	0.191402	1.118430	-0.250371
H70	H	0.584887	1.262223	-0.907153
H71	H	0.285088	1.218018	-0.372054
H72	H	0.285145	1.652999	-0.807719
H73	H	0.491376	1.384165	-0.807649
