data_functionalizedCrystal
_audit_creation_method	'MofGen! by Chris Wilmer'
_symmetry_space_group_name_H-M	'P1'
_symmetry_Int_Tables_number	1
_symmetry_cell_setting	triclinic
loop_
_symmetry_equiv_pos_as_xyz
  x,y,z
_cell_length_a	15.298068
_cell_length_b	13.897448
_cell_length_c	15.296720
_cell_angle_alpha	80.351680
_cell_angle_beta	88.354818
_cell_angle_gamma	80.320155
loop_
_atom_site_label
_atom_site_type_symbol
_atom_site_fract_x
_atom_site_fract_y
_atom_site_fract_z
Zn1	Zn	1.253389	0.286950	-0.727378
Zn2	Zn	1.278656	0.416497	-0.580916
Zn3	Zn	1.132268	0.277577	-0.555545
Zn4	Zn	1.106887	0.470573	-0.701942
O5	O	1.192800	0.362899	-0.641445
O6	O	1.379316	0.285426	-0.729213
O7	O	1.280434	0.371516	-0.454987
O8	O	1.148383	0.143835	-0.578366
O9	O	1.397879	0.380604	-0.621608
O10	O	1.237370	0.150721	-0.704612
O11	O	1.172884	0.269452	-0.436347
O12	O	1.006326	0.321887	-0.553701
O13	O	1.105124	0.472768	-0.827879
O14	O	0.987679	0.463680	-0.661259
O15	O	1.212759	0.337861	-0.846567
O16	O	1.255822	0.558656	-0.596943
O17	O	1.129624	0.598385	-0.685860
C18	C	0.965220	0.397635	-0.601967
C19	C	0.867857	0.412523	-0.585099
C20	C	1.192731	0.613521	-0.641418
C21	C	1.192777	0.720733	-0.641449
C22	C	0.554687	0.256736	-0.762005
C23	C	0.646164	0.242752	-0.777859
C24	C	0.701591	0.285193	-0.729670
C25	C	0.665534	0.341622	-0.665626
C26	C	0.574047	0.355613	-0.649776
C27	C	0.720951	0.384070	-0.617440
C28	C	0.684893	0.440499	-0.553396
C29	C	0.593416	0.454487	-0.537549
C30	C	0.537988	0.412046	-0.585737
C31	C	0.812438	0.370079	-0.633290
C32	C	0.831798	0.468956	-0.521061
C33	C	0.740321	0.482940	-0.505208
C34	C	1.192852	0.917028	-0.641527
C35	C	1.192807	0.807796	-0.641486
C36	C	1.421268	0.328029	-0.681078
C37	C	1.518628	0.313169	-0.697967
C38	C	1.153292	0.412392	-0.869891
C39	C	1.136456	0.433483	-0.967241
C40	C	1.192880	1.111303	-0.641505
C41	C	1.192891	1.004096	-0.641554
C42	C	1.313163	0.211985	-1.280575
C43	C	1.328987	0.192170	-1.189111
C44	C	1.280855	0.252496	-1.133639
C45	C	1.216897	0.332642	-1.169640
C46	C	1.201077	0.352464	-1.261114
C47	C	1.168769	0.392975	-1.114178
C48	C	1.104811	0.473120	-1.150179
C49	C	1.088993	0.492938	-1.241644
C50	C	1.137125	0.432611	-1.297116
C51	C	1.184590	0.373153	-1.022704
C52	C	1.072504	0.513631	-1.003243
C53	C	1.056680	0.533446	-1.094707
C54	C	1.232205	0.313522	-0.413897
C55	C	1.249211	0.292133	-0.316577
H56	H	0.776076	0.273800	-0.742579
C57	C	1.018643	0.581093	-1.281259
C58	C	0.939026	0.563394	-1.332226
C59	C	0.868674	0.651546	-1.371845
C60	C	0.877940	0.757397	-1.360496
C61	C	0.957561	0.775101	-1.309526
C62	C	1.027912	0.686949	-1.269908
H63	H	0.932163	0.485033	-1.340630
H64	H	0.809734	0.638440	-1.409576
H65	H	0.825862	0.822652	-1.389824
H66	H	0.964423	0.853462	-1.301123
H67	H	1.086853	0.700055	-1.232176
H68	H	1.004604	0.598701	-1.124032
C69	C	1.254935	0.284993	-0.983108
C70	C	1.245650	0.179152	-0.994473
C71	C	1.315998	0.090985	-0.954878
C72	C	1.395631	0.108659	-0.903917
C73	C	1.404918	0.214505	-0.892550
C74	C	1.334570	0.302672	-0.932145
H75	H	1.186699	0.166065	-1.032199
H76	H	1.309122	0.012632	-0.963293
H77	H	1.447706	0.043393	-0.874607
H78	H	1.463870	0.227592	-0.854824
H79	H	1.341446	0.381026	-0.923730
C80	C	0.685826	0.180680	-0.848298
C81	C	0.624865	0.133990	-0.901302
C82	C	0.664528	0.071912	-0.971744
C83	C	0.765153	0.056523	-0.989183
C84	C	0.826121	0.103213	-0.936178
C85	C	0.786458	0.165292	-0.865735
H86	H	0.550371	0.145381	-0.888394
H87	H	0.619396	0.037348	-1.010982
H88	H	0.794515	0.010569	-1.041329
H89	H	0.900615	0.091823	-0.949086
H90	H	0.831590	0.199855	-0.826498
C91	C	1.019545	0.579994	-0.942235
C92	C	0.961663	0.535058	-0.867440
C93	C	0.908708	0.601416	-0.806428
C94	C	0.913635	0.712709	-0.820212
C95	C	0.971519	0.757651	-0.895012
C96	C	1.024474	0.691293	-0.956023
H97	H	0.958014	0.452666	-0.857233
H98	H	0.865858	0.568146	-0.751057
H99	H	0.874434	0.761832	-0.775048
H100	H	0.975168	0.840043	-0.905218
H101	H	1.067324	0.724563	-1.011394
H102	H	1.293743	0.236358	-1.059165
H103	H	0.841787	0.324133	-0.685435
C104	C	0.553747	0.516563	-0.467105
C105	C	0.484308	0.610173	-0.494042
C106	C	0.444640	0.672248	-0.423599
C107	C	0.474409	0.640713	-0.326219
C108	C	0.543852	0.547097	-0.299277
C109	C	0.583520	0.485022	-0.369720
H110	H	0.462267	0.633522	-0.566133
H111	H	0.393234	0.741549	-0.443544
H112	H	0.445044	0.686664	-0.274073
H113	H	0.565892	0.523748	-0.227186
H114	H	0.634926	0.415722	-0.349776
H115	H	1.381063	0.126918	-1.159806
C116	C	0.700650	0.545015	-0.434765
C117	C	0.730419	0.513481	-0.337384
C118	C	0.690746	0.575555	-0.266942
C119	C	0.621305	0.669163	-0.293880
C120	C	0.591532	0.700701	-0.391265
C121	C	0.631204	0.638627	-0.461708
H122	H	0.781827	0.444183	-0.317439
H123	H	0.712786	0.552208	-0.194851
H124	H	0.591937	0.715114	-0.241734
H125	H	0.540124	0.770000	-0.411211
H126	H	0.609164	0.661974	-0.533799
C127	C	1.366103	0.145635	-1.341593
C128	C	1.348700	0.167440	-1.442205
C129	C	1.401646	0.101085	-1.503224
C130	C	1.471993	0.012924	-1.463631
C131	C	1.489398	-0.008886	-1.363014
C132	C	1.436453	0.057470	-1.301995
H133	H	1.296622	0.232706	-1.471518
H134	H	1.388761	0.117230	-1.577708
H135	H	1.511186	-0.036196	-1.508801
H136	H	1.541477	-0.074151	-1.333701
H137	H	1.449338	0.041325	-1.227511
H138	H	0.509550	0.222193	-0.801238
H139	H	0.463498	0.423437	-0.572839
H140	H	0.876927	0.503520	-0.481826
H141	H	1.124244	0.448741	-1.371595
