data_functionalizedCrystal
_audit_creation_method	'MofGen! by Chris Wilmer'
_symmetry_space_group_name_H-M	'P1'
_symmetry_Int_Tables_number	1
_symmetry_cell_setting	triclinic
loop_
_symmetry_equiv_pos_as_xyz
  x,y,z
_cell_length_a	16.959455
_cell_length_b	16.625546
_cell_length_c	16.959447
_cell_angle_alpha	89.967784
_cell_angle_beta	89.979626
_cell_angle_gamma	90.019488
loop_
_atom_site_label
_atom_site_type_symbol
_atom_site_fract_x
_atom_site_fract_y
_atom_site_fract_z
Zn1	Zn	1.208371	-0.321050	-0.447026
Zn2	Zn	1.208288	-0.455897	-0.314843
Zn3	Zn	1.076199	-0.321075	-0.314849
Zn4	Zn	1.076158	-0.455837	-0.446968
O5	O	1.142254	-0.388465	-0.380921
O6	O	1.318971	-0.338952	-0.429513
O7	O	1.190748	-0.438049	-0.204233
O8	O	1.093784	-0.208239	-0.332410
O9	O	1.318910	-0.438024	-0.332399
O10	O	1.190890	-0.208221	-0.429520
O11	O	1.093703	-0.338995	-0.204238
O12	O	0.965583	-0.338937	-0.332354
O13	O	1.093714	-0.437921	-0.557586
O14	O	0.965553	-0.437946	-0.429420
O15	O	1.190850	-0.338894	-0.557629
O16	O	1.190709	-0.568722	-0.332342
O17	O	1.093634	-0.568677	-0.429414
C18	C	0.936888	-0.388439	-0.380882
C19	C	0.849031	-0.388447	-0.380883
C20	C	0.477513	-0.440000	-0.330328
C21	C	0.477598	-0.336996	-0.431611
C22	C	0.560144	-0.336983	-0.431592
C23	C	0.601378	-0.388480	-0.380941
C24	C	0.560067	-0.439990	-0.330309
C25	C	0.601461	-0.285479	-0.482228
C26	C	0.684012	-0.285464	-0.482211
C27	C	0.725248	-0.336958	-0.431556
C28	C	0.683932	-0.388470	-0.380922
C29	C	0.725166	-0.439967	-0.330271
C30	C	0.683851	-0.491476	-0.279632
C31	C	0.601302	-0.491484	-0.279654
C32	C	0.807797	-0.336950	-0.431534
C33	C	0.807720	-0.439957	-0.330252
C34	C	1.142179	-0.597956	-0.380888
C35	C	1.142219	-0.687577	-0.380901
C36	C	1.142357	-1.015752	-0.380983
C37	C	1.142316	-0.924444	-0.380962
C38	C	1.142288	-0.851667	-0.380941
C39	C	1.142248	-0.760353	-0.380922
C40	C	1.348422	-0.388492	-0.380962
C41	C	1.436279	-0.388503	-0.380979
C42	C	1.142287	-0.388398	-0.587090
C43	C	1.142301	-0.388370	-0.674946
C44	C	1.142351	-0.178156	-0.380972
C45	C	1.142392	-0.088535	-0.380994
C46	C	1.091821	-0.439844	-1.046402
C47	C	1.192970	-0.336726	-1.046442
C48	C	1.192949	-0.336743	-0.963896
C49	C	1.142364	-0.388312	-0.922600
C50	C	1.091800	-0.439864	-0.963849
C51	C	1.243517	-0.285197	-0.922641
C52	C	1.243499	-0.285213	-0.840090
C53	C	1.192909	-0.336779	-0.798792
C54	C	1.142343	-0.388332	-0.840046
C55	C	1.091758	-0.439902	-0.798749
C56	C	1.041187	-0.491452	-0.840002
C57	C	1.041211	-0.491430	-0.922551
C58	C	1.192886	-0.336800	-0.716243
C59	C	1.091737	-0.439922	-0.716196
C60	C	1.142267	-0.388473	-0.175555
C61	C	1.142406	-0.388274	-0.087699
H62	H	0.717435	-0.533409	-0.238396
O63	O	0.852194	-0.495496	-0.275615
H64	H	0.836348	-0.558799	-0.289063
H65	H	0.567882	-0.243558	-0.523470
H66	H	1.234158	-0.294745	-1.080071
O67	O	0.986625	-0.547071	-0.795460
H68	H	0.995109	-0.538418	-0.731129
H69	H	0.841432	-0.295014	-0.472765
H70	H	1.050537	-0.481909	-0.682578
O71	O	1.298036	-0.229609	-0.795602
H72	H	1.338229	-0.265711	-0.757987
H73	H	1.000041	-0.533402	-0.956146
H74	H	1.234062	-0.294831	-0.682659
H75	H	0.567656	-0.533419	-0.238426
H76	H	0.717644	-0.243523	-0.523444
H77	H	0.443871	-0.481935	-0.289097
O78	O	0.433130	-0.281449	-0.486235
H79	H	0.368788	-0.290105	-0.477737
O80	O	1.037274	-0.495440	-1.090888
H81	H	1.045784	-0.486767	-1.155228
O82	O	1.298045	-0.229549	-0.967177
H83	H	1.289545	-0.238178	-1.031509
