data_functionalizedCrystal
_audit_creation_method	'MofGen! by Chris Wilmer'
_symmetry_space_group_name_H-M	'P1'
_symmetry_Int_Tables_number	1
_symmetry_cell_setting	triclinic
loop_
_symmetry_equiv_pos_as_xyz
  x,y,z
_cell_length_a	18.215407
_cell_length_b	15.299816
_cell_length_c	18.215399
_cell_angle_alpha	99.657378
_cell_angle_beta	89.982187
_cell_angle_gamma	80.345132
loop_
_atom_site_label
_atom_site_type_symbol
_atom_site_fract_x
_atom_site_fract_y
_atom_site_fract_z
Zn1	Zn	1.175788	-0.359210	-0.466849
Zn2	Zn	1.196992	-0.510040	-0.365102
Zn3	Zn	1.052723	-0.359223	-0.343803
Zn4	Zn	1.073973	-0.509974	-0.488122
O5	O	1.124869	-0.434612	-0.415969
O6	O	1.281588	-0.379239	-0.453363
O7	O	1.177835	-0.490067	-0.259297
O8	O	1.051280	-0.233009	-0.342309
O9	O	1.297167	-0.490054	-0.378610
O10	O	1.141696	-0.232999	-0.432710
O11	O	1.071841	-0.379263	-0.243649
O12	O	0.952554	-0.379199	-0.362936
O13	O	1.087498	-0.489942	-0.588280
O14	O	0.968167	-0.489955	-0.468967
O15	O	1.162302	-0.379175	-0.572651
O16	O	1.198441	-0.636244	-0.399238
O17	O	1.108059	-0.636196	-0.489620
C18	C	0.933657	-0.434572	-0.415949
C19	C	0.851859	-0.434577	-0.415961
C20	C	0.578705	-0.377022	-0.454984
C21	C	0.655561	-0.377007	-0.454979
C22	C	0.671779	-0.492231	-0.376975
C23	C	0.594924	-0.492249	-0.376984
C24	C	0.548388	-0.434640	-0.415987
C25	C	0.702100	-0.434607	-0.415973
C26	C	0.785431	-0.434591	-0.415968
C27	C	0.465052	-0.434656	-0.415993
C28	C	1.157877	-0.668946	-0.449065
C29	C	1.172065	-0.769194	-0.463248
C30	C	1.023947	-1.052100	-0.314851
C31	C	1.010613	-0.957911	-0.301527
C32	C	1.050975	-0.910727	-0.341956
C33	C	1.104673	-0.957741	-0.395711
C34	C	1.118004	-1.051940	-0.409041
C35	C	1.145032	-0.910567	-0.436145
C36	C	1.198730	-0.957581	-0.489901
C37	C	1.212060	-1.051770	-0.503227
C38	C	1.171698	-1.098954	-0.462799
C39	C	1.131701	-0.816369	-0.422816
C40	C	1.225758	-0.816209	-0.517006
C41	C	1.239092	-0.910398	-0.530330
C42	C	1.316828	-0.434652	-0.415990
C43	C	1.398629	-0.434670	-0.415999
C44	C	1.124905	-0.434550	-0.607913
C45	C	1.124920	-0.434523	-0.689709
C46	C	1.091753	-0.199363	-0.382760
C47	C	1.077640	-0.099114	-0.368609
C48	C	1.163880	-0.376793	-0.869758
C49	C	1.163885	-0.376767	-0.946613
C50	C	1.085993	-0.492114	-0.962877
C51	C	1.085984	-0.492135	-0.886023
C52	C	1.124932	-0.434476	-0.839466
C53	C	1.124946	-0.434428	-0.993175
C54	C	1.124951	-0.434400	-1.076505
C55	C	1.124926	-0.434502	-0.756130
C56	C	1.124866	-0.434609	-0.224763
C57	C	1.124958	-0.434381	-0.142932
H58	H	0.540817	-0.330112	-0.486742
H59	H	1.054263	-0.539106	-0.861359
C60	C	0.951550	-0.906197	-0.242404
H61	H	0.949385	-0.843342	-0.240262
H62	H	0.964531	-0.921661	-0.195152
H63	H	0.904287	-0.921674	-0.255330
C64	C	1.206732	-0.313320	-0.979933
H65	H	1.229929	-0.278991	-0.941196
H66	H	1.173052	-0.274006	-1.004361
H67	H	1.243661	-0.347826	-1.014789
C68	C	1.043160	-0.555542	-1.014090
H69	H	1.019958	-0.589893	-0.985039
H70	H	1.076850	-0.594836	-1.049621
H71	H	1.006236	-0.521022	-1.039195
H72	H	0.570241	-0.539174	-0.345228
H73	H	1.087979	-0.778098	-0.379048
H74	H	0.680241	-0.330090	-0.486736
C75	C	0.722968	-0.555587	-0.334067
H76	H	0.773082	-0.547318	-0.339639
H77	H	0.718931	-0.616207	-0.353319
H78	H	0.708477	-0.542308	-0.282761
C79	C	1.036314	-0.807122	-0.327294
H80	H	0.998558	-0.785879	-0.289485
H81	H	1.020546	-0.785780	-0.371754
H82	H	1.080795	-0.785786	-0.311581
H83	H	0.991087	-1.090525	-0.281943
H84	H	1.195591	-0.329841	-0.831852
H85	H	1.182554	-1.175650	-0.473642
H86	H	1.282813	-0.948690	-0.574098
C87	C	1.271122	-1.103484	-0.562360
H88	H	1.293255	-1.061896	-0.584525
H89	H	1.248154	-1.140229	-0.599600
H90	H	1.308404	-1.140221	-0.539428
H91	H	1.258623	-0.777793	-0.549928
