data_functionalizedCrystal
_audit_creation_method	'MofGen! by Chris Wilmer'
_symmetry_space_group_name_H-M	'P1'
_symmetry_Int_Tables_number	1
_symmetry_cell_setting	triclinic
loop_
_symmetry_equiv_pos_as_xyz
  x,y,z
_cell_length_a	17.699077
_cell_length_b	14.519731
_cell_length_c	16.776229
_cell_angle_alpha	89.992369
_cell_angle_beta	89.993415
_cell_angle_gamma	83.484715
loop_
_atom_site_label
_atom_site_type_symbol
_atom_site_fract_x
_atom_site_fract_y
_atom_site_fract_z
O1	O	1.004422	0.116597	-0.066279
O2	O	1.337756	0.449930	0.267054
O3	O	1.671089	0.783264	0.600387
O4	O	0.784088	0.131776	-0.066284
O5	O	1.117421	0.465109	0.267050
O6	O	1.450755	0.798442	0.600383
O7	O	0.900089	-0.010076	-0.066274
O8	O	1.233422	0.323258	0.267059
O9	O	1.566755	0.656591	0.600393
O10	O	0.888422	0.258448	-0.066289
O11	O	1.221755	0.591782	0.267045
O12	O	1.555088	0.925115	0.600378
O13	O	0.900073	-0.010085	0.066302
O14	O	1.233407	0.323249	0.399636
O15	O	1.566740	0.656582	0.732969
O16	O	0.784072	0.131767	0.066293
O17	O	1.117406	0.465100	0.399626
O18	O	1.450739	0.798434	0.732960
O19	O	1.004407	0.116588	0.066297
O20	O	1.337740	0.449922	0.399630
O21	O	1.671074	0.783255	0.732964
Zn22	Zn	0.894237	0.124176	0.087344
Zn23	Zn	1.227571	0.457510	0.420678
Zn24	Zn	1.560904	0.790843	0.754011
Zn25	Zn	0.894258	0.124188	-0.087331
Zn26	Zn	1.227591	0.457521	0.246003
Zn27	Zn	1.560924	0.790854	0.579336
O28	O	0.888406	0.258440	0.066288
O29	O	1.221740	0.591773	0.399621
O30	O	1.555073	0.925106	0.732954
C31	C	0.755881	0.131228	0.000004
C32	C	1.089215	0.464562	0.333338
C33	C	1.422548	0.797895	0.666671
C34	C	0.671858	0.129599	0.000003
C35	C	1.005192	0.462933	0.333336
C36	C	1.338525	0.796266	0.666670
C37	C	0.632380	0.128827	0.072271
C38	C	0.965714	0.462161	0.405605
C39	C	1.299047	0.795494	0.738938
C40	C	0.553433	0.127282	0.072272
C41	C	0.886767	0.460615	0.405606
C42	C	1.220100	0.793949	0.738939
C43	C	0.513965	0.126516	0.000004
C44	C	0.847298	0.459849	0.333337
C45	C	1.180632	0.793182	0.666671
C46	C	0.553449	0.127285	-0.072270
C47	C	0.886782	0.460619	0.261063
C48	C	1.220116	0.793952	0.594397
C49	C	0.632395	0.128824	-0.072270
C50	C	0.965729	0.462157	0.261063
C51	C	1.299062	0.795490	0.594397
C52	C	0.235067	0.121079	-0.072271
C53	C	0.568401	0.454412	0.261062
C54	C	0.901734	0.787746	0.594396
C55	C	0.156115	0.119543	-0.072265
C56	C	0.489449	0.452877	0.261068
C57	C	0.822782	0.786210	0.594401
C58	C	0.156106	0.119537	0.072271
C59	C	0.489439	0.452871	0.405604
C60	C	0.822772	0.786204	0.738938
C61	C	0.235052	0.121076	0.072271
C62	C	0.568385	0.454409	0.405604
C63	C	0.901718	0.787743	0.738938
C64	C	0.274529	0.121840	-0.000002
C65	C	0.607863	0.455174	0.333331
C66	C	0.941196	0.788507	0.666664
C67	C	0.360133	0.123514	-0.000003
C68	C	0.693466	0.456848	0.333331
C69	C	1.026800	0.790181	0.666664
C70	C	0.428362	0.124849	0.000003
C71	C	0.761696	0.458182	0.333337
C72	C	1.095029	0.791515	0.666670
C73	C	0.899534	-0.044437	0.000014
C74	C	1.232868	0.288896	0.333348
C75	C	1.566201	0.622229	0.666681
C76	C	0.897896	-0.146811	0.000015
C77	C	1.231229	0.186523	0.333348
C78	C	1.564563	0.519856	0.666681
C79	C	0.896565	-0.229949	0.000013
C80	C	1.229898	0.103384	0.333346
C81	C	1.563232	0.436718	0.666680
C82	C	0.894902	-0.334251	0.000007
C83	C	1.228235	-0.000917	0.333340
C84	C	1.561568	0.332416	0.666673
C85	C	0.893582	-0.417384	0.000002
C86	C	1.226915	-0.084051	0.333335
C87	C	1.560248	0.249283	0.666668
C88	C	0.891919	-0.521692	-0.000003
C89	C	1.225252	-0.188359	0.333330
C90	C	1.558585	0.144974	0.666664
C91	C	1.032613	0.117136	0.000008
C92	C	1.365947	0.450469	0.333341
C93	C	1.699280	0.783802	0.666674
C94	C	1.116636	0.118764	0.000004
C95	C	1.449970	0.452098	0.333337
C96	C	1.783303	0.785431	0.666670
C97	C	0.888961	0.292801	-0.000002
C98	C	1.222294	0.626134	0.333331
C99	C	1.555627	0.959468	0.666664
C100	C	0.890599	0.395174	-0.000008
C101	C	1.223932	0.728508	0.333325
C102	C	1.557265	1.061841	0.666659
N103	N	0.894229	0.124168	0.206556
N104	N	1.227562	0.457501	0.539889
N105	N	1.560896	0.790834	0.873222
N106	N	0.894272	0.124189	-0.206542
N107	N	1.227605	0.457522	0.126791
N108	N	1.560939	0.790855	0.460125
C109	C	0.945610	0.061382	0.248277
C110	C	1.278943	0.394715	0.581610
C111	C	1.612276	0.728048	0.914944
C112	C	0.945614	0.061381	0.331729
C113	C	1.278947	0.394714	0.665062
C114	C	1.612281	0.728048	0.998396
C115	C	0.894240	0.124171	0.373459
C116	C	1.227574	0.457505	0.706792
C117	C	1.560907	0.790838	1.040125
C118	C	0.842854	0.186960	0.331731
C119	C	1.176187	0.520294	0.665065
C120	C	1.509521	0.853627	0.998398
C121	C	0.842847	0.186956	0.248281
C122	C	1.176180	0.520289	0.581614
C123	C	1.509513	0.853623	0.914947
C124	C	0.842881	0.186979	0.668279
C125	C	1.176215	0.520312	1.001612
C126	C	1.509548	0.853645	1.334945
C127	C	0.842894	0.186980	0.751735
C128	C	1.176227	0.520313	1.085068
C129	C	1.509561	0.853647	1.418402
C130	C	0.945649	0.061403	0.751727
C131	C	1.278982	0.394737	1.085060
C132	C	1.612315	0.728070	1.418394
C133	C	0.945641	0.061399	0.668276
C134	C	1.278975	0.394732	1.001610
C135	C	1.612308	0.728066	1.334943
C136	C	0.894253	0.124184	0.626557
C137	C	1.227586	0.457518	0.959890
C138	C	1.560919	0.790851	1.293223
C139	C	0.894248	0.124183	0.536068
C140	C	1.227581	0.457517	0.869401
C141	C	1.560914	0.790850	1.202735
C142	C	0.894248	0.124178	0.463945
C143	C	1.227582	0.457511	0.797279
C144	C	1.560915	0.790844	1.130612
H145	H	0.664509	0.129459	0.131121
H146	H	0.997842	0.462792	0.464454
H147	H	1.331176	0.796125	0.797787
H148	H	0.987452	0.010255	0.365698
H149	H	1.320785	0.343589	0.699032
H150	H	1.654118	0.676922	1.032365
N151	N	0.790372	0.251108	0.374342
N152	N	1.123706	0.584441	0.707675
N153	N	1.457039	0.917774	1.041009
N154	N	0.744499	0.307160	0.337078
N155	N	1.077832	0.640494	0.670411
N156	N	1.411165	0.973827	1.003745
H157	H	0.707431	0.352467	0.367169
H158	H	1.040765	0.685801	0.700503
H159	H	1.374098	1.019134	1.033836
N160	N	0.513135	0.126519	-0.146092
N161	N	0.846468	0.459852	0.187242
N162	N	1.179801	0.793186	0.520575
N163	N	0.515070	0.191676	-0.194485
N164	N	0.848403	0.525009	0.138849
N165	N	1.181736	0.858342	0.472182
H166	H	0.486599	0.191138	-0.246624
H167	H	0.819932	0.524471	0.086710
H168	H	1.153266	0.857804	0.420043
N169	N	0.790375	0.251106	0.205661
N170	N	1.123708	0.584440	0.538994
N171	N	1.457042	0.917773	0.872328
N172	N	0.814463	0.308313	0.159081
N173	N	1.147796	0.641646	0.492414
N174	N	1.481129	0.974979	0.825748
H175	H	0.777402	0.353620	0.128981
H176	H	1.110735	0.686953	0.462314
H177	H	1.444069	1.020286	0.795648
H178	H	0.664537	0.129454	-0.131118
H179	H	0.997870	0.462788	0.202215
H180	H	1.331204	0.796121	0.535548
H181	H	0.801040	0.238102	0.634317
H182	H	1.134374	0.571436	0.967650
H183	H	1.467707	0.904769	1.300984
H184	H	0.987447	0.010254	0.214306
H185	H	1.320781	0.343588	0.547640
H186	H	1.654114	0.676921	0.880973
N187	N	0.513120	0.126486	0.146100
N188	N	0.846454	0.459819	0.479433
N189	N	1.179787	0.793153	0.812767
N190	N	0.548368	0.127173	0.210619
N191	N	0.881701	0.460506	0.543953
N192	N	1.215035	0.793840	0.877286
H193	H	0.519898	0.126609	0.262764
H194	H	0.853232	0.459942	0.596098
H195	H	1.186565	0.793275	0.929431
H196	H	0.267201	0.121699	-0.131121
H197	H	0.600534	0.455032	0.202213
H198	H	0.933867	0.788365	0.535546
N199	N	0.275380	0.121847	0.146084
N200	N	0.608713	0.455180	0.479418
N201	N	0.942046	0.788514	0.812751
N202	N	0.345867	0.123216	0.146073
N203	N	0.679200	0.456550	0.479406
N204	N	1.012534	0.789883	0.812740
H205	H	0.374350	0.123757	0.198205
H206	H	0.707683	0.457090	0.531538
H207	H	1.041016	0.790424	0.864871
H208	H	0.123982	0.118918	-0.131119
H209	H	0.457316	0.452252	0.202215
H210	H	0.790649	0.785585	0.535548
N211	N	0.998133	-0.002734	0.625664
N212	N	1.331467	0.330599	0.958998
N213	N	1.664800	0.663933	1.292331
N214	N	1.044010	-0.058786	0.662926
N215	N	1.377343	0.274547	0.996259
N216	N	1.710676	0.607881	1.329592
H217	H	1.081085	-0.104081	0.632833
H218	H	1.414418	0.229252	0.966166
H219	H	1.747752	0.562586	1.299499
H220	H	0.123954	0.118911	0.131120
H221	H	0.457287	0.452244	0.464453
H222	H	0.790621	0.785577	0.797786
H223	H	0.987490	0.010277	0.785704
H224	H	1.320823	0.343610	1.119038
H225	H	1.654157	0.676944	1.452371
N226	N	0.790409	0.251129	0.794350
N227	N	1.123743	0.584462	1.127683
N228	N	1.457076	0.917796	1.461017
N229	N	0.744530	0.307182	0.757092
N230	N	1.077864	0.640515	1.090425
N231	N	1.411197	0.973848	1.423759
H232	H	0.707465	0.352486	0.787188
H233	H	1.040798	0.685819	1.120521
H234	H	1.374132	1.019152	1.453855
