data_functionalizedCrystal
_audit_creation_method	'MofGen! by Chris Wilmer'
_symmetry_space_group_name_H-M	'P1'
_symmetry_Int_Tables_number	1
_symmetry_cell_setting	triclinic
loop_
_symmetry_equiv_pos_as_xyz
  x,y,z
_cell_length_a	10.654550
_cell_length_b	7.540329
_cell_length_c	10.654550
_cell_angle_alpha	89.996554
_cell_angle_beta	95.515069
_cell_angle_gamma	89.999719
loop_
_atom_site_label
_atom_site_type_symbol
_atom_site_fract_x
_atom_site_fract_y
_atom_site_fract_z
O1	O	1.667839	0.147350	-0.176397
O2	O	1.302360	0.147382	-0.193203
O3	O	1.493502	0.147354	-0.002061
O4	O	1.476696	0.147378	-0.367539
O5	O	1.493491	-0.147611	-0.002059
O6	O	1.302349	-0.147583	-0.193201
O7	O	1.667827	-0.147616	-0.176395
Cu8	Cu	1.485087	-0.174532	-0.184798
Cu9	Cu	1.485100	0.174298	-0.184800
O10	O	1.476685	-0.147587	-0.367537
C11	C	1.255556	-0.000096	-0.191968
C12	C	1.116113	-0.000084	-0.188276
N13	N	1.485086	-0.419880	-0.184795
C14	C	1.036628	-0.000082	-0.300818
C15	C	0.905607	-0.000113	-0.297341
C16	C	0.933570	-0.000141	-0.068772
C17	C	1.064588	-0.000123	-0.072250
C18	C	1.714631	-0.000133	-0.177630
C19	C	1.854074	-0.000134	-0.181322
C20	C	1.492263	-0.000128	0.044738
C21	C	1.488571	-0.000125	0.184181
N22	N	1.485111	0.419647	-0.184793
C23	C	1.477925	-0.000102	-0.414336
C24	C	1.481617	-0.000093	-0.553779
C25	C	1.601112	-0.000134	0.263667
C26	C	1.597636	-0.000112	0.394688
C27	C	1.369066	-0.000079	0.366725
C28	C	1.372544	-0.000088	0.235706
H29	H	1.078574	-0.000064	-0.395294
H30	H	0.840894	-0.000115	-0.388984
H31	H	0.891602	-0.000183	0.025693
C32	C	1.728732	-0.000160	0.206986
H33	H	1.714689	-0.000182	0.117572
H34	H	1.775126	0.102696	0.234195
H35	H	1.775109	-0.103039	0.234213
C36	C	1.152028	-0.000117	0.051552
H37	H	1.102579	-0.000117	0.121151
H38	H	1.203729	-0.102970	0.054945
H39	H	1.203709	0.102765	0.054942
C40	C	1.721432	-0.000133	0.482117
H41	H	1.791026	-0.000170	0.432661
H42	H	1.724840	0.102730	0.533801
H43	H	1.724815	-0.103004	0.533814
C44	C	1.241448	-0.000063	0.423407
H45	H	1.255493	-0.000079	0.512821
H46	H	1.195061	0.102798	0.396187
H47	H	1.195062	-0.102936	0.396195
C48	C	1.248746	-0.000069	0.148261
H49	H	1.267437	-0.000057	0.062853
H50	H	1.201204	-0.102917	0.163987
H51	H	1.201233	0.102818	0.163984
