data_functionalizedCrystal
_audit_creation_method	'MofGen! by Chris Wilmer'
_symmetry_space_group_name_H-M	'P1'
_symmetry_Int_Tables_number	1
_symmetry_cell_setting	triclinic
loop_
_symmetry_equiv_pos_as_xyz
  x,y,z
_cell_length_a	15.538191
_cell_length_b	14.519709
_cell_length_c	14.185569
_cell_angle_alpha	76.819419
_cell_angle_beta	97.875798
_cell_angle_gamma	65.476119
loop_
_atom_site_label
_atom_site_type_symbol
_atom_site_fract_x
_atom_site_fract_y
_atom_site_fract_z
O1	O	1.228085	-0.271310	-0.083424
O2	O	0.954005	-0.164884	-0.083426
O3	O	1.098314	-0.354783	-0.083416
O4	O	1.083776	-0.081411	-0.083434
O5	O	1.140944	-0.410876	0.083422
O6	O	0.996635	-0.220977	0.083412
O7	O	1.270715	-0.327403	0.083414
Cu8	Cu	1.137568	-0.279312	0.098646
Cu9	Cu	1.087153	-0.212975	-0.098658
O10	O	1.126406	-0.137505	0.083404
C11	C	0.940243	-0.181796	-0.000007
C12	C	0.835725	-0.148628	-0.000007
C13	C	1.118952	-0.416961	0.000003
C14	C	1.116922	-0.518660	0.000004
C15	C	0.547381	-0.478139	-0.000001
C16	C	0.449167	-0.446949	-0.000004
C17	C	0.427017	-0.271514	-0.000015
C18	C	0.525232	-0.302691	-0.000008
C19	C	0.585407	-0.406004	-0.000002
C20	C	0.563258	-0.230557	-0.000008
C21	C	0.661463	-0.261730	-0.000006
C22	C	0.721643	-0.365037	-0.000003
C23	C	0.683612	-0.437177	0.000001
C24	C	0.503080	-0.127242	-0.000021
C25	C	0.541106	-0.055107	-0.000022
C26	C	0.639314	-0.086282	-0.000012
C27	C	0.699494	-0.189590	-0.000009
C28	C	0.677345	-0.014142	-0.000016
C29	C	0.775551	-0.045315	-0.000013
C30	C	0.797700	-0.220763	-0.000007
C31	C	1.109444	-0.891034	-0.000022
C32	C	1.111520	-0.787426	-0.000015
C33	C	1.113183	-0.704851	-0.000008
C34	C	1.115260	-0.601236	-0.000003
C35	C	1.284476	-0.310491	-0.000007
C36	C	1.388993	-0.343656	-0.000014
C37	C	1.105768	-0.075325	-0.000017
C38	C	1.107796	0.026376	-0.000025
N39	N	1.173034	-0.325973	0.237420
N40	N	1.051694	-0.166324	-0.237432
C41	C	0.947494	-0.029276	0.605054
C42	C	0.974366	-0.064616	0.710078
C43	C	1.102177	-0.232734	0.710047
C44	C	1.075313	-0.197409	0.605022
C45	C	0.997972	-0.095679	0.552534
C46	C	1.125791	-0.263812	0.552501
C47	C	1.098932	-0.228488	0.447485
C48	C	1.021596	-0.126760	0.394989
C49	C	0.971113	-0.060354	0.447517
C50	C	1.203137	-0.365540	0.604991
C51	C	1.253615	-0.431943	0.552471
C52	C	1.226752	-0.396622	0.447452
C53	C	1.149415	-0.294894	0.394957
C54	C	1.277234	-0.463027	0.394924
C55	C	1.250375	-0.427703	0.289908
C56	C	1.122556	-0.259569	0.289940
H57	H	0.846700	-0.304892	0.000004
H58	H	0.378009	-0.187395	-0.000024
H59	H	0.423115	-0.101863	-0.000026
H60	H	1.225005	-0.394295	0.690503
C61	C	0.474911	0.058527	-0.000022
H62	H	0.410979	0.066761	-0.000017
H63	H	0.471591	0.109029	-0.058198
H64	H	0.501325	0.069888	0.058169
C65	C	0.829668	-0.399335	-0.000002
H66	H	0.860055	-0.471191	-0.000006
H67	H	0.862663	-0.393552	0.058175
H68	H	0.832926	-0.354427	-0.058192
H69	H	0.732612	-0.521307	0.000012
C70	C	0.613578	-0.591780	0.000001
H71	H	0.576867	-0.630279	-0.000005
H72	H	0.667218	-0.627150	0.058177
H73	H	0.637473	-0.588013	-0.058190
C74	C	1.037471	-0.147674	0.232192
H75	H	1.028703	-0.136155	0.162127
H76	H	1.052182	-0.095351	0.249393
H77	H	0.979030	-0.142498	0.249419
H78	H	0.418212	-0.505697	-0.000005
H79	H	0.999731	-0.097999	0.309478
H80	H	0.908127	0.022480	0.404779
H81	H	0.933254	-0.010533	0.752835
C82	C	0.611148	0.099499	-0.000036
H83	H	0.647859	0.138000	-0.000044
H84	H	0.587231	0.095756	0.058136
H85	H	0.557520	0.134862	-0.058231
H86	H	0.806514	0.013421	-0.000004
H87	H	0.884508	0.053559	0.562316
C88	C	1.305888	-0.500743	0.232127
H89	H	1.278818	-0.465130	0.162066
H90	H	1.299962	-0.564631	0.249340
H91	H	1.373138	-0.517514	0.249317
C92	C	1.187244	-0.344632	0.767790
H93	H	1.196008	-0.356164	0.837856
H94	H	1.245687	-0.349833	0.750562
H95	H	1.172505	-0.396941	0.750582
C96	C	1.338681	-0.543841	0.610213
H97	H	1.347445	-0.555373	0.680280
H98	H	1.397124	-0.549042	0.592986
H99	H	1.323942	-0.596150	0.593006
H100	H	1.340213	-0.545854	0.437674
