data_functionalizedCrystal
_audit_creation_method	'MofGen! by Chris Wilmer'
_symmetry_space_group_name_H-M	'P1'
_symmetry_Int_Tables_number	1
_symmetry_cell_setting	triclinic
loop_
_symmetry_equiv_pos_as_xyz
  x,y,z
_cell_length_a	17.019282
_cell_length_b	19.188930
_cell_length_c	15.500227
_cell_angle_alpha	92.813384
_cell_angle_beta	91.034464
_cell_angle_gamma	83.267516
loop_
_atom_site_label
_atom_site_type_symbol
_atom_site_fract_x
_atom_site_fract_y
_atom_site_fract_z
O1	O	1.046067	0.089173	0.006008
O2	O	0.817235	0.099757	-0.011050
O3	O	0.938254	-0.007157	-0.002012
O4	O	0.925048	0.196087	-0.003030
O5	O	0.930910	-0.000694	0.141328
O6	O	0.809891	0.106219	0.132290
O7	O	1.038723	0.095635	0.149348
Cu8	Cu	0.923637	0.101517	0.153907
Cu9	Cu	0.932321	0.093875	-0.015609
O10	O	0.917704	0.202549	0.140310
C11	C	0.784287	0.102461	0.058438
C12	C	0.697054	0.100882	0.051937
C13	C	0.652073	0.103661	0.127019
C14	C	0.570110	0.102166	0.120912
C15	C	0.533128	0.097897	0.039723
C16	C	0.578115	0.095116	-0.035365
C17	C	0.660077	0.096606	-0.029258
C18	C	0.285854	0.093218	0.017373
C19	C	0.203885	0.091731	0.011272
C20	C	0.195886	0.098780	0.167550
C21	C	0.277850	0.100274	0.173650
C22	C	0.322830	0.097488	0.098562
C23	C	0.449348	0.096372	0.033479
C24	C	0.406610	0.099009	0.104807
C25	C	0.934154	-0.029939	0.069629
C26	C	0.932870	-0.107449	0.069540
C27	C	1.003880	-0.152016	0.074838
C28	C	1.002674	-0.224847	0.074734
C29	C	0.930454	-0.253106	0.069350
C30	C	0.859435	-0.208530	0.064047
C31	C	0.860642	-0.135701	0.064142
N32	N	0.872751	-0.359189	0.114016
N33	N	0.871608	-0.428374	0.113928
C34	C	0.926810	-0.472534	0.069061
N35	N	0.983210	-0.444897	0.024297
N36	N	0.984354	-0.375706	0.024389
C37	C	0.929136	-0.332076	0.069246
C38	C	0.996518	-0.596073	0.074245
C39	C	0.995310	-0.668904	0.074136
C40	C	0.852068	-0.652585	0.063457
C41	C	0.853278	-0.579756	0.063558
C42	C	0.925505	-0.551504	0.068956
C43	C	1.071671	0.092931	0.079858
C44	C	1.158905	0.094510	0.086354
C45	C	0.921804	0.225331	0.068667
C46	C	0.923089	0.302841	0.068750
N47	N	0.917534	0.106892	0.273136
N48	N	0.938430	0.088495	-0.134838
C49	C	0.968832	0.061606	0.322244
C50	C	0.964223	0.065677	0.412473
C51	C	0.908321	0.115039	0.453592
C52	C	0.857018	0.160327	0.404478
C53	C	0.861623	0.156252	0.314251
C54	C	0.891732	0.129708	0.725820
C55	C	0.887133	0.133781	0.816054
C56	C	0.994338	0.039130	0.824043
C57	C	0.998941	0.035062	0.733814
C58	C	0.947635	0.080347	0.684707
C59	C	0.903611	0.119203	0.545821
C60	C	0.952342	0.076179	0.592480
H61	H	0.173777	0.088257	-0.054846
H62	H	0.682176	0.107143	0.193132
N63	N	0.799911	0.210754	0.446464
N64	N	0.754112	0.251183	0.402605
H65	H	0.713779	0.286799	0.432255
H66	H	0.802816	-0.099414	0.059829
H67	H	0.849958	0.166583	0.685845
H68	H	0.533491	0.104418	0.182053
N69	N	0.778302	-0.681455	0.057948
N70	N	0.777232	-0.746480	0.057859
H71	H	0.725134	-0.766873	0.053964
N72	N	0.830030	0.184204	0.858067
N73	N	0.852238	0.229890	0.910240
H74	H	0.811912	0.265500	0.939912
N75	N	0.331782	0.090373	-0.059333
N76	N	0.298749	0.086563	-0.131816
H77	H	0.331188	0.084554	-0.185995
H78	H	0.159254	0.101046	0.228682
H79	H	0.547998	0.091635	-0.101472
N80	N	0.706037	0.093777	-0.105944
N81	N	0.779217	0.095107	-0.100481
H82	H	0.811677	0.093107	-0.154643
N83	N	1.075220	-0.270371	0.080145
N84	N	1.139700	-0.245137	0.084962
H85	H	1.190936	-0.277287	0.088785
N86	N	1.070286	-0.567198	0.079736
N87	N	1.071356	-0.502172	0.079821
H88	H	1.123455	-0.481779	0.083697
N89	N	1.067857	-0.714422	0.079536
N90	N	1.132335	-0.689184	0.084351
H91	H	1.183574	-0.721331	0.088164
N92	N	0.444397	0.103379	0.187728
N93	N	0.481828	0.154165	0.207989
H94	H	0.508524	0.157256	0.266552
H95	H	0.795454	-0.543468	0.059249
N96	N	1.009427	0.025727	0.550511
N97	N	1.081551	0.027300	0.565976
H98	H	1.121861	-0.008346	0.536339
H99	H	1.014356	0.021413	0.288771
H100	H	1.005993	0.028801	0.452456
H101	H	1.036107	0.002259	0.864033
N102	N	0.411569	0.092002	-0.049452
N103	N	0.374144	0.041216	-0.069727
H104	H	0.347461	0.038128	-0.128297
N105	N	1.056182	-0.015245	0.691838
N106	N	1.102069	-0.055597	0.735701
H107	H	1.142548	-0.091081	0.706060
H108	H	0.819850	0.193128	0.274268
N109	N	0.846503	0.169616	0.587829
N110	N	0.795237	0.149592	0.634564
H111	H	0.754902	0.185194	0.664236
N112	N	0.785670	-0.237404	0.058540
N113	N	0.784601	-0.302430	0.058457
H114	H	0.732502	-0.322824	0.054563
N115	N	0.315614	0.104616	0.256591
N116	N	0.275444	0.107083	0.323624
H117	H	0.302115	0.110144	0.382204
H118	H	1.062693	-0.129019	0.079230
