data_functionalizedCrystal
_audit_creation_method	'MofGen! by Chris Wilmer'
_symmetry_space_group_name_H-M	'P1'
_symmetry_Int_Tables_number	1
_symmetry_cell_setting	triclinic
loop_
_symmetry_equiv_pos_as_xyz
  x,y,z
_cell_length_a	19.288864
_cell_length_b	14.853567
_cell_length_c	17.766277
_cell_angle_alpha	89.997439
_cell_angle_beta	89.976791
_cell_angle_gamma	83.385589
loop_
_atom_site_label
_atom_site_type_symbol
_atom_site_fract_x
_atom_site_fract_y
_atom_site_fract_z
O1	O	0.921733	0.112464	-0.062829
O2	O	1.421733	0.612464	0.437171
O3	O	0.719523	0.127636	-0.062777
O4	O	1.219523	0.627636	0.437223
O5	O	0.826029	-0.011211	-0.062807
O6	O	1.326029	0.488789	0.437193
O7	O	0.815227	0.251310	-0.062800
O8	O	1.315227	0.751310	0.437200
O9	O	0.826011	-0.011218	0.062382
O10	O	1.326011	0.488782	0.562382
O11	O	0.719504	0.127629	0.062411
O12	O	1.219504	0.627629	0.562411
O13	O	0.921714	0.112457	0.062359
O14	O	1.421714	0.612457	0.562359
Cu15	Cu	0.820607	0.120042	0.073816
Cu16	Cu	1.320607	0.620042	0.573816
Cu17	Cu	0.820630	0.120051	-0.074234
Cu18	Cu	1.320630	0.620051	0.425766
O19	O	0.815208	0.251303	0.062389
O20	O	1.315208	0.751303	0.562389
C21	C	0.693636	0.127144	-0.000176
C22	C	1.193636	0.627144	0.499824
C23	C	0.616527	0.125679	-0.000157
C24	C	1.116527	0.625679	0.499843
C25	C	0.825530	-0.044800	-0.000215
C26	C	1.325530	0.455200	0.499785
C27	C	0.824064	-0.144875	-0.000221
C28	C	1.324064	0.355125	0.499779
C29	C	0.572106	0.207147	-0.000166
C30	C	1.072106	0.707147	0.499834
C31	C	0.499654	0.205770	-0.000175
C32	C	0.999654	0.705770	0.499825
C33	C	0.471627	0.122920	-0.000188
C34	C	0.971627	0.622920	0.499812
C35	C	0.516058	0.041441	-0.000175
C36	C	1.016058	0.541441	0.499825
C37	C	0.588508	0.042820	-0.000159
C38	C	1.088508	0.542820	0.499841
C39	C	0.363152	0.057794	-0.044075
C40	C	0.863152	0.557794	0.455925
C41	C	0.290703	0.056418	-0.044095
C42	C	0.790703	0.556418	0.455905
C43	C	0.248167	0.118664	-0.000234
C44	C	0.748167	0.618664	0.499766
C45	C	0.278088	0.182300	0.043638
C46	C	0.778088	0.682300	0.543638
C47	C	0.350538	0.183679	0.043654
C48	C	0.850538	0.683679	0.543654
C49	C	0.393068	0.121416	-0.000205
C50	C	0.893068	0.621416	0.499795
C51	C	0.125185	0.198645	-0.000252
C52	C	0.625185	0.698645	0.499748
C53	C	0.052732	0.197265	-0.000255
C54	C	0.552732	0.697265	0.499745
C55	C	0.069138	0.032933	-0.000263
C56	C	0.569138	0.532933	0.499737
C57	C	0.141589	0.034316	-0.000252
C58	C	0.641589	0.534316	0.499748
C59	C	0.169608	0.117174	-0.000250
C60	C	0.669608	0.617174	0.499750
C61	C	0.754596	-0.557014	-0.000189
C62	C	1.254596	-0.057014	0.499811
C63	C	0.881128	-0.579015	-0.000221
C64	C	1.381128	-0.079015	0.499779
C65	C	0.882507	-0.484989	-0.000226
C66	C	1.382507	0.015011	0.499774
C67	C	0.819930	-0.426971	-0.000211
C68	C	1.319930	0.073029	0.499789
C69	C	0.755974	-0.462979	-0.000191
C70	C	1.255974	0.037021	0.499809
C71	C	0.946462	-0.448973	-0.000239
C72	C	1.446462	0.051027	0.499761
C73	C	0.947844	-0.354942	-0.000242
C74	C	1.447844	0.145058	0.499758
C75	C	0.885266	-0.296923	-0.000233
C76	C	1.385266	0.203077	0.499767
C77	C	0.821307	-0.332936	-0.000214
C78	C	1.321307	0.167064	0.499786
C79	C	0.758730	-0.274918	-0.000199
C80	C	1.258730	0.225082	0.499801
C81	C	0.694770	-0.310930	-0.000185
C82	C	1.194770	0.189070	0.499815
C83	C	0.693396	-0.404960	-0.000181
C84	C	1.193396	0.095040	0.499819
C85	C	0.886641	-0.202893	-0.000236
C86	C	1.386641	0.297107	0.499764
C87	C	0.760107	-0.180883	-0.000201
C88	C	1.260107	0.319117	0.499799
C89	C	0.947601	0.112949	-0.000243
C90	C	1.447601	0.612949	0.499757
C91	C	1.024710	0.114414	-0.000268
C92	C	1.524710	0.614414	0.499732
C93	C	0.815707	0.284893	-0.000205
C94	C	1.315707	0.784893	0.499795
C95	C	0.817174	0.384968	-0.000204
C96	C	1.317174	0.884968	0.499796
N97	N	0.820597	0.120036	0.177946
N98	N	1.320597	0.620036	0.677946
N99	N	0.820646	0.120050	-0.178364
N100	N	1.320646	0.620050	0.321636
C101	C	0.867773	0.058585	0.217320
C102	C	1.367773	0.558585	0.717320
C103	C	0.867777	0.058581	0.296122
C104	C	1.367777	0.558581	0.796122
C105	C	0.820612	0.120043	0.335547
C106	C	1.320612	0.620043	0.835547
C107	C	0.773427	0.181499	0.296164
C108	C	1.273427	0.681499	0.796164
C109	C	0.773419	0.181495	0.217363
C110	C	1.273419	0.681495	0.717363
C111	C	0.811590	0.202186	0.460389
C112	C	1.311590	0.702186	0.960389
C113	C	0.811602	0.202191	0.539187
C114	C	1.311602	0.702191	1.039187
C115	C	0.820630	0.120054	0.578593
C116	C	1.320630	0.620054	1.078593
C117	C	0.829661	0.037908	0.539190
C118	C	1.329661	0.537908	1.039190
C119	C	0.829653	0.037905	0.460390
C120	C	1.329653	0.537905	0.960390
C121	C	0.820614	0.120053	0.420992
C122	C	1.320614	0.620053	0.920992
C123	C	0.867813	0.058593	0.703413
C124	C	1.367813	0.558593	1.203413
C125	C	0.867813	0.058588	0.782216
C126	C	1.367813	0.558588	1.282216
C127	C	0.773465	0.181514	0.782256
C128	C	1.273465	0.681514	1.282256
C129	C	0.773463	0.181511	0.703455
C130	C	1.273463	0.681511	1.203455
C131	C	0.820640	0.120052	0.664038
C132	C	1.320640	0.620052	1.164038
H133	H	0.594914	0.274617	-0.000166
H134	H	1.094914	0.774617	0.499834
N135	N	1.016828	-0.316112	-0.000260
N136	N	1.516828	0.183888	0.499740
H137	H	1.044252	-0.337290	-0.046674
H138	H	1.544252	0.162710	0.453326
H139	H	1.008152	-0.247747	-0.000233
H140	H	1.508152	0.252253	0.499767
H141	H	0.906226	0.008547	0.671318
H142	H	1.406226	0.508547	1.171318
H143	H	0.624677	-0.023524	-0.000151
H144	H	1.124677	0.476476	0.499849
H145	H	0.735050	0.231554	0.671394
H146	H	1.235050	0.731554	1.171394
N147	N	0.692612	-0.118309	-0.000191
N148	N	1.192612	0.381691	0.499809
H149	H	0.651889	-0.155393	-0.000183
H150	H	1.151889	0.344607	0.499817
H151	H	0.690418	-0.078818	0.046219
H152	H	1.190418	0.421182	0.546219
H153	H	0.147999	0.266113	-0.000239
H154	H	0.647999	0.766113	0.499761
H155	H	0.243457	0.232986	0.079354
H156	H	0.743457	0.732986	0.579354
N157	N	1.013947	-0.511557	-0.000257
N158	N	1.513947	-0.011557	0.499743
H159	H	1.041855	-0.500004	-0.046670
H160	H	1.541855	-0.000004	0.453330
H161	H	1.041785	-0.499985	0.046176
H162	H	1.541785	0.000015	0.546176
H163	H	0.177758	-0.032025	-0.000248
H164	H	0.677758	0.467975	0.499752
N165	N	0.839390	-0.050688	0.417892
N166	N	1.339390	0.449312	0.917892
H167	H	0.882381	-0.052798	0.385177
H168	H	1.382381	0.447202	0.885177
H169	H	0.845081	-0.102671	0.454857
H170	H	1.345081	0.397329	0.954857
H171	H	0.938716	-0.173576	-0.000242
H172	H	1.438716	0.326424	0.499758
N173	N	0.801859	0.290785	0.417893
N174	N	1.301859	0.790785	0.917893
H175	H	0.803223	0.278319	0.361995
H176	H	1.303223	0.778319	0.861995
H177	H	0.755327	0.325110	0.431689
H178	H	1.255327	0.825110	0.931689
H179	H	0.804254	0.269079	0.571263
H180	H	1.304254	0.769079	1.071263
H181	H	0.906186	0.008539	0.185229
H182	H	1.406186	0.508539	0.685229
N183	N	0.258433	-0.012212	-0.091413
N184	N	0.758433	0.487788	0.408587
H185	H	0.296372	-0.051443	-0.119188
H186	H	0.796372	0.448557	0.380812
H187	H	0.232212	-0.051437	-0.057775
H188	H	0.732212	0.448563	0.442225
N189	N	0.451730	0.293643	-0.000187
N190	N	0.951730	0.793643	0.499813
H191	H	0.480474	0.346341	-0.000182
H192	H	0.980474	0.846341	0.499818
H193	H	0.421342	0.296641	-0.046604
H194	H	0.921342	0.796641	0.453396
N195	N	0.918660	-0.007703	0.338602
N196	N	1.418660	0.492297	0.838602
H197	H	0.948544	-0.046638	0.301674
H198	H	1.448544	0.453362	0.801674
H199	H	0.949396	0.026719	0.371277
H200	H	1.449396	0.526719	0.871277
H201	H	0.837012	-0.028976	0.571273
H202	H	1.337012	0.471024	1.071273
N203	N	0.722587	0.247799	0.824769
N204	N	1.222587	0.747799	1.324769
H205	H	0.749162	0.287635	0.857448
H206	H	1.249162	0.787635	1.357448
H207	H	0.692713	0.286667	0.787815
H208	H	1.192713	0.786667	1.287815
N209	N	0.624417	-0.443803	-0.000153
N210	N	1.124417	0.056197	0.499847
H211	H	0.584982	-0.392784	-0.000146
H212	H	1.084982	0.107216	0.499854
H213	H	0.621096	-0.482342	-0.046558
H214	H	1.121096	0.017658	0.453442
N215	N	0.918709	-0.007680	0.824688
N216	N	1.418709	0.492320	1.324688
H217	H	0.948599	-0.046603	0.787757
H218	H	1.448599	0.453397	1.287757
H219	H	0.949438	0.026761	0.857356
H220	H	1.449438	0.526761	1.357356
H221	H	0.735022	0.231541	0.328267
H222	H	1.235022	0.731541	0.828267
H223	H	0.493234	-0.026016	-0.000196
H224	H	0.993234	0.473984	0.499804
H225	H	0.643820	-0.263680	-0.000167
H226	H	1.143820	0.236320	0.499833
N227	N	0.004838	0.285157	-0.000221
N228	N	0.504838	0.785157	0.499779
H229	H	0.013878	0.321341	-0.046615
H230	H	0.513878	0.821341	0.453385
H231	H	-0.045299	0.271668	-0.000185
H232	H	0.454701	0.771668	0.499815
H233	H	0.397779	0.007104	-0.079796
H234	H	0.897779	0.507104	0.420204
H235	H	0.374897	0.235492	0.079378
H236	H	0.874897	0.735492	0.579378
H237	H	0.932075	-0.626258	-0.000228
H238	H	1.432075	-0.126258	0.499772
N239	N	0.038919	-0.056429	-0.000269
N240	N	0.538919	0.443571	0.499731
H241	H	-0.013719	-0.044942	-0.000278
H242	H	0.486281	0.455058	0.499722
H243	H	0.055189	-0.092066	-0.046676
H244	H	0.555189	0.407934	0.453324
H245	H	0.735002	0.231537	0.185305
H246	H	1.235002	0.731537	0.685305
H247	H	0.702522	-0.586339	-0.000180
H248	H	1.202522	-0.086339	0.499820
