data_functionalizedCrystal
_audit_creation_method	'MofGen! by Chris Wilmer'
_symmetry_space_group_name_H-M	'P1'
_symmetry_Int_Tables_number	1
_symmetry_cell_setting	triclinic
loop_
_symmetry_equiv_pos_as_xyz
  x,y,z
_cell_length_a	15.944551
_cell_length_b	15.944551
_cell_length_c	13.596369
_cell_angle_alpha	89.993059
_cell_angle_beta	89.999164
_cell_angle_gamma	83.498738
loop_
_atom_site_label
_atom_site_type_symbol
_atom_site_fract_x
_atom_site_fract_y
_atom_site_fract_z
O1	O	1.114525	0.108333	-0.081691
O2	O	0.869975	0.121690	-0.081716
O3	O	0.998928	-0.007263	-0.081694
O4	O	0.985572	0.237286	-0.081713
O5	O	0.998915	-0.007270	0.081889
O6	O	0.869963	0.121683	0.081867
O7	O	1.114512	0.108327	0.081892
Zn8	Zn	0.992235	0.115004	0.107852
Zn9	Zn	0.992252	0.115013	-0.107676
O10	O	0.985559	0.237280	0.081870
C11	C	0.838675	0.121132	0.000073
C12	C	0.745429	0.119470	0.000064
C13	C	0.530572	0.035565	0.000089
C14	C	0.469558	0.074531	-0.080569
C15	C	0.574703	0.116462	0.000075
C16	C	0.469568	0.074543	0.080711
C17	C	0.409790	0.113551	0.000091
C18	C	0.514917	0.155450	-0.080649
C19	C	0.514933	0.155451	0.080703
C20	C	0.453937	0.194476	0.000025
C21	C	0.669705	0.118137	0.000065
C22	C	0.314789	0.111883	0.000094
C23	C	0.998367	-0.038561	0.000098
C24	C	0.996705	-0.131807	0.000098
C25	C	0.912801	-0.346663	0.000076
C26	C	0.951757	-0.407684	0.080736
C27	C	0.993698	-0.302533	0.000090
C28	C	0.951789	-0.407661	-0.080544
C29	C	0.990787	-0.467445	0.000078
C30	C	1.032676	-0.362325	0.080817
C31	C	1.032697	-0.362295	-0.080535
C32	C	1.071711	-0.423298	0.000145
C33	C	0.995372	-0.207530	0.000098
C34	C	0.989119	-0.562446	0.000078
C35	C	1.145813	0.108885	0.000101
C36	C	1.239059	0.110547	0.000104
C37	C	0.986120	0.268577	0.000076
C38	C	0.987782	0.361823	0.000069
N39	N	0.992230	0.114997	0.254944
N40	N	0.992264	0.115013	-0.254767
C41	C	0.992251	0.115014	0.656235
C42	C	0.992243	0.115012	0.544583
C43	C	0.992241	0.115006	0.455593
C44	C	0.992232	0.115003	0.343934
H45	H	0.420779	0.261683	-0.000025
H46	H	0.917567	-0.427735	-0.148740
Cl47	Cl	0.546011	0.208231	0.185982
Cl48	Cl	0.438550	0.021692	0.185990
Cl49	Cl	1.175472	-0.474497	0.000221
H50	H	0.563905	-0.031573	-0.000005
Cl51	Cl	0.545780	0.208241	-0.186047
H52	H	0.449454	0.040318	-0.148754
Cl53	Cl	0.809130	-0.295238	0.000183
H54	H	1.066858	-0.342337	0.149084
Cl55	Cl	0.898924	-0.438735	0.186009
Cl56	Cl	1.085487	-0.331207	-0.185814
