data_functionalizedCrystal
_audit_creation_method	'MofGen! by Chris Wilmer'
_symmetry_space_group_name_H-M	'P1'
_symmetry_Int_Tables_number	1
_symmetry_cell_setting	triclinic
loop_
_symmetry_equiv_pos_as_xyz
  x,y,z
_cell_length_a	21.395364
_cell_length_b	18.050589
_cell_length_c	21.395355
_cell_angle_alpha	90.012701
_cell_angle_beta	89.975484
_cell_angle_gamma	89.969537
loop_
_atom_site_label
_atom_site_type_symbol
_atom_site_fract_x
_atom_site_fract_y
_atom_site_fract_z
Zn1	Zn	0.957842	0.295829	-0.354286
Zn2	Zn	1.207842	0.545829	-0.104286
Zn3	Zn	1.457842	0.795829	0.145714
Zn4	Zn	1.707842	1.045829	0.395714
Zn5	Zn	0.957737	0.420001	-0.249519
Zn6	Zn	1.207737	0.670001	0.000481
Zn7	Zn	1.457737	0.920001	0.250481
Zn8	Zn	1.707737	1.170001	0.500481
Zn9	Zn	0.853057	0.295820	-0.249523
Zn10	Zn	1.103057	0.545820	0.000477
Zn11	Zn	1.353057	0.795820	0.250477
Zn12	Zn	1.603057	1.045820	0.500477
Zn13	Zn	0.853019	0.419973	-0.354259
Zn14	Zn	1.103019	0.669973	-0.104259
Zn15	Zn	1.353019	0.919973	0.145741
Zn16	Zn	1.603019	1.169973	0.395741
O17	O	0.905413	0.357906	-0.301897
O18	O	1.155413	0.607906	-0.051897
O19	O	1.405413	0.857906	0.198103
O20	O	1.655413	1.107906	0.448103
O21	O	1.045506	0.312317	-0.340398
O22	O	1.295506	0.562317	-0.090398
O23	O	1.545506	0.812317	0.159602
O24	O	1.795506	1.062317	0.409602
O25	O	0.943823	0.403536	-0.161842
O26	O	1.193823	0.653536	0.088158
O27	O	1.443823	0.903536	0.338158
O28	O	1.693823	1.153536	0.588158
O29	O	0.867016	0.191897	-0.263433
O30	O	1.117016	0.441897	-0.013433
O31	O	1.367016	0.691897	0.236567
O32	O	1.617016	0.941897	0.486567
O33	O	1.045429	0.403545	-0.263426
O34	O	1.295429	0.653545	-0.013426
O35	O	1.545429	0.903545	0.236574
O36	O	1.795429	1.153545	0.486574
O37	O	0.944001	0.191904	-0.340402
O38	O	1.194001	0.441904	-0.090402
O39	O	1.444001	0.691904	0.159598
O40	O	1.694001	0.941904	0.409598
O41	O	0.866915	0.312301	-0.161844
O42	O	1.116915	0.562301	0.088156
O43	O	1.366915	0.812301	0.338156
O44	O	1.616915	1.062301	0.588156
O45	O	0.765374	0.312274	-0.263407
O46	O	1.015374	0.562274	-0.013407
O47	O	1.265374	0.812274	0.236593
O48	O	1.515374	1.062274	0.486593
O49	O	0.866951	0.403497	-0.441941
O50	O	1.116951	0.653497	-0.191941
O51	O	1.366951	0.903497	0.058059
O52	O	1.616951	1.153497	0.308059
O53	O	0.765346	0.403488	-0.340356
O54	O	1.015346	0.653488	-0.090356
O55	O	1.265346	0.903488	0.159644
O56	O	1.515346	1.153488	0.409644
O57	O	0.943965	0.312289	-0.441960
O58	O	1.193965	0.562289	-0.191960
O59	O	1.443965	0.812289	0.058040
O60	O	1.693965	1.062289	0.308040
O61	O	0.943786	0.523922	-0.263401
O62	O	1.193786	0.773922	-0.013401
O63	O	1.443786	1.023922	0.236599
O64	O	1.693786	1.273922	0.486599
O65	O	0.866850	0.523901	-0.340353
O66	O	1.116850	0.773901	-0.090353
O67	O	1.366850	1.023901	0.159647
O68	O	1.616850	1.273901	0.409647
C69	C	0.742626	0.357878	-0.301879
C70	C	0.992626	0.607878	-0.051879
C71	C	1.242626	0.857878	0.198121
C72	C	1.492626	1.107878	0.448121
C73	C	0.672985	0.357883	-0.301887
C74	C	0.922985	0.607883	-0.051887
C75	C	1.172985	0.857883	0.198113
C76	C	1.422985	1.107883	0.448113
C77	C	0.171228	0.310515	-0.342050
C78	C	0.421228	0.560515	-0.092050
C79	C	0.671228	0.810515	0.157950
C80	C	0.921228	1.060515	0.407950
C81	C	0.236663	0.310510	-0.342050
C82	C	0.486663	0.560510	-0.092050
C83	C	0.736663	0.810510	0.157950
C84	C	0.986663	1.060510	0.407950
C85	C	0.269346	0.357929	-0.301911
C86	C	0.519346	0.607929	-0.051911
C87	C	0.769346	0.857929	0.198089
C88	C	1.019346	1.107929	0.448089
C89	C	0.236588	0.405370	-0.261780
C90	C	0.486588	0.655370	-0.011780
C91	C	0.736588	0.905370	0.238220
C92	C	0.986588	1.155370	0.488220
C93	C	0.171154	0.405379	-0.261786
C94	C	0.421154	0.655379	-0.011786
C95	C	0.671154	0.905379	0.238214
C96	C	0.921154	1.155379	0.488214
C97	C	0.372982	0.363679	-0.245444
C98	C	0.622982	0.613679	0.004556
C99	C	0.872982	0.863679	0.254556
C100	C	1.122982	1.113679	0.504556
C101	C	0.438415	0.363665	-0.245438
C102	C	0.688415	0.613665	0.004562
C103	C	0.938415	0.863665	0.254562
C104	C	1.188415	1.113665	0.504562
C105	C	0.471167	0.357904	-0.301894
C106	C	0.721167	0.607904	-0.051894
C107	C	0.971167	0.857904	0.198106
C108	C	1.221167	1.107904	0.448106
C109	C	0.438478	0.352142	-0.358358
C110	C	0.688478	0.602142	-0.108358
C111	C	0.938478	0.852142	0.141642
C112	C	1.188478	1.102142	0.391642
C113	C	0.373043	0.352152	-0.358364
C114	C	0.623043	0.602152	-0.108364
C115	C	0.873043	0.852152	0.141636
C116	C	1.123043	1.102152	0.391636
C117	C	0.340299	0.357924	-0.301901
C118	C	0.590299	0.607924	-0.051901
C119	C	0.840299	0.857924	0.198099
C120	C	1.090299	1.107924	0.448099
C121	C	0.574869	0.310463	-0.342025
C122	C	0.824869	0.560463	-0.092025
C123	C	1.074869	0.810463	0.157975
C124	C	1.324869	1.060463	0.407975
C125	C	0.640306	0.310463	-0.342026
C126	C	0.890306	0.560463	-0.092026
C127	C	1.140306	0.810463	0.157974
C128	C	1.390306	1.060463	0.407974
C129	C	0.640230	0.405319	-0.261750
C130	C	0.890230	0.655319	-0.011750
C131	C	1.140230	0.905319	0.238250
C132	C	1.390230	1.155319	0.488250
C133	C	0.574795	0.405323	-0.261755
C134	C	0.824795	0.655323	-0.011755
C135	C	1.074795	0.905323	0.238245
C136	C	1.324795	1.155323	0.488245
C137	C	0.542118	0.357892	-0.301891
C138	C	0.792118	0.607892	-0.051891
C139	C	1.042118	0.857892	0.198109
C140	C	1.292118	1.107892	0.448109
C141	C	0.905319	0.550858	-0.301887
C142	C	1.155319	0.800858	-0.051887
C143	C	1.405319	1.050858	0.198113
C144	C	1.655319	1.300858	0.448113
C145	C	0.905336	0.633404	-0.301904
C146	C	1.155336	0.883404	-0.051904
C147	C	1.405336	1.133404	0.198096
C148	C	1.655336	1.383404	0.448096
C149	C	0.863521	0.832870	-0.343736
C150	C	1.113521	1.082870	-0.093736
C151	C	1.363521	1.332870	0.156264
C152	C	1.613521	1.582870	0.406264
C153	C	0.848238	0.882297	-0.286563
C154	C	1.098238	1.132297	-0.036563
C155	C	1.348238	1.382297	0.213437
C156	C	1.598238	1.632297	0.463437
C157	C	0.905384	0.784534	-0.301912
C158	C	1.155384	1.034534	-0.051912
C159	C	1.405384	1.284534	0.198088
C160	C	1.655384	1.534534	0.448088
C161	C	0.920683	0.882190	-0.359092
C162	C	1.170683	1.132190	-0.109092
C163	C	1.420683	1.382190	0.140908
C164	C	1.670683	1.632190	0.390908
C165	C	0.905428	0.930519	-0.301926
C166	C	1.155428	1.180519	-0.051926
C167	C	1.405428	1.430519	0.198074
C168	C	1.655428	1.680519	0.448074
C169	C	0.890071	0.832873	-0.244709
C170	C	1.140071	1.082873	0.005291
C171	C	1.390071	1.332873	0.255291
C172	C	1.640071	1.582873	0.505291
C173	C	0.962543	0.832762	-0.317277
C174	C	1.212543	1.082762	-0.067277
C175	C	1.462543	1.332762	0.182723
C176	C	1.712543	1.582762	0.432723
C177	C	0.947282	0.882166	-0.260064
C178	C	1.197282	1.132166	-0.010064
C179	C	1.447282	1.382166	0.239936
C180	C	1.697282	1.632166	0.489936
C181	C	0.905356	0.700436	-0.301906
C182	C	1.155356	0.950436	-0.051906
C183	C	1.405356	1.200436	0.198094
C184	C	1.655356	1.450436	0.448094
C185	C	0.905455	1.014616	-0.301926
C186	C	1.155455	1.264616	-0.051926
C187	C	1.405455	1.514616	0.198074
C188	C	1.655455	1.764616	0.448074
C189	C	1.068837	0.357935	-0.301915
C190	C	1.318837	0.607935	-0.051915
C191	C	1.568837	0.857935	0.198085
C192	C	1.818837	1.107935	0.448085
C193	C	1.138478	0.357948	-0.301922
C194	C	1.388478	0.607948	-0.051922
C195	C	1.638478	0.857948	0.198078
C196	C	1.888478	1.107948	0.448078
C197	C	0.905501	1.164200	-0.301921
C198	C	1.155501	1.414200	-0.051921
C199	C	1.405501	1.664200	0.198079
C200	C	1.655501	1.914200	0.448079
C201	C	0.905477	1.081655	-0.301934
C202	C	1.155477	1.331655	-0.051934
C203	C	1.405477	1.581655	0.198066
C204	C	1.655477	1.831655	0.448066
C205	C	0.905465	0.357891	-0.465320
C206	C	1.155465	0.607891	-0.215320
C207	C	1.405465	0.857891	0.034680
C208	C	1.655465	1.107891	0.284680
C209	C	0.905488	0.357885	-0.534962
C210	C	1.155488	0.607885	-0.284962
C211	C	1.405488	0.857885	-0.034962
C212	C	1.655488	1.107885	0.215038
C213	C	0.945587	0.310391	-0.567686
C214	C	1.195587	0.560391	-0.317686
C215	C	1.445587	0.810391	-0.067686
C216	C	1.695587	1.060391	0.182314
C217	C	0.945586	0.310359	-0.633121
C218	C	1.195586	0.560359	-0.383121
C219	C	1.445586	0.810359	-0.133121
C220	C	1.695586	1.060359	0.116879
C221	C	0.905492	0.357834	-0.665830
C222	C	1.155492	0.607834	-0.415830
C223	C	1.405492	0.857834	-0.165830
C224	C	1.655492	1.107834	0.084170
C225	C	0.865386	0.405331	-0.633098
C226	C	1.115386	0.655331	-0.383098
C227	C	1.365386	0.905331	-0.133098
C228	C	1.615386	1.155331	0.116902
C229	C	0.865383	0.405356	-0.567664
C230	C	1.115383	0.655356	-0.317664
C231	C	1.365383	0.905356	-0.067664
C232	C	1.615383	1.155356	0.182336
C233	C	0.900513	0.424703	-0.769501
C234	C	1.150513	0.674703	-0.519501
C235	C	1.400513	0.924703	-0.269501
C236	C	1.650513	1.174703	-0.019501
C237	C	0.900519	0.424679	-0.834934
C238	C	1.150519	0.674679	-0.584934
C239	C	1.400519	0.924679	-0.334934
C240	C	1.650519	1.174679	-0.084934
C241	C	0.905496	0.357755	-0.867651
C242	C	1.155496	0.607755	-0.617651
C243	C	1.405496	0.857755	-0.367651
C244	C	1.655496	1.107755	-0.117651
C245	C	0.910480	0.290854	-0.834926
C246	C	1.160480	0.540854	-0.584926
C247	C	1.410480	0.790854	-0.334926
C248	C	1.660480	1.040854	-0.084926
C249	C	0.910477	0.290880	-0.769492
C250	C	1.160477	0.540880	-0.519492
C251	C	1.410477	0.790880	-0.269492
C252	C	1.660477	1.040880	-0.019492
C253	C	0.905490	0.357811	-0.736782
C254	C	1.155490	0.607811	-0.486782
C255	C	1.405490	0.857811	-0.236782
C256	C	1.655490	1.107811	0.013218
C257	C	0.945597	0.310223	-0.971328
C258	C	1.195597	0.560223	-0.721328
C259	C	1.445597	0.810223	-0.471328
C260	C	1.695597	1.060223	-0.221328
C261	C	0.945591	0.310190	-1.036764
C262	C	1.195591	0.560190	-0.786764
C263	C	1.445591	0.810190	-0.536764
C264	C	1.695591	1.060190	-0.286764
C265	C	0.865395	0.405169	-1.036740
C266	C	1.115395	0.655169	-0.786740
C267	C	1.365395	0.905169	-0.536740
C268	C	1.615395	1.155169	-0.286740
C269	C	0.865397	0.405195	-0.971304
C270	C	1.115397	0.655195	-0.721304
C271	C	1.365397	0.905195	-0.471304
C272	C	1.615397	1.155195	-0.221304
C273	C	0.905501	0.357723	-0.938602
C274	C	1.155501	0.607723	-0.688602
C275	C	1.405501	0.857723	-0.438602
C276	C	1.655501	1.107723	-0.188602
C277	C	0.905398	0.357867	-0.139109
C278	C	1.155398	0.607867	0.110891
C279	C	1.405398	0.857867	0.360891
C280	C	1.655398	1.107867	0.610891
C281	C	0.905497	0.357665	-0.069468
C282	C	1.155497	0.607665	0.180532
C283	C	1.405497	0.857665	0.430532
C284	C	1.655497	1.107665	0.680532
H285	H	0.465143	0.347447	-0.404330
H286	H	0.715143	0.597447	-0.154330
H287	H	0.965143	0.847447	0.095670
H288	H	1.215143	1.097447	0.345670
H289	H	0.914533	0.236407	-0.742851
H290	H	1.164533	0.486407	-0.492851
H291	H	1.414533	0.736407	-0.242851
H292	H	1.664533	0.986407	0.007149
H293	H	0.666970	0.271840	-0.374707
H294	H	0.916970	0.521840	-0.124707
H295	H	1.166970	0.771840	0.125293
H296	H	1.416970	1.021840	0.375293
H297	H	0.933606	0.903852	-0.407444
H298	H	1.183606	1.153852	-0.157444
H299	H	1.433606	1.403852	0.092556
H300	H	1.683606	1.653852	0.342556
H301	H	0.914533	0.236359	-0.861563
H302	H	1.164533	0.486359	-0.611563
H303	H	1.414533	0.736359	-0.361563
H304	H	1.664533	0.986359	-0.111563
H305	H	0.144627	0.271896	-0.374735
H306	H	0.394627	0.521896	-0.124735
H307	H	0.644627	0.771896	0.125265
H308	H	0.894627	1.021896	0.375265
H309	H	0.982703	0.903675	-0.224660
H310	H	1.232703	1.153675	0.025340
H311	H	1.482703	1.403675	0.275340
H312	H	1.732703	1.653675	0.525340
H313	H	0.263333	0.271882	-0.374726
H314	H	0.513333	0.521882	-0.124726
H315	H	0.763333	0.771882	0.125274
H316	H	1.013333	1.021882	0.375274
H317	H	0.548129	0.443945	-0.229076
H318	H	0.798129	0.693945	0.020924
H319	H	1.048129	0.943945	0.270924
H320	H	1.298129	1.193945	0.520924
H321	H	0.896292	0.479185	-0.742869
H322	H	1.146292	0.729185	-0.492869
H323	H	1.396292	0.979185	-0.242869
H324	H	1.646292	1.229185	0.007131
H325	H	0.144490	0.444006	-0.229108
H326	H	0.394490	0.694006	0.020892
H327	H	0.644490	0.944006	0.270892
H328	H	0.894490	1.194006	0.520892
H329	H	0.832747	0.443874	-0.944660
H330	H	1.082747	0.693874	-0.694660
H331	H	1.332747	0.943874	-0.444660
H332	H	1.582747	1.193874	-0.194660
H333	H	0.832740	0.443983	-0.659733
H334	H	1.082740	0.693983	-0.409733
H335	H	1.332740	0.943983	-0.159733
H336	H	1.582740	1.193983	0.090267
H337	H	0.828073	0.811224	-0.379055
H338	H	1.078073	1.061224	-0.129055
H339	H	1.328073	1.311224	0.120945
H340	H	1.578073	1.561224	0.370945
H341	H	0.799921	0.904071	-0.273580
H342	H	1.049921	1.154071	-0.023580
H343	H	1.299921	1.404071	0.226420
H344	H	1.549921	1.654071	0.476420
H345	H	0.465026	0.368352	-0.199460
H346	H	0.715026	0.618352	0.050540
H347	H	0.965026	0.868352	0.300540
H348	H	1.215026	1.118352	0.550540
H349	H	0.832743	0.443816	-1.063370
H350	H	1.082743	0.693816	-0.813370
H351	H	1.332743	0.943816	-0.563370
H352	H	1.582743	1.193816	-0.313370
H353	H	0.548263	0.271841	-0.374706
H354	H	0.798263	0.521841	-0.124706
H355	H	1.048263	0.771841	0.125294
H356	H	1.298263	1.021841	0.375294
H357	H	1.010848	0.810990	-0.330287
H358	H	1.260848	1.060990	-0.080287
H359	H	1.510848	1.310990	0.169713
H360	H	1.760848	1.560990	0.419713
H361	H	0.877092	0.811301	-0.196345
H362	H	1.127092	1.061301	0.053655
H363	H	1.377092	1.311301	0.303655
H364	H	1.627092	1.561301	0.553655
H365	H	0.346321	0.368374	-0.199468
H366	H	0.596321	0.618374	0.050532
H367	H	0.846321	0.868374	0.300532
H368	H	1.096321	1.118374	0.550532
H369	H	0.978244	0.271510	-1.063407
H370	H	1.228244	0.521510	-0.813407
H371	H	1.478244	0.771510	-0.563407
H372	H	1.728244	1.021510	-0.313407
H373	H	0.978242	0.271734	-0.541064
H374	H	1.228242	0.521734	-0.291064
H375	H	1.478242	0.771734	-0.041064
H376	H	1.728242	1.021734	0.208936
H377	H	0.263203	0.443981	-0.229100
H378	H	0.513203	0.693981	0.020900
H379	H	0.763203	0.943981	0.270900
H380	H	1.013203	1.193981	0.520900
H381	H	0.832727	0.444031	-0.541020
H382	H	1.082727	0.694031	-0.291020
H383	H	1.332727	0.944031	-0.041020
H384	H	1.582727	1.194031	0.208980
H385	H	0.978248	0.271564	-0.944700
H386	H	1.228248	0.521564	-0.694700
H387	H	1.478248	0.771564	-0.444700
H388	H	1.728248	1.021564	-0.194700
H389	H	0.896466	0.479153	-0.861573
H390	H	1.146466	0.729153	-0.611573
H391	H	1.396466	0.979153	-0.361573
H392	H	1.646466	1.229153	-0.111573
H393	H	0.346430	0.347462	-0.404340
H394	H	0.596430	0.597462	-0.154340
H395	H	0.846430	0.847462	0.095660
H396	H	1.096430	1.097462	0.345660
H397	H	0.666840	0.443934	-0.229073
H398	H	0.916840	0.693934	0.020927
H399	H	1.166840	0.943934	0.270927
H400	H	1.416840	1.193934	0.520927
H401	H	0.978238	0.271680	-0.659771
H402	H	1.228238	0.521680	-0.409771
H403	H	1.478238	0.771680	-0.159771
H404	H	1.728238	1.021680	0.090229
