data_functionalizedCrystal
_audit_creation_method	'MofGen! by Chris Wilmer'
_symmetry_space_group_name_H-M	'P1'
_symmetry_Int_Tables_number	1
_symmetry_cell_setting	triclinic
loop_
_symmetry_equiv_pos_as_xyz
  x,y,z
_cell_length_a	10.723024
_cell_length_b	23.532407
_cell_length_c	9.798715
_cell_angle_alpha	89.992208
_cell_angle_beta	89.996609
_cell_angle_gamma	83.658273
loop_
_atom_site_label
_atom_site_type_symbol
_atom_site_fract_x
_atom_site_fract_y
_atom_site_fract_z
O1	O	1.654699	0.079871	-0.113498
O2	O	1.291309	0.087516	-0.113504
O3	O	1.483962	0.000833	-0.113476
O4	O	1.462046	0.166554	-0.113526
O5	O	1.483948	0.000833	0.113507
O6	O	1.291294	0.087516	0.113478
O7	O	1.654685	0.079871	0.113484
Zn8	Zn	1.472987	0.083693	0.149520
Zn9	Zn	1.473006	0.083693	-0.149539
O10	O	1.462032	0.166554	0.113456
C11	C	1.244819	0.086960	-0.000013
C12	C	1.106317	0.085295	-0.000014
C13	C	1.029823	0.133798	-0.000030
C14	C	0.886673	0.132079	-0.000031
C15	C	1.483397	-0.020387	0.000019
C16	C	1.481719	-0.083615	0.000029
C17	C	1.585203	-0.482046	-0.000044
C18	C	1.583644	-0.541457	-0.000054
O19	O	1.679575	-0.577579	-0.000103
N20	N	1.469112	-0.564826	-0.000055
C21	C	1.356131	-0.528782	-0.000059
O22	O	1.258569	-0.554114	-0.000062
C23	C	1.357691	-0.469373	-0.000059
C24	C	1.472230	-0.446007	-0.000044
C25	C	1.699733	-0.458680	-0.000030
C26	C	1.701291	-0.399274	-0.000017
C27	C	1.588319	-0.363234	-0.000018
C28	C	1.473789	-0.386600	-0.000031
C29	C	1.244711	-0.433329	-0.000073
C30	C	1.246281	-0.373917	-0.000073
C31	C	1.360821	-0.350551	-0.000059
C32	C	1.362374	-0.291154	-0.000018
N33	N	1.476907	-0.267785	-0.000018
C34	C	1.589879	-0.303825	-0.000017
C35	C	1.352863	-0.653545	-0.000063
C36	C	1.351302	-0.712953	-0.000054
C37	C	1.578816	-0.725625	-0.000051
C38	C	1.580376	-0.666215	-0.000051
C39	C	1.467395	-0.630176	-0.000062
C40	C	1.593143	-0.179067	0.000011
C41	C	1.594691	-0.119655	0.000030
C42	C	1.367178	-0.106989	0.000020
C43	C	1.365629	-0.166396	0.000008
C44	C	1.478622	-0.202434	-0.000001
O45	O	1.266494	-0.254997	0.000025
O46	O	1.687425	-0.278484	-0.000032
C47	C	1.701174	0.080427	-0.000009
C48	C	1.839677	0.082092	-0.000017
C49	C	1.462597	0.187774	-0.000041
C50	C	1.464275	0.251001	-0.000061
N51	N	1.472984	0.083693	0.353619
N52	N	1.473020	0.083689	-0.353639
C53	C	1.553878	0.047136	0.421408
C54	C	1.553899	0.047134	0.578571
H55	H	1.687967	-0.100634	0.000045
H56	H	1.623117	0.015838	0.363096
O57	O	1.078051	0.184874	0.000197
C58	C	1.036858	0.216043	0.117724
H59	H	1.010065	0.185313	0.199899
H60	H	1.115479	0.240528	0.157178
H61	H	0.951724	0.247492	0.091133
O62	O	1.812523	-0.376552	0.000220
C63	C	1.820235	-0.342562	0.117756
H64	H	1.755211	-0.356869	0.199929
H65	H	1.920865	-0.347501	0.157204
H66	H	1.790868	-0.295832	0.091178
H67	H	1.154276	-0.344576	-0.000085
H68	H	0.905395	0.040567	-0.000012
O69	O	0.808324	0.181634	-0.000290
C70	C	0.830624	0.213565	-0.117837
H71	H	0.875561	0.183697	-0.199992
H72	H	0.737958	0.235993	-0.157307
H73	H	0.896384	0.246828	-0.091266
O74	O	1.390511	0.121110	0.576896
C75	C	1.410394	0.177539	0.611722
H76	H	1.510290	0.178121	0.651070
H77	H	1.395927	0.206034	0.517687
H78	H	1.341046	0.194091	0.694566
H79	H	1.065828	0.042497	-0.000036
O80	O	1.636472	0.009716	0.647958
C81	C	1.616541	-0.046713	0.613190
H82	H	1.568511	-0.046822	0.509418
H83	H	1.710537	-0.074483	0.608439
H84	H	1.554461	-0.064465	0.693598
O85	O	1.390251	0.121051	0.422965
C86	C	1.315052	0.155051	0.329421
H87	H	1.313691	0.131749	0.227533
H88	H	1.215363	0.163430	0.370829
H89	H	1.355293	0.197468	0.314258
O90	O	1.257556	-0.071892	-0.000043
C91	C	1.283507	-0.014448	-0.000002
H92	H	1.381492	-0.011784	-0.042960
H93	H	1.211468	0.012186	-0.065909
H94	H	1.278545	0.002705	0.108894
H95	H	1.685152	-0.208403	-0.000001
O96	O	1.809567	-0.493625	-0.000207
C97	C	1.879147	-0.482962	-0.117773
H98	H	1.847917	-0.438026	-0.156974
H99	H	1.983261	-0.486716	-0.091320
H100	H	1.862531	-0.515520	-0.200088
O101	O	1.691748	-0.643614	-0.000110
C102	C	1.791116	-0.688170	-0.000072
H103	H	1.756646	-0.728658	-0.043038
H104	H	1.871133	-0.675440	-0.065974
H105	H	1.825922	-0.696442	0.108824
O106	O	1.688446	-0.760722	-0.000128
C107	C	1.662495	-0.818166	-0.000106
H108	H	1.564515	-0.820823	-0.043070
H109	H	1.734542	-0.844789	-0.066018
H110	H	1.667445	-0.835337	0.108784
H111	H	1.272361	-0.185421	0.000034
H112	H	1.258032	-0.731972	-0.000042
O113	O	1.242991	-0.618620	0.000005
C114	C	1.141580	-0.651992	-0.000029
H115	H	1.173830	-0.696201	0.042939
H116	H	1.062464	-0.630405	0.065874
H117	H	1.106441	-0.656357	-0.108923
O118	O	1.133336	-0.455923	-0.000154
C119	C	1.033975	-0.411363	-0.000129
H120	H	1.068463	-0.370873	-0.043088
H121	H	0.953969	-0.424083	-0.066044
H122	H	0.999148	-0.403102	0.108761
