data_functionalizedCrystal
_audit_creation_method	'MofGen! by Chris Wilmer'
_symmetry_space_group_name_H-M	'P1'
_symmetry_Int_Tables_number	1
_symmetry_cell_setting	triclinic
loop_
_symmetry_equiv_pos_as_xyz
  x,y,z
_cell_length_a	18.215407
_cell_length_b	12.594516
_cell_length_c	18.215399
_cell_angle_alpha	89.977475
_cell_angle_beta	89.980650
_cell_angle_gamma	90.016501
loop_
_atom_site_label
_atom_site_type_symbol
_atom_site_fract_x
_atom_site_fract_y
_atom_site_fract_z
Zn1	Zn	1.125114	-0.423736	-0.416146
Zn2	Zn	1.125042	-0.601735	-0.293092
Zn3	Zn	1.002047	-0.423772	-0.293093
Zn4	Zn	1.002031	-0.601674	-0.416117
O5	O	1.063558	-0.512729	-0.354612
O6	O	1.228088	-0.447358	-0.399834
O7	O	1.108703	-0.578168	-0.190108
O8	O	1.018409	-0.274821	-0.309429
O9	O	1.228036	-0.578133	-0.309427
O10	O	1.108825	-0.274795	-0.399835
O11	O	1.018340	-0.447420	-0.190109
O12	O	0.899061	-0.447361	-0.309401
O13	O	1.018381	-0.578030	-0.519105
O14	O	0.899049	-0.578065	-0.399786
O15	O	1.108810	-0.447299	-0.519126
O16	O	1.108688	-0.750672	-0.309399
O17	O	1.018312	-0.750628	-0.399785
C18	C	0.872352	-0.512711	-0.354591
C19	C	0.790553	-0.512729	-0.354599
C20	C	0.602372	-0.580893	-0.401604
C21	C	0.525514	-0.580897	-0.401613
C22	C	0.525496	-0.444584	-0.307636
C23	C	0.602354	-0.444576	-0.307631
C24	C	0.640790	-0.512737	-0.354614
C25	C	0.487074	-0.512748	-0.354628
C26	C	0.403740	-0.512751	-0.354638
C27	C	0.724129	-0.512733	-0.354606
C28	C	1.063510	-0.789270	-0.354605
C29	C	1.063557	-0.907576	-0.354626
C30	C	1.014397	-0.976843	-0.403753
C31	C	0.996468	-1.047703	-0.336600
C32	C	1.081553	-1.047515	-0.421791
C33	C	1.045593	-0.976877	-0.287438
C34	C	1.130709	-0.976683	-0.372674
C35	C	1.112805	-1.047511	-0.305475
C36	C	1.255511	-0.512748	-0.354634
C37	C	1.337310	-0.512756	-0.354643
C38	C	1.063602	-0.512654	-0.546565
C39	C	1.063620	-0.512622	-0.628364
C40	C	1.063627	-0.235108	-0.354635
C41	C	1.063656	-0.116803	-0.354645
C42	C	1.110733	-0.444458	-0.893434
C43	C	1.110725	-0.444487	-0.816575
C44	C	1.016567	-0.580631	-0.816543
C45	C	1.016580	-0.580606	-0.893400
C46	C	1.063662	-0.512514	-0.931844
C47	C	1.063640	-0.512567	-0.778127
C48	C	1.063630	-0.512599	-0.694794
C49	C	1.063673	-0.512484	-1.015183
C50	C	1.063558	-0.512728	-0.163406
C51	C	1.063682	-0.512460	-0.081607
H52	H	0.972749	-0.945813	-0.445237
N53	N	1.025392	-0.935960	-0.212188
H54	H	1.062313	-0.962269	-0.175045
H55	H	1.025447	-0.855773	-0.212717
N56	N	0.484076	-0.654415	-0.452289
H57	H	0.497477	-0.637987	-0.504889
H58	H	0.497452	-0.730410	-0.440702
N59	N	1.101664	-1.088628	-0.497014
H60	H	1.064455	-1.062923	-0.534072
H61	H	1.152000	-1.061678	-0.510957
H62	H	0.494193	-0.389092	-0.269384
H63	H	1.149056	-0.389070	-0.785305
H64	H	0.633634	-0.389069	-0.269367
N65	N	1.167934	-1.088358	-0.250399
H66	H	1.154285	-1.062523	-0.199717
H67	H	1.167954	-1.168542	-0.251070
N68	N	1.161523	-0.371033	-0.934897
H69	H	1.154390	-0.381341	-0.989415
H70	H	1.150085	-0.295020	-0.921469
N71	N	0.921304	-1.089014	-0.316373
H72	H	0.884165	-1.063313	-0.353501
H73	H	0.922082	-1.169195	-0.316047
H74	H	1.187438	-0.945468	-0.387956
N75	N	0.965786	-0.654068	-0.775078
H76	H	0.972918	-0.643755	-0.720561
H77	H	0.913232	-0.637497	-0.788507
N78	N	0.965811	-0.654018	-0.934835
H79	H	0.935979	-0.697153	-0.898820
H80	H	0.931769	-0.610683	-0.966725
H81	H	0.633665	-0.636391	-0.439862
