data_functionalizedCrystal
_audit_creation_method	'MofGen! by Chris Wilmer'
_symmetry_space_group_name_H-M	'P1'
_symmetry_Int_Tables_number	1
_symmetry_cell_setting	triclinic
loop_
_symmetry_equiv_pos_as_xyz
  x,y,z
_cell_length_a	13.032721
_cell_length_b	18.215407
_cell_length_c	18.215399
_cell_angle_alpha	90.019833
_cell_angle_beta	97.154738
_cell_angle_gamma	82.794992
loop_
_atom_site_label
_atom_site_type_symbol
_atom_site_fract_x
_atom_site_fract_y
_atom_site_fract_z
Zn1	Zn	-0.416041	-1.087881	-0.453320
Zn2	Zn	-0.082708	-0.754548	-0.119987
Zn3	Zn	0.250626	-0.421214	0.213346
Zn4	Zn	-0.590804	-1.072167	-0.345882
Zn5	Zn	-0.257471	-0.738833	-0.012549
Zn6	Zn	0.075862	-0.405500	0.320784
Zn7	Zn	-0.416075	-0.964810	-0.330271
Zn8	Zn	-0.082742	-0.631477	0.003063
Zn9	Zn	0.250591	-0.298144	0.336396
Zn10	Zn	-0.590746	-0.949162	-0.468902
Zn11	Zn	-0.257413	-0.615829	-0.135569
Zn12	Zn	0.075920	-0.282495	0.197765
O13	O	-0.503417	-1.018505	-0.399594
O14	O	-0.170083	-0.685172	-0.066260
O15	O	0.163250	-0.351838	0.267073
O16	O	-0.439234	-1.188780	-0.439081
O17	O	-0.105900	-0.855446	-0.105748
O18	O	0.227433	-0.522113	0.227586
O19	O	-0.567665	-1.057898	-0.240831
O20	O	-0.234332	-0.724565	0.092503
O21	O	0.099002	-0.391231	0.425836
O22	O	-0.269831	-0.994261	-0.333539
O23	O	0.063502	-0.660928	-0.000206
O24	O	0.396835	-0.327595	0.333128
O25	O	-0.567632	-1.177235	-0.360147
O26	O	-0.234298	-0.843901	-0.026813
O27	O	0.099035	-0.510568	0.306520
O28	O	-0.269806	-1.084681	-0.423943
O29	O	0.063527	-0.751347	-0.090610
O30	O	0.396861	-0.418014	0.242724
O31	O	-0.439292	-0.979024	-0.229361
O32	O	-0.105959	-0.645691	0.103973
O33	O	0.227375	-0.312357	0.437306
O34	O	-0.439236	-0.859751	-0.348648
O35	O	-0.105902	-0.526418	-0.015315
O36	O	0.227431	-0.193085	0.318019
O37	O	-0.567533	-0.967591	-0.569816
O38	O	-0.234199	-0.634257	-0.236483
O39	O	0.099134	-0.300924	0.096851
O40	O	-0.567566	-0.848254	-0.450500
O41	O	-0.234232	-0.514921	-0.117166
O42	O	0.099101	-0.181588	0.216167
O43	O	-0.439177	-1.069507	-0.558368
O44	O	-0.105844	-0.736174	-0.225035
O45	O	0.227489	-0.402840	0.108299
O46	O	-0.737036	-1.042724	-0.375256
O47	O	-0.403703	-0.709391	-0.041922
O48	O	-0.070369	-0.376058	0.291411
O49	O	-0.736993	-0.952353	-0.465638
O50	O	-0.403660	-0.619020	-0.132304
O51	O	-0.070327	-0.285687	0.201029
C52	C	-0.503399	-0.827300	-0.399571
C53	C	-0.170066	-0.493967	-0.066238
C54	C	0.163268	-0.160634	0.267096
C55	C	-0.503416	-0.745500	-0.399581
C56	C	-0.170083	-0.412166	-0.066248
C57	C	0.163250	-0.078833	0.267086
C58	C	-0.774933	-0.994156	-0.423847
C59	C	-0.441600	-0.660822	-0.090514
C60	C	-0.108266	-0.327489	0.242819
C61	C	-0.891089	-0.983806	-0.434248
C62	C	-0.557756	-0.650473	-0.100915
C63	C	-0.224422	-0.317140	0.232419
C64	C	-0.503345	-1.018556	-0.591540
C65	C	-0.170011	-0.685223	-0.258207
C66	C	0.163322	-0.351890	0.075126
C67	C	-0.503314	-1.018578	-0.673337
C68	C	-0.169981	-0.685245	-0.340003
C69	C	0.163353	-0.351911	-0.006670
C70	C	-0.942861	-1.023945	-0.394199
C71	C	-0.609528	-0.690612	-0.060866
C72	C	-0.276195	-0.357279	0.272468
C73	C	-1.062914	-1.013250	-0.404947
C74	C	-0.729581	-0.679916	-0.071614
C75	C	-0.396248	-0.346583	0.261719
C76	C	-0.230840	-1.042969	-0.375262
C77	C	0.102493	-0.709636	-0.041928
C78	C	0.435827	-0.376303	0.291405
C79	C	-0.114684	-1.053395	-0.364893
C80	C	0.218649	-0.720061	-0.031559
C81	C	0.551982	-0.386728	0.301774
C82	C	-0.503435	-1.210456	-0.399617
C83	C	-0.170102	-0.877123	-0.066284
C84	C	0.163231	-0.543789	0.267050
C85	C	-0.503443	-1.292254	-0.399627
C86	C	-0.170110	-0.958921	-0.066294
C87	C	0.163223	-0.625588	0.267040
C88	C	-0.570343	-0.551329	-0.452566
C89	C	-0.237010	-0.217996	-0.119232
C90	C	0.096324	0.115337	0.214101
C91	C	-0.570346	-0.474470	-0.452575
C92	C	-0.237013	-0.141137	-0.119242
C93	C	0.096321	0.192196	0.214092
C94	C	-0.436510	-0.486431	-0.346640
C95	C	-0.103176	-0.153098	-0.013306
C96	C	0.230157	0.180236	0.320027
C97	C	-0.436502	-0.563289	-0.346634
C98	C	-0.103168	-0.229956	-0.013301
C99	C	0.230165	0.103378	0.320032
C100	C	-0.503424	-0.595736	-0.399597
C101	C	-0.170091	-0.262402	-0.066263
C102	C	0.163242	0.070931	0.267070
C103	C	-0.503435	-0.442019	-0.399612
C104	C	-0.170102	-0.108685	-0.066278
C105	C	0.163231	0.224648	0.267055
C106	C	-0.503438	-0.358685	-0.399621
C107	C	-0.170105	-0.025351	-0.066288
C108	C	0.163228	0.307982	0.267045
C109	C	-0.503420	-0.679075	-0.399588
C110	C	-0.170087	-0.345742	-0.066254
C111	C	0.163246	-0.012408	0.267079
C112	C	-0.436417	-1.071668	-0.855565
C113	C	-0.103084	-0.738335	-0.522232
C114	C	0.230250	-0.405002	-0.188899
C115	C	-0.436386	-1.071680	-0.932421
C116	C	-0.103053	-0.738347	-0.599088
C117	C	0.230280	-0.405013	-0.265755
C118	C	-0.570049	-0.965554	-0.944331
C119	C	-0.236716	-0.632221	-0.610998
C120	C	0.096617	-0.298888	-0.277665
C121	C	-0.570074	-0.965540	-0.867476
C122	C	-0.236740	-0.632207	-0.534143
C123	C	0.096593	-0.298873	-0.200809
C124	C	-0.503259	-1.018601	-0.823095
C125	C	-0.169926	-0.685268	-0.489762
C126	C	0.163408	-0.351935	-0.156429
C127	C	-0.503204	-1.018627	-0.976807
C128	C	-0.169871	-0.685294	-0.643473
C129	C	0.163462	-0.351960	-0.310140
C130	C	-0.503172	-1.018639	-1.060137
C131	C	-0.169838	-0.685306	-0.726804
C132	C	0.163495	-0.351972	-0.393471
C133	C	-0.503290	-1.018589	-0.739759
C134	C	-0.169957	-0.685255	-0.406426
C135	C	0.163377	-0.351922	-0.073092
C136	C	-0.503413	-1.018503	-0.208387
C137	C	-0.170080	-0.685170	0.124946
C138	C	0.163254	-0.351836	0.458279
C139	C	-0.503149	-1.018650	-0.126565
C140	C	-0.169816	-0.685317	0.206768
C141	C	0.163517	-0.351983	0.540101
H142	H	-0.898309	-1.066232	-0.351957
H143	H	-0.564976	-0.732898	-0.018623
H144	H	-0.231643	-0.399565	0.314710
H145	H	-0.381955	-1.114891	-0.958854
H146	H	-0.048622	-0.781558	-0.625521
H147	H	0.284711	-0.448225	-0.292188
Br148	Br	-1.137160	-0.942775	-0.475370
Br149	Br	-0.803826	-0.609442	-0.142037
Br150	Br	-0.470493	-0.276109	0.191297
H151	H	-1.070135	-1.095684	-0.322648
H152	H	-0.736802	-0.762350	0.010686
H153	H	-0.403468	-0.429017	0.344019
H154	H	-0.382009	-1.114872	-0.819432
H155	H	-0.048676	-0.781539	-0.486099
H156	H	0.284657	-0.448206	-0.152765
H157	H	-0.624450	-0.922355	-0.980476
H158	H	-0.291116	-0.589022	-0.647142
H159	H	0.042217	-0.255689	-0.313809
Br160	Br	-0.660786	-0.893509	-0.823404
Br161	Br	-0.327452	-0.560176	-0.490071
Br162	Br	0.005881	-0.226843	-0.156738
Br163	Br	-0.965338	-0.913335	-0.504668
Br164	Br	-0.632005	-0.580001	-0.171334
Br165	Br	-0.298671	-0.246668	0.161999
Br166	Br	-0.661163	-0.414207	-0.524468
Br167	Br	-0.327830	-0.080874	-0.191135
Br168	Br	0.005503	0.252459	0.142199
H169	H	-0.624833	-0.577745	-0.495693
H170	H	-0.291500	-0.244412	-0.162359
H171	H	0.041834	0.088922	0.170974
Br172	Br	-0.345667	-0.623561	-0.274748
Br173	Br	-0.012333	-0.290228	0.058585
Br174	Br	0.321000	0.043106	0.391918
Br175	Br	-0.345691	-0.442391	-0.274766
Br176	Br	-0.012357	-0.109058	0.058568
Br177	Br	0.320976	0.224276	0.391901
