data_functionalizedCrystal
_audit_creation_method	'MofGen! by Chris Wilmer'
_symmetry_space_group_name_H-M	'P1'
_symmetry_Int_Tables_number	1
_symmetry_cell_setting	triclinic
loop_
_symmetry_equiv_pos_as_xyz
  x,y,z
_cell_length_a	14.853569
_cell_length_b	15.625429
_cell_length_c	13.930277
_cell_angle_alpha	71.918299
_cell_angle_beta	89.994756
_cell_angle_gamma	83.949481
loop_
_atom_site_label
_atom_site_type_symbol
_atom_site_fract_x
_atom_site_fract_y
_atom_site_fract_z
O1	O	1.196368	0.117709	-0.120756
O2	O	1.696368	0.617709	0.379244
O3	O	0.933909	0.131728	-0.125647
O4	O	1.433909	0.631728	0.374353
O5	O	1.072149	-0.006509	-0.077520
O6	O	1.572149	0.493491	0.422480
O7	O	1.058129	0.255946	-0.168883
O8	O	1.558129	0.755946	0.331117
O9	O	1.072129	-0.006512	0.082142
O10	O	1.572129	0.493488	0.582142
O11	O	0.933890	0.131725	0.034015
O12	O	1.433890	0.631725	0.534015
O13	O	1.196349	0.117706	0.038907
O14	O	1.696349	0.617706	0.538907
Zn15	Zn	1.065116	0.124715	0.061811
Zn16	Zn	1.565116	0.624715	0.561811
Zn17	Zn	1.065142	0.124719	-0.148552
Zn18	Zn	1.565142	0.624719	0.351448
O19	O	1.058110	0.255943	-0.009220
O20	O	1.558110	0.755943	0.490780
C21	C	0.900311	0.131091	-0.045596
C22	C	1.400311	0.631091	0.454404
C23	C	0.800227	0.129187	-0.044938
C24	C	1.300227	0.629187	0.455062
C25	C	1.071503	-0.040099	0.014001
C26	C	1.571503	0.459901	0.514001
C27	C	1.069599	-0.140181	0.048834
C28	C	1.569599	0.359819	0.548834
C29	C	0.763850	0.046177	-0.016045
C30	C	1.263850	0.546177	0.483955
C31	C	0.742562	0.210407	-0.073204
C32	C	1.242562	0.710407	0.426796
C33	C	0.648527	0.208621	-0.072581
C34	C	1.148527	0.708621	0.427419
C35	C	0.612150	0.125611	-0.043688
C36	C	1.112150	0.625611	0.456312
C37	C	0.669807	0.044388	-0.015418
C38	C	1.169807	0.544388	0.484582
C39	C	0.590863	0.289843	-0.100840
C40	C	1.090863	0.789843	0.399160
C41	C	0.496823	0.288060	-0.100218
C42	C	0.996823	0.788060	0.399782
C43	C	0.460444	0.205049	-0.071331
C44	C	0.960444	0.705049	0.428669
C45	C	0.518108	0.123822	-0.043061
C46	C	1.018108	0.623822	0.456939
C47	C	0.481731	0.040813	-0.014168
C48	C	0.981731	0.540813	0.485832
C49	C	0.539392	-0.040415	0.014095
C50	C	1.039392	0.459585	0.514095
C51	C	0.633429	-0.038623	0.013468
C52	C	1.133429	0.461377	0.513468
C53	C	0.366408	0.203257	-0.070704
C54	C	0.866408	0.703257	0.429296
C55	C	0.387688	0.039024	-0.013542
C56	C	0.887688	0.539024	0.486458
C57	C	1.063362	-0.469333	-0.271730
C58	C	1.563362	0.030667	0.228270
C59	C	1.061569	-0.563375	-0.238970
C60	C	1.561569	-0.063375	0.261030
C61	C	1.061548	-0.563364	-0.064916
C62	C	1.561548	-0.063364	0.435084
C63	C	1.063346	-0.469321	-0.097662
C64	C	1.563346	0.030679	0.402338
C65	C	1.064252	-0.422312	-0.201070
C66	C	1.564252	0.077688	0.298930
C67	C	1.064236	-0.422301	-0.027002
C68	C	1.564236	0.077699	0.472998
C69	C	1.066029	-0.328265	-0.059746
C70	C	1.566029	0.171735	0.440254
C71	C	1.066932	-0.281249	-0.163150
C72	C	1.566932	0.218751	0.336850
C73	C	1.066045	-0.328277	-0.233814
C74	C	1.566045	0.171723	0.266186
C75	C	1.063323	-0.469310	0.076405
C76	C	1.563323	0.030690	0.576405
C77	C	1.064213	-0.422290	0.147065
C78	C	1.564213	0.077710	0.647065
C79	C	1.066013	-0.328253	0.114322
C80	C	1.566013	0.171747	0.614322
C81	C	1.066916	-0.281238	0.010918
C82	C	1.566916	0.218762	0.510918
C83	C	1.066900	-0.281226	0.184986
C84	C	1.566900	0.218774	0.684986
C85	C	1.068693	-0.187190	0.152242
C86	C	1.568693	0.312810	0.652242
C87	C	1.068709	-0.187202	-0.021826
C88	C	1.568709	0.312798	0.478174
C89	C	1.229947	0.118343	-0.041147
C90	C	1.729947	0.618343	0.458853
C91	C	1.330031	0.120247	-0.041811
C92	C	1.830031	0.620247	0.458189
C93	C	1.058755	0.289533	-0.100744
C94	C	1.558755	0.789533	0.399256
C95	C	1.060659	0.389615	-0.135583
C96	C	1.560659	0.889615	0.364417
N97	N	1.065106	0.124712	0.205378
N98	N	1.565106	0.624712	0.705378
N99	N	1.065160	0.124715	-0.292116
N100	N	1.565160	0.624715	0.207884
C101	C	1.003927	0.185906	0.636343
C102	C	1.503927	0.685906	1.136343
C103	C	1.126381	0.063524	0.678919
C104	C	1.626381	0.563524	1.178919
C105	C	1.126371	0.063521	0.578424
C106	C	1.626371	0.563521	1.078424
C107	C	1.065138	0.124713	0.506884
C108	C	1.565138	0.624713	1.006884
C109	C	1.003916	0.185907	0.535837
C110	C	1.503916	0.685907	1.035837
C111	C	1.187598	0.002334	0.549460
C112	C	1.687598	0.502334	1.049460
C113	C	1.187590	0.002330	0.448960
C114	C	1.687590	0.502330	0.948960
C115	C	1.126352	0.063518	0.377419
C116	C	1.626352	0.563518	0.877419
C117	C	1.065127	0.124714	0.406378
C118	C	1.565127	0.624714	0.906378
C119	C	1.003895	0.185905	0.334837
C120	C	1.503895	0.685905	0.834837
C121	C	0.942664	0.247098	0.363796
C122	C	1.442664	0.747098	0.863796
C123	C	0.942678	0.247095	0.464296
C124	C	1.442678	0.747095	0.964296
C125	C	1.126338	0.063520	0.276919
C126	C	1.626338	0.563520	0.776919
C127	C	1.003884	0.185906	0.234332
C128	C	1.503884	0.685906	0.734332
H129	H	0.358078	-0.028574	0.009982
H130	H	0.858078	0.471426	0.509982
H131	H	0.449882	0.354200	-0.123233
H132	H	0.949882	0.854200	0.376767
Cl133	Cl	0.865695	0.324027	0.273847
Cl134	Cl	1.365695	0.824027	0.773847
Cl135	Cl	0.865713	0.324020	0.500704
Cl136	Cl	1.365713	0.824020	1.000704
H137	H	0.772186	0.277990	-0.096721
H138	H	1.272186	0.777990	0.403279
H139	H	1.064108	-0.431057	-0.355935
H140	H	1.564108	0.068943	0.144065
H141	H	1.066791	-0.290001	-0.318019
H142	H	1.566791	0.209999	0.181981
Cl143	Cl	1.069817	-0.128075	0.241073
Cl144	Cl	1.569817	0.371925	0.741073
H145	H	1.061853	-0.545879	0.103061
H146	H	1.561853	-0.045879	0.603061
H147	H	1.060836	-0.601654	-0.296518
H148	H	1.560836	-0.101654	0.203482
H149	H	1.068382	-0.204678	-0.189809
H150	H	1.568382	0.295322	0.310191
Cl151	Cl	0.293924	0.305362	-0.106221
Cl152	Cl	0.793924	0.805362	0.393779
Cl153	Cl	0.926952	0.262828	0.672745
Cl154	Cl	1.426952	0.762828	1.172745
H155	H	0.620489	0.357425	-0.124357
H156	H	1.120489	0.857425	0.375643
H157	H	1.069455	-0.148926	-0.106030
H158	H	1.569455	0.351074	0.393970
Cl159	Cl	1.060401	-0.622468	0.065077
Cl160	Cl	1.560401	-0.122468	0.565077
H161	H	1.063472	-0.460576	0.231260
H162	H	1.563472	0.039424	0.731260
H163	H	0.810802	-0.019956	0.006963
H164	H	1.310802	0.480044	0.506963
H165	H	0.954017	0.235733	0.176088
H166	H	1.454017	0.735733	0.676088
Cl167	Cl	1.065743	-0.340331	0.314979
Cl168	Cl	1.565743	0.159669	0.814979
Cl169	Cl	1.264579	-0.074583	0.639392
Cl170	Cl	1.764579	0.425417	1.139392
Cl171	Cl	1.203362	-0.013393	0.768850
Cl172	Cl	1.703362	0.486607	1.268850
H173	H	1.237446	-0.047497	0.425389
H174	H	1.737446	0.452503	0.925389
H175	H	0.680385	-0.104753	0.036481
H176	H	1.180385	0.395247	0.536481
H177	H	0.509762	-0.108001	0.037614
H178	H	1.009762	0.391999	0.537614
Cl179	Cl	1.203313	-0.013396	0.240516
Cl180	Cl	1.703313	0.486604	0.740516
