data_functionalizedCrystal
_audit_creation_method	'MofGen! by Chris Wilmer'
_symmetry_space_group_name_H-M	'P1'
_symmetry_Int_Tables_number	1
_symmetry_cell_setting	triclinic
loop_
_symmetry_equiv_pos_as_xyz
  x,y,z
_cell_length_a	6.817900
_cell_length_b	16.418049
_cell_length_c	10.992743
_cell_angle_alpha	93.836964
_cell_angle_beta	108.770538
_cell_angle_gamma	103.389670
loop_
_atom_site_label
_atom_site_type_symbol
_atom_site_fract_x
_atom_site_fract_y
_atom_site_fract_z
V1	V	-4.086973	-0.115860	-0.401041
O2	O	-4.073741	0.005594	-0.392942
O3	O	-4.037693	-0.229757	-0.398746
O4	O	-4.065009	-0.114067	-0.575745
O5	O	-4.046236	-0.110897	-0.214717
V6	V	-4.567290	-0.101334	-0.378701
O7	O	-4.355265	-0.147724	-0.450046
O8	O	-4.749195	-0.069470	-0.329696
O9	O	-4.393363	0.012562	-0.380996
O10	O	-4.697919	-0.222789	-0.386801
O11	O	-4.725423	-0.106297	-0.565025
O12	O	-4.366048	-0.103128	-0.203997
C13	C	-3.881624	-0.257523	-0.392535
C14	C	-3.922795	-0.350635	-0.391823
C15	C	-4.200556	-0.569124	-0.396636
C16	C	-4.239230	-0.656613	-0.395978
C17	C	-3.873066	-0.648070	-0.383115
C18	C	-3.834399	-0.560583	-0.383782
C19	C	-3.998148	-0.521112	-0.390536
C20	C	-4.075489	-0.696088	-0.389211
C21	C	-4.117420	-0.790948	-0.388498
C22	C	-3.956216	-0.426246	-0.391252
C23	C	-3.916467	-0.109947	-0.618313
C24	C	-3.979786	-0.109234	-0.761137
C25	C	-4.291196	-0.113597	-0.972248
C26	C	-4.225312	-0.114017	-0.823617
C27	C	-3.849056	-0.026106	-0.791587
C28	C	-3.916299	-0.025337	-0.940226
C29	C	-4.000934	-0.185248	-0.979122
C30	C	-3.939814	-0.187140	-0.830915
C31	C	-4.212773	0.040324	-0.387204
C32	C	-4.150842	0.133435	-0.387924
C33	C	-4.177930	-0.107250	-0.161423
C34	C	-4.093850	-0.107959	-0.018597
H35	H	-4.327446	-0.173764	-0.804252
H36	H	-4.425979	-0.173024	-1.025116
H37	H	-3.669570	-0.521491	-0.378819
F38	F	-4.276004	-0.041392	-0.762870
F39	F	-4.384076	-0.041038	-1.006898
H40	H	-3.764571	-0.188491	-0.789174
F41	F	-4.374837	-0.527119	-0.403833
F42	F	-4.454660	-0.707708	-0.402474
F43	F	-3.698805	-0.690085	-0.375921
F44	F	-4.159534	-0.266724	-1.050793
H45	H	-3.976308	0.033116	-0.963088
F46	F	-3.722291	-0.015483	-0.978464
H47	H	-3.668980	-0.019578	-0.749695
H48	H	-4.037420	-0.248588	-0.812998
F49	F	-3.883716	0.049537	-0.727522
H50	H	-3.853517	-0.181786	-1.008289
