data_functionalizedCrystal
_audit_creation_method	'MofGen! by Chris Wilmer'
_symmetry_space_group_name_H-M	'P1'
_symmetry_Int_Tables_number	1
_symmetry_cell_setting	triclinic
loop_
_symmetry_equiv_pos_as_xyz
  x,y,z
_cell_length_a	15.995350
_cell_length_b	15.072220
_cell_length_c	15.995350
_cell_angle_alpha	90.001101
_cell_angle_beta	96.507625
_cell_angle_gamma	90.008851
loop_
_atom_site_label
_atom_site_type_symbol
_atom_site_fract_x
_atom_site_fract_y
_atom_site_fract_z
O1	O	1.110996	0.073703	-0.107921
O2	O	0.867221	0.073721	-0.121249
O3	O	0.995772	0.073710	0.007303
O4	O	0.982444	0.073713	-0.236472
O5	O	0.995740	-0.073855	0.007296
O6	O	0.867189	-0.073844	-0.121256
O7	O	1.110964	-0.073862	-0.107928
Zn8	Zn	0.989071	-0.097283	-0.114593
Zn9	Zn	0.989113	0.097141	-0.114584
O10	O	0.982413	-0.073852	-0.236480
C11	C	0.836010	-0.000060	-0.120701
C12	C	0.743060	-0.000053	-0.119049
N13	N	0.989049	-0.229971	-0.114599
C14	C	0.405312	-0.000071	-0.113117
C15	C	0.452746	-0.000401	-0.021565
C16	C	0.549436	-0.000063	-0.023217
C17	C	0.572873	-0.000063	-0.116060
C18	C	0.531804	0.084201	-0.161212
C19	C	0.435168	0.084266	-0.158912
C20	C	0.434793	-0.083543	-0.160812
C21	C	0.531738	-0.084651	-0.160790
C22	C	0.667570	-0.000055	-0.117727
C23	C	0.310614	-0.000073	-0.111452
C24	C	0.989112	-0.589173	-0.114580
C25	C	0.920095	-0.551560	-0.183135
C26	C	0.920254	-0.448735	-0.183385
C27	C	0.989080	-0.410969	-0.114590
C28	C	1.076445	-0.448266	-0.133671
C29	C	1.076058	-0.551124	-0.134159
C30	C	0.971542	-0.551272	-0.026741
C31	C	0.969537	-0.448409	-0.027327
C32	C	0.989067	-0.310255	-0.114593
C33	C	0.989130	-0.689886	-0.114579
C34	C	1.142175	-0.000080	-0.108476
C35	C	1.235125	-0.000081	-0.110127
C36	C	0.995205	-0.000070	0.038494
C37	C	0.993553	-0.000065	0.131444
N38	N	0.989142	0.229830	-0.114571
C39	C	0.982980	-0.000069	-0.267671
C40	C	0.984631	-0.000069	-0.360621
C41	C	0.987621	-0.000068	0.469192
C42	C	0.896069	0.000270	0.421758
C43	C	0.897721	-0.000063	0.325068
C44	C	0.990564	-0.000066	0.301631
C45	C	1.035702	-0.084335	0.342705
C46	C	1.033402	-0.084405	0.439341
C47	C	1.035330	0.083404	0.439707
C48	C	1.035308	0.084518	0.342761
C49	C	0.992231	-0.000068	0.206934
C50	C	0.985956	-0.000072	0.563890
H51	H	0.577852	-0.060467	0.012275
Br52	Br	1.102872	-0.405319	-0.239225
H53	H	1.129019	-0.576003	-0.086195
H54	H	0.403031	-0.084113	-0.228312
Br55	Br	0.835152	-0.099576	0.454809
Br56	Br	0.978494	-0.189390	0.469844
Br57	Br	0.811999	-0.406702	-0.164495
H58	H	0.547102	-0.089741	-0.228494
Br59	Br	0.983408	-0.188855	0.295400
H60	H	1.091540	-0.575106	-0.198219
H61	H	1.005411	0.147274	0.460250
H62	H	1.103910	-0.087471	0.328579
Br63	Br	0.811499	-0.592797	-0.164485
H64	H	0.905271	-0.424032	-0.012846
H65	H	0.931160	-0.577399	-0.247952
H66	H	0.434211	-0.060830	0.015027
H67	H	1.100617	-0.088231	0.471588
Br68	Br	0.980764	0.188440	0.296811
H69	H	0.416873	0.147255	-0.125979
Br70	Br	1.148156	0.093004	0.317153
Br71	Br	0.381415	0.090639	-0.270939
H72	H	1.102831	0.083968	0.471468
Br73	Br	1.047886	-0.405580	0.061689
Br74	Br	0.420105	0.099753	0.039163
H75	H	0.577307	0.060446	0.012521
Br76	Br	0.867649	-0.594552	0.003826
H77	H	0.545929	0.087335	-0.229421
H78	H	0.560191	0.146912	-0.129845
H79	H	0.414244	-0.147414	-0.130885
Br80	Br	0.577128	-0.188553	-0.105759
H81	H	0.862238	0.060344	0.296649
Br82	Br	0.938913	-0.407702	-0.292042
Br83	Br	1.055428	-0.591809	0.058290
Br84	Br	1.164093	-0.407499	-0.052662
Br85	Br	0.835095	0.100995	0.452645
H86	H	0.861974	-0.060568	0.297200
