data_functionalizedCrystal
_audit_creation_method	'MofGen! by Chris Wilmer'
_symmetry_space_group_name_H-M	'P1'
_symmetry_Int_Tables_number	1
_symmetry_cell_setting	triclinic
loop_
_symmetry_equiv_pos_as_xyz
  x,y,z
_cell_length_a	11.792241
_cell_length_b	11.026607
_cell_length_c	10.065875
_cell_angle_alpha	79.268236
_cell_angle_beta	81.193091
_cell_angle_gamma	83.610284
loop_
_atom_site_label
_atom_site_type_symbol
_atom_site_fract_x
_atom_site_fract_y
_atom_site_fract_z
O1	O	1.552955	-0.148804	-0.113462
O2	O	1.226023	-0.165967	-0.113470
O3	O	1.362393	0.019445	-0.113462
O4	O	1.416586	-0.334216	-0.113470
O5	O	1.336418	-0.016053	0.113525
O6	O	1.200049	-0.201465	0.113517
O7	O	1.526981	-0.184302	0.113525
Zn8	Zn	1.359391	-0.198520	0.149560
Zn9	Zn	1.393613	-0.151749	-0.149505
O10	O	1.390611	-0.369714	0.113517
C11	C	1.170531	-0.182638	0.000022
C12	C	1.043877	-0.179410	0.000019
C13	C	1.582473	-0.167631	0.000030
C14	C	1.709128	-0.170857	0.000024
C15	C	1.339409	0.046973	0.000030
C16	C	1.309606	0.181884	0.000024
C17	C	1.941019	-0.176791	0.000024
C18	C	1.811979	-0.173494	0.000024
C19	C	1.413596	-0.397242	0.000022
C20	C	1.443399	-0.532151	0.000019
N21	N	1.336043	-0.230439	0.353664
C22	C	1.391897	0.255148	0.000025
C23	C	1.361097	0.394586	0.000019
N24	N	1.416968	-0.119821	-0.353609
C25	C	1.385481	-0.162847	0.421446
C26	C	1.367523	-0.187422	0.578612
H27	H	1.267838	0.435087	0.000007
O28	O	1.483392	-0.029122	0.576842
C29	C	1.596082	-0.054596	0.611406
H30	H	1.594000	-0.117472	0.715231
H31	H	1.652814	-0.102737	0.530992
C32	C	1.647913	0.144770	0.490022
C33	C	1.645354	0.067553	0.617546
H34	H	1.678310	0.220116	0.493803
H35	H	1.571994	0.161931	0.466730
H36	H	1.695188	0.104638	0.423023
H37	H	1.598069	0.107679	0.684539
H38	H	1.721268	0.050401	0.640849
O39	O	1.452006	-0.072183	0.352059
C40	C	1.564609	-0.097869	0.386865
H41	H	1.562329	-0.160854	0.490637
H42	H	1.621403	-0.145975	0.306465
C43	C	1.616774	0.101500	0.265856
C44	C	1.613972	0.024149	0.393317
H45	H	1.647226	0.176765	0.269830
H46	H	1.540912	0.118804	0.242402
H47	H	1.664100	0.061397	0.198869
H48	H	1.566635	0.064246	0.460297
H49	H	1.689827	0.006854	0.416782
O50	O	1.301062	-0.278026	0.648325
C51	C	1.208093	-0.225523	0.730969
H52	H	1.231265	-0.133960	0.752225
H53	H	1.128656	-0.208370	0.676001
C54	C	1.154081	-0.427490	0.840679
C55	C	1.182546	-0.315035	0.866795
H56	H	1.138317	-0.482706	0.924460
H57	H	1.216713	-0.462863	0.784997
H58	H	1.087887	-0.413178	0.794868
H59	H	1.248746	-0.329345	0.912588
H60	H	1.119923	-0.279666	0.922488
H61	H	1.280416	-0.306496	0.411987
H62	H	1.536671	0.427367	-0.000081
H63	H	1.216354	0.222391	0.000013
O64	O	1.503086	0.206627	0.000090
C65	C	1.509087	0.078211	0.000057
H66	H	1.421510	0.042437	0.043027
H67	H	1.534223	0.059908	-0.108839
C68	C	1.707554	0.054924	0.036301
C69	C	1.599993	0.010984	0.089089
H70	H	1.763632	0.013454	0.091214
H71	H	1.703513	0.141442	0.036318
H72	H	1.728484	0.039669	-0.054445
H73	H	1.579058	0.026253	0.179826
H74	H	1.604033	-0.075533	0.089089
