data_functionalizedCrystal
_audit_creation_method	'MofGen! by Chris Wilmer'
_symmetry_space_group_name_H-M	'P1'
_symmetry_Int_Tables_number	1
_symmetry_cell_setting	triclinic
loop_
_symmetry_equiv_pos_as_xyz
  x,y,z
_cell_length_a	23.532407
_cell_length_b	9.565339
_cell_length_c	10.489711
_cell_angle_alpha	90.003936
_cell_angle_beta	83.687843
_cell_angle_gamma	90.001814
loop_
_atom_site_label
_atom_site_type_symbol
_atom_site_fract_x
_atom_site_fract_y
_atom_site_fract_z
O1	O	0.756278	-0.116075	0.154819
O2	O	0.590562	-0.116114	0.177221
O3	O	0.677199	-0.116097	-0.019706
O4	O	0.669640	-0.116092	0.351746
O5	O	0.677193	0.116423	-0.019694
O6	O	0.590555	0.116406	0.177233
O7	O	0.756271	0.116445	0.154831
Zn8	Zn	0.673412	0.153343	0.166034
Zn9	Zn	0.673421	-0.153012	0.166018
O10	O	0.669633	0.116429	0.351758
C11	C	0.569339	0.000141	0.176657
C12	C	0.506110	0.000125	0.174941
N13	N	0.673410	0.362423	0.166044
C14	C	0.676629	0.000159	-0.067213
C15	C	0.674931	0.000146	-0.208788
C16	C	0.107703	0.000190	0.280721
C17	C	0.048292	0.000199	0.279128
O18	O	0.012193	0.000251	0.377186
N19	N	0.024896	0.000194	0.162054
C20	C	0.060914	0.000196	0.046567
O21	O	0.035558	0.000195	-0.053159
C22	C	0.120323	0.000197	0.048162
C23	C	0.143716	0.000187	0.165243
C24	C	0.131097	0.000182	0.397792
C25	C	0.190503	0.000170	0.399385
C26	C	0.226516	0.000168	0.283906
C27	C	0.203123	0.000176	0.166835
C28	C	0.156340	0.000209	-0.067324
C29	C	0.215753	0.000212	-0.065719
C30	C	0.239146	0.000201	0.051361
C31	C	0.298543	0.000162	0.052950
N32	N	0.321939	0.000167	0.170023
C33	C	0.285926	0.000169	0.285501
C34	C	-0.063851	0.000195	0.043227
C35	C	-0.123259	0.000184	0.041631
C36	C	-0.135876	0.000189	0.274192
C37	C	-0.076467	0.000191	0.275787
C38	C	-0.040454	0.000199	0.160300
C39	C	0.410685	0.000145	0.288837
C40	C	0.470097	0.000128	0.290420
C41	C	0.482709	0.000130	0.057860
C42	C	0.423302	0.000139	0.056276
C43	C	0.387291	0.000152	0.171776
O44	O	0.334677	0.000116	-0.045058
O45	O	0.311290	0.000189	0.385211
C46	C	0.777494	0.000187	0.155395
C47	C	0.840723	0.000194	0.157110
N48	N	0.673427	-0.362091	0.165997
C49	C	0.633331	0.453618	0.257087
C50	C	0.684891	0.546810	0.281183
C51	C	0.621871	0.546786	0.141957
C52	C	0.724997	0.453563	0.190198
C53	C	0.661943	0.453531	0.050922
C54	C	0.713541	0.546681	0.074969
C55	C	0.727033	0.000173	-0.392907
C56	C	0.701004	0.114810	-0.299892
C57	C	0.700997	-0.114437	-0.299927
C58	C	0.645850	0.114904	-0.368009
C59	C	0.645850	-0.114445	-0.368055
C60	C	0.619782	0.000220	-0.275065
C61	C	0.670204	0.000170	0.399265
C62	C	0.671902	0.000173	0.540840
H63	H	0.489140	0.000119	0.385765
H64	H	0.768599	0.412786	0.210667
C65	C	0.614365	-0.245384	-0.408934
H66	H	0.581777	-0.217857	-0.448770
H67	H	0.639300	-0.298422	-0.467721
H68	H	0.602587	-0.300654	-0.335517
H69	H	0.622539	0.211930	-0.398038
C70	C	0.587589	0.398397	0.361182
H71	H	0.595840	0.430337	0.442910
H72	H	0.551047	0.431682	0.344894
H73	H	0.587672	0.299088	0.359976
H74	H	0.381371	0.000159	0.382888
C75	C	0.216228	0.000187	0.528174
H76	H	0.186265	0.000206	0.596711
H77	H	0.239142	-0.080893	0.533648
H78	H	0.239139	0.081287	0.533631
H79	H	0.101780	0.000189	0.491834
H80	H	0.578279	0.587739	0.121605
H81	H	0.724337	-0.211351	-0.269749
C82	C	0.648806	0.398119	-0.080523
H83	H	0.680059	0.343470	-0.117608
H84	H	0.615296	0.342077	-0.069738
H85	H	0.642963	0.474635	-0.135326
C86	C	-0.050740	0.000192	0.404574
H87	H	-0.080701	0.000200	0.473113
H88	H	-0.027825	-0.080889	0.410033
H89	H	-0.027829	0.081291	0.410039
H90	H	0.512042	0.000122	-0.036160
H91	H	0.574427	0.000273	-0.224092
H92	H	-0.142300	0.000170	-0.053707
H93	H	0.747479	0.587286	-0.002048
C94	C	-0.175498	0.000204	0.401218
H95	H	-0.214230	0.000220	0.383490
H96	H	-0.168361	-0.080877	0.449260
H97	H	-0.168355	0.081303	0.449255
H98	H	0.245072	0.000220	-0.159765
C99	C	-0.024241	0.000175	-0.083816
H100	H	-0.046689	0.000158	-0.153761
H101	H	-0.000799	0.081254	-0.088042
H102	H	-0.000808	-0.080926	-0.088030
H103	H	0.772346	0.000297	-0.444103
C104	C	0.732512	0.245744	-0.259058
H105	H	0.770616	0.245617	-0.299821
H106	H	0.713291	0.327155	-0.283513
H107	H	0.733079	0.245219	-0.168643
H108	H	0.137304	0.000218	-0.162663
H109	H	0.404255	0.000127	-0.039060
C110	C	0.698007	0.602181	0.412666
H111	H	0.669489	0.570330	0.477279
H112	H	0.734350	0.568897	0.430395
H113	H	0.698260	0.701488	0.411446
