data_functionalizedCrystal
_audit_creation_method	'MofGen! by Chris Wilmer'
_symmetry_space_group_name_H-M	'P1'
_symmetry_Int_Tables_number	1
_symmetry_cell_setting	triclinic
loop_
_symmetry_equiv_pos_as_xyz
  x,y,z
_cell_length_a	15.995350
_cell_length_b	16.974885
_cell_length_c	15.455341
_cell_angle_alpha	96.643788
_cell_angle_beta	92.999898
_cell_angle_gamma	83.443776
loop_
_atom_site_label
_atom_site_type_symbol
_atom_site_fract_x
_atom_site_fract_y
_atom_site_fract_z
O1	O	-1.107913	-0.099130	0.065102
O2	O	-0.864162	-0.111753	0.064234
O3	O	-0.992467	0.010007	0.072762
O4	O	-0.979608	-0.220890	0.056573
O5	O	-0.999024	0.003814	-0.071934
O6	O	-0.870719	-0.117945	-0.080462
O7	O	-1.114470	-0.105323	-0.079594
Cu8	Cu	-0.993193	-0.112199	-0.093240
Cu9	Cu	-0.985439	-0.104876	0.077880
O10	O	-0.986165	-0.227082	-0.088123
C11	C	-0.836245	-0.114327	-0.008075
C12	C	-0.743291	-0.112762	-0.007959
C13	C	-0.995134	0.036457	0.002488
C14	C	-0.993303	0.124498	0.008666
C15	C	-1.142387	-0.102748	-0.007283
C16	C	-1.235341	-0.104313	-0.007394
C17	C	-0.405533	-0.107144	-0.007583
C18	C	-0.452806	-0.020443	-0.001826
C19	C	-0.549484	-0.021993	-0.001603
C20	C	-0.573099	-0.109931	-0.007770
C21	C	-0.528354	-0.149166	0.071856
C22	C	-0.431711	-0.146985	0.072072
C23	C	-0.438833	-0.155818	-0.092600
C24	C	-0.535827	-0.155844	-0.093684
C25	C	-0.667799	-0.111510	-0.007873
C26	C	-0.310832	-0.105567	-0.007474
C27	C	-0.983498	-0.253533	-0.017846
C28	C	-0.985329	-0.341573	-0.024019
C29	C	-0.996015	0.162491	-0.067301
C30	C	-0.994300	0.245215	-0.061488
C31	C	-0.989866	0.289943	0.020294
C32	C	-0.987157	0.251945	0.096266
C33	C	-0.988878	0.169223	0.090452
C34	C	-0.984341	0.537707	0.046140
C35	C	-0.982617	0.620434	0.051948
C36	C	-0.989761	0.613698	-0.105807
C37	C	-0.991477	0.530974	-0.111614
C38	C	-0.988772	0.492984	-0.035641
N39	N	-0.988110	0.374500	0.026238
N40	N	-0.990534	0.408429	-0.041586
N41	N	-0.998654	-0.117350	-0.213596
C42	C	-1.028797	-0.145898	-0.759604
C43	C	-1.024673	-0.141997	-0.668523
C44	C	-0.971740	-0.091913	-0.619603
C45	C	-0.922923	-0.045733	-0.661768
C46	C	-0.927043	-0.049638	-0.752848
C47	C	-0.953957	-0.075075	-0.346842
C48	C	-0.949842	-0.071171	-0.255756
C49	C	-1.051591	-0.167437	-0.262517
C50	C	-1.055711	-0.171335	-0.353598
C51	C	-1.006890	-0.125158	-0.395756
N52	N	-0.967525	-0.087923	-0.526503
N53	N	-1.011101	-0.129153	-0.488854
N54	N	-0.979985	-0.099719	0.198236
H55	H	-0.580528	0.009092	-0.058476
H56	H	-0.436898	0.011684	-0.058649
H57	H	-1.098815	-0.212117	-0.393423
H58	H	-0.991965	0.644639	-0.167659
N59	N	-0.977831	0.668658	0.140172
H60	H	-1.028809	0.709564	0.146559
H61	H	-0.925061	0.696640	0.145605
H62	H	-0.887293	-0.012036	-0.787173
H63	H	-0.574584	0.014393	0.060102
N64	N	-0.556641	-0.241074	-0.106255
H65	H	-0.590406	-0.250641	-0.162820
H66	H	-0.590647	-0.251120	-0.056167
H67	H	-0.407226	-0.219777	-0.097642
N68	N	-0.997210	0.286179	-0.143432
H69	H	-0.944795	0.313921	-0.144977
H70	H	-1.048546	0.326740	-0.144058
H71	H	-0.914206	-0.037472	-0.381155
N72	N	-0.423206	0.028616	0.079414
H73	H	-0.379310	-0.005078	0.112506
H74	H	-0.472597	0.047496	0.117471
N75	N	-0.415325	-0.121810	-0.172923
H76	H	-0.468136	-0.104192	-0.207467
H77	H	-0.379225	-0.163973	-0.210038
H78	H	-0.982136	0.506785	0.108002
H79	H	-0.879820	-0.004956	-0.621930
H80	H	-1.091337	-0.205033	-0.228182
H81	H	-0.410541	-0.113151	0.136024
N82	N	-0.575590	-0.117958	-0.171758
H83	H	-0.617573	-0.071248	-0.151570
H84	H	-0.605332	-0.158588	-0.211145
H85	H	-0.399422	-0.210489	0.071358
N86	N	-1.000791	0.114249	-0.155508
H87	H	-1.002250	0.150874	-0.202750
H88	H	-1.053521	0.086209	-0.160910
H89	H	-0.995105	0.494564	-0.178208
N90	N	-0.982383	0.300185	0.184475
H91	H	-0.981702	0.358354	0.176633
H92	H	-0.929264	0.280765	0.217457
N93	N	-0.547060	-0.234564	0.069943
H94	H	-0.526231	-0.266227	0.014359
H95	H	-0.609823	-0.236011	0.072503
N96	N	-0.892754	-0.017142	-0.202991
H97	H	-0.897562	-0.021669	-0.138895
H98	H	-0.909915	0.039842	-0.214884
N99	N	-0.562161	-0.106336	0.156073
H100	H	-0.606442	-0.061519	0.142834
H101	H	-0.514640	-0.083771	0.192953
H102	H	-1.064422	-0.179600	-0.634202
N103	N	-0.985959	0.128242	0.172388
H104	H	-0.982888	0.169128	0.225078
H105	H	-0.934659	0.087635	0.172967
H106	H	-1.071904	-0.186679	-0.799429
