data_functionalizedCrystal
_audit_creation_method	'MofGen! by Chris Wilmer'
_symmetry_space_group_name_H-M	'P1'
_symmetry_Int_Tables_number	1
_symmetry_cell_setting	triclinic
loop_
_symmetry_equiv_pos_as_xyz
  x,y,z
_cell_length_a	18.101398
_cell_length_b	19.120904
_cell_length_c	18.101395
_cell_angle_alpha	87.585967
_cell_angle_beta	89.973629
_cell_angle_gamma	92.417658
loop_
_atom_site_label
_atom_site_type_symbol
_atom_site_fract_x
_atom_site_fract_y
_atom_site_fract_z
Zn1	Zn	1.114235	-0.397221	0.312806
Zn2	Zn	1.614235	0.102779	0.812806
Zn3	Zn	1.119419	-0.279777	0.431367
Zn4	Zn	1.619419	0.220223	0.931367
Zn5	Zn	0.995682	-0.279776	0.307534
Zn6	Zn	1.495682	0.220224	0.807534
Zn7	Zn	0.990347	-0.397174	0.436597
Zn8	Zn	1.490347	0.102826	0.936597
O9	O	1.054921	-0.338487	0.372076
O10	O	1.554921	0.161513	0.872076
O11	O	1.218555	-0.381662	0.328550
O12	O	1.718555	0.118338	0.828550
O13	O	1.107408	-0.181495	0.410545
O14	O	1.607408	0.318505	0.910545
O15	O	1.011472	-0.295375	0.204601
O16	O	1.511472	0.204625	0.704601
O17	O	1.222363	-0.295376	0.415657
O18	O	1.722363	0.204624	0.915657
O19	O	1.098572	-0.381661	0.208474
O20	O	1.598572	0.118339	0.708474
O21	O	1.016499	-0.181494	0.319565
O22	O	1.516499	0.318506	0.819565
O23	O	0.891343	-0.295329	0.324637
O24	O	1.391343	0.204671	0.824637
O25	O	1.002378	-0.495462	0.424571
O26	O	1.502378	0.004538	0.924571
O27	O	0.887423	-0.381581	0.419459
O28	O	1.387423	0.118419	0.919459
O29	O	1.093399	-0.495497	0.333622
O30	O	1.593399	0.004503	0.833622
O31	O	1.102234	-0.295330	0.535693
O32	O	1.602234	0.204670	1.035693
O33	O	1.007405	-0.381582	0.539536
O34	O	1.507405	0.118418	1.039536
C35	C	0.862512	-0.338450	0.372044
C36	C	1.362512	0.161550	0.872044
C37	C	0.780198	-0.338451	0.372049
C38	C	1.280198	0.161549	0.872049
C39	C	0.481104	-0.338510	0.372098
C40	C	0.981104	0.161490	0.872098
C41	C	0.514859	-0.284508	0.312164
C42	C	1.014859	0.215492	0.812164
C43	C	0.600488	-0.284277	0.312308
C44	C	1.100488	0.215723	0.812308
C45	C	0.629488	-0.338481	0.372073
C46	C	1.129488	0.161519	0.872073
C47	C	0.599280	-0.318260	0.449175
C48	C	1.099280	0.181740	0.949175
C49	C	0.513652	-0.317884	0.448838
C50	C	1.013652	0.182116	0.948838
C51	C	0.509371	-0.412861	0.355614
C52	C	1.009371	0.087139	0.855614
C53	C	0.595040	-0.412455	0.353859
C54	C	1.095040	0.087545	0.853859
C55	C	0.713348	-0.338466	0.372064
C56	C	1.213348	0.161534	0.872064
C57	C	0.397244	-0.338524	0.372112
C58	C	0.897244	0.161476	0.872112
C59	C	1.046715	-0.521675	0.380268
C60	C	1.546715	-0.021675	0.880268
C61	C	1.043218	-0.599740	0.383759
C62	C	1.543218	-0.099740	0.883759
C63	C	1.088962	-0.636433	0.338049
C64	C	1.588962	-0.136433	0.838049
C65	C	1.085668	-0.709783	0.341327
C66	C	1.585668	-0.209783	0.841327
C67	C	1.036632	-0.746437	0.390319
C68	C	1.536632	-0.246437	0.890319
C69	C	0.990883	-0.709738	0.436031
C70	C	1.490883	-0.209738	0.936031
C71	C	0.994174	-0.636390	0.432749
C72	C	1.494174	-0.136390	0.932749
C73	C	1.024320	-0.967900	0.402593
C74	C	1.524320	-0.467900	0.902593
C75	C	1.021034	-1.041254	0.405872
C76	C	1.521034	-0.541254	0.905872
C77	C	1.115818	-1.041293	0.311167
C78	C	1.615818	-0.541293	0.811167
C79	C	1.119108	-0.967943	0.307893
C80	C	1.619108	-0.467943	0.807893
C81	C	1.073356	-0.931251	0.353602
C82	C	1.573356	-0.431251	0.853602
C83	C	1.033265	-0.821412	0.393671
C84	C	1.533265	-0.321412	0.893671
C85	C	1.076720	-0.856277	0.350245
C86	C	1.576720	-0.356277	0.850245
C87	C	1.248081	-0.338524	0.372108
C88	C	1.748081	0.161476	0.872108
C89	C	1.330394	-0.338540	0.372122
C90	C	1.830394	0.161460	0.872122
C91	C	1.054823	-0.338466	0.564486
C92	C	1.554823	0.161534	1.064486
C93	C	1.054847	-0.338481	0.646800
C94	C	1.554847	0.161519	1.146800
C95	C	1.063137	-0.156011	0.363862
C96	C	1.563137	0.343989	0.863862
C97	C	1.066778	-0.077947	0.360162
C98	C	1.566778	0.422053	0.860162
C99	C	1.055039	-0.338523	0.178916
C100	C	1.555039	0.161477	0.678916
C101	C	1.055089	-0.338538	0.096602
C102	C	1.555089	0.161462	0.596602
C103	C	1.055008	-0.338519	0.945893
C104	C	1.555008	0.161481	1.445893
C105	C	0.995471	-0.392920	0.917022
C106	C	1.495471	0.107080	1.417022
C107	C	0.995207	-0.392750	0.831397
C108	C	1.495207	0.107250	1.331397
C109	C	1.054928	-0.338501	0.797510
C110	C	1.554928	0.161499	1.297510
C111	C	1.037132	-0.264479	0.825327
C112	C	1.537132	0.235521	1.325327
C113	C	1.036750	-0.264805	0.910987
C114	C	1.536750	0.235195	1.410987
C115	C	1.132496	-0.357487	0.915097
C116	C	1.632496	0.142513	1.415097
C117	C	1.131962	-0.359110	0.829519
C118	C	1.631962	0.140890	1.329519
C119	C	1.054885	-0.338486	0.713649
C120	C	1.554885	0.161514	1.213649
C121	C	1.055050	-0.338529	1.029753
C122	C	1.555050	0.161471	1.529753
H123	H	0.614697	-0.427703	0.297137
H124	H	1.114697	0.072297	0.797137
N125	N	0.619450	-0.465622	0.405007
N126	N	1.119450	0.034378	0.905007
N127	N	0.662826	-0.449788	0.455945
N128	N	1.162826	0.050212	0.955945
H129	H	0.680046	-0.487331	0.492090
H130	H	1.180046	0.012669	0.992090
N131	N	0.940781	-0.747167	0.486070
N132	N	1.440781	-0.247167	0.986070
N133	N	0.899933	-0.714393	0.526870
N134	N	1.399933	-0.214393	1.026870
H135	H	0.864542	-0.740825	0.562208
H136	H	1.364542	-0.240825	1.062208
H137	H	0.620957	-0.296952	0.255030
H138	H	1.120957	0.203048	0.755030
N139	N	1.008688	-0.461598	0.808054
N140	N	1.508688	0.038402	1.308054
N141	N	1.010798	-0.473251	0.740670
N142	N	1.510798	0.026749	1.240670
H143	H	1.020319	-0.521878	0.724186
H144	H	1.520319	-0.021878	1.224186
N145	N	1.153675	-0.424050	0.945106
N146	N	1.653675	0.075950	1.445106
N147	N	1.213942	-0.447952	0.926867
N148	N	1.713942	0.052048	1.426867
H149	H	1.228894	-0.494966	0.948061
H150	H	1.728894	0.005034	1.448061
N151	N	0.481288	-0.435921	0.286524
N152	N	0.981288	0.064079	0.786524
N153	N	0.524956	-0.448995	0.235896
N154	N	1.024956	0.051005	0.735896
H155	H	0.505123	-0.465273	0.187097
H156	H	1.005123	0.034727	0.687097
H157	H	1.116641	-0.826430	0.310353
H158	H	1.616641	-0.326430	0.810353
N159	N	0.481700	-0.463329	0.410443
N160	N	0.981700	0.036671	0.910443
N161	N	0.441334	-0.444715	0.461461
N162	N	0.941334	0.055285	0.961461
H163	H	0.421793	-0.480351	0.500190
H164	H	0.921793	0.019649	1.000190
H165	H	0.491236	-0.355502	0.494827
H166	H	0.991236	0.144498	0.994827
N167	N	1.148868	-0.427450	0.807049
N168	N	1.648868	0.072550	1.307049
N169	N	1.104386	-0.460891	0.767607
N170	N	1.604386	0.039109	1.267607
H171	H	1.116323	-0.509157	0.751734
H172	H	1.616323	-0.009157	1.251734
H173	H	1.159040	-0.938104	0.268001
H174	H	1.659040	-0.438104	0.768001
N175	N	1.008822	-0.462005	0.945862
N176	N	1.508822	0.037995	1.445862
N177	N	1.062368	-0.471955	0.988036
N178	N	1.562368	0.028045	1.488036
H179	H	1.071813	-0.520751	1.008390
H180	H	1.571813	-0.020751	1.508390
H181	H	1.128895	-0.606595	0.298157
H182	H	1.628895	-0.106595	0.798157
H183	H	0.993344	-0.851264	0.433564
H184	H	1.493344	-0.351264	0.933564
N185	N	0.629278	-0.215172	0.325653
N186	N	1.129278	0.284828	0.825653
N187	N	0.697604	-0.202991	0.328078
N188	N	1.197604	0.297009	0.828078
H189	H	0.717938	-0.154182	0.337505
H190	H	1.217938	0.345818	0.837505
H191	H	1.079279	-0.222840	0.803086
H192	H	1.579279	0.277160	1.303086
N193	N	0.966978	-0.243944	0.797581
N194	N	1.466978	0.256056	1.297581
N195	N	0.962767	-0.189382	0.757548
N196	N	1.462767	0.310618	1.257548
H197	H	0.913220	-0.174881	0.737954
H198	H	1.413220	0.325119	1.237954
N199	N	1.190213	-0.313022	0.800587
N200	N	1.690213	0.186978	1.300587
N201	N	1.175835	-0.264013	0.755708
N202	N	1.675835	0.235987	1.255708
H203	H	1.216973	-0.231455	0.735276
H204	H	1.716973	0.268545	1.235276
N205	N	1.188104	-0.307790	0.938254
N206	N	1.688104	0.192210	1.438254
N207	N	1.225206	-0.271811	0.891149
N208	N	1.725206	0.228189	1.391149
H209	H	1.264475	-0.236711	0.907505
H210	H	1.764475	0.263289	1.407505
H211	H	1.122919	-0.739656	0.304106
H212	H	1.622919	-0.239656	0.804106
N213	N	1.162544	-1.078785	0.264485
N214	N	1.662544	-0.578785	0.764485
N215	N	1.159603	-1.144273	0.267420
N216	N	1.659603	-0.644273	0.767420
H217	H	1.192604	-1.170753	0.234448
H218	H	1.692604	-0.670753	0.734448
N219	N	0.970915	-1.078699	0.455890
N220	N	1.470915	-0.578699	0.955890
N221	N	0.902953	-1.070494	0.450566
N222	N	1.402953	-0.570494	0.950566
H223	H	0.867553	-1.096944	0.485880
H224	H	1.367553	-0.596944	0.985880
N225	N	0.488336	-0.300233	0.240082
N226	N	0.988336	0.199767	0.740082
N227	N	0.444244	-0.351422	0.232037
N228	N	0.944244	0.148578	0.732037
H229	H	0.425504	-0.362529	0.181128
H230	H	0.925504	0.137471	0.681128
H231	H	0.495776	-0.229735	0.322660
H232	H	0.995776	0.270265	0.822660
H233	H	0.617929	-0.356361	0.494882
H234	H	1.117929	0.143639	0.994882
N235	N	0.491624	-0.249696	0.466869
N236	N	0.991624	0.250304	0.966869
N237	N	0.539476	-0.202716	0.479612
N238	N	1.039476	0.297284	0.979612
H239	H	0.523923	-0.154556	0.492346
H240	H	1.023923	0.345444	0.992346
N241	N	0.629173	-0.250803	0.467589
N242	N	1.129173	0.249197	0.967589
N243	N	0.617406	-0.198298	0.426473
N244	N	1.117406	0.301702	0.926473
H245	H	0.638516	-0.150654	0.439473
H246	H	1.138516	0.349346	0.939473
N247	N	0.977578	-0.930431	0.449277
N248	N	1.477578	-0.430431	0.949277
N249	N	0.908880	-0.938616	0.444715
N250	N	1.408880	-0.438616	0.944715
H251	H	0.875864	-0.912152	0.477688
H252	H	1.375864	-0.412152	0.977688
N253	N	0.947438	-0.598917	0.479441
N254	N	1.447438	-0.098917	0.979441
N255	N	0.903657	-0.631650	0.523179
N256	N	1.403657	-0.131650	1.023179
H257	H	0.870645	-0.605186	0.556155
H258	H	1.370645	-0.105186	1.056155
H259	H	0.938314	-0.380513	0.938046
H260	H	1.438314	0.119487	1.438046
N261	N	0.923068	-0.376990	0.805066
N262	N	1.423068	0.123010	1.305066
N263	N	0.872760	-0.366076	0.849946
N264	N	1.372760	0.133924	1.349946
H265	H	0.821807	-0.354943	0.831351
H266	H	1.321807	0.145057	1.331351
H267	H	0.980206	-0.248737	0.930302
H268	H	1.480206	0.251263	1.430302
N269	N	1.089001	-0.212206	0.934607
N270	N	1.589001	0.287794	1.434607
N271	N	1.125629	-0.175372	0.887831
N272	N	1.625629	0.324628	1.387831
H273	H	1.162523	-0.138217	0.904508
H274	H	1.662523	0.361783	1.404508
