data_functionalizedCrystal
_audit_creation_method	'MofGen! by Chris Wilmer'
_symmetry_space_group_name_H-M	'P1'
_symmetry_Int_Tables_number	1
_symmetry_cell_setting	triclinic
loop_
_symmetry_equiv_pos_as_xyz
  x,y,z
_cell_length_a	15.995350
_cell_length_b	16.109301
_cell_length_c	15.186229
_cell_angle_alpha	89.995644
_cell_angle_beta	90.001965
_cell_angle_gamma	83.476927
loop_
_atom_site_label
_atom_site_type_symbol
_atom_site_fract_x
_atom_site_fract_y
_atom_site_fract_z
O1	O	1.110958	0.107161	0.073145
O2	O	1.444292	0.440494	0.406478
O3	O	1.777625	0.773828	0.739811
O4	O	0.867179	0.120395	0.073162
O5	O	1.200513	0.453728	0.406495
O6	O	1.533846	0.787061	0.739828
O7	O	0.995766	-0.007252	0.073157
O8	O	1.329099	0.326082	0.406491
O9	O	1.662432	0.659415	0.739824
O10	O	0.982372	0.234807	0.073149
O11	O	1.315705	0.568140	0.406483
O12	O	1.649039	0.901474	0.739816
O13	O	0.995751	-0.007244	-0.073300
O14	O	1.329084	0.326089	0.260033
O15	O	1.662417	0.659422	0.593367
O16	O	0.867164	0.120402	-0.073295
O17	O	1.200498	0.453735	0.260038
O18	O	1.533831	0.787068	0.593371
O19	O	1.110943	0.107168	-0.073312
O20	O	1.444277	0.440501	0.260021
O21	O	1.777610	0.773835	0.593354
Zn22	Zn	0.989051	0.113786	-0.096557
Zn23	Zn	1.322385	0.447119	0.236776
Zn24	Zn	1.655718	0.780453	0.570109
Zn25	Zn	0.989071	0.113777	0.096407
Zn26	Zn	1.322405	0.447110	0.429740
Zn27	Zn	1.655738	0.780443	0.763073
O28	O	0.982357	0.234814	-0.073308
O29	O	1.315690	0.568147	0.260025
O30	O	1.649024	0.901481	0.593359
C31	C	0.835977	0.119851	-0.000065
C32	C	1.169311	0.453184	0.333269
C33	C	1.502644	0.786518	0.666602
C34	C	0.743027	0.118211	-0.000058
C35	C	1.076361	0.451544	0.333276
C36	C	1.409694	0.784878	0.666609
C37	C	0.995216	-0.038223	-0.000068
C38	C	1.328549	0.295110	0.333265
C39	C	1.661882	0.628444	0.666599
C40	C	0.993589	-0.130519	-0.000059
C41	C	1.326922	0.202815	0.333274
C42	C	1.660256	0.536148	0.666608
N43	N	0.989044	0.113792	-0.228250
N44	N	1.322377	0.447125	0.105083
N45	N	1.655711	0.780459	0.438417
C46	C	0.405281	0.112320	-0.000076
C47	C	0.738615	0.445654	0.333258
C48	C	1.071948	0.778987	0.666591
C49	C	0.452740	0.021413	-0.000399
C50	C	0.786074	0.354747	0.332934
C51	C	1.119407	0.688080	0.666267
C52	C	0.549430	0.023054	-0.000063
C53	C	0.882763	0.356387	0.333270
C54	C	1.216097	0.689720	0.666603
C55	C	0.572841	0.115242	-0.000067
C56	C	0.906174	0.448576	0.333266
C57	C	1.239508	0.781909	0.666599
C58	C	0.531750	0.160077	0.083562
C59	C	0.865084	0.493410	0.416895
C60	C	1.198417	0.826743	0.750229
C61	C	0.435115	0.157793	0.083626
C62	C	0.768449	0.491126	0.416959
C63	C	1.101782	0.824459	0.750293
C64	C	0.434759	0.159679	-0.082923
C65	C	0.768092	0.493013	0.250410
C66	C	1.101425	0.826346	0.583743
C67	C	0.531704	0.159658	-0.084023
C68	C	0.865037	0.492991	0.249311
C69	C	1.198371	0.826325	0.582644
C70	C	0.667538	0.116898	-0.000059
C71	C	1.000871	0.450232	0.333274
C72	C	1.334205	0.783565	0.666607
C73	C	0.310584	0.110667	-0.000078
C74	C	0.643917	0.444000	0.333256
C75	C	0.977251	0.777334	0.666589
C76	C	1.142145	0.107712	-0.000084
C77	C	1.475479	0.441045	0.333249
C78	C	1.808812	0.774378	0.666582
C79	C	1.235095	0.109352	-0.000085
C80	C	1.568429	0.442685	0.333248
C81	C	1.901762	0.776018	0.666581
C82	C	0.982907	0.265786	-0.000081
C83	C	1.316240	0.599119	0.333253
C84	C	1.649574	0.932452	0.666586
C85	C	0.984534	0.358081	-0.000084
C86	C	1.317867	0.691415	0.333249
C87	C	1.651200	1.024748	0.666583
C88	C	0.912015	0.580334	-0.000066
C89	C	1.245348	0.913667	0.333267
C90	C	1.578682	1.247001	0.666600
C91	C	0.913550	0.667055	-0.000060
C92	C	1.246883	1.000388	0.333274
C93	C	1.580217	1.333722	0.666607
C94	C	1.066113	0.647222	-0.000074
C95	C	1.399447	0.980555	0.333259
C96	C	1.732780	1.313888	0.666593
C97	C	1.064577	0.560503	-0.000074
C98	C	1.397911	0.893836	0.333259
C99	C	1.731244	1.227169	0.666592
C100	C	0.987526	0.527061	-0.000075
C101	C	1.320859	0.860395	0.333258
C102	C	1.654193	1.193728	0.666592
C103	C	0.990597	0.700501	-0.000068
C104	C	1.323930	1.033835	0.333265
C105	C	1.657263	1.367168	0.666599
C106	C	0.992261	0.794528	-0.000061
C107	C	1.325595	1.127861	0.333272
C108	C	1.658928	1.461194	0.666606
C109	C	0.985861	0.433029	-0.000080
C110	C	1.319194	0.766362	0.333253
C111	C	1.652527	1.099696	0.666586
C112	C	1.039825	0.164234	-0.453978
C113	C	1.373159	0.497567	-0.120645
C114	C	1.706492	0.830901	0.212688
C115	C	1.039834	0.164228	-0.546168
C116	C	1.373168	0.497561	-0.212835
C117	C	1.706501	0.830895	0.120499
C118	C	0.938302	0.063316	-0.546166
C119	C	1.271635	0.396650	-0.212833
C120	C	1.604968	0.729983	0.120501
C121	C	0.938298	0.063318	-0.453978
C122	C	1.271631	0.396652	-0.120645
C123	C	1.604964	0.729985	0.212689
C124	C	0.989058	0.113782	-0.407887
C125	C	1.322391	0.447115	-0.074553
C126	C	1.655725	0.780449	0.258780
C127	C	0.989071	0.113774	-0.592264
C128	C	1.322405	0.447107	-0.258931
C129	C	1.655738	0.780441	0.074402
C130	C	0.989081	0.113767	-0.692220
C131	C	1.322414	0.447101	-0.358887
C132	C	1.655747	0.780434	-0.025554
C133	C	0.989050	0.113788	-0.307924
C134	C	1.322383	0.447121	0.025409
C135	C	1.655717	0.780455	0.358743
N136	N	0.989085	0.113764	0.228099
N137	N	1.322419	0.447097	0.561433
N138	N	1.655752	0.780431	0.894766
H139	H	0.577862	-0.012189	-0.060012
H140	H	0.911196	0.321145	0.273321
H141	H	1.244529	0.654478	0.606654
H142	H	0.402849	0.224535	0.087418
H143	H	0.736182	0.557868	0.420752
H144	H	1.069516	0.891202	0.754085
H145	H	0.896956	0.022230	-0.416449
H146	H	1.230290	0.355564	-0.083116
H147	H	1.563623	0.688897	0.250218
H148	H	0.433163	-0.014760	0.059246
H149	H	0.766496	0.318573	0.392579
H150	H	1.099829	0.651907	0.725913
Br151	Br	0.807446	0.534952	-0.000065
Br152	Br	1.140779	0.868285	0.333269
Br153	Br	1.474113	1.201618	0.666602
Br154	Br	0.557274	0.271712	-0.092448
Br155	Br	0.890608	0.605046	0.240885
Br156	Br	1.223941	0.938379	0.574219
Br157	Br	0.869411	-0.005161	-0.608724
Br158	Br	1.202744	0.328172	-0.275391
Br159	Br	1.536078	0.661505	0.057943
H160	H	0.416822	0.125092	0.146144
H161	H	0.750156	0.458425	0.479477
H162	H	1.083489	0.791758	0.812810
Br163	Br	0.421872	-0.039149	-0.100361
Br164	Br	0.755205	0.294184	0.232972
Br165	Br	1.088539	0.627517	0.566305
Br166	Br	1.167064	0.488197	-0.000077
Br167	Br	1.500397	0.821530	0.333256
Br168	Br	1.833731	1.154864	0.666590
H169	H	1.081158	0.205325	-0.416453
H170	H	1.414491	0.538658	-0.083120
H171	H	1.747824	0.871991	0.250213
H172	H	1.128846	0.674460	-0.000083
H173	H	1.462179	1.007794	0.333251
H174	H	1.795513	1.341127	0.666584
Br175	Br	0.595861	-0.035829	0.100209
Br176	Br	0.929194	0.297505	0.433542
Br177	Br	1.262527	0.630838	0.766876
H178	H	1.081175	0.205310	-0.583692
H179	H	1.414509	0.538643	-0.250358
H180	H	1.747842	0.871977	0.082975
H181	H	0.545857	0.227805	0.086669
H182	H	0.879190	0.561138	0.420002
H183	H	1.212524	0.894472	0.753335
H184	H	0.560140	0.128931	0.145803
H185	H	0.893473	0.462264	0.479137
H186	H	1.226806	0.795597	0.812470
Br187	Br	0.811066	0.739351	-0.000040
Br188	Br	1.144400	1.072685	0.333294
Br189	Br	1.477733	1.406018	0.666627
Br190	Br	0.577120	0.105014	-0.187142
Br191	Br	0.910454	0.438348	0.146191
Br192	Br	1.243787	0.771681	0.479525
Br193	Br	0.400539	0.110148	-0.188578
Br194	Br	0.733873	0.443481	0.144756
Br195	Br	1.067206	0.776815	0.478089
H196	H	0.402979	0.226705	-0.083492
H197	H	0.736312	0.560038	0.249841
H198	H	1.069645	0.893371	0.583175
