data_functionalizedCrystal
_audit_creation_method	'MofGen! by Chris Wilmer'
_symmetry_space_group_name_H-M	'P1'
_symmetry_Int_Tables_number	1
_symmetry_cell_setting	triclinic
loop_
_symmetry_equiv_pos_as_xyz
  x,y,z
_cell_length_a	13.897449
_cell_length_b	18.101395
_cell_length_c	18.101389
_cell_angle_alpha	90.016841
_cell_angle_beta	90.017847
_cell_angle_gamma	90.032384
loop_
_atom_site_label
_atom_site_type_symbol
_atom_site_fract_x
_atom_site_fract_y
_atom_site_fract_z
Zn1	Zn	1.474585	-0.294882	0.418719
Zn2	Zn	1.474450	-0.418708	0.294881
Zn3	Zn	1.313282	-0.294887	0.294894
Zn4	Zn	1.313218	-0.418689	0.418683
O5	O	1.393884	-0.356791	0.356794
O6	O	1.609549	-0.311313	0.402301
O7	O	1.453040	-0.402293	0.191250
O8	O	1.334763	-0.191254	0.311340
O9	O	1.609449	-0.402288	0.311317
O10	O	1.453272	-0.191250	0.402314
O11	O	1.334632	-0.311322	0.191259
O12	O	1.178292	-0.311304	0.311306
O13	O	1.334654	-0.402256	0.522321
O14	O	1.178245	-0.402261	0.402253
O15	O	1.453209	-0.311295	0.522347
O16	O	1.452978	-0.522338	0.311283
O17	O	1.334522	-0.522324	0.402240
C18	C	1.143270	-0.356782	0.356777
C19	C	1.036056	-0.356795	0.356788
C20	C	1.393755	-0.549202	0.356772
C21	C	1.393788	-0.631516	0.356788
C22	C	0.839760	-0.356798	0.356807
C23	C	0.948993	-0.356794	0.356794
C24	C	1.394000	-0.930607	0.356828
C25	C	1.319643	-0.899304	0.414198
C26	C	1.319290	-0.813686	0.414018
C27	C	1.393894	-0.782225	0.356809
C28	C	1.366374	-0.813362	0.278760
C29	C	1.365894	-0.899007	0.279103
C30	C	1.496039	-0.898953	0.376820
C31	C	1.495439	-0.813302	0.378532
C32	C	1.393837	-0.698365	0.356793
C33	C	1.394055	-1.014466	0.356838
C34	C	1.645477	-0.356802	0.356812
C35	C	1.752691	-0.356806	0.356819
C36	C	1.393940	-0.356773	0.549956
C37	C	1.393963	-0.356765	0.632270
C38	C	1.394040	-0.163630	0.356832
C39	C	1.394106	-0.081315	0.356849
C40	C	1.393884	-0.356757	0.164384
C41	C	1.394047	-0.356556	0.082070
C42	C	1.394020	-0.356626	0.931361
C43	C	1.319171	-0.413674	0.900020
C44	C	1.319373	-0.413938	0.814401
C45	C	1.393991	-0.356695	0.782979
C46	C	1.495619	-0.377877	0.814076
C47	C	1.495202	-0.378252	0.899721
C48	C	1.368124	-0.278269	0.899786
C49	C	1.365863	-0.278722	0.814135
C50	C	1.393981	-0.356733	0.699119
C51	C	1.394036	-0.356590	1.015221
H52	H	1.336508	-0.792632	0.471891
Br53	Br	1.591071	-0.310799	0.780161
Br54	Br	1.348049	-0.933570	0.510973
Br55	Br	1.194350	-0.935300	0.392424
H56	H	1.243655	-0.793262	0.400776
H57	H	1.551438	-0.919194	0.335035
H58	H	1.521130	-0.920510	0.432763
Br59	Br	1.591242	-0.311957	0.934285
H60	H	1.244012	-0.400683	0.793375
H61	H	1.291304	-0.919049	0.262167
Br62	Br	1.452233	-0.933527	0.205425
Br63	Br	1.453799	-0.779401	0.205568
Br64	Br	1.532847	-0.472332	0.778339
Br65	Br	1.241201	-0.252099	0.780271
Br66	Br	1.243366	-0.777722	0.250024
Br67	Br	1.530035	-0.779382	0.474270
Br68	Br	1.531791	-0.473721	0.933032
Br69	Br	1.193177	-0.391805	0.934331
Br70	Br	1.592668	-0.777594	0.313970
Br71	Br	1.246752	-0.246102	0.935770
H72	H	1.416401	-0.233962	0.792745
Br73	Br	1.347315	-0.509878	0.935958
H74	H	1.336469	-0.472019	0.793919
Br75	Br	1.458988	-0.207427	0.933567
