data_functionalizedCrystal
_audit_creation_method	'MofGen! by Chris Wilmer'
_symmetry_space_group_name_H-M	'P1'
_symmetry_Int_Tables_number	1
_symmetry_cell_setting	triclinic
loop_
_symmetry_equiv_pos_as_xyz
  x,y,z
_cell_length_a	10.540514
_cell_length_b	10.540510
_cell_length_c	9.730223
_cell_angle_alpha	89.998073
_cell_angle_beta	89.996196
_cell_angle_gamma	84.514235
loop_
_atom_site_label
_atom_site_type_symbol
_atom_site_fract_x
_atom_site_fract_y
_atom_site_fract_z
O1	O	1.685885	0.178750	-0.114299
O2	O	1.316466	0.195639	-0.114297
O3	O	1.509623	0.002485	-0.114298
O4	O	1.492727	0.371904	-0.114299
O5	O	1.509610	0.002479	0.114282
O6	O	1.316453	0.195634	0.114283
O7	O	1.685872	0.178744	0.114281
Zn8	Zn	1.501161	0.187188	0.150574
Zn9	Zn	1.501177	0.187195	-0.150590
O10	O	1.492715	0.371899	0.114281
C11	C	1.269156	0.194377	-0.000007
C12	C	1.128207	0.190608	-0.000007
C13	C	1.057486	0.328749	-0.000010
C14	C	0.910874	0.324875	-0.000536
C15	C	0.935884	0.115483	-0.130291
C16	C	1.082423	0.120336	-0.130393
C17	C	1.082812	0.118286	0.129554
C18	C	0.935833	0.116953	0.131259
C19	C	1.508358	-0.044821	-0.000010
C20	C	1.504591	-0.185771	-0.000019
C21	C	1.638776	-0.403239	0.000504
C22	C	1.642794	-0.256643	-0.000018
C23	C	1.433851	-0.230520	-0.130546
C24	C	1.430812	-0.377281	-0.130648
C25	C	1.427919	-0.377095	0.129290
C26	C	1.434475	-0.230755	0.131008
C27	C	1.733182	0.180007	-0.000012
C28	C	1.874131	0.183776	-0.000022
C29	C	1.493980	0.419205	-0.000009
C30	C	1.497747	0.560155	-0.000010
N31	N	1.501159	0.187183	0.356110
N32	N	1.501189	0.187191	-0.356126
C33	C	1.586718	0.101690	0.428036
C34	C	1.586731	0.101691	0.571919
C35	C	1.415620	0.272687	0.571938
C36	C	1.415603	0.272680	0.428057
H37	H	0.869141	0.378365	-0.094468
N38	N	1.679030	0.009494	0.649490
H39	H	1.630045	-0.047192	0.709202
H40	H	1.733199	-0.044572	0.581981
N41	N	1.678989	0.009479	0.350433
H42	H	1.733191	-0.044681	0.417836
H43	H	1.629886	-0.047113	0.290751
N44	N	0.854351	0.396042	0.123124
H45	H	0.792319	0.469242	0.091662
H46	H	0.808264	0.336276	0.182050
H47	H	1.485947	-0.202150	0.227571
H48	H	1.471833	-0.419283	0.228230
N49	N	1.124511	0.179185	0.260393
H50	H	1.173259	0.254279	0.237001
H51	H	1.047038	0.209217	0.316911
H52	H	1.345964	0.342299	0.630531
H53	H	1.333575	-0.181679	0.138891
H54	H	1.345924	0.342298	0.369492
H55	H	1.479166	-0.417498	-0.228220
N56	N	0.903833	-0.019283	0.142256
H57	H	0.856395	-0.030888	0.230872
H58	H	0.848672	-0.039662	0.061866
N59	N	1.095280	0.402995	0.123700
H60	H	1.072098	0.357838	0.210398
H61	H	1.190234	0.409527	0.121753
N62	N	1.097515	0.401907	-0.123565
H63	H	1.161260	0.345955	-0.179536
H64	H	1.020295	0.428685	-0.181859
H65	H	1.110648	0.170220	-0.228144
H66	H	1.130440	0.018862	-0.135955
N67	N	1.299081	-0.167738	-0.136977
H68	H	1.300704	-0.072164	-0.141141
H69	H	1.255490	-0.197982	-0.221676
H70	H	0.913581	0.011849	-0.134767
N71	N	1.145442	-0.016674	0.131244
H72	H	1.115921	-0.062671	0.214701
H73	H	1.121284	-0.062367	0.045276
N74	N	0.879499	0.177524	-0.259206
H75	H	0.813969	0.249854	-0.233522
H76	H	0.949357	0.211694	-0.315258
N77	N	1.290472	-0.406415	0.130466
H78	H	1.273462	-0.460075	0.047697
H79	H	1.273091	-0.454586	0.217119
H80	H	0.894827	0.166862	0.227634
H81	H	1.698144	-0.227307	0.093547
N82	N	1.498931	-0.189672	-0.259229
H83	H	1.497548	-0.093739	-0.260722
H84	H	1.590109	-0.229083	-0.260442
N85	N	1.710121	-0.458828	0.124478
H86	H	1.740561	-0.387729	0.181652
H87	H	1.651659	-0.508300	0.181423
N88	N	1.709692	-0.460870	-0.122788
H89	H	1.665961	-0.427611	-0.209727
H90	H	1.800186	-0.436883	-0.121558
N91	N	1.716549	-0.219005	-0.124168
H92	H	1.746568	-0.297688	-0.178773
H93	H	1.659732	-0.159006	-0.183544
H94	H	1.327444	-0.400266	-0.136561
