data_functionalizedCrystal
_audit_creation_method	'MofGen! by Chris Wilmer'
_symmetry_space_group_name_H-M	'P1'
_symmetry_Int_Tables_number	1
_symmetry_cell_setting	triclinic
loop_
_symmetry_equiv_pos_as_xyz
  x,y,z
_cell_length_a	11.169417
_cell_length_b	19.076808
_cell_length_c	19.076919
_cell_angle_alpha	89.878360
_cell_angle_beta	92.284274
_cell_angle_gamma	92.324435
loop_
_atom_site_label
_atom_site_type_symbol
_atom_site_fract_x
_atom_site_fract_y
_atom_site_fract_z
Zn1	Zn	1.788059	-0.295724	-0.385996
Zn2	Zn	1.788565	-0.408519	-0.263765
Zn3	Zn	1.595738	-0.291025	-0.268510
Zn4	Zn	1.579578	-0.413203	-0.381239
O5	O	1.687985	-0.352118	-0.324877
O6	O	1.956075	-0.310693	-0.369786
O7	O	1.769961	-0.389006	-0.166063
O8	O	1.627801	-0.193312	-0.288071
O9	O	1.956447	-0.393563	-0.279984
O10	O	1.769099	-0.196764	-0.374387
O11	O	1.628291	-0.302684	-0.169549
O12	O	1.425645	-0.307226	-0.283459
O13	O	1.600259	-0.401546	-0.480201
O14	O	1.413773	-0.396989	-0.366280
O15	O	1.753429	-0.315235	-0.483696
O16	O	1.754291	-0.507477	-0.275372
O17	O	1.600749	-0.510918	-0.361679
C18	C	1.376162	-0.352107	-0.324869
C19	C	1.242760	-0.352120	-0.324881
C20	C	1.675853	-0.534696	-0.317510
C21	C	1.670771	-0.612804	-0.314381
C22	C	1.741889	-0.651238	-0.357888
C23	C	1.737109	-0.724629	-0.354950
C24	C	1.661216	-0.759585	-0.308501
C25	C	1.590089	-0.721146	-0.264992
C26	C	1.594864	-0.647756	-0.267934
C27	C	1.639048	-0.978891	-0.294881
C28	C	1.634282	-1.052286	-0.291941
C29	C	1.781300	-1.055764	-0.381900
C30	C	1.786073	-0.982373	-0.384835
C31	C	1.714942	-0.943940	-0.341329
N32	N	1.656331	-0.834603	-0.305495
N33	N	1.719822	-0.868924	-0.344339
C34	C	2.001026	-0.352129	-0.324886
C35	C	2.134425	-0.352134	-0.324890
C36	C	1.674985	-0.359437	-0.508158
C37	C	1.669445	-0.362556	-0.586261
C38	C	1.700196	-0.168827	-0.332289
C39	C	1.705400	-0.090720	-0.335448
C40	C	1.746586	-0.319086	-0.624774
C41	C	1.741366	-0.322013	-0.698161
C42	C	1.659011	-0.368416	-0.733032
C43	C	1.581862	-0.411888	-0.694513
C44	C	1.587076	-0.408956	-0.621128
C45	C	1.634858	-0.382000	-0.952314
C46	C	1.629651	-0.384930	-1.025704
C47	C	1.789155	-0.295054	-1.029346
C48	C	1.794368	-0.292129	-0.955960
C49	C	1.717214	-0.335599	-0.917448
N50	N	1.653676	-0.371411	-0.808044
N51	N	1.722544	-0.332599	-0.842437
C52	C	1.701007	-0.344776	-0.142312
C53	C	1.706792	-0.341460	-0.064217
H54	H	1.803695	-0.622782	-0.395709
H55	H	1.572051	-0.417406	-0.920965
H56	H	1.804185	-0.286617	-0.729515
H57	H	1.861434	-0.254346	-0.927573
H58	H	1.524248	-0.444347	-0.589772
H59	H	1.795031	-0.755919	-0.390372
H60	H	1.528290	-0.749613	-0.227175
O61	O	1.863967	-0.252853	-1.066865
C62	C	1.841730	-0.265400	-1.139114
H63	H	1.746866	-0.288814	-1.148201
H64	H	1.851392	-0.213877	-1.169132
H65	H	1.908949	-0.303654	-1.158431
O66	O	1.501965	-0.456943	-0.728494
C67	C	1.513882	-0.450199	-0.801525
H68	H	1.607326	-0.427591	-0.812486
H69	H	1.500250	-0.503950	-0.827285
H70	H	1.443710	-0.413606	-0.823860
O71	O	1.525737	-0.610526	-0.225603
C72	C	1.457703	-0.657114	-0.183987
H73	H	1.503638	-0.709307	-0.179477
H74	H	1.450271	-0.633722	-0.129468
H75	H	1.364189	-0.665987	-0.209364
O76	O	1.850491	-1.092991	-0.424197
C77	C	1.918466	-1.046400	-0.465842
H78	H	1.928122	-0.992947	-0.439154
H79	H	2.011100	-1.067858	-0.472552
H80	H	1.871147	-1.040722	-0.519493
H81	H	1.847871	-0.953913	-0.422657
O82	O	1.826623	-0.273948	-0.591015
C83	C	1.893608	-0.236220	-0.640748
H84	H	1.840892	-0.235876	-0.693154
H85	H	1.911605	-0.180006	-0.621787
H86	H	1.982490	-0.262268	-0.647519
O87	O	1.560444	-1.086134	-0.246803
C88	C	1.498705	-1.036476	-0.209022
H89	H	1.495869	-0.985302	-0.239898
H90	H	1.403308	-1.057436	-0.200632
H91	H	1.547011	-1.026536	-0.155987
H92	H	1.581133	-0.947605	-0.259456
O93	O	1.549537	-0.430024	-1.059469
C94	C	1.482577	-0.467776	-1.009742
H95	H	1.484048	-0.436903	-0.958595
H96	H	1.386014	-0.476113	-1.030641
H97	H	1.523520	-0.520837	-0.999779
