data_functionalizedCrystal
_audit_creation_method	'MofGen! by Chris Wilmer'
_symmetry_space_group_name_H-M	'P1'
_symmetry_Int_Tables_number	1
_symmetry_cell_setting	triclinic
loop_
_symmetry_equiv_pos_as_xyz
  x,y,z
_cell_length_a	16.992694
_cell_length_b	14.853567
_cell_length_c	16.053802
_cell_angle_alpha	92.572962
_cell_angle_beta	87.249047
_cell_angle_gamma	87.151577
loop_
_atom_site_label
_atom_site_type_symbol
_atom_site_fract_x
_atom_site_fract_y
_atom_site_fract_z
O1	O	1.043898	0.187626	-0.069313
O2	O	0.815612	0.185528	-0.069338
O3	O	0.935853	0.055778	-0.069327
O4	O	0.923657	0.317376	-0.069323
O5	O	0.929234	0.062888	0.069531
O6	O	0.808993	0.192638	0.069521
O7	O	1.037280	0.194737	0.069545
Zn8	Zn	0.922086	0.194816	0.091580
Zn9	Zn	0.930806	0.185448	-0.091372
O10	O	0.917038	0.324487	0.069535
C11	C	0.783087	0.186385	0.000088
C12	C	0.696035	0.178334	0.000078
C13	C	0.931991	0.025705	0.000099
C14	C	0.930335	-0.074496	0.000092
C15	C	0.645879	0.256009	0.000080
C16	C	0.564083	0.248440	0.000092
C17	C	0.532446	0.163195	0.000095
C18	C	0.582608	0.085513	0.000096
C19	C	0.664401	0.093084	0.000091
C20	C	0.288813	0.131819	0.000117
C21	C	0.207013	0.124255	0.000120
C22	C	0.188494	0.287183	0.000117
C23	C	0.270290	0.294745	0.000107
C24	C	0.320445	0.217064	0.000112
N25	N	0.448838	0.155456	0.000104
N26	N	0.404051	0.224804	0.000109
C27	C	0.851909	-0.492567	0.000099
C28	C	0.994758	-0.503761	0.000115
C29	C	0.996315	-0.409617	0.000110
C30	C	0.925668	-0.356944	0.000101
C31	C	0.853464	-0.398414	0.000097
C32	C	1.068518	-0.368139	0.000123
C33	C	1.070078	-0.273990	0.000119
C34	C	0.999430	-0.221316	0.000104
C35	C	0.927223	-0.262792	0.000099
C36	C	0.856576	-0.210118	0.000090
C37	C	0.784368	-0.251593	0.000079
C38	C	0.782816	-0.345740	0.000082
C39	C	1.000983	-0.127169	0.000101
C40	C	0.858131	-0.115966	0.000088
C41	C	1.069804	0.193880	0.000118
C42	C	1.156857	0.201930	0.000122
C43	C	0.920900	0.354559	0.000106
C44	C	0.922556	0.454760	0.000108
N45	N	0.916140	0.201210	0.216440
N46	N	0.936757	0.179048	-0.216232
C47	C	0.967322	0.146023	0.260138
C48	C	0.963170	0.150505	0.347544
C49	C	0.907840	0.210178	0.391251
C50	C	0.856653	0.265367	0.347546
C51	C	0.860801	0.260880	0.260141
C52	C	0.889719	0.229750	0.652659
C53	C	0.885576	0.234235	0.740070
C54	C	0.992092	0.119371	0.740062
C55	C	0.996239	0.114894	0.652655
C56	C	0.945049	0.170079	0.608958
N57	N	0.903597	0.214762	0.480594
N58	N	0.949289	0.165490	0.519617
H59	H	0.671631	0.325425	0.000077
H60	H	0.147649	0.350426	0.000115
O61	O	0.176150	0.041510	0.000094
C62	C	0.093202	0.051492	0.000116
H63	H	0.075326	0.119119	-0.026180
H64	H	0.069943	-0.005479	-0.040190
H65	H	0.067261	0.048906	0.066735
O66	O	0.337416	0.056269	0.000082
C67	C	0.291948	-0.020589	0.000105
H68	H	0.232179	-0.003446	-0.026185
H69	H	0.323972	-0.077445	-0.040208
H70	H	0.282926	-0.043027	0.066723
O71	O	0.713101	0.017596	-0.000063
C72	C	0.702154	-0.037507	-0.071968
H73	H	0.676637	0.005501	-0.122232
H74	H	0.761293	-0.070715	-0.096110
H75	H	0.659680	-0.091863	-0.055706
H76	H	1.012380	0.097435	0.224558
O77	O	0.712734	-0.386138	-0.000032
C78	C	0.710981	-0.443937	-0.071954
H79	H	0.773904	-0.464126	-0.095925
H80	H	0.678894	-0.506946	-0.055775
H81	H	0.678728	-0.407479	-0.122317
O82	O	0.551910	0.002692	0.000246
C83	C	0.574129	-0.041343	0.072149
H84	H	0.588803	0.010975	0.122416
H85	H	0.523393	-0.082039	0.096288
H86	H	0.628156	-0.088574	0.055888
H87	H	0.800601	-0.073086	0.000077
H88	H	0.726847	-0.208694	0.000078
O89	O	0.781836	-0.532992	0.000127
C90	C	0.795607	-0.627385	0.000105
H91	H	0.855524	-0.643713	0.026401
H92	H	0.747477	-0.657524	0.040413
H93	H	0.794955	-0.657247	-0.066514
O94	O	1.063309	-0.555059	0.000090
C95	C	1.046453	-0.647047	0.000118
H96	H	0.986110	-0.656442	-0.026177
H97	H	1.093397	-0.688475	-0.040188
H98	H	1.046220	-0.670610	0.066738
H99	H	1.126034	-0.411032	0.000138
H100	H	1.033768	0.074441	0.775648
O101	O	1.140287	-0.233854	0.000087
C102	C	1.202305	-0.300533	0.000118
H103	H	1.181509	-0.367352	-0.026166
H104	H	1.254630	-0.279317	-0.040194
H105	H	1.220927	-0.308848	0.066739
O106	O	0.811198	0.314531	0.217598
C107	C	0.855646	0.370629	0.167042
H108	H	0.917589	0.338510	0.153944
H109	H	0.825849	0.379355	0.105582
H110	H	0.859443	0.439382	0.200719
O111	O	1.071142	-0.086928	-0.000038
C112	C	1.117651	-0.117047	-0.071936
H113	H	1.077831	-0.142234	-0.122205
H114	H	1.152221	-0.058909	-0.096076
H115	H	1.160510	-0.174349	-0.055665
H116	H	1.004845	0.105567	0.383123
O117	O	1.050008	0.056845	0.610331
C118	C	1.094306	0.009111	0.667644
H119	H	1.059201	0.008951	0.729954
H120	H	1.107392	-0.063318	0.642394
H121	H	1.152145	0.043100	0.676929
O122	O	0.831747	0.292216	0.782398
C123	C	0.787464	0.339974	0.725089
H124	H	0.789501	0.299751	0.662785
H125	H	0.723659	0.350455	0.750353
H126	H	0.813422	0.408335	0.715787
O127	O	0.840115	0.283410	0.610132
C128	C	0.884568	0.339509	0.559582
H129	H	0.946506	0.307380	0.546473
H130	H	0.854767	0.348254	0.498127
H131	H	0.888378	0.408255	0.593270
O132	O	0.515404	0.323915	-0.000058
C133	C	0.533189	0.371643	-0.071969
H134	H	0.563476	0.323478	-0.122234
H135	H	0.476346	0.402384	-0.096105
H136	H	0.574124	0.427660	-0.055718
O137	O	0.802797	0.323231	0.389965
C138	C	0.726175	0.301843	0.368605
H139	H	0.726860	0.228396	0.344582
H140	H	0.684107	0.312298	0.426091
H141	H	0.705601	0.347538	0.317870
O142	O	0.300888	0.377625	0.000145
C143	C	0.239079	0.444561	0.000129
H144	H	0.182239	0.416632	0.026421
H145	H	0.254320	0.505787	0.040442
H146	H	0.230698	0.465392	-0.066488
