data_functionalizedCrystal
_audit_creation_method	'MofGen! by Chris Wilmer'
_symmetry_space_group_name_H-M	'P1'
_symmetry_Int_Tables_number	1
_symmetry_cell_setting	triclinic
loop_
_symmetry_equiv_pos_as_xyz
  x,y,z
_cell_length_a	18.101398
_cell_length_b	12.759394
_cell_length_c	12.759387
_cell_angle_alpha	90.031660
_cell_angle_beta	89.971778
_cell_angle_gamma	89.989896
loop_
_atom_site_label
_atom_site_type_symbol
_atom_site_fract_x
_atom_site_fract_y
_atom_site_fract_z
Zn1	Zn	1.132233	0.418344	-0.594215
Zn2	Zn	1.632233	0.918344	-0.094215
Zn3	Zn	1.132156	0.594061	-0.418533
Zn4	Zn	1.632156	1.094061	0.081467
Zn5	Zn	1.008384	0.418382	-0.418528
Zn6	Zn	1.508384	0.918382	0.081472
Zn7	Zn	1.008378	0.593967	-0.594148
Zn8	Zn	1.508378	1.093967	-0.094148
O9	O	1.070288	0.506188	-0.506356
O10	O	1.570288	1.006188	-0.006356
O11	O	1.235856	0.441676	-0.570940
O12	O	1.735856	0.941676	-0.070940
O13	O	1.115707	0.570812	-0.271511
O14	O	1.615707	1.070812	0.228489
O15	O	1.024847	0.271356	-0.441859
O16	O	1.524847	0.771356	0.058141
O17	O	1.235799	0.570775	-0.441867
O18	O	1.735799	1.070775	0.058133
O19	O	1.115839	0.271328	-0.570936
O20	O	1.615839	0.771328	-0.070936
O21	O	1.024772	0.441741	-0.271508
O22	O	1.524772	0.941741	0.228492
O23	O	0.904750	0.441650	-0.441795
O24	O	1.404750	0.941650	0.058205
O25	O	1.024838	0.570615	-0.741178
O26	O	1.524838	1.070615	-0.241178
O27	O	0.904746	0.570652	-0.570822
O28	O	1.404746	1.070652	-0.070822
O29	O	1.115834	0.441585	-0.741227
O30	O	1.615834	0.941585	-0.241227
O31	O	1.115702	0.741069	-0.441803
O32	O	1.615702	1.241069	0.058197
O33	O	1.024763	0.741000	-0.570826
O34	O	1.524763	1.241000	-0.070826
C35	C	0.877877	0.506146	-0.506301
C36	C	1.377877	1.006146	-0.006301
C37	C	0.795563	0.506153	-0.506303
C38	C	1.295563	1.006153	-0.006303
C39	C	1.070243	0.779156	-0.506331
C40	C	1.570243	1.279156	-0.006331
C41	C	1.070292	0.895932	-0.506355
C42	C	1.570292	1.395932	-0.006355
C43	C	1.070344	0.506085	-0.780390
C44	C	1.570344	1.006085	-0.280390
C45	C	1.070367	0.506041	-0.897166
C46	C	1.570367	1.006041	-0.397166
C47	C	0.496472	0.506218	-0.506391
C48	C	0.996472	1.006218	-0.006391
C49	C	0.527775	0.424648	-0.425607
C50	C	1.027775	0.924648	0.074393
C51	C	0.613393	0.424867	-0.425262
C52	C	1.113393	0.924867	0.074738
C53	C	0.644855	0.506185	-0.506347
C54	C	1.144855	1.006185	-0.006347
C55	C	0.613757	0.616861	-0.476100
C56	C	1.113757	1.116861	0.023900
C57	C	0.528112	0.616408	-0.475538
C58	C	1.028112	1.116408	0.024462
C59	C	0.528086	0.478074	-0.617613
C60	C	1.028086	0.978074	-0.117613
C61	C	0.613737	0.475610	-0.617006
C62	C	1.113737	0.975610	-0.117006
C63	C	0.728714	0.506173	-0.506324
C64	C	1.228714	1.006173	-0.006324
C65	C	0.412613	0.506238	-0.506411
C66	C	0.912613	1.006238	-0.006411
C67	C	1.263450	0.506232	-0.506412
C68	C	1.763450	1.006232	-0.006412
C69	C	1.345764	0.506250	-0.506435
C70	C	1.845764	1.006250	-0.006435
C71	C	1.070353	0.232155	-0.506405
C72	C	1.570353	0.732155	-0.006405
C73	C	1.070380	0.115378	-0.506425
C74	C	1.570380	0.615378	-0.006425
C75	C	1.165058	0.895951	-0.372103
C76	C	1.665058	1.395951	0.127897
C77	C	1.212460	0.950821	-0.304989
C78	C	1.712460	1.450821	0.195011
C79	C	1.212504	1.060543	-0.305018
C80	C	1.712504	1.560543	0.194982
C81	C	1.165141	1.115397	-0.372170
C82	C	1.665141	1.615397	0.127830
C83	C	1.117739	1.060527	-0.439283
C84	C	1.617739	1.560527	0.060717
C85	C	1.117699	0.950802	-0.439245
C86	C	1.617699	1.450802	0.060755
C87	C	1.022978	1.060508	-0.573539
C88	C	1.522978	1.560508	-0.073539
C89	C	1.022930	0.950786	-0.573507
C90	C	1.522930	1.450786	-0.073507
C91	C	0.975616	1.115362	-0.640690
C92	C	1.475616	1.615362	-0.140690
C93	C	0.928208	1.060492	-0.707800
C94	C	1.428208	1.560492	-0.207800
C95	C	0.928166	0.950764	-0.707768
C96	C	1.428166	1.450764	-0.207768
C97	C	0.975527	0.895916	-0.640620
C98	C	1.475527	1.395916	-0.140620
C99	C	1.165128	0.371692	-0.897237
C100	C	1.665128	0.871692	-0.397237
C101	C	1.212518	0.304501	-0.952134
C102	C	1.712518	0.804501	-0.452134
C103	C	1.212536	0.304463	-1.061855
C104	C	1.712536	0.804463	-0.561855
C105	C	1.165157	0.371620	-1.116683
C106	C	1.665157	0.871620	-0.616683
C107	C	1.117767	0.438811	-1.061787
C108	C	1.617767	0.938811	-0.561787
C109	C	1.117755	0.438844	-0.952063
C110	C	1.617755	0.938844	-0.452063
C111	C	1.023004	0.573153	-1.061716
C112	C	1.523004	1.073153	-0.561716
C113	C	1.022988	0.573199	-0.951994
C114	C	1.522988	1.073199	-0.451994
C115	C	0.975625	0.640311	-1.116544
C116	C	1.475625	1.140311	-0.616544
C117	C	0.928237	0.707508	-1.061648
C118	C	1.428237	1.207508	-0.561648
C119	C	0.928221	0.707544	-0.951919
C120	C	1.428221	1.207544	-0.451919
C121	C	0.975598	0.640389	-0.897098
C122	C	1.475598	1.140389	-0.397098
C123	C	1.070275	0.506215	-0.233389
C124	C	1.570275	1.006215	0.266611
C125	C	1.070394	0.505963	-0.116612
C126	C	1.570394	1.005963	0.383388
H127	H	0.634418	0.342796	-0.444221
H128	H	1.134418	0.842796	0.055779
N129	N	1.263652	0.231992	-1.121062
N130	N	1.763652	0.731992	-0.621062
H131	H	1.297964	0.274688	-1.166590
H132	H	1.797964	0.774688	-0.666590
H133	H	1.233525	0.183294	-1.166524
H134	H	1.733525	0.683294	-0.666524
H135	H	0.975640	0.640271	-1.205885
H136	H	1.475640	1.140271	-0.705885
N137	N	0.975565	0.640400	-0.778756
N138	N	1.475565	1.140400	-0.278756
H139	H	0.938350	0.693146	-0.752295
H140	H	1.438350	1.193146	-0.252295
H141	H	1.026378	0.659701	-0.752403
H142	H	1.526378	1.159701	-0.252403
H143	H	1.165170	0.371574	-1.206024
H144	H	1.665170	0.871574	-0.706024
N145	N	1.263624	0.232080	-0.892996
N146	N	1.763624	0.732080	-0.392996
H147	H	1.293647	0.189511	-0.944423
H148	H	1.793647	0.689511	-0.444423
H149	H	1.233490	0.183462	-0.847468
H150	H	1.733490	0.683462	-0.347468
N151	N	1.263620	1.119739	-0.232628
N152	N	1.763620	1.619739	0.267372
H153	H	1.297941	1.165196	-0.275381
H154	H	1.797941	1.665196	0.224619
H155	H	1.293569	1.068285	-0.190093
H156	H	1.793569	1.568285	0.309907
N157	N	0.640652	0.367721	-0.647221
N158	N	1.140652	0.867721	-0.147221
H159	H	0.672870	0.338764	-0.589479
H160	H	1.172870	0.838764	-0.089479
H161	H	0.670181	0.372358	-0.714238
H162	H	1.170181	0.872358	-0.214238
N163	N	1.263539	0.891664	-0.232555
N164	N	1.763539	1.391664	0.267445
H165	H	1.316455	0.910692	-0.248946
H166	H	1.816455	1.410692	0.251054
H167	H	1.256259	0.813848	-0.242744
H168	H	1.756259	1.313848	0.257256
N169	N	0.877034	0.891595	-0.780157
N170	N	1.377034	1.391595	-0.280157
H171	H	0.842707	0.846146	-0.737403
H172	H	1.342707	1.346146	-0.237403
H173	H	0.907146	0.846057	-0.828859
H174	H	1.407146	1.346057	-0.328859
N175	N	0.499493	0.373036	-0.654052
N176	N	0.999493	0.873036	-0.154052
H177	H	0.465751	0.342629	-0.598825
H178	H	0.965751	0.842629	-0.098825
H179	H	0.542457	0.323982	-0.666150
H180	H	1.042457	0.823982	-0.166150
H181	H	0.889660	0.762176	-1.106297
H182	H	1.389660	1.262176	-0.606297
N183	N	0.877095	0.780009	-0.892724
N184	N	1.377095	1.280009	-0.392724
H185	H	0.888571	0.855074	-0.911811
H186	H	1.388571	1.355074	-0.411811
H187	H	0.884289	0.769762	-0.814913
H188	H	1.384289	1.269762	-0.314913
H189	H	0.506226	0.443044	-0.343672
H190	H	1.006226	0.943044	0.156328
N191	N	0.500500	0.315602	-0.450422
N192	N	1.000500	0.815602	0.049578
H193	H	0.467587	0.318013	-0.514271
H194	H	0.967587	0.818013	-0.014271
H195	H	0.471613	0.287568	-0.388777
H196	H	0.971613	0.787568	0.111223
H197	H	1.165187	1.204738	-0.372196
H198	H	1.665187	1.704738	0.127804
N199	N	0.877129	1.119647	-0.780224
N200	N	1.377129	1.619647	-0.280224
H201	H	0.907229	1.165094	-0.828966
H202	H	1.407229	1.665094	-0.328966
H203	H	0.842853	1.165186	-0.737421
H204	H	1.342853	1.665186	-0.237421
N205	N	0.975481	0.777575	-0.640576
N206	N	1.475481	1.277575	-0.140576
H207	H	1.026269	0.751078	-0.659943
H208	H	1.526269	1.251078	-0.159943
H209	H	0.938234	0.751218	-0.693271
H210	H	1.438234	1.251218	-0.193271
N211	N	0.640486	0.449511	-0.316094
N212	N	1.140486	0.949511	0.183906
H213	H	0.621613	0.520684	-0.294040
H214	H	1.121613	1.020684	0.205960
H215	H	0.696279	0.449695	-0.315485
H216	H	1.196279	0.949695	0.184515
H217	H	0.508101	0.640274	-0.394230
H218	H	1.008101	1.140274	0.105770
H219	H	1.165125	0.371726	-0.807896
H220	H	1.665125	0.871726	-0.307896
H221	H	0.634137	0.679266	-0.533098
H222	H	1.134137	1.179266	-0.033098
N223	N	0.500676	0.699633	-0.550077
N224	N	1.000676	1.199633	-0.050077
H225	H	0.544219	0.736456	-0.583150
H226	H	1.044219	1.236456	-0.083150
H227	H	0.469723	0.752172	-0.510308
H228	H	0.969723	1.252172	-0.010308
N229	N	0.975662	1.233704	-0.640730
N230	N	1.475662	1.733704	-0.140730
H231	H	1.012875	1.260143	-0.588023
H232	H	1.512875	1.760143	-0.088023
H233	H	0.924849	1.260114	-0.621395
H234	H	1.424849	1.760114	-0.121395
N235	N	1.165001	0.777609	-0.372059
N236	N	1.665001	1.277609	0.127941
H237	H	1.202193	0.751186	-0.319335
H238	H	1.702193	1.251186	0.180665
H239	H	1.178559	0.751180	-0.444174
H240	H	1.678559	1.251180	0.055826
H241	H	0.635173	0.641141	-0.395670
H242	H	1.135173	1.141141	0.104330
H243	H	0.507845	0.537487	-0.677805
H244	H	1.007845	1.037487	-0.177805
N245	N	0.642101	0.548569	-0.701014
N246	N	1.142101	1.048569	-0.201014
H247	H	0.675673	0.602720	-0.668385
H248	H	1.175673	1.102720	-0.168385
H249	H	0.599021	0.584764	-0.735904
H250	H	1.099021	1.084764	-0.235904
