data_functionalizedCrystal
_audit_creation_method	'MofGen! by Chris Wilmer'
_symmetry_space_group_name_H-M	'P1'
_symmetry_Int_Tables_number	1
_symmetry_cell_setting	triclinic
loop_
_symmetry_equiv_pos_as_xyz
  x,y,z
_cell_length_a	21.395362
_cell_length_b	21.395361
_cell_length_c	21.395355
_cell_angle_alpha	90.021511
_cell_angle_beta	90.043940
_cell_angle_gamma	90.046585
loop_
_atom_site_label
_atom_site_type_symbol
_atom_site_fract_x
_atom_site_fract_y
_atom_site_fract_z
Zn1	Zn	0.957859	-0.249246	0.354573
Zn2	Zn	1.291193	0.084088	0.687906
Zn3	Zn	1.624526	0.417421	1.021239
Zn4	Zn	0.957762	-0.354005	0.249790
Zn5	Zn	1.291095	-0.020672	0.583123
Zn6	Zn	1.624429	0.312661	0.916456
Zn7	Zn	0.853074	-0.249275	0.249774
Zn8	Zn	1.186408	0.084059	0.583107
Zn9	Zn	1.519741	0.417392	0.916441
Zn10	Zn	0.853044	-0.354018	0.354494
Zn11	Zn	1.186377	-0.020685	0.687828
Zn12	Zn	1.519710	0.312648	1.021161
O13	O	0.905435	-0.301636	0.302158
O14	O	1.238768	0.031697	0.635491
O15	O	1.572102	0.365031	0.968824
O16	O	1.045524	-0.263125	0.340712
O17	O	1.378858	0.070209	0.674046
O18	O	1.712191	0.403542	1.007379
O19	O	0.943847	-0.340119	0.162110
O20	O	1.277180	-0.006786	0.495443
O21	O	1.610514	0.326547	0.828776
O22	O	0.867028	-0.161593	0.263702
O23	O	1.200361	0.171740	0.597035
O24	O	1.533695	0.505074	0.930368
O25	O	1.045453	-0.340091	0.263729
O26	O	1.378786	-0.006758	0.597062
O27	O	1.712119	0.326575	0.930395
O28	O	0.944013	-0.161572	0.340697
O29	O	1.277347	0.171762	0.674030
O30	O	1.610680	0.505095	1.007364
O31	O	0.866934	-0.263174	0.162098
O32	O	1.200267	0.070159	0.495431
O33	O	1.533600	0.403492	0.828765
O34	O	0.765392	-0.263187	0.263626
O35	O	1.098726	0.070147	0.596959
O36	O	1.432059	0.403480	0.930293
O37	O	0.866976	-0.340113	0.442183
O38	O	1.200309	-0.006780	0.775516
O39	O	1.533642	0.326553	1.108849
O40	O	0.765370	-0.340141	0.340564
O41	O	1.098703	-0.006808	0.673897
O42	O	1.432036	0.326525	1.007230
O43	O	0.943983	-0.263137	0.442240
O44	O	1.277317	0.070196	0.775573
O45	O	1.610650	0.403530	1.108907
O46	O	0.943817	-0.441685	0.263653
O47	O	1.277150	-0.108352	0.596986
O48	O	1.610484	0.224982	0.930319
O49	O	0.866881	-0.441695	0.340579
O50	O	1.200214	-0.108361	0.673912
O51	O	1.533548	0.224972	1.007246
C52	C	0.742647	-0.301669	0.302085
C53	C	1.075981	0.031664	0.635418
C54	C	1.409314	0.364998	0.968752
C55	C	0.673006	-0.301698	0.302069
C56	C	1.006339	0.031635	0.635402
C57	C	1.339673	0.364968	0.968735
C58	C	0.640297	-0.341822	0.342070
C59	C	0.973631	-0.008488	0.675403
C60	C	1.306964	0.324845	1.008737
C61	C	0.574862	-0.341806	0.342098
C62	C	0.908195	-0.008473	0.675431
C63	C	1.241529	0.324860	1.008765
C64	C	0.542138	-0.301674	0.302113
C65	C	0.875471	0.031659	0.635447
C66	C	1.208804	0.364992	0.968780
C67	C	0.574854	-0.261543	0.262109
C68	C	0.908187	0.071790	0.595442
C69	C	1.241521	0.405124	0.928776
C70	C	0.640288	-0.261555	0.262087
C71	C	0.973622	0.071778	0.595420
C72	C	1.306955	0.405111	0.928753
C73	C	0.438413	-0.296627	0.245708
C74	C	0.771746	0.036707	0.579042
C75	C	1.105080	0.370040	0.912375
C76	C	0.372980	-0.296619	0.245730
C77	C	0.706313	0.036714	0.579063
C78	C	1.039647	0.370048	0.912396
C79	C	0.340317	-0.301633	0.302182
C80	C	0.673650	0.031700	0.635516
C81	C	1.006984	0.365033	0.968849
C82	C	0.373095	-0.306668	0.358616
C83	C	0.706428	0.026665	0.691949
C84	C	1.039762	0.359998	1.025283
C85	C	0.438529	-0.306681	0.358594
C86	C	0.771862	0.026653	0.691927
C87	C	1.105196	0.359986	1.025260
C88	C	0.471185	-0.301656	0.302133
C89	C	0.804519	0.031677	0.635467
C90	C	1.137852	0.365010	0.968800
C91	C	0.236656	-0.341742	0.342218
C92	C	0.569989	-0.008409	0.675551
C93	C	0.903323	0.324924	1.008884
C94	C	0.171219	-0.341723	0.342247
C95	C	0.504553	-0.008389	0.675580
C96	C	0.837886	0.324944	1.008913
C97	C	0.171213	-0.261462	0.262252
C98	C	0.504546	0.071871	0.595585
C99	C	0.837879	0.405204	0.928919
C100	C	0.236648	-0.261479	0.262229
C101	C	0.569981	0.071854	0.595562
C102	C	0.903315	0.405188	0.928895
C103	C	0.269366	-0.301622	0.302211
C104	C	0.602699	0.031711	0.635544
C105	C	0.936032	0.365044	0.968877
C106	C	0.905352	-0.464424	0.302123
C107	C	1.238685	-0.131090	0.635456
C108	C	1.572019	0.202243	0.968789
C109	C	0.905374	-0.534065	0.302129
C110	C	1.238707	-0.200732	0.635462
C111	C	1.572041	0.132602	0.968795
C112	C	0.945470	-0.566752	0.262114
C113	C	1.278804	-0.233419	0.595448
C114	C	1.612137	0.099914	0.928781
C115	C	0.945499	-0.632188	0.262128
C116	C	1.278833	-0.298854	0.595462
C117	C	1.612166	0.034479	0.928795
C118	C	0.905421	-0.664933	0.302150
C119	C	1.238755	-0.331600	0.635484
C120	C	1.572088	0.001733	0.968817
C121	C	0.865322	-0.632238	0.342172
C122	C	1.198656	-0.298905	0.675506
C123	C	1.531989	0.034429	1.008839
C124	C	0.865299	-0.566804	0.342162
C125	C	1.198632	-0.233470	0.675495
C126	C	1.531965	0.099863	1.008828
C127	C	0.849006	-0.768664	0.307041
C128	C	1.182340	-0.435331	0.640374
C129	C	1.515673	-0.101997	0.973708
C130	C	0.849029	-0.834097	0.307047
C131	C	1.182362	-0.500764	0.640381
C132	C	1.515696	-0.167430	0.973714
C133	C	0.905494	-0.866754	0.302187
C134	C	1.238828	-0.533421	0.635520
C135	C	1.572161	-0.200087	0.968854
C136	C	0.961939	-0.833970	0.297307
C137	C	1.295272	-0.500637	0.630640
C138	C	1.628605	-0.167303	0.963974
C139	C	0.961915	-0.768536	0.297296
C140	C	1.295248	-0.435202	0.630630
C141	C	1.628582	-0.101869	0.963963
C142	C	0.905443	-0.735886	0.302167
C143	C	1.238776	-0.402552	0.635500
C144	C	1.572109	-0.069219	0.968833
C145	C	0.945625	-0.970394	0.262186
C146	C	1.278959	-0.637060	0.595519
C147	C	1.612292	-0.303727	0.928852
C148	C	0.945655	-1.035830	0.262204
C149	C	1.278989	-0.702497	0.595537
C150	C	1.612322	-0.369164	0.928871
C151	C	0.865473	-1.035879	0.342245
C152	C	1.198806	-0.702546	0.675578
C153	C	1.532139	-0.369213	1.008912
C154	C	0.865448	-0.970444	0.342230
C155	C	1.198782	-0.637111	0.675563
C156	C	1.532115	-0.303777	1.008896
C157	C	0.905524	-0.937705	0.302197
C158	C	1.238857	-0.604372	0.635530
C159	C	1.572190	-0.271039	0.968863
C160	C	1.068858	-0.301603	0.302231
C161	C	1.402192	0.031730	0.635564
C162	C	1.735525	0.365063	0.968898
C163	C	1.138499	-0.301589	0.302262
C164	C	1.471833	0.031744	0.635595
C165	C	1.805166	0.365077	0.968929
C166	C	0.905487	-0.301623	0.465581
C167	C	1.238820	0.031710	0.798914
C168	C	1.572154	0.365043	1.132248
C169	C	0.905509	-0.301618	0.535222
C170	C	1.238842	0.031715	0.868556
C171	C	1.572176	0.365049	1.201889
C172	C	0.905535	-0.138213	0.302206
C173	C	1.238868	0.195121	0.635540
C174	C	1.572202	0.528454	0.968873
C175	C	0.905578	-0.068571	0.302227
C176	C	1.238911	0.264762	0.635560
C177	C	1.572244	0.598095	0.968894
C178	C	0.905419	-0.301603	0.139370
C179	C	1.238752	0.031730	0.472703
C180	C	1.572086	0.365063	0.806037
C181	C	0.905518	-0.301432	0.069729
C182	C	1.238852	0.031901	0.403062
C183	C	1.572185	0.365234	0.736396
C184	C	0.945605	-0.261535	0.567966
C185	C	1.278939	0.071799	0.901300
C186	C	1.612272	0.405132	1.234633
C187	C	0.945604	-0.261508	0.633402
C188	C	1.278938	0.071826	0.966735
C189	C	1.612271	0.405159	1.300068
C190	C	0.905514	-0.301575	0.666091
C191	C	1.238847	0.031758	0.999424
C192	C	1.572181	0.365091	1.332757
C193	C	0.865410	-0.341661	0.633339
C194	C	1.198743	-0.008328	0.966672
C195	C	1.532077	0.325006	1.300005
C196	C	0.865407	-0.341682	0.567904
C197	C	1.198741	-0.008349	0.901238
C198	C	1.532074	0.324984	1.234571
C199	C	0.900538	-0.357992	0.769752
C200	C	1.233871	-0.024659	1.103085
C201	C	1.567205	0.308675	1.436418
C202	C	0.900545	-0.357972	0.835185
C203	C	1.233878	-0.024638	1.168518
C204	C	1.567211	0.308695	1.501851
C205	C	0.905518	-0.301509	0.867911
C206	C	1.238851	0.031824	1.201245
C207	C	1.572184	0.365158	1.534578
C208	C	0.910497	-0.245065	0.835197
C209	C	1.243830	0.088268	1.168531
C210	C	1.577164	0.421602	1.501864
C211	C	0.910495	-0.245086	0.769763
C212	C	1.243828	0.088247	1.103097
C213	C	1.577161	0.421580	1.436430
C214	C	0.905512	-0.301556	0.737043
C215	C	1.238845	0.031777	1.070376
C216	C	1.572179	0.365110	1.403710
C217	C	0.945615	-0.261393	0.971608
C218	C	1.278949	0.071940	1.304941
C219	C	1.612282	0.405273	1.638275
C220	C	0.945610	-0.261365	1.037045
C221	C	1.278943	0.071968	1.370378
C222	C	1.612277	0.405301	1.703711
C223	C	0.865419	-0.341524	1.036980
C224	C	1.198752	-0.008191	1.370314
C225	C	1.532085	0.325142	1.703647
C226	C	0.865421	-0.341547	0.971545
C227	C	1.198754	-0.008213	1.304878
C228	C	1.532087	0.325120	1.638212
C229	C	0.905522	-0.301482	0.938863
C230	C	1.238856	0.031851	1.272196
C231	C	1.572189	0.365185	1.605529
H232	H	0.465002	-0.292541	0.199734
H233	H	0.798335	0.040792	0.533068
H234	H	1.131668	0.374126	0.866401
H235	H	0.803068	-0.860785	0.311015
H236	H	1.136402	-0.527451	0.644348
H237	H	1.469735	-0.194118	0.977681
H238	H	0.832766	-0.374282	0.659958
H239	H	1.166099	-0.040949	0.993291
H240	H	1.499433	0.292384	1.326625
H241	H	0.346502	-0.310751	0.404585
H242	H	0.679836	0.022583	0.737919
H243	H	1.013169	0.355916	1.071252
H244	H	0.346297	-0.292523	0.199778
H245	H	0.679631	0.040810	0.533111
H246	H	1.012964	0.374144	0.866445
H247	H	0.978258	-0.228910	0.541360
H248	H	1.311592	0.104423	0.874694
H249	H	1.644925	0.437756	1.208027
H250	H	0.263296	-0.374426	0.374776
H251	H	0.596629	-0.041093	0.708110
H252	H	0.929963	0.292241	1.041443
H253	H	0.896494	-0.403932	0.861815
H254	H	1.229828	-0.070598	1.195149
H255	H	1.563161	0.262735	1.528482
H256	H	1.007918	-0.860558	0.293349
H257	H	1.341251	-0.527224	0.626683
H258	H	1.674585	-0.193891	0.960016
H259	H	0.832753	-0.374322	0.541245
H260	H	1.166087	-0.040989	0.874578
H261	H	1.499420	0.292344	1.207911
H262	H	0.978310	-1.062443	0.229621
H263	H	1.311644	-0.729110	0.562954
H264	H	1.644977	-0.395777	0.896287
H265	H	0.978254	-0.228864	0.660067
H266	H	1.311588	0.104469	0.993400
H267	H	1.644921	0.437803	1.326734
H268	H	0.548206	-0.228866	0.229554
H269	H	0.881539	0.104467	0.562888
H270	H	1.214872	0.437801	0.896221
H271	H	0.978259	-0.943737	0.229590
H272	H	1.311593	-0.610403	0.562924
H273	H	1.644926	-0.277070	0.896257
H274	H	0.666932	-0.374509	0.374627
H275	H	1.000265	-0.041175	0.707961
H276	H	1.333599	0.292158	1.041294
H277	H	0.144569	-0.228783	0.229699
H278	H	0.477902	0.104550	0.563032
H279	H	0.811236	0.437884	0.896365
H280	H	0.832770	-0.374141	1.063595
H281	H	1.166103	-0.040808	1.396928
H282	H	1.499437	0.292525	1.730262
H283	H	0.914547	-0.199128	0.743130
H284	H	1.247881	0.134206	1.076463
H285	H	1.581214	0.467539	1.409797
H286	H	0.832843	-1.062540	0.374834
H287	H	1.166176	-0.729207	0.708168
H288	H	1.499510	-0.395873	1.041501
H289	H	0.978260	-0.228721	1.063704
H290	H	1.311594	0.104612	1.397037
H291	H	1.644927	0.437946	1.730371
H292	H	0.832691	-0.658904	0.374760
H293	H	1.166025	-0.325570	0.708093
H294	H	1.499358	0.007763	1.041426
H295	H	0.896321	-0.403959	0.743111
H296	H	1.229654	-0.070626	1.076444
H297	H	1.562987	0.262708	1.409777
H298	H	0.978103	-0.540098	0.229519
H299	H	1.311437	-0.206765	0.562852
H300	H	1.644770	0.126568	0.896185
H301	H	1.007873	-0.741844	0.293325
H302	H	1.341207	-0.408511	0.626658
H303	H	1.674540	-0.075178	0.959991
H304	H	0.978153	-0.658807	0.229544
H305	H	1.311486	-0.325474	0.562877
H306	H	1.644819	0.007860	0.896211
H307	H	0.548226	-0.374479	0.374674
H308	H	0.881559	-0.041146	0.708008
H309	H	1.214892	0.292187	1.041341
H310	H	0.263280	-0.228809	0.229652
H311	H	0.596613	0.104524	0.562985
H312	H	0.929946	0.437857	0.896319
H313	H	0.465214	-0.310778	0.404543
H314	H	0.798548	0.022555	0.737877
H315	H	1.131881	0.355888	1.071210
H316	H	0.914548	-0.199088	0.861842
H317	H	1.247881	0.134246	1.195176
H318	H	1.581214	0.467579	1.528509
H319	H	0.832774	-0.374190	0.944885
H320	H	1.166107	-0.040857	1.278218
H321	H	1.499440	0.292476	1.611551
H322	H	0.832795	-0.943828	0.374811
H323	H	1.166129	-0.610495	0.708144
H324	H	1.499462	-0.277162	1.041477
H325	H	0.832647	-0.540189	0.374747
H326	H	1.165980	-0.206856	0.708080
H327	H	1.499314	0.126478	1.041414
H328	H	0.144589	-0.374395	0.374824
H329	H	0.477922	-0.041061	0.708158
H330	H	0.811256	0.292272	1.041491
H331	H	0.666919	-0.228880	0.229513
H332	H	1.000252	0.104453	0.562846
H333	H	1.333586	0.437787	0.896179
H334	H	0.978265	-0.228767	0.944997
H335	H	1.311598	0.104567	1.278330
H336	H	1.644932	0.437900	1.611664
H337	H	0.803022	-0.742081	0.311001
H338	H	1.136355	-0.408748	0.644335
H339	H	1.469689	-0.075414	0.977668
