data_functionalizedCrystal
_audit_creation_method	'MofGen! by Chris Wilmer'
_symmetry_space_group_name_H-M	'P1'
_symmetry_Int_Tables_number	1
_symmetry_cell_setting	triclinic
loop_
_symmetry_equiv_pos_as_xyz
  x,y,z
_cell_length_a	10.489741
_cell_length_b	23.532407
_cell_length_c	9.565339
_cell_angle_alpha	89.995586
_cell_angle_beta	89.999100
_cell_angle_gamma	83.693926
loop_
_atom_site_label
_atom_site_type_symbol
_atom_site_fract_x
_atom_site_fract_y
_atom_site_fract_z
O1	O	1.691382	0.080340	-0.116190
O2	O	1.319936	0.087882	-0.116213
O3	O	1.516860	0.001253	-0.116175
O4	O	1.494458	0.166968	-0.116228
O5	O	1.516844	0.001259	0.116345
O6	O	1.319920	0.087887	0.116307
O7	O	1.691366	0.080345	0.116330
Zn8	Zn	1.505641	0.084117	0.153236
Zn9	Zn	1.505661	0.084110	-0.153119
O10	O	1.494442	0.166974	0.116293
C11	C	1.272415	0.087315	0.000045
C12	C	1.130842	0.085611	0.000037
C13	C	1.064535	0.030491	0.000067
C14	C	0.971550	0.056527	-0.114582
C15	C	0.971568	0.056545	0.114664
C16	C	1.039722	0.111668	-0.114708
C17	C	1.039750	0.111679	0.114642
C18	C	0.946792	0.137754	-0.000036
C19	C	1.516282	-0.019964	0.000089
C20	C	1.514566	-0.083192	0.000099
C21	C	1.620344	-0.481594	0.000029
C22	C	1.618751	-0.541005	0.000019
O23	O	1.716808	-0.577100	-0.000027
N24	N	1.501680	-0.564407	0.000012
C25	C	1.386194	-0.528395	0.000002
O26	O	1.286470	-0.553755	-0.000005
C27	C	1.387789	-0.468985	0.000003
C28	C	1.504868	-0.445587	0.000024
C29	C	1.737414	-0.458195	0.000048
C30	C	1.739007	-0.398788	0.000062
C31	C	1.623530	-0.362781	0.000056
C32	C	1.506460	-0.386180	0.000037
C33	C	1.272305	-0.432974	-0.000017
C34	C	1.273909	-0.373561	-0.000017
C35	C	1.390988	-0.350162	0.000003
C36	C	1.392576	-0.290766	0.000045
N37	N	1.509648	-0.267364	0.000051
C38	C	1.625125	-0.303371	0.000057
C39	C	1.382854	-0.653160	-0.000002
C40	C	1.381258	-0.712568	0.000008
C41	C	1.613816	-0.725174	0.000021
C42	C	1.615410	-0.665765	0.000022
C43	C	1.499926	-0.629758	0.000005
C44	C	1.628461	-0.178612	0.000086
C45	C	1.630043	-0.119200	0.000105
C46	C	1.397486	-0.106599	0.000084
C47	C	1.395903	-0.166006	0.000072
C48	C	1.511401	-0.202012	0.000068
O49	O	1.294571	-0.254636	0.000084
O50	O	1.724833	-0.278003	0.000046
C51	C	1.738887	0.080912	0.000070
C52	C	1.880460	0.082616	0.000069
C53	C	1.495021	0.188191	0.000026
C54	C	1.496736	0.251419	0.000006
N55	N	1.505636	0.084122	0.362316
N56	N	1.505676	0.084101	-0.362198
C57	C	1.414538	0.124171	0.453501
C58	C	1.529652	0.135693	0.546683
C59	C	1.390572	0.072603	0.546689
C60	C	1.620808	0.095670	0.453446
C61	C	1.481652	0.032557	0.453444
C62	C	1.596850	0.044059	0.546584
H63	H	1.725387	-0.100152	0.000125
H64	H	1.722510	-0.207922	0.000077
H65	H	1.834344	-0.379743	0.000072
O66	O	1.554066	0.187702	0.595397
C67	C	1.674524	0.200146	0.545885
H68	H	1.700270	0.174350	0.447034
H69	H	1.670196	0.247721	0.521280
H70	H	1.750510	0.188433	0.629303
O71	O	0.885960	0.191854	0.000126
C72	C	0.809393	0.200234	0.121088
H73	H	0.847822	0.168595	0.205292
H74	H	0.812131	0.245733	0.160977
H75	H	0.706315	0.193152	0.094808
H76	H	1.300568	-0.185058	0.000094
O77	O	1.285435	-0.071534	0.000015
C78	C	1.311961	-0.014082	0.000058
H79	H	1.412118	-0.011391	-0.043943
H80	H	1.238325	0.012530	-0.067461
H81	H	1.306889	0.003073	0.111610
H82	H	1.115731	-0.014820	-0.000062
O83	O	0.935568	0.028800	0.230449
C84	C	0.972056	0.057379	0.351126
H85	H	0.983047	0.103780	0.324198
H86	H	0.895352	0.055952	0.435099
H87	H	1.067269	0.035515	0.391662
H88	H	1.179865	-0.344246	-0.000033
H89	H	0.941317	0.033202	-0.211498
H90	H	1.337568	0.158071	0.412632
O91	O	1.736838	0.107472	0.404773
C92	C	1.720725	0.157541	0.322788
H93	H	1.627775	0.184274	0.353779
H94	H	1.805050	0.183379	0.340682
H95	H	1.716320	0.145457	0.207611
O96	O	1.849715	-0.493086	0.000121
C97	C	1.953368	-0.459681	0.000100
H98	H	1.920388	-0.415486	0.044110
H99	H	2.034229	-0.481249	0.067623
H100	H	1.989305	-0.455298	-0.111446
O101	O	1.729252	-0.643132	-0.000034
C102	C	1.830823	-0.687660	0.000010
H103	H	1.795589	-0.728158	-0.044006
H104	H	1.912614	-0.674908	-0.067496
H105	H	1.866400	-0.695919	0.111564
O106	O	1.725961	-0.760181	-0.000237
C107	C	1.731972	-0.794924	-0.120652
H108	H	1.666471	-0.773434	-0.204815
H109	H	1.834792	-0.801177	-0.161078
H110	H	1.699514	-0.838256	-0.093435
H111	H	1.069782	0.134970	-0.211745
O112	O	1.267416	-0.735200	-0.000059
C113	C	1.165844	-0.690672	-0.000023
H114	H	1.201083	-0.650170	-0.044032
H115	H	1.084060	-0.703419	-0.067539
H116	H	1.130256	-0.682420	0.111528
O117	O	1.689035	0.003703	0.594984
C118	C	1.810129	0.016044	0.547185
H119	H	1.805877	0.063491	0.521174
H120	H	1.884849	0.004880	0.632214
H121	H	1.837581	-0.010258	0.449519
H122	H	1.288807	-0.623845	-0.000004
H123	H	1.070015	0.134984	0.211562
H124	H	1.461303	-0.011026	0.412456
H125	H	1.293248	0.062870	0.587651
H126	H	1.176967	-0.452014	-0.000042
