data_functionalizedCrystal
_audit_creation_method	'MofGen! by Chris Wilmer'
_symmetry_space_group_name_H-M	'P1'
_symmetry_Int_Tables_number	1
_symmetry_cell_setting	triclinic
loop_
_symmetry_equiv_pos_as_xyz
  x,y,z
_cell_length_a	19.121241
_cell_length_b	19.121063
_cell_length_c	18.101389
_cell_angle_alpha	87.580609
_cell_angle_beta	92.462998
_cell_angle_gamma	95.003121
loop_
_atom_site_label
_atom_site_type_symbol
_atom_site_fract_x
_atom_site_fract_y
_atom_site_fract_z
Zn1	Zn	1.063740	-0.234412	0.477195
Zn2	Zn	1.313740	0.015588	0.727195
Zn3	Zn	1.563740	0.265588	0.977195
Zn4	Zn	1.813740	0.515588	1.227195
Zn5	Zn	1.058629	-0.352065	0.358407
Zn6	Zn	1.308629	-0.102065	0.608407
Zn7	Zn	1.558629	0.147935	0.858407
Zn8	Zn	1.808629	0.397935	1.108407
Zn9	Zn	0.946073	-0.239422	0.348290
Zn10	Zn	1.196073	0.010578	0.598290
Zn11	Zn	1.446073	0.260578	0.848290
Zn12	Zn	1.696073	0.510578	1.098290
Zn13	Zn	0.941015	-0.357051	0.477132
Zn14	Zn	1.191015	-0.107051	0.727132
Zn15	Zn	1.441015	0.142949	0.977132
Zn16	Zn	1.691015	0.392949	1.227132
O17	O	1.002364	-0.295738	0.415256
O18	O	1.252364	-0.045738	0.665256
O19	O	1.502364	0.204262	0.915256
O20	O	1.752364	0.454262	1.165256
O21	O	1.161527	-0.245835	0.465698
O22	O	1.411527	0.004165	0.715698
O23	O	1.661527	0.254165	0.965698
O24	O	1.911527	0.504165	1.215698
O25	O	1.043676	-0.337133	0.253432
O26	O	1.293676	-0.087133	0.503432
O27	O	1.543676	0.162867	0.753432
O28	O	1.793676	0.412867	1.003432
O29	O	0.965937	-0.140291	0.361182
O30	O	1.215937	0.109709	0.611182
O31	O	1.465937	0.359709	0.861182
O32	O	1.715937	0.609709	1.111182
O33	O	1.157772	-0.332275	0.378425
O34	O	1.407772	-0.082275	0.628425
O35	O	1.657772	0.167725	0.878425
O36	O	1.907772	0.417725	1.128425
O37	O	1.052386	-0.136610	0.455887
O38	O	1.302386	0.113390	0.705887
O39	O	1.552386	0.363390	0.955887
O40	O	1.802386	0.613390	1.205887
O41	O	0.960981	-0.254375	0.245999
O42	O	1.210981	-0.004375	0.495999
O43	O	1.460981	0.245625	0.745999
O44	O	1.710981	0.495625	0.995999
O45	O	0.846936	-0.259210	0.361121
O46	O	1.096936	-0.009210	0.611121
O47	O	1.346936	0.240790	0.861121
O48	O	1.596936	0.490790	1.111121
O49	O	0.957317	-0.340772	0.580773
O50	O	1.207317	-0.090772	0.830773
O51	O	1.457317	0.159228	1.080773
O52	O	1.707317	0.409228	1.330773
O53	O	0.843220	-0.345631	0.455780
O54	O	1.093220	-0.095631	0.705780
O55	O	1.343220	0.154369	0.955780
O56	O	1.593220	0.404369	1.205780
O57	O	1.047482	-0.250669	0.580820
O58	O	1.297482	-0.000669	0.830820
O59	O	1.547482	0.249331	1.080820
O60	O	1.797482	0.499331	1.330820
O61	O	1.038771	-0.451193	0.378364
O62	O	1.288771	-0.201193	0.628364
O63	O	1.538771	0.048807	0.878364
O64	O	1.788771	0.298807	1.128364
O65	O	0.952361	-0.454856	0.465590
O66	O	1.202361	-0.204856	0.715590
O67	O	1.452361	0.045144	0.965590
O68	O	1.702361	0.295144	1.215590
C69	C	0.819547	-0.303506	0.407346
C70	C	1.069547	-0.053506	0.657346
C71	C	1.319547	0.196494	0.907346
C72	C	1.569547	0.446494	1.157346
C73	C	0.741337	-0.306846	0.403981
C74	C	0.991337	-0.056846	0.653981
C75	C	1.241337	0.193154	0.903981
C76	C	1.491337	0.443154	1.153981
C77	C	0.706546	-0.263482	0.447913
C78	C	0.956546	-0.013482	0.697913
C79	C	1.206546	0.236518	0.947913
C80	C	1.456546	0.486518	1.197913
C81	C	0.633059	-0.266617	0.444744
C82	C	0.883059	-0.016617	0.694744
C83	C	1.133059	0.233383	0.944744
C84	C	1.383059	0.483383	1.194744
C85	C	0.594364	-0.313120	0.397647
C86	C	0.844364	-0.063120	0.647647
C87	C	1.094364	0.186880	0.897647
C88	C	1.344364	0.436880	1.147647
C89	C	0.629160	-0.356486	0.353709
C90	C	0.879160	-0.106486	0.603709
C91	C	1.129160	0.143514	0.853709
C92	C	1.379160	0.393514	1.103709
C93	C	0.702645	-0.353347	0.356875
C94	C	0.952645	-0.103347	0.606875
C95	C	1.202645	0.146653	0.856875
C96	C	1.452645	0.396653	1.106875
C97	C	0.372386	-0.324843	0.385809
C98	C	0.622386	-0.074843	0.635809
C99	C	0.872386	0.175157	0.885809
C100	C	1.122386	0.425157	1.135809
C101	C	0.298895	-0.327980	0.382648
C102	C	0.548895	-0.077980	0.632648
C103	C	0.798895	0.172020	0.882648
C104	C	1.048895	0.422020	1.132648
C105	C	0.302800	-0.238111	0.473683
C106	C	0.552800	0.011889	0.723683
C107	C	0.802800	0.261889	0.973683
C108	C	1.052800	0.511889	1.223683
C109	C	0.376287	-0.234979	0.476847
C110	C	0.626287	0.015021	0.726847
C111	C	0.876287	0.265021	0.976847
C112	C	1.126287	0.515021	1.226847
C113	C	0.411076	-0.278341	0.432907
C114	C	0.661076	-0.028341	0.682907
C115	C	0.911076	0.221659	0.932907
C116	C	1.161076	0.471659	1.182907
C117	C	0.519248	-0.316327	0.394408
C118	C	0.769248	-0.066327	0.644408
C119	C	1.019248	0.183673	0.894408
C120	C	1.269248	0.433673	1.144408
C121	C	0.486191	-0.275130	0.436142
C122	C	0.736191	-0.025130	0.686142
C123	C	0.986191	0.224870	0.936142
C124	C	1.236191	0.474870	1.186142
C125	C	0.994482	-0.478555	0.423085
C126	C	1.244482	-0.228555	0.673085
C127	C	1.494482	0.021445	0.923085
C128	C	1.744482	0.271445	1.173085
C129	C	0.991174	-0.556763	0.426462
C130	C	1.241174	-0.306763	0.676462
C131	C	1.491174	-0.056763	0.926462
C132	C	1.741174	0.193237	1.176462
C133	C	1.034644	-0.591573	0.382675
C134	C	1.284644	-0.341573	0.632675
C135	C	1.534644	-0.091573	0.882675
C136	C	1.784644	0.158427	1.132675
C137	C	1.031538	-0.665057	0.385856
C138	C	1.281538	-0.415057	0.635856
C139	C	1.531538	-0.165057	0.885856
C140	C	1.781538	0.084943	1.135856
C141	C	0.984957	-0.703729	0.432819
C142	C	1.234957	-0.453729	0.682819
C143	C	1.484957	-0.203729	0.932819
C144	C	1.734957	0.046271	1.182819
C145	C	0.941485	-0.668914	0.476611
C146	C	1.191485	-0.418914	0.726611
C147	C	1.441485	-0.168914	0.976611
C148	C	1.691485	0.081086	1.226611
C149	C	0.944595	-0.595431	0.473434
C150	C	1.194595	-0.345431	0.723434
C151	C	1.444595	-0.095431	0.973434
C152	C	1.694595	0.154569	1.223434
C153	C	0.973315	-0.925697	0.444686
C154	C	1.223315	-0.675697	0.694686
C155	C	1.473315	-0.425697	0.944686
C156	C	1.723315	-0.175697	1.194686
C157	C	0.970206	-0.999185	0.447858
C158	C	1.220206	-0.749185	0.697858
C159	C	1.470206	-0.499185	0.947858
C160	C	1.720206	-0.249185	1.197858
C161	C	1.060260	-0.995322	0.357103
C162	C	1.310260	-0.745322	0.607103
C163	C	1.560260	-0.495322	0.857103
C164	C	1.810260	-0.245322	1.107103
C165	C	1.063364	-0.921838	0.353927
C166	C	1.313364	-0.671838	0.603927
C167	C	1.563364	-0.421838	0.853927
C168	C	1.813364	-0.171838	1.103927
C169	C	1.019895	-0.887029	0.397721
C170	C	1.269895	-0.637029	0.647721
C171	C	1.519895	-0.387029	0.897721
C172	C	1.769895	-0.137029	1.147721
C173	C	0.981778	-0.778842	0.436070
C174	C	1.231778	-0.528842	0.686070
C175	C	1.481778	-0.278842	0.936070
C176	C	1.731778	-0.028842	1.186070
C177	C	1.023077	-0.811918	0.394474
C178	C	1.273077	-0.561918	0.644474
C179	C	1.523077	-0.311918	0.894474
C180	C	1.773077	-0.061918	1.144474
C181	C	1.185895	-0.287940	0.423197
C182	C	1.435895	-0.037940	0.673197
C183	C	1.685895	0.212060	0.923197
C184	C	1.935895	0.462060	1.173197
C185	C	1.264105	-0.284617	0.426581
C186	C	1.514105	-0.034617	0.676581
C187	C	1.764105	0.215383	0.926581
C188	C	2.014105	0.465383	1.176581
C189	C	1.002405	-0.295718	0.608419
C190	C	1.252405	-0.045718	0.858419
C191	C	1.502405	0.204282	1.108419
C192	C	1.752405	0.454282	1.358419
C193	C	1.002423	-0.295710	0.690733
C194	C	1.252423	-0.045710	0.940733
C195	C	1.502423	0.204290	1.190733
C196	C	1.752423	0.454290	1.440733
C197	C	1.010296	-0.112205	0.407413
C198	C	1.260296	0.137795	0.657413
C199	C	1.510296	0.387795	0.907413
C200	C	1.760296	0.637795	1.157413
C201	C	1.013676	-0.033995	0.404071
C202	C	1.263676	0.216005	0.654071
C203	C	1.513676	0.466005	0.904071
C204	C	1.763676	0.716005	1.154071
C205	C	1.002365	-0.295705	0.222844
C206	C	1.252365	-0.045705	0.472844
C207	C	1.502365	0.204295	0.722844
C208	C	1.752365	0.454295	0.972844
C209	C	1.002493	-0.295509	0.140527
C210	C	1.252493	-0.045509	0.390527
C211	C	1.502493	0.204491	0.640527
C212	C	1.752493	0.454491	0.890527
C213	C	1.002470	-0.295576	0.989821
C214	C	1.252470	-0.045576	1.239821
C215	C	1.502470	0.204424	1.489821
C216	C	1.752470	0.454424	1.739821
C217	C	0.945560	-0.352101	0.958451
C218	C	1.195560	-0.102101	1.208451
C219	C	1.445560	0.147899	1.458451
C220	C	1.695560	0.397899	1.708451
C221	C	0.945697	-0.352347	0.872850
C222	C	1.195697	-0.102347	1.122850
C223	C	1.445697	0.147653	1.372850
C224	C	1.695697	0.397653	1.622850
C225	C	1.002446	-0.295642	0.841440
C226	C	1.252446	-0.045642	1.091440
C227	C	1.502446	0.204358	1.341440
C228	C	1.752446	0.454358	1.591440
C229	C	1.075724	-0.312614	0.876603
C230	C	1.325724	-0.062614	1.126603
C231	C	1.575724	0.187386	1.376603
C232	C	1.825724	0.437386	1.626603
C233	C	1.075404	-0.312983	0.962250
C234	C	1.325404	-0.062983	1.212250
C235	C	1.575404	0.187017	1.462250
C236	C	1.825404	0.437017	1.712250
C237	C	0.986751	-0.221931	0.954231
C238	C	1.236751	0.028069	1.204231
C239	C	1.486751	0.278069	1.454231
C240	C	1.736751	0.528069	1.704231
C241	C	0.985083	-0.222431	0.868527
C242	C	1.235083	0.027569	1.118527
C243	C	1.485083	0.277569	1.368527
C244	C	1.735083	0.527569	1.618527
C245	C	1.002437	-0.295679	0.757582
C246	C	1.252437	-0.045679	1.007582
C247	C	1.502437	0.204321	1.257582
C248	C	1.752437	0.454321	1.507582
C249	C	1.002483	-0.295542	1.073679
C250	C	1.252483	-0.045542	1.323679
C251	C	1.502483	0.204458	1.573679
C252	C	1.752483	0.454458	1.823679
H253	H	0.738046	-0.225616	0.486267
H254	H	0.988046	0.024384	0.736267
H255	H	1.238046	0.274384	0.986267
H256	H	1.488046	0.524384	1.236267
Br257	Br	1.086296	-0.759432	0.330744
Br258	Br	1.336296	-0.509432	0.580744
Br259	Br	1.586296	-0.259432	0.830744
Br260	Br	1.836296	-0.009432	1.080744
Br261	Br	0.918564	-0.831333	0.499806
Br262	Br	1.168564	-0.581333	0.749806
Br263	Br	1.418564	-0.331333	0.999806
Br264	Br	1.668564	-0.081333	1.249806
Br265	Br	0.246380	-0.391116	0.318748
Br266	Br	0.496380	-0.141116	0.568748
Br267	Br	0.746380	0.108884	0.818748
Br268	Br	0.996380	0.358884	1.068748
Br269	Br	1.099058	-0.401203	0.845894
Br270	Br	1.349058	-0.151203	1.095894
Br271	Br	1.599058	0.098797	1.345894
Br272	Br	1.849058	0.348797	1.595894
H273	H	0.730971	-0.388658	0.321100
H274	H	0.980971	-0.138658	0.571100
H275	H	1.230971	0.111342	0.821100
H276	H	1.480971	0.361342	1.071100
H277	H	0.407787	-0.197113	0.515202
H278	H	0.657787	0.052887	0.765202
H279	H	0.907787	0.302887	1.015202
H280	H	1.157787	0.552887	1.265202
Br281	Br	0.255582	-0.179264	0.533312
Br282	Br	0.505582	0.070736	0.783312
Br283	Br	0.755582	0.320736	1.033312
Br284	Br	1.005582	0.570736	1.283312
H285	H	0.909198	-0.567090	0.509091
H286	H	1.159198	-0.317090	0.759091
H287	H	1.409198	-0.067090	1.009091
H288	H	1.659198	0.182910	1.259091
H289	H	0.517699	-0.237265	0.474486
H290	H	0.767699	0.012735	0.724486
H291	H	1.017699	0.262735	0.974486
H292	H	1.267699	0.512735	1.224486
Br293	Br	0.962607	-0.443428	0.843555
Br294	Br	1.212607	-0.193428	1.093555
Br295	Br	1.462607	0.056572	1.343555
Br296	Br	1.712607	0.306572	1.593555
H297	H	1.072572	-0.560090	0.344429
H298	H	1.322572	-0.310090	0.594429
H299	H	1.572572	-0.060090	0.844429
H300	H	1.822572	0.189910	1.094429
H301	H	0.597648	-0.394346	0.315358
H302	H	0.847648	-0.144346	0.565358
H303	H	1.097648	0.105654	0.815358
H304	H	1.347648	0.355654	1.065358
Br305	Br	1.119255	-1.042566	0.297675
Br306	Br	1.369255	-0.792566	0.547675
Br307	Br	1.619255	-0.542566	0.797675
Br308	Br	1.869255	-0.292566	1.047675
Br309	Br	0.906973	-1.051670	0.511586
Br310	Br	1.156973	-0.801670	0.761586
Br311	Br	1.406973	-0.551670	1.011586
Br312	Br	1.656973	-0.301670	1.261586
H313	H	0.400703	-0.360153	0.350030
H314	H	0.650703	-0.110153	0.600030
H315	H	0.900703	0.139847	0.850030
H316	H	1.150703	0.389847	1.100030
H317	H	0.890952	-0.341982	0.976127
H318	H	1.140952	-0.091982	1.226127
H319	H	1.390952	0.158018	1.476127
H320	H	1.640952	0.408018	1.726127
Br321	Br	0.854965	-0.335249	0.832942
Br322	Br	1.104965	-0.085249	1.082942
Br323	Br	1.354965	0.164751	1.332942
Br324	Br	1.604965	0.414751	1.582942
Br325	Br	0.878273	-0.721398	0.540356
Br326	Br	1.128273	-0.471398	0.790356
Br327	Br	1.378273	-0.221398	1.040356
Br328	Br	1.628273	0.028602	1.290356
H329	H	1.028240	-0.179856	0.974482
H330	H	1.278240	0.070144	1.224482
H331	H	1.528240	0.320144	1.474482
H332	H	1.778240	0.570144	1.724482
Br333	Br	0.895223	-0.201006	0.829650
Br334	Br	1.145223	0.048994	1.079650
Br335	Br	1.395223	0.298994	1.329650
Br336	Br	1.645223	0.548994	1.579650
H337	H	0.604735	-0.231307	0.480520
H338	H	0.854735	0.018693	0.730520
H339	H	1.104735	0.268693	0.980520
H340	H	1.354735	0.518693	1.230520
H341	H	0.937919	-0.897361	0.480344
H342	H	1.187919	-0.647361	0.730344
H343	H	1.437919	-0.397361	0.980344
H344	H	1.687919	-0.147361	1.230344
H345	H	0.955571	-0.406423	0.982866
H346	H	1.205571	-0.156423	1.232866
H347	H	1.455571	0.093577	1.482866
H348	H	1.705571	0.343577	1.732866
Br349	Br	0.466728	-0.379436	0.330491
Br350	Br	0.716728	-0.129436	0.580491
Br351	Br	0.966728	0.120564	0.830491
Br352	Br	1.216728	0.370564	1.080491
H353	H	1.089100	-0.366725	0.985263
H354	H	1.339100	-0.116725	1.235263
H355	H	1.589100	0.133275	1.485263
H356	H	1.839100	0.383275	1.735263
H357	H	0.934413	-0.205854	0.972741
H358	H	1.184413	0.044146	1.222741
H359	H	1.434413	0.294146	1.472741
H360	H	1.684413	0.544146	1.722741
Br361	Br	1.126592	-0.869358	0.290198
Br362	Br	1.376592	-0.619358	0.540198
Br363	Br	1.626592	-0.369358	0.790198
Br364	Br	1.876592	-0.119358	1.040198
Br365	Br	1.148147	-0.247014	0.997131
Br366	Br	1.398147	0.002986	1.247131
Br367	Br	1.648147	0.252986	1.497131
Br368	Br	1.898147	0.502986	1.747131
Br369	Br	1.049557	-0.148932	0.832496
Br370	Br	1.299557	0.101068	1.082496
Br371	Br	1.549557	0.351068	1.332496
Br372	Br	1.799557	0.601068	1.582496
H373	H	1.066935	-0.693396	0.350199
H374	H	1.316935	-0.443396	0.600199
H375	H	1.566935	-0.193396	0.850199
H376	H	1.816935	0.056604	1.100199
Br377	Br	1.148069	-0.245920	0.842955
Br378	Br	1.398069	0.004080	1.092955
Br379	Br	1.648069	0.254080	1.342955
Br380	Br	1.898069	0.504080	1.592955
