data_functionalizedCrystal
_audit_creation_method	'MofGen! by Chris Wilmer'
_symmetry_space_group_name_H-M	'P1'
_symmetry_Int_Tables_number	1
_symmetry_cell_setting	triclinic
loop_
_symmetry_equiv_pos_as_xyz
  x,y,z
_cell_length_a	12.759401
_cell_length_b	16.120444
_cell_length_c	12.759393
_cell_angle_alpha	92.865361
_cell_angle_beta	89.980677
_cell_angle_gamma	92.925534
loop_
_atom_site_label
_atom_site_type_symbol
_atom_site_fract_x
_atom_site_fract_y
_atom_site_fract_z
Zn1	Zn	1.584968	-0.331893	-0.615160
Zn2	Zn	2.084968	0.168107	-0.115160
Zn3	Zn	1.575915	-0.471327	-0.448375
Zn4	Zn	2.075915	0.028673	0.051625
Zn5	Zn	1.409266	-0.331929	-0.439501
Zn6	Zn	1.909266	0.168071	0.060499
Zn7	Zn	1.400317	-0.471264	-0.624012
Zn8	Zn	1.900317	0.028736	-0.124012
O9	O	1.492616	-0.401603	-0.531762
O10	O	1.992616	0.098397	-0.031762
O11	O	1.730787	-0.350400	-0.593045
O12	O	2.230787	0.149600	-0.093045
O13	O	1.553765	-0.452877	-0.300180
O14	O	2.053765	0.047123	0.199820
O15	O	1.440107	-0.215259	-0.455385
O16	O	1.940107	0.284741	0.044615
O17	O	1.724136	-0.452841	-0.470509
O18	O	2.224136	0.047159	0.029491
O19	O	1.569195	-0.215232	-0.584441
O20	O	2.069195	0.284768	-0.084441
O21	O	1.431329	-0.350462	-0.293660
O22	O	1.931329	0.149538	0.206340
O23	O	1.261058	-0.350402	-0.463968
O24	O	1.761058	0.149598	0.036032
O25	O	1.424855	-0.452735	-0.769856
O26	O	1.924855	0.047265	-0.269856
O27	O	1.254484	-0.452770	-0.599527
O28	O	1.754484	0.047230	-0.099527
O29	O	1.560517	-0.350339	-0.763353
O30	O	2.060517	0.149661	-0.263353
O31	O	1.545087	-0.587984	-0.479092
O32	O	2.045087	-0.087984	0.020908
O33	O	1.416076	-0.587938	-0.608132
O34	O	1.916076	-0.087938	-0.108132
C35	C	1.219650	-0.401584	-0.531746
C36	C	1.719650	0.098416	-0.031746
C37	C	1.102873	-0.401596	-0.531765
C38	C	1.602873	0.098404	-0.031765
C39	C	1.478657	-0.618211	-0.545558
C40	C	1.978657	-0.118211	-0.045558
C41	C	1.472781	-0.710877	-0.551495
C42	C	1.972781	-0.210877	-0.051495
C43	C	0.941730	-0.348370	-0.595688
C44	C	1.441730	0.151630	-0.095688
C45	C	1.051455	-0.348353	-0.595680
C46	C	1.551455	0.151647	-0.095680
C47	C	1.044559	-0.454863	-0.467862
C48	C	1.544559	0.045137	0.032138
C49	C	0.934836	-0.454883	-0.467876
C50	C	1.434836	0.045117	0.032124
C51	C	1.523355	-0.921822	-0.501189
C52	C	2.023355	-0.421822	-0.001189
C53	C	1.462073	-0.880533	-0.562346
C54	C	1.962073	-0.380533	-0.062346
C55	C	1.468033	-0.786128	-0.556307
C56	C	1.968033	-0.286128	-0.056307
C57	C	1.517396	-1.016236	-0.507227
C58	C	2.017396	-0.516236	-0.007227
C59	C	1.766648	-0.401623	-0.531780
C60	C	2.266648	0.098377	-0.031780
C61	C	1.883424	-0.401632	-0.531787
C62	C	2.383424	0.098368	-0.031787
C63	C	1.492698	-0.401526	-0.805791
C64	C	1.992698	0.098474	-0.305791
C65	C	1.492732	-0.401492	-0.922565
C66	C	1.992732	0.098508	-0.422565
C67	C	1.506659	-0.184149	-0.517935
C68	C	2.006659	0.315851	-0.017935
C69	C	1.512643	-0.091483	-0.512043
C70	C	2.012643	0.408517	-0.012043
C71	C	1.556516	-0.454758	-1.090554
C72	C	2.056516	0.045242	-0.590554
C73	C	1.556488	-0.454797	-0.980832
C74	C	2.056488	0.045203	-0.480832
C75	C	1.428992	-0.348151	-0.974026
C76	C	1.928992	0.151849	-0.474026
C77	C	1.429015	-0.348116	-1.083746
C78	C	1.929015	0.151884	-0.583746
C79	C	1.492600	-0.401620	-0.258796
C80	C	1.992600	0.098380	0.241204
C81	C	1.492784	-0.401419	-0.142007
C82	C	1.992784	0.098581	0.357993
H83	H	0.899875	-0.305009	-0.647728
H84	H	1.399875	0.194991	-0.147728
H85	H	1.377076	-0.304753	-0.926577
H86	H	1.877076	0.195247	-0.426577
H87	H	1.405131	-0.916086	-0.619240
H88	H	1.905131	-0.416086	-0.119240
C89	C	1.682528	-0.560183	-1.086257
C90	C	2.182528	-0.060183	-0.586257
C91	C	1.626599	-0.513355	-1.154596
C92	C	2.126599	-0.013355	-0.654596
H93	H	1.725787	-0.596364	-1.125794
H94	H	2.225787	-0.096364	-0.625794
H95	H	1.725052	-0.523877	-1.041160
H96	H	2.225052	-0.023877	-0.541160
H97	H	1.634670	-0.592079	-1.045482
H98	H	2.134670	-0.092079	-0.545482
H99	H	1.674457	-0.481455	-1.195365
H100	H	2.174457	0.018545	-0.695365
H101	H	1.584071	-0.549665	-1.199711
H102	H	2.084071	-0.049665	-0.699711
C103	C	1.563819	-0.566987	-0.864596
C104	C	2.063819	-0.066987	-0.364596
C105	C	1.626547	-0.513430	-0.924276
C106	C	2.126547	-0.013430	-0.424276
H107	H	1.607073	-0.603189	-0.829688
H108	H	2.107073	-0.103189	-0.329688
H109	H	1.525853	-0.535249	-0.814196
H110	H	2.025853	-0.035249	-0.314196
H111	H	1.515999	-0.598856	-0.909436
H112	H	2.015999	-0.098856	-0.409436
H113	H	1.674362	-0.481556	-0.879435
H114	H	2.174362	0.018444	-0.379435
H115	H	1.664530	-0.545171	-0.974682
H116	H	2.164530	-0.045171	-0.474682
H117	H	1.377111	-0.304680	-1.125640
H118	H	1.877111	0.195320	-0.625640
C119	C	1.591299	-0.788247	-0.433188
C120	C	2.091299	-0.288247	0.066812
C121	C	1.600210	-0.873834	-0.424378
C122	C	2.100210	-0.373834	0.075622
H123	H	1.638740	-0.758615	-0.385761
H124	H	2.138740	-0.258615	0.114239
H125	H	1.607531	-0.773976	-0.502887
H126	H	2.107531	-0.273976	-0.002887
H127	H	1.521585	-0.774103	-0.416872
H128	H	2.021585	-0.274103	0.083128
H129	H	1.669923	-0.887978	-0.440702
H130	H	2.169923	-0.387978	0.059298
H131	H	1.583986	-0.888109	-0.354664
H132	H	2.083986	-0.388109	0.145336
H133	H	1.086431	-0.498217	-0.415825
H134	H	1.586431	0.001783	0.084175
C135	C	1.047244	-0.243068	-0.722010
C136	C	1.547244	0.256932	-0.222010
C137	C	1.115545	-0.289802	-0.665916
C138	C	1.615545	0.210198	-0.165916
H139	H	1.086813	-0.206917	-0.765368
H140	H	1.586813	0.293083	-0.265368
H141	H	1.002134	-0.279436	-0.764443
H142	H	1.502134	0.220564	-0.264443
H143	H	1.006476	-0.211146	-0.674258
H144	H	1.506476	0.288854	-0.174258
H145	H	1.156308	-0.321729	-0.713669
H146	H	1.656308	0.178271	-0.213669
H147	H	1.160674	-0.253430	-0.623480
H148	H	1.660674	0.246570	-0.123480
H149	H	0.887361	-0.498260	-0.415840
H150	H	1.387361	0.001740	0.084160
