data_functionalizedCrystal
_audit_creation_method	'MofGen! by Chris Wilmer'
_symmetry_space_group_name_H-M	'P1'
_symmetry_Int_Tables_number	1
_symmetry_cell_setting	triclinic
loop_
_symmetry_equiv_pos_as_xyz
  x,y,z
_cell_length_a	16.992694
_cell_length_b	15.455313
_cell_length_c	16.992695
_cell_angle_alpha	92.847427
_cell_angle_beta	90.668223
_cell_angle_gamma	87.142206
loop_
_atom_site_label
_atom_site_type_symbol
_atom_site_fract_x
_atom_site_fract_y
_atom_site_fract_z
O1	O	1.054080	-0.072023	0.163694
O2	O	0.825681	-0.072048	0.161862
O3	O	0.938965	-0.072029	0.048579
O4	O	0.940797	-0.072042	0.276978
O5	O	0.932485	0.072232	0.055028
O6	O	0.819202	0.072213	0.168312
O7	O	1.047601	0.072238	0.170144
Cu8	Cu	0.932809	0.085398	0.169817
Cu9	Cu	0.940473	-0.085207	0.162189
O10	O	0.934317	0.072219	0.283428
C11	C	0.793081	0.000079	0.162731
C12	C	0.705597	0.000070	0.155702
C13	C	0.933369	0.000102	0.022443
C14	C	0.926341	0.000101	-0.065041
C15	C	0.659607	0.000066	0.223520
C16	C	0.577405	0.000079	0.216911
C17	C	0.541197	0.000088	0.142484
C18	C	0.587193	0.000094	0.074661
C19	C	0.669393	0.000088	0.081271
C20	C	0.295881	0.000113	0.115091
C21	C	0.213676	0.000116	0.108486
C22	C	0.203893	0.000103	0.250737
C23	C	0.286095	0.000091	0.257340
C24	C	0.332084	0.000102	0.189517
N25	N	0.457174	0.000098	0.135727
N26	N	0.416105	0.000098	0.196275
C27	C	1.080201	0.000109	0.169275
C28	C	1.167685	0.000113	0.176304
N29	N	0.927425	0.205392	0.175181
N30	N	0.945863	-0.205202	0.156819
C31	C	0.975571	0.250795	0.127074
C32	C	0.971507	0.341602	0.131139
C33	C	0.919301	0.387005	0.183315
C34	C	0.871149	0.341596	0.231424
C35	C	0.875210	0.250791	0.227355
C36	C	0.901772	0.658584	0.200858
C37	C	0.897717	0.749395	0.204926
C38	C	0.998074	0.749395	0.104639
C39	C	1.002133	0.658588	0.100578
C40	C	0.953979	0.613187	0.148684
N41	N	0.915147	0.479825	0.187473
N42	N	0.958129	0.520369	0.144522
C43	C	0.994158	0.000109	-0.111032
C44	C	0.987550	0.000100	-0.193233
C45	C	0.913123	0.000089	-0.229442
C46	C	0.845300	0.000078	-0.183445
C47	C	0.851910	0.000081	-0.101246
C48	C	0.885729	0.000074	-0.474757
C49	C	0.879124	0.000074	-0.556962
C50	C	1.021375	0.000094	-0.566744
C51	C	1.027977	0.000102	-0.484543
C52	C	0.960155	0.000087	-0.438554
N53	N	0.906366	0.000082	-0.313464
N54	N	0.966913	0.000087	-0.354533
C55	C	0.939913	0.000087	0.309563
C56	C	0.946942	0.000082	0.397047
H57	H	0.539963	0.000075	0.272136
O58	O	1.087331	0.000138	-0.611300
C59	C	1.154440	0.000123	-0.561715
H60	H	1.137073	0.027437	-0.500468
H61	H	1.200396	0.042006	-0.587018
H62	H	1.180116	-0.069085	-0.557565
H63	H	0.818513	0.000079	-0.586440
O64	O	0.340433	0.000081	0.049128
C65	C	0.290844	0.000110	-0.017976
H66	H	0.232040	-0.027204	-0.003054
H67	H	0.319890	-0.041767	-0.067686
H68	H	0.280502	0.069322	-0.037450
O69	O	1.052736	0.614719	0.049634
C70	C	1.033872	0.637218	-0.027986
H71	H	0.969661	0.662066	-0.031036
H72	H	1.043144	0.577679	-0.069798
H73	H	1.073554	0.690101	-0.045888
O74	O	1.100241	-0.000008	-0.449291
C75	C	1.111687	-0.074731	-0.405389
H76	H	1.052044	-0.099646	-0.389934
H77	H	1.145685	-0.057923	-0.348909
H78	H	1.146586	-0.127046	-0.441820
H79	H	1.018087	0.213834	0.084591
O80	O	1.044955	0.793456	0.057986
C81	C	1.124674	0.771238	0.074694
H82	H	1.130129	0.746271	0.136628
H83	H	1.160943	0.830949	0.070803
H84	H	1.147413	0.718528	0.030165
H85	H	0.784700	0.000063	-0.212933
H86	H	0.830503	0.000061	-0.437322
O87	O	1.018251	0.385605	0.084300
C88	C	1.001568	0.363447	0.004568
H89	H	0.974173	0.297524	-0.000211
H90	H	1.058457	0.360330	-0.030585
H91	H	0.958585	0.414567	-0.019974
O92	O	0.694862	0.000170	0.295781
C93	C	0.738758	0.074889	0.307211
H94	H	0.754207	0.099803	0.247564
H95	H	0.795241	0.058076	0.341209
H96	H	0.702323	0.127207	0.342104
O97	O	0.785980	-0.000042	-0.056656
C98	C	0.744466	-0.074774	-0.077088
H99	H	0.761009	-0.099679	-0.139275
H100	H	0.678419	-0.057982	-0.074672
H101	H	0.760399	-0.127091	-0.033841
O102	O	0.321169	-0.000036	0.329682
C103	C	0.301452	-0.074767	0.367973
H104	H	0.244281	-0.099663	0.341820
H105	H	0.293396	-0.057976	0.433563
H106	H	0.350734	-0.127090	0.359498
O107	O	1.066396	0.000158	-0.075734
C108	C	1.057692	0.000137	0.006679
H109	H	0.996244	0.027444	0.023332
H110	H	1.103748	0.042024	0.036662
H111	H	1.066047	-0.069071	0.026684
H112	H	0.184198	0.000123	0.047876
H113	H	0.557705	0.000114	0.014061
H114	H	0.828638	0.378569	0.273904
O115	O	0.828413	0.206818	0.274168
C116	C	0.781449	0.266362	0.321080
H117	H	0.810885	0.331086	0.326913
H118	H	0.774548	0.240114	0.382010
H119	H	0.720941	0.276033	0.292253
O120	O	0.714097	0.000241	0.015422
C121	C	0.758606	0.074942	0.018339
H122	H	0.728719	0.127161	0.059044
H123	H	0.762743	0.100025	-0.043369
H124	H	0.820345	0.058045	0.041700
O125	O	0.159100	0.000138	0.316537
C126	C	0.078785	0.000124	0.294748
H127	H	0.070539	0.027439	0.233941
H128	H	0.042546	0.042007	0.339533
H129	H	0.058325	-0.069084	0.293151
H130	H	0.855202	0.786359	0.247417
H131	H	0.862564	0.621625	0.240030
H132	H	1.042774	0.000109	-0.230675
