data_functionalizedCrystal
_audit_creation_method	'MofGen! by Chris Wilmer'
_symmetry_space_group_name_H-M	'P1'
_symmetry_Int_Tables_number	1
_symmetry_cell_setting	triclinic
loop_
_symmetry_equiv_pos_as_xyz
  x,y,z
_cell_length_a	12.827893
_cell_length_b	29.839131
_cell_length_c	12.827885
_cell_angle_alpha	89.955525
_cell_angle_beta	89.980728
_cell_angle_gamma	90.035390
loop_
_atom_site_label
_atom_site_type_symbol
_atom_site_fract_x
_atom_site_fract_y
_atom_site_fract_z
Zn1	Zn	1.597528	-0.178830	-0.590737
Zn2	Zn	1.597361	-0.253967	-0.415952
Zn3	Zn	1.422768	-0.178852	-0.416011
Zn4	Zn	1.422694	-0.253934	-0.590653
O5	O	1.510087	-0.216395	-0.503338
O6	O	1.743741	-0.188801	-0.567562
O7	O	1.574162	-0.244026	-0.269724
O8	O	1.446052	-0.115982	-0.439248
O9	O	1.743619	-0.244004	-0.439148
O10	O	1.574446	-0.115965	-0.567619
O11	O	1.445890	-0.188839	-0.269767
O12	O	1.276522	-0.188807	-0.439167
O13	O	1.445924	-0.243948	-0.736900
O14	O	1.276468	-0.243969	-0.567476
O15	O	1.574374	-0.188769	-0.736962
O16	O	1.574089	-0.316830	-0.439067
O17	O	1.445762	-0.316805	-0.567419
C18	C	1.238578	-0.216387	-0.503319
C19	C	1.122424	-0.216394	-0.503336
C20	C	0.950596	-0.243740	-0.566745
C21	C	1.070646	-0.243733	-0.566729
C22	C	1.509928	-0.333118	-0.503250
C23	C	1.509956	-0.383052	-0.503247
C24	C	1.576928	-0.692652	-0.570276
C25	C	1.577042	-0.880325	-0.570339
O26	O	1.633828	-0.904553	-0.627263
N27	N	1.510265	-0.903837	-0.503454
C28	C	1.443450	-0.880428	-0.436554
O29	O	1.386648	-0.904733	-0.379674
C30	C	1.443333	-0.692756	-0.436497
C31	C	1.510121	-0.669247	-0.503379
C32	C	1.643710	-0.669143	-0.637153
C33	C	1.643685	-0.622227	-0.637132
C34	C	1.576878	-0.598822	-0.570235
C35	C	1.510096	-0.622331	-0.503358
C36	C	1.376513	-0.669348	-0.369603
C37	C	1.376488	-0.622427	-0.369597
C38	C	1.443276	-0.598917	-0.436478
C39	C	1.443264	-0.552010	-0.436441
N40	N	1.510040	-0.528498	-0.503325
C41	C	1.576848	-0.551904	-0.570222
C42	C	1.443519	-0.978959	-0.436587
C43	C	1.443549	-1.025877	-0.436600
C44	C	1.577139	-1.025771	-0.570386
C45	C	1.577113	-0.978852	-0.570367
C46	C	1.510295	-0.955447	-0.503471
C47	C	1.576791	-0.453378	-0.570174
C48	C	1.576763	-0.406458	-0.570144
C49	C	1.443169	-0.406569	-0.436363
C50	C	1.443201	-0.453484	-0.436388
C51	C	1.510015	-0.476888	-0.503302
O52	O	1.386499	-0.527753	-0.379554
O53	O	1.633625	-0.527591	-0.627110
C54	C	1.576953	-0.739568	-0.570296
C55	C	1.510171	-0.763078	-0.503419
C56	C	1.443364	-0.739672	-0.436522
C57	C	1.510202	-0.809995	-0.503432
C58	C	1.577009	-0.833401	-0.570329
C59	C	1.643785	-0.809889	-0.637214
C60	C	1.643760	-0.762974	-0.637193
C61	C	1.376587	-0.763184	-0.369638
C62	C	1.376619	-0.810099	-0.369663
C63	C	1.443426	-0.833505	-0.436560
C64	C	1.782658	-0.216404	-0.503358
C65	C	1.898811	-0.216408	-0.503366
C66	C	1.510160	-0.216352	-0.775908
C67	C	1.510190	-0.216334	-0.892062
C68	C	1.510276	-0.099217	-0.503449
C69	C	1.510356	-0.049283	-0.503497
C70	C	1.446737	-0.189020	-0.943868
C71	C	1.446768	-0.189001	-1.063918
C72	C	1.510076	-0.216406	-0.231828
C73	C	1.510248	-0.216298	-0.115676
H74	H	1.631154	-0.387318	-0.624607
H75	H	1.698186	-0.828954	-0.691680
H76	H	1.392387	-0.165653	-0.899344
H77	H	1.115180	-0.267131	-0.620995
H78	H	1.631537	-1.044836	-0.624855
O79	O	1.575177	-0.244193	-0.945051
C80	C	1.679363	-0.234384	-0.918493
H81	H	1.681606	-0.217157	-0.839236
H82	H	1.726174	-0.266810	-0.914841
H83	H	1.714557	-0.211254	-0.979925
H84	H	1.392448	-0.165615	-1.108470
H85	H	1.388824	-0.472626	-0.381919
O86	O	0.897519	-0.271726	-0.631392
C87	C	0.924073	-0.316499	-0.608400
H88	H	0.954096	-0.318740	-0.524927
H89	H	0.852226	-0.338675	-0.617259
H90	H	0.987365	-0.328288	-0.664420
H91	H	1.564579	-0.239681	-1.071130
H92	H	1.077897	-0.192991	-0.449077
H93	H	1.389175	-1.045014	-0.382127
H94	H	1.322233	-0.829237	-0.315190
O95	O	0.952054	-0.188547	-0.438564
C96	C	1.015108	-0.214112	-0.370984
H97	H	1.031328	-0.248183	-0.407697
H98	H	1.091919	-0.195833	-0.357121
H99	H	0.973065	-0.218994	-0.293486
O100	O	1.378308	-0.383758	-0.371482
C101	C	1.392630	-0.337307	-0.385800
H102	H	1.426817	-0.330859	-0.466472
H103	H	1.314350	-0.319505	-0.378649
H104	H	1.448302	-0.323995	-0.323856
H105	H	1.631190	-0.472428	-0.624669
O106	O	1.708447	-0.599415	-0.702259
C107	C	1.685566	-0.610862	-0.806388
H108	H	1.602082	-0.623784	-0.811584
H109	H	1.694527	-0.579988	-0.858027
H110	H	1.741583	-0.638069	-0.833755
O111	O	1.708466	-0.691895	-0.702251
C112	C	1.648972	-0.719041	-0.769697
H113	H	1.566648	-0.704938	-0.776080
H114	H	1.686732	-0.719521	-0.850149
H115	H	1.645427	-0.754615	-0.737404
H116	H	1.631497	-0.959713	-0.624828
H117	H	1.389106	-0.959906	-0.382110
O118	O	1.311531	-0.692108	-0.304605
C119	C	1.252581	-0.661380	-0.245554
H120	H	1.248940	-0.627921	-0.288352
H121	H	1.170253	-0.674964	-0.234346
H122	H	1.290881	-0.656406	-0.166215
H123	H	1.322183	-0.744130	-0.315163
O124	O	1.311470	-0.599671	-0.304760
C125	C	1.243945	-0.572524	-0.364186
H126	H	1.237458	-0.586631	-0.446492
H127	H	1.163542	-0.572038	-0.326323
H128	H	1.276232	-0.536952	-0.367796
O129	O	1.708667	-0.740209	-0.702266
C130	C	1.767648	-0.770937	-0.761289
H131	H	1.724854	-0.804394	-0.764869
H132	H	1.778743	-0.757349	-0.843635
H133	H	1.847038	-0.775914	-0.723094
