data_functionalizedCrystal
_audit_creation_method	'MofGen! by Chris Wilmer'
_symmetry_space_group_name_H-M	'P1'
_symmetry_Int_Tables_number	1
_symmetry_cell_setting	triclinic
loop_
_symmetry_equiv_pos_as_xyz
  x,y,z
_cell_length_a	16.109301
_cell_length_b	19.188930
_cell_length_c	15.186229
_cell_angle_alpha	89.991143
_cell_angle_beta	89.999362
_cell_angle_gamma	83.303131
loop_
_atom_site_label
_atom_site_type_symbol
_atom_site_fract_x
_atom_site_fract_y
_atom_site_fract_z
O1	O	1.102833	0.089744	-0.073183
O2	O	1.352833	0.339744	0.176817
O3	O	1.602833	0.589744	0.426817
O4	O	1.852833	0.839744	0.676817
O5	O	0.860734	0.100912	-0.073198
O6	O	1.110734	0.350912	0.176802
O7	O	1.360734	0.600912	0.426802
O8	O	1.610734	0.850912	0.676802
O9	O	0.988770	-0.006311	-0.073173
O10	O	1.238770	0.243689	0.176827
O11	O	1.488770	0.493689	0.426827
O12	O	1.738770	0.743689	0.676827
O13	O	0.974797	0.196967	-0.073208
O14	O	1.224797	0.446967	0.176792
O15	O	1.474797	0.696967	0.426792
O16	O	1.724797	0.946967	0.676792
O17	O	0.988762	-0.006313	0.073284
O18	O	1.238762	0.243687	0.323284
O19	O	1.488762	0.493687	0.573284
O20	O	1.738762	0.743687	0.823284
O21	O	0.860726	0.100911	0.073259
O22	O	1.110726	0.350911	0.323259
O23	O	1.360726	0.600911	0.573259
O24	O	1.610726	0.850911	0.823259
O25	O	1.102825	0.089742	0.073274
O26	O	1.352825	0.339742	0.323274
O27	O	1.602825	0.589742	0.573274
O28	O	1.852825	0.839742	0.823274
Zn29	Zn	0.981774	0.095326	0.096520
Zn30	Zn	1.231774	0.345326	0.346520
Zn31	Zn	1.481774	0.595326	0.596520
Zn32	Zn	1.731774	0.845326	0.846520
Zn33	Zn	0.981785	0.095328	-0.096444
Zn34	Zn	1.231785	0.345328	0.153556
Zn35	Zn	1.481785	0.595328	0.403556
Zn36	Zn	1.731785	0.845328	0.653556
O37	O	0.974789	0.196966	0.073249
O38	O	1.224789	0.446966	0.323249
O39	O	1.474789	0.696966	0.573249
O40	O	1.724789	0.946966	0.823249
C41	C	0.829757	0.100459	0.000029
C42	C	1.079757	0.350459	0.250029
C43	C	1.329757	0.600459	0.500029
C44	C	1.579757	0.850459	0.750029
C45	C	0.737466	0.099103	0.000024
C46	C	0.987466	0.349103	0.250024
C47	C	1.237466	0.599103	0.500024
C48	C	1.487466	0.849103	0.750024
C49	C	0.988313	-0.032324	0.000058
C50	C	1.238313	0.217676	0.250058
C51	C	1.488313	0.467676	0.500058
C52	C	1.738313	0.717676	0.750058
C53	C	0.986955	-0.109832	0.000066
C54	C	1.236955	0.140168	0.250066
C55	C	1.486955	0.390168	0.500066
C56	C	1.736955	0.640168	0.750066
C57	C	0.514993	0.159573	0.000023
C58	C	0.764993	0.409573	0.250023
C59	C	1.014993	0.659573	0.500023
C60	C	1.264993	0.909573	0.750023
C61	C	0.428277	0.158294	0.000029
C62	C	0.678277	0.408294	0.250029
C63	C	0.928277	0.658294	0.500029
C64	C	1.178277	0.908294	0.750029
C65	C	0.448573	0.031076	0.000048
C66	C	0.698573	0.281076	0.250048
C67	C	0.948573	0.531076	0.500048
C68	C	1.198573	0.781076	0.750048
C69	C	0.535287	0.032357	0.000048
C70	C	0.785287	0.282357	0.250048
C71	C	1.035287	0.532357	0.500048
C72	C	1.285287	0.782357	0.750048
C73	C	0.568495	0.096608	0.000031
C74	C	0.818495	0.346608	0.250031
C75	C	1.068495	0.596608	0.500031
C76	C	1.318495	0.846608	0.750031
C77	C	0.395064	0.094047	0.000037
C78	C	0.645064	0.344047	0.250037
C79	C	0.895064	0.594047	0.500037
C80	C	1.145064	0.844047	0.750037
C81	C	0.301043	0.092659	0.000043
C82	C	0.551043	0.342659	0.250043
C83	C	0.801043	0.592659	0.500043
C84	C	1.051043	0.842659	0.750043
C85	C	0.662522	0.097996	0.000027
C86	C	0.912522	0.347996	0.250027
C87	C	1.162522	0.597996	0.500027
C88	C	1.412522	0.847996	0.750027
C89	C	1.062082	-0.154580	0.000075
C90	C	1.312082	0.095420	0.250075
C91	C	1.562082	0.345420	0.500075
C92	C	1.812082	0.595420	0.750075
C93	C	1.060806	-0.227407	0.000060
C94	C	1.310806	0.022593	0.250060
C95	C	1.560806	0.272593	0.500060
C96	C	1.810806	0.522593	0.750060
C97	C	0.984399	-0.255482	0.000055
C98	C	1.234399	-0.005482	0.250055
C99	C	1.484399	0.244518	0.500055
C100	C	1.734399	0.494518	0.750055
C101	C	0.909261	-0.210724	0.000041
C102	C	1.159261	0.039276	0.250041
C103	C	1.409261	0.289276	0.500041
C104	C	1.659261	0.539276	0.750041
C105	C	0.910540	-0.137899	0.000046
C106	C	1.160540	0.112101	0.250046
C107	C	1.410540	0.362101	0.500046
C108	C	1.660540	0.612101	0.750046
N109	N	0.925991	-0.363624	0.049893
N110	N	1.175991	-0.113624	0.299893
N111	N	1.425991	0.136376	0.549893
N112	N	1.675991	0.386376	0.799893
N113	N	0.924782	-0.432805	0.049890
N114	N	1.174782	-0.182805	0.299890
N115	N	1.424782	0.067195	0.549890
N116	N	1.674782	0.317195	0.799890
C117	C	0.980543	-0.474900	0.000037
C118	C	1.230543	-0.224900	0.250037
C119	C	1.480543	0.025100	0.500037
C120	C	1.730543	0.275100	0.750037
N121	N	1.037571	-0.445200	-0.049802
N122	N	1.287571	-0.195200	0.200198
N123	N	1.537571	0.054800	0.450198
N124	N	1.787571	0.304800	0.700198
N125	N	1.038783	-0.376013	-0.049795
N126	N	1.288783	-0.126013	0.200205
N127	N	1.538783	0.123987	0.450205
N128	N	1.788783	0.373987	0.700205
C129	C	0.983004	-0.334448	0.000049
C130	C	1.233004	-0.084448	0.250049
C131	C	1.483004	0.165552	0.500049
C132	C	1.733004	0.415552	0.750049
C133	C	1.054292	-0.598616	0.000029
C134	C	1.304292	-0.348616	0.250029
C135	C	1.554292	-0.098616	0.500029
C136	C	1.804292	0.151384	0.750029
C137	C	1.053012	-0.671443	0.000010
C138	C	1.303012	-0.421443	0.250010
C139	C	1.553012	-0.171443	0.500010
C140	C	1.803012	0.078557	0.750010
C141	C	0.901465	-0.654759	-0.000001
C142	C	1.151465	-0.404759	0.249999
C143	C	1.401465	-0.154759	0.499999
C144	C	1.651465	0.095241	0.749999
C145	C	0.902747	-0.581933	0.000010
C146	C	1.152747	-0.331933	0.250010
C147	C	1.402747	-0.081933	0.500010
C148	C	1.652747	0.168067	0.750010
C149	C	0.979162	-0.553866	0.000029
C150	C	1.229162	-0.303866	0.250029
C151	C	1.479162	-0.053866	0.500029
C152	C	1.729162	0.196134	0.750029
C153	C	1.133802	0.090196	0.000045
C154	C	1.383802	0.340196	0.250045
C155	C	1.633802	0.590196	0.500045
C156	C	1.883802	0.840196	0.750045
C157	C	1.226093	0.091552	0.000045
C158	C	1.476093	0.341552	0.250045
C159	C	1.726093	0.591552	0.500045
C160	C	1.976093	0.841552	0.750045
C161	C	0.975246	0.222979	0.000016
C162	C	1.225246	0.472979	0.250016
C163	C	1.475246	0.722979	0.500016
C164	C	1.725246	0.972979	0.750016
C165	C	0.976604	0.300486	0.000003
C166	C	1.226604	0.550486	0.250003
C167	C	1.476604	0.800486	0.500003
C168	C	1.726604	1.050486	0.750003
N169	N	0.981772	0.095325	0.228213
N170	N	1.231772	0.345325	0.478213
N171	N	1.481772	0.595325	0.728213
N172	N	1.731772	0.845325	0.978213
N173	N	0.981793	0.095325	-0.228137
N174	N	1.231793	0.345325	0.021863
N175	N	1.481793	0.595325	0.271863
N176	N	1.731793	0.845325	0.521863
C177	C	1.038486	0.047862	0.453947
C178	C	1.288486	0.297862	0.703947
C179	C	1.538486	0.547862	0.953947
C180	C	1.788486	0.797862	1.203947
C181	C	1.038488	0.047860	0.546136
C182	C	1.288488	0.297860	0.796136
C183	C	1.538488	0.547860	1.046136
C184	C	1.788488	0.797860	1.296136
C185	C	0.925074	0.142790	0.546123
C186	C	1.175074	0.392790	0.796123
C187	C	1.425074	0.642790	1.046123
C188	C	1.675074	0.892790	1.296123
C189	C	0.925068	0.142787	0.453935
C190	C	1.175068	0.392787	0.703935
C191	C	1.425068	0.642787	0.953935
C192	C	1.675068	0.892787	1.203935
C193	C	0.981779	0.095324	0.407849
C194	C	1.231779	0.345324	0.657849
C195	C	1.481779	0.595324	0.907849
C196	C	1.731779	0.845324	1.157849
C197	C	0.981787	0.095325	0.592227
C198	C	1.231787	0.345325	0.842227
C199	C	1.481787	0.595325	1.092227
C200	C	1.731787	0.845325	1.342227
C201	C	0.981790	0.095323	0.692183
C202	C	1.231790	0.345323	0.942183
C203	C	1.481790	0.595323	1.192183
C204	C	1.731790	0.845323	1.442183
C205	C	0.981775	0.095325	0.307887
C206	C	1.231775	0.345325	0.557887
C207	C	1.481775	0.595325	0.807887
C208	C	1.731775	0.845325	1.057887
H209	H	0.542027	0.211890	0.000016
H210	H	0.792027	0.461890	0.250016
H211	H	1.042027	0.711890	0.500016
H212	H	1.292027	0.961890	0.750016
F213	F	1.098840	-0.002654	0.404902
F214	F	1.348840	0.247346	0.654902
F215	F	1.598840	0.497346	0.904902
F216	F	1.848840	0.747346	1.154902
F217	F	0.371339	0.225311	0.000022
F218	F	0.621339	0.475311	0.250022
F219	F	0.871339	0.725311	0.500022
F220	F	1.121339	0.975311	0.750022
F221	F	0.413223	-0.037300	0.000061
F222	F	0.663223	0.212700	0.250061
F223	F	0.913223	0.462700	0.500061
F224	F	1.163223	0.712700	0.750061
H225	H	1.084664	0.009211	0.583666
H226	H	1.334664	0.259211	0.833666
H227	H	1.584664	0.509211	1.083666
H228	H	1.834664	0.759211	1.333666
F229	F	0.592232	-0.034663	0.000062
F230	F	0.842232	0.215337	0.250062
F231	F	1.092232	0.465337	0.500062
F232	F	1.342232	0.715337	0.750062
H233	H	1.124306	-0.131733	0.000087
H234	H	1.374306	0.118267	0.250087
H235	H	1.624306	0.368267	0.500087
H236	H	1.874306	0.618267	0.750087
F237	F	1.140770	-0.275040	0.000069
F238	F	1.390770	-0.025040	0.250069
F239	F	1.640770	0.224960	0.500069
F240	F	1.890770	0.474960	0.750069
F241	F	0.827943	-0.240604	0.000030
F242	F	1.077943	0.009396	0.250030
F243	F	1.327943	0.259396	0.500030
F244	F	1.577943	0.509396	0.750030
F245	F	0.830575	-0.090272	0.000036
F246	F	1.080575	0.159728	0.250036
F247	F	1.330575	0.409728	0.500036
F248	F	1.580575	0.659728	0.750036
F249	F	1.132978	-0.719069	0.000013
F250	F	1.382978	-0.469069	0.250013
F251	F	1.632978	-0.219069	0.500013
F252	F	1.882978	0.030931	0.750013
F253	F	0.864723	0.193302	0.595177
F254	F	1.114723	0.443302	0.845177
F255	F	1.364723	0.693302	1.095177
F256	F	1.614723	0.943302	1.345177
F257	F	1.135618	-0.568742	0.000054
F258	F	1.385618	-0.318742	0.250054
F259	F	1.635618	-0.068742	0.500054
F260	F	1.885618	0.181258	0.750054
F261	F	0.822785	-0.534306	0.000004
F262	F	1.072785	-0.284306	0.250004
F263	F	1.322785	-0.034306	0.500004
F264	F	1.572785	0.215694	0.750004
F265	F	0.820146	-0.684633	-0.000011
F266	F	1.070146	-0.434633	0.249989
F267	F	1.320146	-0.184633	0.499989
F268	F	1.570146	0.065367	0.749989
F269	F	0.864706	0.193303	0.404871
F270	F	1.114706	0.443303	0.654871
F271	F	1.364706	0.693303	0.904871
F272	F	1.614706	0.943303	1.154871
