data_functionalizedCrystal
_audit_creation_method	'MofGen! by Chris Wilmer'
_symmetry_space_group_name_H-M	'P1'
_symmetry_Int_Tables_number	1
_symmetry_cell_setting	triclinic
loop_
_symmetry_equiv_pos_as_xyz
  x,y,z
_cell_length_a	15.500227
_cell_length_b	9.065218
_cell_length_c	17.019370
_cell_angle_alpha	84.203467
_cell_angle_beta	96.696782
_cell_angle_gamma	87.113422
loop_
_atom_site_label
_atom_site_type_symbol
_atom_site_fract_x
_atom_site_fract_y
_atom_site_fract_z
O1	O	0.063571	-1.963337	-0.112469
O2	O	0.396904	-1.630004	0.220864
O3	O	0.730237	-1.296670	0.554197
O4	O	0.062863	-1.533727	-0.121992
O5	O	0.396196	-1.200394	0.211341
O6	O	0.729529	-0.867061	0.544675
O7	O	0.071788	-1.761334	-0.002055
O8	O	0.405122	-1.428001	0.331278
O9	O	0.738455	-1.094668	0.664612
O10	O	0.054645	-1.735730	-0.232407
O11	O	0.387979	-1.402397	0.100927
O12	O	0.721312	-1.069063	0.434260
O13	O	-0.072640	-1.747523	-0.009304
O14	O	0.260693	-1.414189	0.324029
O15	O	0.594027	-1.080856	0.657363
O16	O	-0.081565	-1.519916	-0.129241
O17	O	0.251768	-1.186582	0.204092
O18	O	0.585101	-0.853249	0.537426
O19	O	-0.080857	-1.949525	-0.119719
O20	O	0.252476	-1.616192	0.213615
O21	O	0.585809	-1.282859	0.546948
Cu22	Cu	-0.094399	-1.733459	-0.125142
Cu23	Cu	0.238934	-1.400126	0.208192
Cu24	Cu	0.572268	-1.066793	0.541525
Cu25	Cu	0.076404	-1.749793	-0.116569
Cu26	Cu	0.409738	-1.416460	0.216765
Cu27	Cu	0.743071	-1.083127	0.550098
O28	O	-0.089783	-1.721918	-0.239656
O29	O	0.243550	-1.388585	0.093678
O30	O	0.576884	-1.055252	0.427011
C31	C	-0.009283	-1.471866	-0.124701
C32	C	0.324050	-1.138533	0.208632
C33	C	0.657384	-0.805199	0.541965
C34	C	-0.009079	-1.308117	-0.121965
C35	C	0.324254	-0.974783	0.211368
C36	C	0.657588	-0.641450	0.544702
N37	N	-0.214532	-1.721982	-0.131171
N38	N	0.118801	-1.388649	0.202162
N39	N	0.452134	-1.055315	0.535496
C40	C	0.001772	-1.753730	0.023826
C41	C	0.335105	-1.420396	0.357159
C42	C	0.668439	-1.087063	0.690493
C43	C	0.008320	-1.751630	0.111743
C44	C	0.341654	-1.418296	0.445077
C45	C	0.674987	-1.084963	0.778410
C46	C	-0.256028	-1.818460	-0.080369
C47	C	0.077305	-1.485127	0.252965
C48	C	0.410638	-1.151794	0.586298
C49	C	-0.346941	-1.809793	-0.084936
C50	C	-0.013608	-1.476460	0.248397
C51	C	0.319725	-1.143127	0.581731
C52	C	-0.396357	-1.704654	-0.140310
C53	C	-0.063023	-1.371321	0.193023
C54	C	0.270310	-1.037988	0.526357
C55	C	-0.354854	-1.608166	-0.191115
C56	C	-0.021521	-1.274833	0.142219
C57	C	0.311812	-0.941499	0.475552
C58	C	-0.263943	-1.616827	-0.186543
C59	C	0.069390	-1.283494	0.146790
C60	C	0.402724	-0.950160	0.480124
C61	C	-0.671048	-1.673455	-0.156766
C62	C	-0.337715	-1.340122	0.176567
C63	C	-0.004381	-1.006788	0.509901
C64	C	-0.761966	-1.664804	-0.161336
C65	C	-0.428632	-1.331471	0.171998
C66	C	-0.095299	-0.998138	0.505331
C67	C	-0.754046	-1.866431	-0.055156
C68	C	-0.420713	-1.533097	0.278178
C69	C	-0.087379	-1.199764	0.611511
C70	C	-0.663134	-1.875088	-0.050592
C71	C	-0.329800	-1.541755	0.282741
C72	C	0.003533	-1.208421	0.616075
C73	C	-0.621639	-1.778595	-0.101394
C74	C	-0.288306	-1.445261	0.231940
C75	C	0.045028	-1.111928	0.565273
C76	C	-0.489284	-1.695796	-0.144982
C77	C	-0.155951	-1.362463	0.188352
C78	C	0.177382	-1.029130	0.521685
C79	C	-0.528713	-1.787447	-0.096718
C80	C	-0.195379	-1.454114	0.236616
C81	C	0.137954	-1.120780	0.569949
N82	N	0.196538	-1.761282	-0.110533
N83	N	0.529872	-1.427949	0.222800
N84	N	0.863205	-1.094616	0.556133
C85	C	-0.008710	-2.011387	-0.117009
C86	C	0.324624	-1.678053	0.216324
C87	C	0.657957	-1.344720	0.549658
C88	C	-0.008908	-2.175137	-0.119745
C89	C	0.324425	-1.841803	0.213588
C90	C	0.657759	-1.508470	0.546921
C91	C	-0.019765	-1.729523	-0.265537
C92	C	0.313569	-1.396190	0.067797
C93	C	0.646902	-1.062856	0.401130
C94	C	-0.026307	-1.731624	-0.353454
C95	C	0.307026	-1.398290	-0.020120
C96	C	0.640359	-1.064957	0.313213
C97	C	-0.067327	-1.743111	0.149103
C98	C	0.266006	-1.409778	0.482436
C99	C	0.599340	-1.076445	0.815770
C100	C	-0.061166	-1.741148	0.231712
C101	C	0.272167	-1.407815	0.565045
C102	C	0.605500	-1.074482	0.898378
C103	C	0.020642	-1.747693	0.276959
C104	C	0.353976	-1.414360	0.610292
C105	C	0.687309	-1.081026	0.943625
C106	C	0.096295	-1.756217	0.239594
C107	C	0.429629	-1.422883	0.572927
C108	C	0.762962	-1.089550	0.906261
C109	C	0.090134	-1.758190	0.156987
C110	C	0.423467	-1.424857	0.490321
C111	C	0.756801	-1.091523	0.823654
C112	C	0.043184	-1.742121	0.526575
C113	C	0.376518	-1.408788	0.859908
C114	C	0.709851	-1.075454	1.193242
C115	C	0.049340	-1.740142	0.609187
C116	C	0.382673	-1.406809	0.942520
C117	C	0.716007	-1.073476	1.275854
C118	C	-0.108123	-1.725077	0.601299
C119	C	0.225211	-1.391743	0.934632
C120	C	0.558544	-1.058410	1.267966
C121	C	-0.114277	-1.727042	0.518691
C122	C	0.219057	-1.393709	0.852024
C123	C	0.552390	-1.060375	1.185357
C124	C	-0.038624	-1.735573	0.481334
C125	C	0.294710	-1.402240	0.814667
C126	C	0.628043	-1.068906	1.148000
C127	C	0.026941	-1.745682	0.361398
C128	C	0.360275	-1.412349	0.694731
C129	C	0.693608	-1.079015	1.028065
C130	C	-0.044924	-1.737595	0.396897
C131	C	0.288410	-1.404261	0.730230
C132	C	0.621743	-1.070928	1.063563
H133	H	-0.215800	-1.904081	-0.035281
H134	H	0.117533	-1.570748	0.298053
H135	H	0.450866	-1.237415	0.631386
Br136	Br	-0.178359	-1.734216	0.087703
Br137	Br	0.154974	-1.400883	0.421036
Br138	Br	0.488308	-1.067549	0.754370
Br139	Br	0.137965	-1.754581	0.422812
Br140	Br	0.471298	-1.421247	0.756145
Br141	Br	0.804632	-1.087914	1.089479
H142	H	0.151734	-1.765128	0.126571
H143	H	0.485068	-1.431795	0.459904
H144	H	0.818401	-1.098461	0.793238
Br145	Br	-0.614739	-1.542506	-0.225711
Br146	Br	-0.281406	-1.209173	0.107623
Br147	Br	0.051928	-0.875840	0.440956
Br148	Br	-0.421914	-1.465463	-0.266261
Br149	Br	-0.088581	-1.132130	0.067072
Br150	Br	0.244752	-0.798797	0.400405
Br151	Br	-0.829025	-1.522109	-0.236496
Br152	Br	-0.495692	-1.188776	0.096837
Br153	Br	-0.162358	-0.855442	0.430170
H154	H	0.115962	-1.745457	0.646024
H155	H	0.449295	-1.412124	0.979358
H156	H	0.782629	-1.078791	1.312691
H157	H	-0.380726	-1.888352	-0.043568
H158	H	-0.047393	-1.555019	0.289765
H159	H	0.285940	-1.221686	0.623098
H160	H	-0.122767	-1.734218	0.262126
H161	H	0.210567	-1.400885	0.595459
H162	H	0.543900	-1.067552	0.928793
Br163	Br	0.207324	-1.765126	0.301002
Br164	Br	0.540657	-1.431792	0.634335
Br165	Br	0.873990	-1.098459	0.967668
H166	H	-0.111532	-1.732274	0.360053
H167	H	0.221802	-1.398940	0.693387
H168	H	0.555135	-1.065607	1.026720
H169	H	-0.622901	-1.960700	-0.005502
H170	H	-0.289568	-1.627367	0.327831
H171	H	0.043766	-1.294034	0.661165
Br172	Br	-0.225307	-1.718110	0.457286
Br173	Br	0.108026	-1.384777	0.790619
Br174	Br	0.441359	-1.051443	1.123953
Br175	Br	-0.210789	-1.713499	0.652002
Br176	Br	0.122544	-1.380165	0.985335
Br177	Br	0.455878	-1.046832	1.318668
H178	H	-0.529526	-1.610192	-0.190070
H179	H	-0.196193	-1.276859	0.143264
H180	H	0.137141	-0.943526	0.476597
H181	H	-0.787839	-1.944990	-0.013794
H182	H	-0.454506	-1.611656	0.319539
H183	H	-0.121173	-1.278323	0.652872
H184	H	0.104787	-1.749065	0.496169
H185	H	0.438120	-1.415732	0.829502
H186	H	0.771453	-1.082398	1.162836
H187	H	-0.488476	-1.873046	-0.051629
H188	H	-0.155143	-1.539713	0.281704
H189	H	0.178191	-1.206379	0.615038
Br190	Br	-0.207627	-1.485876	-0.255487
Br191	Br	0.125707	-1.152543	0.077846
Br192	Br	0.459040	-0.819210	0.411180
