data_functionalizedCrystal
_audit_creation_method	'MofGen! by Chris Wilmer'
_symmetry_space_group_name_H-M	'P1'
_symmetry_Int_Tables_number	1
_symmetry_cell_setting	triclinic
loop_
_symmetry_equiv_pos_as_xyz
  x,y,z
_cell_length_a	17.077402
_cell_length_b	17.077404
_cell_length_c	17.077396
_cell_angle_alpha	90.016105
_cell_angle_beta	90.029873
_cell_angle_gamma	90.023198
loop_
_atom_site_label
_atom_site_type_symbol
_atom_site_fract_x
_atom_site_fract_y
_atom_site_fract_z
Zn1	Zn	-0.312544	1.200024	0.443816
Zn2	Zn	-0.443821	1.199931	0.312549
Zn3	Zn	-0.312569	1.068761	0.312566
Zn4	Zn	-0.443767	1.068719	0.443775
O5	O	-0.378175	1.134359	0.378176
O6	O	-0.329971	1.309859	0.426413
O7	O	-0.426443	1.182510	0.202704
O8	O	-0.202718	1.086230	0.330002
O9	O	-0.426419	1.309790	0.329971
O10	O	-0.202700	1.182669	0.426430
O11	O	-0.330012	1.086140	0.202717
O12	O	-0.329960	0.958909	0.329962
O13	O	-0.426328	1.086158	0.553627
O14	O	-0.426351	0.958878	0.426360
O15	O	-0.329919	1.182628	0.553657
O16	O	-0.553661	1.182469	0.329931
O17	O	-0.553621	1.086068	0.426343
C18	C	-0.378153	0.930411	0.378159
C19	C	-0.378162	0.843161	0.378170
C20	C	-0.328031	0.802207	0.428464
C21	C	-0.328036	0.720227	0.428467
C22	C	-0.378177	0.679202	0.378180
C23	C	-0.428311	0.720161	0.327881
C24	C	-0.428301	0.802140	0.327874
C25	C	-0.428329	0.549291	0.327901
C26	C	-0.428339	0.467307	0.327908
C27	C	-0.328063	0.467378	0.428494
C28	C	-0.328054	0.549357	0.428487
C29	C	-0.378189	0.590311	0.378188
C30	C	-0.582123	1.134275	0.378148
C31	C	-0.669373	1.134311	0.378162
C32	C	-1.045114	1.184660	0.428478
C33	C	-0.963134	1.184625	0.428460
C34	C	-0.922222	1.134435	0.378208
C35	C	-0.963294	1.084282	0.327966
C36	C	-1.045273	1.084322	0.327981
C37	C	-0.792424	1.084201	0.327940
C38	C	-0.710440	1.084160	0.327925
C39	C	-0.710285	1.184505	0.428418
C40	C	-0.792264	1.184544	0.428433
C41	C	-0.833331	1.134390	0.378192
C42	C	-0.173431	1.134465	0.378222
C43	C	-0.086181	1.134510	0.378242
C44	C	-0.378114	1.134398	0.582921
C45	C	-0.378089	1.134415	0.670171
C46	C	-0.378198	1.339103	0.378194
C47	C	-0.378208	1.426353	0.378202
C48	C	-0.378179	1.134365	0.174229
C49	C	-0.377984	1.134500	0.086979
C50	C	-0.327871	1.084251	0.711167
C51	C	-0.327853	1.084263	0.793147
C52	C	-0.378050	1.134445	0.834130
C53	C	-0.428272	1.184612	0.793128
C54	C	-0.428294	1.184595	0.711149
C55	C	-0.428223	1.184646	0.963998
C56	C	-0.428201	1.184665	1.045983
C57	C	-0.327783	1.084315	1.045997
C58	C	-0.327804	1.084297	0.964018
C59	C	-0.378026	1.134465	0.923021
H60	H	-0.469123	0.835484	0.286919
H61	H	-0.469180	1.225450	0.677771
F62	F	-0.274681	0.676645	0.481998
F63	F	-0.481671	0.676497	0.274358
F64	F	-0.481720	0.423646	0.274403
H65	H	-0.469152	0.582633	0.286940
F66	F	-0.835804	1.237954	0.481925
H67	H	-1.078419	1.225524	0.469407
H68	H	-0.287202	0.835604	0.469415
H69	H	-0.286926	1.043438	0.930652
F70	F	-0.274694	0.593017	0.482013
F71	F	-0.274331	1.030923	1.089629
H72	H	-0.676844	1.225342	0.469325
H73	H	-0.287240	0.434029	0.469447
F74	F	-0.481679	1.238038	0.920368
F75	F	-0.919431	1.238002	0.481929
F76	F	-0.666899	1.030751	0.274433
F77	F	-0.836129	1.030824	0.274464
H78	H	-0.929979	1.043419	0.287046
F79	F	-1.088979	1.030947	0.274510
F80	F	-0.274441	1.030843	0.667557
F81	F	-0.274434	1.030842	0.836775
F82	F	-0.481622	1.238078	1.089598
H83	H	-0.469147	1.225467	0.826503
