data_functionalizedCrystal
_audit_creation_method	'MofGen! by Chris Wilmer'
_symmetry_space_group_name_H-M	'P1'
_symmetry_Int_Tables_number	1
_symmetry_cell_setting	triclinic
loop_
_symmetry_equiv_pos_as_xyz
  x,y,z
_cell_length_a	27.440280
_cell_length_b	14.809436
_cell_length_c	27.440280
_cell_angle_alpha	112.567360
_cell_angle_beta	89.999642
_cell_angle_gamma	52.841672
loop_
_atom_site_label
_atom_site_type_symbol
_atom_site_fract_x
_atom_site_fract_y
_atom_site_fract_z
Zr1	Zr	0.410082	1.000496	0.004557
Zr2	Zr	0.910082	1.500496	0.504557
O3	O	0.320936	1.191202	0.071040
O4	O	0.820936	1.691202	0.571040
O5	O	0.445263	0.809788	-0.007970
O6	O	0.945263	1.309788	0.492030
O7	O	0.433936	1.000474	0.082369
O8	O	0.933936	1.500474	0.582369
O9	O	0.332265	1.000533	-0.099494
O10	O	0.832265	1.500533	0.400506
O11	O	0.514139	1.000460	0.082373
O12	O	1.014139	1.500460	0.582373
O13	O	0.332263	1.000515	-0.019299
O14	O	0.832263	1.500515	0.480701
O15	O	0.534401	0.659356	-0.079228
O16	O	1.034401	1.159356	0.420772
O17	O	0.312003	1.341636	0.062108
O18	O	0.812003	1.841636	0.562108
O19	O	0.510633	0.888219	-0.022798
O20	O	1.010633	1.388219	0.477202
O21	O	0.450780	0.888243	-0.082649
O22	O	0.950780	1.388243	0.417351
O23	O	0.437444	1.112752	0.023715
O24	O	0.937444	1.612752	0.523715
O25	O	0.377591	1.112776	-0.036137
O26	O	0.877591	1.612776	0.463863
Zr27	Zr	0.537998	1.000501	-0.123337
Zr28	Zr	1.037998	1.500501	0.376663
Zr29	Zr	0.537996	1.000472	0.004564
Zr30	Zr	1.037996	1.500472	0.504564
Zr31	Zr	0.410084	1.000524	-0.123343
Zr32	Zr	0.910084	1.500524	0.376657
Zr33	Zr	0.395834	1.240421	-0.009689
Zr34	Zr	0.895834	1.740421	0.490311
Zr35	Zr	0.552246	0.760575	-0.109091
Zr36	Zr	1.052246	1.260575	0.390909
O37	O	0.502817	1.191209	-0.110810
O38	O	1.002817	1.691209	0.389190
O39	O	0.502814	1.191169	0.071049
O40	O	1.002814	1.691169	0.571049
O41	O	0.320940	1.191242	-0.110818
O42	O	0.820940	1.691242	0.389182
O43	O	0.627144	0.809795	-0.189820
O44	O	1.127144	1.309795	0.310180
O45	O	0.627140	0.809755	-0.007962
O46	O	1.127140	1.309755	0.492038
O47	O	0.445266	0.809828	-0.189829
O48	O	0.945266	1.309828	0.310171
O49	O	0.615815	1.000463	-0.019286
O50	O	1.115815	1.500463	0.480714
O51	O	0.514144	1.000522	-0.201149
O52	O	1.014144	1.500522	0.298851
O53	O	0.433941	1.000537	-0.201153
O54	O	0.933941	1.500537	0.298847
O55	O	0.615817	1.000481	-0.099480
O56	O	1.115817	1.500481	0.400520
O57	O	0.413677	1.341618	0.062112
O58	O	0.913677	1.841618	0.562112
O59	O	0.534403	0.659379	-0.180892
O60	O	1.034403	1.159379	0.319108
O61	O	0.636077	0.659360	-0.180888
O62	O	1.136077	1.159360	0.319112
O63	O	0.636075	0.659338	-0.079223
O64	O	1.136075	1.159338	0.420777
O65	O	0.312005	1.341659	-0.039556
O66	O	0.812005	1.841659	0.460444
O67	O	0.413679	1.341640	-0.039552
O68	O	0.913679	1.841640	0.460448
O69	O	0.510636	0.888245	-0.142494
O70	O	1.010636	1.388245	0.357506
O71	O	0.570489	0.888221	-0.082643
O72	O	1.070489	1.388221	0.417357
O73	O	0.497300	1.112754	-0.036131
O74	O	0.997300	1.612754	0.463869
O75	O	0.437446	1.112778	-0.095982
O76	O	0.937446	1.612778	0.404018
C77	C	0.491862	0.700388	-0.041569
C78	C	0.991862	1.200388	0.458431
C79	C	0.497910	0.598533	-0.035521
C80	C	0.997910	1.098533	0.464479
C81	C	0.314039	1.000527	-0.059398
C82	C	0.814039	1.500527	0.440602
C83	C	0.259736	1.000537	-0.059400
C84	C	0.759736	1.500537	0.440600
C85	C	0.477164	0.447864	-0.056266
C86	C	0.977164	0.947864	0.443734
C87	C	0.470912	0.553135	-0.062518
C88	C	0.970912	1.053135	0.437482
C89	C	-0.076959	1.000460	-0.015208
C90	C	0.423041	1.500460	0.484792
C91	C	-0.127976	1.000451	-0.015207
C92	C	0.372024	1.500451	0.484793
O93	O	-0.154349	1.000394	0.022357
O94	O	0.345651	1.500394	0.522357
N95	N	-0.153493	1.000463	-0.059386
N96	N	0.346507	1.500463	0.440614
C97	C	-0.127986	1.000471	-0.103572
C98	C	0.372014	1.500471	0.396428
O99	O	-0.154375	1.000479	-0.141150
O100	O	0.345625	1.500479	0.358850
C101	C	-0.076967	1.000471	-0.103574
C102	C	0.423033	1.500471	0.396426
C103	C	-0.051456	1.000472	-0.059389
C104	C	0.448544	1.500472	0.440611
C105	C	-0.051448	1.000459	0.028973
C106	C	0.448552	1.500459	0.528973
C107	C	-0.000435	1.000471	0.028973
C108	C	0.499565	1.500471	0.528973
C109	C	0.025067	1.000483	-0.015209
C110	C	0.525067	1.500483	0.484791
C111	C	-0.000443	1.000483	-0.059390
C112	C	0.499557	1.500483	0.440610
C113	C	-0.051457	1.000470	-0.147761
C114	C	0.448543	1.500470	0.352239
C115	C	-0.000434	1.000469	-0.147760
C116	C	0.499566	1.500469	0.352240
C117	C	0.025076	1.000470	-0.103575
C118	C	0.525076	1.500470	0.396425
C119	C	0.076072	1.000507	-0.103572
C120	C	0.576072	1.500507	0.396428
N121	N	0.101589	1.000495	-0.059392
N122	N	0.601589	1.500495	0.440608
C123	C	0.076087	1.000483	-0.015211
C124	C	0.576087	1.500483	0.484789
C125	C	-0.235130	1.000469	-0.103564
C126	C	0.264870	1.500469	0.396436
C127	C	-0.286151	1.000478	-0.103560
C128	C	0.213849	1.500478	0.396440
C129	C	-0.286137	1.000455	-0.015196
C130	C	0.213863	1.500455	0.484804
C131	C	-0.235118	1.000455	-0.015198
C132	C	0.264882	1.500455	0.484802
C133	C	-0.209613	1.000456	-0.059385
C134	C	0.290387	1.500456	0.440615
C135	C	0.183218	1.000508	-0.015215
C136	C	0.683218	1.500508	0.484785
C137	C	0.234233	1.000525	-0.015219
C138	C	0.734233	1.500525	0.484781
C139	C	0.234217	1.000541	-0.103584
C140	C	0.734217	1.500541	0.396416
C141	C	0.183203	1.000531	-0.103580
C142	C	0.683203	1.500531	0.396420
C143	C	0.157706	1.000510	-0.059392
C144	C	0.657706	1.500510	0.440608
O145	O	0.102479	1.000558	-0.141117
O146	O	0.602479	1.500558	0.358883
O147	O	0.102487	1.000458	0.022357
O148	O	0.602487	1.500458	0.522357
C149	C	0.634041	1.000469	-0.059382
C150	C	1.134041	1.500469	0.440618
C151	C	0.688344	1.000459	-0.059380
C152	C	1.188344	1.500459	0.440620
C153	C	0.474037	1.000463	0.100595
C154	C	0.974037	1.500463	0.600595
C155	C	0.474036	1.000451	0.154892
C156	C	0.974036	1.500451	0.654892
C157	C	0.456218	1.300609	-0.077210
C158	C	0.956218	1.800609	0.422790
C159	C	0.450170	1.402463	-0.083259
C160	C	0.950170	1.902463	0.416741
C161	C	0.435830	1.117723	0.515901
C162	C	0.935830	1.617723	1.015901
C163	C	0.435830	1.117731	0.566923
C164	C	0.935830	1.617731	1.066923
O165	O	0.403357	1.217408	0.613959
O166	O	0.903357	1.717408	1.113959
N167	N	0.474033	1.000528	0.568161
N168	N	0.974033	1.500528	1.068161
C169	C	0.512242	0.883311	0.518373
C170	C	1.012242	1.383311	1.018373
O171	O	0.544737	0.783621	0.524111
O172	O	1.044737	1.283621	1.024111
C173	C	0.512245	0.883305	0.467353
C174	C	1.012245	1.383305	0.967353
C175	C	0.474035	1.000515	0.466119
C176	C	0.974035	1.500515	0.966119
C177	C	0.397624	1.234924	0.514665
C178	C	0.897624	1.734924	1.014665
C179	C	0.397622	1.234917	0.463647
C180	C	0.897622	1.734917	0.963647
C181	C	0.435828	1.117708	0.413864
C182	C	0.935828	1.617708	0.913864
C183	C	0.474034	1.000508	0.415100
C184	C	0.974034	1.500508	0.915100
C185	C	0.550457	0.766089	0.417566
C186	C	1.050457	1.266089	0.917566
C187	C	0.550457	0.766093	0.366544
C188	C	1.050457	1.266093	0.866544
C189	C	0.512247	0.883303	0.365310
C190	C	1.012247	1.383303	0.865310
C191	C	0.512238	0.883292	0.314299
C192	C	1.012238	1.383292	0.814299
N193	N	0.474035	1.000494	0.313061
N194	N	0.974035	1.500494	0.813061
C195	C	0.435830	1.117702	0.362844
C196	C	0.935830	1.617702	0.862844
C197	C	0.512234	0.883332	0.625522
C198	C	1.012234	1.383332	1.125522
C199	C	0.512229	0.883336	0.676541
C200	C	1.012229	1.383336	1.176541
C201	C	0.435817	1.117757	0.725088
C202	C	0.935817	1.617757	1.225088
C203	C	0.435820	1.117751	0.674067
C204	C	0.935820	1.617751	1.174067
C205	C	0.474032	1.000534	0.624284
C206	C	0.974032	1.500534	1.124284
C207	C	0.435830	1.117678	0.255699
C208	C	0.935830	1.617678	0.755699
C209	C	0.435831	1.117659	0.204674
C210	C	0.935831	1.617659	0.704674
C211	C	0.512244	0.883240	0.156133
C212	C	1.012244	1.383240	0.656133
C213	C	0.512242	0.883257	0.207153
C214	C	1.012242	1.383257	0.707153
C215	C	0.474033	1.000486	0.256937
C216	C	0.974033	1.500486	0.756937
O217	O	0.544696	0.783665	0.267241
O218	O	1.044696	1.283665	0.767241
O219	O	0.403347	1.217375	0.357096
O220	O	0.903347	1.717375	0.857096
C221	C	0.474038	1.000533	0.780626
C222	C	0.974038	1.500533	1.280626
C223	C	0.474026	1.000545	0.726328
C224	C	0.974026	1.500545	1.226328
C225	C	0.651863	0.700359	-0.041562
C226	C	1.151863	1.200359	0.458438
C227	C	0.712214	0.598494	-0.035511
C228	C	1.212214	1.098494	0.464489
C229	C	0.491865	0.700423	-0.201554
C230	C	0.991865	1.200423	0.298446
C231	C	0.497914	0.598580	-0.249803
C232	C	0.997914	1.098580	0.250197
C233	C	0.651866	0.700394	-0.201546
C234	C	1.151866	1.200394	0.298454
C235	C	0.712219	0.598541	-0.249793
C236	C	1.212219	1.098541	0.250207
C237	C	0.296214	1.300603	0.082766
C238	C	0.796214	1.800603	0.582766
C239	C	0.235861	1.402455	0.131013
C240	C	0.735861	1.902455	0.631013
C241	C	0.296217	1.300638	-0.077218
C242	C	0.796217	1.800638	0.422782
C243	C	0.235866	1.402502	-0.083269
C244	C	0.735866	1.902502	0.416731
C245	C	0.456215	1.300573	0.082774
C246	C	0.956215	1.800573	0.582774
C247	C	0.450166	1.402416	0.131023
C248	C	0.950166	1.902416	0.631023
C249	C	0.709312	0.550656	-0.001426
C250	C	1.209312	1.050656	0.498574
C251	C	0.766013	0.454957	0.004271
C252	C	1.266013	0.954957	0.504271
C253	C	0.825616	0.407090	-0.024122
C254	C	1.325616	0.907090	0.475878
C255	C	0.828517	0.454938	-0.058209
C256	C	1.328517	0.954938	0.441791
C257	C	0.771816	0.550642	-0.063902
C258	C	1.271816	1.050642	0.436098
C259	C	0.531999	0.550755	-0.303705
C260	C	1.031999	1.050755	0.196295
C261	C	0.537680	0.455076	-0.349046
C262	C	1.037680	0.955076	0.150954
C263	C	0.509280	0.407218	-0.340483
C264	C	1.009280	0.907218	0.159517
C265	C	0.475191	0.455053	-0.286576
C266	C	0.975191	0.955053	0.213424
C267	C	0.469506	0.550736	-0.241236
C268	C	0.969506	1.050736	0.258764
C269	C	0.771809	0.550697	-0.241208
C270	C	1.271809	1.050697	0.258792
C271	C	0.828521	0.455009	-0.286537
C272	C	1.328521	0.955009	0.213463
C273	C	0.825641	0.407160	-0.340450
C274	C	1.325641	0.907160	0.159550
C275	C	0.766044	0.455013	-0.349033
C276	C	1.266044	0.955013	0.150967
C277	C	0.709333	0.550706	-0.303706
C278	C	1.209333	1.050706	0.196294
C279	C	0.176270	1.450311	0.122428
C280	C	0.676270	1.950311	0.622428
C281	C	0.119557	1.546029	0.167755
C282	C	0.619557	2.046029	0.667755
C283	C	0.122436	1.593883	0.221667
C284	C	0.622436	2.093883	0.721667
C285	C	0.182033	1.546024	0.230251
C286	C	0.682033	2.046024	0.730251
C287	C	0.238745	1.450314	0.184924
C288	C	0.738745	1.950314	0.684924
C289	C	0.238767	1.450350	-0.117349
C290	C	0.738767	1.950350	0.382651
C291	C	0.182065	1.546076	-0.123033
C292	C	0.682065	2.046076	0.376967
C293	C	0.122462	1.593946	-0.094639
C294	C	0.622462	2.093946	0.405361
C295	C	0.119561	1.546094	-0.060554
C296	C	0.619561	2.046094	0.439446
C297	C	0.176263	1.450376	-0.054868
C298	C	0.676263	1.950376	0.445132
C299	C	0.478574	1.450244	0.122443
C300	C	0.978574	1.950244	0.622443
C301	C	0.472902	1.545924	0.167774
C302	C	0.972902	2.045924	0.667774
C303	C	0.438818	1.593780	0.221684
C304	C	0.938818	2.093780	0.721684
C305	C	0.410409	1.545943	0.230264
C306	C	0.910409	2.045943	0.730264
C307	C	0.416085	1.450258	0.184934
C308	C	0.916085	1.950258	0.684934
H309	H	0.504900	0.408804	-0.028525
H310	H	1.004900	0.908804	0.471475
F311	F	0.552902	0.758510	0.208467
F312	F	1.052902	1.258510	0.708467
H313	H	0.452069	0.416072	-0.279611
H314	H	0.952069	0.916072	0.220389
F315	F	-0.207972	1.000454	0.031829
F316	F	0.292028	1.500454	0.531829
F317	F	0.056136	1.596943	0.158607
F318	F	0.556136	2.096943	0.658607
F319	F	0.891942	0.404093	-0.277390
F320	F	1.391942	0.904093	0.222610
F321	F	0.503138	1.596824	0.158631
F322	F	1.003138	2.096824	0.658631
H323	H	0.871823	0.329240	-0.377354
H324	H	1.371823	0.829240	0.122646
H325	H	0.763709	0.416040	-0.392935
H326	H	1.263709	0.916040	0.107065
F327	F	0.302165	1.399385	0.194070
F328	F	0.802165	1.899385	0.694070
H329	H	0.382658	1.584922	0.274164
H330	H	0.882658	2.084922	0.774164
H331	H	0.162464	1.000489	0.020766
H332	H	0.662464	1.500489	0.520766
H333	H	0.255001	1.000530	0.020764
H334	H	0.755001	1.500530	0.520764
H335	H	0.287294	1.411382	-0.140476
H336	H	0.787294	1.911382	0.359524
F337	F	0.891957	0.403978	-0.088425
F338	F	1.391957	0.903978	0.411575
F339	F	0.185165	1.596982	-0.159313
F340	F	0.685165	2.096982	0.340687
F341	F	0.432781	1.695619	0.269924
F342	F	0.932781	2.195619	0.769924
F343	F	0.514852	1.399329	0.065071
F344	F	1.014852	1.899329	0.565071
F345	F	0.385841	1.399376	0.194074
F346	F	0.885841	1.899376	0.694074
F347	F	0.395165	1.242446	0.308677
F348	F	0.895165	1.742446	0.808677
F349	F	0.261365	1.000558	-0.150603
F350	F	0.761365	1.500558	0.349397
H351	H	-0.072206	1.000445	0.064952
H352	H	0.427794	1.500445	0.564952
H353	H	0.076296	1.671885	-0.099274
H354	H	0.576296	2.171885	0.400726
H355	H	0.525648	0.559476	-0.007779
H356	H	1.025648	1.059476	0.492221
F357	F	0.645915	0.601609	-0.312850
F358	F	1.145915	1.101609	0.187150
F359	F	0.056121	1.597051	-0.030339
F360	F	0.556121	2.097051	0.469661
H361	H	0.774188	0.589579	-0.091661
H362	H	1.274188	1.089579	0.408339
H363	H	0.173914	1.411353	0.078534
H364	H	0.673914	1.911353	0.578534
F365	F	0.515336	0.305381	-0.388743
F366	F	1.015336	0.805381	0.111257
F367	F	0.552887	0.758585	0.677848
F368	F	1.052887	1.258585	1.177848
H369	H	0.404706	1.213194	0.673068
H370	H	0.904706	1.713194	1.173068
F371	F	-0.207994	1.000483	-0.150594
F372	F	0.292006	1.500483	0.349406
F373	F	0.645884	0.601585	0.028799
F374	F	1.145884	1.101585	0.528799
H375	H	0.173891	1.411421	-0.027117
H376	H	0.673891	1.911421	0.472883
H377	H	0.443168	0.592203	-0.090255
H378	H	0.943168	1.092203	0.409745
H379	H	0.076253	1.671815	0.258570
H380	H	0.576253	2.171815	0.758570
F381	F	0.413908	0.453528	-0.119512
F382	F	0.913908	0.953528	0.380488
F383	F	0.185088	1.596964	0.287633
F384	F	0.685088	2.096964	0.787633
H385	H	-0.072220	1.000468	-0.183740
H386	H	0.427780	1.500468	0.316260
F387	F	0.026713	1.000463	0.075998
F388	F	0.526713	1.500463	0.575998
H389	H	0.555127	0.589710	-0.310688
H390	H	1.055127	1.089710	0.189312
F391	F	-0.313304	1.000501	-0.150583
F392	F	0.186696	1.500501	0.349417
F393	F	0.026708	1.000466	-0.194792
F394	F	0.526708	1.500466	0.305208
F395	F	-0.313287	1.000439	0.031826
F396	F	0.186713	1.500439	0.531826
H397	H	0.162426	1.000549	-0.139555
H398	H	0.662426	1.500549	0.360445
F399	F	0.433230	0.601620	-0.183870
F400	F	0.933230	1.101620	0.316130
F401	F	0.356946	1.359669	0.462341
F402	F	0.856946	1.859669	0.962341
F403	F	0.395157	1.242416	0.203366
F404	F	0.895157	1.742416	0.703366
H405	H	0.366512	1.330375	0.555196
H406	H	0.866512	1.830375	1.055196
H407	H	0.871781	0.329161	-0.019482
H408	H	1.371781	0.829161	0.480518
F409	F	0.395158	1.242501	0.778079
F410	F	0.895158	1.742501	1.278079
H411	H	0.543349	0.787874	0.584987
H412	H	1.043349	1.287874	1.084987
F413	F	0.591126	0.641335	0.418866
F414	F	1.091126	1.141335	0.918866
H415	H	0.543348	0.787812	0.115591
H416	H	1.043348	1.287812	0.615591
F417	F	0.591133	0.641331	0.313562
F418	F	1.091133	1.141331	0.813562
H419	H	0.763639	0.416011	0.032027
H420	H	1.263639	0.916011	0.532027
F421	F	0.573965	0.404181	-0.406414
F422	F	1.073965	0.904181	0.093586
F423	F	0.774888	0.601611	-0.183835
F424	F	1.274888	1.101611	0.316165
