data_functionalizedCrystal
_audit_creation_method	'MofGen! by Chris Wilmer'
_symmetry_space_group_name_H-M	'P1'
_symmetry_Int_Tables_number	1
_symmetry_cell_setting	triclinic
loop_
_symmetry_equiv_pos_as_xyz
  x,y,z
_cell_length_a	19.188905
_cell_length_b	19.188930
_cell_length_c	8.140239
_cell_angle_alpha	89.991371
_cell_angle_beta	89.990158
_cell_angle_gamma	83.139668
loop_
_atom_site_label
_atom_site_type_symbol
_atom_site_fract_x
_atom_site_fract_y
_atom_site_fract_z
O1	O	0.926154	0.087083	-0.136902
O2	O	0.722841	0.098836	-0.136849
O3	O	0.830365	-0.008697	-0.136845
O4	O	0.818630	0.194616	-0.136906
O5	O	0.830359	-0.008698	0.136382
O6	O	0.722835	0.098835	0.136378
O7	O	0.926148	0.087082	0.136325
Zn8	Zn	0.824491	0.092958	0.179732
Zn9	Zn	0.824498	0.092960	-0.180256
O10	O	0.818624	0.194615	0.136321
C11	C	0.696826	0.098458	-0.000228
C12	C	0.619321	0.097324	-0.000206
C13	C	0.582932	0.096780	-0.149146
C14	C	0.510109	0.095707	-0.149166
C15	C	0.473678	0.095164	-0.000238
C16	C	0.510075	0.095712	0.148722
C17	C	0.582896	0.096792	0.148738
N18	N	0.364656	0.053735	0.110608
N19	N	0.295479	0.052707	0.110583
C20	C	0.254272	0.091911	-0.000276
N21	N	0.284856	0.132173	-0.111134
N22	N	0.354040	0.133197	-0.111114
C23	C	0.394716	0.093993	-0.000238
C24	C	0.138919	0.090205	-0.149249
C25	C	0.066094	0.089136	-0.149263
C26	C	0.066062	0.089134	0.148630
C27	C	0.138886	0.090210	0.148640
C28	C	0.175310	0.090742	-0.000304
C29	C	0.829982	-0.034708	-0.000227
C30	C	0.828841	-0.112213	-0.000212
C31	C	0.891933	-0.157142	-0.000221
C32	C	0.890861	-0.229966	-0.000247
C33	C	0.826694	-0.257857	-0.000231
C34	C	0.763594	-0.212917	-0.000232
C35	C	0.764668	-0.140095	-0.000222
N36	N	0.777644	-0.365858	0.092766
N37	N	0.776629	-0.435036	0.092760
C38	C	0.823456	-0.477265	-0.000264
N39	N	0.871347	-0.447703	-0.093262
N40	N	0.872365	-0.378519	-0.093249
C41	C	0.825523	-0.336819	-0.000243
C42	C	0.885390	-0.601159	-0.000303
C43	C	0.884315	-0.673984	-0.000339
C44	C	0.757047	-0.656933	-0.000307
C45	C	0.758123	-0.584110	-0.000288
C46	C	0.822296	-0.556228	-0.000278
C47	C	0.952163	0.087460	-0.000300
C48	C	1.029668	0.088594	-0.000333
C49	C	0.819007	0.220626	-0.000301
C50	C	0.820148	0.298131	-0.000326
N51	N	0.824490	0.092957	0.425415
N52	N	0.824504	0.092956	-0.425939
H53	H	0.480475	0.095265	-0.270455
H54	H	0.935694	-0.710565	-0.000356
C55	C	0.698892	-0.760990	-0.000309
C56	C	0.686512	-0.687582	-0.000295
H57	H	0.655344	-0.779911	-0.000298
H58	H	0.724859	-0.776412	-0.095591
H59	H	0.724858	-0.776429	0.094971
H60	H	0.660550	-0.672143	-0.095582
H61	H	0.660533	-0.672154	0.094996
H62	H	0.168577	0.090645	-0.270528
C63	C	0.638762	-0.130558	-0.000191
C64	C	0.695312	-0.090703	-0.000196
H65	H	0.595945	-0.100063	-0.000162
H66	H	0.640991	-0.159303	-0.095475
H67	H	0.640992	-0.159329	0.095087
H68	H	0.693084	-0.061936	-0.095481
H69	H	0.693082	-0.061947	0.095097
H70	H	0.706747	-0.547527	-0.000271
H71	H	0.711349	-0.235631	-0.000223
C72	C	0.575643	0.096670	-0.443599
C73	C	0.622968	0.097372	-0.312864
H74	H	0.600362	0.097040	-0.544669
H75	H	0.552698	0.055544	-0.437393
H76	H	0.541781	0.136957	-0.437410
H77	H	0.656828	0.057081	-0.319046
H78	H	0.645924	0.138502	-0.319073
H79	H	0.480409	0.095271	0.269981
C80	C	0.073446	0.089226	-0.443711
C81	C	0.026093	0.088535	-0.312992
H82	H	0.048750	0.088850	-0.544789
H83	H	0.096392	0.130351	-0.437535
H84	H	0.107306	0.048937	-0.437471
H85	H	-0.007764	0.128827	-0.319225
H86	H	0.003135	0.047406	-0.319170
H87	H	0.168514	0.090648	0.269923
C88	C	0.613332	0.037113	0.402658
C89	C	0.622901	0.097382	0.312464
H90	H	0.638034	0.037476	0.503731
H91	H	0.564754	0.036402	0.423963
H92	H	0.630729	-0.003411	0.341455
H93	H	0.605499	0.137907	0.373662
H94	H	0.671489	0.098100	0.291163
H95	H	0.944187	-0.134445	-0.000219
H96	H	0.036401	0.088696	0.269891
H97	H	0.942239	-0.266555	-0.000261
C98	C	1.011080	-0.625324	-0.000376
C99	C	0.955927	-0.570504	-0.000332
H100	H	1.054626	-0.606399	-0.000409
H101	H	1.008019	-0.653380	0.094897
H102	H	1.008006	-0.653365	-0.095665
H103	H	0.958999	-0.542467	0.094963
H104	H	0.958990	-0.542437	-0.095615
