data_functionalizedCrystal
_audit_creation_method	'MofGen! by Chris Wilmer'
_symmetry_space_group_name_H-M	'P1'
_symmetry_Int_Tables_number	1
_symmetry_cell_setting	triclinic
loop_
_symmetry_equiv_pos_as_xyz
  x,y,z
_cell_length_a	10.654551
_cell_length_b	19.188933
_cell_length_c	9.730223
_cell_angle_alpha	90.001390
_cell_angle_beta	89.997199
_cell_angle_gamma	83.815465
loop_
_atom_site_label
_atom_site_type_symbol
_atom_site_fract_x
_atom_site_fract_y
_atom_site_fract_z
O1	O	0.156783	0.927168	0.114236
O2	O	0.177886	0.723995	0.114247
O3	O	-0.015504	0.830253	0.114242
O4	O	0.350172	0.820911	0.114241
O5	O	-0.015493	0.830246	-0.114338
O6	O	0.177897	0.723989	-0.114333
O7	O	0.156794	0.927162	-0.114344
Zn8	Zn	0.167347	0.825574	-0.150630
Zn9	Zn	0.167333	0.825583	0.150534
O10	O	0.350183	0.820904	-0.114339
C11	C	0.177207	0.697977	-0.000041
C12	C	0.175155	0.620459	-0.000036
C13	C	0.160499	0.067111	0.124548
C14	C	0.162420	0.139948	0.124553
C15	C	0.163392	0.176368	-0.000045
C16	C	0.162411	0.139946	-0.124658
C17	C	0.160477	0.067112	-0.124660
N18	N	0.237892	0.285872	-0.092790
N19	N	0.239732	0.355062	-0.092780
C20	C	0.169216	0.395814	-0.000048
N21	N	0.096807	0.364762	0.092695
N22	N	0.094972	0.295566	0.092689
C23	C	0.165488	0.255345	-0.000057
C24	C	0.172271	0.511205	0.124563
C25	C	0.174185	0.584044	0.124564
C26	C	0.174188	0.584040	-0.124652
C27	C	0.172262	0.511204	-0.124648
C28	C	0.171310	0.474790	-0.000037
C29	C	-0.062282	0.829563	-0.000045
C30	C	-0.201681	0.827511	-0.000035
C31	C	-0.267179	0.826552	0.124561
C32	C	-0.398158	0.824617	0.124555
C33	C	-0.398132	0.824604	-0.124656
C34	C	-0.267154	0.826533	-0.124648
C35	C	-0.267196	0.826562	0.268441
C36	C	-0.398175	0.824627	0.268435
C37	C	0.396961	0.821594	-0.000049
C38	C	0.536361	0.823646	-0.000049
C39	C	0.157472	0.953180	-0.000053
C40	C	0.159525	1.030698	-0.000049
N41	N	0.167356	0.825573	-0.356167
C42	C	0.243327	0.868283	-0.428109
C43	C	0.243303	0.868294	-0.571992
C44	C	0.091334	0.782877	-0.571978
C45	C	0.091352	0.782871	-0.428098
C46	C	0.331070	0.917596	-0.428118
C47	C	0.331046	0.917606	-0.572001
N48	N	0.167314	0.825590	0.356070
H49	H	0.159718	0.037468	0.226016
N50	N	-0.433911	0.760748	0.324450
N51	N	-0.351145	0.714528	0.366406
H52	H	-0.376383	0.669413	0.405963
H53	H	-0.445490	0.872877	0.323675
N54	N	0.279730	0.983423	-0.628280
N55	N	0.345810	1.017118	-0.704542
H56	H	0.309402	1.063541	-0.744409
H57	H	0.163220	0.169601	0.226018
H58	H	0.174968	0.613691	0.226029
H59	H	0.174975	0.613693	-0.226102
H60	H	0.163200	0.169604	-0.226107
N61	N	0.171299	0.474016	-0.251938
N62	N	0.260019	0.476148	-0.335367
H63	H	0.259338	0.449886	-0.425274
N64	N	-0.200248	0.827519	-0.251919
N65	N	-0.139004	0.877720	-0.279733
H66	H	-0.091751	0.878417	-0.369623
N67	N	0.013725	0.739257	-0.645479
N68	N	0.062957	0.693341	-0.725790
H69	H	0.008146	0.662531	-0.777700
N70	N	-0.207827	0.766048	0.337751
N71	N	-0.142056	0.773068	0.442197
H72	H	-0.100123	0.730331	0.491147
H73	H	-0.451455	0.823806	-0.226110
H74	H	0.159689	0.037465	-0.226125
H75	H	0.171492	0.481556	0.226029
N76	N	-0.231423	0.890433	0.324450
N77	N	-0.117408	0.900028	0.331454
H78	H	-0.092139	0.945137	0.371007
N79	N	0.013738	0.739241	-0.354631
N80	N	-0.054104	0.701115	-0.418876
H81	H	-0.108918	0.670297	-0.366991
N82	N	0.290876	0.986670	-0.379124
N83	N	0.262533	1.035341	-0.462597
H84	H	0.234136	1.084123	-0.427997
H85	H	0.426103	0.895621	-0.383513
N86	N	0.455740	0.896036	-0.621008
N87	N	0.543609	0.880825	-0.537544
H88	H	0.631672	0.865590	-0.572153
