data_functionalizedCrystal
_audit_creation_method	'MofGen! by Chris Wilmer'
_symmetry_space_group_name_H-M	'P1'
_symmetry_Int_Tables_number	1
_symmetry_cell_setting	triclinic
loop_
_symmetry_equiv_pos_as_xyz
  x,y,z
_cell_length_a	16.120490
_cell_length_b	16.120444
_cell_length_c	15.298259
_cell_angle_alpha	82.663646
_cell_angle_beta	96.301063
_cell_angle_gamma	90.165174
loop_
_atom_site_label
_atom_site_type_symbol
_atom_site_fract_x
_atom_site_fract_y
_atom_site_fract_z
Zn1	Zn	1.165128	-0.296701	-0.590199
Zn2	Zn	1.665128	0.203299	-0.090199
Zn3	Zn	1.179337	-0.459433	-0.449037
Zn4	Zn	1.679337	0.040567	0.050963
Zn5	Zn	1.049700	-0.315841	-0.434078
Zn6	Zn	1.549700	0.184159	0.065922
Zn7	Zn	1.019100	-0.428781	-0.589392
Zn8	Zn	1.519100	0.071219	-0.089392
O9	O	1.103316	-0.375189	-0.515676
O10	O	1.603316	0.124811	-0.015676
O11	O	1.282380	-0.323105	-0.578071
O12	O	1.782380	0.176895	-0.078071
O13	O	1.180893	-0.461224	-0.322976
O14	O	1.680893	0.038776	0.177024
O15	O	1.071872	-0.197932	-0.448865
O16	O	1.571872	0.302068	0.051135
O17	O	1.292819	-0.442664	-0.474360
O18	O	1.792819	0.057336	0.025640
O19	O	1.156676	-0.183870	-0.563566
O20	O	1.656676	0.316130	-0.063566
O21	O	1.085649	-0.355728	-0.311986
O22	O	1.585649	0.144272	0.188014
O23	O	0.930274	-0.326006	-0.448083
O24	O	1.430274	0.173994	0.051917
O25	O	1.019718	-0.390422	-0.713576
O26	O	1.519718	0.109578	-0.213576
O27	O	0.907792	-0.408982	-0.562192
O28	O	1.407792	0.091018	-0.062192
O29	O	1.127004	-0.293383	-0.714168
O30	O	1.627004	0.206617	-0.214168
O31	O	1.151221	-0.570737	-0.473578
O32	O	1.651221	-0.070737	0.026422
O33	O	1.033496	-0.548217	-0.576697
O34	O	1.533496	-0.048217	-0.076697
C35	C	0.889120	-0.366245	-0.503427
C36	C	1.389120	0.133755	-0.003427
C37	C	0.797481	-0.362435	-0.498209
C38	C	1.297481	0.137565	0.001791
C39	C	1.090599	-0.589389	-0.526694
C40	C	1.590599	-0.089389	-0.026694
C41	C	1.085230	-0.681023	-0.531441
C42	C	1.585230	-0.181023	-0.031441
C43	C	0.577769	-0.394945	-0.542745
C44	C	1.077769	0.105055	-0.042745
C45	C	0.629700	-0.355487	-0.488682
C46	C	1.129700	0.144513	0.011318
C47	C	0.723062	-0.359354	-0.493984
C48	C	1.223062	0.140646	0.006016
C49	C	0.484398	-0.391079	-0.537443
C50	C	0.984398	0.108921	-0.037443
C51	C	1.131343	-0.900738	-0.491252
C52	C	1.631343	-0.400738	0.008748
C53	C	1.075440	-0.848794	-0.540118
C54	C	1.575440	-0.348794	-0.040118
C55	C	1.080889	-0.755438	-0.535289
C56	C	1.580889	-0.255438	-0.035289
C57	C	1.125896	-0.994103	-0.496081
C58	C	1.625896	-0.494103	0.003919
C59	C	1.318349	-0.384168	-0.527974
C60	C	1.818349	0.115832	-0.027974
C61	C	1.409983	-0.387995	-0.533214
C62	C	1.909983	0.112005	-0.033214
C63	C	1.068363	-0.336348	-0.746943
C64	C	1.568363	0.163652	-0.246943
C65	C	1.053468	-0.319796	-0.845495
C66	C	1.553468	0.180204	-0.345495
C67	C	1.116102	-0.160150	-0.504637
C68	C	1.616102	0.339850	-0.004637
C69	C	1.121551	-0.068514	-0.499932
C70	C	1.621551	0.431486	0.000068
C71	C	1.209837	-0.492853	-1.146178
C72	C	1.709837	0.007147	-0.646178
C73	C	1.223827	-0.508409	-1.053583
C74	C	1.723827	-0.008409	-0.553583
C75	C	1.181239	-0.461257	-1.001557
C76	C	1.681239	0.038743	-0.501557
C77	C	1.124658	-0.398547	-1.042134
C78	C	1.624658	0.101453	-0.542134
C79	C	1.110661	-0.382993	-1.134737
C80	C	1.610661	0.117007	-0.634737
C81	C	1.082063	-0.351397	-0.990116
C82	C	1.582063	0.148603	-0.490116
C83	C	1.025482	-0.288687	-1.030693
C84	C	1.525482	0.211313	-0.530693
C85	C	1.011488	-0.273136	-1.123288
C86	C	1.511488	0.226864	-0.623288
C87	C	1.054077	-0.320288	-1.175314
C88	C	1.554077	0.179712	-0.675314
C89	C	1.096059	-0.366951	-0.897513
C90	C	1.596059	0.133049	-0.397513
C91	C	0.996883	-0.257091	-0.886072
C92	C	1.496883	0.242909	-0.386072
C93	C	0.982893	-0.241535	-0.978667
C94	C	1.482893	0.258465	-0.478667
C95	C	1.138184	-0.413822	-0.285309
C96	C	1.638184	0.086178	0.214691
C97	C	1.153253	-0.430148	-0.186755
C98	C	1.653253	0.069852	0.313245
H99	H	0.604042	-0.318802	-0.438414
H100	H	1.104042	0.181198	0.061586
Cl101	Cl	0.617381	-0.451592	-0.620340
Cl102	Cl	1.117381	0.048408	-0.120340
Cl103	Cl	0.995226	-0.888380	-0.610306
Cl104	Cl	1.495226	-0.388380	-0.110306
Cl105	Cl	1.211547	-0.861151	-0.421063
Cl106	Cl	1.711547	-0.361151	0.078937
H107	H	1.142134	-0.418006	-0.864484
H108	H	1.642134	0.081994	-0.364484
Cl109	Cl	1.036494	-0.300732	-1.291724
Cl110	Cl	1.536494	0.199268	-0.791724
Cl111	Cl	1.198832	-0.480811	-0.885151
Cl112	Cl	1.698832	0.019189	-0.385151
H113	H	1.269888	-0.559476	-1.020552
H114	H	1.769888	-0.059476	-0.520552
H115	H	0.962203	-0.218696	-0.843712
H116	H	1.462203	0.281304	-0.343712
H117	H	0.936824	-0.190475	-1.011718
H118	H	1.436824	0.309525	-0.511718
Cl119	Cl	0.940322	-0.194331	-1.174297
Cl120	Cl	1.440322	0.305669	-0.674297
H121	H	1.244500	-0.531243	-1.188546
H122	H	1.744500	-0.031243	-0.688546
