data_functionalizedCrystal
_audit_creation_method	'MofGen! by Chris Wilmer'
_symmetry_space_group_name_H-M	'P1'
_symmetry_Int_Tables_number	1
_symmetry_cell_setting	triclinic
loop_
_symmetry_equiv_pos_as_xyz
  x,y,z
_cell_length_a	12.759401
_cell_length_b	12.827892
_cell_length_c	12.759393
_cell_angle_alpha	89.970218
_cell_angle_beta	89.979062
_cell_angle_gamma	90.016917
loop_
_atom_site_label
_atom_site_type_symbol
_atom_site_fract_x
_atom_site_fract_y
_atom_site_fract_z
Zn1	Zn	1.606261	-0.415940	-0.594025
Zn2	Zn	1.606150	-0.590717	-0.418348
Zn3	Zn	1.430560	-0.415996	-0.418361
Zn4	Zn	1.430550	-0.590644	-0.593985
O5	O	1.518380	-0.503324	-0.506180
O6	O	1.753268	-0.439132	-0.570733
O7	O	1.582816	-0.567594	-0.271328
O8	O	1.453918	-0.269752	-0.441685
O9	O	1.753186	-0.567540	-0.441663
O10	O	1.583005	-0.269711	-0.570745
O11	O	1.453810	-0.439227	-0.271338
O12	O	1.283538	-0.439156	-0.441646
O13	O	1.453900	-0.567416	-0.741011
O14	O	1.283530	-0.567469	-0.570676
O15	O	1.582995	-0.439061	-0.741041
O16	O	1.582806	-0.736944	-0.441624
O17	O	1.453793	-0.736890	-0.570664
C18	C	1.245413	-0.503312	-0.506159
C19	C	1.128636	-0.503331	-0.506175
C20	C	1.518315	-0.774834	-0.506161
C21	C	1.518383	-0.890987	-0.506188
C22	C	1.073798	-0.570246	-0.573255
C23	C	0.964074	-0.570250	-0.573276
C24	C	0.964036	-0.436422	-0.439127
C25	C	1.073758	-0.436413	-0.439112
C26	C	0.814177	-0.607747	-0.697137
C27	C	0.759335	-0.674678	-0.764208
C28	C	0.794932	-0.776661	-0.780157
C29	C	0.885369	-0.811735	-0.729020
C30	C	0.940205	-0.744809	-0.661941
C31	C	0.904610	-0.642811	-0.646012
C32	C	1.223657	-0.398927	-0.315250
C33	C	1.278495	-0.332006	-0.248165
C34	C	1.242901	-0.230021	-0.232205
C35	C	1.152461	-0.194951	-0.283324
C36	C	1.097622	-0.261872	-0.350409
C37	C	1.133224	-0.363856	-0.366370
C38	C	1.582298	-0.942764	-0.442406
C39	C	1.582370	-1.062814	-0.442433
C40	C	1.792414	-0.503338	-0.506201
C41	C	1.909190	-0.503344	-0.506210
C42	C	1.518459	-0.503224	-0.780213
C43	C	1.518492	-0.503181	-0.896990
C44	C	1.518475	-0.230754	-0.506221
C45	C	1.518515	-0.114601	-0.506239
C46	C	1.585717	-0.436336	-0.951869
C47	C	1.585735	-0.436291	-1.061593
C48	C	1.451301	-0.569945	-1.061549
C49	C	1.451278	-0.569984	-0.951827
C50	C	1.623348	-0.312997	-1.211570
C51	C	1.690589	-0.246161	-1.266452
C52	C	1.793102	-0.230136	-1.230861
C53	C	1.828395	-0.280963	-1.140388
C54	C	1.761160	-0.347806	-1.085511
C55	C	1.658632	-0.363811	-1.121101
C56	C	1.413676	-0.693280	-0.801849
C57	C	1.346445	-0.760130	-0.746969
C58	C	1.243930	-0.776165	-0.782559
C59	C	1.208641	-0.725357	-0.873035
C60	C	1.275872	-0.658507	-0.927914
C61	C	1.378385	-0.642470	-0.892317
C62	C	1.518363	-0.503349	-0.233212
C63	C	1.518533	-0.503097	-0.116436
H64	H	1.118476	-0.624732	-0.627864
Cl65	Cl	1.670210	-0.352352	-0.882934
Cl66	Cl	0.645651	-0.630584	-0.828497
H67	H	0.914338	-0.894784	-0.742002
H68	H	1.539872	-0.326030	-1.240552
Cl69	Cl	0.725990	-0.860797	-0.864483
H70	H	1.636970	-0.898218	-0.387783
H71	H	1.463720	-0.935536	-0.560818
Cl72	Cl	1.805518	-0.411700	-0.971782
H73	H	1.375190	-0.801510	-0.673306
H74	H	1.497149	-0.680222	-0.772857
Cl75	Cl	1.079762	-0.745516	-0.917783
H76	H	1.463788	-1.070082	-0.560844
H77	H	1.911875	-0.267917	-1.111422
Cl78	Cl	1.877631	-0.146116	-1.299860
H79	H	1.637087	-1.107341	-0.387824
Cl80	Cl	1.231506	-0.594631	-1.041656
Cl81	Cl	0.769432	-0.479527	-0.677108
H82	H	1.189195	-0.830609	-0.737871
Cl83	Cl	1.366813	-0.653927	-1.130495
H84	H	1.013836	-0.773365	-0.620305
H85	H	0.919341	-0.381941	-0.384525
Cl86	Cl	0.983920	-0.217786	-0.414669
H87	H	1.287555	-0.175538	-0.177569
Cl88	Cl	1.107702	-0.066741	-0.263253
H89	H	1.352136	-0.360569	-0.206540
H90	H	1.661844	-0.204778	-1.340116
Cl91	Cl	1.268315	-0.527197	-0.335178
