data_functionalizedCrystal
_audit_creation_method	'MofGen! by Chris Wilmer'
_symmetry_space_group_name_H-M	'P1'
_symmetry_Int_Tables_number	1
_symmetry_cell_setting	triclinic
loop_
_symmetry_equiv_pos_as_xyz
  x,y,z
_cell_length_a	19.851628
_cell_length_b	12.970454
_cell_length_c	12.970454
_cell_angle_alpha	119.999888
_cell_angle_beta	89.995511
_cell_angle_gamma	59.998287
loop_
_atom_site_label
_atom_site_type_symbol
_atom_site_fract_x
_atom_site_fract_y
_atom_site_fract_z
Zr1	Zr	0.648976	1.128405	0.135185
O2	O	0.541407	1.343516	0.299831
O3	O	0.681951	0.913308	0.084711
O4	O	0.681949	1.128400	0.299803
O5	O	0.541411	1.128423	-0.084929
O6	O	0.792811	1.128380	0.299783
O7	O	0.541409	1.128424	0.084739
O8	O	0.792815	0.743620	-0.084977
O9	O	0.541407	1.513183	0.299831
O10	O	0.778750	1.001760	0.063171
O11	O	0.696016	1.001775	-0.063435
O12	O	0.696013	1.255018	0.189808
O13	O	0.613280	1.255032	0.063203
Zr14	Zr	0.825791	1.128372	-0.135448
Zr15	Zr	0.825787	1.128373	0.135152
Zr16	Zr	0.648979	1.128404	-0.135415
Zr17	Zr	0.648976	1.399005	0.135186
Zr18	Zr	0.825791	0.857772	-0.135449
O19	O	0.792815	1.343469	-0.084974
O20	O	0.792811	1.343471	0.299784
O21	O	0.541411	1.343514	-0.084928
O22	O	0.933359	0.913261	-0.300093
O23	O	0.933355	0.913263	0.084665
O24	O	0.681956	0.913306	-0.300047
O25	O	0.933355	1.128354	0.084666
O26	O	0.792817	1.128377	-0.300066
O27	O	0.681956	1.128397	-0.300046
O28	O	0.933357	1.128353	-0.085002
O29	O	0.681949	1.513158	0.299805
O30	O	0.792817	0.743619	-0.300068
O31	O	0.933359	0.743594	-0.300094
O32	O	0.933357	0.743595	-0.085004
O33	O	0.541410	1.513182	0.084741
O34	O	0.681951	1.513157	0.084715
O35	O	0.778753	1.001759	-0.190071
O36	O	0.861486	1.001745	-0.063466
O37	O	0.778750	1.255002	0.063172
O38	O	0.696016	1.255016	-0.063433
C39	C	0.737383	0.789909	-0.000133
C40	C	0.737383	0.675032	-0.000134
C41	C	0.516219	1.128428	-0.000090
C42	C	0.441157	1.128442	-0.000076
C43	C	0.214701	1.266496	0.068929
C44	C	0.192339	1.197471	0.118960
C45	C	0.303751	1.128404	-0.000112
C46	C	0.192372	1.197438	-0.050120
C47	C	0.171019	1.128378	-0.000147
C48	C	0.282377	1.059378	0.049987
C49	C	0.282408	1.059365	-0.119158
C50	C	0.260099	0.990239	-0.069158
C51	C	0.380213	1.128423	-0.000090
C52	C	0.094561	1.128348	-0.000167
C53	C	0.958548	1.128349	-0.000173
C54	C	1.033609	1.128335	-0.000187
C55	C	0.737379	1.128390	0.338348
C56	C	0.737378	1.128390	0.453224
C57	C	0.737383	1.466868	-0.000130
C58	C	0.737383	1.581744	-0.000129
C59	C	0.737385	1.128387	0.661389
C60	C	0.737380	1.128386	0.546512
C61	C	0.958548	0.789869	-0.000174
C62	C	1.033609	0.674979	-0.000189
C63	C	0.737387	0.789908	-0.338612
C64	C	0.737388	0.675030	-0.453490
C65	C	0.958552	0.789868	-0.338653
C66	C	1.033614	0.674977	-0.453545
C67	C	0.516215	1.466909	0.338391
C68	C	0.441152	1.581800	0.453282
C69	C	0.516219	1.466907	-0.000089
C70	C	0.441157	1.581798	-0.000074
C71	C	0.737379	1.466869	0.338349
C72	C	0.737378	1.581746	0.453227
C73	C	1.025671	0.621033	0.065918
C74	C	1.096192	0.513097	0.065930
C75	C	1.174651	0.459100	-0.000174
C76	C	1.182587	0.513057	-0.066283
C77	C	1.112066	0.620999	-0.066287
C78	C	1.112058	0.621016	-0.441412
C79	C	1.182594	0.513079	-0.549354
C80	C	1.174684	0.459098	-0.669428
C81	C	1.096232	0.513070	-0.681558
C82	C	1.025698	0.621012	-0.573617
C83	C	0.362709	1.635774	0.441149
C84	C	0.292173	1.743745	0.549092
C85	C	0.300082	1.797731	0.669165
C86	C	0.378534	1.743752	0.681295
C87	C	0.449068	1.635791	0.573354
C88	C	0.449095	1.635755	-0.066170
C89	C	0.378574	1.743721	-0.066152
C90	C	0.300116	1.797721	-0.000044
C91	C	0.292179	1.743760	0.066060
C92	C	0.362700	1.635803	0.066048
H93	H	0.153528	1.255834	0.219622
N94	N	0.354123	1.577617	0.137341
H95	H	0.322961	1.532858	0.102667
H96	H	0.410723	1.501087	0.127294
N97	N	0.190278	1.421147	0.146376
H98	H	0.212704	1.438240	0.091048
H99	H	0.128139	1.491215	0.182154
H100	H	0.321072	1.001057	0.092381
H101	H	1.089805	0.469102	-0.779336
H102	H	0.242700	1.885627	-0.000045
N103	N	1.120634	0.679180	-0.137590
H104	H	1.093305	0.660399	-0.204107
H105	H	1.093310	0.787517	-0.076882
N106	N	0.533714	1.577537	-0.137460
H107	H	0.564907	1.469183	-0.203989
H108	H	0.527962	1.628223	-0.179236
N109	N	0.941092	0.679202	-0.586712
H110	H	0.946793	0.628615	-0.679160
H111	H	0.909952	0.660407	-0.544815
H112	H	0.321217	1.001052	-0.219798
H113	H	0.228289	1.787743	0.119883
N114	N	1.250760	0.342651	-0.785851
H115	H	1.250806	0.380197	-0.837815
H116	H	1.301613	0.316696	-0.759840
N117	N	1.120601	0.679213	-0.311913
H118	H	1.181002	0.628638	-0.320625
H119	H	1.093216	0.787572	-0.264236
H120	H	0.385052	1.787638	-0.119987
H121	H	1.246466	0.469146	-0.539455
H122	H	0.278706	0.873381	-0.127545
H123	H	0.356253	1.591824	0.343389
H124	H	1.246477	0.469077	-0.120102
H125	H	0.153571	1.255828	-0.092398
N126	N	0.224004	1.914158	0.785585
H127	H	0.223961	2.003735	0.837545
H128	H	0.173154	1.940026	0.759570
N129	N	0.941054	0.679256	0.137219
H130	H	0.946738	0.628695	0.179097
H131	H	0.909910	0.787616	0.203668
H132	H	0.228301	1.787676	0.539190
N133	N	0.387060	1.801974	0.810805
H134	H	0.418213	1.846757	0.820933
H135	H	0.330442	1.878492	0.877255
H136	H	1.089714	0.469179	0.119764
N137	N	0.533674	1.577575	0.586449
H138	H	0.527974	1.628162	0.678897
H139	H	0.564813	1.469221	0.544554
N140	N	1.250708	0.342679	-0.000162
H141	H	1.233767	0.316704	0.051749
H142	H	1.284626	0.253175	-0.089717
