data_functionalizedCrystal
_audit_creation_method	'MofGen! by Chris Wilmer'
_symmetry_space_group_name_H-M	'P1'
_symmetry_Int_Tables_number	1
_symmetry_cell_setting	triclinic
loop_
_symmetry_equiv_pos_as_xyz
  x,y,z
_cell_length_a	27.731994
_cell_length_b	14.519731
_cell_length_c	13.596369
_cell_angle_alpha	89.993029
_cell_angle_beta	90.000755
_cell_angle_gamma	83.154694
loop_
_atom_site_label
_atom_site_type_symbol
_atom_site_fract_x
_atom_site_fract_y
_atom_site_fract_z
O1	O	0.641473	0.109493	-0.081653
O2	O	0.974806	0.442827	0.251680
O3	O	1.308139	0.776160	0.585013
O4	O	0.500756	0.126230	-0.081686
O5	O	0.834089	0.459564	0.251647
O6	O	1.167423	0.792897	0.584980
O7	O	0.574840	-0.016441	-0.081660
O8	O	0.908173	0.316892	0.251673
O9	O	1.241507	0.650225	0.585007
O10	O	0.567389	0.252165	-0.081680
O11	O	0.900722	0.585498	0.251654
O12	O	1.234055	0.918832	0.584987
O13	O	0.574832	-0.016449	0.081923
O14	O	0.908166	0.316884	0.415256
O15	O	1.241499	0.650218	0.748589
O16	O	0.500749	0.126223	0.081896
O17	O	0.834082	0.459556	0.415230
O18	O	1.167415	0.792890	0.748563
O19	O	0.641465	0.109486	0.081929
O20	O	0.974799	0.442819	0.415263
O21	O	1.308132	0.776153	0.748596
Zn22	Zn	0.571106	0.117853	0.107885
Zn23	Zn	0.904439	0.451187	0.441219
Zn24	Zn	1.237772	0.784520	0.774552
Zn25	Zn	0.571115	0.117863	-0.107642
Zn26	Zn	0.904449	0.451196	0.225691
Zn27	Zn	1.237782	0.784530	0.559024
O28	O	0.567381	0.252158	0.081903
O29	O	0.900715	0.585491	0.415236
O30	O	1.234048	0.918824	0.748570
C31	C	0.482743	0.125883	0.000101
C32	C	0.816077	0.459216	0.333434
C33	C	1.149410	0.792550	0.666768
C34	C	0.429082	0.124848	0.000089
C35	C	0.762415	0.458182	0.333422
C36	C	1.095749	0.791515	0.666755
C37	C	0.574487	-0.050798	0.000131
C38	C	0.907820	0.282535	0.333465
C39	C	1.241154	0.615868	0.666798
C40	C	0.573441	-0.153160	0.000132
C41	C	0.906774	0.180173	0.333465
C42	C	1.240107	0.513507	0.666798
C43	C	0.572591	-0.236289	0.000129
C44	C	0.905924	0.097044	0.333463
C45	C	1.239257	0.430378	0.666796
C46	C	0.571529	-0.340579	0.000122
C47	C	0.904862	-0.007246	0.333455
C48	C	1.238195	0.326088	0.666788
C49	C	0.570686	-0.423703	0.000115
C50	C	0.904019	-0.090370	0.333448
C51	C	1.237352	0.242964	0.666782
C52	C	0.569623	-0.528000	0.000109
C53	C	0.902957	-0.194666	0.333442
C54	C	1.236290	0.138667	0.666776
C55	C	0.096328	0.118328	0.089296
C56	C	0.429661	0.451661	0.422629
C57	C	0.762995	0.784994	0.755963
C58	C	-0.105349	0.114395	0.089307
C59	C	0.227984	0.447728	0.422641
C60	C	0.561318	0.781061	0.755974
O61	O	-0.131428	0.113843	0.165142
O62	O	0.201906	0.447176	0.498476
O63	O	0.535239	0.780510	0.831809
N64	N	-0.130562	0.113910	0.000139
N65	N	0.202771	0.447244	0.333472
N66	N	0.536104	0.780577	0.666805
C67	C	-0.105353	0.114403	-0.089040
C68	C	0.227981	0.447736	0.244294
C69	C	0.561314	0.781070	0.577627
O70	O	-0.131425	0.113891	-0.164883
O71	O	0.201908	0.447225	0.168450
O72	O	0.535242	0.780558	0.501784
C73	C	0.096324	0.118330	-0.089050
C74	C	0.429657	0.451663	0.244283
C75	C	0.762991	0.784996	0.577617
C76	C	0.121534	0.118823	0.000125
C77	C	0.454867	0.452157	0.333458
C78	C	0.788201	0.785490	0.666791
C79	C	0.121538	0.118821	0.178464
C80	C	0.454871	0.452154	0.511797
C81	C	0.788205	0.785487	0.845130
C82	C	0.171954	0.119809	0.178460
C83	C	0.505287	0.453142	0.511793
C84	C	0.838621	0.786476	0.845126
C85	C	0.197160	0.120304	0.089288
C86	C	0.530493	0.453638	0.422622
C87	C	0.863827	0.786971	0.755955
C88	C	0.171950	0.119812	0.000121
C89	C	0.505283	0.453145	0.333454
C90	C	0.838617	0.786478	0.666788
C91	C	0.121533	0.118816	-0.178227
C92	C	0.454867	0.452149	0.155106
C93	C	0.788200	0.785482	0.488440
C94	C	0.171956	0.119795	-0.178222
C95	C	0.505289	0.453128	0.155112
C96	C	0.838622	0.786462	0.488445
C97	C	0.197166	0.120289	-0.089047
C98	C	0.530499	0.453622	0.244286
C99	C	0.863832	0.786956	0.577620
C100	C	0.247572	0.121295	-0.089054
C101	C	0.580905	0.454629	0.244279
C102	C	0.914238	0.787962	0.577613
N103	N	0.272785	0.121780	0.000115
N104	N	0.606118	0.455113	0.333448
N105	N	0.939452	0.788447	0.666782
C106	C	0.247579	0.121284	0.089286
C107	C	0.580912	0.454618	0.422619
C108	C	0.914246	0.787951	0.755953
C109	C	-0.211236	0.112343	-0.089028
C110	C	0.122098	0.445677	0.244306
C111	C	0.455431	0.779010	0.577639
C112	C	-0.261655	0.111363	-0.089025
C113	C	0.071678	0.444697	0.244308
C114	C	0.405012	0.778030	0.577641
C115	C	-0.261648	0.111353	0.089322
C116	C	0.071686	0.444687	0.422655
C117	C	0.405019	0.778020	0.755989
C118	C	-0.211228	0.112340	0.089319
C119	C	0.122105	0.445673	0.422652
C120	C	0.455438	0.779007	0.755985
C121	C	-0.186023	0.112828	0.000141
C122	C	0.147311	0.446161	0.333474
C123	C	0.480644	0.779495	0.666808
C124	C	0.353456	0.123361	0.089272
C125	C	0.686789	0.456694	0.422605
C126	C	1.020123	0.790027	0.755938
C127	C	0.403876	0.124353	0.089260
C128	C	0.737209	0.457686	0.422593
C129	C	1.070543	0.791019	0.755926
C130	C	0.403865	0.124358	-0.089087
C131	C	0.737198	0.457691	0.244246
C132	C	1.070532	0.791025	0.577580
C133	C	0.353449	0.123371	-0.089076
C134	C	0.686782	0.456704	0.244257
C135	C	1.020115	0.790037	0.577591
C136	C	0.328246	0.122869	0.000111
C137	C	0.661579	0.456202	0.333445
C138	C	0.994912	0.789536	0.666778
O139	O	0.273682	0.121837	-0.164849
O140	O	0.607015	0.455171	0.168484
O141	O	0.940349	0.788504	0.501818
O142	O	0.273661	0.121776	0.165118
O143	O	0.606995	0.455109	0.498452
O144	O	0.940328	0.788442	0.831785
C145	C	0.045912	0.117340	0.089300
C146	C	0.379246	0.450673	0.422633
C147	C	0.712579	0.784006	0.755966
C148	C	0.020702	0.116847	0.000132
C149	C	0.354035	0.450180	0.333466
C150	C	0.687369	0.783513	0.666799
C151	C	0.045908	0.117342	-0.089039
C152	C	0.379241	0.450676	0.244294
C153	C	0.712575	0.784009	0.577628
C154	C	-0.029717	0.115867	0.000135
C155	C	0.303616	0.449200	0.333468
C156	C	0.636950	0.782533	0.666801
C157	C	-0.054923	0.115371	0.089306
C158	C	0.278411	0.448705	0.422639
C159	C	0.611744	0.782038	0.755973
C160	C	-0.029710	0.115856	0.178475
C161	C	0.303624	0.449189	0.511808
C162	C	0.636957	0.782522	0.845141
C163	C	0.020706	0.116844	0.178471
C164	C	0.354040	0.450177	0.511804
C165	C	0.687373	0.783511	0.845138
C166	C	0.020695	0.116858	-0.178208
C167	C	0.354028	0.450191	0.155125
C168	C	0.687362	0.783525	0.488459
C169	C	-0.029721	0.115871	-0.178197
C170	C	0.303612	0.449204	0.155136
C171	C	0.636946	0.782537	0.488470
C172	C	-0.054927	0.115375	-0.089026
C173	C	0.278406	0.448708	0.244308
C174	C	0.611740	0.782042	0.577641
C175	C	0.659478	0.109833	0.000140
C176	C	0.992811	0.443167	0.333473
C177	C	1.326145	0.776500	0.666807
C178	C	0.713139	0.110868	0.000146
C179	C	1.046473	0.444201	0.333479
C180	C	1.379806	0.777535	0.666812
C181	C	0.567734	0.286515	0.000109
C182	C	0.901068	0.619848	0.333443
C183	C	1.234401	0.953181	0.666776
C184	C	0.568780	0.388876	0.000103
C185	C	0.902114	0.722210	0.333436
C186	C	1.235447	1.055543	0.666769
N187	N	0.571103	0.117846	0.254977
N188	N	0.904436	0.451179	0.588310
N189	N	1.237769	0.784513	0.921644
N190	N	0.571122	0.117863	-0.254734
N191	N	0.904456	0.451196	0.078599
N192	N	1.237789	0.784530	0.411933
C193	C	0.571115	0.117864	0.656268
C194	C	0.904448	0.451197	0.989601
C195	C	1.237781	0.784531	1.322935
C196	C	0.571110	0.117862	0.544617
C197	C	0.904443	0.451195	0.877950
C198	C	1.237777	0.784529	1.211283
C199	C	0.571109	0.117856	0.455626
C200	C	0.904442	0.451189	0.788959
C201	C	1.237776	0.784522	1.122293
C202	C	0.571104	0.117852	0.343968
C203	C	0.904437	0.451186	0.677301
C204	C	1.237770	0.784519	1.010634
H205	H	0.424400	0.124758	0.161880
H206	H	0.757733	0.458091	0.495213
H207	H	1.091066	0.791425	0.828546
H208	H	0.192476	0.120205	0.251075
H209	H	0.525809	0.453539	0.584408
H210	H	0.859143	0.786872	0.917742
N211	N	0.046440	0.117375	-0.269295
N212	N	0.379774	0.450708	0.064038
N213	N	0.713107	0.784042	0.397371
N214	N	0.070172	0.182955	-0.289207
N215	N	0.403506	0.516288	0.044126
N216	N	0.736839	0.849621	0.377459
H217	H	0.088355	0.183321	-0.353542
H218	H	0.421688	0.516654	-0.020209
H219	H	0.755021	0.849988	0.313124
N220	N	-0.287397	0.110880	-0.180124
N221	N	0.045936	0.444213	0.153209
N222	N	0.379270	0.777547	0.486542
N223	N	-0.264880	0.111323	-0.259730
N224	N	0.068454	0.444656	0.073603
N225	N	0.401787	0.777989	0.406936
H226	H	-0.283058	0.110978	-0.324073
H227	H	0.050276	0.444311	0.009260
H228	H	0.383609	0.777644	0.342594
N229	N	-0.055478	0.115374	-0.269284
N230	N	0.277855	0.448708	0.064049
N231	N	0.611189	0.782041	0.397382
N232	N	-0.088016	0.179847	-0.289197
N233	N	0.245317	0.513180	0.044136
N234	N	0.578650	0.846514	0.377470
H235	H	-0.106206	0.179490	-0.353525
H236	H	0.227127	0.512823	-0.020191
H237	H	0.560460	0.846156	0.313142
N238	N	0.327724	0.122845	0.180381
N239	N	0.661058	0.456178	0.513714
N240	N	0.994391	0.789511	0.847048
N241	N	0.350247	0.123285	0.259982
N242	N	0.683581	0.456618	0.593315
N243	N	1.016914	0.789951	0.926648
H244	H	0.332075	0.122925	0.324329
H245	H	0.665408	0.456258	0.657662
H246	H	0.998741	0.789592	0.990996
H247	H	-0.050241	0.115457	0.251081
H248	H	0.283092	0.448790	0.584415
H249	H	0.616425	0.782124	0.917748
N250	N	0.095797	0.118318	-0.269328
N251	N	0.429131	0.451651	0.064006
N252	N	0.762464	0.784984	0.397339
N253	N	0.118319	0.118756	-0.348929
N254	N	0.451652	0.452089	-0.015596
N255	N	0.784985	0.785423	0.317737
H256	H	0.100144	0.118405	-0.413276
H257	H	0.433477	0.451738	-0.079942
H258	H	0.766811	0.785071	0.253391
H259	H	0.041228	0.117246	0.251086
H260	H	0.374561	0.450579	0.584420
H261	H	0.707894	0.783913	0.917753
N262	N	0.095804	0.118308	0.269567
N263	N	0.429137	0.451642	0.602900
N264	N	0.762471	0.784975	0.936234
N265	N	0.118329	0.118745	0.349166
N266	N	0.451662	0.452079	0.682499
N267	N	0.784995	0.785412	1.015832
H268	H	0.100157	0.118389	0.413514
H269	H	0.433491	0.451722	0.746848
H270	H	0.766824	0.785056	1.080181
N271	N	0.327687	0.122883	-0.180156
N272	N	0.661021	0.456216	0.153177
N273	N	0.994354	0.789549	0.486511
N274	N	0.295148	0.187357	-0.200059
N275	N	0.628482	0.520690	0.133274
N276	N	0.961815	0.854023	0.466607
H277	H	0.276957	0.187006	-0.264387
H278	H	0.610290	0.520339	0.068947
H279	H	0.943624	0.853672	0.402280
H280	H	-0.190706	0.112743	0.161933
H281	H	0.142628	0.446076	0.495266
H282	H	0.475961	0.779410	0.828599
H283	H	-0.282179	0.110952	0.161929
H284	H	0.051154	0.444285	0.495262
H285	H	0.384488	0.777619	0.828595
N286	N	-0.185500	0.112840	-0.180136
N287	N	0.147833	0.446173	0.153197
N288	N	0.481167	0.779506	0.486531
N289	N	-0.208024	0.112408	-0.259737
N290	N	0.125310	0.445741	0.073597
N291	N	0.458643	0.779074	0.406930
H292	H	-0.189850	0.112761	-0.324084
H293	H	0.143483	0.446094	0.009250
H294	H	0.476816	0.779428	0.342583
H295	H	0.424396	0.124765	-0.161688
H296	H	0.757730	0.458099	0.171645
H297	H	1.091063	0.791432	0.504979
N298	N	0.197695	0.120286	-0.269326
N299	N	0.531028	0.453619	0.064007
N300	N	0.864361	0.786952	0.397340
N301	N	0.175176	0.119842	-0.348932
N302	N	0.508509	0.453175	-0.015598
N303	N	0.841843	0.786508	0.317735
H304	H	0.193353	0.120189	-0.413275
H305	H	0.526686	0.453522	-0.079942
H306	H	0.860019	0.786855	0.253392
