data_functionalizedCrystal
_audit_creation_method	'MofGen! by Chris Wilmer'
_symmetry_space_group_name_H-M	'P1'
_symmetry_Int_Tables_number	1
_symmetry_cell_setting	triclinic
loop_
_symmetry_equiv_pos_as_xyz
  x,y,z
_cell_length_a	10.686220
_cell_length_b	10.685194
_cell_length_c	10.686551
_cell_angle_alpha	81.584560
_cell_angle_beta	90.308082
_cell_angle_gamma	99.069756
loop_
_atom_site_label
_atom_site_type_symbol
_atom_site_fract_x
_atom_site_fract_y
_atom_site_fract_z
Zn1	Zn	-1.946781	0.311311	0.540461
Zn2	Zn	-1.911615	0.542431	0.314426
Zn3	Zn	-1.718223	0.343976	0.344478
Zn4	Zn	-1.718258	0.539843	0.540385
O5	O	-1.823719	0.434390	0.434938
O6	O	-2.118689	0.329382	0.497932
O7	O	-1.871230	0.530859	0.141828
O8	O	-1.763244	0.160946	0.383085
O9	O	-2.092853	0.499185	0.331864
O10	O	-1.931165	0.136948	0.527073
O11	O	-1.729146	0.385055	0.163907
O12	O	-1.541655	0.382545	0.383011
O13	O	-1.763303	0.494775	0.716980
O14	O	-1.541680	0.526449	0.526943
O15	O	-1.931198	0.326873	0.717036
O16	O	-1.871264	0.720784	0.331791
O17	O	-1.729204	0.718883	0.497802
C18	C	-1.796458	0.766163	0.411552
C19	C	-1.784915	0.908084	0.401582
C20	C	-1.495884	0.457762	0.458231
C21	C	-1.355634	0.467788	0.468224
C22	C	-1.851177	0.406891	0.764075
C23	C	-1.862878	0.395173	0.904333
C24	C	-2.152835	0.410928	0.411554
C25	C	-2.293085	0.400930	0.401589
C26	C	-1.851123	0.101318	0.458440
C27	C	-1.862801	-0.040618	0.468455
C28	C	-1.796448	0.461685	0.107083
C29	C	-1.785022	0.473026	-0.033167
H30	H	-1.346828	0.336021	0.336895
N31	N	-1.690186	0.989217	0.320177
N32	N	-1.721963	1.067188	0.231481
H33	H	-1.655065	1.124492	0.173989
H34	H	-1.938496	0.319554	0.958132
H35	H	-1.301883	0.532711	0.532913
N36	N	-1.957542	0.878261	0.549839
N37	N	-1.967114	0.759219	0.558090
H38	H	-2.034031	0.701918	0.615563
N39	N	-1.690180	0.567891	0.899339
N40	N	-1.680490	0.577598	0.781675
H41	H	-1.613507	0.644598	0.733998
