data_functionalizedCrystal
_audit_creation_method	'MofGen! by Chris Wilmer'
_symmetry_space_group_name_H-M	'P1'
_symmetry_Int_Tables_number	1
_symmetry_cell_setting	triclinic
loop_
_symmetry_equiv_pos_as_xyz
  x,y,z
_cell_length_a	19.077105
_cell_length_b	19.121063
_cell_length_c	19.076919
_cell_angle_alpha	94.606347
_cell_angle_beta	90.076224
_cell_angle_gamma	90.263052
loop_
_atom_site_label
_atom_site_type_symbol
_atom_site_fract_x
_atom_site_fract_y
_atom_site_fract_z
Zn1	Zn	1.043169	-0.339734	-0.454309
Zn2	Zn	1.543169	0.160266	0.045691
Zn3	Zn	1.042790	-0.452646	-0.341419
Zn4	Zn	1.542790	0.047354	0.158581
Zn5	Zn	0.930805	-0.330327	-0.331718
Zn6	Zn	1.430805	0.169673	0.168282
Zn7	Zn	0.920631	-0.452222	-0.454155
Zn8	Zn	1.420631	0.047778	0.045845
O9	O	0.984349	-0.393732	-0.395400
O10	O	1.484349	0.106268	0.104600
O11	O	1.141268	-0.358826	-0.443459
O12	O	1.641268	0.141174	0.056541
O13	O	1.032035	-0.432660	-0.241647
O14	O	1.532035	0.067340	0.258353
O15	O	0.950127	-0.233307	-0.343985
O16	O	1.450127	0.266693	0.156015
O17	O	1.140989	-0.441782	-0.360519
O18	O	1.640989	0.058218	0.139481
O19	O	1.032681	-0.240219	-0.434052
O20	O	1.532681	0.259781	0.065948
O21	O	0.949760	-0.342793	-0.234520
O22	O	1.449760	0.157207	0.265480
O23	O	0.831307	-0.342382	-0.343835
O24	O	1.331307	0.157618	0.156165
O25	O	0.932786	-0.441060	-0.552660
O26	O	1.432786	0.058940	-0.052660
O27	O	0.823831	-0.431938	-0.433788
O28	O	1.323831	0.068062	0.066212
O29	O	1.022815	-0.358416	-0.552774
O30	O	1.522815	0.141584	-0.052774
O31	O	1.022169	-0.550857	-0.360369
O32	O	1.522169	-0.050857	0.139631
O33	O	0.932419	-0.550546	-0.443195
O34	O	1.432419	-0.050546	0.056805
C35	C	0.802120	-0.386094	-0.387742
C36	C	1.302120	0.113906	0.112258
C37	C	0.724160	-0.382844	-0.384484
C38	C	1.224160	0.117156	0.115516
C39	C	0.683661	-0.428009	-0.429719
C40	C	1.183661	0.071991	0.070281
C41	C	0.610410	-0.424946	-0.426660
C42	C	1.110410	0.075054	0.073340
C43	C	0.577659	-0.376721	-0.378362
C44	C	1.077659	0.123279	0.121638
C45	C	0.618164	-0.331551	-0.333125
C46	C	1.118164	0.168449	0.166875
C47	C	0.691414	-0.334611	-0.336188
C48	C	1.191414	0.165389	0.163812
C49	C	0.359002	-0.362559	-0.364190
C50	C	0.859002	0.137441	0.135810
C51	C	0.285746	-0.359503	-0.361130
C52	C	0.785746	0.140497	0.138870
C53	C	0.277998	-0.452898	-0.454666
C54	C	0.777998	0.047102	0.045334
C55	C	0.351249	-0.455957	-0.457722
C56	C	0.851249	0.044043	0.042278
C57	C	0.391747	-0.410784	-0.412487
C58	C	0.891747	0.089216	0.087513
N59	N	0.502785	-0.373590	-0.375233
N60	N	1.002785	0.126410	0.124767
N61	N	0.466620	-0.413912	-0.415620
N62	N	0.966620	0.086088	0.084380
C63	C	0.976167	-0.576182	-0.402834
C64	C	1.476167	-0.076182	0.097166
C65	C	0.972730	-0.654239	-0.406041
C66	C	1.472730	-0.154239	0.093959
C67	C	1.017877	-0.691052	-0.364463
C68	C	1.517877	-0.191052	0.135537
C69	C	1.014648	-0.764395	-0.367483
C70	C	1.514648	-0.264395	0.132517
C71	C	0.966269	-0.800923	-0.412078
C72	C	1.466269	-0.300923	0.087922
C73	C	0.921120	-0.764105	-0.453660
C74	C	1.421120	-0.264105	0.046340
C75	C	0.924353	-0.690764	-0.450644
C76	C	1.424353	-0.190764	0.049356
C77	C	0.954173	-1.022359	-0.423346
C78	C	1.454173	-0.522359	0.076654
C79	C	0.950942	-1.095705	-0.426358
C80	C	1.450942	-0.595705	0.073642
C81	C	1.044471	-1.095990	-0.340181
C82	C	1.544471	-0.595990	0.159819
C83	C	1.047697	-1.022647	-0.337165
C84	C	1.547697	-0.522647	0.162835
C85	C	1.002551	-0.985836	-0.378750
C86	C	1.502551	-0.485836	0.121250
C87	C	0.962966	-0.875891	-0.415164
C88	C	1.462966	-0.375891	0.084836
C89	C	1.005857	-0.910869	-0.375667
C90	C	1.505857	-0.410869	0.124333
C91	C	1.167289	-0.401401	-0.403088
C92	C	1.667289	0.098599	0.096912
C93	C	1.245247	-0.404669	-0.406365
C94	C	1.745247	0.095331	0.093635
C95	C	0.976708	-0.400740	-0.578967
C96	C	1.476708	0.099260	-0.078967
C97	C	0.973452	-0.403726	-0.657192
C98	C	1.473452	0.096274	-0.157192
C99	C	0.992581	-0.210571	-0.387953
C100	C	1.492581	0.289429	0.112047
C101	C	0.996089	-0.132518	-0.384780
C102	C	1.496089	0.367482	0.115220
C103	C	1.018793	-0.362103	-0.694003
C104	C	1.518793	0.137897	-0.194003
C105	C	1.015725	-0.364906	-0.767503
C106	C	1.515725	0.135094	-0.267503
C107	C	0.967319	-0.409336	-0.804192
C108	C	1.467319	0.090664	-0.304192
C109	C	0.921973	-0.450962	-0.767376
C110	C	1.421973	0.049038	-0.267376
C111	C	0.925038	-0.448154	-0.693877
C112	C	1.425038	0.051846	-0.193877
C113	C	0.953123	-0.422342	-1.024005
C114	C	1.453123	0.077658	-0.524005
C115	C	0.950063	-0.425148	-1.097510
C116	C	1.450063	0.074852	-0.597510
C117	C	1.043814	-0.339090	-1.097632
C118	C	1.543814	0.160910	-0.597632
C119	C	1.046877	-0.336290	-1.024131
C120	C	1.546877	0.163710	-0.524131
C121	C	1.001529	-0.377913	-0.987321
C122	C	1.501529	0.122087	-0.487321
N123	N	0.964183	-0.412204	-0.879321
N124	N	1.464183	0.087796	-0.379321
N125	N	1.004662	-0.375041	-0.912193
N126	N	1.504662	0.124959	-0.412193
C127	C	0.992003	-0.386702	-0.212547
C128	C	1.492003	0.113298	0.287453
C129	C	0.995403	-0.383524	-0.134320
C130	C	1.495403	0.116476	0.365680
H131	H	0.577438	-0.461725	-0.463495
H132	H	1.077438	0.038275	0.036505
C133	C	0.875166	-0.493943	-0.653379
C134	C	1.375166	0.006057	-0.153379
C135	C	0.795269	-0.485257	-0.659894
C136	C	1.295269	0.014743	-0.159894
C137	C	0.745394	-0.531044	-0.619396
C138	C	1.245394	-0.031044	-0.119396
C139	C	0.775417	-0.585516	-0.572384
C140	C	1.275417	-0.085516	-0.072384
C141	C	0.855318	-0.594204	-0.565867
C142	C	1.355318	-0.094204	-0.065867
C143	C	0.905193	-0.548417	-0.606365
C144	C	1.405193	-0.048417	-0.106365
H145	H	0.773040	-0.444931	-0.694697
H146	H	1.273040	0.055069	-0.194697
H147	H	0.686245	-0.524613	-0.624220
H148	H	1.186245	-0.024613	-0.124220
H149	H	0.738496	-0.619411	-0.542405
H150	H	1.238496	-0.119411	-0.042405
H151	H	0.877547	-0.634530	-0.531064
H152	H	1.377547	-0.134530	-0.031064
H153	H	0.964342	-0.554849	-0.601541
H154	H	1.464342	-0.054849	-0.101541
H155	H	0.377909	-0.495228	-0.497049
H156	H	0.877909	0.004772	0.002951
H157	H	1.045250	-0.881126	-0.339361
H158	H	1.545250	-0.381126	0.160639
H159	H	0.245016	-0.489674	-0.491494
H160	H	0.745016	0.010326	0.008506
C161	C	0.403536	-0.312882	-0.314414
C162	C	0.903536	0.187118	0.185586
C163	C	0.396792	-0.232862	-0.316592
C164	C	0.896792	0.267138	0.183408
C165	C	0.441326	-0.183188	-0.266805
C166	C	0.941326	0.316812	0.233195
C167	C	0.492603	-0.213533	-0.214839
C168	C	0.992603	0.286467	0.285161
C169	C	0.499349	-0.293557	-0.212659
C170	C	0.999349	0.206443	0.287341
C171	C	0.454815	-0.343232	-0.262446
C172	C	0.954815	0.156768	0.237554
H173	H	0.358831	-0.210395	-0.355062
H174	H	0.858831	0.289605	0.144938
H175	H	0.436332	-0.123948	-0.268420
H176	H	0.936332	0.376052	0.231580
H177	H	0.525570	-0.176761	-0.177984
H178	H	1.025570	0.323239	0.322016
H179	H	0.537310	-0.316024	-0.174188
H180	H	1.037310	0.183976	0.325812
H181	H	0.459809	-0.402471	-0.260831
H182	H	0.959809	0.097529	0.239169
C183	C	0.249719	-0.306438	-0.308013
C184	C	0.749719	0.193562	0.191987
C185	C	0.294263	-0.256739	-0.258266
C186	C	0.794263	0.243261	0.241734
C187	C	0.258236	-0.203672	-0.205157
C188	C	0.758236	0.296328	0.294843
C189	C	0.177664	-0.200304	-0.201796
C190	C	0.677664	0.299696	0.298204
C191	C	0.133115	-0.250005	-0.251544
C192	C	0.633115	0.249995	0.248456
C193	C	0.169142	-0.303071	-0.304653
C194	C	0.669142	0.196929	0.195347
H195	H	0.353912	-0.259231	-0.260753
H196	H	0.853912	0.240769	0.239247
H197	H	0.291214	-0.166881	-0.168330
H198	H	0.791214	0.333119	0.331670
H199	H	0.150994	-0.161021	-0.162481
H200	H	0.650994	0.338979	0.337519
H201	H	0.073466	-0.247513	-0.249057
H202	H	0.573466	0.252487	0.250943
H203	H	0.136164	-0.339863	-0.341480
H204	H	0.636164	0.160137	0.158520
H205	H	0.591493	-0.292282	-0.293803
H206	H	1.091493	0.207718	0.206197
C207	C	1.100124	-0.287411	-0.983780
C208	C	1.600124	0.212589	-0.483780
C209	C	1.097567	-0.207728	-0.990401
C210	C	1.597567	0.292272	-0.490401
C211	C	1.150817	-0.158850	-0.950052
C212	C	1.650817	0.341150	-0.450052
C213	C	1.206625	-0.189656	-0.903081
C214	C	1.706625	0.310344	-0.403081
C215	C	1.209184	-0.269344	-0.896457
C216	C	1.709184	0.230656	-0.396457
C217	C	1.155934	-0.318221	-0.936806
C218	C	1.655934	0.181779	-0.436806
H219	H	1.056252	-0.184920	-1.025174
H220	H	1.556252	0.315080	-0.525174
H221	H	1.148922	-0.099860	-0.954956
H222	H	1.648922	0.400140	-0.454956
H223	H	1.246044	-0.153474	-0.873211
H224	H	1.746044	0.346526	-0.373211
H225	H	1.250499	-0.292152	-0.861684
H226	H	1.750499	0.207848	-0.361684
H227	H	1.157829	-0.377212	-0.931903
H228	H	1.657829	0.122788	-0.431903
H229	H	0.916207	-0.456245	-0.994044
H230	H	1.416207	0.043755	-0.494044
C231	C	0.896833	-0.474047	-1.137871
C232	C	1.396833	0.025953	-0.637871
C233	C	0.846968	-0.519849	-1.097385
C234	C	1.346968	-0.019849	-0.597385
C235	C	0.793754	-0.568759	-1.137748
C236	C	1.293754	-0.068759	-0.637748
C237	C	0.790407	-0.571867	-1.218596
C238	C	1.290407	-0.071867	-0.718596
C239	C	0.840274	-0.526065	-1.259086
C240	C	1.340274	-0.026065	-0.759086
C241	C	0.893488	-0.477154	-1.218724
C242	C	1.393488	0.022846	-0.718724
H243	H	0.849444	-0.517549	-1.037532
H244	H	1.349444	-0.017549	-0.537532
H245	H	0.756839	-0.602665	-1.107774
H246	H	1.256839	-0.102665	-0.607774
H247	H	0.751015	-0.608074	-1.248475
H248	H	1.251015	-0.108074	-0.748475
H249	H	0.837798	-0.528364	-1.318939
H250	H	1.337798	-0.028364	-0.818939
H251	H	0.930403	-0.443248	-1.248698
H252	H	1.430403	0.056752	-0.748698
H253	H	0.923575	-0.905641	-0.451472
H254	H	1.423575	-0.405641	0.048528
H255	H	0.911554	-1.125446	-0.462685
H256	H	1.411554	-0.625446	0.037315
H257	H	0.724388	-0.297829	-0.299356
H258	H	1.224388	0.202171	0.200644
H259	H	1.081228	-1.125969	-0.306326
H260	H	1.581228	-0.625969	0.193674
C261	C	0.868731	-0.499847	-0.807726
C262	C	1.368731	0.000153	-0.307726
C263	C	0.789675	-0.490400	-0.794034
C264	C	1.289675	0.009600	-0.294034
C265	C	0.736436	-0.539293	-0.834380
C266	C	1.236436	-0.039293	-0.334380
C267	C	0.762253	-0.597634	-0.888418
C268	C	1.262253	-0.097634	-0.388418
C269	C	0.841313	-0.607084	-0.902113
C270	C	1.341313	-0.107084	-0.402113
C271	C	0.894552	-0.558190	-0.861767
C272	C	1.394552	-0.058190	-0.361767
H273	H	0.770560	-0.447210	-0.754030
H274	H	1.270560	0.052790	-0.254030
H275	H	0.677910	-0.532298	-0.824243
H276	H	1.177910	-0.032298	-0.324243
H277	H	0.722842	-0.633828	-0.918285
H278	H	1.222842	-0.133828	-0.418285
H279	H	0.860428	-0.650274	-0.942117
H280	H	1.360428	-0.150274	-0.442117
H281	H	0.953078	-0.565186	-0.871904
H282	H	1.453078	-0.065186	-0.371904
C283	C	1.071095	-0.650873	-0.315408
C284	C	1.571095	-0.150873	0.184592
C285	C	1.068324	-0.657708	-0.235575
C286	C	1.568324	-0.157708	0.264425
C287	C	1.121546	-0.617532	-0.186521
C288	C	1.621546	-0.117532	0.313479
C289	C	1.177539	-0.570521	-0.217298
C290	C	1.677539	-0.070521	0.282702
C291	C	1.180312	-0.563685	-0.297135
C292	C	1.680312	-0.063685	0.202865
C293	C	1.127090	-0.603861	-0.346190
C294	C	1.627090	-0.103861	0.153810
H295	H	1.026873	-0.692510	-0.212788
H296	H	1.526873	-0.192510	0.287212
H297	H	1.119492	-0.622593	-0.127420
H298	H	1.619492	-0.122593	0.372580
H299	H	1.216937	-0.540780	-0.180985
H300	H	1.716937	-0.040780	0.319015
H301	H	1.221763	-0.528883	-0.319922
H302	H	1.721763	-0.028883	0.180078
H303	H	1.129144	-0.598800	-0.405290
H304	H	1.629144	-0.098800	0.094710
H305	H	0.881732	-0.793853	-0.489974
H306	H	1.381732	-0.293853	0.010026
C307	C	1.064315	-0.804884	-0.321747
C308	C	1.564315	-0.304884	0.178253
C309	C	1.062429	-0.791550	-0.241085
C310	C	1.562429	-0.291550	0.258915
C311	C	1.112102	-0.832038	-0.195348
C312	C	1.612102	-0.332038	0.304652
C313	C	1.163660	-0.885860	-0.230274
C314	C	1.663660	-0.385860	0.269726
C315	C	1.165547	-0.899197	-0.310941
C316	C	1.665547	-0.399197	0.189059
C317	C	1.115875	-0.858709	-0.356677
C318	C	1.615875	-0.358709	0.143323
H319	H	1.024261	-0.751705	-0.215226
H320	H	1.524261	-0.251705	0.284774
H321	H	1.110704	-0.822165	-0.135633
H322	H	1.610704	-0.322165	0.364367
H323	H	1.200430	-0.915831	-0.196417
H324	H	1.700430	-0.415831	0.303583
H325	H	1.203716	-0.939041	-0.336799
H326	H	1.703716	-0.439041	0.163201
H327	H	1.117272	-0.868582	-0.416392
H328	H	1.617272	-0.368582	0.083608
H329	H	1.087091	-0.992907	-0.300852
H330	H	1.587091	-0.492907	0.199148
H331	H	1.080733	-0.305203	-1.127610
H332	H	1.580733	0.194797	-0.627610
H333	H	0.917412	-0.992393	-0.457205
H334	H	1.417412	-0.492393	0.042795
C335	C	1.072041	-0.313228	-0.653648
C336	C	1.572041	0.186772	-0.153648
C337	C	1.046235	-0.254893	-0.599598
C338	C	1.546235	0.245107	-0.099598
C339	C	1.099483	-0.206015	-0.559245
C340	C	1.599483	0.293985	-0.059245
C341	C	1.178537	-0.215472	-0.572943
C342	C	1.678537	0.284528	-0.072943
C343	C	1.204347	-0.273809	-0.626996
C344	C	1.704347	0.226191	-0.126996
C345	C	1.151099	-0.322687	-0.667349
C346	C	1.651099	0.177313	-0.167349
H347	H	0.987710	-0.247890	-0.589456
H348	H	1.487710	0.252110	-0.089456
H349	H	1.080376	-0.162830	-0.519232
H350	H	1.580376	0.337170	-0.019232
H351	H	1.217954	-0.179289	-0.543072
H352	H	1.717954	0.320711	-0.043072
H353	H	1.262871	-0.280812	-0.637138
H354	H	1.762871	0.219188	-0.137138
H355	H	1.170206	-0.365872	-0.707362
H356	H	1.670206	0.134128	-0.207362
H357	H	0.710321	-0.467281	-0.469046
H358	H	1.210321	0.032719	0.030954
H359	H	0.887591	-0.660792	-0.484502
H360	H	1.387591	-0.160792	0.015498
H361	H	1.052648	-0.331013	-0.797471
H362	H	1.552648	0.168987	-0.297471
