data_functionalizedCrystal
_audit_creation_method	'MofGen! by Chris Wilmer'
_symmetry_space_group_name_H-M	'P1'
_symmetry_Int_Tables_number	1
_symmetry_cell_setting	triclinic
loop_
_symmetry_equiv_pos_as_xyz
  x,y,z
_cell_length_a	14.044191
_cell_length_b	14.044202
_cell_length_c	12.503572
_cell_angle_alpha	93.856143
_cell_angle_beta	93.844747
_cell_angle_gamma	86.807761
loop_
_atom_site_label
_atom_site_type_symbol
_atom_site_fract_x
_atom_site_fract_y
_atom_site_fract_z
O1	O	1.272127	-0.235249	-0.089306
O2	O	0.995454	-0.226937	-0.089318
O3	O	1.129635	-0.092755	-0.089283
O4	O	1.137946	-0.369431	-0.089341
O5	O	1.139729	-0.082651	0.089361
O6	O	1.005549	-0.216833	0.089326
O7	O	1.282222	-0.225145	0.089339
Cu8	Cu	1.144807	-0.220066	0.105644
Cu9	Cu	1.132869	-0.232016	-0.105624
O10	O	1.148041	-0.359327	0.089303
C11	C	0.964879	-0.218248	0.000003
C12	C	0.858735	-0.207401	-0.000000
C13	C	0.613279	-0.264502	-0.000002
C14	C	0.664402	-0.187585	0.000013
C15	C	0.772539	-0.198613	0.000005
C16	C	0.505132	-0.253475	0.000006
C17	C	1.131045	-0.052081	0.000044
C18	C	1.120198	0.054064	0.000059
C19	C	1.312797	-0.233834	0.000015
C20	C	1.418940	-0.244681	0.000011
N21	N	1.124472	-0.240413	-0.254218
C22	C	1.177295	0.299519	0.000034
C23	C	1.100379	0.248396	0.000035
C24	C	1.111409	0.140259	0.000048
C25	C	1.166267	0.407665	0.000021
C26	C	1.146629	0.599999	-0.000012
C27	C	1.157472	0.493857	0.000010
C28	C	1.112112	-0.252766	-0.473337
C29	C	1.165568	-0.199311	-0.526650
C30	C	1.158691	-0.206185	-0.648575
C31	C	1.118988	-0.245894	-0.351401
N32	N	1.153211	-0.211661	0.254239
H33	H	0.650721	-0.338630	-0.000021
H34	H	0.626953	-0.113455	-0.000048
H35	H	1.026246	0.285841	0.000028
H36	H	1.251423	0.262077	0.000046
H37	H	1.216497	-0.148384	-0.480724
H38	H	1.061185	-0.303689	-0.519258
