data_functionalizedCrystal
_audit_creation_method	'MofGen! by Chris Wilmer'
_symmetry_space_group_name_H-M	'P1'
_symmetry_Int_Tables_number	1
_symmetry_cell_setting	triclinic
loop_
_symmetry_equiv_pos_as_xyz
  x,y,z
_cell_length_a	17.077404
_cell_length_b	29.839131
_cell_length_c	17.077396
_cell_angle_alpha	90.039567
_cell_angle_beta	90.018362
_cell_angle_gamma	90.033199
loop_
_atom_site_label
_atom_site_type_symbol
_atom_site_fract_x
_atom_site_fract_y
_atom_site_fract_z
Zn1	Zn	1.199987	-0.178878	0.443758
Zn2	Zn	1.533321	0.154456	0.777092
Zn3	Zn	1.866654	0.487789	1.110425
Zn4	Zn	1.199866	-0.254008	0.312467
Zn5	Zn	1.533199	0.079325	0.645800
Zn6	Zn	1.866533	0.412658	0.979134
Zn7	Zn	1.068719	-0.178890	0.312509
Zn8	Zn	1.402052	0.154443	0.645842
Zn9	Zn	1.735386	0.487776	0.979176
Zn10	Zn	1.068659	-0.253979	0.443693
Zn11	Zn	1.401992	0.079355	0.777026
Zn12	Zn	1.735325	0.412688	1.110360
O13	O	1.134308	-0.216439	0.378107
O14	O	1.467641	0.116895	0.711440
O15	O	1.800974	0.450228	1.044773
O16	O	1.309818	-0.188851	0.426352
O17	O	1.643151	0.144482	0.759685
O18	O	1.976485	0.477816	1.093019
O19	O	1.182444	-0.244062	0.202626
O20	O	1.515777	0.089272	0.535959
O21	O	1.849110	0.422605	0.869292
O22	O	1.086208	-0.116022	0.329964
O23	O	1.419541	0.217312	0.663298
O24	O	1.752875	0.550645	0.996631
O25	O	1.309729	-0.244049	0.329893
O26	O	1.643062	0.089284	0.663226
O27	O	1.976396	0.422618	0.996559
O28	O	1.182650	-0.116012	0.426393
O29	O	1.515984	0.217321	0.759726
O30	O	1.849317	0.550654	1.093059
O31	O	1.086091	-0.188873	0.202656
O32	O	1.419424	0.144461	0.535990
O33	O	1.752757	0.477794	0.869323
O34	O	0.958864	-0.188844	0.329901
O35	O	1.292197	0.144489	0.663234
O36	O	1.625531	0.477823	0.996568
O37	O	1.086105	-0.243999	0.553549
O38	O	1.419439	0.089335	0.886882
O39	O	1.752772	0.422668	1.220215
O40	O	0.958820	-0.244011	0.426282
O41	O	1.292153	0.089322	0.759615
O42	O	1.625487	0.422656	1.092948
O43	O	1.182592	-0.188822	0.553597
O44	O	1.515925	0.144511	0.886930
O45	O	1.849258	0.477844	1.220263
O46	O	1.182385	-0.316872	0.329830
O47	O	1.515719	0.016462	0.663163
O48	O	1.849052	0.349795	0.996496
O49	O	1.085988	-0.316850	0.426241
O50	O	1.419321	0.016484	0.759574
O51	O	1.752654	0.349817	1.092908
C52	C	0.930360	-0.216426	0.378089
C53	C	1.263693	0.116907	0.711423
C54	C	1.597027	0.450241	1.044756
C55	C	0.843110	-0.216431	0.378100
C56	C	1.176443	0.116902	0.711434
C57	C	1.509777	0.450235	1.044767
C58	C	0.802167	-0.187741	0.428403
C59	C	1.135500	0.145592	0.761737
C60	C	1.468834	0.478926	1.095070
C61	C	0.720187	-0.187744	0.428407
C62	C	1.053520	0.145590	0.761740
C63	C	1.386853	0.478923	1.095074
C64	C	0.679151	-0.216440	0.378111
C65	C	1.012484	0.116894	0.711444
C66	C	1.345817	0.450227	1.044778
C67	C	0.720100	-0.245132	0.327802
C68	C	1.053433	0.088202	0.661136
C69	C	1.386766	0.421535	0.994469
C70	C	0.802078	-0.245126	0.327795
C71	C	1.135412	0.088207	0.661129
C72	C	1.468745	0.421540	0.994462
C73	C	0.549229	-0.245142	0.327822
C74	C	0.882563	0.088191	0.661155
C75	C	1.215896	0.421525	0.994489
C76	C	0.467245	-0.245148	0.327830
C77	C	0.800578	0.088185	0.661163
C78	C	1.133912	0.421519	0.994496
C79	C	0.467338	-0.187759	0.428433
C80	C	0.800671	0.145574	0.761767
C81	C	1.134004	0.478907	1.095100
C82	C	0.549317	-0.187754	0.428426
C83	C	0.882650	0.145579	0.761760
C84	C	1.215983	0.478913	1.095093
C85	C	0.590260	-0.216447	0.378119
C86	C	0.923593	0.116887	0.711452
C87	C	1.256926	0.450220	1.044785
C88	C	1.134188	-0.333161	0.378041
C89	C	1.467521	0.000172	0.711374
C90	C	1.800855	0.333505	1.044707
C91	C	1.134209	-0.383096	0.378039
C92	C	1.467542	-0.049762	0.711372
C93	C	1.800875	0.283571	1.044705
C94	C	1.184514	-0.692699	0.428389
C95	C	1.517848	-0.359366	0.761722
C96	C	1.851181	-0.026033	1.095055
C97	C	1.184599	-0.880372	0.428436
C98	C	1.517933	-0.547039	0.761769
C99	C	1.851266	-0.213706	1.095102
O100	O	1.227254	-0.904603	0.471196
O101	O	1.560587	-0.571270	0.804529
O102	O	1.893920	-0.237937	1.137863
N103	N	1.134441	-0.903881	0.378194
N104	N	1.467774	-0.570548	0.711527
N105	N	1.801108	-0.237214	1.044861
C106	C	1.084254	-0.880468	0.327940
C107	C	1.417588	-0.547135	0.661274
C108	C	1.750921	-0.213801	0.994607
O109	O	1.041588	-0.904770	0.285213
O110	O	1.374921	-0.571436	0.618547
O111	O	1.708254	-0.238103	0.951880
C112	C	1.084166	-0.692796	0.327898
C113	C	1.417499	-0.359463	0.661231
C114	C	1.750832	-0.026129	0.994564
C115	C	1.134333	-0.669290	0.378137
C116	C	1.467666	-0.335957	0.711471
C117	C	1.801000	-0.002623	1.044804
C118	C	1.234677	-0.669193	0.478625
C119	C	1.568010	-0.335860	0.811958
C120	C	1.901344	-0.002527	1.145291
C121	C	1.234658	-0.622278	0.478609
C122	C	1.567991	-0.288945	0.811943
C123	C	1.901325	0.044389	1.145276
C124	C	1.184477	-0.598868	0.428358
C125	C	1.517810	-0.265535	0.761691
C126	C	1.851143	0.067798	1.095025
C127	C	1.134314	-0.622375	0.378122
C128	C	1.467647	-0.289041	0.711455
C129	C	1.800981	0.044292	1.044789
C130	C	1.033975	-0.669384	0.277649
C131	C	1.367309	-0.336051	0.610982
C132	C	1.700642	-0.002717	0.944315
C133	C	1.033956	-0.622463	0.277644
C134	C	1.367290	-0.289130	0.610977
C135	C	1.700623	0.044204	0.944311
C136	C	1.084124	-0.598957	0.327883
C137	C	1.417457	-0.265624	0.661217
C138	C	1.750790	0.067710	0.994550
C139	C	1.084114	-0.552050	0.327855
C140	C	1.417447	-0.218716	0.661189
C141	C	1.750781	0.114617	0.994522
N142	N	1.134272	-0.528541	0.378097
N143	N	1.467606	-0.195208	0.711430
N144	N	1.800939	0.138125	1.044764
C145	C	1.184454	-0.551951	0.428349
C146	C	1.517787	-0.218617	0.761682
C147	C	1.851120	0.114716	1.095015
C148	C	1.084305	-0.978999	0.327965
C149	C	1.417639	-0.645665	0.661298
C150	C	1.750972	-0.312332	0.994632
C151	C	1.084328	-1.025917	0.327975
C152	C	1.417662	-0.692583	0.661308
C153	C	1.750995	-0.359250	0.994641
C154	C	1.184673	-1.025818	0.428471
C155	C	1.518006	-0.692484	0.761805
C156	C	1.851339	-0.359151	1.095138
C157	C	1.184653	-0.978899	0.428457
C158	C	1.517987	-0.645566	0.761791
C159	C	1.851320	-0.312232	1.095124
C160	C	1.134464	-0.955490	0.378207
C161	C	1.467797	-0.622157	0.711540
C162	C	1.801130	-0.288824	1.044874
C163	C	1.184411	-0.453425	0.428312
C164	C	1.517744	-0.120091	0.761645
C165	C	1.851078	0.213242	1.094979
C166	C	1.184390	-0.406505	0.428290
C167	C	1.517723	-0.073172	0.761623
C168	C	1.851057	0.260161	1.094957
C169	C	1.084043	-0.406608	0.327797
C170	C	1.417376	-0.073275	0.661130
C171	C	1.750710	0.260058	0.994463
C172	C	1.084067	-0.453524	0.327815
C173	C	1.417400	-0.120190	0.661149
C174	C	1.750733	0.213143	0.994482
C175	C	1.134253	-0.476931	0.378079
C176	C	1.467586	-0.143598	0.711413
C177	C	1.800920	0.189736	1.044746
O178	O	1.041476	-0.527790	0.285124
O179	O	1.374809	-0.194456	0.618457
O180	O	1.708142	0.138877	0.951790
O181	O	1.227102	-0.527641	0.471081
O182	O	1.560435	-0.194308	0.804415
O183	O	1.893768	0.139026	1.137748
C184	C	1.184533	-0.739615	0.428404
C185	C	1.517866	-0.406281	0.761737
C186	C	1.851200	-0.072948	1.095071
C187	C	1.134370	-0.763121	0.378168
C188	C	1.467704	-0.429788	0.711501
C189	C	1.801037	-0.096454	1.044835
C190	C	1.084189	-0.739711	0.327916
C191	C	1.417522	-0.406378	0.661250
C192	C	1.750856	-0.073045	0.994583
C193	C	1.134393	-0.810039	0.378177
C194	C	1.467727	-0.476705	0.711511
C195	C	1.801060	-0.143372	1.044844
C196	C	1.184575	-0.833448	0.428429
C197	C	1.517908	-0.500115	0.761762
C198	C	1.851241	-0.166781	1.095095
C199	C	1.234733	-0.809940	0.478671
C200	C	1.568067	-0.476606	0.812004
C201	C	1.901400	-0.143273	1.145337
C202	C	1.234714	-0.763024	0.478655
C203	C	1.568048	-0.429691	0.811989
C204	C	1.901381	-0.096358	1.145322
C205	C	1.034031	-0.763220	0.277675
C206	C	1.367364	-0.429887	0.611008
C207	C	1.700697	-0.096553	0.944341
C208	C	1.034054	-0.810135	0.277693
C209	C	1.367388	-0.476802	0.611027
C210	C	1.700721	-0.143469	0.944360
C211	C	1.084236	-0.833545	0.327945
C212	C	1.417569	-0.500211	0.661278
C213	C	1.750902	-0.166878	0.994611
C214	C	1.339052	-0.216452	0.378125
C215	C	1.672385	0.116881	0.711458
C216	C	2.005719	0.450215	1.044792
C217	C	1.426302	-0.216458	0.378133
C218	C	1.759635	0.116876	0.711466
C219	C	2.092968	0.450209	1.044799
C220	C	1.134355	-0.216406	0.582851
C221	C	1.467689	0.116928	0.916185
C222	C	1.801022	0.450261	1.249518
C223	C	1.134376	-0.216392	0.670101
C224	C	1.467709	0.116942	1.003434
C225	C	1.801042	0.450275	1.336768
C226	C	1.134449	-0.099260	0.378190
C227	C	1.467783	0.234073	0.711524
C228	C	1.801116	0.567406	1.044857
C229	C	1.134510	-0.049326	0.378226
C230	C	1.467843	0.284007	0.711559
C231	C	1.801176	0.617341	1.044893
C232	C	1.134306	-0.216439	0.174159
C233	C	1.467639	0.116894	0.507492
C234	C	1.800972	0.450227	0.840826
C235	C	1.134438	-0.216327	0.086910
C236	C	1.467771	0.117006	0.420243
C237	C	1.801104	0.450340	0.753576
C238	C	1.184618	-0.187659	0.711117
C239	C	1.517951	0.145674	1.044451
C240	C	1.851285	0.479008	1.377784
C241	C	1.184627	-0.187644	0.793098
C242	C	1.517961	0.145689	1.126431
C243	C	1.851294	0.479023	1.459765
C244	C	1.134398	-0.216364	0.834061
C245	C	1.467731	0.116969	1.167394
C246	C	1.801064	0.450302	1.500727
C247	C	1.084150	-0.245098	0.793038
C248	C	1.417483	0.088235	1.126372
C249	C	1.750817	0.421568	1.459705
C250	C	1.084137	-0.245111	0.711059
C251	C	1.417470	0.088223	1.044393
C252	C	1.750804	0.421556	1.377726
C253	C	1.084182	-0.245071	0.963909
C254	C	1.417515	0.088262	1.297242
C255	C	1.750848	0.421595	1.630575
C256	C	1.084195	-0.245060	1.045893
C257	C	1.417529	0.088274	1.379227
C258	C	1.750862	0.421607	1.712560
C259	C	1.184672	-0.187605	1.045947
C260	C	1.518005	0.145729	1.379280
C261	C	1.851338	0.479062	1.712614
C262	C	1.184659	-0.187617	0.963968
C263	C	1.517992	0.145716	1.297301
C264	C	1.851326	0.479050	1.630635
C265	C	1.134412	-0.216352	0.922952
C266	C	1.467745	0.116982	1.256285
C267	C	1.801079	0.450315	1.589618
H268	H	0.433998	-0.164396	0.469394
H269	H	0.767331	0.168937	0.802728
H270	H	1.100664	0.502271	1.136061
Br271	Br	1.252523	-0.485184	0.496527
Br272	Br	1.585856	-0.151851	0.829860
Br273	Br	1.919190	0.181482	1.163194
Br274	Br	0.605008	-0.148814	0.496695
Br275	Br	0.938342	0.184519	0.830028
Br276	Br	1.271675	0.517853	1.163361
Br277	Br	1.252853	-0.148669	0.848760
Br278	Br	1.586186	0.184665	1.182094
Br279	Br	1.919520	0.517998	1.515427
Br280	Br	1.015944	-0.374829	0.259600
Br281	Br	1.349278	-0.041496	0.592933
Br282	Br	1.682611	0.291837	0.926267
H283	H	1.043434	-0.959943	0.287043
H284	H	1.376767	-0.626609	0.620377
H285	H	1.710101	-0.293276	0.953710
Br286	Br	1.302741	-0.590384	0.546801
Br287	Br	1.636074	-0.257051	0.880134
Br288	Br	1.969407	0.076282	1.213468
H289	H	1.225583	-0.164207	1.079347
H290	H	1.558917	0.169126	1.412680
H291	H	1.892250	0.502460	1.746013
H292	H	0.993083	-0.603406	0.236725
H293	H	1.326417	-0.270073	0.570058
H294	H	1.659750	0.063261	0.903391
Br295	Br	0.965915	-0.731457	0.209475
Br296	Br	1.299248	-0.398124	0.542808
Br297	Br	1.632581	-0.064791	0.876141
H298	H	1.043292	-0.268445	1.079243
H299	H	1.376626	0.064888	1.412576
H300	H	1.709959	0.398221	1.745910
Br301	Br	1.252835	-0.148643	0.908376
Br302	Br	1.586168	0.184691	1.241709
Br303	Br	1.919502	0.518024	1.575042
H304	H	1.043222	-0.472663	0.286900
H305	H	1.376556	-0.139330	0.620233
H306	H	1.709889	0.194003	0.953567
H307	H	1.225533	-1.044886	0.469387
H308	H	1.558867	-0.711552	0.802721
H309	H	1.892200	-0.378219	1.136054
H310	H	1.225523	-0.164273	0.677772
H311	H	1.558856	0.169061	1.011105
H312	H	1.892190	0.502394	1.344438
Br313	Br	1.015986	-0.284067	0.908244
Br314	Br	1.349319	0.049266	1.241577
Br315	Br	1.682652	0.382599	1.574910
Br316	Br	0.857851	-0.148797	0.496672
Br317	Br	1.191184	0.184536	0.830005
Br318	Br	1.524517	0.517870	1.163338
Br319	Br	1.302802	-0.731131	0.546841
Br320	Br	1.636136	-0.397797	0.880175
Br321	Br	1.969469	-0.064464	1.213508
Br322	Br	1.302840	-0.841719	0.546865
Br323	Br	1.636173	-0.508386	0.880198
Br324	Br	1.969506	-0.175052	1.213531
H325	H	1.043486	-1.045051	0.287056
H326	H	1.376819	-0.711718	0.620389
H327	H	1.710152	-0.378385	0.953723
H328	H	0.433836	-0.268515	0.286875
H329	H	0.767169	0.064818	0.620208
H330	H	1.100502	0.398151	0.953542
H331	H	0.993203	-0.829270	0.236775
H332	H	1.326537	-0.495937	0.570108
H333	H	1.659870	-0.162603	0.903442
Br334	Br	1.015975	-0.284074	0.848630
Br335	Br	1.349309	0.049259	1.181963
Br336	Br	1.682642	0.382593	1.515296
Br337	Br	0.604795	-0.284085	0.259551
Br338	Br	0.938128	0.049249	0.592884
Br339	Br	1.271462	0.382582	0.926218
Br340	Br	0.857645	-0.284064	0.259523
Br341	Br	1.190979	0.049269	0.592856
Br342	Br	1.524312	0.382602	0.926190
Br343	Br	1.015944	-0.284104	0.655393
Br344	Br	1.349277	0.049229	0.988726
Br345	Br	1.682610	0.382563	1.322060
H346	H	0.686682	-0.268494	0.286847
H347	H	1.020015	0.064839	0.620180
H348	H	1.353348	0.398172	0.953513
H349	H	1.225245	-0.387368	0.469201
H350	H	1.558578	-0.054035	0.802534
H351	H	1.891912	0.279299	1.135868
H352	H	0.686854	-0.164382	0.469370
H353	H	1.020188	0.168951	0.802703
H354	H	1.353521	0.502285	1.136037
H355	H	1.275540	-0.688248	0.519550
H356	H	1.608874	-0.354915	0.852883
H357	H	1.942207	-0.021582	1.186217
Br358	Br	1.252740	-0.947003	0.496642
Br359	Br	1.586073	-0.613670	0.829975
Br360	Br	1.919406	-0.280336	1.163308
H361	H	0.993124	-0.688515	0.236738
H362	H	1.326457	-0.355181	0.570071
H363	H	1.659791	-0.021848	0.903405
