data_functionalizedCrystal
_audit_creation_method	'MofGen! by Chris Wilmer'
_symmetry_space_group_name_H-M	'P1'
_symmetry_Int_Tables_number	1
_symmetry_cell_setting	triclinic
loop_
_symmetry_equiv_pos_as_xyz
  x,y,z
_cell_length_a	15.995343
_cell_length_b	14.472311
_cell_length_c	10.540539
_cell_angle_alpha	89.992475
_cell_angle_beta	95.992662
_cell_angle_gamma	89.999810
loop_
_atom_site_label
_atom_site_type_symbol
_atom_site_fract_x
_atom_site_fract_y
_atom_site_fract_z
O1	O	1.111967	0.076744	-0.163580
O2	O	0.868311	0.076765	-0.183795
O3	O	0.995698	0.076753	0.011096
O4	O	0.984580	0.076756	-0.358470
O5	O	0.995689	-0.076929	0.011120
O6	O	0.868302	-0.076917	-0.183770
O7	O	1.111958	-0.076938	-0.163555
Cu8	Cu	0.990129	-0.090960	-0.173661
Cu9	Cu	0.990140	0.090787	-0.173690
O10	O	0.984571	-0.076926	-0.358446
C11	C	0.837107	-0.000073	-0.182949
C12	C	0.744141	-0.000064	-0.180448
N13	N	0.990128	-0.218791	-0.173639
C14	C	0.573928	-0.000077	-0.175910
C15	C	0.549741	-0.000078	-0.035229
C16	C	0.453047	-0.000432	-0.032582
C17	C	0.406341	-0.000088	-0.171440
C18	C	0.435851	-0.087673	-0.242163
C19	C	0.532653	-0.087741	-0.243831
C20	C	0.532586	0.087030	-0.245919
C21	C	0.436060	0.088176	-0.240726
C22	C	0.311628	-0.000097	-0.168921
C23	C	0.668641	-0.000074	-0.178433
C24	C	0.990141	-0.592882	-0.173680
C25	C	1.058528	-0.553694	-0.069746
C26	C	1.058346	-0.446606	-0.069363
C27	C	0.990135	-0.407291	-0.173660
C28	C	0.902605	-0.446174	-0.144737
C29	C	0.903009	-0.553296	-0.144002
C30	C	1.008498	-0.553388	-0.306844
C31	C	1.010476	-0.446259	-0.305952
C32	C	0.990126	-0.302403	-0.173651
C33	C	0.990143	-0.697770	-0.173686
C34	C	1.143162	-0.000098	-0.164402
C35	C	1.236128	-0.000100	-0.166902
C36	C	0.994860	-0.000086	0.058400
C37	C	0.992365	-0.000081	0.199313
N38	N	0.990148	0.218618	-0.173701
C39	C	0.985409	-0.000084	-0.405750
C40	C	0.987904	-0.000084	-0.546663
C41	C	0.896782	0.000272	0.381422
C42	C	0.899310	-0.000074	0.234839
C43	C	1.037142	-0.087845	0.261602
C44	C	1.033966	-0.087919	0.408103
C45	C	1.035869	0.086846	0.408620
C46	C	1.036726	0.088007	0.261649
H47	H	0.577426	0.062720	0.019290
N48	N	0.428757	0.078295	0.036891
N49	N	0.353019	0.091495	0.050750
H50	H	0.335867	0.147095	0.099827
H51	H	1.000866	-0.153518	0.435857
N52	N	0.412388	0.169458	-0.176116
N53	N	0.373771	0.162480	-0.079400
H54	H	0.357045	0.219884	-0.033768
H55	H	1.046534	-0.420988	0.029459
H56	H	0.886950	-0.578290	-0.046887
H57	H	1.005756	0.153365	0.439747
H58	H	1.074871	-0.420846	-0.327899
H59	H	0.415465	-0.153102	-0.193618
H60	H	0.547219	0.087876	-0.349469
N61	N	1.121844	0.094659	0.232473
N62	N	1.166746	0.160815	0.274501
H63	H	1.226865	0.165508	0.253901
H64	H	1.100890	-0.091906	0.456995
N65	N	0.850846	-0.078248	0.418629
N66	N	0.776625	-0.090652	0.371867
H67	H	0.744186	-0.146114	0.398133
N68	N	0.995717	0.169480	0.209726
N69	N	0.963446	0.224942	0.281365
H70	H	0.934491	0.282487	0.244684
H71	H	0.547843	-0.091485	-0.346996
N72	N	0.998107	-0.169765	0.207632
N73	N	0.937321	-0.163739	0.123313
H74	H	0.909747	-0.221594	0.085197
H75	H	0.404615	-0.090683	-0.344358
H76	H	1.105479	-0.091114	0.240191
N77	N	1.120189	0.087563	0.469014
N78	N	1.144948	0.024397	0.544679
H79	H	1.204498	0.024893	0.587333
H80	H	0.958638	-0.578734	-0.384189
N81	N	0.952113	-0.412678	-0.407515
N82	N	0.894316	-0.359244	-0.383943
H83	H	0.853090	-0.335526	-0.455669
H84	H	0.578401	-0.062793	0.018422
H85	H	0.560595	0.153438	-0.201545
H86	H	0.434277	-0.063585	0.022541
H87	H	0.559145	-0.153462	-0.195405
H88	H	0.850550	-0.579219	-0.216824
N89	N	0.395562	0.095075	-0.367891
N90	N	0.343906	0.034783	-0.409712
H91	H	0.315332	0.039626	-0.499548
H92	H	0.864077	0.062839	0.191740
H93	H	0.860026	0.063210	0.409506
H94	H	0.850456	-0.420709	-0.218422
H95	H	0.863823	-0.063085	0.192604
H96	H	1.123783	-0.579454	-0.086690
N97	N	1.139917	-0.413633	-0.091093
N98	N	1.197381	-0.469736	-0.106642
H99	H	1.254987	-0.446454	-0.122030
N100	N	1.043909	-0.587472	0.053519
N101	N	0.983343	-0.640280	0.065154
H102	H	0.973013	-0.664135	0.152210
H103	H	1.071004	-0.580402	-0.334643
N104	N	0.881996	-0.412523	-0.024295
N105	N	0.931625	-0.359916	0.040437
H106	H	0.917075	-0.336150	0.125503
