data_functionalizedCrystal
_audit_creation_method	'MofGen! by Chris Wilmer'
_symmetry_space_group_name_H-M	'P1'
_symmetry_Int_Tables_number	1
_symmetry_cell_setting	triclinic
loop_
_symmetry_equiv_pos_as_xyz
  x,y,z
_cell_length_a	15.538191
_cell_length_b	16.176319
_cell_length_c	17.699083
_cell_angle_alpha	90.007696
_cell_angle_beta	114.722446
_cell_angle_gamma	89.990661
loop_
_atom_site_label
_atom_site_type_symbol
_atom_site_fract_x
_atom_site_fract_y
_atom_site_fract_z
O1	O	1.250479	-0.068751	0.245973
O2	O	0.976020	-0.068752	0.158526
O3	O	1.121003	-0.068745	0.314557
O4	O	1.105495	-0.068759	0.089941
O5	O	1.120983	0.068749	0.314559
O6	O	0.976000	0.068741	0.158528
O7	O	1.250459	0.068742	0.245975
Cu8	Cu	1.113227	0.081296	0.202251
Cu9	Cu	1.113251	-0.081306	0.202249
O10	O	1.105475	0.068734	0.089943
C11	C	0.940893	-0.000006	0.149378
C12	C	0.836257	-0.000006	0.122125
N13	N	1.113218	0.195661	0.202255
N14	N	1.113268	-0.195671	0.202253
C15	C	0.549086	-0.000001	0.392872
C16	C	0.450762	-0.000004	0.367245
C17	C	0.427989	-0.000013	0.223099
C18	C	0.526313	-0.000007	0.248714
C19	C	0.586855	-0.000002	0.333602
C20	C	0.564082	-0.000007	0.189444
C21	C	0.662398	-0.000005	0.215057
C22	C	0.722945	-0.000003	0.299940
C23	C	0.685171	0.000000	0.359215
C24	C	0.503539	-0.000018	0.104556
C25	C	0.541308	-0.000018	0.045286
C26	C	0.639625	-0.000010	0.070899
C27	C	0.700173	-0.000008	0.155782
C28	C	0.677400	-0.000013	0.011624
C29	C	0.775716	-0.000011	0.037238
C30	C	0.798489	-0.000006	0.181396
C31	C	1.285585	-0.000006	0.255123
C32	C	1.390221	-0.000012	0.282375
C33	C	1.120438	0.000002	0.342603
C34	C	1.118771	0.000003	0.426166
C35	C	1.177436	0.238928	0.271330
C36	C	1.177441	0.325476	0.271332
C37	C	1.113231	0.368753	0.202256
C38	C	1.049006	0.325480	0.133177
C39	C	1.048998	0.238934	0.133178
C40	C	1.049038	0.674508	0.133172
C41	C	1.049054	0.761059	0.133175
C42	C	1.177481	0.761049	0.271326
C43	C	1.177473	0.674504	0.271327
C44	C	1.113245	0.631238	0.202250
C45	C	1.113239	0.537393	0.202249
C46	C	1.113240	0.462596	0.202254
C47	C	1.106041	-0.000014	0.061897
C48	C	1.107708	-0.000020	-0.021665
C49	C	1.203873	0.000004	0.498041
C50	C	1.202301	-0.000003	0.576554
C51	C	1.115626	-0.000006	0.583192
C52	C	1.030517	-0.000010	0.511309
C53	C	1.032090	-0.000009	0.432797
C54	C	1.024171	-0.000017	0.827938
C55	C	1.022605	-0.000016	0.906458
C56	C	1.194382	-0.000011	0.971696
C57	C	1.195955	-0.000010	0.893184
C58	C	1.110847	-0.000018	0.821308
C59	C	1.112552	-0.000012	0.736175
C60	C	1.113919	-0.000007	0.668323
H61	H	0.847785	0.000003	0.250520
F62	F	1.245787	0.371525	0.344850
F63	F	1.245782	0.192877	0.344850
H64	H	0.628093	-0.000025	-0.057491
F65	F	0.815914	-0.000013	-0.025844
F66	F	1.296126	0.000015	0.490986
H67	H	0.959944	-0.000018	0.516719
H68	H	0.492002	-0.000025	-0.023830
H69	H	0.962790	-0.000010	0.374274
F70	F	0.980709	0.807117	0.059652
F71	F	0.398901	-0.000021	0.077298
F72	F	1.288207	-0.000008	0.886126
F73	F	1.245816	0.628448	0.344845
F74	F	1.292879	-0.000000	0.653047
H75	H	0.803000	-0.000012	0.320793
H76	H	0.734468	0.000009	0.428339
H77	H	0.952019	-0.000017	0.911855
F78	F	0.613525	0.000013	0.483220
F79	F	1.284963	-0.000005	1.048198
H80	H	0.954870	-0.000024	0.769424
H81	H	1.229776	0.796286	0.327574
F82	F	0.410570	0.000007	0.430336
H83	H	0.378683	-0.000020	0.153983
H84	H	0.996744	0.639287	0.076926
F85	F	0.980664	0.371540	0.059663
F86	F	0.980645	0.192887	0.059660
