data_functionalizedCrystal
_audit_creation_method	'MofGen! by Chris Wilmer'
_symmetry_space_group_name_H-M	'P1'
_symmetry_Int_Tables_number	1
_symmetry_cell_setting	triclinic
loop_
_symmetry_equiv_pos_as_xyz
  x,y,z
_cell_length_a	19.805407
_cell_length_b	19.805405
_cell_length_c	19.805399
_cell_angle_alpha	89.970699
_cell_angle_beta	89.980803
_cell_angle_gamma	90.022560
loop_
_atom_site_label
_atom_site_type_symbol
_atom_site_fract_x
_atom_site_fract_y
_atom_site_fract_z
Zn1	Zn	-1.034736	0.269548	0.382705
Zn2	Zn	-0.701402	0.602882	0.716038
Zn3	Zn	-0.368069	0.936215	1.049371
Zn4	Zn	-1.034650	0.382737	0.269513
Zn5	Zn	-0.701317	0.716070	0.602846
Zn6	Zn	-0.367984	1.049403	0.936180
Zn7	Zn	-0.921550	0.269559	0.269530
Zn8	Zn	-0.588217	0.602893	0.602863
Zn9	Zn	-0.254884	0.936226	0.936197
Zn10	Zn	-0.921514	0.382693	0.382661
Zn11	Zn	-0.588180	0.716027	0.715994
Zn12	Zn	-0.254847	1.049360	1.049327
O13	O	-0.978113	0.326134	0.326102
O14	O	-0.644779	0.659468	0.659435
O15	O	-0.311446	0.992801	0.992769
O16	O	-1.129441	0.284577	0.367701
O17	O	-0.796108	0.617910	0.701034
O18	O	-0.462774	0.951243	1.034368
O19	O	-1.019627	0.367746	0.174799
O20	O	-0.686294	0.701080	0.508132
O21	O	-0.352960	1.034413	0.841465
O22	O	-0.936615	0.174841	0.284569
O23	O	-0.603282	0.508175	0.617902
O24	O	-0.269949	0.841508	0.951235
O25	O	-1.129378	0.367736	0.284540
O26	O	-0.796045	0.701069	0.617873
O27	O	-0.462712	1.034402	0.951206
O28	O	-1.019772	0.174833	0.367717
O29	O	-0.686439	0.508167	0.701051
O30	O	-0.353106	0.841500	1.034384
O31	O	-0.936533	0.284596	0.174811
O32	O	-0.603200	0.617929	0.508145
O33	O	-0.269866	0.951262	0.841478
O34	O	-0.826829	0.284553	0.284526
O35	O	-0.493496	0.617887	0.617859
O36	O	-0.160162	0.951220	0.951192
O37	O	-0.936553	0.367661	0.477383
O38	O	-0.603220	0.700995	0.810716
O39	O	-0.269887	1.034328	1.144050
O40	O	-0.826802	0.367672	0.367642
O41	O	-0.493469	0.701005	0.700976
O42	O	-0.160135	1.034339	1.034309
O43	O	-1.019737	0.284534	0.477415
O44	O	-0.686404	0.617868	0.810749
O45	O	-0.353070	0.951201	1.144082
O46	O	-1.019592	0.477448	0.284497
O47	O	-0.686258	0.810781	0.617830
O48	O	-0.352925	1.144114	0.951163
O49	O	-0.936471	0.477416	0.367626
O50	O	-0.603137	0.810749	0.700959
O51	O	-0.269804	1.144082	1.034292
C52	C	-0.802257	0.326110	0.326081
C53	C	-0.468923	0.659443	0.659415
C54	C	-0.135590	0.992776	0.992748
C55	C	-0.727025	0.326115	0.326089
C56	C	-0.393691	0.659449	0.659422
C57	C	-0.060358	0.992782	0.992755
C58	C	-0.691714	0.282890	0.369456
C59	C	-0.358380	0.616224	0.702789
C60	C	-0.025047	0.949557	1.036122
C61	C	-0.621025	0.282892	0.369457
C62	C	-0.287692	0.616226	0.702790
C63	C	0.045641	0.949559	1.036123
C64	C	-0.585649	0.326124	0.326093
C65	C	-0.252316	0.659457	0.659427
C66	C	0.081018	0.992790	0.992760
C67	C	-0.620965	0.369350	0.282721
C68	C	-0.287632	0.702684	0.616055
C69	C	0.045702	1.036017	0.949388
C70	C	-0.691652	0.369344	0.282718
C71	C	-0.358319	0.702678	0.616051
C72	C	-0.024985	1.036011	0.949384
C73	C	-0.335892	0.369375	0.282735
C74	C	-0.002558	0.702708	0.616069
C75	C	0.330775	1.036042	0.949402
C76	C	-0.265199	0.369379	0.282744
C77	C	0.068134	0.702713	0.616077
C78	C	0.401467	1.036046	0.949410
C79	C	-0.265265	0.282923	0.369474
C80	C	0.068069	0.616256	0.702808
C81	C	0.401402	0.949590	1.036141
C82	C	-0.335952	0.282917	0.369470
C83	C	-0.002619	0.616250	0.702804
C84	C	0.330715	0.949584	1.036137
C85	C	-0.371262	0.326141	0.326096
C86	C	-0.037928	0.659475	0.659430
C87	C	0.295405	0.992808	0.992763
C88	C	-0.447910	0.326137	0.326095
C89	C	-0.114577	0.659471	0.659428
C90	C	0.218757	0.992804	0.992762
C91	C	-0.509002	0.326131	0.326098
C92	C	-0.175669	0.659465	0.659431
C93	C	0.157665	0.992798	0.992764
C94	C	-0.978036	0.501991	0.326069
C95	C	-0.644703	0.835324	0.659403
C96	C	-0.311370	1.168657	0.992736
C97	C	-0.978066	0.577222	0.326078
C98	C	-0.644732	0.910556	0.659411
C99	C	-0.311399	1.243889	0.992745
C100	C	-0.978151	0.326092	0.502645
C101	C	-0.644817	0.659425	0.835978
C102	C	-0.311484	0.992758	1.169312
C103	C	-0.978167	0.326074	0.577877
C104	C	-0.644833	0.659407	0.911210
C105	C	-0.311500	0.992740	1.244544
C106	C	-0.154655	0.326155	0.326117
C107	C	0.178678	0.659488	0.659451
C108	C	0.512011	0.992821	0.992784
C109	C	-0.229887	0.326150	0.326108
C110	C	0.103446	0.659484	0.659441
C111	C	0.436779	0.992817	0.992775
C112	C	-0.978207	0.149592	0.326150
C113	C	-0.644874	0.482925	0.659483
C114	C	-0.311541	0.816258	0.992816
C115	C	-0.978248	0.074360	0.326170
C116	C	-0.644915	0.407693	0.659503
C117	C	-0.311581	0.741026	0.992837
C118	C	-1.021389	0.612561	0.282838
C119	C	-0.688056	0.945894	0.616171
C120	C	-0.354722	1.279227	0.949505
C121	C	-1.021418	0.683249	0.282853
C122	C	-0.688084	1.016583	0.616186
C123	C	-0.354751	1.349916	0.949520
C124	C	-0.978119	0.718598	0.326105
C125	C	-0.644786	1.051931	0.659438
C126	C	-0.311453	1.385265	0.992772
C127	C	-0.934794	0.683255	0.369350
C128	C	-0.601461	1.016588	0.702683
C129	C	-0.268128	1.349921	1.036016
C130	C	-0.934769	0.612568	0.369338
C131	C	-0.601436	0.945901	0.702671
C132	C	-0.268103	1.279234	1.036004
C133	C	-0.934894	0.968328	0.369400
C134	C	-0.601561	1.301661	0.702733
C135	C	-0.268227	1.634995	1.036067
C136	C	-0.934921	1.039020	0.369407
C137	C	-0.601587	1.372353	0.702740
C138	C	-0.268254	1.705687	1.036074
C139	C	-1.021542	1.039010	0.282915
C140	C	-0.688209	1.372343	0.616249
C141	C	-0.354876	1.705676	0.949582
C142	C	-1.021517	0.968322	0.282903
C143	C	-0.688184	1.301656	0.616237
C144	C	-0.354851	1.634989	0.949570
C145	C	-0.978195	0.932985	0.326150
C146	C	-0.644862	1.266319	0.659483
C147	C	-0.311529	1.599652	0.992817
C148	C	-0.978165	0.856337	0.326134
C149	C	-0.644832	1.189670	0.659468
C150	C	-0.311499	1.523004	0.992801
C151	C	-0.978145	0.795245	0.326118
C152	C	-0.644812	1.128578	0.659451
C153	C	-0.311478	1.461912	0.992785
C154	C	-0.978114	0.326128	0.150246
C155	C	-0.644780	0.659461	0.483579
C156	C	-0.311447	0.992795	0.816913
C157	C	-0.978229	0.325956	0.075015
C158	C	-0.644895	0.659289	0.408348
C159	C	-0.311562	0.992622	0.741681
C160	C	-1.021481	0.282787	0.613239
C161	C	-0.688148	0.616121	0.946572
C162	C	-0.354815	0.949454	1.279906
C163	C	-1.021488	0.282768	0.683928
C164	C	-0.688155	0.616101	1.017261
C165	C	-0.354822	0.949434	1.350594
C166	C	-0.978184	0.326038	0.719253
C167	C	-0.644850	0.659372	1.052586
C168	C	-0.311517	0.992705	1.385919
C169	C	-0.934864	0.369327	0.683886
C170	C	-0.601531	0.702660	1.017219
C171	C	-0.268197	1.035993	1.350552
C172	C	-0.934854	0.369342	0.613198
C173	C	-0.601521	0.702676	0.946532
C174	C	-0.268188	1.036009	1.279865
C175	C	-0.934902	0.369264	0.968959
C176	C	-0.601569	0.702597	1.302292
C177	C	-0.268236	1.035930	1.635626
C178	C	-0.934917	0.369246	1.039651
C179	C	-0.601584	0.702579	1.372984
C180	C	-0.268250	1.035913	1.706318
C181	C	-1.021536	0.282689	1.039688
C182	C	-0.688203	0.616022	1.373022
C183	C	-0.354870	0.949356	1.706355
C184	C	-1.021527	0.282705	0.969001
C185	C	-0.688193	0.616038	1.302334
C186	C	-0.354860	0.949371	1.635668
C187	C	-0.978205	0.325990	0.933640
C188	C	-0.644872	0.659323	1.266973
C189	C	-0.311538	0.992657	1.600307
C190	C	-0.978197	0.326010	0.856992
C191	C	-0.644864	0.659343	1.190325
C192	C	-0.311530	0.992677	1.523658
C193	C	-0.978194	0.326022	0.795900
C194	C	-0.644861	0.659356	1.129233
C195	C	-0.311528	0.992689	1.462566
H196	H	-0.364632	0.404571	0.247418
H197	H	-0.031299	0.737905	0.580751
H198	H	0.302034	1.071238	0.914085
H199	H	-1.056773	0.939544	0.247681
H200	H	-0.723439	1.272877	0.581014
H201	H	-0.390106	1.606210	0.914348
F202	F	-0.227551	0.415393	0.236587
F203	F	0.105783	0.748726	0.569920
F204	F	0.439116	1.082059	0.903254
F205	F	-0.729357	0.236880	0.415613
F206	F	-0.396024	0.570214	0.748946
F207	F	-0.062691	0.903547	1.082280
F208	F	-0.583313	0.415357	0.236567
F209	F	-0.249980	0.748690	0.569900
F210	F	0.083354	1.082023	0.903234
H211	H	-1.056820	1.067790	0.247704
H212	H	-0.723487	1.401123	0.581037
H213	H	-0.390153	1.734456	0.914371
H214	H	-0.899543	0.712041	0.404569
H215	H	-0.566210	1.045375	0.737902
H216	H	-0.232876	1.378708	1.071236
H217	H	-0.899576	0.404584	0.584407
H218	H	-0.566243	0.737917	0.917741
H219	H	-0.232909	1.071250	1.251074
H220	H	-1.056695	0.712019	0.247642
H221	H	-0.723362	1.045352	0.580976
H222	H	-0.390029	1.378685	0.914309
H223	H	-1.056747	0.247553	0.584482
H224	H	-0.723414	0.580887	0.917816
H225	H	-0.390081	0.914220	1.251149
H226	H	-0.899618	0.939562	0.404612
H227	H	-0.566285	1.272895	0.737945
H228	H	-0.232952	1.606229	1.071278
H229	H	-0.899663	1.067799	0.404633
H230	H	-0.566330	1.401132	0.737967
H231	H	-0.232996	1.734466	1.071300
F232	F	-0.373598	0.236908	0.415626
F233	F	-0.040265	0.570241	0.748960
F234	F	0.293069	0.903575	1.082293
F235	F	-0.227680	0.236918	0.415636
F236	F	0.105653	0.570251	0.748969
F237	F	0.438987	0.903585	1.082302
H238	H	-1.056761	0.247521	0.712716
H239	H	-0.723428	0.580854	1.046050
H240	H	-0.390094	0.914188	1.379383
H241	H	-0.720401	0.404542	0.247403
H242	H	-0.387068	0.737876	0.580736
H243	H	-0.053735	1.071209	0.914070
H244	H	-1.056809	0.247441	1.068488
H245	H	-0.723475	0.580775	1.401821
H246	H	-0.390142	0.914108	1.735154
H247	H	-0.899492	0.583796	0.404549
H248	H	-0.566159	0.917129	0.737882
H249	H	-0.232826	1.250462	1.071216
F250	F	-1.067470	0.574946	0.236798
F251	F	-0.734136	0.908280	0.570132
F252	F	-0.400803	1.241613	0.903465
H253	H	-0.899650	0.404483	1.068411
H254	H	-0.566317	0.737817	1.401744
H255	H	-0.232983	1.071150	1.735077
H256	H	-0.899637	0.404519	0.940177
H257	H	-0.566304	0.737852	1.273510
H258	H	-0.232970	1.071186	1.606843
F259	F	-0.888773	0.415376	0.721483
F260	F	-0.555440	0.748709	1.054816
F261	F	-0.222106	1.082043	1.388150
F262	F	-1.067620	0.236653	0.931409
F263	F	-0.734286	0.569986	1.264743
F264	F	-0.400953	0.903319	1.598076
H265	H	-0.592278	0.247696	0.404772
H266	H	-0.258945	0.581029	0.738105
H267	H	0.074389	0.914362	1.071438
