data_functionalizedCrystal
_audit_creation_method	'MofGen! by Chris Wilmer'
_symmetry_space_group_name_H-M	'P1'
_symmetry_Int_Tables_number	1
_symmetry_cell_setting	triclinic
loop_
_symmetry_equiv_pos_as_xyz
  x,y,z
_cell_length_a	13.262390
_cell_length_b	14.519731
_cell_length_c	12.376897
_cell_angle_alpha	77.353232
_cell_angle_beta	92.995385
_cell_angle_gamma	84.075143
loop_
_atom_site_label
_atom_site_type_symbol
_atom_site_fract_x
_atom_site_fract_y
_atom_site_fract_z
O1	O	1.298602	0.041021	0.493239
O2	O	1.798602	0.541021	0.993239
O3	O	1.010009	0.069492	0.404517
O4	O	1.510009	0.569492	0.904517
O5	O	1.161948	-0.079356	0.451218
O6	O	1.661948	0.420644	0.951218
O7	O	1.146663	0.189869	0.446539
O8	O	1.646663	0.689869	0.946539
O9	O	1.195896	-0.049409	0.273658
O10	O	1.695896	0.450591	0.773658
O11	O	1.043957	0.099439	0.226958
O12	O	1.543957	0.599439	0.726958
O13	O	1.332551	0.070967	0.315680
O14	O	1.832551	0.570967	0.815680
Zn15	Zn	1.193644	0.089958	0.243128
Zn16	Zn	1.693644	0.589958	0.743128
Zn17	Zn	1.148916	0.050502	0.477070
Zn18	Zn	1.648916	0.550502	0.977070
O19	O	1.180611	0.219815	0.268980
O20	O	1.680611	0.719815	0.768980
C21	C	0.990049	0.085624	0.304383
C22	C	1.490049	0.585624	0.804383
C23	C	0.879995	0.089064	0.270549
C24	C	1.379995	0.589064	0.770549
C25	C	0.495758	0.033451	0.562344
C26	C	0.995758	0.533451	1.062344
C27	C	0.599159	0.030214	0.594135
C28	C	1.099159	0.530214	1.094135
C29	C	0.669373	0.044927	0.513241
C30	C	1.169373	0.544927	1.013241
C31	C	0.636176	0.062876	0.400552
C32	C	1.136176	0.562876	0.900552
C33	C	0.532767	0.066106	0.368758
C34	C	1.032767	0.566106	0.868758
C35	C	0.706381	0.077582	0.319655
C36	C	1.206381	0.577582	0.819655
C37	C	0.673185	0.095531	0.206966
C38	C	1.173185	0.595531	0.706966
C39	C	0.569785	0.098761	0.175178
C40	C	1.069785	0.598761	0.675178
C41	C	0.499571	0.084049	0.256072
C42	C	0.999571	0.584049	0.756072
C43	C	0.809791	0.074352	0.351448
C44	C	1.309791	0.574352	0.851448
C45	C	0.846800	0.107007	0.157862
C46	C	1.346800	0.607007	0.657862
C47	C	0.743399	0.110244	0.126072
C48	C	1.243399	0.610244	0.626072
C49	C	1.178206	-0.098707	0.362218
C50	C	1.678206	0.401293	0.862218
C51	C	1.176061	-0.200981	0.361557
C52	C	1.676061	0.299019	0.861557
C53	C	1.174317	-0.284040	0.361024
C54	C	1.674317	0.215960	0.861024
C55	C	1.172137	-0.388242	0.360362
C56	C	1.672137	0.111758	0.860362
C57	C	1.170407	-0.471297	0.359838
C58	C	1.670407	0.028703	0.859838
C59	C	1.168227	-0.575506	0.359174
C60	C	1.668227	-0.075506	0.859174
C61	C	1.352511	0.054835	0.415817
C62	C	1.852511	0.554835	0.915817
C63	C	1.462562	0.051394	0.449657
C64	C	1.962562	0.551394	0.949657
C65	C	1.164353	0.239166	0.357982
C66	C	1.664353	0.739166	0.857982
C67	C	1.166497	0.341439	0.358649
C68	C	1.666497	0.841439	0.858649
N69	N	1.224177	0.116884	0.083471
N70	N	1.724177	0.616884	0.583471
C71	C	1.047476	-0.038943	-0.325921
C72	C	1.547476	0.461057	0.174079
C73	C	1.026090	-0.057790	-0.214166
C74	C	1.526090	0.442210	0.285834
C75	C	1.075610	-0.014123	-0.139752
C76	C	1.575610	0.485877	0.360248
C77	C	1.146520	0.048394	-0.177103
C78	C	1.646520	0.548394	0.322897
C79	C	1.167914	0.067238	-0.288867
C80	C	1.667914	0.567238	0.211133
C81	C	1.196048	0.092058	-0.102697
C82	C	1.696048	0.592058	0.397303
C83	C	1.266958	0.154575	-0.140048
C84	C	1.766958	0.654575	0.359952
C85	C	1.288348	0.173416	-0.251802
C86	C	1.788348	0.673416	0.248198
C87	C	1.238828	0.129749	-0.326217
C88	C	1.738828	0.629749	0.173783
C89	C	1.174653	0.073214	0.009067
C90	C	1.674653	0.573214	0.509067
C91	C	1.295091	0.179395	0.046121
C92	C	1.795091	0.679395	0.546121
C93	C	1.316477	0.198242	-0.065634
C94	C	1.816477	0.698242	0.434366
N95	N	1.118390	0.023568	0.636729
N96	N	1.618390	0.523568	1.136729
H97	H	0.836809	0.059739	0.443201
H98	H	1.336809	0.559739	0.943201
H99	H	0.438584	0.021465	0.628196
H100	H	0.938584	0.521465	1.128196
H101	H	0.753565	0.042291	0.539132
H102	H	1.253565	0.542291	1.039132
H103	H	0.626180	0.015595	0.685886
H104	H	1.126180	0.515595	1.185886
H105	H	0.903969	0.118985	0.091992
H106	H	1.403969	0.618985	0.591992
H107	H	0.415371	0.086687	0.230193
H108	H	0.915371	0.586687	0.730193
H109	H	0.542763	0.113360	0.083420
H110	H	1.042763	0.613360	0.583420
H111	H	0.716355	0.124858	0.034318
H112	H	1.216355	0.624858	0.534318
H113	H	1.116917	0.022313	0.039466
H114	H	1.616917	0.522313	0.539466
H115	H	1.346096	0.224313	-0.282206
H116	H	1.846096	0.724313	0.217794
H117	H	1.058192	-0.029472	-0.048757
H118	H	1.558192	0.470528	0.451243
H119	H	1.256233	0.145096	-0.417220
H120	H	1.756233	0.645096	0.082780
H121	H	0.968358	-0.108695	-0.183763
H122	H	1.468358	0.391305	0.316237
H123	H	1.374213	0.249145	-0.096061
H124	H	1.874213	0.749145	0.403939
H125	H	1.007172	-0.074497	-0.386516
H126	H	1.507172	0.425503	0.113484
H127	H	1.335415	0.214952	0.106710
H128	H	1.835415	0.714952	0.606710
