data_functionalizedCrystal
_audit_creation_method	'MofGen! by Chris Wilmer'
_symmetry_space_group_name_H-M	'P1'
_symmetry_Int_Tables_number	1
_symmetry_cell_setting	triclinic
loop_
_symmetry_equiv_pos_as_xyz
  x,y,z
_cell_length_a	10.723022
_cell_length_b	14.519709
_cell_length_c	9.798715
_cell_angle_alpha	89.995905
_cell_angle_beta	89.996609
_cell_angle_gamma	84.073685
loop_
_atom_site_label
_atom_site_type_symbol
_atom_site_fract_x
_atom_site_fract_y
_atom_site_fract_z
O1	O	1.655979	0.129340	-0.113485
O2	O	2.155979	0.629340	0.386515
O3	O	1.292711	0.141723	-0.113490
O4	O	1.792711	0.641723	0.386510
O5	O	1.483976	0.001342	-0.113475
O6	O	1.983976	0.501342	0.386525
O7	O	1.464713	0.269721	-0.113500
O8	O	1.964713	0.769721	0.386500
O9	O	1.483962	0.001342	0.113507
O10	O	1.983962	0.501342	0.613507
O11	O	1.292696	0.141723	0.113492
O12	O	1.792696	0.641723	0.613492
O13	O	1.655965	0.129340	0.113497
O14	O	2.155965	0.629340	0.613497
Zn15	Zn	1.474328	0.135531	0.149533
Zn16	Zn	1.974328	0.635531	0.649533
Zn17	Zn	1.474347	0.135532	-0.149526
Zn18	Zn	1.974347	0.635532	0.350474
O19	O	1.464699	0.269721	0.113482
O20	O	1.964699	0.769721	0.613482
C21	C	1.246212	0.140822	0.000000
C22	C	1.746212	0.640822	0.500000
C23	C	1.107683	0.138127	-0.000001
C24	C	1.607683	0.638127	0.499999
C25	C	1.059879	0.057174	0.000005
C26	C	1.559879	0.557174	0.500005
C27	C	0.916702	0.054387	0.000004
C28	C	1.416702	0.554387	0.500004
C29	C	1.483071	-0.033022	0.000016
C30	C	1.983071	0.466978	0.500016
C31	C	1.480381	-0.135417	0.000017
C32	C	1.980381	0.364583	0.500017
C33	C	1.470477	-0.510363	-0.000019
C34	C	1.970477	-0.010363	0.499981
C35	C	1.473228	-0.406041	-0.000009
C36	C	1.973228	0.093959	0.499991
C37	C	1.475429	-0.322894	0.000000
C38	C	1.975429	0.177106	0.500000
C39	C	1.478180	-0.218565	0.000008
C40	C	1.978180	0.281435	0.500008
C41	C	1.702463	0.130241	0.000003
C42	C	2.202463	0.630241	0.500003
C43	C	1.840992	0.132936	-0.000004
C44	C	2.340992	0.632936	0.499996
C45	C	1.465604	0.304085	-0.000012
C46	C	1.965604	0.804085	0.499988
C47	C	1.468294	0.406480	-0.000022
C48	C	1.968294	0.906480	0.499978
N49	N	1.474325	0.135530	0.353632
N50	N	1.974325	0.635530	0.853632
N51	N	1.474361	0.135525	-0.353626
N52	N	1.974361	0.635525	0.146374
C53	C	1.554634	0.076329	0.421415
C54	C	2.054634	0.576329	0.921415
C55	C	1.554654	0.076326	0.578578
C56	C	2.054654	0.576326	1.078578
H57	H	0.882147	0.202251	-0.000002
H58	H	1.382147	0.702251	0.499998
F59	F	1.384465	0.201774	0.429854
F60	F	1.884465	0.701774	0.929854
F61	F	1.022636	0.226022	-0.000020
F62	F	1.522636	0.726022	0.499980
H63	H	1.623372	0.025642	0.363098
H64	H	2.123372	0.525642	0.863098
F65	F	0.862903	-0.036211	0.000021
F66	F	1.362903	0.463789	0.500021
F67	F	1.384490	0.201784	0.570196
F68	F	1.884490	0.701784	1.070196
F69	F	1.144926	-0.030721	0.000010
F70	F	1.644926	0.469279	0.500010
F71	F	1.644533	0.010079	0.654765
F72	F	2.144533	0.510079	1.154765
