data_functionalizedCrystal
_audit_creation_method	'MofGen! by Chris Wilmer'
_symmetry_space_group_name_H-M	'P1'
_symmetry_Int_Tables_number	1
_symmetry_cell_setting	triclinic
loop_
_symmetry_equiv_pos_as_xyz
  x,y,z
_cell_length_a	15.944499
_cell_length_b	15.712078
_cell_length_c	14.421503
_cell_angle_alpha	89.993655
_cell_angle_beta	89.992178
_cell_angle_gamma	101.529379
loop_
_atom_site_label
_atom_site_type_symbol
_atom_site_fract_x
_atom_site_fract_y
_atom_site_fract_z
O1	O	1.148729	0.111267	-0.077167
O2	O	1.648729	0.611267	0.422833
O3	O	0.908410	0.125058	-0.077157
O4	O	1.408410	0.625058	0.422843
O5	O	0.996599	-0.007661	-0.077156
O6	O	1.496599	0.492339	0.422844
O7	O	1.060540	0.243986	-0.077168
O8	O	1.560540	0.743986	0.422832
O9	O	0.996583	-0.007675	0.077067
O10	O	1.496583	0.492325	0.577067
O11	O	0.908394	0.125043	0.077066
O12	O	1.408394	0.625043	0.577066
O13	O	1.148713	0.111253	0.077056
O14	O	1.648713	0.611253	0.577056
Cu15	Cu	1.028552	0.118147	0.091143
Cu16	Cu	1.528552	0.618147	0.591143
Cu17	Cu	1.028571	0.118164	-0.091244
Cu18	Cu	1.528571	0.618164	0.408756
O19	O	1.060524	0.243972	0.077055
O20	O	1.560524	0.743972	0.577055
C21	C	0.876933	0.124486	-0.000044
C22	C	1.376933	0.624486	0.499956
C23	C	0.783165	0.122793	-0.000040
C24	C	1.283165	0.622793	0.499960
C25	C	0.515314	0.199899	-0.000058
C26	C	1.015314	0.699899	0.499942
C27	C	0.564039	0.159825	-0.076097
C28	C	1.064039	0.659825	0.423903
C29	C	0.445640	0.116644	-0.000061
C30	C	0.945640	0.616644	0.499939
C31	C	0.564002	0.159788	0.075955
C32	C	1.064002	0.659788	0.575955
C33	C	0.611478	0.119670	-0.000049
C34	C	1.111478	0.619670	0.499951
C35	C	0.493130	0.076546	-0.076164
C36	C	0.993130	0.576546	0.423836
C37	C	0.493090	0.076521	0.075957
C38	C	0.993090	0.576521	0.575957
C39	C	0.541779	0.036386	-0.000102
C40	C	1.041779	0.536386	0.499898
C41	C	0.350105	0.114903	-0.000069
C42	C	0.850105	0.614903	0.499931
C43	C	0.707010	0.121404	-0.000048
C44	C	1.207010	0.621404	0.499952
C45	C	0.986145	-0.039870	-0.000045
C46	C	1.486145	0.460130	0.499955
C47	C	0.955009	-0.135821	-0.000046
C48	C	1.455009	0.364179	0.499954
C49	C	1.219357	-0.502953	-0.000066
C50	C	1.719357	-0.002953	0.499934
C51	C	1.190081	-0.593110	-0.000065
C52	C	1.690081	-0.093110	0.499935
C53	C	1.043387	-0.572475	-0.000059
C54	C	1.543387	-0.072475	0.499941
C55	C	1.072651	-0.482313	-0.000056
C56	C	1.572651	0.017687	0.499944
C57	C	1.160636	-0.447560	-0.000061
C58	C	1.660636	0.052440	0.499939
C59	C	1.013930	-0.426921	-0.000050
C60	C	1.513930	0.073079	0.499950
C61	C	1.043192	-0.336767	-0.000052
C62	C	1.543192	0.163233	0.499948
C63	C	1.131174	-0.302006	-0.000060
C64	C	1.631174	0.197994	0.499940
C65	C	1.189898	-0.357406	-0.000063
C66	C	1.689898	0.142594	0.499937
C67	C	0.925945	-0.461676	-0.000052
C68	C	1.425945	0.038324	0.499948
C69	C	0.867225	-0.406283	-0.000047
C70	C	1.367225	0.093717	0.499953
C71	C	0.896486	-0.316128	-0.000042
C72	C	1.396486	0.183872	0.499958
C73	C	0.984468	-0.281367	-0.000049
C74	C	1.484468	0.218633	0.499951
C75	C	0.837762	-0.260728	-0.000039
C76	C	1.337762	0.239272	0.499961
C77	C	0.867024	-0.170575	-0.000041
C78	C	1.367024	0.329425	0.499959
C79	C	1.013730	-0.191214	-0.000051
C80	C	1.513730	0.308786	0.499949
C81	C	1.180189	0.111825	-0.000059
C82	C	1.680189	0.611825	0.499941
C83	C	1.273958	0.113517	-0.000069
C84	C	1.773958	0.613517	0.499931
C85	C	1.070978	0.276181	-0.000058
C86	C	1.570978	0.776181	0.499942
C87	C	1.102113	0.372132	-0.000064
C88	C	1.602113	0.872132	0.499936
N89	N	1.028544	0.118135	0.219424
N90	N	1.528544	0.618135	0.719424
N91	N	1.028583	0.118169	-0.219525
N92	N	1.528583	0.618169	0.280475
C93	C	1.068726	0.056277	0.530853
C94	C	1.568726	0.556277	1.030853
C95	C	1.109630	0.134140	0.469012
C96	C	1.609630	0.634140	0.969012
C97	C	1.028571	0.118159	0.591313
C98	C	1.528571	0.618159	1.091313
C99	C	0.987693	0.040287	0.469060
C100	C	1.487693	0.540287	0.969060
C101	C	1.028559	0.118143	0.408592
C102	C	1.528559	0.618143	0.908592
C103	C	1.069525	0.196061	0.530833
C104	C	1.569525	0.696061	1.030833
C105	C	0.947540	0.102157	0.530886
C106	C	1.447540	0.602157	1.030886
C107	C	0.988430	0.180076	0.469073
C108	C	1.488430	0.680076	0.969073
C109	C	1.028580	0.118168	0.696574
C110	C	1.528580	0.618168	1.196574
C111	C	1.028552	0.118144	0.303333
C112	C	1.528552	0.618144	0.803333
H113	H	0.462351	0.041371	-0.140522
H114	H	0.962351	0.541371	0.359478
F115	F	0.604380	0.205825	0.159976
F116	F	1.104380	0.705825	0.659976
H117	H	1.085376	-0.162916	-0.000046
H118	H	1.585376	0.337084	0.499954
H119	H	0.879028	0.088598	0.558085
H120	H	1.379028	0.588598	1.058085
F121	F	1.113182	-0.012038	0.566313
F122	F	1.613182	0.487962	1.066313
H123	H	0.553714	-0.032770	-0.000139
H124	H	1.053714	0.467230	0.499861
F125	F	0.604447	0.205858	-0.160130
F126	F	1.104447	0.705858	0.339870
F127	F	1.162317	-0.206056	-0.000066
F128	F	1.662317	0.293944	0.499934
H129	H	0.953127	-0.025562	0.441925
H130	H	1.453127	0.474438	0.941925
H131	H	1.178154	0.147674	0.441834
H132	H	1.678154	0.647674	0.941834
H133	H	1.104166	0.261926	0.557854
H134	H	1.604166	0.761926	1.057854
F135	F	0.499487	0.290208	-0.000156
F136	F	0.999487	0.790208	0.499844
H137	H	0.462159	0.041330	0.140248
H138	H	0.962159	0.541330	0.640248
F139	F	0.944057	0.248540	0.433835
F140	F	1.444057	0.748540	0.933835
H141	H	1.261544	-0.329108	-0.000057
H142	H	1.761544	0.170892	0.499943
H143	H	1.237905	-0.638210	-0.000075
H144	H	1.737905	-0.138210	0.499925
F145	F	0.949749	-0.609472	-0.000061
F146	F	1.449749	-0.109472	0.499939
F147	F	1.313001	-0.465961	-0.000046
F148	F	1.813001	0.034039	0.499954
F149	F	0.773587	-0.443280	-0.000049
F150	F	1.273587	0.056720	0.499951
F151	F	0.804527	-0.111618	-0.000035
F152	F	1.304527	0.388382	0.499965
F153	F	0.894804	-0.557627	0.000008
F154	F	1.394804	-0.057627	0.500008
F155	F	0.744125	-0.297727	-0.000050
F156	F	1.244125	0.202273	0.499950
