data_functionalizedCrystal
_audit_creation_method	'MofGen! by Chris Wilmer'
_symmetry_space_group_name_H-M	'P1'
_symmetry_Int_Tables_number	1
_symmetry_cell_setting	triclinic
loop_
_symmetry_equiv_pos_as_xyz
  x,y,z
_cell_length_a	12.827892
_cell_length_b	12.827893
_cell_length_c	18.215399
_cell_angle_alpha	89.980568
_cell_angle_beta	90.023838
_cell_angle_gamma	89.986398
loop_
_atom_site_label
_atom_site_type_symbol
_atom_site_fract_x
_atom_site_fract_y
_atom_site_fract_z
Zn1	Zn	-0.416094	-1.597653	0.416129
Zn2	Zn	0.083906	-1.097653	0.916129
Zn3	Zn	-0.590853	-1.597552	0.293072
Zn4	Zn	-0.090853	-1.097552	0.793072
Zn5	Zn	-0.416121	-1.422900	0.293077
Zn6	Zn	0.083879	-0.922900	0.793077
Zn7	Zn	-0.590788	-1.422880	0.416097
Zn8	Zn	-0.090788	-0.922880	0.916097
O9	O	-0.503464	-1.510246	0.354594
O10	O	-0.003464	-1.010246	0.854594
O11	O	-0.439292	-1.743876	0.399816
O12	O	0.060708	-1.243876	0.899816
O13	O	-0.567713	-1.574350	0.190088
O14	O	-0.067713	-1.074350	0.690088
O15	O	-0.269881	-1.446132	0.309416
O16	O	0.230119	-0.946132	0.809416
O17	O	-0.567686	-1.743802	0.309406
O18	O	-0.067686	-1.243802	0.809406
O19	O	-0.269861	-1.574522	0.399822
O20	O	0.230139	-1.074522	0.899822
O21	O	-0.439338	-1.446034	0.190092
O22	O	0.060662	-0.946034	0.690092
O23	O	-0.439275	-1.276661	0.309385
O24	O	0.060725	-0.776661	0.809385
O25	O	-0.567576	-1.446098	0.519086
O26	O	-0.067576	-0.946098	1.019086
O27	O	-0.567602	-1.276647	0.399768
O28	O	-0.067602	-0.776647	0.899768
O29	O	-0.439229	-1.574504	0.519109
O30	O	0.060771	-1.074504	1.019109
O31	O	-0.737080	-1.574331	0.309376
O32	O	-0.237080	-1.074331	0.809376
O33	O	-0.737033	-1.446000	0.399762
O34	O	-0.237033	-0.946000	0.899762
C35	C	-0.503435	-1.238736	0.354574
C36	C	-0.003435	-0.738736	0.854574
C37	C	-0.503448	-1.122583	0.354583
C38	C	-0.003448	-0.622583	0.854583
C39	C	-0.567058	-0.950775	0.399245
C40	C	-0.067058	-0.450775	0.899245
C41	C	-0.567046	-1.070825	0.399237
C42	C	-0.067046	-0.570825	0.899237
C43	C	-0.774974	-1.510181	0.354581
C44	C	-0.274974	-1.010181	0.854581
C45	C	-0.891127	-1.510249	0.354600
C46	C	-0.391127	-1.010249	0.854600
C47	C	-0.942901	-1.573826	0.309923
C48	C	-0.442901	-1.073826	0.809923
C49	C	-1.062951	-1.573898	0.309942
C50	C	-0.562951	-1.073898	0.809942
C51	C	-0.230894	-1.510340	0.354623
C52	C	0.269106	-1.010340	0.854623
C53	C	-0.114741	-1.510381	0.354635
C54	C	0.385259	-1.010381	0.854635
C55	C	-0.503392	-1.510310	0.546547
C56	C	-0.003392	-1.010310	1.046547
C57	C	-0.503361	-1.510337	0.628346
C58	C	-0.003361	-1.010337	1.128346
C59	C	-0.503485	-0.782816	0.354608
C60	C	-0.003485	-0.282816	0.854608
C61	C	-0.503472	-0.898970	0.354599
C62	C	-0.003472	-0.398970	0.854599
C63	C	-0.503460	-1.510243	0.163388
C64	C	-0.003460	-1.010243	0.663388
C65	C	-0.503197	-1.510418	0.081589
C66	C	-0.003197	-1.010418	0.581589
C67	C	-0.436468	-1.577222	0.816553
C68	C	0.063532	-1.077222	1.316553
C69	C	-0.436438	-1.577234	0.893412
C70	C	0.063562	-1.077234	1.393412
C71	C	-0.570092	-1.443526	0.893376
C72	C	-0.070092	-0.943526	1.393376
C73	C	-0.570117	-1.443509	0.816519
C74	C	-0.070117	-0.943509	1.316519
C75	C	-0.503306	-1.510363	0.778109
C76	C	-0.003306	-1.010363	1.278109
C77	C	-0.503251	-1.510392	0.931825
C78	C	-0.003251	-1.010392	1.431825
C79	C	-0.503219	-1.510406	1.015159
C80	C	-0.003219	-1.010406	1.515159
C81	C	-0.503337	-1.510349	0.694770
C82	C	-0.003337	-1.010349	1.194770
H83	H	-0.449028	-0.943494	0.316367
H84	H	0.050972	-0.443494	0.816367
H85	H	-0.382010	-1.631676	0.924709
H86	H	0.117990	-1.131676	1.424709
Cl87	Cl	-0.651141	-0.882041	0.458260
Cl88	Cl	-0.151141	-0.382041	0.958260
H89	H	-0.621480	-1.115376	0.437463
H90	H	-0.121480	-0.615376	0.937463
H91	H	-1.107475	-1.628326	0.271691
H92	H	-0.607475	-1.128326	0.771691
Cl93	Cl	-0.874126	-1.657793	0.250850
Cl94	Cl	-0.374126	-1.157793	0.750850
Cl95	Cl	-1.046011	-1.426330	0.413690
Cl96	Cl	-0.546011	-0.926330	0.913690
Cl97	Cl	-0.959902	-1.426294	0.413682
Cl98	Cl	-0.459902	-0.926294	0.913682
Cl99	Cl	-0.419386	-1.053813	0.295568
Cl100	Cl	0.080614	-0.553813	0.795568
H101	H	-0.382064	-1.631655	0.785282
H102	H	0.117936	-1.131655	1.285282
Cl103	Cl	-0.654084	-1.359492	0.941668
Cl104	Cl	-0.154084	-0.859492	1.441668
H105	H	-0.624543	-1.389058	0.785217
H106	H	-0.124543	-0.889058	1.285217
