data_functionalizedCrystal
_audit_creation_method	'MofGen! by Chris Wilmer'
_symmetry_space_group_name_H-M	'P1'
_symmetry_Int_Tables_number	1
_symmetry_cell_setting	triclinic
loop_
_symmetry_equiv_pos_as_xyz
  x,y,z
_cell_length_a	16.625548
_cell_length_b	16.625546
_cell_length_c	19.805399
_cell_angle_alpha	89.970726
_cell_angle_beta	89.984078
_cell_angle_gamma	90.023536
loop_
_atom_site_label
_atom_site_type_symbol
_atom_site_fract_x
_atom_site_fract_y
_atom_site_fract_z
Zn1	Zn	1.232643	-0.320986	-0.382701
Zn2	Zn	1.232558	-0.455827	-0.269512
Zn3	Zn	1.097816	-0.321014	-0.269527
Zn4	Zn	1.097776	-0.455783	-0.382661
O5	O	1.165198	-0.388402	-0.326100
O6	O	1.345464	-0.338880	-0.367697
O7	O	1.214665	-0.437973	-0.174798
O8	O	1.115754	-0.208178	-0.284563
O9	O	1.345401	-0.437946	-0.284537
O10	O	1.214811	-0.208157	-0.367711
O11	O	1.115671	-0.338927	-0.174809
O12	O	0.984978	-0.338885	-0.284524
O13	O	1.115685	-0.437872	-0.477383
O14	O	0.984949	-0.437899	-0.367643
O15	O	1.214772	-0.338837	-0.477412
O16	O	1.214626	-0.568653	-0.284498
O17	O	1.115602	-0.568621	-0.367628
C18	C	0.955707	-0.388391	-0.326081
C19	C	0.866086	-0.388405	-0.326089
C20	C	1.165122	-0.597893	-0.326072
C21	C	1.165163	-0.687514	-0.326082
C22	C	0.537911	-0.388411	-0.326118
C23	C	0.629219	-0.388407	-0.326108
C24	C	0.701996	-0.388409	-0.326103
C25	C	0.793310	-0.388404	-0.326094
C26	C	1.165304	-1.015690	-0.326153
C27	C	1.165262	-0.924382	-0.326135
C28	C	1.165233	-0.851605	-0.326117
C29	C	1.165192	-0.760291	-0.326100
C30	C	1.375507	-0.388415	-0.326120
C31	C	1.465128	-0.388420	-0.326128
C32	C	1.165234	-0.388347	-0.502643
C33	C	1.165249	-0.388323	-0.577875
C34	C	1.165297	-0.178094	-0.326144
C35	C	1.165339	-0.088472	-0.326162
C36	C	1.113717	-0.336745	-0.613225
C37	C	1.113728	-0.336729	-0.683913
C38	C	1.165276	-0.388288	-0.719251
C39	C	1.216809	-0.439872	-0.683896
C40	C	1.216794	-0.439891	-0.613209
C41	C	1.216873	-0.439796	-0.968970
C42	C	1.216887	-0.439771	-1.039662
C43	C	1.113808	-0.336634	-1.039674
C44	C	1.113792	-0.336653	-0.968987
C45	C	1.165323	-0.388240	-0.933638
C46	C	1.165309	-0.388257	-0.856990
C47	C	1.165294	-0.388267	-0.795898
C48	C	1.165209	-0.388400	-0.150244
C49	C	1.165351	-0.388197	-0.075013
H50	H	1.071746	-0.294755	-0.584458
C51	C	1.273329	-0.496770	-0.722770
N52	N	1.315837	-0.539690	-0.752049
H53	H	1.071763	-0.294732	-0.712692
C54	C	1.057086	-0.279936	-0.930119
N55	N	1.014370	-0.237217	-0.900845
C56	C	1.057117	-0.279893	-1.078563
N57	N	1.014419	-0.237156	-1.107854
H58	H	1.258865	-0.481760	-1.068432
C59	C	1.273603	-0.496498	-0.930096
N60	N	1.316351	-0.539193	-0.900814
H61	H	1.258762	-0.481885	-0.584428
