data_functionalizedCrystal
_audit_creation_method	'MofGen! by Chris Wilmer'
_symmetry_space_group_name_H-M	'P1'
_symmetry_Int_Tables_number	1
_symmetry_cell_setting	triclinic
loop_
_symmetry_equiv_pos_as_xyz
  x,y,z
_cell_length_a	10.967819
_cell_length_b	10.908878
_cell_length_c	10.065875
_cell_angle_alpha	83.401063
_cell_angle_beta	86.889148
_cell_angle_gamma	72.685094
loop_
_atom_site_label
_atom_site_type_symbol
_atom_site_fract_x
_atom_site_fract_y
_atom_site_fract_z
O1	O	1.526157	0.257477	-0.472439
O2	O	2.026157	0.757477	0.027561
O3	O	1.175394	0.261115	-0.389943
O4	O	1.675394	0.761115	0.110057
O5	O	1.397275	0.074591	-0.442122
O6	O	1.897275	0.574591	0.057878
O7	O	1.304277	0.444002	-0.420260
O8	O	1.804277	0.944002	0.079740
O9	O	1.439637	0.038906	-0.225096
O10	O	1.939637	0.538906	0.274904
O11	O	1.217757	0.225431	-0.172917
O12	O	1.717757	0.725431	0.327083
O13	O	1.568520	0.221793	-0.255413
O14	O	2.068520	0.721793	0.244587
Zn15	Zn	1.399864	0.217946	-0.179707
Zn16	Zn	1.899864	0.717946	0.320293
Zn17	Zn	1.344050	0.264962	-0.465649
Zn18	Zn	1.844050	0.764962	0.034351
O19	O	1.346639	0.408318	-0.203234
O20	O	1.846639	0.908318	0.296766
C21	C	1.152375	0.240311	-0.271034
C22	C	1.652375	0.740311	0.228966
C23	C	1.020676	0.231470	-0.240060
C24	C	1.520676	0.731470	0.259940
C25	C	0.803895	0.236892	-0.306688
C26	C	1.303895	0.736892	0.193312
C27	C	0.940017	0.246020	-0.338694
C28	C	1.440017	0.746020	0.161306
C29	C	1.427147	0.009323	-0.335654
C30	C	1.927147	0.509323	0.164346
C31	C	1.453028	-0.131989	-0.341746
C32	C	1.953028	0.368011	0.158254
C33	C	1.591538	0.242598	-0.374324
C34	C	2.091538	0.742598	0.125676
C35	C	1.723236	0.251440	-0.405307
C36	C	2.223236	0.751440	0.094693
C37	C	1.358589	-0.185521	-0.319537
C38	C	1.858589	0.314479	0.180463
C39	C	1.385336	-0.331574	-0.325833
C40	C	1.885336	0.168426	0.174167
C41	C	1.316767	0.473585	-0.309704
C42	C	1.816767	0.973585	0.190296
C43	C	1.290884	0.614899	-0.303621
C44	C	1.790884	1.114899	0.196379
N45	N	1.305960	0.297040	-0.660797
N46	N	1.805960	0.797040	-0.160797
C47	C	1.357308	0.253783	-0.897815
C48	C	1.857308	0.753783	-0.397815
C49	C	1.386630	0.229106	-0.747543
C50	C	1.886630	0.729106	-0.247543
N51	N	1.437966	0.185859	0.015438
N52	N	1.937966	0.685859	0.515438
H53	H	1.257936	-0.123225	-0.295857
H54	H	1.757936	0.376775	0.204143
O55	O	1.157540	-0.302611	-0.272251
O56	O	1.657540	0.197389	0.227749
H57	H	1.123922	-0.227097	-0.356864
H58	H	1.623922	0.272903	0.143136
O59	O	0.978546	0.206192	-0.096835
O60	O	1.478546	0.706192	0.403165
H61	H	0.951109	0.115402	-0.084464
H62	H	1.451109	0.615402	0.415536
H63	H	1.528731	0.109442	-0.947581
H64	H	2.028731	0.609442	-0.447581
O65	O	0.765239	0.276874	-0.548543
O66	O	1.265239	0.776874	-0.048543
H67	H	0.865569	0.280036	-0.551206
H68	H	1.365569	0.780036	-0.051206
H69	H	1.485998	-0.393868	-0.349503
H70	H	1.985998	0.106132	0.150497
H71	H	0.971729	0.265242	-0.446828
H72	H	1.471729	0.765242	0.053172
H73	H	1.553683	-0.194287	-0.365415
H74	H	2.053683	0.305713	0.134585
H75	H	1.266548	0.330210	-0.934796
H76	H	1.766548	0.830210	-0.434796
O77	O	1.506865	0.127864	-0.698583
O78	O	2.006865	0.627864	-0.198583
H79	H	1.511023	0.124361	-0.588236
H80	H	2.011023	0.624361	-0.088236
O81	O	1.185718	0.398266	-0.709764
O82	O	1.685718	0.898266	-0.209764
H83	H	1.211491	0.472605	-0.780955
H84	H	1.711491	0.972605	-0.280955
O85	O	0.761637	0.212248	-0.163395
O86	O	1.261637	0.712248	0.336605
H87	H	0.661219	0.209359	-0.160713
H88	H	1.161219	0.709359	0.339287
