data_functionalizedCrystal
_audit_creation_method	'MofGen! by Chris Wilmer'
_symmetry_space_group_name_H-M	'P1'
_symmetry_Int_Tables_number	1
_symmetry_cell_setting	triclinic
loop_
_symmetry_equiv_pos_as_xyz
  x,y,z
_cell_length_a	21.883469
_cell_length_b	21.882911
_cell_length_c	21.879399
_cell_angle_alpha	60.006540
_cell_angle_beta	60.013207
_cell_angle_gamma	59.992231
loop_
_atom_site_label
_atom_site_type_symbol
_atom_site_fract_x
_atom_site_fract_y
_atom_site_fract_z
O1	O	0.084645	-0.892842	0.746620
O2	O	0.031867	-0.695139	0.601571
O3	O	0.157054	-0.820237	0.601476
O4	O	-0.040542	-0.767744	0.746716
O5	O	0.198586	-0.778715	0.642912
O6	O	0.073399	-0.653617	0.643007
O7	O	0.126177	-0.851320	0.788056
Cu8	Cu	0.103580	-0.748677	0.719315
Cu9	Cu	0.054464	-0.797782	0.670313
O10	O	0.000990	-0.726222	0.788151
N11	N	0.138128	-0.714145	0.753785
N12	N	0.019923	-0.832320	0.635843
C13	C	0.190018	-0.547369	0.805644
C14	C	0.190029	-0.662289	0.805630
C15	C	0.218780	-0.633565	0.834353
C16	C	0.344122	-0.611968	0.768360
C17	C	0.422474	-0.638085	0.742222
C18	C	0.422504	-0.764859	0.790561
C19	C	0.344154	-0.738739	0.816702
C20	C	0.208899	-0.508180	0.728617
C21	C	0.182748	-0.429822	0.702522
C22	C	0.118843	-0.429847	0.830485
C23	C	0.144993	-0.508205	0.856580
C24	C	0.112994	-0.643364	0.824587
C25	C	0.086865	-0.669476	0.798467
C26	C	0.214799	-0.733437	0.734451
C27	C	0.240932	-0.707325	0.760562
C28	C	0.113084	-0.643389	0.959747
C29	C	0.087018	-0.669524	1.038102
C30	C	0.214996	-0.733501	1.038048
C31	C	0.241061	-0.707367	0.959690
C32	C	0.190103	-0.662308	0.920542
C33	C	0.304966	-0.662293	0.805598
C34	C	-0.117460	-0.854702	0.612901
C35	C	-0.002405	-0.854864	0.498145
C36	C	-0.002621	-0.969735	0.613108
C37	C	-0.002603	-0.854858	0.613180
C38	C	-0.031272	-0.883541	0.584334
N39	N	0.460550	-0.714150	0.753681
O40	O	0.699805	-0.721060	0.574973
O41	O	0.700047	-0.866553	0.772482
O42	O	0.699952	-0.866219	0.647213
O43	O	0.699900	-0.721394	0.700242
O44	O	0.575478	-0.824800	0.688791
O45	O	0.575573	-0.825134	0.814060
O46	O	0.575331	-0.679641	0.616551
Cu47	Cu	0.564087	-0.748606	0.719102
Cu48	Cu	0.711292	-0.797588	0.669931
O49	O	0.575426	-0.679975	0.741820
N50	N	0.814828	-0.832044	0.635345
N51	N	0.138106	-0.391772	0.753815
O52	O	-0.040520	-0.152377	0.746758
O53	O	0.156993	-0.152371	0.601281
O54	O	0.031698	-0.152390	0.601639
O55	O	0.084775	-0.152358	0.746401
O56	O	0.073234	-0.276876	0.643130
O57	O	0.198529	-0.276856	0.642772
O58	O	0.001015	-0.276863	0.788249
Cu59	Cu	0.103564	-0.288226	0.719299
Cu60	Cu	0.054444	-0.141007	0.670231
O61	O	0.126310	-0.276844	0.787892
N62	N	0.019892	-0.037461	0.635717
N63	N	0.138332	-0.714192	1.076133
O64	O	0.131293	-0.892804	1.315506
O65	O	-0.014162	-0.695219	1.315533
O66	O	-0.013826	-0.820490	1.315480
O67	O	0.130957	-0.767533	1.315559
O68	O	0.027651	-0.778981	1.191001
O69	O	0.027314	-0.653710	1.191054
O70	O	0.172770	-0.851295	1.191026
Cu71	Cu	0.103829	-0.748713	1.179674
Cu72	Cu	0.054778	-0.797802	1.326885
O73	O	0.172434	-0.726024	1.191079
N74	N	0.020275	-0.832331	1.430426
C75	C	0.047687	-0.649466	0.602306
C76	C	0.202716	-0.804385	0.602188
C77	C	0.110357	-0.896993	0.787321
C78	C	-0.044672	-0.742074	0.787439
C79	C	0.637839	-0.865879	0.818154
C80	C	0.637724	-0.865466	0.663023
C81	C	0.637536	-0.680313	0.570880
C82	C	0.637655	-0.680728	0.726010
C83	C	0.202592	-0.214459	0.601942
C84	C	0.047481	-0.214636	0.602435
C85	C	-0.044635	-0.214620	0.787537
C86	C	0.110528	-0.214598	0.787096
C87	C	-0.013455	-0.649572	1.253296
C88	C	-0.013030	-0.804697	1.253206
C89	C	0.172063	-0.896942	1.253263
C90	C	0.171648	-0.741808	1.253325
H91	H	0.071582	-0.606692	0.927876
H92	H	0.121892	-0.214588	0.832572
C93	C	-0.048463	-0.526631	1.253339
C94	C	-0.075108	-0.572969	1.253308
H95	H	-0.086527	-0.479341	1.253351
H96	H	-0.005941	-0.520083	1.209939
H97	H	-0.034861	-0.549040	1.296757
H98	H	-0.088704	-0.550562	1.209886
H99	H	-0.117642	-0.579515	1.296712
C100	C	-0.047436	-0.893001	1.253056
C101	C	-0.074410	-0.819956	1.253100
H102	H	-0.085329	-0.902418	1.252986
H103	H	-0.033840	-0.927541	1.296480
H104	H	-0.004851	-0.898578	1.209663
H105	H	-0.116991	-0.814381	1.296497
H106	H	-0.088016	-0.785407	1.209671
H107	H	0.121632	-0.953785	0.832877
C108	C	0.206092	-0.653465	1.253357
C109	C	0.233057	-0.726519	1.253342
H110	H	0.244007	-0.644026	1.253363
H111	H	0.163542	-0.647885	1.296765
H112	H	0.192453	-0.618937	1.209947
H113	H	0.246691	-0.761047	1.296756
H114	H	0.275621	-0.732105	1.209930
C115	C	0.296398	-0.963875	1.189270
C116	C	0.233716	-0.973545	1.253251
H117	H	0.334457	-1.011167	1.189262
H118	H	0.314460	-0.932437	1.189298
H119	H	0.282785	-0.941472	1.145860
H120	H	0.247327	-0.995944	1.296662
H121	H	0.215651	-1.004995	1.253230
H122	H	0.024299	-0.654107	1.070013
C123	C	0.269676	-0.811187	0.477929
C124	C	0.279327	-0.819486	0.540612
H125	H	0.316974	-0.820515	0.439918
H126	H	0.238279	-0.761651	0.459784
H127	H	0.247240	-0.845776	0.491574
H128	H	0.301759	-0.784893	0.526968
H129	H	0.310736	-0.869030	0.558760
C130	C	0.344118	-0.794097	1.030111
C131	C	0.271012	-0.783016	1.081074
H132	H	0.378700	-0.824670	1.056675
H133	H	0.351613	-0.747131	0.999557
H134	H	0.351623	-0.818018	0.999546
H135	H	0.263505	-0.759090	1.111635
H136	H	0.263515	-0.829991	1.111640
C137	C	0.637702	-0.646278	0.814362
C138	C	0.637630	-0.619306	0.741324
H139	H	0.637682	-0.608356	0.823816
H140	H	0.681140	-0.688821	0.819903
H141	H	0.594326	-0.659938	0.848902
H142	H	0.681010	-0.605651	0.706784
H143	H	0.594188	-0.576750	0.735777
C144	C	0.344619	-0.662849	0.871546
C145	C	0.325726	-0.728167	0.916596
H146	H	0.396886	-0.675692	0.844939
H147	H	0.331792	-0.636280	0.902117
H148	H	0.317999	-0.632283	0.837018
H149	H	0.352342	-0.758731	0.951127
H150	H	0.338561	-0.754748	0.886021
H151	H	0.637457	-0.634634	0.514159
H152	H	0.036413	-0.592673	0.556752
H153	H	-0.101359	-0.214623	0.833209
C154	C	-0.167563	-0.653948	0.822252
C155	C	-0.121284	-0.726974	0.849016
H156	H	-0.214857	-0.644626	0.860270
H157	H	-0.174101	-0.648326	0.779730
H158	H	-0.145120	-0.619368	0.808616
H159	H	-0.143724	-0.761555	0.862646
H160	H	-0.114748	-0.732603	0.891550
C161	C	0.637947	-0.900891	0.941080
C162	C	0.637930	-0.927545	0.894729
H163	H	0.638008	-0.938963	0.988352
H164	H	0.594519	-0.858379	0.947662
H165	H	0.681334	-0.887265	0.918664
H166	H	0.594540	-0.941166	0.917143
H167	H	0.681362	-0.970070	0.888149
H168	H	0.303660	-0.722726	0.745118
H169	H	0.259199	-0.214112	0.556156
H170	H	0.071542	-0.606694	0.861281
H171	H	0.024137	-0.654049	0.813885
C172	C	0.637671	-0.899914	0.574673
C173	C	0.637746	-0.926887	0.647710
H174	H	0.637679	-0.937832	0.565222
H175	H	0.681044	-0.886260	0.540134
H176	H	0.594230	-0.857362	0.569133
H177	H	0.681190	-0.969436	0.653248
H178	H	0.594368	-0.940551	0.682258
C179	C	0.014682	-0.278677	0.566554
C180	C	0.032166	-0.214669	0.541036
H181	H	0.005238	-0.278704	0.528646
H182	H	-0.028566	-0.278664	0.610103
H183	H	0.055524	-0.322073	0.578208
H184	H	-0.008678	-0.171272	0.529387
H185	H	0.075419	-0.214676	0.497474
C186	C	0.315770	-0.743715	0.619613
C187	C	0.270765	-0.782935	0.684910
H188	H	0.350322	-0.774270	0.589024
H189	H	0.342339	-0.730872	0.632470
H190	H	0.285167	-0.699410	0.593056
H191	H	0.301367	-0.827238	0.711470
H192	H	0.244194	-0.795788	0.672054
C193	C	0.352057	-0.866674	0.861846
C194	C	0.301111	-0.794061	0.857630
H195	H	0.325483	-0.900825	0.887110
H196	H	0.382638	-0.879784	0.888533
H197	H	0.382594	-0.868659	0.812750
H198	H	0.270578	-0.792074	0.906726
H199	H	0.270518	-0.780947	0.830944
H200	H	0.454413	-0.827107	0.799589
H201	H	0.312222	-0.549720	0.759316
C202	C	0.414574	-0.510151	0.697055
C203	C	0.465518	-0.582767	0.701285
H204	H	0.441151	-0.476000	0.671777
H205	H	0.384040	-0.508153	0.746140
H206	H	0.383991	-0.497048	0.670367
H207	H	0.496097	-0.595872	0.727978
H208	H	0.496065	-0.584767	0.652191
H209	H	0.245557	-0.540066	0.687141
H210	H	0.082193	-0.397958	0.871963
C211	C	0.248542	-0.437662	0.578651
C212	C	0.203499	-0.386739	0.617847
H213	H	0.261356	-0.411064	0.526377
H214	H	0.221965	-0.468223	0.591499
H215	H	0.292860	-0.468227	0.591485
H216	H	0.159178	-0.356178	0.605017
H217	H	0.230075	-0.356165	0.604993
H218	H	0.129609	-0.540114	0.919306
