data_functionalizedCrystal
_audit_creation_method	'MofGen! by Chris Wilmer'
_symmetry_space_group_name_H-M	'P1'
_symmetry_Int_Tables_number	1
_symmetry_cell_setting	triclinic
loop_
_symmetry_equiv_pos_as_xyz
  x,y,z
_cell_length_a	16.120484
_cell_length_b	17.077404
_cell_length_c	17.077396
_cell_angle_alpha	89.980499
_cell_angle_beta	92.868746
_cell_angle_gamma	92.925780
loop_
_atom_site_label
_atom_site_type_symbol
_atom_site_fract_x
_atom_site_fract_y
_atom_site_fract_z
Zn1	Zn	-0.331902	1.184194	-0.459673
Zn2	Zn	0.001431	1.517528	-0.126340
Zn3	Zn	0.334764	1.850861	0.206994
Zn4	Zn	-0.471326	1.177439	-0.335057
Zn5	Zn	-0.137993	1.510772	-0.001724
Zn6	Zn	0.195340	1.844105	0.331610
Zn7	Zn	-0.331932	1.052925	-0.328422
Zn8	Zn	0.001402	1.386258	0.004911
Zn9	Zn	0.334735	1.719591	0.338244
Zn10	Zn	-0.471277	1.046234	-0.466278
Zn11	Zn	-0.137944	1.379567	-0.132945
Zn12	Zn	0.195390	1.712901	0.200389
O13	O	-0.401609	1.115198	-0.397358
O14	O	-0.068276	1.448531	-0.064024
O15	O	0.265057	1.781865	0.269309
O16	O	-0.350406	1.293145	-0.443155
O17	O	-0.017073	1.626478	-0.109821
O18	O	0.316261	1.959811	0.223512
O19	O	-0.452868	1.160895	-0.224331
O20	O	-0.119535	1.494228	0.109002
O21	O	0.213798	1.827561	0.442335
O22	O	-0.215262	1.075965	-0.340292
O23	O	0.118071	1.409299	-0.006959
O24	O	0.451405	1.742632	0.326375
O25	O	-0.452840	1.288181	-0.351600
O26	O	-0.119507	1.621515	-0.018266
O27	O	0.213827	1.954848	0.315067
O28	O	-0.215241	1.172408	-0.436721
O29	O	0.118093	1.505742	-0.103388
O30	O	0.451426	1.839075	0.229945
O31	O	-0.350456	1.069415	-0.219457
O32	O	-0.017122	1.402748	0.113876
O33	O	0.316211	1.736081	0.447210
O34	O	-0.350408	0.942191	-0.346697
O35	O	-0.017074	1.275524	-0.013364
O36	O	0.316259	1.608857	0.319970
O37	O	-0.452756	1.064562	-0.575247
O38	O	-0.119422	1.397895	-0.241914
O39	O	0.213911	1.731228	0.091419
O40	O	-0.452784	0.937275	-0.447979
O41	O	-0.119451	1.270608	-0.114646
O42	O	0.213883	1.603942	0.218688
O43	O	-0.350358	1.165921	-0.570395
O44	O	-0.017025	1.499254	-0.237061
O45	O	0.316309	1.832587	0.096272
O46	O	-0.587986	1.154407	-0.358004
O47	O	-0.254652	1.487740	-0.024671
O48	O	0.078681	1.821074	0.308662
O49	O	-0.587949	1.058011	-0.454412
O50	O	-0.254616	1.391345	-0.121079
O51	O	0.078717	1.724678	0.212254
C52	C	-0.401594	0.911251	-0.397335
C53	C	-0.068261	1.244584	-0.064002
C54	C	0.265072	1.577917	0.269331
C55	C	-0.401608	0.824000	-0.397345
C56	C	-0.068275	1.157334	-0.064012
C57	C	0.265059	1.490667	0.269321
C58	C	-0.454996	0.780467	-0.450006
C59	C	-0.121662	1.113801	-0.116673
C60	C	0.211671	1.447134	0.216661
C61	C	-0.454997	0.698487	-0.450019
C62	C	-0.121664	1.031820	-0.116685
C63	C	0.211669	1.365153	0.216648
C64	C	-0.401615	0.660041	-0.397366
C65	C	-0.068282	0.993374	-0.064033
C66	C	0.265052	1.326707	0.269301
C67	C	-0.348221	0.703580	-0.344703
C68	C	-0.014888	1.036913	-0.011369
C69	C	0.318445	1.370246	0.321964
C70	C	-0.348216	0.785559	-0.344694
C71	C	-0.014883	1.118892	-0.011361
C72	C	0.318451	1.452226	0.321972
C73	C	-0.348238	0.532709	-0.344722
C74	C	-0.014905	0.866042	-0.011389
C75	C	0.318429	1.199376	0.321944
C76	C	-0.348244	0.450724	-0.344729
C77	C	-0.014911	0.784057	-0.011396
C78	C	0.318423	1.117391	0.321937
C79	C	-0.455019	0.445637	-0.450047
C80	C	-0.121686	0.778970	-0.116713
C81	C	0.211647	1.112303	0.216620
C82	C	-0.455014	0.527616	-0.450038
C83	C	-0.121681	0.860949	-0.116705
C84	C	0.211653	1.194283	0.216628
C85	C	-0.401621	0.571149	-0.397374
C86	C	-0.068288	0.904483	-0.064040
C87	C	0.265046	1.237816	0.269293
C88	C	-0.618218	1.104771	-0.407662
C89	C	-0.284884	1.438105	-0.074329
C90	C	0.048449	1.771438	0.259005
C91	C	-0.710884	1.100383	-0.412097
C92	C	-0.377550	1.433716	-0.078763
C93	C	-0.044217	1.767049	0.254570
C94	C	-0.880545	1.092374	-0.420209
C95	C	-0.547212	1.425708	-0.086876
C96	C	-0.213879	1.759041	0.246457
C97	C	-0.921833	1.138162	-0.374519
C98	C	-0.588500	1.471495	-0.041185
C99	C	-0.255166	1.804829	0.292148
C100	C	-1.016239	1.133706	-0.379033
C101	C	-0.682905	1.467040	-0.045699
C102	C	-0.349572	1.800373	0.287634
C103	C	-0.786131	1.096829	-0.415696
C104	C	-0.452798	1.430162	-0.082363
C105	C	-0.119464	1.763496	0.250970
C106	C	-0.184155	1.125687	-0.387030
C107	C	0.149178	1.459020	-0.053697
C108	C	0.482511	1.792353	0.279637
C109	C	-0.091489	1.130156	-0.382629
C110	C	0.241844	1.463490	-0.049296
C111	C	0.575177	1.796823	0.284038
C112	C	-0.401625	1.319941	-0.397381
C113	C	-0.068292	1.653275	-0.064047
C114	C	0.265041	1.986608	0.269286
C115	C	-0.401632	1.407191	-0.397390
C116	C	-0.068299	1.740524	-0.064057
C117	C	0.265035	2.073858	0.269276
C118	C	-0.401548	1.115248	-0.602099
C119	C	-0.068215	1.448582	-0.268766
C120	C	0.265119	1.781915	0.064568
C121	C	-0.401522	1.115270	-0.689348
C122	C	-0.068188	1.448603	-0.356014
C123	C	0.265145	1.781937	-0.022681
C124	C	-0.348199	1.168049	-0.727812
C125	C	-0.014866	1.501383	-0.394479
C126	C	0.318468	1.834716	-0.061145
C127	C	-0.348171	1.168060	-0.809791
C128	C	-0.014838	1.501394	-0.476458
C129	C	0.318496	1.834727	-0.143125
C130	C	-0.401471	1.115295	-0.853305
C131	C	-0.068138	1.448628	-0.519971
C132	C	0.265196	1.781961	-0.186638
C133	C	-0.454796	1.062509	-0.814835
C134	C	-0.121463	1.395843	-0.481501
C135	C	0.211870	1.729176	-0.148168
C136	C	-0.454819	1.062495	-0.732857
C137	C	-0.121486	1.395829	-0.399523
C138	C	0.211847	1.729162	-0.066190
C139	C	-0.454746	1.062543	-0.985702
C140	C	-0.121413	1.395877	-0.652369
C141	C	0.211920	1.729210	-0.319036
C142	C	-0.454725	1.062558	-1.067686
C143	C	-0.121391	1.395891	-0.734353
C144	C	0.211942	1.729225	-0.401019
C145	C	-0.348098	1.168108	-1.062637
C146	C	-0.014765	1.501441	-0.729304
C147	C	0.318569	1.834775	-0.395970
C148	C	-0.348121	1.168094	-0.980659
C149	C	-0.014788	1.501428	-0.647326
C150	C	0.318546	1.834761	-0.313992
C151	C	-0.401448	1.115310	-0.942195
C152	C	-0.068114	1.448643	-0.608861
C153	C	0.265219	1.781976	-0.275528
C154	C	-0.401610	1.115196	-0.193410
C155	C	-0.068277	1.448529	0.139924
C156	C	0.265056	1.781862	0.473257
C157	C	-0.401402	1.115338	-0.106150
C158	C	-0.068068	1.448671	0.227183
C159	C	0.265265	1.782004	0.560516
H160	H	-0.498472	0.663045	-0.492900
H161	H	-0.165139	0.996379	-0.159566
H162	H	0.168195	1.329712	0.173767
H163	H	-0.304798	1.211020	-0.692389
H164	H	0.028535	1.544353	-0.359056
H165	H	0.361868	1.877686	-0.025722
H166	H	-0.916096	1.049831	-0.462712
H167	H	-0.582763	1.383164	-0.129379
H168	H	-0.249430	1.716497	0.203955
H169	H	-0.304752	1.211040	-0.841105
H170	H	0.028581	1.544374	-0.507772
H171	H	0.361915	1.877707	-0.174438
H172	H	-0.304724	1.211065	-0.945232
H173	H	0.028609	1.544398	-0.611899
H174	H	0.361943	1.877732	-0.278566
H175	H	-0.498487	0.558916	-0.492909
H176	H	-0.165154	0.892249	-0.159575
H177	H	0.168180	1.225583	0.173758
H178	H	-0.304676	1.211086	-1.093958
H179	H	0.028657	1.544419	-0.760625
H180	H	0.361991	1.877753	-0.427292
H181	H	-0.498191	1.019544	-0.850270
H182	H	-0.164858	1.352877	-0.516936
H183	H	0.168475	1.686210	-0.183603
H184	H	-0.498158	1.019549	-0.954387
H185	H	-0.164824	1.352882	-0.621054
H186	H	0.168509	1.686216	-0.287720
H187	H	-0.498232	1.019509	-0.701540
H188	H	-0.164899	1.352843	-0.368207
H189	H	0.168435	1.686176	-0.034873
H190	H	-0.498469	0.811764	-0.492880
H191	H	-0.165135	1.145097	-0.159546
H192	H	0.168198	1.478430	0.173787
H193	H	-0.498491	0.410188	-0.492930
H194	H	-0.165158	0.743521	-0.159597
H195	H	0.168175	1.076855	0.173736
H196	H	-0.304766	0.419424	-0.301864
H197	H	0.028568	0.752757	0.031469
H198	H	0.361901	1.086091	0.364803
H199	H	-0.886279	1.180708	-0.332012
H200	H	-0.552946	1.514041	0.001322
H201	H	-0.219613	1.847375	0.334655
H202	H	-0.304738	0.821003	-0.301816
H203	H	0.028595	1.154336	0.031517
H204	H	0.361929	1.487670	0.364850
H205	H	-0.304753	0.672271	-0.301835
H206	H	0.028580	1.005604	0.031498
H207	H	0.361914	1.338937	0.364831
H208	H	-0.498124	1.019590	-1.103113
H209	H	-0.164791	1.352923	-0.769779
H210	H	0.168542	1.686257	-0.436446
H211	H	-0.304752	0.568152	-0.301844
H212	H	0.028581	0.901485	0.031489
H213	H	0.361914	1.234819	0.364823
