data_functionalizedCrystal
_audit_creation_method	'MofGen! by Chris Wilmer'
_symmetry_space_group_name_H-M	'P1'
_symmetry_Int_Tables_number	1
_symmetry_cell_setting	triclinic
loop_
_symmetry_equiv_pos_as_xyz
  x,y,z
_cell_length_a	14.908782
_cell_length_b	12.759394
_cell_length_c	14.908308
_cell_angle_alpha	86.731597
_cell_angle_beta	83.240320
_cell_angle_gamma	86.721700
loop_
_atom_site_label
_atom_site_type_symbol
_atom_site_fract_x
_atom_site_fract_y
_atom_site_fract_z
Zn1	Zn	1.354264	-0.538211	0.431802
Zn2	Zn	1.362915	-0.704326	0.280450
Zn3	Zn	1.211638	-0.519092	0.289207
Zn4	Zn	1.202888	-0.704268	0.440511
O5	O	1.282926	-0.616474	0.360493
O6	O	1.482073	-0.568272	0.404416
O7	O	1.350130	-0.671778	0.154949
O8	O	1.230599	-0.374611	0.308142
O9	O	1.488429	-0.690317	0.293218
O10	O	1.335386	-0.388658	0.412907
O11	O	1.238987	-0.535686	0.161383
O12	O	1.083816	-0.535630	0.316587
O13	O	1.215686	-0.690217	0.566018
O14	O	1.077388	-0.671678	0.427749
O15	O	1.326902	-0.568216	0.559620
O16	O	1.341646	-0.851336	0.301663
O17	O	1.224075	-0.851293	0.419259
C18	C	1.047760	-0.601574	0.374064
C19	C	0.947153	-0.595226	0.379891
C20	C	0.764730	-0.710187	0.274875
C21	C	0.670202	-0.704226	0.280347
C22	C	0.663566	-0.577349	0.396313
C23	C	0.758094	-0.583310	0.390840
C24	C	0.808673	-0.649730	0.330118
C25	C	0.903204	-0.655685	0.324642
C26	C	0.896566	-0.528814	0.440611
C27	C	0.802038	-0.522853	0.446084
C28	C	1.282873	-0.889437	0.360474
C29	C	1.282932	-1.006219	0.360491
C30	C	1.405440	-1.006221	0.238121
C31	C	1.466717	-1.061085	0.176944
C32	C	1.466769	-1.170811	0.176966
C33	C	1.405539	-1.225677	0.238172
C34	C	1.344261	-1.170813	0.299348
C35	C	1.344215	-1.061083	0.299318
C36	C	1.221759	-1.170811	0.421722
C37	C	1.221701	-1.061084	0.421697
C38	C	1.160528	-1.225676	0.482928
C39	C	1.099245	-1.170812	0.544101
C40	C	1.099196	-1.061078	0.544076
C41	C	1.160424	-1.006220	0.482874
C42	C	1.519011	-0.631434	0.346869
C43	C	1.619616	-0.637808	0.341063
C44	C	1.269353	-0.631343	0.596580
C45	C	1.263569	-0.637679	0.697186
C46	C	1.283003	-0.342449	0.360530
C47	C	1.283036	-0.225675	0.360546
C48	C	1.296499	-0.601591	0.125321
C49	C	1.302458	-0.594970	0.024705
C50	C	1.368505	-0.522520	0.879575
C51	C	1.363074	-0.528470	0.974103
C52	C	1.247269	-0.655522	0.980773
C53	C	1.252701	-0.649572	0.886244
C54	C	1.313322	-0.583070	0.835649
C55	C	1.318758	-0.577127	0.741118
C56	C	1.202950	-0.704173	0.747790
C57	C	1.197518	-0.710123	0.842318
H58	H	0.622368	-0.523283	0.445757
H59	H	1.160384	-0.916874	0.482842
O60	O	1.422578	-0.463152	1.021490
H61	H	1.466138	-0.515791	1.061906
O62	O	0.943970	-0.463602	0.500194
H63	H	0.926719	-0.379006	0.485827
O64	O	0.622810	-0.769427	0.220754
H65	H	0.577425	-0.822790	0.263677
O66	O	1.433897	-0.450808	0.825001
H67	H	1.428409	-0.456852	0.751889
H68	H	1.148160	-0.764264	0.883526
O69	O	1.384140	-0.505407	0.686540
H70	H	1.367586	-0.423109	0.705581
H71	H	1.158018	-0.753480	0.712015
O72	O	0.747485	-0.451206	0.511566
H73	H	0.674370	-0.457208	0.506085
O74	O	1.405379	-0.887872	0.238097
H75	H	1.458251	-0.858939	0.185265
O76	O	1.532769	-1.001903	0.110950
H77	H	1.494930	-0.946507	0.067187
O78	O	0.957764	-0.727316	0.259150
H79	H	0.938739	-0.809627	0.275612
O80	O	0.819295	-0.781811	0.209380
H81	H	0.800273	-0.864125	0.225831
O82	O	1.532855	-1.229997	0.110984
H83	H	1.575420	-1.173417	0.068416
O84	O	1.405589	-1.344025	0.238199
H85	H	1.458483	-1.372957	0.185375
H86	H	1.197914	-0.709665	1.021984
O87	O	1.160581	-1.344025	0.482958
H88	H	1.093387	-1.367549	0.468572
O89	O	1.033201	-1.229981	0.610103
H90	H	1.043529	-1.315497	0.599838
O91	O	1.033094	-1.001902	0.610051
H92	H	0.990524	-1.058490	0.652603
