data_functionalizedCrystal
_audit_creation_method	'MofGen! by Chris Wilmer'
_symmetry_space_group_name_H-M	'P1'
_symmetry_Int_Tables_number	1
_symmetry_cell_setting	triclinic
loop_
_symmetry_equiv_pos_as_xyz
  x,y,z
_cell_length_a	19.077068
_cell_length_b	19.077220
_cell_length_c	19.076919
_cell_angle_alpha	90.116798
_cell_angle_beta	94.470751
_cell_angle_gamma	85.293229
loop_
_atom_site_label
_atom_site_type_symbol
_atom_site_fract_x
_atom_site_fract_y
_atom_site_fract_z
Zn1	Zn	-0.256354	-1.047582	-0.450469
Zn2	Zn	0.243646	-0.547582	0.049531
Zn3	Zn	-0.369511	-1.047495	-0.337310
Zn4	Zn	0.130489	-0.547495	0.162690
Zn5	Zn	-0.255980	-0.934813	-0.328226
Zn6	Zn	0.244020	-0.434813	0.171774
Zn7	Zn	-0.378926	-0.924921	-0.450401
Zn8	Zn	0.121074	-0.424921	0.049599
O9	O	-0.315193	-0.988702	-0.391601
O10	O	0.184807	-0.488702	0.108399
O11	O	-0.267581	-1.146062	-0.439288
O12	O	0.232419	-0.646062	0.060712
O13	O	-0.350354	-1.036651	-0.237617
O14	O	0.149646	-0.536651	0.262383
O15	O	-0.157219	-0.953948	-0.340669
O16	O	0.342781	-0.453948	0.159331
O17	O	-0.350717	-1.145998	-0.356151
O18	O	0.149283	-0.645998	0.143849
O19	O	-0.157494	-1.036799	-0.430480
O20	O	0.342506	-0.536799	0.069520
O21	O	-0.266943	-0.953864	-0.230943
O22	O	0.233057	-0.453864	0.269057
O23	O	-0.276072	-0.835009	-0.340603
O24	O	0.223928	-0.335009	0.159397
O25	O	-0.366764	-0.937088	-0.548898
O26	O	0.133236	-0.437088	-0.048898
O27	O	-0.366401	-0.827741	-0.430364
O28	O	0.133599	-0.327741	0.069636
O29	O	-0.276711	-1.027207	-0.548948
O30	O	0.223289	-0.527207	-0.048948
O31	O	-0.469570	-1.027058	-0.356085
O32	O	0.030430	-0.527058	0.143915
O33	O	-0.476487	-0.937004	-0.439172
O34	O	0.023513	-0.437004	0.060828
C35	C	-0.322218	-0.805837	-0.384491
C36	C	0.177782	-0.305837	0.115509
C37	C	-0.325241	-0.727605	-0.381466
C38	C	0.174759	-0.227605	0.118534
C39	C	-0.346899	-0.287238	-0.359809
C40	C	0.153101	0.212762	0.140191
C41	C	-0.344054	-0.360745	-0.362645
C42	C	0.155946	0.139255	0.137355
C43	C	-0.299424	-0.397528	-0.407425
C44	C	0.200576	0.102472	0.092575
C45	C	-0.257631	-0.360800	-0.449365
C46	C	0.242369	0.139200	0.050635
C47	C	-0.260473	-0.287294	-0.446525
C48	C	0.239527	0.212706	0.053475
C49	C	-0.286290	-0.617371	-0.420566
C50	C	0.213710	-0.117371	0.079434
C51	C	-0.283453	-0.690882	-0.423405
C52	C	0.216547	-0.190882	0.076595
C53	C	-0.369875	-0.690822	-0.336684
C54	C	0.130125	-0.190822	0.163316
C55	C	-0.372716	-0.617315	-0.333850
C56	C	0.127284	-0.117315	0.166150
C57	C	-0.330920	-0.580593	-0.375788
C58	C	0.169080	-0.080593	0.124212
N59	N	-0.296517	-0.472665	-0.410327
N60	N	0.203483	0.027335	0.089673
N61	N	-0.333824	-0.505458	-0.372882
N62	N	0.166176	-0.005458	0.127118
C63	C	-0.498649	-0.980967	-0.398623
C64	C	0.001351	-0.480967	0.101377
C65	C	-0.577131	-0.977721	-0.401653
C66	C	-0.077131	-0.477721	0.098347
C67	C	-0.610377	-1.023116	-0.359856
C68	C	-0.110377	-0.523116	0.140144
C69	C	-0.684119	-1.020067	-0.362710
C70	C	-0.184119	-0.520067	0.137290
C71	C	-0.724614	-0.971619	-0.407358
C72	C	-0.224614	-0.471619	0.092642
C73	C	-0.691363	-0.926222	-0.449160
C74	C	-0.191363	-0.426222	0.050840
C75	C	-0.617622	-0.929275	-0.446309
C76	C	-0.117622	-0.429275	0.053691
C77	C	-0.945545	-0.957460	-0.420522
C78	C	-0.445545	-0.457460	0.079478
C79	C	-1.019291	-0.954409	-0.423368
C80	C	-0.519291	-0.454409	0.076632
C81	C	-1.012042	-1.048255	-0.336919
C82	C	-0.512042	-0.548255	0.163081
C83	C	-0.938300	-1.051301	-0.334069
C84	C	-0.438300	-0.551301	0.165931
C85	C	-0.905055	-1.005907	-0.375874
C86	C	-0.405055	-0.505907	0.124126
N87	N	-0.799990	-0.968500	-0.410275
N88	N	-0.299990	-0.468500	0.089725
N89	N	-0.829680	-1.009030	-0.372960
N90	N	-0.329680	-0.509030	0.127040
C91	C	-0.131020	-0.996487	-0.384568
C92	C	0.368980	-0.496487	0.115432
C93	C	-0.052537	-0.999804	-0.381571
C94	C	0.447463	-0.499804	0.118429
C95	C	-0.322829	-0.981054	-0.575173
C96	C	0.177171	-0.481054	-0.075173
C97	C	-0.326084	-0.977794	-0.653401
C98	C	0.173916	-0.477794	-0.153401
C99	C	-0.308134	-0.172282	-0.398731
C100	C	0.191866	0.327718	0.101269
C101	C	-0.305110	-0.250515	-0.401748
C102	C	0.194890	0.249485	0.098252
C103	C	-0.280729	-1.023181	-0.690180
C104	C	0.219271	-0.523181	-0.190180
C105	C	-0.283784	-1.020110	-0.763682
C106	C	0.216216	-0.520110	-0.263682
C107	C	-0.332198	-0.971655	-0.800405
C108	C	0.167802	-0.471655	-0.300405
C109	C	-0.377555	-0.926264	-0.763621
C110	C	0.122445	-0.426264	-0.263621
C111	C	-0.374496	-0.929332	-0.690120
C112	C	0.125504	-0.429332	-0.190120
C113	C	-0.346372	-0.957445	-1.020228
C114	C	0.153628	-0.457445	-0.520228
C115	C	-0.349430	-0.954382	-1.093735
C116	C	0.150570	-0.454382	-0.593735
C117	C	-0.255657	-1.048227	-1.093791
C118	C	0.244343	-0.548227	-0.593791
C119	C	-0.252605	-1.051293	-1.020288
C120	C	0.247395	-0.551293	-0.520288
C121	C	-0.297960	-1.005900	-0.983510
C122	C	0.202040	-0.505900	-0.483510
N123	N	-0.335324	-0.968517	-0.875537
N124	N	0.164676	-0.468517	-0.375537
N125	N	-0.294830	-1.009036	-0.908380
N126	N	0.205170	-0.509036	-0.408380
C127	C	-0.307533	-0.996364	-0.208743
C128	C	0.192467	-0.496364	0.291257
C129	C	-0.304075	-0.999768	-0.130514
C130	C	0.195925	-0.499768	0.369486
H131	H	-0.378082	-0.390642	-0.328493
H132	H	0.121918	0.109358	0.171507
H133	H	-0.213183	-1.090752	-0.990393
H134	H	0.286817	-0.590752	-0.490393
H135	H	-0.221290	-0.390755	-0.485823
H136	H	0.278710	0.109245	0.014177
H137	H	-0.226442	-0.257396	-0.480674
H138	H	0.273558	0.242604	0.019326
H139	H	-0.388856	-0.914922	-1.123633
H140	H	0.111144	-0.414922	-0.623633
H141	H	-0.383245	-0.257294	-0.323348
H142	H	0.116755	0.242706	0.176652
Cl143	Cl	-0.428803	-0.571080	-0.277533
Cl144	Cl	0.071197	-0.071080	0.222467
H145	H	-1.039118	-1.085214	-0.302886
H146	H	-0.539118	-0.585214	0.197114
Cl147	Cl	-0.198642	-1.105286	-1.140029
Cl148	Cl	0.301358	-0.605286	-0.640029
H149	H	-0.403903	-0.720729	-0.302540
H150	H	0.096097	-0.220729	0.197460
H151	H	-0.383313	-0.920492	-0.990293
H152	H	0.116687	-0.420492	-0.490293
H153	H	-0.416973	-0.886809	-0.793527
H154	H	0.083027	-0.386809	-0.293527
H155	H	-0.411422	-0.892367	-0.660175
H156	H	0.088578	-0.392367	-0.160175
H157	H	-0.724340	-0.886777	-0.485516
H158	H	-0.224340	-0.386777	0.014484
Cl159	Cl	-0.887397	-1.112219	-0.277949
Cl160	Cl	-0.387397	-0.612219	0.222051
H161	H	-0.247105	-0.720829	-0.459869
H162	H	0.252895	-0.220829	0.040131
H163	H	-0.252260	-0.587481	-0.454719
H164	H	0.247740	-0.087481	0.045281
H165	H	-0.577411	-1.062564	-0.323496
H166	H	-0.077411	-0.562564	0.176504
Cl167	Cl	-0.219865	-1.084101	-0.644021
Cl168	Cl	0.280135	-0.584101	-0.144021
Cl169	Cl	-1.070198	-0.893490	-0.479492
Cl170	Cl	-0.570198	-0.393490	0.020508
Cl171	Cl	-0.725911	-1.077140	-0.310165
Cl172	Cl	-0.225911	-0.577140	0.189835
Cl173	Cl	-0.575827	-0.872206	-0.498858
Cl174	Cl	-0.075827	-0.372206	0.001142
Cl175	Cl	-0.903761	-0.900391	-0.473076
Cl176	Cl	-0.403761	-0.400391	0.026924
H177	H	-0.246853	-1.057070	-0.793624
H178	H	0.253147	-0.557070	-0.293624
