data_functionalizedCrystal
_audit_creation_method	'MofGen! by Chris Wilmer'
_symmetry_space_group_name_H-M	'P1'
_symmetry_Int_Tables_number	1
_symmetry_cell_setting	triclinic
loop_
_symmetry_equiv_pos_as_xyz
  x,y,z
_cell_length_a	15.297475
_cell_length_b	18.101397
_cell_length_c	15.296720
_cell_angle_alpha	80.358625
_cell_angle_beta	88.382886
_cell_angle_gamma	80.322482
loop_
_atom_site_label
_atom_site_type_symbol
_atom_site_fract_x
_atom_site_fract_y
_atom_site_fract_z
Zn1	Zn	1.253431	-0.576362	0.726551
Zn2	Zn	1.753431	-0.076362	1.226551
Zn3	Zn	1.278699	-0.682998	0.580058
Zn4	Zn	1.778699	-0.182998	1.080058
Zn5	Zn	1.132307	-0.534758	0.554796
Zn6	Zn	1.632307	-0.034758	1.054796
Zn7	Zn	1.106925	-0.675719	0.701187
Zn8	Zn	1.606925	-0.175719	1.201187
O9	O	1.192841	-0.617459	0.640648
O10	O	1.692841	-0.117459	1.140648
O11	O	1.379362	-0.610965	0.728306
O12	O	1.879362	-0.110965	1.228306
O13	O	1.280477	-0.648969	0.454134
O14	O	1.780477	-0.148969	0.954134
O15	O	1.148422	-0.436657	0.577622
O16	O	1.648422	0.063343	1.077622
O17	O	1.397926	-0.689310	0.620678
O18	O	1.897926	-0.189310	1.120678
O19	O	1.237411	-0.467223	0.703810
O20	O	1.737411	0.032777	1.203810
O21	O	1.172923	-0.540058	0.435573
O22	O	1.672923	-0.040058	0.935573
O23	O	1.006361	-0.532999	0.553027
O24	O	1.506361	-0.032999	1.053027
O25	O	1.105162	-0.676903	0.827125
O26	O	1.605162	-0.176903	1.327125
O27	O	0.987713	-0.636562	0.660581
O28	O	1.487713	-0.136562	1.160581
O29	O	1.212800	-0.603906	0.845760
O30	O	1.712800	-0.103906	1.345760
O31	O	1.255866	-0.785653	0.596084
O32	O	1.755866	-0.285653	1.096084
O33	O	1.129664	-0.780304	0.685077
O34	O	1.629664	-0.280304	1.185077
C35	C	0.965253	-0.579477	0.601311
C36	C	1.465253	-0.079477	1.101311
C37	C	0.867887	-0.563248	0.584503
C38	C	1.367887	-0.063248	1.084503
C39	C	1.192773	-0.809852	0.640593
C40	C	1.692773	-0.309852	1.140593
C41	C	1.192819	-0.892176	0.640612
C42	C	1.692819	-0.392176	1.140612
C43	C	0.554750	-0.733453	0.760779
C44	C	1.054750	-0.233453	1.260779
C45	C	0.646231	-0.748706	0.776569
C46	C	1.146231	-0.248706	1.276569
C47	C	0.701649	-0.702343	0.728554
C48	C	1.201649	-0.202343	1.228554
C49	C	0.665578	-0.640724	0.664746
C50	C	1.165578	-0.140724	1.164746
C51	C	0.574089	-0.625474	0.648950
C52	C	1.074089	-0.125474	1.148950
C53	C	0.720988	-0.594363	0.616725
C54	C	1.220988	-0.094363	1.116725
C55	C	0.684917	-0.532745	0.552918
C56	C	1.184917	-0.032745	1.052918
C57	C	0.593436	-0.517496	0.537125
C58	C	1.093436	-0.017496	1.037125
C59	C	0.538018	-0.563860	0.585140
C60	C	1.038018	-0.063860	1.085140
C61	C	0.812477	-0.609614	0.632521
C62	C	1.312477	-0.109614	1.132521
C63	C	0.831816	-0.501634	0.520692
C64	C	1.331816	-0.001634	1.020692
C65	C	0.740335	-0.486381	0.504903
C66	C	1.240335	0.013619	1.004903
C67	C	1.192917	-1.191295	0.640711
C68	C	1.692917	-0.691295	1.140711
C69	C	1.272162	-1.163251	0.584506
C70	C	1.772162	-0.663251	1.084506
C71	C	1.272366	-1.077692	0.584722
C72	C	1.772366	-0.577692	1.084722
C73	C	1.192869	-1.042898	0.640662
C74	C	1.692869	-0.542898	1.140662
C75	C	1.201906	-1.088917	0.737308
C76	C	1.701906	-0.588917	1.237308
C77	C	1.202492	-1.174605	0.737029
C78	C	1.702492	-0.674605	1.237029
C79	C	1.104316	-1.141563	0.601039
C80	C	1.604316	-0.641563	1.101039
C81	C	1.105131	-1.055748	0.599057
C82	C	1.605131	-0.555748	1.099057
C83	C	1.192839	-0.959031	0.640639
C84	C	1.692839	-0.459031	1.140639
C85	C	1.192948	-1.275163	0.640741
C86	C	1.692948	-0.775163	1.140741
C87	C	1.421316	-0.655590	0.680140
C88	C	1.921316	-0.155590	1.180140
C89	C	1.518679	-0.671839	0.696969
C90	C	2.018679	-0.171839	1.196969
C91	C	1.153331	-0.644233	0.869113
C92	C	1.653331	-0.144233	1.369113
C93	C	1.136495	-0.655643	0.966472
C94	C	1.636495	-0.155643	1.466472
C95	C	1.192929	-0.424321	0.640727
C96	C	1.692929	0.075679	1.140727
C97	C	1.192967	-0.342017	0.640761
C98	C	1.692967	0.157983	1.140761
C99	C	1.232247	-0.590744	0.413081
C100	C	1.732247	-0.090744	0.913081
C101	C	1.249253	-0.579154	0.315752
C102	C	1.749253	-0.079154	0.815752
C103	C	1.313207	-0.535789	1.279718
C104	C	1.813207	-0.035789	1.779718
C105	C	1.329031	-0.525071	1.188247
C106	C	1.829031	-0.025071	1.688247
C107	C	1.280898	-0.557713	1.132798
C108	C	1.780898	-0.057713	1.632798
C109	C	1.216938	-0.601075	1.168831
C110	C	1.716938	-0.101075	1.668831
C111	C	1.201118	-0.611798	1.260313
C112	C	1.701118	-0.111798	1.760313
C113	C	1.168809	-0.633722	1.113393
C114	C	1.668809	-0.133722	1.613393
C115	C	1.104849	-0.677084	1.149425
C116	C	1.604849	-0.177084	1.649425
C117	C	1.089031	-0.687806	1.240898
C118	C	1.589031	-0.187806	1.740898
C119	C	1.137164	-0.655164	1.296346
C120	C	1.637164	-0.155164	1.796346
C121	C	1.184630	-0.622999	1.021911
C122	C	1.684630	-0.122999	1.521911
C123	C	1.072541	-0.699008	1.002505
C124	C	1.572541	-0.199008	1.502505
C125	C	1.056717	-0.709726	1.093977
C126	C	1.556717	-0.209726	1.593977
H127	H	0.841837	-0.659784	0.684474
H128	H	1.341837	-0.159784	1.184474
H129	H	1.033349	-0.725590	0.957359
H130	H	1.533349	-0.225590	1.457359
F131	F	1.358572	-1.068210	0.620690
F132	F	1.858572	-0.568210	1.120690
H133	H	1.045469	-1.159242	0.641781
H134	H	1.545469	-0.659242	1.141781
F135	F	1.397099	-0.478924	1.149904
F136	F	1.897099	0.021076	1.649904
F137	F	0.684614	-0.814283	0.844473
F138	F	1.184614	-0.314283	1.344473
F139	F	1.127859	-1.059890	0.794417
F140	F	1.627859	-0.559890	1.294417
F141	F	0.701934	-0.420804	0.436997
F142	F	1.201934	0.079196	0.936997
F143	F	0.799011	-0.718577	0.745361
F144	F	1.299011	-0.218577	1.245361
F145	F	0.555050	-0.451921	0.469209
F146	F	1.055050	0.048079	0.969209
H147	H	1.124283	-0.663888	1.370831
H148	H	1.624283	-0.163888	1.870831
F149	F	1.267349	-1.036368	0.491712
F150	F	1.767349	-0.536368	0.991712
H151	H	0.509622	-0.771199	0.799861
H152	H	1.009622	-0.271199	1.299861
F153	F	1.364432	-0.501061	1.338735
F154	F	1.864432	-0.001061	1.838735
H155	H	0.876939	-0.463882	0.481593
H156	H	1.376939	0.036118	0.981593
F157	F	1.252698	-0.576851	0.983573
F158	F	1.752698	-0.076851	1.483573
H159	H	1.044206	-1.030900	0.635713
H160	H	1.544206	-0.530900	1.135713
F161	F	1.286521	-1.218492	0.778521
F162	F	1.786521	-0.718492	1.278521
F163	F	0.440651	-0.547626	0.568343
F164	F	0.940651	-0.047626	1.068343
F165	F	1.267493	-1.176330	0.491267
F166	F	1.767493	-0.676330	0.991267
H167	H	1.337773	-1.197927	0.611776
H168	H	1.837773	-0.697927	1.111776
H169	H	1.265376	-1.080978	0.769262
H170	H	1.765376	-0.580978	1.269262
F171	F	1.129187	-1.199467	0.794748
F172	F	1.629187	-0.699467	1.294748
F173	F	0.988649	-0.755875	1.132337
F174	F	1.488649	-0.255875	1.632337
H175	H	1.093006	-1.151661	0.530951
H176	H	1.593006	-0.651661	1.030951
H177	H	1.098027	-1.024367	0.527855
H178	H	1.598027	-0.524367	1.027855
F179	F	1.297740	-0.546303	1.035445
F180	F	1.797740	-0.046303	1.535445
H181	H	1.036958	-0.723121	1.270234
H182	H	1.536958	-0.223121	1.770234
