data_functionalizedCrystal
_audit_creation_method	'MofGen! by Chris Wilmer'
_symmetry_space_group_name_H-M	'P1'
_symmetry_Int_Tables_number	1
_symmetry_cell_setting	triclinic
loop_
_symmetry_equiv_pos_as_xyz
  x,y,z
_cell_length_a	12.759401
_cell_length_b	16.625545
_cell_length_c	12.759393
_cell_angle_alpha	89.966918
_cell_angle_beta	89.981756
_cell_angle_gamma	90.024602
loop_
_atom_site_label
_atom_site_type_symbol
_atom_site_fract_x
_atom_site_fract_y
_atom_site_fract_z
Zn1	Zn	1.606173	-0.320981	-0.593966
Zn2	Zn	1.606035	-0.455836	-0.418279
Zn3	Zn	1.430476	-0.321019	-0.418305
Zn4	Zn	1.430430	-0.455773	-0.593920
O5	O	1.518278	-0.388402	-0.506118
O6	O	1.753175	-0.338880	-0.570669
O7	O	1.582708	-0.437994	-0.271262
O8	O	1.453859	-0.208181	-0.441637
O9	O	1.753074	-0.437958	-0.441593
O10	O	1.582943	-0.208154	-0.570695
O11	O	1.453725	-0.338945	-0.271281
O12	O	1.283449	-0.338884	-0.441593
O13	O	1.453781	-0.437851	-0.740948
O14	O	1.283415	-0.437887	-0.570617
O15	O	1.582899	-0.338820	-0.740981
O16	O	1.582664	-0.568660	-0.441548
O17	O	1.453648	-0.568614	-0.570591
C18	C	1.245311	-0.388383	-0.506103
C19	C	1.128534	-0.388395	-0.506122
C20	C	1.073718	-0.336903	-0.573436
C21	C	0.963994	-0.336918	-0.573443
C22	C	0.963912	-0.439925	-0.438818
C23	C	1.073634	-0.439905	-0.438807
C24	C	1.128618	-0.285393	-0.640751
C25	C	1.073802	-0.233897	-0.708072
C26	C	0.964078	-0.233912	-0.708078
C27	C	0.909170	-0.285424	-0.640764
C28	C	1.518164	-0.597893	-0.506085
C29	C	1.518211	-0.687514	-0.506106
C30	C	1.518252	-0.760297	-0.506127
C31	C	1.518313	-0.851605	-0.506150
C32	C	1.518368	-0.924382	-0.506163
C33	C	1.518428	-1.015696	-0.506185
C34	C	1.792312	-0.388422	-0.506133
C35	C	1.909088	-0.388430	-0.506140
C36	C	1.518350	-0.388324	-0.780151
C37	C	1.518381	-0.388291	-0.896928
C38	C	1.518422	-0.178093	-0.506174
C39	C	1.518483	-0.088472	-0.506198
C40	C	1.451204	-0.439805	-1.061499
C41	C	1.451171	-0.439835	-0.951775
C42	C	1.585620	-0.336708	-0.951811
C43	C	1.585647	-0.336675	-1.061533
C44	C	1.383997	-0.491359	-1.116340
C45	C	1.316756	-0.542940	-1.061465
C46	C	1.316724	-0.542970	-0.951741
C47	C	1.383932	-0.491417	-0.896892
C48	C	1.518267	-0.388422	-0.233150
C49	C	1.518440	-0.388228	-0.116374
H50	H	0.819825	-0.285415	-0.640753
O51	O	1.127296	-0.183936	-0.773420
C52	C	1.235895	-0.194948	-0.758965
H53	H	1.250850	-0.257139	-0.724411
H54	H	1.267026	-0.147065	-0.703126
C55	C	1.273902	-0.111264	-0.907721
C56	C	1.292270	-0.187651	-0.865289
H57	H	1.308679	-0.106760	-0.973305
H58	H	1.200738	-0.103842	-0.917458
H59	H	1.299845	-0.071370	-0.861178
H60	H	1.266316	-0.227543	-0.911825
H61	H	1.365432	-0.195080	-0.855562
H62	H	1.217961	-0.285374	-0.640753
H63	H	1.261964	-0.584963	-0.907065
H64	H	1.384018	-0.491342	-1.205683
H65	H	1.262030	-0.584906	-1.106130
O66	O	0.910990	-0.183864	-0.773565
C67	C	0.982980	-0.138384	-0.832952
H68	H	1.061185	-0.171402	-0.836504
H69	H	0.994652	-0.077108	-0.794623
C70	C	0.844154	-0.086323	-0.940438
C71	C	0.940204	-0.126880	-0.944808
H72	H	0.817768	-0.079223	-1.009435
H73	H	0.795652	-0.116961	-0.900426
H74	H	0.853894	-0.035264	-0.908493
H75	H	0.930461	-0.177942	-0.976741
H76	H	0.988704	-0.096250	-0.984829
O77	O	0.910531	-0.490051	-0.373591
C78	C	0.847058	-0.542180	-0.433297
H79	H	0.880161	-0.547228	-0.516027
H80	H	0.763910	-0.517268	-0.436985
C81	C	0.804669	-0.619755	-0.280169
C82	C	0.845333	-0.625961	-0.381777
H83	H	0.803600	-0.671434	-0.248388
H84	H	0.847429	-0.584633	-0.239942
H85	H	0.735383	-0.598992	-0.283256
H86	H	0.914622	-0.646713	-0.378688
H87	H	0.802585	-0.661088	-0.422002
O88	O	1.650761	-0.286597	-0.898420
C89	C	1.590964	-0.234521	-0.834979
H90	H	1.511322	-0.262959	-0.818529
H91	H	1.579471	-0.174755	-0.877278
C92	C	1.746573	-0.185030	-0.750967
C93	C	1.648758	-0.219961	-0.730755
H94	H	1.782224	-0.176045	-0.686678
H95	H	1.786860	-0.220112	-0.793711
H96	H	1.736981	-0.135229	-0.786219
H97	H	1.658351	-0.269766	-0.695516
H98	H	1.608473	-0.184887	-0.688003
O99	O	1.651059	-0.286550	-1.114683
C100	C	1.710359	-0.241045	-1.042753
H101	H	1.713963	-0.274093	-0.964531
H102	H	1.671922	-0.179810	-1.031096
C103	C	1.817766	-0.188826	-1.181669
C104	C	1.822199	-0.229419	-1.085597
H105	H	1.886752	-0.181650	-1.208098
H106	H	1.777812	-0.219480	-1.230131
H107	H	1.785730	-0.137800	-1.171941
H108	H	1.854223	-0.280447	-1.095328
H109	H	1.862161	-0.198773	-1.037138
H110	H	1.118267	-0.481834	-0.383994
H111	H	1.383898	-0.491443	-0.807547
