data_functionalizedCrystal
_audit_creation_method	'MofGen! by Chris Wilmer'
_symmetry_space_group_name_H-M	'P1'
_symmetry_Int_Tables_number	1
_symmetry_cell_setting	triclinic
loop_
_symmetry_equiv_pos_as_xyz
  x,y,z
_cell_length_a	17.019311
_cell_length_b	17.019448
_cell_length_c	16.776229
_cell_angle_alpha	93.868189
_cell_angle_beta	86.113136
_cell_angle_gamma	83.663685
loop_
_atom_site_label
_atom_site_type_symbol
_atom_site_fract_x
_atom_site_fract_y
_atom_site_fract_z
O1	O	1.046578	0.100530	-0.131236
O2	O	1.546578	0.600530	0.368764
O3	O	0.816899	0.113337	-0.114594
O4	O	1.316899	0.613337	0.385406
O5	O	0.938138	-0.007902	-0.131222
O6	O	1.438138	0.492098	0.368778
O7	O	0.925338	0.221769	-0.114608
O8	O	1.425338	0.721769	0.385392
O9	O	0.938122	-0.007910	0.001356
O10	O	1.438122	0.492090	0.501356
O11	O	0.816883	0.113330	0.017983
O12	O	1.316883	0.613330	0.517983
O13	O	1.046562	0.100522	0.001341
O14	O	1.546562	0.600522	0.501341
Zn15	Zn	0.931720	0.106925	0.030712
Zn16	Zn	1.431720	0.606925	0.530712
Zn17	Zn	0.931741	0.106935	-0.143964
Zn18	Zn	1.431741	0.606935	0.356036
O19	O	0.925322	0.221762	0.017969
O20	O	1.425322	0.721762	0.517969
C21	C	0.787502	0.112847	-0.046321
C22	C	1.287502	0.612847	0.453679
C23	C	0.699933	0.111387	-0.040411
C24	C	1.199933	0.611387	0.459589
C25	C	0.204657	0.103155	-0.003358
C26	C	0.704657	0.603155	0.496642
C27	C	0.286937	0.104527	-0.008912
C28	C	0.786937	0.604527	0.491088
C29	C	0.328087	0.105211	-0.083960
C30	C	0.828087	0.605211	0.416040
C31	C	0.286951	0.104531	-0.153455
C32	C	0.786951	0.604531	0.346545
C33	C	0.204672	0.103165	-0.147899
C34	C	0.704672	0.603165	0.352101
C35	C	0.576518	0.109341	-0.104351
C36	C	1.076518	0.609341	0.395649
C37	C	0.658803	0.110705	-0.109902
C38	C	1.158803	0.610705	0.390098
C39	C	0.658783	0.110702	0.034642
C40	C	1.158783	0.610702	0.534642
C41	C	0.576503	0.109331	0.040191
C42	C	1.076503	0.609331	0.540191
C43	C	0.535374	0.108655	-0.029304
C44	C	1.035374	0.608655	0.470696
C45	C	0.412191	0.106610	-0.089640
C46	C	0.912191	0.606610	0.410360
C47	C	0.451271	0.107261	-0.023623
C48	C	0.951271	0.607261	0.476377
C49	C	0.937642	-0.037294	-0.066915
C50	C	1.437642	0.462706	0.433085
C51	C	0.936179	-0.124859	-0.072818
C52	C	1.436179	0.375141	0.427182
C53	C	0.927974	-0.620123	-0.109926
C54	C	1.427974	-0.120123	0.390074
C55	C	0.929342	-0.537844	-0.104362
C56	C	1.429342	-0.037844	0.395638
C57	C	0.930011	-0.496725	-0.029312
C58	C	1.430011	0.003275	0.470688
C59	C	0.929320	-0.537889	0.040179
C60	C	1.429320	-0.037889	0.540179
C61	C	0.927958	-0.620167	0.034613
C62	C	1.427958	-0.120167	0.534613
C63	C	0.934126	-0.248301	-0.008893
C64	C	1.434126	0.251699	0.491107
C65	C	0.935486	-0.166018	-0.003333
C66	C	1.435486	0.333982	0.496667
C67	C	0.935509	-0.165979	-0.147875
C68	C	1.435509	0.334021	0.352125
C69	C	0.934143	-0.248257	-0.153433
C70	C	1.434143	0.251743	0.346567
C71	C	0.933456	-0.289415	-0.083943
C72	C	1.433456	0.210585	0.416057
C73	C	0.931406	-0.412623	-0.023622
C74	C	1.431406	0.087377	0.476378
C75	C	0.932067	-0.373516	-0.089633
C76	C	1.432067	0.126484	0.410367
C77	C	1.075958	0.101013	-0.066933
C78	C	1.575958	0.601013	0.433067
C79	C	1.163527	0.102473	-0.072848
C80	C	1.663527	0.602473	0.427152
C81	C	0.925818	0.251153	-0.046340
C82	C	1.425818	0.751153	0.453660
C83	C	0.927282	0.338719	-0.040441
C84	C	1.427282	0.838719	0.459559
N85	N	0.931711	0.106918	0.149923
N86	N	1.431711	0.606918	0.649923
N87	N	0.931756	0.106936	-0.263176
N88	N	1.431756	0.606936	0.236824
C89	C	0.985412	0.053255	0.184278
C90	C	1.485412	0.553255	0.684278
C91	C	0.985416	0.053254	0.267730
C92	C	1.485416	0.553254	0.767730
C93	C	0.931723	0.106921	0.316825
C94	C	1.431723	0.606921	0.816825
C95	C	0.878016	0.160586	0.282466
C96	C	1.378016	0.660586	0.782466
C97	C	0.878008	0.160583	0.199015
C98	C	1.378008	0.660583	0.699015
C99	C	0.878044	0.160602	0.619012
C100	C	1.378044	0.660602	1.119012
C101	C	0.878058	0.160603	0.702468
C102	C	1.378058	0.660603	1.202468
C103	C	0.985452	0.053273	0.687726
C104	C	1.485452	0.553273	1.187726
C105	C	0.985445	0.053270	0.604276
C106	C	1.485445	0.553270	1.104276
C107	C	0.931736	0.106932	0.569923
C108	C	1.431736	0.606932	1.069923
C109	C	0.931731	0.106931	0.479435
C110	C	1.431731	0.606931	0.979435
C111	C	0.931731	0.106926	0.407312
C112	C	1.431731	0.606926	0.907312
H113	H	0.692304	0.111268	-0.171017
H114	H	1.192304	0.611268	0.328983
H115	H	0.834294	0.204280	0.322444
H116	H	1.334294	0.704280	0.822444
O117	O	0.929987	-0.498073	0.113145
O118	O	1.429987	0.001927	0.613145
C119	C	0.929056	-0.552043	0.173283
C120	C	1.429056	-0.052043	0.673283
H121	H	0.953068	-0.613973	0.146198
H122	H	1.453068	-0.113973	0.646198
H123	H	0.967701	-0.533320	0.222478
H124	H	1.467701	-0.033320	0.722478
H125	H	0.865648	-0.552477	0.199804
H126	H	1.365648	-0.052477	0.699804
H127	H	0.936069	-0.132459	-0.204449
H128	H	1.436069	0.367541	0.295551
O129	O	0.927174	-0.660222	0.102064
O130	O	1.427174	-0.160222	0.602064
C131	C	0.858091	-0.698803	0.108480
C132	C	1.358091	-0.198803	0.608480
H133	H	0.835133	-0.708112	0.046666
H134	H	1.335133	-0.208112	0.546666
H135	H	0.872486	-0.758694	0.133962
H136	H	1.372486	-0.258694	0.633962
H137	H	0.810793	-0.660805	0.149999
H138	H	1.310793	-0.160805	0.649999
H139	H	0.931526	-0.407000	-0.150739
H140	H	1.431526	0.093000	0.349261
H141	H	0.931948	-0.379134	0.037484
H142	H	1.431948	0.120866	0.537484
H143	H	1.029139	0.009556	0.144309
H144	H	1.529139	0.509556	0.644309
O145	O	0.326870	0.105339	-0.226363
O146	O	0.826870	0.605339	0.273637
C147	C	0.297755	0.173281	-0.263685
C148	C	0.797755	0.673281	0.236315
H149	H	0.268840	0.220629	-0.216171
H150	H	0.768840	0.720629	0.283829
H151	H	0.348849	0.197101	-0.298341
H152	H	0.848849	0.697101	0.201659
H153	H	0.252037	0.157052	-0.306721
H154	H	0.752037	0.657052	0.193279
O155	O	1.037667	0.001105	0.300971
O156	O	1.537667	0.501105	0.800971
C157	C	1.085050	-0.046269	0.239743
C158	C	1.585050	0.453731	0.739743
H159	H	1.085888	-0.013930	0.182409
H160	H	1.585888	0.486070	0.682409
H161	H	1.148062	-0.058318	0.258687
H162	H	1.648062	0.441682	0.758687
H163	H	1.059517	-0.104863	0.228622
H164	H	1.559517	0.395137	0.728622
O165	O	0.825916	0.212663	0.585518
O166	O	1.325916	0.712663	1.085518
C167	C	0.837432	0.201174	0.501335
C168	C	1.337432	0.701174	1.001335
H169	H	0.866969	0.138440	0.483606
H170	H	1.366969	0.638440	0.983606
H171	H	0.777684	0.209995	0.474337
H172	H	1.277684	0.709995	0.974337
H173	H	0.876953	0.245794	0.477988
H174	H	1.376953	0.745794	0.977988
O175	O	0.536639	0.108564	0.113132
O176	O	1.036639	0.608564	0.613132
C177	C	0.565735	0.040603	0.150435
C178	C	1.065735	0.540603	0.650435
H179	H	0.628477	0.018833	0.124079
H180	H	1.128477	0.518833	0.624079
H181	H	0.566527	0.056005	0.217549
H182	H	1.066527	0.556005	0.717549
H183	H	0.525732	-0.007981	0.139841
H184	H	1.025732	0.492019	0.639841
H185	H	0.543041	0.108788	-0.160939
H186	H	1.043041	0.608788	0.339061
O187	O	0.825815	0.212789	0.165771
O188	O	1.325815	0.712789	0.665771
C189	C	0.778412	0.260146	0.226997
C190	C	1.278412	0.760146	0.726997
H191	H	0.810757	0.261025	0.284316
H192	H	1.310757	0.761025	0.784316
H193	H	0.766304	0.323147	0.208026
H194	H	1.266304	0.823147	0.708026
H195	H	0.719846	0.234561	0.238157
H196	H	1.219846	0.734561	0.738157
O197	O	1.037632	0.001061	0.556702
O198	O	1.537632	0.501061	1.056702
C199	C	1.085045	-0.046293	0.604920
C200	C	1.585045	0.453707	1.104920
H201	H	1.052713	-0.047164	0.666574
H202	H	1.552713	0.452836	1.166574
H203	H	1.097144	-0.109296	0.575665
H204	H	1.597144	0.390704	1.075665
H205	H	1.143615	-0.020711	0.611509
H206	H	1.643615	0.479289	1.111509
O207	O	0.326773	0.105151	0.058668
O208	O	0.826773	0.605151	0.558668
C209	C	0.272808	0.104270	0.126098
C210	C	0.772808	0.604270	0.626098
H211	H	0.217451	0.078332	0.106935
H212	H	0.717451	0.578332	0.606935
H213	H	0.301623	0.066387	0.172071
H214	H	0.801623	0.566387	0.672071
H215	H	0.255713	0.167376	0.153814
H216	H	0.755713	0.667376	0.653814
H217	H	1.029183	0.009576	0.715705
H218	H	1.529183	0.509576	1.215705
O219	O	0.825815	0.212763	0.750045
O220	O	1.325815	0.712763	1.250045
C221	C	0.778419	0.260138	0.701831
C222	C	1.278419	0.760138	1.201831
H223	H	0.777558	0.227797	0.640191
H224	H	1.277558	0.727797	1.140191
H225	H	0.715415	0.272195	0.731111
H226	H	1.215415	0.772195	1.231111
H227	H	0.803956	0.318728	0.695204
H228	H	1.303956	0.818728	1.195204
H229	H	0.171185	0.102612	-0.204486
H230	H	0.671185	0.602612	0.295514
H231	H	0.692279	0.111254	0.091221
H232	H	1.192279	0.611254	0.591221
O233	O	0.164671	0.102348	0.069515
O234	O	0.664671	0.602348	0.569515
C235	C	0.126063	0.033284	0.071758
C236	C	0.626063	0.533284	0.571758
H237	H	0.157153	-0.014031	0.025373
H238	H	0.657153	0.485969	0.525373
H239	H	0.128147	0.010349	0.133964
H240	H	0.628147	0.510349	0.633964
H241	H	0.061671	0.047686	0.057751
H242	H	0.561671	0.547686	0.557751
H243	H	0.417762	0.106709	0.037480
H244	H	0.917762	0.606709	0.537480
O245	O	0.452242	0.107376	-0.162485
O246	O	0.952242	0.607376	0.337515
C247	C	0.490817	0.176460	-0.164734
C248	C	0.990817	0.676460	0.335266
H249	H	0.500123	0.199434	-0.101052
H250	H	1.000123	0.699434	0.398948
H251	H	0.550710	0.162064	-0.200406
H252	H	1.050710	0.662064	0.299594
H253	H	0.452813	0.223745	-0.194561
H254	H	0.952813	0.723745	0.305439
O255	O	0.927344	-0.659943	-0.182896
O256	O	1.427344	-0.159943	0.317104
C257	C	0.928221	-0.605965	-0.243029
C258	C	1.428221	-0.105965	0.256971
H259	H	0.954166	-0.550616	-0.219819
H260	H	1.454166	-0.050616	0.280181
H261	H	0.966098	-0.634768	-0.298162
H262	H	1.466098	-0.134768	0.201838
H263	H	0.865112	-0.588861	-0.259730
H264	H	1.365112	-0.088861	0.240270
H265	H	0.933604	-0.281732	-0.214547
H266	H	1.433604	0.218268	0.285453
O267	O	0.929802	-0.497801	-0.171821
O268	O	1.429802	0.002199	0.328179
C269	C	0.862239	-0.441287	-0.167568
C270	C	1.362239	0.058713	0.332432
H271	H	0.839769	-0.425942	-0.102199
H272	H	1.339769	0.074058	0.397801
H273	H	0.878446	-0.385450	-0.195525
H274	H	1.378446	0.114550	0.304475
H275	H	0.813869	-0.466770	-0.201542
H276	H	1.313869	0.033230	0.298458
H277	H	0.933568	-0.281802	0.047690
H278	H	1.433568	0.218198	0.547690
O279	O	0.936145	-0.126196	0.069637
O280	O	1.436145	0.373804	0.569637
C281	C	0.935214	-0.180160	0.129781
C282	C	1.435214	0.319840	0.629781
H283	H	0.959236	-0.242091	0.102704
H284	H	1.459236	0.257909	0.602704
H285	H	0.973850	-0.161427	0.178979
H286	H	1.473850	0.338573	0.678979
H287	H	0.871804	-0.180601	0.156295
H288	H	1.371804	0.319399	0.656295
