data_functionalizedCrystal
_audit_creation_method	'MofGen! by Chris Wilmer'
_symmetry_space_group_name_H-M	'P1'
_symmetry_Int_Tables_number	1
_symmetry_cell_setting	triclinic
loop_
_symmetry_equiv_pos_as_xyz
  x,y,z
_cell_length_a	17.640112
_cell_length_b	17.640280
_cell_length_c	17.640968
_cell_angle_alpha	65.682561
_cell_angle_beta	92.139080
_cell_angle_gamma	92.184069
loop_
_atom_site_label
_atom_site_type_symbol
_atom_site_fract_x
_atom_site_fract_y
_atom_site_fract_z
Zn1	Zn	1.251359	-0.023073	-0.189698
Zn2	Zn	1.251298	-0.188752	-0.024069
Zn3	Zn	1.106797	-0.075311	-0.076159
Zn4	Zn	1.148399	-0.178182	-0.179117
O5	O	1.189463	-0.116329	-0.117261
O6	O	1.354914	-0.027613	-0.150355
O7	O	1.214694	-0.199989	0.081425
O8	O	1.108588	0.044008	-0.117448
O9	O	1.354870	-0.149337	-0.028669
O10	O	1.214797	0.082386	-0.200865
O11	O	1.108529	-0.116644	0.043155
O12	O	1.008752	-0.106394	-0.107188
O13	O	1.179493	-0.131321	-0.292925
O14	O	1.039317	-0.181973	-0.182831
O15	O	1.255137	-0.017364	-0.300699
O16	O	1.255033	-0.299739	-0.018409
O17	O	1.179434	-0.291973	-0.132322
C18	C	0.997182	-0.148705	-0.149514
C19	C	0.914929	-0.162571	-0.163327
C20	C	0.564743	-0.010979	-0.012337
C21	C	0.487458	-0.024022	-0.025323
C22	C	0.519334	-0.102905	-0.103880
C23	C	0.596623	-0.089865	-0.090904
C24	C	0.619321	-0.043903	-0.045131
C25	C	0.651201	-0.122789	-0.123697
C26	C	0.728483	-0.109754	-0.110718
C27	C	0.751188	-0.063796	-0.064946
C28	C	0.696603	-0.030868	-0.032152
C29	C	0.628502	-0.168756	-0.169465
C30	C	0.683080	-0.201680	-0.202259
C31	C	0.760364	-0.188640	-0.189285
C32	C	0.783068	-0.142682	-0.143512
C33	C	0.814949	-0.221568	-0.222079
C34	C	0.892231	-0.208534	-0.209100
C35	C	0.860351	-0.129647	-0.130533
C36	C	1.221764	-0.324990	-0.068579
C37	C	1.235655	-0.414238	-0.047768
C38	C	1.084287	-0.687787	-0.275600
C39	C	1.097337	-0.771655	-0.256019
C40	C	1.176134	-0.779643	-0.137496
C41	C	1.163094	-0.695773	-0.157069
C42	C	1.117169	-0.649852	-0.226122
C43	C	1.195976	-0.657837	-0.107591
C44	C	1.182933	-0.573976	-0.127160
C45	C	1.137009	-0.528050	-0.196208
C46	C	1.104127	-0.565990	-0.245691
C47	C	1.241896	-0.703761	-0.038535
C48	C	1.274778	-0.665825	0.010944
C49	C	1.261740	-0.581961	-0.008629
C50	C	1.215815	-0.536035	-0.077677
C51	C	1.294622	-0.544020	0.040854
C52	C	1.281579	-0.460159	0.021285
C53	C	1.202773	-0.452173	-0.097246
C54	C	1.382495	-0.083827	-0.084882
C55	C	1.464754	-0.069977	-0.071084
C56	C	1.221962	-0.067336	-0.326772
C57	C	1.235811	-0.046458	-0.416053
C58	C	1.157059	0.093153	-0.166147
C59	C	1.143250	0.182422	-0.186980
C60	C	1.084469	-0.274453	-0.689444
C61	C	1.097496	-0.254822	-0.773337
C62	C	1.176258	-0.136168	-0.781421
C63	C	1.163234	-0.155787	-0.697528
C64	C	1.117340	-0.224930	-0.651546
C65	C	1.196105	-0.106264	-0.659630
C66	C	1.183085	-0.125884	-0.575743
C67	C	1.137195	-0.195026	-0.529754
C68	C	1.104320	-0.244550	-0.567659
C69	C	1.242004	-0.037124	-0.705612
C70	C	1.274874	0.012398	-0.667713
C71	C	1.261851	-0.007218	-0.583827
C72	C	1.215960	-0.076360	-0.537838
C73	C	1.294725	0.042306	-0.545922
C74	C	1.281706	0.022686	-0.462035
C75	C	1.202940	-0.095980	-0.453951
C76	C	1.157124	-0.165067	0.091429
C77	C	1.143383	-0.185695	0.180681
H78	H	0.664588	-0.239106	-0.239524
H79	H	1.046897	-0.650394	-0.331835
C80	C	0.789969	-0.272131	-0.272422
N81	N	0.771155	-0.310214	-0.310342
H82	H	1.070568	-0.802535	-0.296324
C83	C	1.152242	-0.401660	-0.173199
N84	N	1.114177	-0.363615	-0.230399
C85	C	1.053596	-0.515476	-0.321644
N86	N	1.015531	-0.477432	-0.378843
C87	C	1.122872	-0.216608	-0.437476
N88	N	1.112083	-0.232862	-0.367972
C89	C	1.033982	-0.350514	-0.638859
N90	N	0.995959	-0.407803	-0.600758
H91	H	0.936671	-0.235342	-0.235805
H92	H	0.814117	-0.053186	-0.054377
C93	C	0.427422	0.012202	0.010755
N94	N	0.382204	0.039484	0.037930
H95	H	1.213523	-0.817044	-0.081271
C96	C	1.256245	-0.796011	-0.017012
N97	N	1.267054	-0.865492	-0.000804
H98	H	1.312167	-0.703226	0.067168
C99	C	1.345128	-0.594548	0.116817
N100	N	1.383169	-0.632605	0.174034
H101	H	1.252605	-0.021154	-0.773917
C102	C	0.885322	-0.079082	-0.080184
N103	N	0.904131	-0.041000	-0.042261
C104	C	0.589714	0.039586	0.038012
N105	N	0.608523	0.077668	0.075935
C106	C	0.494356	-0.153460	-0.154230
N107	N	0.475545	-0.191537	-0.192158
H108	H	1.308354	-0.429272	0.061576
C109	C	1.053833	-0.320612	-0.517074
N110	N	1.015810	-0.377900	-0.478973
C111	C	1.061330	-0.309304	-0.815023
N112	N	1.034090	-0.350340	-0.846420
H113	H	1.213628	-0.079873	-0.818870
C114	C	1.325349	0.088460	-0.718306
N115	N	1.363363	0.145755	-0.756413
C116	C	1.345207	0.118362	-0.596514
N117	N	1.383227	0.175651	-0.634620
C118	C	1.317864	0.077164	-0.420345
N119	N	1.345100	0.118197	-0.388944
H120	H	0.565572	-0.179368	-0.180031
C121	C	0.721574	0.019697	0.018197
N122	N	0.740383	0.057780	0.056120
H123	H	1.126385	-0.459767	-0.212135
H124	H	1.165548	-0.152268	-0.416517
