data_functionalizedCrystal
_audit_creation_method	'MofGen! by Chris Wilmer'
_symmetry_space_group_name_H-M	'P1'
_symmetry_Int_Tables_number	1
_symmetry_cell_setting	triclinic
loop_
_symmetry_equiv_pos_as_xyz
  x,y,z
_cell_length_a	18.215407
_cell_length_b	18.050589
_cell_length_c	18.215399
_cell_angle_alpha	89.973988
_cell_angle_beta	89.983176
_cell_angle_gamma	90.028669
loop_
_atom_site_label
_atom_site_type_symbol
_atom_site_fract_x
_atom_site_fract_y
_atom_site_fract_z
Zn1	Zn	1.125033	-0.295641	-0.416138
Zn2	Zn	1.124941	-0.419841	-0.293081
Zn3	Zn	1.001972	-0.295670	-0.293085
Zn4	Zn	1.001924	-0.419794	-0.416106
O5	O	1.063468	-0.357736	-0.354603
O6	O	1.228005	-0.312123	-0.399826
O7	O	1.108610	-0.403401	-0.190097
O8	O	1.018355	-0.191742	-0.309424
O9	O	1.227937	-0.403372	-0.309417
O10	O	1.108767	-0.191720	-0.399830
O11	O	1.018265	-0.312173	-0.190101
O12	O	0.898981	-0.312128	-0.309393
O13	O	1.018274	-0.403293	-0.519095
O14	O	0.898946	-0.403322	-0.399775
O15	O	1.108721	-0.312078	-0.519118
O16	O	1.108564	-0.523759	-0.309385
O17	O	1.018184	-0.523725	-0.399771
C18	C	0.872261	-0.357724	-0.354582
C19	C	0.790462	-0.357736	-0.354590
C20	C	0.602269	-0.405295	-0.401593
C21	C	0.525411	-0.405298	-0.401602
C22	C	0.525418	-0.310191	-0.307628
C23	C	0.602275	-0.310185	-0.307623
C24	C	0.640699	-0.357742	-0.354605
C25	C	0.486983	-0.357750	-0.354619
C26	C	0.403649	-0.357752	-0.354628
C27	C	0.724038	-0.357739	-0.354596
C28	C	1.063379	-0.550689	-0.354590
C29	C	1.063408	-0.633234	-0.354610
C30	C	1.014308	-0.832693	-0.403744
C31	C	0.996372	-0.882137	-0.336590
C32	C	1.063480	-0.784365	-0.354619
C33	C	1.081453	-0.882003	-0.421781
C34	C	1.063549	-0.930350	-0.354635
C35	C	1.045509	-0.832721	-0.287430
C36	C	1.130621	-0.832583	-0.372666
C37	C	1.112710	-0.882004	-0.305466
C38	C	1.063439	-0.700266	-0.354612
C39	C	1.063590	-1.014446	-0.354635
C40	C	1.255420	-0.357750	-0.354624
C41	C	1.337219	-0.357755	-0.354634
C42	C	1.063502	-0.357677	-0.546556
C43	C	1.063517	-0.357652	-0.628355
C44	C	1.063577	-0.164031	-0.354631
C45	C	1.063623	-0.081485	-0.354643
C46	C	1.016515	-0.310117	-0.816551
C47	C	1.016527	-0.310103	-0.893410
C48	C	1.110608	-0.405098	-0.893396
C49	C	1.110591	-0.405116	-0.816539
C50	C	1.063545	-0.357621	-0.778118
C51	C	1.063575	-0.357588	-0.931834
C52	C	1.063589	-0.357572	-1.015168
C53	C	1.063530	-0.357638	-0.694779
C54	C	1.063475	-0.357742	-0.163396
C55	C	1.063603	-0.357558	-0.081598
H56	H	0.494125	-0.444019	-0.439866
O57	O	1.027305	-0.806884	-0.219710
C58	C	1.027476	-0.728778	-0.220523
H59	H	1.019245	-0.708308	-0.279158
H60	H	1.082254	-0.707590	-0.198713
C61	C	0.974894	-0.724872	-0.099648
C62	C	0.964778	-0.699731	-0.171664
H63	H	0.936222	-0.706953	-0.069507
H64	H	0.974781	-0.777493	-0.099098
H65	H	1.020545	-0.707213	-0.081483
H66	H	0.919133	-0.717396	-0.189831
H67	H	0.964882	-0.647111	-0.172216
O68	O	0.970775	-0.264093	-0.779147
C69	C	0.923200	-0.306387	-0.734691
H70	H	0.949127	-0.362669	-0.723167
H71	H	0.868666	-0.314541	-0.764307
C72	C	0.878034	-0.196416	-0.675848
C73	C	0.909881	-0.265541	-0.661688
H74	H	0.869815	-0.171220	-0.630817
H75	H	0.910084	-0.167921	-0.705801
H76	H	0.832592	-0.203221	-0.700529
H77	H	0.955326	-0.258735	-0.637016
H78	H	0.877838	-0.294034	-0.631729
O79	O	1.198325	-0.806559	-0.390764
C80	C	1.226173	-0.763601	-0.332440
H81	H	1.198031	-0.780534	-0.279099
H82	H	1.215171	-0.702477	-0.343710
C83	C	1.344034	-0.755576	-0.391079
C84	C	1.309474	-0.776378	-0.325563
H85	H	1.395418	-0.763453	-0.386838
H86	H	1.325272	-0.784515	-0.430375
H87	H	1.334858	-0.704640	-0.400463
H88	H	1.318642	-0.827315	-0.316184
H89	H	1.328239	-0.747447	-0.286265
H90	H	1.148891	-0.443802	-0.785246
O91	O	0.639577	-0.264069	-0.261869
C92	C	0.620753	-0.280198	-0.188495
H93	H	0.599597	-0.339523	-0.184682
H94	H	0.576153	-0.240360	-0.169325
C95	C	0.715001	-0.198628	-0.144078
C96	C	0.689023	-0.271495	-0.139393
H97	H	0.757112	-0.193257	-0.113788
H98	H	0.727682	-0.187759	-0.193511
H99	H	0.677828	-0.165438	-0.128104
H100	H	0.726192	-0.304682	-0.155376
H101	H	0.676350	-0.282369	-0.089961
O102	O	1.099648	-0.907918	-0.489475
C103	C	1.164135	-0.950790	-0.484477
H104	H	1.170702	-0.972112	-0.425929
H105	H	1.213593	-0.915199	-0.499637
C106	C	1.150831	-0.990711	-0.609539
C107	C	1.158894	-1.016904	-0.537630
H108	H	1.147601	-1.031491	-0.642329
H109	H	1.107386	-0.961825	-0.612908
H110	H	1.192048	-0.961052	-0.622162
H111	H	1.117674	-1.046554	-0.525006
H112	H	1.202332	-1.045796	-0.534261
H113	H	0.494124	-0.271473	-0.269377
H114	H	0.972663	-0.811041	-0.445229
O115	O	0.970820	-0.263885	-0.930630
C116	C	0.929282	-0.221987	-0.880235
H117	H	0.959417	-0.219430	-0.825452
H118	H	0.873372	-0.249181	-0.872048
C119	C	0.881711	-0.146080	-0.977532
C120	C	0.918727	-0.142934	-0.910249
H121	H	0.875197	-0.097317	-0.996047
H122	H	0.909694	-0.174309	-1.011485
H123	H	0.835124	-0.168745	-0.970700
H124	H	0.965317	-0.120278	-0.917083
H125	H	0.890752	-0.114699	-0.876298
O126	O	0.928627	-0.908072	-0.318502
C127	C	0.876910	-0.882938	-0.370412
H128	H	0.906135	-0.869020	-0.424024
H129	H	0.848332	-0.831306	-0.348493
C130	C	0.783645	-0.961126	-0.318453
C131	C	0.819540	-0.944038	-0.384303
H132	H	0.748255	-0.998813	-0.327020
H133	H	0.818487	-0.978058	-0.283478
H134	H	0.759837	-0.918094	-0.300194
H135	H	0.843355	-0.987067	-0.402556
H136	H	0.784701	-0.927115	-0.419282
H137	H	1.154323	-0.903519	-0.263881
O138	O	1.156387	-0.451120	-0.930753
C139	C	1.203940	-0.408830	-0.975236
H140	H	1.208512	-0.350345	-0.952086
H141	H	1.181200	-0.406255	-1.033483
C142	C	1.274810	-0.516946	-1.004848
C143	C	1.280431	-0.445116	-0.976411
H144	H	1.321993	-0.539330	-1.005577
H145	H	1.242772	-0.545439	-0.974882
H146	H	1.255858	-0.514791	-1.053385
H147	H	1.299374	-0.447272	-0.927872
H148	H	1.312474	-0.416624	-1.006370
O149	O	0.639481	-0.451508	-0.447304
C150	C	0.589077	-0.493491	-0.488767
H151	H	0.534305	-0.463079	-0.491365
H152	H	0.580870	-0.549863	-0.461728
C153	C	0.686367	-0.541637	-0.563882
C154	C	0.619096	-0.504281	-0.567079
H155	H	0.704884	-0.548296	-0.612187
H156	H	0.720326	-0.513354	-0.535946
H157	H	0.679518	-0.588610	-0.541346
H158	H	0.625947	-0.457306	-0.589605
H159	H	0.585139	-0.532556	-0.595020
