data_functionalizedCrystal
_audit_creation_method	'MofGen! by Chris Wilmer'
_symmetry_space_group_name_H-M	'P1'
_symmetry_Int_Tables_number	1
_symmetry_cell_setting	triclinic
loop_
_symmetry_equiv_pos_as_xyz
  x,y,z
_cell_length_a	27.440280
_cell_length_b	21.606444
_cell_length_c	21.606444
_cell_angle_alpha	60.001331
_cell_angle_beta	90.005497
_cell_angle_gamma	59.997270
loop_
_atom_site_label
_atom_site_type_symbol
_atom_site_fract_x
_atom_site_fract_y
_atom_site_fract_z
Zr1	Zr	0.469493	0.677381	-0.081126
O2	O	0.391669	0.806515	-0.179961
O3	O	0.493351	0.548258	-0.050831
O4	O	0.493344	0.677382	-0.179949
O5	O	0.391679	0.677387	0.051011
O6	O	0.573547	0.677370	-0.179936
O7	O	0.391675	0.677391	-0.050843
O8	O	0.573558	0.446391	0.051033
O9	O	0.391668	0.908366	-0.179958
O10	O	0.563379	0.601355	-0.037897
O11	O	0.503528	0.601361	0.038106
O12	O	0.503520	0.753388	-0.113914
O13	O	0.443669	0.753393	-0.037911
Zr14	Zr	0.597413	0.677355	0.081340
Zr15	Zr	0.597407	0.677362	-0.081106
Zr16	Zr	0.469499	0.677374	0.081319
Zr17	Zr	0.469491	0.839821	-0.081121
Zr18	Zr	0.597415	0.514915	0.081335
O19	O	0.573555	0.806478	0.051044
O20	O	0.573546	0.806488	-0.179932
O21	O	0.391678	0.806505	0.051016
O22	O	0.675237	0.548221	0.180175
O23	O	0.675228	0.548231	-0.050802
O24	O	0.493360	0.548248	0.180146
O25	O	0.675227	0.677349	-0.050798
O26	O	0.573561	0.677354	0.180163
O27	O	0.493359	0.677366	0.180150
O28	O	0.675231	0.677345	0.051056
O29	O	0.493342	0.908351	-0.179942
O30	O	0.573563	0.446385	0.180155
O31	O	0.675238	0.446370	0.180172
O32	O	0.675233	0.446376	0.051049
O33	O	0.391673	0.908361	-0.050835
O34	O	0.493348	0.908345	-0.050819
O35	O	0.563385	0.601349	0.114128
O36	O	0.623237	0.601343	0.038125
O37	O	0.563378	0.753375	-0.037892
O38	O	0.503527	0.753381	0.038111
C39	C	0.533455	0.474180	0.000100
C40	C	0.533455	0.405220	0.000098
C41	C	0.564696	0.372819	-0.039576
C42	C	0.564698	0.308019	-0.039571
C43	C	0.533456	0.275626	0.000104
C44	C	0.502214	0.308029	0.039783
C45	C	0.502216	0.372823	0.039782
C46	C	0.502207	0.046720	0.039789
C47	C	0.502206	-0.018078	0.039786
C48	C	0.564689	-0.018084	-0.039563
C49	C	0.564691	0.046710	-0.039564
C50	C	0.533452	0.079104	0.000117
C51	C	0.533451	0.149367	0.000112
C52	C	0.533453	0.205369	0.000105
C53	C	0.373452	0.677392	0.000081
C54	C	0.319149	0.677400	0.000073
C55	C	0.013697	0.597994	0.039808
C56	C	-0.037322	0.597990	0.039815
O57	O	-0.037136	0.530497	0.073584
N58	N	-0.094084	0.677348	0.000134
C59	C	-0.099827	0.756716	-0.039550
O60	O	-0.152793	0.824217	-0.073301
C61	C	-0.048809	0.756720	-0.039552
C62	C	0.007952	0.677357	0.000125
C63	C	0.070456	0.518637	0.079483
C64	C	0.121471	0.518642	0.079475
C65	C	0.115726	0.598005	0.039792
C66	C	0.058967	0.677362	0.000117
C67	C	-0.054553	0.836088	-0.079231
C68	C	-0.003529	0.836085	-0.079229
C69	C	0.053233	0.756721	-0.039552
C70	C	0.104238	0.756729	-0.039574
N71	N	0.161000	0.677371	0.000107
C72	C	0.166744	0.598009	0.039790
C73	C	-0.206966	0.756702	-0.039542
C74	C	-0.257983	0.756699	-0.039545
C75	C	-0.195474	0.597972	0.039821
C76	C	-0.144456	0.597976	0.039819
C77	C	-0.150204	0.677344	0.000139
C78	C	0.273877	0.598025	0.039770
C79	C	0.324893	0.598038	0.039756
C80	C	0.262380	0.756764	-0.039607
C81	C	0.211367	0.756753	-0.039597
C82	C	0.217120	0.677376	0.000097
O83	O	0.104098	0.824187	-0.073323
O84	O	0.219712	0.530520	0.073543
C85	C	0.693454	0.677344	0.000132
C86	C	0.747757	0.677336	0.000141
C87	C	0.533445	0.677377	-0.203088
C88	C	0.533442	0.677380	-0.272050
C89	C	0.533451	0.880556	0.000113
C90	C	0.533451	0.949516	0.000116
C91	C	0.502196	0.756739	-0.344129
C92	C	0.502201	0.756736	-0.408924
C93	C	0.533449	0.677374	-0.401638
C94	C	0.564699	0.598009	-0.329552
C95	C	0.564697	0.598013	-0.264759
C96	C	0.564708	0.597994	-0.590855
C97	C	0.564707	0.597997	-0.655656
C98	C	0.502213	0.756718	-0.735020
C99	C	0.502211	0.756721	-0.670227
C100	C	0.533463	0.677357	-0.598146
C101	C	0.533458	0.677360	-0.527889
C102	C	0.533451	0.677370	-0.471894
C103	C	0.533461	0.677359	0.203301
C104	C	0.533464	0.677356	0.272264
C105	C	0.693456	0.474156	0.000126
C106	C	0.747759	0.405188	0.000132
C107	C	0.533463	0.474171	0.203295
C108	C	0.533466	0.405208	0.272255
C109	C	0.693464	0.474148	0.203320
C110	C	0.747770	0.405176	0.272289
C111	C	0.373442	0.880589	-0.203107
C112	C	0.319136	0.949560	-0.272075
C113	C	0.373450	0.880580	0.000088
C114	C	0.319147	0.949548	0.000082
C115	C	0.533443	0.880565	-0.203081
C116	C	0.533440	0.949528	-0.272041
C117	C	0.742016	0.372806	-0.039554
C118	C	0.793035	0.308012	-0.039564
C119	C	0.849797	0.275597	0.000119
C120	C	0.855539	0.307985	0.039806
C121	C	0.804521	0.372782	0.039811
C122	C	0.564713	0.372816	0.344329
C123	C	0.564713	0.308027	0.409131
C124	C	0.533471	0.275627	0.401857
C125	C	0.502220	0.308025	0.329775
C126	C	0.502217	0.372818	0.264975
C127	C	0.804520	0.372784	0.265005
C128	C	0.855551	0.307987	0.329802
C129	C	0.849832	0.275580	0.401883
C130	C	0.793076	0.307979	0.409166
C131	C	0.742046	0.372779	0.344369
C132	C	0.262386	0.981960	-0.264791
C133	C	0.211354	1.046777	-0.329588
C134	C	0.217074	1.079188	-0.401669
C135	C	0.273830	1.046785	-0.408952
C136	C	0.324860	0.981974	-0.344156
C137	C	0.324890	0.981937	0.039761
C138	C	0.273871	1.046749	0.039753
C139	C	0.217109	1.079166	0.000068
C140	C	0.211367	1.046775	-0.039617
C141	C	0.262385	0.981969	-0.039612
C142	C	0.564688	0.981908	-0.264743
C143	C	0.564697	1.046697	-0.329532
C144	C	0.533453	1.079110	-0.401619
C145	C	0.502203	1.046724	-0.408916
C146	C	0.502199	0.981932	-0.344127
H147	H	0.590129	0.073086	-0.071875
H148	H	0.476763	0.821346	-0.676166
O149	O	0.786917	0.273007	0.486916
H150	H	0.762148	0.327385	0.493526
H151	H	0.371104	0.955547	0.072082
O152	O	0.280071	1.081668	0.082568
H153	H	0.328113	1.048220	0.110175
O154	O	0.904824	0.205706	0.000115
H155	H	0.904786	0.146668	0.024943
O156	O	0.598402	0.512408	-0.321687
H157	H	0.593149	0.525736	-0.378851
H158	H	0.590131	0.955527	-0.206052
H159	H	0.476775	0.399205	0.072086
O160	O	0.598414	0.407750	0.352191
H161	H	0.593172	0.458242	0.295028
O162	O	0.162091	1.149055	0.000086
H163	H	0.135140	1.208118	-0.058994
O164	O	0.468492	0.947014	-0.352010
H165	H	0.473737	0.896507	-0.294853
H166	H	0.476774	0.399183	0.206292
H167	H	0.590143	1.073059	-0.323576
O168	O	0.256209	0.947014	-0.187050
H169	H	0.208170	0.980450	-0.192884
O170	O	0.598431	0.273075	0.486870
H171	H	0.620165	0.306479	0.481035
H172	H	-0.098241	0.533351	0.072135
O173	O	0.468522	1.081690	-0.486678
H174	H	0.486586	1.027301	-0.493275
H175	H	0.175517	1.131961	-0.454425
H176	H	0.165144	1.073180	-0.071927
O177	O	0.468537	0.273054	0.321950
H178	H	0.420509	0.327432	0.290491
H179	H	0.371067	0.955594	-0.350096
H180	H	0.533479	0.222869	0.454627
O181	O	0.598394	0.512420	-0.187012
H182	H	0.620118	0.457233	-0.192829
O183	O	0.386115	0.512432	0.082555
H184	H	0.410845	0.508633	0.042492
O185	O	0.280083	0.512415	0.082571
H186	H	0.328126	0.457241	0.110147
O187	O	0.598393	0.407758	-0.082368
H188	H	0.620121	0.374332	-0.109949
O189	O	0.916755	0.273080	0.321915
H190	H	0.941485	0.285544	0.349517
H191	H	0.257700	0.955600	-0.071922
H192	H	0.891388	0.222815	0.454638
H193	H	0.278480	1.073182	-0.467648
H194	H	0.901761	0.281583	0.072114
H195	H	-0.304197	0.821325	-0.071864
O196	O	0.533451	1.149005	-0.471497
H197	H	0.560425	1.166079	-0.454303
O198	O	0.810697	0.407741	0.187264
H199	H	0.858735	0.374332	0.193097
H200	H	0.075144	0.454007	0.111801
H201	H	0.695839	0.399144	0.350311
H202	H	0.167685	0.454016	0.111781
H203	H	0.590137	0.281639	-0.071876
H204	H	0.590128	-0.044469	-0.071872
H205	H	0.476764	-0.044451	0.072096
O206	O	0.150146	1.081710	-0.321718
H207	H	0.115617	1.132231	-0.378881
O208	O	0.468508	0.081666	0.082577
H209	H	0.446778	0.048261	0.110156
O210	O	0.468517	0.842319	-0.812769
H211	H	0.433989	0.846119	-0.844202
O212	O	0.468513	0.273098	0.082574
H213	H	0.473753	0.222607	0.075902
O214	O	-0.189278	0.512367	0.082628
H215	H	-0.211019	0.508569	0.126487
O216	O	-0.213150	0.842298	-0.082364
H217	H	-0.237926	0.880379	-0.059458
O218	O	-0.115768	0.921689	-0.122025
H219	H	-0.120949	0.959729	-0.099085
O220	O	-0.009701	0.921671	-0.122043
H221	H	-0.034470	0.959756	-0.099138
O222	O	0.150142	0.842348	-0.082391
H223	H	0.154722	0.897534	-0.109984
H224	H	0.257713	0.821379	-0.071919
H225	H	0.476759	0.821358	-0.467612
O226	O	0.468492	0.842337	-0.351988
H227	H	0.446771	0.897519	-0.412997
H228	H	0.590154	0.533367	-0.649715
O229	O	0.598407	0.512399	-0.513116
H230	H	0.620128	0.457216	-0.518939
H231	H	0.695802	0.399198	-0.071878
H232	H	0.788348	0.281650	-0.071882
O233	O	0.810724	0.407690	0.082631
H234	H	0.765716	0.458196	0.075973
