data_functionalizedCrystal
_audit_creation_method	'MofGen! by Chris Wilmer'
_symmetry_space_group_name_H-M	'P1'
_symmetry_Int_Tables_number	1
_symmetry_cell_setting	triclinic
loop_
_symmetry_equiv_pos_as_xyz
  x,y,z
_cell_length_a	19.805407
_cell_length_b	29.839131
_cell_length_c	19.805399
_cell_angle_alpha	90.029565
_cell_angle_beta	90.019573
_cell_angle_gamma	90.041420
loop_
_atom_site_label
_atom_site_type_symbol
_atom_site_fract_x
_atom_site_fract_y
_atom_site_fract_z
Zn1	Zn	1.034665	-0.178864	0.382710
Zn2	Zn	1.534665	0.321136	0.882710
Zn3	Zn	1.034550	-0.253991	0.269518
Zn4	Zn	1.534550	0.246009	0.769518
Zn5	Zn	0.921480	-0.178876	0.269535
Zn6	Zn	1.421480	0.321124	0.769535
Zn7	Zn	0.921414	-0.253967	0.382665
Zn8	Zn	1.421414	0.246033	0.882665
O9	O	0.978027	-0.216425	0.326107
O10	O	1.478027	0.283575	0.826107
O11	O	1.129366	-0.188834	0.367707
O12	O	1.629366	0.311166	0.867707
O13	O	1.019531	-0.244042	0.174804
O14	O	1.519531	0.255958	0.674804
O15	O	0.936570	-0.116007	0.284574
O16	O	1.436570	0.383993	0.784574
O17	O	1.129282	-0.244030	0.284545
O18	O	1.629282	0.255970	0.784545
O19	O	1.019727	-0.115998	0.367723
O20	O	1.519727	0.384002	0.867723
O21	O	0.936458	-0.188856	0.174816
O22	O	1.436458	0.311144	0.674816
O23	O	0.826754	-0.188832	0.284530
O24	O	1.326754	0.311168	0.784530
O25	O	0.936457	-0.243990	0.477388
O26	O	1.436457	0.256010	0.977388
O27	O	0.826706	-0.244002	0.367646
O28	O	1.326706	0.255998	0.867646
O29	O	1.019662	-0.188811	0.477421
O30	O	1.519662	0.311189	0.977421
O31	O	1.019467	-0.316855	0.284501
O32	O	1.519467	0.183145	0.784501
O33	O	0.936346	-0.316838	0.367630
O34	O	1.436346	0.183162	0.867630
C35	C	0.802171	-0.216416	0.326085
C36	C	1.302171	0.283584	0.826085
C37	C	0.726939	-0.216423	0.326092
C38	C	1.226939	0.283577	0.826092
C39	C	0.691587	-0.245193	0.369300
C40	C	1.191587	0.254807	0.869300
C41	C	0.620899	-0.245194	0.369310
C42	C	1.120899	0.254806	0.869310
C43	C	0.585564	-0.216427	0.326107
C44	C	1.085564	0.283573	0.826107
C45	C	0.620920	-0.187654	0.282897
C46	C	1.120920	0.312346	0.782897
C47	C	0.691607	-0.187651	0.282891
C48	C	1.191607	0.312349	0.782891
C49	C	0.335847	-0.187664	0.282919
C50	C	0.835847	0.312336	0.782919
C51	C	0.265155	-0.187669	0.282927
C52	C	0.765155	0.312331	0.782927
C53	C	0.265139	-0.245207	0.369338
C54	C	0.765139	0.254793	0.869338
C55	C	0.335826	-0.245204	0.369332
C56	C	0.835826	0.254796	0.869332
C57	C	0.371176	-0.216429	0.326125
C58	C	0.871176	0.283571	0.826125
C59	C	0.447825	-0.216428	0.326116
C60	C	0.947825	0.283572	0.826116
C61	C	0.508916	-0.216430	0.326112
C62	C	1.008916	0.283570	0.826112
C63	C	0.977905	-0.333147	0.326073
C64	C	1.477905	0.166853	0.826073
C65	C	0.977915	-0.383082	0.326082
C66	C	1.477915	0.116918	0.826082
C67	C	1.021387	-0.692722	0.282885
C68	C	1.521387	-0.192722	0.782885
C69	C	1.021471	-0.880395	0.282912
C70	C	1.521471	-0.380395	0.782912
O71	O	1.058335	-0.904656	0.246159
O72	O	1.558335	-0.404656	0.746159
N73	N	0.978168	-0.903867	0.326158
N74	N	1.478168	-0.403867	0.826158
C75	C	0.934844	-0.880418	0.369404
C76	C	1.434844	-0.380418	0.869404
O77	O	0.898019	-0.904688	0.406194
O78	O	1.398019	-0.404688	0.906194
C79	C	0.934764	-0.692746	0.369381
C80	C	1.434764	-0.192746	0.869381
C81	C	0.978065	-0.669276	0.326127
C82	C	1.478065	-0.169276	0.826127
C83	C	1.064685	-0.669252	0.239635
C84	C	1.564685	-0.169252	0.739635
C85	C	1.064661	-0.622336	0.239626
C86	C	1.564661	-0.122336	0.739626
C87	C	1.021339	-0.598891	0.282868
C88	C	1.521339	-0.098891	0.782868
C89	C	0.978041	-0.622360	0.326118
C90	C	1.478041	-0.122360	0.826118
C91	C	0.891444	-0.669297	0.412630
C92	C	1.391444	-0.169297	0.912630
C93	C	0.891429	-0.622376	0.412621
C94	C	1.391429	-0.122376	0.912621
C95	C	0.934730	-0.598907	0.369367
C96	C	1.434730	-0.098907	0.869367
C97	C	0.934695	-0.551999	0.369351
C98	C	1.434695	-0.051999	0.869351
N99	N	0.977998	-0.528527	0.326104
N100	N	1.477998	-0.028527	0.826104
C101	C	1.021320	-0.551973	0.282863
C102	C	1.521320	-0.051973	0.782863
C103	C	0.934888	-0.978948	0.369412
C104	C	1.434888	-0.478948	0.869412
C105	C	0.934907	-1.025866	0.369418
C106	C	1.434907	-0.525866	0.869418
C107	C	1.021534	-1.025840	0.282926
C108	C	1.521534	-0.525840	0.782926
C109	C	1.021512	-0.978921	0.282918
C110	C	1.521512	-0.478921	0.782918
C111	C	0.978191	-0.955476	0.326166
C112	C	1.478191	-0.455476	0.826166
C113	C	1.021266	-0.453447	0.282847
C114	C	1.521266	0.046553	0.782847
C115	C	1.021237	-0.406527	0.282840
C116	C	1.521237	0.093473	0.782840
C117	C	0.934611	-0.406558	0.369334
C118	C	1.434611	0.093442	0.869334
C119	C	0.934638	-0.453473	0.369339
C120	C	1.434638	0.046527	0.869339
C121	C	0.977971	-0.476917	0.326093
C122	C	1.477971	0.023083	0.826093
O123	O	0.897855	-0.527708	0.406090
O124	O	1.397855	-0.027708	0.906090
O125	O	1.058150	-0.527694	0.246090
O126	O	1.558150	-0.027694	0.746090
C127	C	1.021411	-0.739637	0.282894
C128	C	1.521411	-0.239637	0.782894
C129	C	0.978113	-0.763107	0.326144
C130	C	1.478113	-0.263107	0.826144
C131	C	0.934791	-0.739661	0.369386
C132	C	1.434791	-0.239661	0.869386
C133	C	0.978132	-0.810025	0.326149
C134	C	1.478132	-0.310025	0.826149
C135	C	1.021454	-0.833470	0.282908
C136	C	1.521454	-0.333470	0.782908
C137	C	1.064757	-0.809998	0.239661
C138	C	1.564757	-0.309998	0.739661
C139	C	1.064733	-0.763083	0.239653
C140	C	1.564733	-0.263083	0.739653
C141	C	0.891488	-0.763133	0.412632
C142	C	1.391488	-0.263133	0.912632
C143	C	0.891515	-0.810049	0.412637
C144	C	1.391515	-0.310049	0.912637
C145	C	0.934837	-0.833494	0.369395
C146	C	1.434837	-0.333494	0.869395
C147	C	1.154570	-0.216434	0.326129
C148	C	1.654570	0.283566	0.826129
C149	C	1.229802	-0.216437	0.326139
C150	C	1.729802	0.283563	0.826139
C151	C	0.978065	-0.216396	0.502650
C152	C	1.478065	0.283604	1.002650
C153	C	0.978081	-0.216384	0.577882
C154	C	1.478081	0.283616	1.077882
C155	C	0.978168	-0.099246	0.326156
C156	C	1.478168	0.400754	0.826156
C157	C	0.978228	-0.049312	0.326176
C158	C	1.478228	0.450688	0.826176
C159	C	0.978028	-0.216420	0.150251
C160	C	1.478028	0.283580	0.650251
C161	C	0.978143	-0.216306	0.075019
C162	C	1.478143	0.283694	0.575019
C163	C	1.021407	-0.187652	0.613244
C164	C	1.521407	0.312348	1.113244
C165	C	1.021414	-0.187638	0.683933
C166	C	1.521414	0.312362	1.183933
C167	C	0.978098	-0.216361	0.719258
C168	C	1.478098	0.283639	1.219258
C169	C	0.934767	-0.245095	0.683890
C170	C	1.434767	0.254905	1.183890
C171	C	0.934757	-0.245105	0.613203
C172	C	1.434757	0.254895	1.113203
C173	C	0.934806	-0.245053	0.968963
C174	C	1.434806	0.254947	1.468963
C175	C	0.934820	-0.245041	1.039656
C176	C	1.434820	0.254959	1.539656
C177	C	1.021462	-0.187586	1.039694
C178	C	1.521462	0.312414	1.539694
C179	C	1.021453	-0.187597	0.969006
C180	C	1.521453	0.312403	1.469006
C181	C	0.978120	-0.216329	0.933645
C182	C	1.478120	0.283671	1.433645
C183	C	0.978112	-0.216342	0.856997
C184	C	1.478112	0.283658	1.356997
C185	C	0.978109	-0.216350	0.795905
C186	C	1.478109	0.283650	1.295905
H187	H	0.720390	-0.164221	0.247710
H188	H	1.220390	0.335779	0.747710
H189	H	1.099922	-0.603230	0.204407
H190	H	1.599922	-0.103230	0.704407
H191	H	0.364592	-0.268631	0.404510
H192	H	0.864592	0.231369	0.904510
O193	O	1.063366	-0.383799	0.240801
O194	O	1.563366	0.116201	0.740801
C195	C	1.101596	-0.414557	0.202628
C196	C	1.601596	0.085443	0.702628
H197	H	1.103937	-0.447988	0.230362
H198	H	1.603937	0.052012	0.730362
H199	H	1.154923	-0.400969	0.195454
H200	H	1.654923	0.099031	0.695454
H201	H	1.076843	-0.419588	0.151200
H202	H	1.576843	0.080412	0.651200
H203	H	1.099967	-0.688336	0.204423
H204	H	1.599967	-0.188336	0.704423
H205	H	1.056554	-0.472529	0.247634
H206	H	1.556554	0.027471	0.747634
H207	H	1.056809	-1.044937	0.247717
H208	H	1.556809	-0.544937	0.747717
H209	H	0.856180	-0.688398	0.447849
H210	H	1.356180	-0.188398	0.947849
O211	O	0.230724	-0.159769	0.240974
O212	O	0.730724	0.340231	0.740974
C213	C	0.160754	-0.165939	0.250252
C214	C	0.660754	0.334061	0.750252
H215	H	0.151082	-0.200628	0.272331
H216	H	0.651082	0.299372	0.772331
H217	H	0.133873	-0.162856	0.199562
H218	H	0.633873	0.337144	0.699562
H219	H	0.140727	-0.139323	0.286366
H220	H	0.640727	0.360677	0.786366
H221	H	1.056696	-0.164242	0.712722
H222	H	1.556696	0.335758	1.212722
H223	H	0.899531	-0.268455	0.940181
H224	H	1.399531	0.231545	1.440181
O225	O	0.370076	-0.159699	0.240886
O226	O	0.870076	0.340301	0.740886
C227	C	0.323727	-0.134302	0.202769
C228	C	0.823727	0.365698	0.702769
H229	H	0.273323	-0.152707	0.200375
H230	H	0.773323	0.347293	0.700375
H231	H	0.344133	-0.129457	0.149453
H232	H	0.844133	0.370543	0.649453
H233	H	0.316248	-0.100207	0.227655
H234	H	0.816248	0.399793	0.727655
O235	O	1.063543	-0.956174	0.240810
O236	O	1.563543	-0.456174	0.740810
C237	C	1.048782	-0.967667	0.173338
C238	C	1.548782	-0.467667	0.673338
H239	H	1.022772	-1.001749	0.171918
H240	H	1.522772	-0.501749	0.671918
H241	H	1.097649	-0.969256	0.143034
H242	H	1.597649	-0.469256	0.643034
H243	H	1.013989	-0.941292	0.150504
H244	H	1.513989	-0.441292	0.650504
H245	H	0.236348	-0.268634	0.404522
H246	H	0.736348	0.231366	0.904522
O247	O	0.586493	-0.159749	0.240954
O248	O	1.086493	0.340251	0.740954
C249	C	0.516522	-0.165911	0.250235
C250	C	1.016522	0.334089	0.750235
H251	H	0.506841	-0.200603	0.272303
H252	H	1.006841	0.299397	0.772303
H253	H	0.489638	-0.162818	0.199548
H254	H	0.989638	0.337182	0.699548
H255	H	0.496505	-0.139298	0.286359
H256	H	0.996505	0.360702	0.786359
O257	O	0.892817	-1.048592	0.411493
O258	O	1.392817	-0.548592	0.911493
C259	C	0.854568	-1.017832	0.449644
C260	C	1.354568	-0.517832	0.949644
H261	H	0.882280	-0.984369	0.452004
H262	H	1.382280	-0.484369	0.952004
H263	H	0.847322	-1.031368	0.502969
H264	H	1.347322	-0.531368	1.002969
H265	H	0.803176	-1.012885	0.424809
H266	H	1.303176	-0.512885	0.924809
H267	H	0.899609	-0.959863	0.404631
H268	H	1.399609	-0.459863	0.904631
O269	O	0.849284	-0.599672	0.454658
O270	O	1.349284	-0.099672	0.954658
C271	C	0.811088	-0.630452	0.492846
C272	C	1.311088	-0.130452	0.992846
H273	H	0.808775	-0.663909	0.465122
H274	H	1.308775	-0.163909	0.965122
H275	H	0.757750	-0.616931	0.500022
H276	H	1.257750	-0.116931	1.000022
H277	H	0.835853	-0.635406	0.544271
H278	H	1.335853	-0.135406	1.044271
O279	O	0.892553	-0.476205	0.411417
O280	O	1.392553	0.023795	0.911417
C281	C	0.854297	-0.445448	0.449566
C282	C	1.354297	0.054552	0.949566
H283	H	0.882000	-0.411981	0.451922
H284	H	1.382000	0.088019	0.951922
H285	H	0.847057	-0.458983	0.502893
H286	H	1.347057	0.041017	1.002893
H287	H	0.802902	-0.440509	0.424733
H288	H	1.302902	0.059491	0.924733
H289	H	0.899337	-0.387461	0.404539
H290	H	1.399337	0.112539	0.904539
H291	H	1.099993	-0.743977	0.204431
H292	H	1.599993	-0.243977	0.704431
H293	H	1.100029	-0.829096	0.204451
H294	H	1.600029	-0.329096	0.704451
O295	O	1.063551	-0.159653	0.934798
O296	O	1.563551	0.340347	1.434798
C297	C	1.101806	-0.134296	0.981168
C298	C	1.601806	0.365704	1.481168
H299	H	1.074093	-0.132732	1.031553
H300	H	1.574093	0.367268	1.531553
H301	H	1.109063	-0.098904	0.960761
H302	H	1.609063	0.401096	1.460761
H303	H	1.153193	-0.150748	0.988688
H304	H	1.653193	0.349252	1.488688
H305	H	0.856248	-0.829154	0.447859
H306	H	1.356248	-0.329154	0.947859
H307	H	0.592119	-0.268622	0.404494
H308	H	1.092119	0.231378	0.904494
H309	H	0.856211	-0.744047	0.447845
H310	H	1.356211	-0.244047	0.947845
H311	H	1.056683	-0.164264	0.584488
H312	H	1.556683	0.335736	1.084488
H313	H	1.056744	-0.164189	1.068493
H314	H	1.556744	0.335811	1.568493
O315	O	0.892673	-0.272956	1.073866
O316	O	1.392673	0.227044	1.573866
C317	C	0.854434	-0.298326	1.027499
C318	C	1.354434	0.201674	1.527499
H319	H	0.852104	-0.279933	0.977117
H320	H	1.352104	0.220067	1.477117
H321	H	0.801104	-0.303108	1.047915
H322	H	1.301104	0.196892	1.547915
H323	H	0.879172	-0.332450	1.019970
H324	H	1.379172	0.167550	1.519970
H325	H	0.899496	-0.268480	0.712657
H326	H	1.399496	0.231520	1.212657
H327	H	0.720352	-0.268620	0.404479
H328	H	1.220352	0.231380	0.904479
O329	O	0.892658	-0.273065	0.578954
O330	O	1.392658	0.226935	1.078954
C331	C	0.854420	-0.298409	0.625288
C332	C	1.354420	0.201591	1.125288
H333	H	0.882145	-0.299953	0.675683
H334	H	1.382145	0.200047	1.175683
H335	H	0.847165	-0.333809	0.604850
H336	H	1.347165	0.166191	1.104850
H337	H	0.803030	-0.281959	0.632798
H338	H	1.303030	0.218041	1.132798
