data_functionalizedCrystal
_audit_creation_method	'MofGen! by Chris Wilmer'
_symmetry_space_group_name_H-M	'P1'
_symmetry_Int_Tables_number	1
_symmetry_cell_setting	triclinic
loop_
_symmetry_equiv_pos_as_xyz
  x,y,z
_cell_length_a	25.427154
_cell_length_b	25.426324
_cell_length_c	25.422586
_cell_angle_alpha	60.006367
_cell_angle_beta	60.012446
_cell_angle_gamma	59.992398
loop_
_atom_site_label
_atom_site_type_symbol
_atom_site_fract_x
_atom_site_fract_y
_atom_site_fract_z
O1	O	0.072968	-0.768436	0.642532
O2	O	0.027520	-0.598284	0.517710
O3	O	0.135268	-0.705940	0.517611
O4	O	-0.034780	-0.660780	0.642632
O5	O	0.171018	-0.670200	0.553260
O6	O	0.063270	-0.562544	0.553360
O7	O	0.108718	-0.732696	0.678182
Zn8	Zn	0.091670	-0.641945	0.621431
Zn9	Zn	0.044568	-0.689034	0.574461
O10	O	0.000970	-0.625039	0.678281
N11	N	0.123818	-0.609812	0.653490
N12	N	0.012426	-0.721173	0.542402
C13	C	0.168482	-0.466269	0.698103
C14	C	0.168494	-0.565177	0.698095
C15	C	0.193243	-0.540453	0.722807
C16	C	0.301113	-0.521853	0.665993
C17	C	0.368545	-0.544324	0.643486
C18	C	0.368579	-0.653434	0.685090
C19	C	0.301149	-0.630961	0.707599
C20	C	0.184722	-0.432539	0.631812
C21	C	0.162210	-0.365100	0.609357
C22	C	0.107225	-0.365129	0.719489
C23	C	0.129737	-0.432567	0.741943
C24	C	0.102194	-0.548896	0.714421
C25	C	0.079702	-0.571372	0.691949
C26	C	0.189805	-0.626409	0.636839
C27	C	0.212300	-0.603934	0.659303
C28	C	0.102289	-0.548918	0.830735
C29	C	0.079866	-0.571415	0.898171
C30	C	0.190015	-0.626466	0.898104
C31	C	0.212437	-0.603971	0.830666
C32	C	0.168573	-0.565195	0.796984
C33	C	0.267418	-0.565170	0.698047
C34	C	-0.130981	-0.765617	0.497386
C35	C	-0.032127	-0.765741	0.497606
C36	C	-0.056804	-0.790430	0.472789
C37	C	-0.075480	-0.898263	0.529507
C38	C	-0.053057	-0.965702	0.552014
C39	C	0.056052	-0.965829	0.510599
C40	C	0.033627	-0.898392	0.488091
C41	C	-0.164787	-0.781859	0.563659
C42	C	-0.232219	-0.759299	0.586018
C43	C	-0.232034	-0.704261	0.475827
C44	C	-0.164602	-0.726821	0.453469
C45	C	-0.048372	-0.699446	0.481299
C46	C	-0.025938	-0.677008	0.503867
C47	C	0.028987	-0.787155	0.559036
C48	C	0.006552	-0.809596	0.536475
C49	C	-0.048188	-0.699454	0.364860
C50	C	-0.025608	-0.677017	0.297425
C51	C	0.029406	-0.787170	0.297492
C52	C	0.006827	-0.809605	0.364929
C53	C	-0.031972	-0.765745	0.398611
C54	C	-0.032140	-0.864611	0.497548
N55	N	0.401319	-0.609788	0.653344
O56	O	0.621664	-0.620517	0.494685
O57	O	0.621901	-0.745740	0.664659
O58	O	0.621803	-0.745452	0.556857
O59	O	0.621762	-0.620805	0.602487
O60	O	0.514676	-0.709815	0.592658
O61	O	0.514774	-0.710104	0.700460
O62	O	0.514537	-0.584881	0.530485
Zn63	Zn	0.497647	-0.641834	0.621157
Zn64	Zn	0.638791	-0.688787	0.573988
O65	O	0.514635	-0.585169	0.638287
N66	N	0.735119	-0.720834	0.541794
N67	N	0.123794	-0.332357	0.653504
O68	O	-0.034774	-0.111885	0.642639
O69	O	0.135202	-0.111860	0.517412
O70	O	0.027364	-0.111888	0.517742
O71	O	0.073064	-0.111857	0.642310
O72	O	0.063120	-0.219026	0.553444
O73	O	0.170958	-0.218998	0.553115
O74	O	0.000983	-0.219022	0.678342
Zn75	Zn	0.091647	-0.236020	0.621397
Zn76	Zn	0.044537	-0.094862	0.574357
O77	O	0.108821	-0.218994	0.678013
N78	N	0.012383	0.001474	0.542251
N79	N	0.124036	-0.609854	0.930891
O80	O	0.113202	-0.768401	1.151342
O81	O	-0.011992	-0.598359	1.151385
O82	O	-0.011700	-0.706176	1.151343
O83	O	0.112910	-0.660584	1.151384
O84	O	0.023980	-0.670446	1.044212
O85	O	0.023689	-0.562630	1.044253
O86	O	0.148882	-0.732671	1.044211
Zn87	Zn	0.091951	-0.641977	1.027223
Zn88	Zn	0.044940	-0.689053	1.168373
O89	O	0.148590	-0.624854	1.044252
N90	N	0.012853	-0.721183	1.264704
C91	C	0.041135	-0.558973	0.518338
C92	C	0.174567	-0.692292	0.518215
C93	C	0.095103	-0.772007	0.677553
C94	C	-0.038330	-0.638687	0.677677
C95	C	0.568366	-0.745166	0.703974
C96	C	0.568246	-0.744810	0.570474
C97	C	0.568069	-0.585454	0.491172
C98	C	0.568192	-0.585812	0.624671
C99	C	0.174449	-0.165294	0.517975
C100	C	0.040949	-0.165460	0.518427
C101	C	-0.038309	-0.165456	0.677735
C102	C	0.095236	-0.165423	0.677328
C103	C	-0.011393	-0.559072	1.097824
C104	C	-0.011024	-0.692583	1.097752
C105	C	0.148283	-0.771958	1.097772
C106	C	0.147922	-0.638440	1.097820
H107	H	0.025889	-0.558152	0.925643
H108	H	0.568183	-0.546658	0.634434
H109	H	0.567992	-0.546139	0.442358
H110	H	0.066565	-0.517338	0.803314
H111	H	0.104814	-0.820885	0.716757
H112	H	0.187070	-0.628684	1.097824
O113	O	-0.096592	-0.165423	0.724555
C114	C	-0.136696	-0.165449	0.701392
H115	H	-0.119275	-0.145178	0.646523
H116	H	-0.188292	-0.134338	0.721143
H117	H	-0.134953	-0.216849	0.717782
O118	O	0.177899	-0.332230	0.544979
C119	C	0.149738	-0.265481	0.534560
H120	H	0.106473	-0.256286	0.578826
H121	H	0.133341	-0.239842	0.490869
H122	H	0.186625	-0.246339	0.525559
H123	H	-0.088349	-0.993100	0.578027
O124	O	0.568179	-0.791548	0.558934
C125	C	0.512734	-0.808914	0.603110
H126	H	0.494268	-0.796089	0.647763
H127	H	0.525260	-0.862957	0.617495
H128	H	0.473841	-0.781740	0.579797
O129	O	-0.058365	-0.500867	1.097922
C130	C	-0.112623	-0.509354	1.153412
H131	H	-0.111890	-0.560754	1.171896
H132	H	-0.158380	-0.474051	1.140935
H133	H	-0.111477	-0.500118	1.192274
O134	O	0.232588	-0.164899	0.471014
C135	C	0.272661	-0.164779	0.494145
H136	H	0.241683	-0.144708	0.535647
H137	H	0.303264	-0.133422	0.453694
H138	H	0.305440	-0.216108	0.511799
O139	O	0.107026	-0.165453	0.723961
C140	C	0.170339	-0.165429	0.700475
H141	H	0.200792	-0.185703	0.659118
H142	H	0.192043	-0.196538	0.740805
H143	H	0.169378	-0.114029	0.682513
O144	O	0.195198	-0.830220	1.097842
C145	C	0.212493	-0.858750	1.153337
H146	H	0.199438	-0.819691	1.171854
H147	H	0.266561	-0.885730	1.140855
H148	H	0.185465	-0.893899	1.192177
H149	H	0.396045	-0.707006	0.692856
H150	H	0.031160	-0.165463	0.479291
H151	H	-0.087172	-0.629063	0.716934
H152	H	-0.050155	-0.702322	1.097697
H153	H	0.266414	-0.617231	0.803190
O154	O	0.232713	-0.664138	0.930718
C155	C	0.296024	-0.673659	0.886464
H156	H	0.295863	-0.666119	0.838405
H157	H	0.328073	-0.724802	0.905920
H158	H	0.315332	-0.637757	0.879282
O159	O	0.568559	-0.792085	0.762183
C160	C	0.624055	-0.806999	0.773710
H161	H	0.662787	-0.792709	0.725881
H162	H	0.642736	-0.860941	0.799720
H163	H	0.611518	-0.779408	0.804847
O164	O	0.059615	-0.511155	0.752002
C165	C	0.020580	-0.454600	0.717986
H166	H	0.046583	-0.445210	0.664031
H167	H	0.010386	-0.412126	0.730059
H168	H	-0.026794	-0.460732	0.732362
O169	O	0.015293	-0.555642	0.707916
C170	C	-0.012660	-0.578714	0.775463
H171	H	0.025768	-0.620303	0.797169
H172	H	-0.052404	-0.596232	0.788387
H173	H	-0.033947	-0.538266	0.795451
H174	H	-0.137077	-0.713589	0.399501
H175	H	0.266286	-0.617183	0.646003
O176	O	0.232446	-0.664030	0.599146
C177	C	0.295785	-0.673593	0.589576
H178	H	0.295665	-0.632939	0.597115
H179	H	0.327770	-0.673935	0.538424
H180	H	0.315140	-0.721638	0.625450
O181	O	0.232782	-0.703778	0.471317
C182	C	0.224303	-0.696543	0.417045
H183	H	0.177115	-0.703624	0.432563
H184	H	0.266066	-0.733970	0.394060
H185	H	0.222870	-0.646187	0.380629
H186	H	0.273715	-0.666239	0.733700
O187	O	0.029602	-0.500719	0.471485
C188	C	0.036748	-0.509124	0.417210
H189	H	0.069018	-0.560478	0.417799
H190	H	0.059520	-0.473721	0.371464
H191	H	-0.012514	-0.499969	0.418479
O192	O	0.401178	-0.502156	0.612336
C193	C	0.356946	-0.439270	0.608745
H194	H	0.308870	-0.436645	0.613185
H195	H	0.376398	-0.403628	0.560547
H196	H	0.349803	-0.426684	0.649599
O197	O	-0.085838	-0.656758	0.397479
C198	C	-0.095320	-0.593435	0.353229
H199	H	-0.054617	-0.593611	0.305203
H200	H	-0.095683	-0.561433	0.372740
H201	H	-0.143326	-0.574055	0.345964
O202	O	0.222325	-0.465179	0.589141
C203	C	0.231836	-0.420944	0.525813
H204	H	0.191168	-0.372878	0.525960
H205	H	0.232161	-0.440422	0.493805
H206	H	0.279868	-0.413762	0.506466
O207	O	0.069577	-0.332485	0.762160
C208	C	0.060097	-0.376719	0.825489
H209	H	0.067637	-0.424791	0.825368
H210	H	0.008969	-0.357248	0.857532
H211	H	0.096016	-0.383885	0.844776
O212	O	0.114077	-0.465409	0.806328
C213	C	0.170761	-0.504401	0.822595
H214	H	0.213110	-0.514487	0.778141
H215	H	0.164764	-0.551832	0.861694
H216	H	0.180244	-0.478416	0.841103
O217	O	-0.041403	-0.612631	0.264576
C218	C	-0.075284	-0.596308	0.225484
H219	H	-0.063105	-0.640748	0.215374
H220	H	-0.060876	-0.557227	0.178074
H221	H	-0.129266	-0.577748	0.251391
H222	H	0.060986	-0.822887	0.270075
O223	O	0.022617	-0.874026	0.397613
C224	C	0.061711	-0.907922	0.353421
H225	H	0.053191	-0.875760	0.305305
H226	H	0.049041	-0.952891	0.372870
H227	H	0.114514	-0.922525	0.346354
H228	H	0.273654	-0.468282	0.658214
O229	O	-0.041736	-0.612588	0.487931
C230	C	-0.080689	-0.578690	0.448789
H231	H	-0.072065	-0.610860	0.424267
H232	H	-0.067967	-0.533735	0.410641
H233	H	-0.133530	-0.564063	0.479805
O234	O	0.066532	-0.829845	0.596804
C235	C	0.076072	-0.893168	0.606337
H236	H	0.035450	-0.892996	0.598703
H237	H	0.076340	-0.925174	0.657510
H238	H	0.124140	-0.912540	0.570507
O239	O	0.022240	-0.873985	0.552345
C240	C	-0.034428	-0.890231	0.586156
H241	H	-0.074959	-0.852214	0.608974
H242	H	-0.025589	-0.939202	0.625445
H243	H	-0.048558	-0.892414	0.551392
O244	O	-0.086027	-0.656904	0.443619
C245	C	-0.146003	-0.666526	0.474173
H246	H	-0.140633	-0.717689	0.509819
H247	H	-0.163211	-0.659002	0.436458
H248	H	-0.182663	-0.630666	0.500948
O249	O	0.075803	-0.865772	0.456980
C250	C	0.121630	-0.882288	0.401414
H251	H	0.124791	-0.931238	0.407488
H252	H	0.170692	-0.884652	0.394141
H253	H	0.106466	-0.844332	0.357682
O254	O	0.119936	-0.998721	0.501382
C255	C	0.143340	-1.037730	0.464688
H256	H	0.101722	-1.047776	0.469880
H257	H	0.180584	-1.085180	0.482653
H258	H	0.166641	-1.011780	0.411861
H259	H	-0.137414	-0.813456	0.599420
O260	O	-0.139380	-0.865551	0.538702
C261	C	-0.172823	-0.909720	0.571742
H262	H	-0.138214	-0.957819	0.564017
H263	H	-0.213420	-0.890205	0.552532
H264	H	-0.193877	-0.916850	0.625391
H265	H	-0.259745	-0.772522	0.639985
H266	H	-0.259410	-0.672678	0.440065
