data_functionalizedCrystal
_audit_creation_method	'MofGen! by Chris Wilmer'
_symmetry_space_group_name_H-M	'P1'
_symmetry_Int_Tables_number	1
_symmetry_cell_setting	triclinic
loop_
_symmetry_equiv_pos_as_xyz
  x,y,z
_cell_length_a	15.500346
_cell_length_b	11.792241
_cell_length_c	11.792241
_cell_angle_alpha	84.193416
_cell_angle_beta	86.847467
_cell_angle_gamma	86.839620
loop_
_atom_site_label
_atom_site_type_symbol
_atom_site_fract_x
_atom_site_fract_y
_atom_site_fract_z
O1	O	0.071859	-1.511639	-0.160276
O2	O	0.571859	-1.011639	0.339724
O3	O	0.071879	-1.181300	-0.176310
O4	O	0.571879	-0.681300	0.323690
O5	O	0.071863	-1.354486	-0.003122
O6	O	0.571863	-0.854486	0.496878
O7	O	0.071876	-1.338454	-0.333464
O8	O	0.571876	-0.838454	0.166536
O9	O	-0.072023	-1.344998	0.006310
O10	O	0.427977	-0.844998	0.506310
O11	O	-0.072007	-1.171812	-0.166878
O12	O	0.427993	-0.671812	0.333122
O13	O	-0.072027	-1.502152	-0.150843
O14	O	0.427973	-1.002152	0.349157
Cu15	Cu	-0.085155	-1.336116	-0.157999
Cu16	Cu	0.414845	-0.836116	0.342001
Cu17	Cu	0.085007	-1.347336	-0.169154
Cu18	Cu	0.585007	-0.847336	0.330846
O19	O	-0.072010	-1.328966	-0.324032
O20	O	0.427990	-0.828966	0.175968
C21	C	-0.000061	-1.134265	-0.170587
C22	C	0.499939	-0.634265	0.329413
C23	C	-0.000053	-1.008252	-0.167573
C24	C	0.499947	-0.508252	0.332427
C25	C	-0.000080	-1.348735	0.043885
C26	C	0.499920	-0.848735	0.543885
C27	C	-0.000079	-1.345720	0.169899
C28	C	0.499921	-0.845720	0.669899
N29	N	-0.204837	-1.328233	-0.150153
N30	N	0.295163	-0.828233	0.349847
C31	C	-0.750014	-1.288952	-0.110677
C32	C	-0.250014	-0.788952	0.389323
C33	C	-0.659443	-1.294907	-0.116655
C34	C	-0.159443	-0.794907	0.383345
C35	C	-0.614169	-1.367132	-0.188954
C36	C	-0.114169	-0.867132	0.311046
C37	C	-0.659471	-1.433416	-0.255271
C38	C	-0.159471	-0.933416	0.244729
C39	C	-0.750041	-1.427466	-0.249286
C40	C	-0.250041	-0.927466	0.250714
C41	C	-0.340709	-1.388566	-0.210485
C42	C	0.159291	-0.888566	0.289515
C43	C	-0.250133	-1.394508	-0.216467
C44	C	0.249867	-0.894508	0.283533
C45	C	-0.250111	-1.256001	-0.077850
C46	C	0.249889	-0.756001	0.422150
C47	C	-0.340682	-1.250052	-0.071876
C48	C	0.159318	-0.750052	0.428124
C49	C	-0.385976	-1.316340	-0.138189
C50	C	0.114024	-0.816340	0.361811
C51	C	-0.521591	-1.373218	-0.195069
C52	C	-0.021591	-0.873218	0.304931
C53	C	-0.478553	-1.310259	-0.132067
C54	C	0.021447	-0.810259	0.367933
N55	N	0.204690	-1.355228	-0.176991
N56	N	0.704690	-0.855228	0.323009
C57	C	-0.000084	-1.549187	-0.156567
C58	C	0.499916	-1.049187	0.343433
C59	C	-0.000086	-1.675200	-0.159581
C60	C	0.499914	-1.175200	0.340419
C61	C	-0.000078	-0.777538	-0.162028
C62	C	0.499922	-0.277538	0.337972
C63	C	-0.000065	-0.905924	-0.165109
C64	C	0.499935	-0.405924	0.334891
C65	C	-0.000065	-1.334717	-0.371039
C66	C	0.499935	-0.834717	0.128961
C67	C	-0.000061	-1.337732	-0.497053
C68	C	0.499939	-0.837732	0.002947
C69	C	-0.000064	-1.340178	0.400610
C70	C	0.499936	-0.840178	0.900610
C71	C	-0.000072	-1.343258	0.272225
C72	C	0.499928	-0.843258	0.772225
H73	H	-0.786870	-1.230132	-0.051810
H74	H	-0.286870	-0.730132	0.448190
N75	N	-0.201310	-1.472425	-0.294447
N76	N	0.298690	-0.972425	0.205553
H77	H	-0.163714	-1.530141	-0.247888
H78	H	0.336286	-1.030141	0.252112
H79	H	-0.163802	-1.425736	-0.352142
H80	H	0.336198	-0.925736	0.147858
H81	H	-0.377538	-1.191241	-0.013001
H82	H	0.122462	-0.691241	0.486999
H83	H	-0.377576	-1.442542	-0.264482
H84	H	0.122424	-0.942542	0.235518
H85	H	-0.622602	-1.492229	-0.314132
H86	H	-0.122602	-0.992229	0.185868
H87	H	-0.622568	-1.240941	-0.062651
H88	H	-0.122568	-0.740941	0.437349
N89	N	-0.472751	-1.451113	-0.273044
N90	N	0.027249	-0.951113	0.226956
H91	H	-0.435188	-1.404496	-0.330737
H92	H	0.064812	-0.904496	0.169263
H93	H	-0.515235	-1.492186	-0.314078
H94	H	-0.015235	-0.992186	0.185922
H95	H	-0.786919	-1.481436	-0.303286
H96	H	-0.286919	-0.981436	0.196714
N97	N	-0.527384	-1.232365	-0.054091
N98	N	-0.027384	-0.732365	0.445909
H99	H	-0.511638	-1.150957	-0.076960
H100	H	-0.011638	-0.650957	0.423040
H101	H	-0.511584	-1.255384	0.027272
H102	H	-0.011584	-0.755384	0.527272
N103	N	-0.201260	-1.184520	-0.006319
N104	N	0.298740	-0.684520	0.493681
H105	H	-0.137014	-1.199249	-0.021073
H106	H	0.362986	-0.699249	0.478927
H107	H	-0.217074	-1.205419	0.077120
H108	H	0.282926	-0.705419	0.577120
