data_functionalizedCrystal
_audit_creation_method	'MofGen! by Chris Wilmer'
_symmetry_space_group_name_H-M	'P1'
_symmetry_Int_Tables_number	1
_symmetry_cell_setting	triclinic
loop_
_symmetry_equiv_pos_as_xyz
  x,y,z
_cell_length_a	16.959455
_cell_length_b	19.121063
_cell_length_c	19.120904
_cell_angle_alpha	94.741613
_cell_angle_beta	92.424031
_cell_angle_gamma	92.465894
loop_
_atom_site_label
_atom_site_type_symbol
_atom_site_fract_x
_atom_site_fract_y
_atom_site_fract_z
Zn1	Zn	1.174411	-0.297166	-0.409752
Zn2	Zn	1.174314	-0.409813	-0.297103
Zn3	Zn	1.048126	-0.292160	-0.292107
Zn4	Zn	1.036301	-0.414786	-0.414726
O5	O	1.108288	-0.353481	-0.353422
O6	O	1.285008	-0.312122	-0.394819
O7	O	1.162482	-0.390030	-0.197980
O8	O	1.069867	-0.194362	-0.303541
O9	O	1.284936	-0.394883	-0.312056
O10	O	1.162649	-0.198039	-0.389974
O11	O	1.069772	-0.303591	-0.194309
O12	O	0.935947	-0.308414	-0.308363
O13	O	1.049714	-0.403360	-0.512526
O14	O	0.927260	-0.398506	-0.398451
O15	O	1.151183	-0.316944	-0.508872
O16	O	1.151016	-0.508935	-0.316878
O17	O	1.049619	-0.512589	-0.403295
C18	C	0.902924	-0.353457	-0.353405
C19	C	0.815066	-0.353465	-0.353415
C20	C	0.448086	-0.306537	-0.306606
C21	C	0.439088	-0.400485	-0.400281
C22	C	0.521635	-0.400475	-0.400276
C23	C	0.567411	-0.353496	-0.353435
C24	C	0.530640	-0.306527	-0.306598
C25	C	0.558412	-0.447447	-0.447107
C26	C	0.640963	-0.447439	-0.447104
C27	C	0.686741	-0.400456	-0.400265
C28	C	0.649965	-0.353485	-0.353427
C29	C	0.695741	-0.306506	-0.306586
C30	C	0.658967	-0.259531	-0.259751
C31	C	0.576418	-0.259544	-0.259760
C32	C	0.769290	-0.400444	-0.400256
C33	C	0.778296	-0.306496	-0.306578
C34	C	1.099045	-0.536293	-0.361184
C35	C	1.095162	-0.614501	-0.364528
C36	C	1.146167	-0.649320	-0.321143
C37	C	1.142519	-0.722805	-0.324293
C38	C	1.087862	-0.761471	-0.370823
C39	C	1.036854	-0.726648	-0.414212
C40	C	1.040506	-0.653164	-0.411066
C41	C	1.074196	-0.983442	-0.382575
C42	C	1.070546	-1.056931	-0.385716
C43	C	1.176212	-1.053083	-0.295797
C44	C	1.179856	-0.979598	-0.292652
C45	C	1.128851	-0.944781	-0.336044
C46	C	1.084130	-0.836585	-0.374041
C47	C	1.132587	-0.869668	-0.332828
C48	C	1.314454	-0.353506	-0.353440
C49	C	1.402310	-0.353516	-0.353447
C50	C	1.099140	-0.361265	-0.536943
C51	C	1.095242	-0.364582	-0.615149
C52	C	1.117588	-0.169956	-0.345645
C53	C	1.121551	-0.091749	-0.342332
C54	C	1.146238	-0.321151	-0.649989
C55	C	1.142566	-0.324265	-0.723471
C56	C	1.087901	-0.370814	-0.762112
C57	C	1.036900	-0.414248	-0.727267
C58	C	1.040569	-0.411130	-0.653786
C59	C	1.074177	-0.382477	-0.984073
C60	C	1.070514	-0.385593	-1.057559
C61	C	1.176178	-0.295609	-1.053758
C62	C	1.179846	-0.292498	-0.980276
C63	C	1.128842	-0.335928	-0.945437
C64	C	1.084148	-0.374000	-0.837223
C65	C	1.132592	-0.332739	-0.870327
C66	C	1.117448	-0.345677	-0.170613
C67	C	1.121509	-0.342161	-0.092399
H68	H	0.546469	-0.221300	-0.221629
N69	N	1.202076	-0.273591	-0.610531
N70	N	1.199710	-0.209013	-0.615991
H71	H	1.239145	-0.175420	-0.588127
H72	H	0.696249	-0.221284	-0.221610
N73	N	0.678511	-0.495426	-0.494946
N74	N	0.637629	-0.537369	-0.536762
H75	H	0.664147	-0.571259	-0.570552
H76	H	1.026046	-1.088411	-0.423619
N77	N	1.022070	-0.426833	-0.948497
N78	N	0.948963	-0.422502	-0.956505
H79	H	0.912157	-0.453831	-0.931378
H80	H	1.039627	-0.868075	-0.411925
N81	N	0.410515	-0.258555	-0.258776
N82	N	0.336810	-0.258564	-0.258790
H83	H	0.310274	-0.224676	-0.225010
H84	H	1.224362	-0.948117	-0.254763
N85	N	0.806867	-0.448411	-0.448092
N86	N	0.880572	-0.448392	-0.448083
H87	H	0.907111	-0.482270	-0.481870
H88	H	1.217702	-0.260249	-1.082132
N89	N	1.201997	-0.609837	-0.273603
N90	N	1.247533	-0.640938	-0.234871
H91	H	1.286966	-0.613056	-0.201295
N92	N	1.188418	-0.285180	-0.830859
N93	N	1.164924	-0.238601	-0.787954
H94	H	1.204352	-0.205013	-0.760074
H95	H	0.815561	-0.268235	-0.268438
N96	N	0.392321	-0.448470	-0.448116
N97	N	0.318617	-0.448475	-0.448113
H98	H	0.285584	-0.482365	-0.481899
H99	H	1.184052	-0.751151	-0.288964
N100	N	0.988469	-0.455484	-0.618194
N101	N	0.915361	-0.451151	-0.626193
H102	H	0.878560	-0.482475	-0.601056
N103	N	0.981011	-0.766130	-0.461739
N104	N	0.935472	-0.735031	-0.500469
H105	H	0.896028	-0.762914	-0.534035
H106	H	0.992389	-0.452147	-0.758735
N107	N	0.511643	-0.495430	-0.494943
N108	N	0.437939	-0.495427	-0.494945
H109	H	0.404904	-0.529315	-0.528732
N110	N	1.194662	-0.279895	-0.759048
N111	N	1.243470	-0.238340	-0.724539
H112	H	1.280266	-0.207002	-0.749664
N113	N	1.022103	-0.947890	-0.426907
N114	N	1.023649	-0.958831	-0.492184
H115	H	0.986856	-0.933722	-0.523498
N116	N	1.028307	-0.421552	-0.876686
N117	N	1.030653	-0.486133	-0.871237
H118	H	0.991207	-0.519713	-0.899105
N119	N	1.228302	-1.088659	-0.251480
N120	N	1.225036	-1.154269	-0.254292
H121	H	1.261828	-1.179396	-0.222993
N122	N	0.988405	-0.617606	-0.455391
N123	N	0.939609	-0.652135	-0.496935
H124	H	0.902812	-0.627025	-0.528245
H125	H	1.224361	-0.254594	-0.948819
H126	H	1.177092	-0.838185	-0.294946
H127	H	1.025997	-0.423501	-1.089019
