data_functionalizedCrystal
_audit_creation_method	'MofGen! by Chris Wilmer'
_symmetry_space_group_name_H-M	'P1'
_symmetry_Int_Tables_number	1
_symmetry_cell_setting	triclinic
loop_
_symmetry_equiv_pos_as_xyz
  x,y,z
_cell_length_a	19.288864
_cell_length_b	12.837942
_cell_length_c	17.766277
_cell_angle_alpha	89.994736
_cell_angle_beta	89.976791
_cell_angle_gamma	88.982593
loop_
_atom_site_label
_atom_site_type_symbol
_atom_site_fract_x
_atom_site_fract_y
_atom_site_fract_z
O1	O	0.930181	0.129276	-0.062838
O2	O	0.729111	0.146715	-0.062786
O3	O	0.825187	-0.012886	-0.062806
O4	O	0.834104	0.288878	-0.062818
O5	O	0.825168	-0.012894	0.062382
O6	O	0.729091	0.146707	0.062402
O7	O	0.930161	0.129268	0.062351
Cu8	Cu	0.829625	0.137987	0.073807
Cu9	Cu	0.829647	0.137996	-0.074243
O10	O	0.834085	0.288870	0.062371
C11	C	0.703186	0.146150	-0.000185
C12	C	0.625968	0.144466	-0.000166
C13	C	0.587666	0.238113	-0.000181
C14	C	0.515111	0.236530	-0.000189
C15	C	0.480860	0.141295	-0.000197
C16	C	0.519171	0.047636	-0.000178
C17	C	0.591725	0.049221	-0.000162
C18	C	0.367493	0.066433	-0.044079
C19	C	0.294941	0.064852	-0.044099
C20	C	0.257081	0.136402	-0.000243
C21	C	0.291782	0.209552	0.043625
C22	C	0.364335	0.211137	0.043640
C23	C	0.402188	0.139566	-0.000214
C24	C	0.140106	0.228340	-0.000266
C25	C	0.067550	0.226753	-0.000270
C26	C	0.071611	0.037857	-0.000265
C27	C	0.144166	0.039446	-0.000254
C28	C	0.178409	0.134690	-0.000258
C29	C	0.822165	-0.051497	-0.000212
C30	C	0.813181	-0.166532	-0.000211
C31	C	0.921187	-0.407995	-0.000254
C32	C	0.912748	-0.516081	-0.000253
C33	C	0.787867	-0.490793	-0.000213
C34	C	0.796305	-0.382707	-0.000214
C35	C	0.862967	-0.341312	-0.000233
C36	C	0.871405	-0.233223	-0.000229
C37	C	0.746524	-0.207938	-0.000195
C38	C	0.738086	-0.316024	-0.000194
C39	C	0.956086	0.129833	-0.000252
C40	C	1.033304	0.131518	-0.000276
C41	C	0.837107	0.327480	-0.000225
C42	C	0.846091	0.442515	-0.000231
N43	N	0.829614	0.137979	0.177938
N44	N	0.829663	0.137996	-0.178373
C45	C	0.872174	0.067342	0.217316
C46	C	0.872178	0.067338	0.296118
C47	C	0.829629	0.137988	0.335538
C48	C	0.787060	0.208630	0.296151
C49	C	0.787052	0.208626	0.217350
C50	C	0.826778	0.232410	0.460374
C51	C	0.826790	0.232416	0.539173
C52	C	0.829648	0.138000	0.578584
C53	C	0.832508	0.043575	0.539188
C54	C	0.832501	0.043571	0.460387
C55	C	0.829632	0.138000	0.420984
C56	C	0.872215	0.067352	0.703409
C57	C	0.872213	0.067346	0.782212
C58	C	0.787100	0.208647	0.782243
C59	C	0.787097	0.208645	0.703442
C60	C	0.829658	0.137998	0.664029
H61	H	0.036366	0.303015	-0.000278
Br62	Br	0.929942	-0.028536	0.349569
H63	H	0.752394	0.266148	0.185288
H64	H	0.398313	0.008166	-0.079797
Br65	Br	0.472690	-0.081612	-0.000181
Br66	Br	0.643709	-0.077881	-0.000139
H67	H	0.683812	-0.349743	-0.000181
H68	H	0.483920	0.312791	-0.000200
Br69	Br	0.929972	-0.028535	0.835658
H70	H	0.392586	0.270694	0.079361
H71	H	0.752453	0.266168	0.814339
Br72	Br	0.240410	0.306666	0.103146
H73	H	0.834828	-0.033313	0.428314
H74	H	0.752415	0.266153	0.328251
H75	H	0.925684	-0.199522	-0.000242
H76	H	0.043725	-0.039685	-0.000319
Br77	Br	0.991764	-0.606578	-0.000286
Br78	Br	0.634136	0.367372	-0.000185
H79	H	0.975465	-0.374291	-0.000262
H80	H	0.699118	-0.153632	-0.000172
H81	H	0.752444	0.266168	0.671378
H82	H	0.733594	-0.524517	-0.000206
Br83	Br	0.822917	0.360561	0.592632
H84	H	0.906828	0.009816	0.185228
H85	H	0.834835	-0.033307	0.571275
H86	H	0.824438	0.309300	0.428291
Br87	Br	0.186583	0.357596	-0.000266
Br88	Br	0.196151	-0.087654	-0.000235
Br89	Br	0.929973	-0.028528	0.649918
H90	H	0.266693	0.005293	-0.079822
