data_functionalizedCrystal
_audit_creation_method	'MofGen! by Chris Wilmer'
_symmetry_space_group_name_H-M	'P1'
_symmetry_Int_Tables_number	1
_symmetry_cell_setting	triclinic
loop_
_symmetry_equiv_pos_as_xyz
  x,y,z
_cell_length_a	22.010155
_cell_length_b	23.532407
_cell_length_c	23.532407
_cell_angle_alpha	97.151322
_cell_angle_beta	90.000423
_cell_angle_gamma	89.996931
loop_
_atom_site_label
_atom_site_type_symbol
_atom_site_fract_x
_atom_site_fract_y
_atom_site_fract_z
O1	O	0.050455	-0.755264	0.069127
O2	O	0.050474	-0.589400	0.079130
O3	O	0.050453	-0.677334	-0.008803
O4	O	0.050476	-0.667330	0.157060
O5	O	-0.050597	-0.677318	-0.008790
O6	O	-0.050576	-0.589384	0.079143
O7	O	-0.050595	-0.755248	0.069140
Cu8	Cu	-0.059812	-0.672315	0.074143
Cu9	Cu	0.059691	-0.672333	0.074127
O10	O	-0.050574	-0.667314	0.157073
C11	C	-0.000049	-0.568176	0.078882
C12	C	-0.000042	-0.504959	0.078116
N13	N	-0.143865	-0.672305	0.074153
C14	C	-0.000074	-0.677071	-0.030013
C15	C	-0.000078	-0.676305	-0.093230
C16	C	-0.563653	-0.711273	0.035196
C17	C	-0.627261	-0.711275	0.035192
O18	O	-0.660160	-0.744384	0.002076
N19	N	-0.659072	-0.672333	0.074115
C20	C	-0.627272	-0.633382	0.113041
O21	O	-0.660170	-0.600259	0.146148
C22	C	-0.563665	-0.633377	0.113042
C23	C	-0.531858	-0.672326	0.074120
C24	C	-0.531846	-0.750217	-0.003723
C25	C	-0.468243	-0.750215	-0.003719
C26	C	-0.436447	-0.711268	0.035205
C27	C	-0.468255	-0.672324	0.074125
C28	C	-0.531866	-0.594424	0.151965
C29	C	-0.468256	-0.594422	0.151962
C30	C	-0.436448	-0.633370	0.113040
C31	C	-0.372856	-0.633374	0.113054
N32	N	-0.341045	-0.672317	0.074130
C33	C	-0.372841	-0.711263	0.035206
C34	C	-0.760850	-0.633395	0.113036
C35	C	-0.824455	-0.633402	0.113039
C36	C	-0.824440	-0.711294	0.035188
C37	C	-0.760833	-0.711290	0.035189
C38	C	-0.729039	-0.672337	0.074113
C39	C	-0.239269	-0.711256	0.035220
C40	C	-0.175660	-0.711252	0.035229
C41	C	-0.175681	-0.633358	0.113077
C42	C	-0.239284	-0.633364	0.113070
C43	C	-0.271077	-0.672315	0.074136
O44	O	-0.339916	-0.600282	0.146151
O45	O	-0.339935	-0.744376	0.002100
N46	N	0.143744	-0.672347	0.074112
C47	C	-0.000071	-0.776472	0.069388
C48	C	-0.000073	-0.839689	0.070154
C49	C	-0.000063	-0.105856	0.125350
C50	C	-0.000067	-0.046456	0.124638
O51	O	-0.000083	-0.009711	0.168424
N52	N	-0.000073	-0.023830	0.072362
C53	C	-0.000082	-0.060607	0.020794
O54	O	-0.000088	-0.035908	-0.023737
C55	C	-0.000082	-0.120006	0.021506
C56	C	-0.000070	-0.142629	0.073785
C57	C	-0.000051	-0.128479	0.177625
C58	C	-0.000046	-0.187876	0.178336
C59	C	-0.000053	-0.224649	0.126772
C60	C	-0.000065	-0.202025	0.074497
C61	C	-0.000096	-0.156783	-0.030062
C62	C	-0.000097	-0.216185	-0.029345
C63	C	-0.000084	-0.238808	0.022934
C64	C	-0.000067	-0.298194	0.023643
N65	N	-0.000061	-0.320820	0.075920
C66	C	-0.000054	-0.284048	0.127484
C67	C	-0.000082	0.064135	0.019302
C68	C	-0.000077	0.123533	0.018589
C69	C	-0.000063	0.137680	0.122434
C70	C	-0.000064	0.078281	0.123146
C71	C	-0.000076	0.041509	0.071578
C72	C	-0.000043	-0.408784	0.128974
C73	C	-0.000035	-0.468186	0.129680
C74	C	-0.000052	-0.482329	0.025836
C75	C	-0.000057	-0.422932	0.025129
C76	C	-0.000054	-0.386160	0.076702
O77	O	-0.000054	-0.334974	-0.020119
O78	O	-0.000055	-0.308755	0.172007
C79	C	-0.000050	-0.723539	-0.492333
C80	C	-0.000046	-0.722827	-0.551733
O81	O	-0.000028	-0.766613	-0.588478
N82	N	-0.000040	-0.670551	-0.574359
C83	C	-0.000033	-0.618983	-0.537582
O84	O	-0.000027	-0.574452	-0.562281
C85	C	-0.000033	-0.619695	-0.478182
C86	C	-0.000045	-0.671974	-0.455560
C87	C	-0.000061	-0.775814	-0.469710
C88	C	-0.000067	-0.776525	-0.410313
C89	C	-0.000062	-0.724961	-0.373540
C90	C	-0.000051	-0.672685	-0.396164
C91	C	-0.000022	-0.568127	-0.441406
C92	C	-0.000022	-0.568844	-0.382004
C93	C	-0.000034	-0.621123	-0.359381
C94	C	-0.000052	-0.621832	-0.299995
N95	N	-0.000057	-0.674109	-0.277368
C96	C	-0.000062	-0.725673	-0.314141
C97	C	-0.000031	-0.617491	-0.662324
C98	C	-0.000035	-0.616778	-0.721722
C99	C	-0.000047	-0.720623	-0.735869
C100	C	-0.000047	-0.721335	-0.676470
C101	C	-0.000037	-0.669767	-0.639698
C102	C	-0.000075	-0.727163	-0.189405
C103	C	-0.000083	-0.727869	-0.130003
C104	C	-0.000069	-0.624025	-0.115860
C105	C	-0.000064	-0.623318	-0.175257
C106	C	-0.000065	-0.674891	-0.212029
O107	O	-0.000067	-0.578070	-0.263215
O108	O	-0.000060	-0.770196	-0.289433
C109	C	-0.000046	-0.667577	0.178283
C110	C	-0.000037	-0.668343	0.241500
H111	H	-0.149765	-0.742971	0.003534
C112	C	-0.000093	-0.785379	-0.105121
H113	H	-0.000088	-0.815986	-0.135532
H114	H	-0.035333	-0.787813	-0.082246
H115	H	0.035149	-0.787821	-0.082243
C116	C	-0.000041	-0.777344	-0.776327
H117	H	-0.000031	-0.769428	-0.814942
H118	H	-0.035279	-0.798796	-0.769508
H119	H	0.035202	-0.798794	-0.769498
C120	C	-0.000028	-0.559271	-0.746601
H121	H	-0.000021	-0.528666	-0.716188
H122	H	-0.035262	-0.556825	-0.769481
H123	H	0.035219	-0.556840	-0.769473
H124	H	-0.000063	-0.817806	-0.499645
C125	C	-0.000080	0.148414	-0.038916
H126	H	-0.000076	0.189057	-0.031961
H127	H	-0.035319	0.135771	-0.060131
H128	H	0.035162	0.135769	-0.060133
H129	H	-0.000106	-0.138375	-0.072634
C130	C	-0.000004	-0.510618	-0.466278
H131	H	0.000007	-0.480016	-0.435863
H132	H	-0.035239	-0.508166	-0.489157
H133	H	0.035242	-0.508189	-0.489151
C134	C	-0.140701	-0.590518	0.155891
H135	H	-0.168750	-0.567324	0.179076
H136	H	-0.115889	-0.566933	0.135521
H137	H	-0.115887	-0.610871	0.179498
H138	H	-0.000073	-0.769159	-0.219337
H139	H	-0.000013	-0.526850	-0.352066
C140	C	-0.000050	-0.565812	-0.200144
H141	H	-0.000043	-0.535205	-0.169733
H142	H	-0.035281	-0.563364	-0.223029
H143	H	0.035201	-0.563386	-0.223013
H144	H	-0.265148	-0.742973	0.003516
C145	C	-0.000103	-0.256632	-0.086072
H146	H	-0.000105	-0.234647	-0.117306
H147	H	-0.035338	-0.280100	-0.087951
H148	H	0.035143	-0.280095	-0.087957
C149	C	-0.433285	-0.551576	0.194782
H150	H	-0.461342	-0.528386	0.217963
H151	H	-0.408472	-0.527985	0.174418
H152	H	-0.408474	-0.571928	0.218392
C153	C	-0.000054	-0.778842	-0.651591
H154	H	-0.000054	-0.809447	-0.682003
H155	H	-0.035291	-0.781276	-0.628711
H156	H	0.035190	-0.781286	-0.628717
C157	C	-0.000068	-0.834033	-0.385436
H158	H	-0.000063	-0.864637	-0.415850
H159	H	-0.035305	-0.836473	-0.362558
H160	H	0.035176	-0.836474	-0.362562
C161	C	-0.000082	0.023690	-0.037426
H162	H	-0.000079	0.045677	-0.068658
H163	H	-0.035318	0.000223	-0.039310
H164	H	0.035163	0.000225	-0.039311
C165	C	-0.000025	-0.493068	0.187190
H166	H	-0.000028	-0.462657	0.217797
H167	H	0.035215	-0.515946	0.189625
H168	H	-0.035267	-0.515944	0.189631
C169	C	-0.433262	-0.793052	-0.046540
H170	H	-0.461316	-0.816240	-0.069723
H171	H	-0.408444	-0.816645	-0.026180
H172	H	-0.408455	-0.772695	-0.070147
H173	H	-0.000058	-0.404512	-0.017441
C174	C	-0.000065	-0.522786	-0.030880
H175	H	-0.000068	-0.561400	-0.022964
H176	H	0.035167	-0.515965	-0.052342
H177	H	-0.035315	-0.515957	-0.052320
C178	C	-0.000032	-0.560763	-0.621879
H179	H	-0.000034	-0.529531	-0.643866
H180	H	0.035205	-0.558881	-0.598411
H181	H	-0.035276	-0.558876	-0.598416
C182	C	-0.000044	-0.212753	0.235844
H183	H	-0.000048	-0.182339	0.266448
H184	H	0.035192	-0.235634	0.238286
H185	H	-0.035289	-0.235625	0.238283
C186	C	-0.725881	-0.590552	0.155863
H187	H	-0.753940	-0.567366	0.179045
H188	H	-0.701069	-0.566957	0.135502
H189	H	-0.701069	-0.610905	0.179471
C190	C	-0.000059	-0.567307	-0.075406
H191	H	-0.000055	-0.536068	-0.097383
H192	H	0.035179	-0.565439	-0.051940
H193	H	-0.035302	-0.565420	-0.051940
H194	H	-0.557728	-0.781933	-0.035423
C195	C	-0.000038	-0.088038	0.234351
H196	H	-0.000027	-0.110027	0.265581
H197	H	-0.035274	-0.064565	0.236247
H198	H	0.035208	-0.064579	0.236227
C199	C	-0.725851	-0.754128	-0.007629
H200	H	-0.753902	-0.777320	-0.030811
H201	H	-0.701032	-0.777717	0.012734
H202	H	-0.701044	-0.733772	-0.031237
C203	C	-0.566841	-0.551585	0.194785
H204	H	-0.538786	-0.528390	0.217960
H205	H	-0.591649	-0.571935	0.218391
H206	H	-0.591657	-0.527990	0.174420
H207	H	-0.850339	-0.743006	0.003493
H208	H	-0.265183	-0.601654	0.144769
C209	C	-0.859439	-0.590565	0.155857
H210	H	-0.901876	-0.596143	0.150287
H211	H	-0.849016	-0.552593	0.149866
H212	H	-0.849014	-0.596538	0.193837
C213	C	-0.000032	-0.368344	0.185703
H214	H	-0.000017	-0.390333	0.216934
H215	H	-0.035269	-0.344875	0.187598
H216	H	0.035213	-0.344883	0.187578
H217	H	-0.000060	0.167632	0.164421
C218	C	-0.000055	0.053402	0.180653
H219	H	-0.000054	0.083814	0.211258
H220	H	0.035182	0.030520	0.183088
H221	H	-0.035300	0.030530	0.183096
