data_functionalizedCrystal
_audit_creation_method	'MofGen! by Chris Wilmer'
_symmetry_space_group_name_H-M	'P1'
_symmetry_Int_Tables_number	1
_symmetry_cell_setting	triclinic
loop_
_symmetry_equiv_pos_as_xyz
  x,y,z
_cell_length_a	19.805407
_cell_length_b	18.101397
_cell_length_c	18.101398
_cell_angle_alpha	90.007564
_cell_angle_beta	90.005356
_cell_angle_gamma	90.020466
loop_
_atom_site_label
_atom_site_type_symbol
_atom_site_fract_x
_atom_site_fract_y
_atom_site_fract_z
Zn1	Zn	1.034669	-0.295006	0.418738
Zn2	Zn	1.534669	0.204994	0.918738
Zn3	Zn	1.034623	-0.418802	0.294891
Zn4	Zn	1.534623	0.081198	0.794891
Zn5	Zn	0.921511	-0.294979	0.294909
Zn6	Zn	1.421511	0.205021	0.794909
Zn7	Zn	0.921459	-0.418810	0.418689
Zn8	Zn	1.421459	0.081190	0.918689
O9	O	0.978065	-0.356899	0.356807
O10	O	1.478065	0.143101	0.856807
O11	O	1.129379	-0.311436	0.402323
O12	O	1.629379	0.188564	0.902323
O13	O	1.019622	-0.402363	0.191261
O14	O	1.519622	0.097637	0.691261
O15	O	0.936563	-0.191350	0.311363
O16	O	1.436563	0.308650	0.811363
O17	O	1.129346	-0.402388	0.311333
O18	O	1.629346	0.097612	0.811333
O19	O	1.019699	-0.191369	0.402340
O20	O	1.519699	0.308631	0.902340
O21	O	0.936519	-0.311390	0.191274
O22	O	1.436519	0.188610	0.691274
O23	O	0.826788	-0.311398	0.311316
O24	O	1.326788	0.188602	0.811316
O25	O	0.936473	-0.402401	0.522329
O26	O	1.436473	0.097599	1.022329
O27	O	0.826749	-0.402376	0.402256
O28	O	1.326749	0.097624	0.902256
O29	O	1.019648	-0.311443	0.522365
O30	O	1.519648	0.188557	1.022365
O31	O	1.019571	-0.522436	0.311285
O32	O	1.519571	-0.022436	0.811285
O33	O	0.936429	-0.522442	0.402239
O34	O	1.436429	-0.022442	0.902239
C35	C	0.802209	-0.356885	0.356783
C36	C	1.302209	0.143115	0.856783
C37	C	0.726977	-0.356897	0.356790
C38	C	1.226977	0.143103	0.856790
C39	C	0.691631	-0.404340	0.404067
C40	C	1.191631	0.095660	0.904067
C41	C	0.620942	-0.404342	0.404077
C42	C	1.120942	0.095658	0.904077
C43	C	0.585602	-0.356903	0.356807
C44	C	1.085602	0.143097	0.856807
C45	C	0.620953	-0.309454	0.309529
C46	C	1.120953	0.190546	0.809529
C47	C	0.691641	-0.309450	0.309523
C48	C	1.191641	0.190550	0.809523
C49	C	0.335880	-0.309470	0.309553
C50	C	0.835880	0.190530	0.809553
C51	C	0.265188	-0.309480	0.309561
C52	C	0.765188	0.190520	0.809561
C53	C	0.265182	-0.404363	0.404108
C54	C	0.765182	0.095637	0.904108
C55	C	0.335869	-0.404358	0.404102
C56	C	0.835869	0.095642	0.904102
C57	C	0.371214	-0.356907	0.356826
C58	C	0.871214	0.143093	0.856826
C59	C	0.447863	-0.356905	0.356817
C60	C	0.947863	0.143095	0.856817
C61	C	0.508955	-0.356908	0.356812
C62	C	1.008955	0.143092	0.856812
C63	C	0.978008	-0.549310	0.356771
C64	C	1.478008	-0.049310	0.856771
C65	C	0.978045	-0.631624	0.356781
C66	C	1.478045	-0.131624	0.856781
C67	C	0.978131	-0.930715	0.356848
C68	C	1.478131	-0.430715	0.856848
C69	C	1.030296	-0.899355	0.299469
C70	C	1.530296	-0.399355	0.799469
C71	C	1.030476	-0.813737	0.299618
C72	C	1.530476	-0.313737	0.799618
C73	C	0.978088	-0.782332	0.356814
C74	C	1.478088	-0.282332	0.856814
C75	C	0.997406	-0.813371	0.434875
C76	C	1.497406	-0.313371	0.934875
C77	C	0.997809	-0.899016	0.434562
C78	C	1.497809	-0.399016	0.934562
C79	C	0.906510	-0.899216	0.336842
C80	C	1.406510	-0.399216	0.836842
C81	C	0.906864	-0.813566	0.335099
C82	C	1.406864	-0.313566	0.835099
C83	C	0.978063	-0.698473	0.356799
C84	C	1.478063	-0.198473	0.856799
C85	C	0.978158	-1.014574	0.356868
C86	C	1.478158	-0.514574	0.856868
C87	C	1.154608	-0.356914	0.356832
C88	C	1.654608	0.143086	0.856832
C89	C	1.229840	-0.356920	0.356842
C90	C	1.729840	0.143080	0.856842
C91	C	0.978060	-0.356926	0.549969
C92	C	1.478060	0.143074	1.049969
C93	C	0.978057	-0.356937	0.632283
C94	C	1.478057	0.143063	1.132283
C95	C	0.978142	-0.163737	0.356859
C96	C	1.478142	0.336263	0.856859
C97	C	0.978175	-0.081423	0.356882
C98	C	1.478175	0.418577	0.856882
C99	C	0.978052	-0.356926	0.782991
C100	C	1.478052	0.143074	1.282991
C101	C	0.925723	-0.414152	0.814322
C102	C	1.425723	0.085848	1.314322
C103	C	0.925515	-0.413977	0.899941
C104	C	1.425515	0.086023	1.399941
C105	C	0.978047	-0.356915	0.931374
C106	C	1.478047	0.143085	1.431374
C107	C	0.958950	-0.278811	0.900295
C108	C	1.458950	0.221189	1.400295
C109	C	0.958573	-0.279148	0.814650
C110	C	1.458573	0.220852	1.314650
C111	C	1.049609	-0.377119	0.814559
C112	C	1.549609	0.122881	1.314559
C113	C	1.049223	-0.378834	0.900210
C114	C	1.549223	0.121166	1.400210
C115	C	0.978045	-0.356905	1.015233
C116	C	1.478045	0.143095	1.515233
C117	C	0.978052	-0.356931	0.699132
C118	C	1.478052	0.143069	1.199132
C119	C	0.978060	-0.356896	1.164397
C120	C	1.478060	0.143104	1.664397
C121	C	0.978042	-0.356904	1.082082
C122	C	1.478042	0.143096	1.582082
H123	H	0.592174	-0.270825	0.271044
H124	H	1.092174	0.229175	0.771044
H125	H	0.720400	-0.442973	0.442557
H126	H	1.220400	0.057027	0.942557
H127	H	0.720419	-0.270812	0.271029
H128	H	1.220419	0.229188	0.771029
H129	H	0.907225	-0.261430	0.921744
H130	H	1.407225	0.238570	1.421744
H131	H	1.018393	-0.792752	0.241737
H132	H	1.518393	-0.292752	0.741737
H133	H	1.083530	-0.793199	0.312855
H134	H	1.583530	-0.293199	0.812855
H135	H	0.872491	-0.400590	0.920428
H136	H	1.372491	0.099410	1.420428
Br137	Br	0.877210	-0.935282	0.243614
Br138	Br	1.377210	-0.435282	0.743614
Br139	Br	0.936009	-0.779482	0.508050
Br140	Br	1.436009	-0.279482	1.008050
Br141	Br	1.083685	-0.777538	0.463603
Br142	Br	1.583685	-0.277538	0.963603
H143	H	0.892297	-0.793284	0.277653
H144	H	1.392297	-0.293284	0.777653
Br145	Br	0.572974	-0.468730	0.468242
Br146	Br	1.072974	0.031270	0.968242
Br147	Br	1.085065	-0.932231	0.462808
Br148	Br	1.585065	-0.432231	0.962808
Br149	Br	0.383828	-0.468746	0.468251
Br150	Br	0.883828	0.031254	0.968251
Br151	Br	0.838597	-0.777950	0.399653
Br152	Br	1.338597	-0.277950	0.899653
H153	H	0.906274	-0.262065	0.794673
H154	H	1.406274	0.237935	1.294673
H155	H	0.867643	-0.919498	0.378633
H156	H	1.367643	-0.419498	0.878633
Br157	Br	0.945381	-0.510494	0.934968
Br158	Br	1.445381	-0.010494	1.434968
Br159	Br	0.945358	-0.510981	0.779992
Br160	Br	1.445358	-0.010981	1.279992
H161	H	0.236395	-0.442997	0.442604
H162	H	0.736395	0.057003	0.942604
Br163	Br	1.118241	-0.935141	0.321275
Br164	Br	1.618241	-0.435141	0.821275
H165	H	0.873002	-0.400930	0.792798
H166	H	1.373002	0.099070	1.292798
H167	H	0.995043	-0.235042	0.793924
H168	H	1.495043	0.264958	1.293924
Br169	Br	0.217226	-0.245095	0.245404
Br170	Br	0.717226	0.254905	0.745404
H171	H	0.995896	-0.235004	0.920656
H172	H	1.495896	0.264996	1.420656
Br173	Br	1.010406	-0.933725	0.202704
Br174	Br	1.510406	-0.433725	0.702704
H175	H	0.364650	-0.270838	0.271053
H176	H	0.864650	0.229162	0.771053
Br177	Br	0.937224	-0.933596	0.508238
Br178	Br	1.437224	-0.433596	1.008238
Br179	Br	1.078663	-0.470443	0.778557
Br180	Br	1.578663	0.029557	1.278557
H181	H	1.063627	-0.436315	0.920520
H182	H	1.563627	0.063685	1.420520
Br183	Br	1.117653	-0.314462	0.935873
Br184	Br	1.617653	0.185538	1.435873
H185	H	1.088594	-0.335436	0.794304
H186	H	1.588594	0.164564	1.294304
