data_functionalizedCrystal
_audit_creation_method	'MofGen! by Chris Wilmer'
_symmetry_space_group_name_H-M	'P1'
_symmetry_Int_Tables_number	1
_symmetry_cell_setting	triclinic
loop_
_symmetry_equiv_pos_as_xyz
  x,y,z
_cell_length_a	17.077404
_cell_length_b	13.897441
_cell_length_c	17.077402
_cell_angle_alpha	89.967957
_cell_angle_beta	90.023108
_cell_angle_gamma	89.980344
loop_
_atom_site_label
_atom_site_type_symbol
_atom_site_fract_x
_atom_site_fract_y
_atom_site_fract_z
Zn1	Zn	1.200056	-0.545392	-0.312486
Zn2	Zn	1.199963	-0.384087	-0.443766
Zn3	Zn	1.068787	-0.384108	-0.312519
Zn4	Zn	1.068756	-0.545336	-0.443714
O5	O	1.134390	-0.464731	-0.378121
O6	O	1.309890	-0.524009	-0.329908
O7	O	1.182536	-0.249108	-0.426391
O8	O	1.086253	-0.405534	-0.202667
O9	O	1.309822	-0.405499	-0.426359
O10	O	1.182695	-0.524030	-0.202643
O11	O	1.086162	-0.249123	-0.329964
O12	O	0.958936	-0.405480	-0.329914
O13	O	1.086199	-0.680326	-0.426271
O14	O	0.958913	-0.523934	-0.426303
O15	O	1.182664	-0.680367	-0.329858
O16	O	1.182505	-0.405445	-0.553606
O17	O	1.086108	-0.523914	-0.553568
C18	C	0.930442	-0.464704	-0.378107
C19	C	0.843193	-0.464716	-0.378120
C20	C	0.802211	-0.526296	-0.428385
C21	C	0.720231	-0.526311	-0.428387
C22	C	0.679233	-0.464741	-0.378127
C23	C	0.720221	-0.403158	-0.327856
C24	C	0.802200	-0.403148	-0.327851
C25	C	0.549351	-0.403181	-0.327871
C26	C	0.467366	-0.403190	-0.327877
C27	C	0.467382	-0.526344	-0.428407
C28	C	0.549360	-0.526334	-0.428402
C29	C	0.590342	-0.464750	-0.378132
C30	C	1.134438	-0.716324	-0.378055
C31	C	1.134459	-0.823538	-0.378027
C32	C	1.134475	-0.910608	-0.378005
C33	C	1.134497	-1.019840	-0.377970
C34	C	1.339135	-0.464758	-0.378136
C35	C	1.426384	-0.464770	-0.378142
C36	C	1.134315	-0.464692	-0.582069
C37	C	1.134354	-0.464708	-0.669319
C38	C	1.134388	-0.214116	-0.378130
C39	C	1.134519	-0.106903	-0.377937
C40	C	1.184599	-0.403087	-0.710303
C41	C	1.184638	-0.403112	-0.792283
C42	C	1.134426	-0.464753	-0.833278
C43	C	1.084179	-0.526381	-0.792289
C44	C	1.084145	-0.526360	-0.710310
C45	C	1.084251	-0.526417	-0.963159
C46	C	1.084284	-0.526437	-1.045143
C47	C	1.184744	-0.403169	-1.045132
C48	C	1.184710	-0.403149	-0.963153
C49	C	1.134462	-0.464775	-0.922169
C50	C	1.134488	-0.464791	-0.173377
C51	C	1.134529	-0.464816	-0.086127
H52	H	0.433988	-0.353065	-0.286941
C53	C	0.541105	-0.281426	-0.228515
C54	C	0.594400	-0.335476	-0.272622
H55	H	0.568918	-0.239621	-0.194416
H56	H	0.509162	-0.323518	-0.198526
H57	H	0.509099	-0.244471	-0.262692
H58	H	0.626402	-0.372438	-0.238445
H59	H	0.626356	-0.293379	-0.302614
C60	C	0.442111	-0.573028	-0.561380
C61	C	0.422334	-0.594037	-0.483666
H62	H	0.414292	-0.614810	-0.595494
H63	H	0.496794	-0.581838	-0.568567
H64	H	0.428644	-0.508191	-0.572787
H65	H	0.435805	-0.658873	-0.472257
H66	H	0.367638	-0.585235	-0.476475
H67	H	1.225484	-0.352888	-0.676930
H68	H	1.225661	-0.352994	-1.078505
C69	C	1.073373	-0.656180	-1.137280
C70	C	1.029098	-0.594195	-1.090213
H71	H	1.039302	-0.698006	-1.165109
H72	H	1.107535	-0.693107	-1.105249
H73	H	1.103300	-0.619463	-1.173412
H74	H	0.999176	-0.630912	-1.054077
H75	H	0.994922	-0.557265	-1.122247
H76	H	1.225552	-0.352933	-0.825649
C77	C	1.284021	-0.281312	-0.971372
C78	C	1.239905	-0.335395	-0.918089
H79	H	1.318100	-0.239490	-0.943550
H80	H	1.249853	-0.244381	-1.003394
H81	H	1.314039	-0.323389	-1.003300
H82	H	1.209882	-0.293317	-0.886166
H83	H	1.274077	-0.372328	-0.886054
C84	C	0.984882	-0.648231	-0.784059
C85	C	1.028988	-0.594144	-0.837348
H86	H	0.950812	-0.690069	-0.811877
H87	H	0.954862	-0.606165	-0.752137
H88	H	1.019063	-0.685154	-0.752032
H89	H	0.994807	-0.557215	-0.869371
H90	H	1.059010	-0.636215	-0.869283
H91	H	1.043336	-0.576604	-0.929792
H92	H	0.686834	-0.353031	-0.286929
H93	H	1.043231	-0.576539	-0.676941
C94	C	0.793955	-0.281402	-0.228494
C95	C	0.847250	-0.335449	-0.272604
H96	H	0.821769	-0.239603	-0.194390
H97	H	0.762009	-0.323496	-0.198510
H98	H	0.761953	-0.244440	-0.262670
H99	H	0.879249	-0.372417	-0.238429
H100	H	0.879209	-0.293349	-0.302590
C101	C	0.728480	-0.648013	-0.527777
C102	C	0.675184	-0.593986	-0.483653
H103	H	0.700668	-0.689787	-0.561902
H104	H	0.760474	-0.684992	-0.493617
H105	H	0.760434	-0.605898	-0.557746
H106	H	0.643233	-0.636102	-0.453680
H107	H	0.643176	-0.557005	-0.517817
H108	H	0.835585	-0.576430	-0.469316
H109	H	0.582738	-0.576465	-0.469333
