data_functionalizedCrystal
_audit_creation_method	'MofGen! by Chris Wilmer'
_symmetry_space_group_name_H-M	'P1'
_symmetry_Int_Tables_number	1
_symmetry_cell_setting	triclinic
loop_
_symmetry_equiv_pos_as_xyz
  x,y,z
_cell_length_a	10.268362
_cell_length_b	9.065218
_cell_length_c	9.065218
_cell_angle_alpha	94.984115
_cell_angle_beta	89.996569
_cell_angle_gamma	90.005741
loop_
_atom_site_label
_atom_site_type_symbol
_atom_site_fract_x
_atom_site_fract_y
_atom_site_fract_z
O1	O	0.108331	1.960402	-0.216358
O2	O	0.608331	2.460402	0.283642
O3	O	0.108325	1.531117	-0.234104
O4	O	0.608325	2.031117	0.265896
O5	O	0.108325	1.754632	-0.010589
O6	O	0.608325	2.254632	0.489411
O7	O	0.108331	1.736886	-0.439874
O8	O	0.608331	2.236886	0.060126
O9	O	-0.108275	1.754613	-0.010579
O10	O	0.391725	2.254613	0.489421
O11	O	-0.108276	1.531097	-0.234095
O12	O	0.391724	2.031097	0.265905
O13	O	-0.108270	1.960382	-0.216348
O14	O	0.391730	2.460382	0.283652
Cu15	Cu	-0.128050	1.745738	-0.225221
Cu16	Cu	0.371950	2.245738	0.274779
Cu17	Cu	0.128105	1.745761	-0.225232
Cu18	Cu	0.628105	2.245761	0.274768
O19	O	-0.108270	1.736866	-0.439864
O20	O	0.391730	2.236866	0.060136
C21	C	0.000024	1.476120	-0.232394
C22	C	0.500024	1.976120	0.267606
C23	C	0.000022	1.312277	-0.227294
C24	C	0.500022	1.812277	0.272706
N25	N	-0.308216	1.745732	-0.225212
N26	N	0.191784	2.245732	0.274788
C27	C	0.000027	1.752917	0.044403
C28	C	0.500027	2.252917	0.544403
C29	C	0.000033	1.747817	0.208245
C30	C	0.500033	2.247817	0.708245
C31	C	-0.573886	1.745754	-0.225229
C32	C	-0.073886	2.245754	0.274771
C33	C	-0.426049	1.745737	-0.225224
C34	C	0.073951	2.245737	0.274776
N35	N	0.308271	1.745778	-0.225229
N36	N	0.808271	2.245778	0.274771
C37	C	0.000034	2.015378	-0.218059
C38	C	0.500034	2.515378	0.281941
C39	C	0.000045	2.179221	-0.223158
C40	C	0.500045	2.679221	0.276842
C41	C	0.000031	1.738582	-0.494855
C42	C	0.500031	2.238582	0.005145
C43	C	0.000033	1.743681	-0.658698
C44	C	0.500033	2.243681	-0.158698
