data_functionalizedCrystal
_audit_creation_method	'MofGen! by Chris Wilmer'
_symmetry_space_group_name_H-M	'P1'
_symmetry_Int_Tables_number	1
_symmetry_cell_setting	triclinic
loop_
_symmetry_equiv_pos_as_xyz
  x,y,z
_cell_length_a	18.215407
_cell_length_b	18.101395
_cell_length_c	18.215399
_cell_angle_alpha	89.973573
_cell_angle_beta	89.980167
_cell_angle_gamma	90.031552
loop_
_atom_site_label
_atom_site_type_symbol
_atom_site_fract_x
_atom_site_fract_y
_atom_site_fract_z
Zn1	Zn	1.125040	-0.294828	-0.416124
Zn2	Zn	1.458373	0.038505	-0.082790
Zn3	Zn	1.791707	0.371838	0.250543
Zn4	Zn	1.124935	-0.418675	-0.293061
Zn5	Zn	1.458269	-0.085341	0.040273
Zn6	Zn	1.791602	0.247992	0.373606
Zn7	Zn	1.001973	-0.294853	-0.293071
Zn8	Zn	1.335306	0.038481	0.040262
Zn9	Zn	1.668639	0.371814	0.373596
Zn10	Zn	1.001925	-0.418634	-0.416086
Zn11	Zn	1.335259	-0.085300	-0.082752
Zn12	Zn	1.668592	0.248033	0.250581
O13	O	1.063468	-0.356747	-0.354585
O14	O	1.396802	-0.023414	-0.021252
O15	O	1.730135	0.309919	0.312081
O16	O	1.228010	-0.311264	-0.399811
O17	O	1.561344	0.022069	-0.066477
O18	O	1.894677	0.355403	0.266856
O19	O	1.108600	-0.402277	-0.190078
O20	O	1.441933	-0.068944	0.143256
O21	O	1.775267	0.264390	0.476589
O22	O	1.018362	-0.191216	-0.309415
O23	O	1.351695	0.142117	0.023919
O24	O	1.685028	0.475450	0.357252
O25	O	1.227933	-0.402253	-0.309397
O26	O	1.561267	-0.068920	0.023937
O27	O	1.894600	0.264413	0.357270
O28	O	1.108779	-0.191199	-0.399821
O29	O	1.442112	0.142135	-0.066487
O30	O	1.775445	0.475468	0.266846
O31	O	1.018260	-0.311305	-0.190085
O32	O	1.351593	0.022028	0.143248
O33	O	1.684927	0.355361	0.476581
O34	O	0.898982	-0.311265	-0.309378
O35	O	1.232316	0.022068	0.023956
O36	O	1.565649	0.355401	0.357289
O37	O	1.018281	-0.402183	-0.519075
O38	O	1.351614	-0.068850	-0.185742
O39	O	1.684947	0.264484	0.147592
O40	O	0.898947	-0.402207	-0.399756
O41	O	1.232281	-0.068873	-0.066422
O42	O	1.565614	0.264460	0.266911
O43	O	1.108733	-0.311224	-0.519103
O44	O	1.442066	0.022109	-0.185770
O45	O	1.775399	0.355443	0.147564
O46	O	1.108554	-0.522302	-0.309360
O47	O	1.441887	-0.188969	0.023974
O48	O	1.775221	0.144364	0.357307
O49	O	1.018179	-0.522272	-0.399746
O50	O	1.351512	-0.188939	-0.066412
O51	O	1.684846	0.144395	0.266921
C52	C	0.872262	-0.356735	-0.354564
C53	C	1.205595	-0.023401	-0.021231
C54	C	1.538929	0.309932	0.312103
C55	C	0.790463	-0.356747	-0.354572
C56	C	1.123797	-0.023414	-0.021239
C57	C	1.457130	0.309920	0.312094
C58	C	0.602270	-0.404175	-0.401573
C59	C	0.935604	-0.070841	-0.068240
C60	C	1.268937	0.262492	0.265093
C61	C	0.525412	-0.404177	-0.401583
C62	C	0.858745	-0.070844	-0.068249
C63	C	1.192078	0.262490	0.265084
C64	C	0.525418	-0.309333	-0.307613
C65	C	0.858752	0.024000	0.025720
C66	C	1.192085	0.357333	0.359054
C67	C	0.602276	-0.309328	-0.307608
C68	C	0.935609	0.024005	0.025725
C69	C	1.268942	0.357339	0.359059
C70	C	0.640700	-0.356753	-0.354587
C71	C	0.974033	-0.023419	-0.021254
C72	C	1.307366	0.309914	0.312079
C73	C	0.486984	-0.356761	-0.354601
C74	C	0.820317	-0.023427	-0.021268
C75	C	1.153650	0.309906	0.312065
C76	C	0.403650	-0.356763	-0.354611
C77	C	0.736983	-0.023429	-0.021278
C78	C	1.070317	0.309904	0.312056
C79	C	0.724039	-0.356750	-0.354579
C80	C	1.057372	-0.023416	-0.021245
C81	C	1.390705	0.309917	0.312088
C82	C	1.063370	-0.549158	-0.354564
C83	C	1.396703	-0.215825	-0.021230
C84	C	1.730037	0.117509	0.312103
C85	C	1.063395	-0.631472	-0.354579
C86	C	1.396728	-0.298139	-0.021246
C87	C	1.730062	0.035195	0.312088
C88	C	1.063557	-0.930563	-0.354619
C89	C	1.396890	-0.597230	-0.021285
C90	C	1.730223	-0.263896	0.312048
C91	C	1.006827	-0.899249	-0.411628
C92	C	1.340160	-0.565916	-0.078295
C93	C	1.673494	-0.232583	0.255039
C94	C	1.006557	-0.813632	-0.411450
C95	C	1.339891	-0.480298	-0.078116
C96	C	1.673224	-0.146965	0.255217
C97	C	1.063476	-0.782180	-0.354600
C98	C	1.396810	-0.448847	-0.021266
C99	C	1.730143	-0.115514	0.312067
C100	C	1.042479	-0.813331	-0.277038
C101	C	1.375812	-0.479997	0.056295
C102	C	1.709145	-0.146664	0.389628
C103	C	1.042113	-0.898976	-0.277380
C104	C	1.375446	-0.565643	0.055954
C105	C	1.708780	-0.232309	0.389287
C106	C	1.141408	-0.898906	-0.374487
C107	C	1.474741	-0.565573	-0.041154
C108	C	1.808075	-0.232240	0.292179
C109	C	1.140950	-0.813255	-0.376188
C110	C	1.474284	-0.479922	-0.042855
C111	C	1.807617	-0.146589	0.290478
C112	C	1.063432	-0.698321	-0.354584
C113	C	1.396766	-0.364988	-0.021251
C114	C	1.730099	-0.031654	0.312083
C115	C	1.063599	-1.014422	-0.354629
C116	C	1.396932	-0.681089	-0.021296
C117	C	1.730265	-0.347756	0.312038
C118	C	1.255421	-0.356761	-0.354607
C119	C	1.588755	-0.023427	-0.021273
C120	C	1.922088	0.309906	0.312060
C121	C	1.337220	-0.356766	-0.354616
C122	C	1.670553	-0.023433	-0.021283
C123	C	2.003887	0.309900	0.312051
C124	C	1.063513	-0.356696	-0.546538
C125	C	1.396847	-0.023363	-0.213205
C126	C	1.730180	0.309970	0.120128
C127	C	1.063532	-0.356675	-0.628337
C128	C	1.396866	-0.023341	-0.295004
C129	C	1.730199	0.309992	0.038330
C130	C	1.063587	-0.163585	-0.354623
C131	C	1.396921	0.169748	-0.021290
C132	C	1.730254	0.503081	0.312044
C133	C	1.063638	-0.081271	-0.354639
C134	C	1.396971	0.252062	-0.021306
C135	C	1.730305	0.585395	0.312028
C136	C	1.110648	-0.309268	-0.816547
C137	C	1.443981	0.024066	-0.483214
C138	C	1.777314	0.357399	-0.149880
C139	C	1.110656	-0.309246	-0.893406
C140	C	1.443990	0.024087	-0.560072
C141	C	1.777323	0.357420	-0.226739
C142	C	1.016469	-0.403967	-0.893365
C143	C	1.349802	-0.070633	-0.560032
C144	C	1.683136	0.262700	-0.226699
C145	C	1.016457	-0.403984	-0.816508
C146	C	1.349790	-0.070651	-0.483175
C147	C	1.683124	0.262683	-0.149841
C148	C	1.063551	-0.356636	-0.778101
C149	C	1.396884	-0.023302	-0.444767
C150	C	1.730217	0.310031	-0.111434
C151	C	1.063571	-0.356597	-0.931817
C152	C	1.396905	-0.023263	-0.598484
C153	C	1.730238	0.310070	-0.265150
C154	C	1.063580	-0.356574	-1.015151
C155	C	1.396914	-0.023240	-0.681817
C156	C	1.730247	0.310093	-0.348484
C157	C	1.063541	-0.356657	-0.694762
C158	C	1.396874	-0.023324	-0.361428
C159	C	1.730207	0.310009	-0.028095
C160	C	1.063466	-0.356745	-0.163379
C161	C	1.396799	-0.023411	0.169954
C162	C	1.730133	0.309922	0.503288
C163	C	1.063590	-0.356558	-0.081580
C164	C	1.396923	-0.023225	0.251753
C165	C	1.730256	0.310109	0.585086
H166	H	0.494124	-0.270723	-0.269363
H167	H	0.827457	0.062610	0.063970
H168	H	1.160791	0.395944	0.397303
C169	C	0.644554	-0.257161	-0.255923
C170	C	0.977888	0.076172	0.077410
C171	C	1.311221	0.409505	0.410743
H172	H	0.695830	-0.263945	-0.262656
H173	H	1.029164	0.069388	0.070677
H174	H	1.362497	0.402721	0.404010
H175	H	0.631937	-0.267934	-0.206458
H176	H	0.965270	0.065399	0.126876
H177	H	1.298604	0.398733	0.460209
H178	H	0.631986	-0.207415	-0.266786
H179	H	0.965320	0.125918	0.066547
H180	H	1.298653	0.459251	0.399880
C181	C	0.928606	-0.786033	-0.393670
C182	C	1.261939	-0.452699	-0.060336
C183	C	1.595273	-0.119366	0.272997
H184	H	0.928173	-0.733551	-0.393507
H185	H	1.261506	-0.400218	-0.060174
H186	H	1.594839	-0.066884	0.273159
H187	H	0.914212	-0.803826	-0.346752
H188	H	1.247545	-0.470493	-0.013419
H189	H	1.580878	-0.137159	0.319915
H190	H	0.895340	-0.803686	-0.429793
H191	H	1.228673	-0.470353	-0.096460
H192	H	1.562007	-0.137019	0.236874
H193	H	1.019695	-0.792568	-0.468960
H194	H	1.353028	-0.459235	-0.135627
H195	H	1.686361	-0.125902	0.197706
C196	C	1.162438	-0.257178	-0.774301
C197	C	1.495772	0.076155	-0.440968
C198	C	1.829105	0.409489	-0.107635
H199	H	1.190483	-0.228959	-0.808209
H200	H	1.523816	0.104375	-0.474876
H201	H	1.857149	0.437708	-0.141543
H202	H	1.194486	-0.285508	-0.744316
H203	H	1.527819	0.047825	-0.410983
H204	H	1.861152	0.381158	-0.077649
H205	H	1.134292	-0.224915	-0.744325
H206	H	1.467625	0.108418	-0.410991
H207	H	1.800958	0.441752	-0.077658
C208	C	0.483139	-0.456341	-0.453265
C209	C	0.816472	-0.123007	-0.119932
C210	C	1.149806	0.210326	0.213402
H211	H	0.431862	-0.449548	-0.446547
H212	H	0.765195	-0.116215	-0.113214
H213	H	1.098529	0.217119	0.220119
H214	H	0.495705	-0.506085	-0.442409
H215	H	0.829038	-0.172751	-0.109076
H216	H	1.162371	0.160582	0.224258
H217	H	0.495763	-0.445559	-0.502731
H218	H	0.829097	-0.112226	-0.169398
H219	H	1.162430	0.221107	0.163935
H220	H	0.978100	-0.442556	-0.785204
H221	H	1.311433	-0.109223	-0.451871
H222	H	1.644766	0.224111	-0.118537
H223	H	0.985204	-0.919019	-0.260549
H224	H	1.318537	-0.585686	0.072785
H225	H	1.651870	-0.252352	0.406118
H226	H	0.633553	-0.442789	-0.439829
H227	H	0.966886	-0.109456	-0.106495
H228	H	1.300220	0.223877	0.226838
C229	C	1.024326	-0.927099	-0.489556
C230	C	1.357659	-0.593765	-0.156223
C231	C	1.690993	-0.260432	0.177111
H232	H	1.066390	-0.958066	-0.488027
H233	H	1.399724	-0.624733	-0.154693
H234	H	1.733057	-0.291399	0.178640
H235	H	1.033695	-0.886147	-0.520821
H236	H	1.367029	-0.552814	-0.187488
H237	H	1.700362	-0.219480	0.145845
H238	H	0.983668	-0.954309	-0.507889
H239	H	1.317002	-0.620975	-0.174555
H240	H	1.650335	-0.287642	0.158778
C241	C	0.929344	-0.928401	-0.394072
C242	C	1.262677	-0.595068	-0.060739
C243	C	1.596010	-0.261734	0.272595
H244	H	0.931416	-0.959570	-0.352149
H245	H	1.264749	-0.626237	-0.018815
H246	H	1.598083	-0.292904	0.314518
H247	H	0.911263	-0.955646	-0.434799
H248	H	1.244596	-0.622312	-0.101466
H249	H	1.577930	-0.288979	0.231868
H250	H	0.897552	-0.887966	-0.384421
H251	H	1.230885	-0.554633	-0.051088
H252	H	1.564219	-0.221299	0.282246
H253	H	0.978129	-0.442518	-0.924646
H254	H	1.311462	-0.109184	-0.591312
H255	H	1.644796	0.224149	-0.257979
C256	C	1.201075	-0.784333	-0.324187
C257	C	1.534408	-0.451000	0.009146
C258	C	1.867742	-0.117667	0.342479
H259	H	1.247256	-0.803982	-0.338522
H260	H	1.580590	-0.470648	-0.005188
H261	H	1.913923	-0.137315	0.328145
H262	H	1.190322	-0.799237	-0.275342
H263	H	1.523655	-0.465903	0.057991
H264	H	1.856989	-0.132570	0.391324
H265	H	1.202746	-0.731933	-0.326625
H266	H	1.536079	-0.398600	0.006708
H267	H	1.869413	-0.065267	0.340042
H268	H	1.149006	-0.270673	-0.924705
H269	H	1.482340	0.062660	-0.591372
H270	H	1.815673	0.395993	-0.258039
H271	H	0.986172	-0.791946	-0.259906
H272	H	1.319505	-0.458613	0.073427
H273	H	1.652839	-0.125279	0.406761
C274	C	1.095495	-0.926966	-0.218033
C275	C	1.428828	-0.593633	0.115301
C276	C	1.762162	-0.260300	0.448634
H277	H	1.117304	-0.885992	-0.193818
H278	H	1.450638	-0.552659	0.139516
H279	H	1.783971	-0.219326	0.472849
H280	H	1.132712	-0.956078	-0.240312
H281	H	1.466046	-0.622744	0.093021
H282	H	1.799379	-0.289411	0.426355
H283	H	1.069389	-0.956086	-0.183341
H284	H	1.402722	-0.622753	0.149992
H285	H	1.736056	-0.289420	0.483325
C286	C	1.096532	-0.785812	-0.218085
C287	C	1.429865	-0.452478	0.115248
C288	C	1.763198	-0.119145	0.448582
H289	H	1.082822	-0.805303	-0.171624
H290	H	1.416156	-0.471969	0.161710
H291	H	1.749489	-0.138636	0.495043
H292	H	1.095370	-0.733380	-0.216255
H293	H	1.428703	-0.400047	0.117078
H294	H	1.762037	-0.066713	0.450412
H295	H	1.144753	-0.801788	-0.230002
H296	H	1.478087	-0.468454	0.103331
H297	H	1.811420	-0.135121	0.436664
C298	C	1.167274	-0.928009	-0.449589
C299	C	1.500607	-0.594676	-0.116256
C300	C	1.833941	-0.261342	0.217077
H301	H	1.214351	-0.908245	-0.460532
H302	H	1.547685	-0.574912	-0.127199
H303	H	1.881018	-0.241578	0.206135
H304	H	1.133387	-0.913347	-0.486441
H305	H	1.466720	-0.580014	-0.153108
H306	H	1.800053	-0.246680	0.180225
H307	H	1.170048	-0.980395	-0.448123
H308	H	1.503381	-0.647062	-0.114790
H309	H	1.836715	-0.313729	0.218544
C310	C	1.162346	-0.785758	-0.453301
C311	C	1.495679	-0.452425	-0.119967
C312	C	1.829013	-0.119091	0.213366
H313	H	1.209258	-0.804749	-0.466050
H314	H	1.542591	-0.471415	-0.132717
H315	H	1.875925	-0.138082	0.200616
H316	H	1.163973	-0.733304	-0.453475
H317	H	1.497306	-0.399971	-0.120141
H318	H	1.830640	-0.066638	0.213192
H319	H	1.127006	-0.802272	-0.487956
H320	H	1.460339	-0.468939	-0.154623
H321	H	1.793672	-0.135605	0.178710
C322	C	1.198490	-0.926186	-0.318347
C323	C	1.531824	-0.592853	0.014986
C324	C	1.865157	-0.259520	0.348320
H325	H	1.175035	-0.956729	-0.282975
H326	H	1.508368	-0.623396	0.050358
H327	H	1.841701	-0.290063	0.383691
H328	H	1.220183	-0.884954	-0.294476
H329	H	1.553517	-0.551621	0.038858
H330	H	1.886850	-0.218287	0.372191
H331	H	1.235456	-0.953701	-0.342941
H332	H	1.568789	-0.620368	-0.009608
H333	H	1.902123	-0.287034	0.323726
