data_functionalizedCrystal
_audit_creation_method	'MofGen! by Chris Wilmer'
_symmetry_space_group_name_H-M	'P1'
_symmetry_Int_Tables_number	1
_symmetry_cell_setting	triclinic
loop_
_symmetry_equiv_pos_as_xyz
  x,y,z
_cell_length_a	17.038272
_cell_length_b	15.944551
_cell_length_c	15.021413
_cell_angle_alpha	90.002826
_cell_angle_beta	90.004029
_cell_angle_gamma	92.694853
loop_
_atom_site_label
_atom_site_type_symbol
_atom_site_fract_x
_atom_site_fract_y
_atom_site_fract_z
O1	O	0.100827	-1.121728	-0.073940
O2	O	0.113259	-0.878066	-0.073962
O3	O	-0.006773	-0.998449	-0.073944
O4	O	0.220859	-1.001345	-0.073958
O5	O	-0.006755	-0.998429	0.074120
O6	O	0.113277	-0.878046	0.074102
O7	O	0.100844	-1.121708	0.074125
Zn8	Zn	0.107063	-0.999874	0.097622
Zn9	Zn	0.107041	-0.999900	-0.097459
O10	O	0.220876	-1.001326	0.074107
C11	C	0.112752	-0.846725	0.000067
C12	C	0.111205	-0.753369	0.000059
C13	C	-0.035893	-0.995805	0.000088
C14	C	-0.122688	-0.987945	0.000087
N15	N	0.107078	-0.999863	0.230759
C16	C	-0.172781	-1.060103	0.000094
C17	C	-0.254334	-1.052713	0.000085
C18	C	-0.285792	-0.973165	0.000075
C19	C	-0.235693	-0.901002	0.000065
C20	C	-0.154142	-0.908393	0.000068
C21	C	-0.531558	-0.947056	0.000061
C22	C	-0.613115	-0.939671	0.000060
C23	C	-0.631751	-1.091383	0.000079
C24	C	-0.550197	-1.098766	0.000087
C25	C	-0.500105	-1.026603	0.000072
C26	C	-0.369152	-0.965610	0.000069
C27	C	-0.416747	-1.034159	0.000073
C28	C	0.249997	-1.003969	0.000073
C29	C	0.336792	-1.011829	0.000068
C30	C	0.101352	-1.153049	0.000093
C31	C	0.102899	-1.246405	0.000096
C32	C	0.033105	-0.532936	0.000081
C33	C	0.069363	-0.474515	-0.072924
C34	C	0.108405	-0.582443	0.000070
C35	C	0.069398	-0.474519	0.073055
C36	C	0.105696	-0.417337	0.000084
C37	C	0.144684	-0.525252	-0.072996
C38	C	0.144709	-0.525262	0.073049
C39	C	0.181022	-0.466862	0.000026
C40	C	0.109964	-0.677557	0.000061
C41	C	0.104143	-0.322225	0.000087
N42	N	0.107019	-0.999917	-0.230597
C43	C	0.162555	-0.944187	0.470434
C44	C	0.177734	-1.021171	0.529775
C45	C	0.107059	-0.999883	0.412366
C46	C	0.091897	-0.922921	0.529768
C47	C	0.107041	-0.999896	0.587790
C48	C	0.122273	-1.076908	0.470400
C49	C	0.036405	-0.978606	0.470388
C50	C	0.051554	-1.055643	0.529702
C51	C	0.107070	-0.999875	0.311309
C52	C	0.107029	-0.999913	0.688846
H53	H	-0.295117	-1.111472	0.000093
H54	H	-0.524590	-1.163543	0.000096
O55	O	-0.399582	-0.888275	0.000023
C56	C	-0.372502	-0.738576	0.000065
C57	C	-0.337933	-0.826105	0.000100
H58	H	-0.322676	-0.688288	0.000146
H59	H	-0.410189	-0.731281	-0.061919
H60	H	-0.410245	-0.731364	0.062011
H61	H	-0.300155	-0.833376	-0.061804
H62	H	-0.300291	-0.833360	0.062125
O63	O	-0.680442	-1.161452	-0.000073
C64	C	-0.783367	-1.241140	-0.076753
C65	C	-0.728257	-1.161759	-0.076698
H66	H	-0.822051	-1.241405	-0.138689
H67	H	-0.746914	-1.299294	-0.076805
H68	H	-0.821976	-1.241460	-0.014762
H69	H	-0.689637	-1.161358	-0.138678
H70	H	-0.764757	-1.103641	-0.076600
H71	H	-0.147175	-1.124879	0.000108
H72	H	-0.023318	-0.960575	0.444282
H73	H	0.037542	-0.452150	0.134774
O74	O	0.076694	-0.845206	0.560770
C75	C	0.118073	-0.698676	0.565854
C76	C	0.135365	-0.786639	0.530673
H77	H	0.165506	-0.651304	0.541551
H78	H	0.058328	-0.680010	0.540379
H79	H	0.117608	-0.699610	0.641739
H80	H	0.135871	-0.785773	0.454791
H81	H	0.195098	-0.805270	0.556216
O82	O	-0.041406	-0.567494	0.000046
C83	C	-0.123433	-0.694795	0.000688
C84	C	-0.039015	-0.655765	0.000754
H85	H	-0.121528	-0.766167	0.001241
H86	H	-0.155872	-0.673134	0.062314
H87	H	-0.155401	-0.673969	-0.061611
H88	H	-0.006981	-0.676573	0.063011
H89	H	-0.006635	-0.677424	-0.060914
H90	H	-0.638725	-0.874891	0.000067
O91	O	0.137627	-1.154644	0.439579
C92	C	0.165833	-1.297056	0.477051
C93	C	0.148431	-1.209070	0.512078
H94	H	0.174589	-1.341079	0.535649
H95	H	0.114403	-1.322287	0.434777
H96	H	0.221450	-1.292920	0.434784
H97	H	0.092838	-1.213134	0.554383
H98	H	0.199905	-1.183872	0.554303
H99	H	0.176539	-0.547657	0.134769
O100	O	0.031436	-0.447916	-0.146647
C101	C	0.027448	-0.444669	-0.306957
C102	C	0.070472	-0.474851	-0.223546
H103	H	0.059001	-0.466419	-0.369151
H104	H	-0.035597	-0.471995	-0.306931
H105	H	0.027119	-0.373189	-0.306534
H106	H	0.070861	-0.546326	-0.223914
H107	H	0.133495	-0.447463	-0.223604
H108	H	0.004613	-1.102803	0.555561
O109	O	0.182588	-0.551954	-0.146686
C110	C	0.226609	-0.670446	-0.229335
C111	C	0.183654	-0.640320	-0.145856
H112	H	0.227500	-0.741891	-0.228682
H113	H	0.194721	-0.649165	-0.291502
H114	H	0.289462	-0.642572	-0.229590
H115	H	0.120800	-0.668181	-0.145514
H116	H	0.215604	-0.661590	-0.083726
H117	H	0.243580	-0.438170	-0.000019
O118	O	0.248945	-1.042674	0.561055
C119	C	0.328495	-1.067402	0.690212
C120	C	0.247804	-1.043071	0.654910
H121	H	0.327604	-1.067714	0.766097
H122	H	0.341896	-1.132582	0.664843
H123	H	0.375745	-1.019862	0.665819
H124	H	0.200502	-1.090554	0.679288
H125	H	0.234470	-0.977871	0.680272
O126	O	0.218627	-0.888167	0.439271
C127	C	0.336072	-0.866871	0.351194
C128	C	0.272610	-0.930392	0.386410
H129	H	0.379744	-0.900987	0.308464
H130	H	0.307240	-0.817204	0.309373
H131	H	0.368246	-0.835398	0.409735
H132	H	0.240416	-0.961927	0.327923
H133	H	0.301489	-0.980006	0.428258
O134	O	-0.266119	-0.823665	0.000012
C135	C	-0.239021	-0.673969	0.000045
C136	C	-0.204463	-0.761503	0.000082
H137	H	-0.189189	-0.623687	0.000119
H138	H	-0.276711	-0.666671	-0.061936
H139	H	-0.276759	-0.666749	0.061993
H140	H	-0.166690	-0.768783	-0.061825
H141	H	-0.166818	-0.768761	0.062103
O142	O	-0.386229	-1.111448	-0.000076
C143	C	-0.377235	-1.243407	-0.076736
C144	C	-0.411844	-1.155897	-0.076692
H145	H	-0.397945	-1.279376	-0.138663
H146	H	-0.310341	-1.236336	-0.076794
H147	H	-0.397843	-1.279317	-0.014737
H148	H	-0.391297	-1.119940	-0.138680
H149	H	-0.478735	-1.163029	-0.076587
H150	H	-0.490782	-0.888296	0.000049
H151	H	-0.113356	-0.849634	0.000061
