data_functionalizedCrystal
_audit_creation_method	'MofGen! by Chris Wilmer'
_symmetry_space_group_name_H-M	'P1'
_symmetry_Int_Tables_number	1
_symmetry_cell_setting	triclinic
loop_
_symmetry_equiv_pos_as_xyz
  x,y,z
_cell_length_a	23.532361
_cell_length_b	22.010155
_cell_length_c	12.837942
_cell_angle_alpha	90.005329
_cell_angle_beta	91.170696
_cell_angle_gamma	90.004127
loop_
_atom_site_label
_atom_site_type_symbol
_atom_site_fract_x
_atom_site_fract_y
_atom_site_fract_z
O1	O	0.762483	0.050464	-0.125520
O2	O	0.597663	0.050478	-0.143768
O3	O	0.676418	0.050467	0.016220
O4	O	0.683728	0.050474	-0.285508
O5	O	0.676404	-0.050583	0.016196
O6	O	0.597648	-0.050572	-0.143792
O7	O	0.762469	-0.050587	-0.125544
Cu8	Cu	0.680057	-0.059806	-0.134670
Cu9	Cu	0.680074	0.059697	-0.134642
O10	O	0.683713	-0.050576	-0.285532
C11	C	0.576413	-0.000045	-0.143323
C12	C	0.513116	-0.000040	-0.141949
C13	C	0.239535	0.055039	-0.135926
C14	C	0.299009	0.055040	-0.137227
O15	O	0.329779	0.101885	-0.137853
N16	N	0.328745	-0.000042	-0.137897
C17	C	0.299003	-0.055130	-0.137256
O18	O	0.329756	-0.101982	-0.137944
C19	C	0.239530	-0.055131	-0.135948
C20	C	0.209797	-0.000045	-0.135288
C21	C	0.209803	0.110121	-0.135266
C22	C	0.150332	0.110119	-0.133967
C23	C	0.120594	0.055035	-0.133329
C24	C	0.150327	-0.000046	-0.133990
C25	C	0.209789	-0.110218	-0.135299
C26	C	0.150312	-0.110214	-0.133990
C27	C	0.120579	-0.055128	-0.133331
C28	C	0.061119	-0.055132	-0.132054
N29	N	0.031384	-0.000049	-0.131383
C30	C	0.061121	0.055035	-0.132021
C31	C	0.423901	-0.055124	-0.140001
C32	C	0.483373	-0.055124	-0.141316
C33	C	0.483375	0.055047	-0.141285
C34	C	0.423902	0.055046	-0.139977
C35	C	0.394165	-0.000041	-0.139331
C36	C	-0.063771	0.055027	-0.129295
C37	C	-0.123246	0.055020	-0.128001
C38	C	-0.123243	-0.055150	-0.128027
C39	C	-0.063773	-0.055144	-0.129326
C40	C	-0.034038	-0.000051	-0.129957
O41	O	0.030312	-0.101953	-0.131423
O42	O	0.030361	0.101879	-0.131319
N43	N	0.680049	-0.143859	-0.134689
C44	C	0.714950	-0.563643	-0.063809
C45	C	0.714952	-0.627250	-0.063802
O46	O	0.744604	-0.660146	-0.003551
N47	N	0.680073	-0.659066	-0.134620
C48	C	0.645185	-0.627270	-0.205443
O49	O	0.615517	-0.660173	-0.265678
C50	C	0.645180	-0.563664	-0.205444
C51	C	0.680066	-0.531852	-0.134629
C52	C	0.749833	-0.531831	0.007002
C53	C	0.749831	-0.468227	0.006993
C54	C	0.714947	-0.436436	-0.063827
C55	C	0.680064	-0.468249	-0.134637
C56	C	0.610289	-0.531870	-0.276261
C57	C	0.610287	-0.468259	-0.276256
C58	C	0.645173	-0.436447	-0.205440
C59	C	0.645178	-0.372854	-0.205465
N60	N	0.680058	-0.341039	-0.134647
C61	C	0.714942	-0.372830	-0.063828
C62	C	0.645197	-0.760848	-0.205433
C63	C	0.645204	-0.824453	-0.205438
C64	C	0.714971	-0.824429	-0.063795
C65	C	0.714966	-0.760823	-0.063797
C66	C	0.680076	-0.729033	-0.134615
C67	C	0.714936	-0.239259	-0.063852
C68	C	0.714933	-0.175650	-0.063870
C69	C	0.645164	-0.175680	-0.205508
C70	C	0.645169	-0.239283	-0.205495
C71	C	0.680057	-0.271071	-0.134658
O72	O	0.615540	-0.339919	-0.265683
O73	O	0.744599	-0.339920	-0.003594
C74	C	0.783719	-0.000062	-0.125989
C75	C	0.847016	-0.000064	-0.127363
C76	C	0.673942	-0.000057	0.054802
C77	C	0.666577	-0.000056	0.169802
N78	N	0.680086	0.143750	-0.134614
C79	C	0.686190	-0.000050	-0.324114
C80	C	0.693554	-0.000048	-0.439113
C81	C	0.755111	-0.000051	0.411698
C82	C	0.748194	-0.000049	0.519751
C83	C	0.645827	-0.000046	0.493961
C84	C	0.652744	-0.000048	0.385909
C85	C	0.707388	-0.000051	0.344782
C86	C	0.714304	-0.000057	0.236727
C87	C	0.611938	-0.000050	0.210939
C88	C	0.605021	-0.000048	0.318992
H89	H	0.507598	0.099899	-0.141804
O90	O	0.794509	-0.000131	0.584860
C91	C	0.846124	-0.052499	0.721771
C92	C	0.793639	-0.052476	0.648111
H93	H	0.845444	-0.094822	0.772913
H94	H	0.845452	-0.010237	0.773080
H95	H	0.886357	-0.052471	0.673789
H96	H	0.753379	-0.052526	0.696010
H97	H	0.794362	-0.094734	0.596799
O98	O	0.395111	0.108611	-0.139288
C99	C	0.401406	0.217884	-0.139470
C100	C	0.434078	0.157264	-0.140229
H101	H	0.432896	0.257236	-0.140252
H102	H	0.374861	0.220683	-0.066326
H103	H	0.372264	0.220608	-0.211353
H104	H	0.463250	0.154499	-0.068396
H105	H	0.460585	0.154490	-0.213420
H106	H	-0.039564	-0.100000	-0.129884
O107	O	0.565531	0.000031	0.146041
C108	C	0.480175	0.052397	0.090901
C109	C	0.532697	0.052378	0.164471
H110	H	0.453620	0.094721	0.105761
H111	H	0.453533	0.010137	0.105800
H112	H	0.494515	0.052363	0.006615
H113	H	0.518408	0.052433	0.248784
H114	H	0.559328	0.094634	0.149482
H115	H	0.126129	0.154976	-0.133426
O116	O	0.551914	-0.000126	0.358823
C117	C	0.462313	-0.052495	0.369885
C118	C	0.522437	-0.052474	0.324693
H119	H	0.438467	-0.094820	0.342327
H120	H	0.438399	-0.010235	0.342252
H121	H	0.465579	-0.052463	0.458606
H122	H	0.519223	-0.052528	0.235971
H123	H	0.546328	-0.094730	0.352407
O124	O	0.592791	-0.000069	0.534095
C125	C	0.536774	-0.000022	0.689135
C126	C	0.596870	-0.000010	0.643823
H127	H	0.540052	0.000038	0.777855
H128	H	0.512876	-0.042322	0.661610
H129	H	0.512902	0.042257	0.661473
H130	H	0.620790	-0.042261	0.671464
H131	H	0.620725	0.042317	0.671342
H132	H	0.743375	-0.850325	-0.006129
O133	O	-0.152039	0.108588	-0.127314
C134	C	-0.145750	0.217862	-0.127486
C135	C	-0.113074	0.157243	-0.128243
H136	H	-0.114262	0.257215	-0.128259
H137	H	-0.172299	0.220657	-0.054348
H138	H	-0.174888	0.220586	-0.199374
H139	H	-0.083907	0.154478	-0.056405
H140	H	-0.086562	0.154474	-0.201428
O141	O	0.238595	0.163688	-0.135933
C142	C	0.232302	0.272960	-0.135722
C143	C	0.199629	0.212335	-0.134978
H144	H	0.200812	0.312307	-0.134928
H145	H	0.258844	0.275762	-0.208867
H146	H	0.261445	0.275690	-0.063841
H147	H	0.170456	0.209565	-0.206809
H148	H	0.173123	0.209559	-0.061786
O149	O	-0.034864	0.108528	-0.129732
C150	C	0.033886	0.172470	-0.041467
C151	C	0.001178	0.111865	-0.040820
H152	H	0.063042	0.175182	0.030399
H153	H	0.002437	0.211856	-0.040708
H154	H	0.060422	0.175220	-0.114623
H155	H	-0.025359	0.109055	0.032324
H156	H	0.032656	0.072507	-0.041634
O157	O	0.576481	-0.562791	-0.345147
C158	C	0.572015	-0.634636	-0.486718
C159	C	0.610373	-0.599646	-0.408778
H160	H	0.599400	-0.664452	-0.538169
H161	H	0.547093	-0.601008	-0.537398
H162	H	0.541144	-0.664386	-0.442229
H163	H	0.641276	-0.569896	-0.453183
H164	H	0.635255	-0.633308	-0.358099
O165	O	0.121514	-0.163783	-0.133413
C166	C	0.127795	-0.273056	-0.133504
C167	C	0.160477	-0.212436	-0.134181
H168	H	0.159283	-0.312408	-0.134103
H169	H	0.098687	-0.275856	-0.205426
H170	H	0.101215	-0.275780	-0.060398
H171	H	0.187089	-0.209672	-0.207238
H172	H	0.189551	-0.209662	-0.062210
O173	O	0.512164	-0.108689	-0.141920
C174	C	0.505867	-0.217963	-0.141875
C175	C	0.473194	-0.157342	-0.141173
H176	H	0.474373	-0.257314	-0.141293
H177	H	0.534974	-0.220764	-0.069953
H178	H	0.532447	-0.220684	-0.214981
H179	H	0.446582	-0.154580	-0.068115
H180	H	0.444121	-0.154566	-0.213143
H181	H	0.399693	-0.099986	-0.139488
O182	O	0.748878	-0.270037	0.004998
C183	C	0.818051	-0.263283	0.145526
C184	C	0.779649	-0.228351	0.067599
H185	H	0.842931	-0.229595	0.196174
H186	H	0.848952	-0.293047	0.101133
H187	H	0.790665	-0.293076	0.197013
H188	H	0.806990	-0.198526	0.016093
H189	H	0.748745	-0.198626	0.112057
H190	H	0.778239	-0.557709	0.064676
O191	O	0.238726	-0.163692	-0.135791
C192	C	0.307410	-0.227657	-0.047447
C193	C	0.274690	-0.167065	-0.046780
H194	H	0.336486	-0.230409	0.024521
H195	H	0.334014	-0.230434	-0.120518
H196	H	0.275917	-0.267008	-0.046807
H197	H	0.306142	-0.127679	-0.047382
H198	H	0.248076	-0.164341	0.026284
O199	O	-0.152049	-0.108711	-0.127450
C200	C	-0.145790	-0.217986	-0.127524
C201	C	-0.113096	-0.157373	-0.128216
H202	H	-0.114310	-0.257345	-0.128121
H203	H	-0.174902	-0.220782	-0.199442
H204	H	-0.172368	-0.220699	-0.054415
H205	H	-0.086487	-0.154619	-0.201277
H206	H	-0.084019	-0.154602	-0.056249
O207	O	0.808159	0.000025	0.371616
C208	C	0.875395	0.052386	0.264640
C209	C	0.815297	0.052370	0.309943
H210	H	0.881189	0.094709	0.214786
H211	H	0.881196	0.010125	0.214622
H212	H	0.908308	0.052354	0.331044
H213	H	0.782348	0.052424	0.243605
H214	H	0.809544	0.094628	0.359989
O215	O	0.783642	-0.437442	0.076061
C216	C	0.807137	-0.418284	0.256662
C217	C	0.768805	-0.453114	0.178465
H218	H	0.795163	-0.430952	0.339472
H219	H	0.801207	-0.367329	0.244791
H220	H	0.853453	-0.430818	0.243602
H221	H	0.722474	-0.440631	0.191477
H222	H	0.774783	-0.504060	0.190355
O223	O	0.748867	-0.730017	0.005098
C224	C	0.818093	-0.736724	0.145543
C225	C	0.779718	-0.771682	0.067587
H226	H	0.843055	-0.770395	0.196070
H227	H	0.790736	-0.706965	0.197143
H228	H	0.848928	-0.706925	0.101068
H229	H	0.748877	-0.801514	0.111977
H230	H	0.807110	-0.801402	0.015987
H231	H	0.743344	-0.149750	-0.006203
O232	O	0.611390	-0.729904	-0.274287
C233	C	0.606947	-0.658142	-0.415962
C234	C	0.645298	-0.693133	-0.338028
H235	H	0.634347	-0.628414	-0.467531
H236	H	0.576091	-0.628322	-0.371574
H237	H	0.582010	-0.691825	-0.466525
H238	H	0.670272	-0.659494	-0.287444
H239	H	0.676119	-0.722962	-0.382480
O240	O	0.611267	-0.855258	-0.274275
C241	C	0.542093	-0.848551	-0.414804
C242	C	0.580493	-0.813593	-0.336890
H243	H	0.517210	-0.814880	-0.465463
H244	H	0.511194	-0.878312	-0.370399
H245	H	0.569481	-0.878349	-0.466281
H246	H	0.553150	-0.783762	-0.285393
H247	H	0.611395	-0.783871	-0.381359
H248	H	0.581873	-0.442379	-0.333924
H249	H	0.616768	-0.265185	-0.263169
O250	O	0.611343	-0.144818	-0.274439
C251	C	0.587727	-0.125385	-0.454897
C252	C	0.626080	-0.160365	-0.376955
H253	H	0.599620	-0.137951	-0.537797
H254	H	0.593724	-0.074453	-0.442816
H255	H	0.541408	-0.137885	-0.441768
H256	H	0.672413	-0.147915	-0.390036
H257	H	0.620034	-0.211288	-0.389055
O258	O	0.767354	0.000023	0.196649
C259	C	0.834586	0.052394	0.089680
C260	C	0.774487	0.052369	0.134976
H261	H	0.840377	0.094718	0.039826
H262	H	0.840396	0.010133	0.039665
H263	H	0.867496	0.052368	0.156089
H264	H	0.741540	0.052417	0.068633
H265	H	0.768726	0.094626	0.185019
