data_functionalizedCrystal
_audit_creation_method	'MofGen! by Chris Wilmer'
_symmetry_space_group_name_H-M	'P1'
_symmetry_Int_Tables_number	1
_symmetry_cell_setting	triclinic
loop_
_symmetry_equiv_pos_as_xyz
  x,y,z
_cell_length_a	18.101395
_cell_length_b	10.686220
_cell_length_c	10.685986
_cell_angle_alpha	99.031303
_cell_angle_beta	85.587711
_cell_angle_gamma	94.412841
loop_
_atom_site_label
_atom_site_type_symbol
_atom_site_fract_x
_atom_site_fract_y
_atom_site_fract_z
Zn1	Zn	-0.184159	1.885434	-0.569024
Zn2	Zn	0.315841	2.385434	-0.069024
Zn3	Zn	-0.316858	1.901503	-0.356785
Zn4	Zn	0.183142	2.401503	0.143215
Zn5	Zn	-0.201862	1.689426	-0.373053
Zn6	Zn	0.298138	2.189426	0.126947
Zn7	Zn	-0.316805	1.673101	-0.585229
Zn8	Zn	0.183195	2.173101	-0.085229
O9	O	-0.254921	1.787366	-0.471023
O10	O	0.245079	2.287366	0.028977
O11	O	-0.194375	2.065184	-0.527279
O12	O	0.305625	2.565184	-0.027279
O13	O	-0.309034	1.886928	-0.181324
O14	O	0.190966	2.386928	0.318676
O15	O	-0.095875	1.715534	-0.399076
O16	O	0.404125	2.215534	0.100924
O17	O	-0.291868	2.076989	-0.371348
O18	O	0.208132	2.576989	0.128652
O19	O	-0.082869	1.859541	-0.543054
O20	O	0.417131	2.359541	-0.043054
O21	O	-0.224547	1.731115	-0.193276
O22	O	0.275453	2.231115	0.306724
O23	O	-0.224496	1.509643	-0.414789
O24	O	0.275504	2.009643	0.085211
O25	O	-0.291779	1.687710	-0.760698
O26	O	0.208221	2.187710	-0.260698
O27	O	-0.308944	1.497648	-0.570674
O28	O	0.191056	1.997648	-0.070674
O29	O	-0.194324	1.843711	-0.748792
O30	O	0.305676	2.343711	-0.248792
O31	O	-0.420490	1.871098	-0.387062
O32	O	0.079510	2.371098	0.112938
O33	O	-0.420451	1.703291	-0.554899
O34	O	0.079549	2.203291	-0.054899
C35	C	-0.268636	1.457591	-0.496256
C36	C	0.231364	1.957591	0.003744
C37	C	-0.274520	1.316510	-0.507081
C38	C	0.225480	1.816510	-0.007081
C39	C	-0.447340	1.787199	-0.470998
C40	C	0.052660	2.287199	0.029002
C41	C	-0.529651	1.787241	-0.471021
C42	C	-0.029651	2.287241	0.028979
C43	C	-0.828728	1.787514	-0.471068
C44	C	-0.328728	2.287514	0.028932
C45	C	-0.797390	1.682143	-0.576893
C46	C	-0.297390	2.182143	-0.076893
C47	C	-0.711804	1.681702	-0.576621
C48	C	-0.211804	2.181702	-0.076621
C49	C	-0.680352	1.787378	-0.471046
C50	C	-0.180352	2.287378	0.028954
C51	C	-0.718584	1.761404	-0.340048
C52	C	-0.218584	2.261404	0.159952
C53	C	-0.804231	1.760728	-0.340685
C54	C	-0.304231	2.260728	0.159315
C55	C	-0.790055	1.919163	-0.495048
C56	C	-0.290055	2.419163	0.004952
C57	C	-0.704314	1.918148	-0.498043
C58	C	-0.204314	2.418148	0.001957
C59	C	-0.596497	1.787304	-0.471025
C60	C	-0.096497	2.287304	0.028975
C61	C	-0.912583	1.787585	-0.471081
C62	C	-0.412583	2.287585	0.028919
C63	C	-0.061748	1.787566	-0.471072
C64	C	0.438252	2.287566	0.028928
C65	C	0.020571	1.787651	-0.471093
C66	C	0.520571	2.287651	0.028907
C67	C	-0.241071	1.762097	-0.802088
C68	C	0.258929	2.262097	-0.302088
C69	C	-0.235169	1.751329	-0.943168
C70	C	0.264831	2.251329	-0.443168
C71	C	-0.241153	2.118429	-0.445691
C72	C	0.258847	2.618429	0.054309
C73	C	-0.235286	2.259508	-0.434897
C74	C	0.264714	2.759508	0.065103
C75	C	-0.268661	1.812610	-0.141240
C76	C	0.231339	2.312610	0.358760
C77	C	-0.274344	1.823624	-0.000142
C78	C	0.225656	2.323624	0.499858
H79	H	-0.197196	1.318637	-0.364814
H80	H	0.302804	1.818637	0.135186
H81	H	-0.312617	1.257374	-0.577160
H82	H	0.187383	1.757374	-0.077160
C83	C	-0.691415	1.862425	-0.231226
C84	C	-0.191415	2.362425	0.268774
N85	N	-0.670948	1.938514	-0.149263
N86	N	-0.170948	2.438514	0.350737
C87	C	-0.676488	1.702048	-0.708281
C88	C	-0.176488	2.202048	-0.208281
N89	N	-0.649893	1.717367	-0.807455
N90	N	-0.149893	2.217367	-0.307455
C91	C	-0.183762	1.656581	-1.023078
C92	C	0.316238	2.156581	-0.523078
N93	N	-0.145042	1.585215	-1.083276
N94	N	0.354958	2.085215	-0.583276
H95	H	-0.829569	1.664798	-0.319177
H96	H	-0.329569	2.164798	0.180823
C97	C	-0.325753	1.918377	-0.920225
C98	C	0.174247	2.418377	-0.420225
N99	N	-0.364475	1.989742	-0.860031
N100	N	0.135525	2.489742	-0.360031
C101	C	-0.833366	1.550819	-0.556845
C102	C	-0.333366	2.050819	-0.056845
N103	N	-0.860463	1.451906	-0.541737
N104	N	-0.360463	1.951906	-0.041737
C105	C	-0.818292	1.702147	-0.709011
C106	C	-0.318292	2.202147	-0.209011
N107	N	-0.834043	1.717213	-0.808525
N108	N	-0.334043	2.217213	-0.308525
H109	H	-0.696469	1.583914	-0.561548
H110	H	-0.196469	2.083914	-0.061548
H111	H	-0.825267	1.834701	-0.259701
H112	H	-0.325267	2.334701	0.240299
H113	H	-0.702473	1.666554	-0.317940
H114	H	-0.202473	2.166554	0.182060
H115	H	-0.810254	1.997542	-0.417847
H116	H	-0.310254	2.497542	0.082153
C117	C	-0.811906	1.953847	-0.621172
C118	C	-0.311906	2.453847	-0.121172
N119	N	-0.828365	1.979956	-0.716176
N120	N	-0.328365	2.479956	-0.216176
C121	C	-0.669696	1.944896	-0.628188
C122	C	-0.169696	2.444896	-0.128188
N123	N	-0.643608	1.965048	-0.726205
N124	N	-0.143608	2.465048	-0.226205
H125	H	-0.682473	1.999986	-0.425765
H126	H	-0.182473	2.499986	0.074235
