data_functionalizedCrystal
_audit_creation_method	'MofGen! by Chris Wilmer'
_symmetry_space_group_name_H-M	'P1'
_symmetry_Int_Tables_number	1
_symmetry_cell_setting	triclinic
loop_
_symmetry_equiv_pos_as_xyz
  x,y,z
_cell_length_a	16.109318
_cell_length_b	16.776229
_cell_length_c	16.109301
_cell_angle_alpha	90.008074
_cell_angle_beta	83.465022
_cell_angle_gamma	90.003560
loop_
_atom_site_label
_atom_site_type_symbol
_atom_site_fract_x
_atom_site_fract_y
_atom_site_fract_z
O1	O	1.103126	0.066224	0.106938
O2	O	1.603126	0.566224	0.606938
O3	O	0.861066	0.066241	0.120222
O4	O	1.361066	0.566241	0.620222
O5	O	0.988745	0.066224	-0.007451
O6	O	1.488745	0.566224	0.492549
O7	O	0.975446	0.066241	0.234610
O8	O	1.475446	0.566241	0.734610
O9	O	0.988728	-0.066352	-0.007459
O10	O	1.488728	0.433648	0.492541
O11	O	0.861049	-0.066336	0.120214
O12	O	1.361049	0.433664	0.620214
O13	O	1.103109	-0.066352	0.106930
O14	O	1.603109	0.433648	0.606930
Zn15	Zn	0.982076	-0.087393	0.113571
Zn16	Zn	1.482076	0.412607	0.613571
Zn17	Zn	0.982099	0.087282	0.113581
Zn18	Zn	1.482099	0.587282	0.613581
O19	O	0.975429	-0.066335	0.234603
O20	O	1.475429	0.433665	0.734603
C21	C	0.830083	-0.000045	0.119677
C22	C	1.330083	0.499955	0.619677
C23	C	0.737788	-0.000039	0.118057
C24	C	1.237788	0.499961	0.618057
N25	N	0.982067	-0.206604	0.113563
N26	N	1.482067	0.293396	0.613563
C27	C	0.438724	0.072214	0.112826
C28	C	0.938724	0.572214	0.612826
C29	C	0.525445	0.072219	0.114343
C30	C	1.025445	0.572219	0.614343
C31	C	0.525445	-0.072323	0.114323
C32	C	1.025445	0.427677	0.614323
C33	C	0.438726	-0.072328	0.112800
C34	C	0.938726	0.427672	0.612800
C35	C	0.395367	-0.000057	0.112056
C36	C	0.895367	0.499943	0.612056
C37	C	0.568807	-0.000048	0.115096
C38	C	1.068807	0.499952	0.615096
C39	C	0.662835	-0.000043	0.116742
C40	C	1.162835	0.499957	0.616742
C41	C	0.301334	-0.000061	0.110409
C42	C	0.801334	0.499939	0.610409
C43	C	1.038621	-0.248329	0.057053
C44	C	1.538621	0.251671	0.557053
C45	C	1.038625	-0.331781	0.057052
C46	C	1.538625	0.168219	0.557052
C47	C	0.982080	-0.373507	0.113566
C48	C	1.482080	0.126493	0.613566
C49	C	0.925520	-0.331777	0.170079
C50	C	1.425520	0.168223	0.670079
C51	C	0.925512	-0.248326	0.170075
C52	C	1.425512	0.251674	0.670075
C53	C	0.925550	-0.668324	0.170096
C54	C	1.425550	-0.168324	0.670096
C55	C	0.925564	-0.751781	0.170097
C56	C	1.425564	-0.251781	0.670097
C57	C	1.038663	-0.751779	0.057072
C58	C	1.538663	-0.251779	0.557072
C59	C	1.038655	-0.668328	0.057069
C60	C	1.538655	-0.168328	0.557069
C61	C	0.982093	-0.626605	0.113578
C62	C	1.482093	-0.126605	0.613578
C63	C	0.982088	-0.536117	0.113577
C64	C	1.482088	-0.036117	0.613577
C65	C	0.982088	-0.463994	0.113572
C66	C	1.482088	0.036006	0.613572
C67	C	1.134092	-0.000064	0.107474
C68	C	1.634092	0.499936	0.607474
C69	C	1.226387	-0.000065	0.109095
C70	C	1.726387	0.499935	0.609095
C71	C	0.988198	-0.000065	-0.038430
C72	C	1.488198	0.499935	0.461570
C73	C	0.986583	-0.000066	-0.130725
C74	C	1.486583	0.499934	0.369275
N75	N	0.982114	0.206493	0.113582
N76	N	1.482114	0.706493	0.613582
C77	C	1.058590	-0.000058	-0.352993
C78	C	1.558590	0.499942	0.147007
C79	C	1.057066	-0.000051	-0.439713
C80	C	1.557066	0.499949	0.060287
C81	C	0.905579	-0.000044	-0.419848
C82	C	1.405579	0.499956	0.080152
C83	C	0.907104	-0.000045	-0.333130
C84	C	1.407104	0.499955	0.166870
C85	C	0.983612	-0.000056	-0.299704
C86	C	1.483612	0.499944	0.200296
C87	C	0.980563	-0.000048	-0.473144
C88	C	1.480563	0.499952	0.026856
C89	C	0.978910	-0.000041	-0.567170
C90	C	1.478910	0.499959	-0.067170
C91	C	0.985265	-0.000062	-0.205672
C92	C	1.485265	0.499938	0.294328
C93	C	0.975976	-0.000045	0.265581
C94	C	1.475976	0.499955	0.765581
C95	C	0.977592	-0.000039	0.357877
C96	C	1.477592	0.499961	0.857877
H97	H	0.403423	0.131061	0.112219
H98	H	0.903423	0.631061	0.612219
C99	C	0.863438	-0.622440	0.232366
C100	C	1.363438	-0.122440	0.732366
N101	N	0.816690	-0.587877	0.279309
N102	N	1.316690	-0.087877	0.779309
H103	H	1.084703	-0.634358	0.011052
H104	H	1.584703	-0.134358	0.511052
C105	C	0.863305	-0.202430	0.232248
C106	C	1.363305	0.297570	0.732248
N107	N	0.816449	-0.167862	0.279078
N108	N	1.316449	0.332138	0.779078
C109	C	0.391031	-0.151835	0.111959
C110	C	0.891031	0.348165	0.611959
N111	N	0.355106	-0.211717	0.111327
N112	N	0.855106	0.288283	0.611327
C113	C	0.573133	0.151722	0.115188
C114	C	1.073133	0.651722	0.615188
N115	N	0.609052	0.211607	0.115823
N116	N	1.109052	0.711607	0.615823
C117	C	1.142751	-0.000061	-0.316228
C118	C	1.642751	0.499939	0.183772
N119	N	1.206144	-0.000060	-0.288540
N120	N	1.706144	0.499940	0.211460
H121	H	0.843288	-0.000037	-0.447074
H122	H	1.343288	0.499963	0.052926
C123	C	0.824617	-0.000039	-0.274508
C124	C	1.324617	0.499961	0.225492
N125	N	0.762491	-0.000031	-0.230355
N126	N	1.262491	0.499969	0.269645
H127	H	0.560759	-0.131164	0.114931
H128	H	1.060759	0.368836	0.614931
H129	H	1.084675	-0.365753	0.011037
H130	H	1.584675	0.134247	0.511037
C131	C	1.139549	-0.000060	-0.498328
C132	C	1.639549	0.499940	0.001672
N133	N	1.201678	-0.000069	-0.542476
N134	N	1.701678	0.499931	-0.042476
C135	C	1.100826	-0.202438	-0.005119
C136	C	1.600826	0.297562	0.494881
N137	N	1.147679	-0.167875	-0.051951
N138	N	1.647679	0.332125	0.448049
C139	C	1.100877	-0.797682	-0.005097
C140	C	1.600877	-0.297682	0.494903
N141	N	1.147735	-0.832255	-0.051922
N142	N	1.647735	-0.332255	0.448078
H143	H	0.879514	-0.785753	0.216119
H144	H	1.379514	-0.285753	0.716119
H145	H	0.879475	-0.365755	0.216092
H146	H	1.379475	0.134245	0.716092
