data_functionalizedCrystal
_audit_creation_method	'MofGen! by Chris Wilmer'
_symmetry_space_group_name_H-M	'P1'
_symmetry_Int_Tables_number	1
_symmetry_cell_setting	triclinic
loop_
_symmetry_equiv_pos_as_xyz
  x,y,z
_cell_length_a	11.792254
_cell_length_b	11.792241
_cell_length_c	10.868271
_cell_angle_alpha	89.998441
_cell_angle_beta	89.995692
_cell_angle_gamma	84.196007
loop_
_atom_site_label
_atom_site_type_symbol
_atom_site_fract_x
_atom_site_fract_y
_atom_site_fract_z
O1	O	-1.506901	-0.155631	0.102322
O2	O	-1.256901	0.094369	0.352322
O3	O	-1.006901	0.344369	0.602322
O4	O	-0.756901	0.594369	0.852322
O5	O	-1.176561	-0.171649	0.102324
O6	O	-0.926561	0.078351	0.352324
O7	O	-0.676561	0.328351	0.602324
O8	O	-0.426561	0.578351	0.852324
O9	O	-1.349747	0.001530	0.102314
O10	O	-1.099747	0.251530	0.352314
O11	O	-0.849747	0.501530	0.602314
O12	O	-0.599747	0.751530	0.852314
O13	O	-1.333715	-0.328810	0.102332
O14	O	-1.083715	-0.078810	0.352332
O15	O	-0.833715	0.171190	0.602332
O16	O	-0.583715	0.421190	0.852332
O17	O	-1.349732	0.001525	-0.102330
O18	O	-1.099732	0.251525	0.147670
O19	O	-0.849732	0.501525	0.397670
O20	O	-0.599732	0.751525	0.647670
O21	O	-1.176546	-0.171654	-0.102320
O22	O	-0.926546	0.078346	0.147680
O23	O	-0.676546	0.328346	0.397680
O24	O	-0.426546	0.578346	0.647680
O25	O	-1.506885	-0.155636	-0.102323
O26	O	-1.256885	0.094364	0.147677
O27	O	-1.006885	0.344364	0.397677
O28	O	-0.756885	0.594364	0.647677
Zn29	Zn	-1.341713	-0.163646	-0.134813
Zn30	Zn	-1.091713	0.086354	0.115187
Zn31	Zn	-0.841713	0.336354	0.365187
Zn32	Zn	-0.591713	0.586354	0.615187
Zn33	Zn	-1.341733	-0.163639	0.134815
Zn34	Zn	-1.091733	0.086361	0.384815
Zn35	Zn	-0.841733	0.336361	0.634815
Zn36	Zn	-0.591733	0.586361	0.884815
O37	O	-1.333699	-0.328815	-0.102313
O38	O	-1.083699	-0.078815	0.147687
O39	O	-0.833699	0.171185	0.397687
O40	O	-0.583699	0.421185	0.647687
C41	C	-1.134263	-0.170642	0.000002
C42	C	-0.884263	0.079358	0.250002
C43	C	-0.634263	0.329358	0.500002
C44	C	-0.384263	0.579358	0.750002
C45	C	-1.008250	-0.167622	0.000003
C46	C	-0.758250	0.082378	0.250003
C47	C	-0.508250	0.332378	0.500003
C48	C	-0.258250	0.582378	0.750003
C49	C	-1.348732	0.043819	-0.000008
C50	C	-1.098732	0.293819	0.249992
C51	C	-0.848732	0.543819	0.499992
C52	C	-0.598732	0.793819	0.749992
C53	C	-1.345718	0.169832	-0.000006
C54	C	-1.095718	0.419832	0.249994
C55	C	-0.845718	0.669832	0.499994
C56	C	-0.595718	0.919832	0.749994
N57	N	-1.341707	-0.163651	-0.318827
N58	N	-1.091707	0.086349	-0.068827
N59	N	-0.841707	0.336349	0.181173
N60	N	-0.591707	0.586349	0.431173
C61	C	-1.549183	-0.156643	0.000002
C62	C	-1.299183	0.093357	0.250002
C63	C	-1.049183	0.343357	0.500002
C64	C	-0.799183	0.593357	0.750002
C65	C	-1.675196	-0.159663	0.000009
C66	C	-1.425196	0.090337	0.250009
C67	C	-1.175196	0.340337	0.500009
C68	C	-0.925196	0.590337	0.750009
C69	C	-0.905913	-0.165168	0.000008
C70	C	-0.655913	0.084832	0.250008
C71	C	-0.405913	0.334832	0.500008
C72	C	-0.155913	0.584832	0.750008
C73	C	-0.777527	-0.162100	0.000009
C74	C	-0.527527	0.087900	0.250009
C75	C	-0.277527	0.337900	0.500009
C76	C	-0.027527	0.587900	0.750009
C77	C	-1.334714	-0.371104	0.000012
C78	C	-1.084714	-0.121104	0.250012
C79	C	-0.834714	0.128896	0.500012
C80	C	-0.584714	0.378896	0.750012
C81	C	-1.337728	-0.497118	0.000019
C82	C	-1.087728	-0.247118	0.250019
C83	C	-0.837728	0.002882	0.500019
C84	C	-0.587728	0.252882	0.750019
C85	C	-1.340175	0.400545	0.000014
C86	C	-1.090175	0.650545	0.250014
C87	C	-0.840175	0.900545	0.500014
C88	C	-0.590175	1.150545	0.750014
C89	C	-1.343255	0.272160	0.000003
C90	C	-1.093255	0.522160	0.250003
C91	C	-0.843255	0.772160	0.500003
C92	C	-0.593255	1.022160	0.750003
C93	C	-1.341716	-0.163651	-0.430165
C94	C	-1.091716	0.086349	-0.180165
C95	C	-0.841716	0.336349	0.069835
C96	C	-0.591716	0.586349	0.319835
C97	C	-1.341730	-0.163640	-0.569843
C98	C	-1.091730	0.086360	-0.319843
C99	C	-0.841730	0.336360	-0.069843
C100	C	-0.591730	0.586360	0.180157
N101	N	-1.341748	-0.163626	0.318829
N102	N	-1.091748	0.086374	0.568829
N103	N	-0.841748	0.336374	0.818829
N104	N	-0.591748	0.586374	1.068829
