data_functionalizedCrystal
_audit_creation_method	'MofGen! by Chris Wilmer'
_symmetry_space_group_name_H-M	'P1'
_symmetry_Int_Tables_number	1
_symmetry_cell_setting	triclinic
loop_
_symmetry_equiv_pos_as_xyz
  x,y,z
_cell_length_a	23.532407
_cell_length_b	23.532407
_cell_length_c	8.140239
_cell_angle_alpha	89.991844
_cell_angle_beta	90.002624
_cell_angle_gamma	82.848678
loop_
_atom_site_label
_atom_site_type_symbol
_atom_site_fract_x
_atom_site_fract_y
_atom_site_fract_z
O1	O	0.755258	0.069134	-0.136425
O2	O	0.589395	0.079137	-0.136476
O3	O	0.677328	-0.008796	-0.136419
O4	O	0.667325	0.157067	-0.136482
O5	O	0.677323	-0.008797	0.136808
O6	O	0.589390	0.079136	0.136752
O7	O	0.755253	0.069133	0.136802
Zn8	Zn	0.672321	0.074134	0.180158
Zn9	Zn	0.672327	0.074136	-0.179831
O10	O	0.667320	0.157066	0.136745
C11	C	0.568176	0.078882	0.000132
C12	C	0.504959	0.078116	0.000114
C13	C	0.105856	0.125350	0.000170
C14	C	0.046456	0.124638	0.000181
O15	O	0.009711	0.168424	0.000224
N16	N	0.023830	0.072362	0.000198
C17	C	0.060607	0.020794	0.000221
O18	O	0.035908	-0.023737	0.000239
C19	C	0.120006	0.021506	0.000223
C20	C	0.142629	0.073785	0.000189
C21	C	0.128479	0.177625	0.000138
C22	C	0.187876	0.178336	0.000125
C23	C	0.224649	0.126772	0.000144
C24	C	0.202025	0.074496	0.000176
C25	C	0.156783	-0.030062	0.000258
C26	C	0.216185	-0.029345	0.000261
C27	C	0.238808	0.022934	0.000227
C28	C	0.298194	0.023643	0.000181
N29	N	0.320820	0.075920	0.000164
C30	C	0.284048	0.127484	0.000145
C31	C	-0.064135	0.019302	0.000221
C32	C	-0.123533	0.018589	0.000208
C33	C	-0.137680	0.122434	0.000170
C34	C	-0.078281	0.123146	0.000172
C35	C	-0.041509	0.071578	0.000204
C36	C	0.408784	0.128974	0.000116
C37	C	0.468186	0.129680	0.000095
C38	C	0.482329	0.025836	0.000142
C39	C	0.422932	0.025129	0.000153
C40	C	0.386160	0.076702	0.000146
O41	O	0.334974	-0.020119	0.000145
O42	O	0.308755	0.172007	0.000150
C43	C	0.677071	-0.030013	0.000199
C44	C	0.676305	-0.093230	0.000211
C45	C	0.723539	-0.492333	0.000136
C46	C	0.722827	-0.551733	0.000123
O47	O	0.766613	-0.588478	0.000076
N48	N	0.670551	-0.574359	0.000108
C49	C	0.618983	-0.537582	0.000090
O50	O	0.574452	-0.562281	0.000074
C51	C	0.619695	-0.478182	0.000091
C52	C	0.671974	-0.455560	0.000122
C53	C	0.775814	-0.469710	0.000165
C54	C	0.776525	-0.410313	0.000181
C55	C	0.724961	-0.373540	0.000167
C56	C	0.672685	-0.396164	0.000138
C57	C	0.568127	-0.441406	0.000060
C58	C	0.568844	-0.382004	0.000060
C59	C	0.621123	-0.359381	0.000091
C60	C	0.621832	-0.299995	0.000140
N61	N	0.674109	-0.277368	0.000154
C62	C	0.725673	-0.314141	0.000168
C63	C	0.617491	-0.662324	0.000085
C64	C	0.616778	-0.721722	0.000096
C65	C	0.720623	-0.735869	0.000126
C66	C	0.721335	-0.676470	0.000127
C67	C	0.669767	-0.639698	0.000100
C68	C	0.727163	-0.189405	0.000203
C69	C	0.727869	-0.130003	0.000225
C70	C	0.624025	-0.115860	0.000186
C71	C	0.623318	-0.175257	0.000172
C72	C	0.674891	-0.212029	0.000175
O73	O	0.578070	-0.263215	0.000180
O74	O	0.770196	-0.289433	0.000162
C75	C	0.776472	0.069388	0.000191
C76	C	0.839689	0.070154	0.000198
C77	C	0.667577	0.178283	0.000124
C78	C	0.668343	0.241500	0.000101
N79	N	0.672321	0.074133	0.425840
N80	N	0.672332	0.074132	-0.425514
H81	H	-0.141947	-0.023982	0.000210
O82	O	-0.028497	-0.030847	0.000154
C83	C	-0.020746	-0.133921	0.000272
C84	C	-0.061167	-0.077171	0.000309
H85	H	-0.047143	-0.171388	0.000432
H86	H	0.007403	-0.136224	-0.114103
H87	H	0.007432	-0.136160	0.114588
H88	H	-0.089381	-0.074894	-0.113930
H89	H	-0.089277	-0.074891	0.114759
H90	H	0.404512	-0.017441	0.000157
O91	O	0.373094	0.179086	-0.000194
C92	C	0.342861	0.267638	-0.141756
C93	C	0.383303	0.210902	-0.141612
H94	H	0.351110	0.293383	-0.256062
H95	H	0.296506	0.258193	-0.141850
H96	H	0.351055	0.293360	-0.027377
H97	H	0.375161	0.185153	-0.255971
H98	H	0.429644	0.220388	-0.141432
H99	H	0.575496	-0.632386	0.000077
H100	H	0.098544	0.219617	0.000129
H101	H	0.206289	0.220908	0.000097
O102	O	-0.056403	0.173980	0.000223
C103	C	-0.076721	0.276904	0.000079
C104	C	-0.101569	0.219373	0.000055
H105	H	-0.113226	0.313618	-0.000092
H106	H	-0.049287	0.279876	0.114454
H107	H	-0.049246	0.279805	-0.114237
H108	H	-0.129070	0.216432	0.114293
H109	H	-0.128970	0.216425	-0.114395
H110	H	-0.167632	0.164421	0.000163
O111	O	0.134912	-0.080897	0.000379
C112	C	0.155239	-0.183820	0.000374
C113	C	0.180082	-0.126286	0.000268
H114	H	0.191747	-0.220532	0.000249
H115	H	0.127811	-0.186788	0.114757
H116	H	0.127760	-0.186731	-0.113934
H117	H	0.207586	-0.123336	0.114498
H118	H	0.207478	-0.123343	-0.114190
O119	O	0.251963	-0.079403	0.000066
C120	C	0.327206	-0.138887	-0.141519
C121	C	0.286731	-0.082173	-0.141478
H122	H	0.355318	-0.141151	-0.255962
H123	H	0.355413	-0.141159	-0.027257
H124	H	0.300818	-0.176362	-0.141415
H125	H	0.313074	-0.044666	-0.141639
H126	H	0.258522	-0.079951	-0.255730
H127	H	0.574207	-0.740136	0.000098
O128	O	0.518033	-0.024266	-0.000131
C129	C	0.548290	-0.112819	-0.141577
C130	C	0.507830	-0.056095	-0.141505
H131	H	0.540047	-0.138574	-0.255847
H132	H	0.594639	-0.103357	-0.141690
H133	H	0.540111	-0.138538	-0.027162
H134	H	0.515957	-0.030348	-0.255900
H135	H	0.461494	-0.065597	-0.141305
O136	O	0.517326	-0.463343	-0.000273
C137	C	0.428344	-0.469361	-0.141846
C138	C	0.485865	-0.444493	-0.141687
H139	H	0.402886	-0.454121	-0.256149
H140	H	0.436645	-0.518134	-0.141956
H141	H	0.402899	-0.454205	-0.027465
H142	H	0.511340	-0.459606	-0.256049
H143	H	0.477524	-0.395722	-0.141492
O144	O	0.518764	-0.346260	-0.000253
C145	C	0.459317	-0.270954	-0.141767
C146	C	0.516045	-0.311408	-0.141642
H147	H	0.457105	-0.242757	-0.256050
H148	H	0.421810	-0.297301	-0.141896
H149	H	0.457055	-0.242825	-0.027365
H150	H	0.518362	-0.339545	-0.256024
H151	H	0.553524	-0.285026	-0.141427
O152	O	0.778671	-0.108055	-0.000042
C153	C	0.867661	-0.101999	-0.141517
C154	C	0.810146	-0.126879	-0.141433
H155	H	0.893130	-0.117218	-0.255801
H156	H	0.859351	-0.053226	-0.141612
H157	H	0.893100	-0.117168	-0.027116
H158	H	0.784678	-0.111754	-0.255814
H159	H	0.818497	-0.175650	-0.141252
H160	H	0.769159	-0.219337	0.000199
H161	H	0.580748	-0.193677	0.000192
H162	H	0.582043	-0.085909	0.000181
H163	H	0.819097	-0.391900	0.000200
H164	H	0.817806	-0.499645	0.000171
H165	H	0.762610	-0.765821	0.000131
O166	O	0.772083	-0.654429	-0.000076
C167	C	0.833178	-0.595610	-0.141669
C168	C	0.775678	-0.620518	-0.141618
H169	H	0.836108	-0.568197	-0.256111
H170	H	0.836118	-0.568121	-0.027405
H171	H	0.869897	-0.632110	-0.141576
H172	H	0.738926	-0.584054	-0.141769
H173	H	0.772788	-0.648022	-0.255872
H174	H	0.486602	0.172255	0.000067
