data_functionalizedCrystal
_audit_creation_method	'MofGen! by Chris Wilmer'
_symmetry_space_group_name_H-M	'P1'
_symmetry_Int_Tables_number	1
_symmetry_cell_setting	triclinic
loop_
_symmetry_equiv_pos_as_xyz
  x,y,z
_cell_length_a	18.101398
_cell_length_b	21.295416
_cell_length_c	18.101389
_cell_angle_alpha	90.020092
_cell_angle_beta	89.975673
_cell_angle_gamma	89.974402
loop_
_atom_site_label
_atom_site_type_symbol
_atom_site_fract_x
_atom_site_fract_y
_atom_site_fract_z
Zn1	Zn	1.132125	0.250755	-0.418830
Zn2	Zn	1.632125	0.750755	0.081170
Zn3	Zn	1.132023	0.356008	-0.294985
Zn4	Zn	1.632023	0.856008	0.205015
Zn5	Zn	1.008284	0.250748	-0.294991
Zn6	Zn	1.508284	0.750748	0.205009
Zn7	Zn	1.008236	0.355981	-0.418774
Zn8	Zn	1.508236	0.855981	0.081226
O9	O	1.070167	0.303373	-0.356895
O10	O	1.570167	0.803373	0.143105
O11	O	1.235744	0.264731	-0.402423
O12	O	1.735744	0.764731	0.097577
O13	O	1.115585	0.342054	-0.191353
O14	O	1.615585	0.842054	0.308647
O15	O	1.024774	0.162660	-0.311445
O16	O	1.524774	0.662660	0.188555
O17	O	1.235669	0.342060	-0.311434
O18	O	1.735669	0.842060	0.188566
O19	O	1.115760	0.162664	-0.402429
O20	O	1.615760	0.662664	0.097571
O21	O	1.024675	0.264720	-0.191357
O22	O	1.524675	0.764720	0.308643
O23	O	0.904645	0.264694	-0.311390
O24	O	1.404645	0.764694	0.188610
O25	O	1.024693	0.342014	-0.522414
O26	O	1.524693	0.842014	-0.022414
O27	O	0.904610	0.342008	-0.402332
O28	O	1.404610	0.842008	0.097668
O29	O	1.115714	0.264705	-0.522456
O30	O	1.615714	0.764705	-0.022456
O31	O	1.115539	0.444094	-0.311379
O32	O	1.615539	0.944094	0.188621
O33	O	1.024594	0.444074	-0.402326
O34	O	1.524594	0.944074	0.097674
C35	C	0.877756	0.303348	-0.356856
C36	C	1.377756	0.803348	0.143144
C37	C	0.795442	0.303352	-0.356857
C38	C	1.295442	0.803352	0.143143
C39	C	0.496351	0.303391	-0.356920
C40	C	0.996351	0.803391	0.143080
C41	C	0.527674	0.254504	-0.299980
C42	C	1.027674	0.754504	0.200020
C43	C	0.613292	0.254635	-0.299737
C44	C	1.113292	0.754635	0.200263
C45	C	0.644734	0.303371	-0.356889
C46	C	1.144734	0.803371	0.143111
C47	C	0.613617	0.369679	-0.335562
C48	C	1.113617	0.869679	0.164438
C49	C	0.527972	0.369407	-0.335166
C50	C	1.027972	0.869407	0.164834
C51	C	0.527966	0.286547	-0.435320
C52	C	1.027966	0.786547	0.064680
C53	C	0.613616	0.285070	-0.434892
C54	C	1.113616	0.785070	0.065108
C55	C	0.728593	0.303364	-0.356872
C56	C	1.228593	0.803364	0.143128
C57	C	0.412492	0.303403	-0.356934
C58	C	0.912492	0.803403	0.143066
C59	C	1.070070	0.466925	-0.356862
C60	C	1.570070	0.966925	0.143138
C61	C	1.070097	0.536893	-0.356873
C62	C	1.570097	1.036893	0.143127
C63	C	1.117494	0.569749	-0.309567
C64	C	1.617494	1.069749	0.190433
C65	C	1.117529	0.635491	-0.309587
C66	C	1.617529	1.135491	0.190413
C67	C	1.070154	0.668375	-0.356905
C68	C	1.570154	1.168375	0.143095
C69	C	1.022753	0.635511	-0.404220
C70	C	1.522753	1.135511	0.095780
C71	C	1.022725	0.569770	-0.404204
C72	C	1.522725	1.069770	0.095796
N73	N	1.005370	0.771637	-0.362543
N74	N	1.505370	1.271637	0.137457
N75	N	1.005399	0.834089	-0.362554
N76	N	1.505399	1.334089	0.137446
C77	C	1.070237	0.866450	-0.356958
C78	C	1.570237	1.366450	0.143042
N79	N	1.135047	0.834001	-0.351335
N80	N	1.635047	1.334001	0.148665
N81	N	1.135017	0.771543	-0.351321
N82	N	1.635017	1.271543	0.148679
C83	C	1.070179	0.739661	-0.356928
C84	C	1.570179	1.239661	0.143072
C85	C	1.117676	0.970592	-0.309671
C86	C	1.617676	1.470592	0.190329
C87	C	1.117713	1.036335	-0.309696
C88	C	1.617713	1.536335	0.190304
C89	C	1.022930	1.036354	-0.404326
C90	C	1.522930	1.536354	0.095674
C91	C	1.022900	0.970612	-0.404304
C92	C	1.522900	1.470612	0.095696
C93	C	1.070273	0.937734	-0.356973
C94	C	1.570273	1.437734	0.143027
C95	C	1.263329	0.303399	-0.356934
C96	C	1.763329	0.803399	0.143066
C97	C	1.345643	0.303410	-0.356951
C98	C	1.845643	0.803410	0.143049
C99	C	1.070285	1.139183	-0.356957
C100	C	1.570285	1.639183	0.143043
C101	C	1.070337	1.069215	-0.357016
C102	C	1.570337	1.569215	0.142984
C103	C	1.070210	0.303357	-0.550057
C104	C	1.570210	0.803357	-0.050057
C105	C	1.070228	0.303350	-0.632371
C106	C	1.570228	0.803350	-0.132371
C107	C	1.070271	0.303232	-0.931462
C108	C	1.570271	0.803232	-0.431462
C109	C	1.012806	0.351719	-0.900111
C110	C	1.512806	0.851719	-0.400111
C111	C	1.012962	0.351944	-0.814493
C112	C	1.512962	0.851944	-0.314493
C113	C	1.070249	0.303291	-0.783080
C114	C	1.570249	0.803291	-0.283080
C115	C	1.148275	0.321303	-0.814185
C116	C	1.648275	0.821303	-0.314185
C117	C	1.147955	0.321621	-0.899830
C118	C	1.647955	0.821621	-0.399830
C119	C	1.050389	0.236626	-0.899889
C120	C	1.550389	0.736626	-0.399889
C121	C	1.048653	0.237011	-0.814238
C122	C	1.548653	0.737011	-0.314238
C123	C	1.070241	0.303323	-0.699220
C124	C	1.570241	0.803323	-0.199220
C125	C	1.070284	0.303202	-1.015322
C126	C	1.570284	0.803202	-0.515322
C127	C	1.070167	0.303344	-0.164484
C128	C	1.570167	0.803344	0.335516
C129	C	1.070292	0.303173	-0.082171
C130	C	1.570292	0.803173	0.417829
H131	H	0.634332	0.205465	-0.313106
H132	H	1.134332	0.705465	0.186894
H133	H	0.633746	0.265769	-0.241644
H134	H	1.133746	0.765769	0.258356
H135	H	1.156069	0.542982	-0.271029
H136	H	1.656069	1.042982	0.228971
H137	H	0.506125	0.265512	-0.242225
H138	H	1.006125	0.765512	0.257775
H139	H	1.087453	0.198968	-0.792855
H140	H	1.587453	0.698968	-0.292855
N141	N	0.974315	0.536206	-0.452537
N142	N	1.474315	1.036206	0.047463
N143	N	0.979195	0.543510	-0.520879
N144	N	1.479195	1.043510	-0.020879
H145	H	0.945005	0.519805	-0.555016
H146	H	1.445005	1.019805	-0.055016
H147	H	1.026088	0.401314	-0.794008
H148	H	1.526088	0.901314	-0.294008
N149	N	1.165936	0.669056	-0.261246
N150	N	1.665936	1.169056	0.238754
N151	N	1.161044	0.661747	-0.192905
N152	N	1.661044	1.161747	0.307095
H153	H	1.195228	0.685451	-0.158760
H154	H	1.695228	1.185451	0.341240
N155	N	0.974526	1.069926	-0.452660
N156	N	1.474526	1.569926	0.047340
N157	N	0.932204	1.040578	-0.494891
N158	N	1.432204	1.540578	0.005109
H159	H	0.898018	1.064290	-0.529031
H160	H	1.398018	1.564290	-0.029031
H161	H	1.156314	1.063086	-0.271176
H162	H	1.656314	1.563086	0.228824
N163	N	0.974478	0.937056	-0.452630
N164	N	1.474478	1.437056	0.047370
N165	N	0.932184	0.966421	-0.494879
N166	N	1.432184	1.466421	0.005121
H167	H	0.897985	0.942723	-0.529014
H168	H	1.397985	1.442723	-0.029014
N169	N	0.976638	0.219941	-0.788710
N170	N	1.476638	0.719941	-0.288710
N171	N	0.949042	0.168536	-0.807377
N172	N	1.449042	0.668536	-0.307377
H173	H	0.898186	0.156476	-0.789336
H174	H	1.398186	0.656476	-0.289336
H175	H	0.507960	0.383693	-0.277852
H176	H	1.007960	0.883693	0.222148
N177	N	1.029123	0.413274	-0.927110
N178	N	1.529123	0.913274	-0.427110
N179	N	1.090181	0.437984	-0.913208
N180	N	1.590181	0.937984	-0.413208
H181	H	1.101710	0.481457	-0.932277
H182	H	1.601710	0.981457	-0.432277
N183	N	1.166068	0.937013	-0.261322
N184	N	1.666068	1.437013	0.238678
N185	N	1.208390	0.966361	-0.219090
N186	N	1.708390	1.466361	0.280910
H187	H	1.242568	0.942648	-0.184942
H188	H	1.742568	1.442648	0.315058
N189	N	0.974369	0.669108	-0.452555
N190	N	1.474369	1.169108	0.047445
N191	N	0.974399	0.727805	-0.452562
N192	N	1.474399	1.227805	0.047438
H193	H	0.940229	0.751533	-0.486702
H194	H	1.440229	1.251533	0.013298
N195	N	0.940376	0.337800	-0.788114
N196	N	1.440376	0.837800	-0.288114
N197	N	0.889248	0.327694	-0.832958
N198	N	1.389248	0.827694	-0.332958
H199	H	0.837981	0.317708	-0.814332
H200	H	1.337981	0.817708	-0.314332
N201	N	1.102891	0.191311	-0.925339
N202	N	1.602891	0.691311	-0.425339
N203	N	1.110788	0.181848	-0.993038
N204	N	1.610788	0.681848	-0.493038
H205	H	1.147870	0.149848	-1.011017
H206	H	1.647870	0.649848	-0.511017
N207	N	0.501871	0.192630	-0.316565
N208	N	1.001871	0.692630	0.183435
N209	N	0.516545	0.168161	-0.377613
N210	N	1.016545	0.668161	0.122387
H211	H	0.498315	0.124461	-0.389328
H212	H	0.998315	0.624461	0.110672
N213	N	0.501983	0.416652	-0.384919
N214	N	1.001983	0.916652	0.115081
N215	N	0.547100	0.449722	-0.419820
N216	N	1.047100	0.949722	0.080180
H217	H	0.528749	0.483092	-0.454954
H218	H	1.028749	0.983092	0.045046
N219	N	0.940005	0.337715	-0.925933
N220	N	1.440005	0.837715	-0.425933
N221	N	0.929619	0.291839	-0.967748
N222	N	1.429619	0.791839	-0.467748
H223	H	0.878201	0.281948	-0.985992
H224	H	1.378201	0.781948	-0.485992
H225	H	1.192221	0.287839	-0.920571
H226	H	1.692221	0.787839	-0.420571
N227	N	0.639165	0.416593	-0.385964
N228	N	1.139165	0.916593	0.114036
N229	N	0.680692	0.401645	-0.438289
N230	N	1.180692	0.901645	0.061711
H231	H	0.698737	0.434777	-0.473887
H232	H	1.198737	0.934777	0.026113
N233	N	1.169110	0.382697	-0.924905
N234	N	1.669110	0.882697	-0.424905
N235	N	1.230840	0.404579	-0.907782
N236	N	1.730840	0.904579	-0.407782
H237	H	1.245783	0.447714	-0.925489
H238	H	1.745783	0.947714	-0.425489
N239	N	0.640484	0.387907	-0.264438
N240	N	1.140484	0.887907	0.235562
N241	N	0.682540	0.352179	-0.229334
N242	N	1.182540	0.852179	0.270666
H243	H	0.701515	0.365049	-0.179101
H244	H	1.201515	0.865049	0.320899
N245	N	1.203424	0.278389	-0.788662
N246	N	1.703424	0.778389	-0.288662
N247	N	1.185795	0.233946	-0.747162
N248	N	1.685795	0.733946	-0.247162
H249	H	1.224743	0.203637	-0.729135
H250	H	1.724743	0.703637	-0.229135
H251	H	1.165421	0.369476	-0.792741
H252	H	1.665421	0.869476	-0.292741
H253	H	0.507710	0.322155	-0.477745
H254	H	1.007710	0.822155	0.022255
N255	N	0.500894	0.226949	-0.459640
N256	N	1.000894	0.726949	0.040360
N257	N	0.457965	0.196163	-0.419480
N258	N	0.957965	0.696163	0.080520
H259	H	0.438843	0.154070	-0.436649
H260	H	0.938843	0.654070	0.063351
N261	N	0.980258	0.216032	-0.926971
N262	N	1.480258	0.716032	-0.426971
N263	N	0.970189	0.209688	-0.994876
N264	N	1.470189	0.709688	-0.494876
H265	H	0.920657	0.195149	-1.014005
H266	H	1.420657	0.695149	-0.514005
H267	H	0.633960	0.236275	-0.450973
H268	H	1.133960	0.736275	0.049027
N269	N	0.640448	0.326516	-0.490943
N270	N	1.140448	0.826516	0.009057
N271	N	0.708322	0.331044	-0.502501
N272	N	1.208322	0.831044	-0.002501
H273	H	0.727263	0.360334	-0.542076
H274	H	1.227263	0.860334	-0.042076
