data_functionalizedCrystal
_audit_creation_method	'MofGen! by Chris Wilmer'
_symmetry_space_group_name_H-M	'P1'
_symmetry_Int_Tables_number	1
_symmetry_cell_setting	triclinic
loop_
_symmetry_equiv_pos_as_xyz
  x,y,z
_cell_length_a	14.971486
_cell_length_b	9.798715
_cell_length_c	14.971486
_cell_angle_alpha	90.003357
_cell_angle_beta	83.614129
_cell_angle_gamma	89.998730
loop_
_atom_site_label
_atom_site_type_symbol
_atom_site_fract_x
_atom_site_fract_y
_atom_site_fract_z
O1	O	1.186944	0.113335	0.116561
O2	O	0.926544	0.113372	0.130519
O3	O	1.063723	0.113343	-0.006660
O4	O	1.049764	0.113364	0.253740
O5	O	1.063713	-0.113640	-0.006660
O6	O	0.926534	-0.113610	0.130519
O7	O	1.186934	-0.113647	0.116560
Zn8	Zn	1.056732	-0.149667	0.123540
Zn9	Zn	1.056745	0.149392	0.123540
O10	O	1.049754	-0.113618	0.253740
C11	C	0.893214	-0.000114	0.129895
C12	C	0.793917	-0.000100	0.128024
N13	N	1.056729	-0.353767	0.123539
C14	C	0.736692	-0.000096	0.208614
C15	C	0.643392	-0.000116	0.206850
C16	C	0.607320	-0.000132	0.124497
C17	C	0.664552	-0.000140	0.043902
C18	C	0.757850	-0.000130	0.045666
C19	C	0.470090	-0.000160	0.040231
C20	C	0.376786	-0.000168	0.038466
C21	C	0.355632	-0.000146	0.201415
C22	C	0.448930	-0.000135	0.203179
C23	C	0.506156	-0.000142	0.122584
C24	C	1.114329	-0.421556	0.065689
C25	C	1.114343	-0.578719	0.065686
C26	C	1.220263	-0.000158	0.117185
C27	C	1.319561	-0.000163	0.119056
C28	C	1.063094	-0.000148	-0.039985
C29	C	1.061223	-0.000146	-0.139282
N30	N	1.056755	0.353491	0.123534
C31	C	1.141812	-0.000159	-0.196507
C32	C	1.140049	-0.000145	-0.289807
C33	C	1.057696	-0.000128	-0.325879
C34	C	0.977101	-0.000112	-0.268646
C35	C	0.978865	-0.000116	-0.175349
C36	C	0.973430	-0.000106	-0.463109
C37	C	0.971665	-0.000105	-0.556413
C38	C	1.134614	-0.000135	-0.577567
C39	C	1.136378	-0.000140	-0.484269
C40	C	1.055782	-0.000125	-0.427043
C41	C	1.050384	-0.000125	0.287065
C42	C	1.052254	-0.000117	0.386362
H43	H	0.766054	-0.000082	0.275675
H44	H	1.007423	-0.412081	0.173061
F45	F	0.889454	-0.000078	-0.307040
H46	H	0.309033	-0.000147	0.267039
F47	F	1.229465	-0.000190	-0.158125
F48	F	0.992298	-0.570324	0.188279
H49	H	1.205673	-0.000158	-0.336396
F50	F	1.224028	-0.000154	-0.445880
F51	F	0.338397	-0.000219	-0.049183
F52	F	1.178806	-0.654912	0.000952
H53	H	1.200238	-0.000142	-0.624165
H54	H	0.904606	-0.000113	-0.585780
H55	H	0.907800	-0.000091	-0.416517
H56	H	0.635175	-0.000173	-0.023152
F57	F	0.530993	-0.000171	-0.045549
F58	F	0.893090	-0.000098	-0.114445
H59	H	0.804443	-0.000133	-0.019958
F60	F	0.582492	-0.000105	0.292625
H61	H	0.478296	-0.000110	0.270239
H62	H	1.163629	-0.363244	0.016160
