data_functionalizedCrystal
_audit_creation_method	'MofGen! by Chris Wilmer'
_symmetry_space_group_name_H-M	'P1'
_symmetry_Int_Tables_number	1
_symmetry_cell_setting	triclinic
loop_
_symmetry_equiv_pos_as_xyz
  x,y,z
_cell_length_a	18.101395
_cell_length_b	18.101398
_cell_length_c	12.759393
_cell_angle_alpha	89.981912
_cell_angle_beta	89.967630
_cell_angle_gamma	90.029256
loop_
_atom_site_label
_atom_site_type_symbol
_atom_site_fract_x
_atom_site_fract_y
_atom_site_fract_z
Zn1	Zn	-0.294830	1.132148	-0.593926
Zn2	Zn	-0.418690	1.132036	-0.418241
Zn3	Zn	-0.294862	1.008299	-0.418270
Zn4	Zn	-0.418631	1.008258	-0.593887
O5	O	-0.356753	1.070185	-0.506081
O6	O	-0.311272	1.235766	-0.570626
O7	O	-0.402302	1.115592	-0.271224
O8	O	-0.191225	1.024792	-0.441600
O9	O	-0.402271	1.235684	-0.441550
O10	O	-0.191202	1.115784	-0.570654
O11	O	-0.311327	1.024683	-0.271245
O12	O	-0.311269	0.904661	-0.441562
O13	O	-0.402170	1.024722	-0.740913
O14	O	-0.402201	0.904631	-0.570587
O15	O	-0.311215	1.115744	-0.740942
O16	O	-0.522315	1.115552	-0.441512
O17	O	-0.522271	1.024613	-0.570558
C18	C	-0.356733	0.877775	-0.506074
C19	C	-0.356742	0.795461	-0.506096
C20	C	-0.356756	0.644752	-0.506094
C21	C	-0.414056	0.613404	-0.587147
C22	C	-0.414288	0.527786	-0.586907
C23	C	-0.356769	0.496370	-0.506094
C24	C	-0.377604	0.527417	-0.395237
C25	C	-0.378012	0.613062	-0.395706
C26	C	-0.278479	0.613232	-0.534930
C27	C	-0.278908	0.527582	-0.537371
C28	C	-0.356776	0.412510	-0.506087
C29	C	-0.356751	0.728612	-0.506093
C30	C	-0.549164	1.070086	-0.506050
C31	C	-0.631478	1.070112	-0.506072
C32	C	-0.930569	1.070274	-0.506129
C33	C	-0.899247	1.013190	-0.587523
C34	C	-0.813629	1.012919	-0.587268
C35	C	-0.782186	1.070194	-0.506102
C36	C	-0.813344	1.049059	-0.395377
C37	C	-0.898989	1.048691	-0.395864
C38	C	-0.898913	1.148617	-0.534484
C39	C	-0.813262	1.148157	-0.536913
C40	C	-0.698327	1.070149	-0.506079
C41	C	-1.014428	1.070317	-0.506143
C42	C	-0.163591	1.070305	-0.506135
C43	C	-0.081277	1.070356	-0.506158
C44	C	-0.356682	1.070241	-0.780115
C45	C	-0.356652	1.070264	-0.896891
C46	C	-0.356774	1.263347	-0.506089
C47	C	-0.356783	1.345661	-0.506092
C48	C	-0.309284	1.117663	-0.951770
C49	C	-0.309252	1.117676	-1.061494
C50	C	-0.403962	1.022889	-1.061451
C51	C	-0.403990	1.022873	-0.951729
C52	C	-0.221878	1.144213	-1.211475
C53	C	-0.174517	1.191623	-1.266357
C54	C	-0.163165	1.263886	-1.230761
C55	C	-0.199185	1.288753	-1.140284
C56	C	-0.246552	1.241347	-1.085407
C57	C	-0.257890	1.169074	-1.121002
C58	C	-0.491365	0.996344	-0.801747
C59	C	-0.538736	0.948941	-0.746868
C60	C	-0.550095	0.876677	-0.782462
C61	C	-0.514088	0.851812	-0.872942
C62	C	-0.466717	0.899215	-0.927821
C63	C	-0.455356	0.971478	-0.892219
C64	C	-0.356771	1.070173	-0.233114
C65	C	-0.356592	1.070293	-0.116338
H66	H	-0.401209	0.634029	-0.669588
H67	H	-0.401290	0.506795	-0.669092
H68	H	-0.145189	1.171369	-1.340024
H69	H	-0.791959	0.992397	-0.370926
C70	C	-0.257205	1.169781	-0.891452
H71	H	-0.228984	1.198006	-0.939855
H72	H	-0.285543	1.202027	-0.848642
H73	H	-0.224943	1.141458	-0.848659
H74	H	-0.231111	1.085369	-1.240460
C75	C	-0.257668	0.500178	-0.647582
H76	H	-0.210519	0.519248	-0.666058
H77	H	-0.256009	0.447727	-0.647836
H78	H	-0.293372	0.516663	-0.696852
H79	H	-0.920833	0.955474	-0.568977
C80	C	-0.928010	1.174646	-0.641699
H81	H	-0.959739	1.137972	-0.670174
H82	H	-0.954647	1.219449	-0.633190
H83	H	-0.887590	1.182556	-0.687888
C84	C	-0.578345	0.976292	-0.647341
H85	H	-0.564789	1.026116	-0.633991
H86	H	-0.630277	0.973278	-0.657140
H87	H	-0.564391	0.946357	-0.589483
C88	C	-0.526580	0.772321	-0.912099
H89	H	-0.559943	0.747649	-0.866452
H90	H	-0.546693	0.773591	-0.980824
H91	H	-0.480808	0.746678	-0.913160
H92	H	-0.919711	1.088465	-0.333152
H93	H	-0.792979	1.089328	-0.333079
H94	H	-0.482114	1.055186	-0.772752
H95	H	-0.791854	1.192937	-0.481950
H96	H	-0.792894	1.164094	-0.618399
C97	C	-0.926202	1.206056	-0.454331
H98	H	-0.956747	1.182450	-0.403837
H99	H	-0.884973	1.227884	-0.420250
H100	H	-0.953715	1.243256	-0.489437
C101	C	-0.602207	0.824533	-0.722102
H102	H	-0.603814	0.777935	-0.756266
H103	H	-0.584541	0.818289	-0.652572
H104	H	-0.650419	0.845203	-0.720251
C105	C	-0.252764	0.642443	-0.642294
H106	H	-0.205425	0.622761	-0.658201
H107	H	-0.287005	0.627763	-0.694704
H108	H	-0.249990	0.694832	-0.640207
H109	H	-0.435221	0.633003	-0.371334
C110	C	-0.491970	0.642422	-0.561616
H111	H	-0.489731	0.673556	-0.501773
H112	H	-0.510339	0.669676	-0.619644
H113	H	-0.523905	0.601930	-0.547656
H114	H	-0.189944	1.347600	-1.111315
C115	C	-0.492645	0.500056	-0.561051
H116	H	-0.524458	0.541134	-0.550643
H117	H	-0.510580	0.470917	-0.617482
H118	H	-0.491241	0.471017	-0.499052
H119	H	-0.337149	0.507068	-0.333188
H120	H	-0.124601	1.302487	-1.275454
H121	H	-0.442505	0.984306	-1.106113
C122	C	-0.286168	1.268691	-0.985889
H123	H	-0.272623	1.318520	-0.972544
H124	H	-0.338100	1.265665	-0.995684
H125	H	-0.272205	1.238763	-0.928028
C126	C	-0.427105	0.871863	-1.027345
H127	H	-0.440649	0.822034	-1.040683
H128	H	-0.441052	0.901793	-1.085204
H129	H	-0.375170	0.874877	-1.017535
H130	H	-0.233962	0.506199	-0.482687
H131	H	-0.792560	1.026142	-0.669369
C132	C	-0.324055	0.641080	-0.311315
H133	H	-0.301988	0.600117	-0.276890
H134	H	-0.286710	0.670263	-0.343359
H135	H	-0.350185	0.670134	-0.261620
H136	H	-0.235791	0.633507	-0.475901
C137	C	-0.454046	0.498406	-0.361750
H138	H	-0.473366	0.467381	-0.415169
H139	H	-0.449428	0.471038	-0.298558
H140	H	-0.486512	0.538908	-0.350886
C141	C	-0.926073	0.971328	-0.363426
H142	H	-0.978550	0.970422	-0.363433
H143	H	-0.907955	0.935716	-0.411675
H144	H	-0.908429	0.960124	-0.295142
H145	H	-0.919790	1.026282	-0.669890
H146	H	-0.793205	0.954849	-0.568486
