data_functionalizedCrystal
_audit_creation_method	'MofGen! by Chris Wilmer'
_symmetry_space_group_name_H-M	'P1'
_symmetry_Int_Tables_number	1
_symmetry_cell_setting	triclinic
loop_
_symmetry_equiv_pos_as_xyz
  x,y,z
_cell_length_a	15.995300
_cell_length_b	15.995350
_cell_length_c	12.376457
_cell_angle_alpha	101.278656
_cell_angle_beta	78.707530
_cell_angle_gamma	83.482091
loop_
_atom_site_label
_atom_site_type_symbol
_atom_site_fract_x
_atom_site_fract_y
_atom_site_fract_z
O1	O	1.127076	0.091668	-0.094042
O2	O	0.883294	0.105041	-0.094035
O3	O	1.011849	-0.023534	-0.094038
O4	O	0.998521	0.220243	-0.094039
O5	O	0.979721	0.008566	0.093975
O6	O	0.851166	0.137141	0.093978
O7	O	1.094949	0.123768	0.093971
Zn8	Zn	0.967957	0.135551	0.123826
Zn9	Zn	1.010286	0.093258	-0.123889
O10	O	0.966394	0.252343	0.093974
C11	C	0.836034	0.120545	-0.000027
C12	C	0.743081	0.118911	-0.000025
C13	C	0.572900	0.115890	-0.000033
C14	C	0.525434	0.207438	-0.000031
C15	C	0.428819	0.205695	-0.000461
C16	C	0.405344	0.112917	-0.000041
C17	C	0.464787	0.049202	-0.107193
C18	C	0.561435	0.051504	-0.107280
C19	C	0.525178	0.086654	0.106533
C20	C	0.427994	0.086902	0.107939
C21	C	0.310650	0.111231	-0.000048
C22	C	0.667595	0.117572	-0.000033
C23	C	0.995234	-0.038679	-0.000033
C24	C	0.993584	-0.131631	-0.000040
C25	C	0.987651	-0.469376	-0.000036
C26	C	0.896168	-0.421997	-0.000454
C27	C	0.897748	-0.325235	-0.000031
C28	C	0.990594	-0.301817	-0.000038
C29	C	1.017406	-0.324572	0.107323
C30	C	1.015090	-0.421192	0.107413
C31	C	1.053516	-0.458055	-0.106393
C32	C	1.053737	-0.361351	-0.107812
C33	C	0.992261	-0.207119	-0.000036
C34	C	0.985984	-0.564073	-0.000030
C35	C	1.142208	0.108263	-0.000039
C36	C	1.235163	0.109896	-0.000049
C37	C	0.983008	0.267487	-0.000033
C38	C	0.984661	0.360437	-0.000034
N39	N	0.939074	0.164414	0.292885
N40	N	1.039175	0.064388	-0.292948
C41	C	1.106220	-0.002630	0.647866
C42	C	1.126430	-0.022832	0.529525
C43	C	1.079593	0.023978	0.470359
C44	C	1.012542	0.090993	0.529545
C45	C	0.992334	0.111201	0.647897
C46	C	0.965707	0.137809	0.470391
C47	C	0.898656	0.204824	0.529577
C48	C	0.878452	0.225028	0.647917
C49	C	0.925289	0.178219	0.707083
C50	C	0.985915	0.117601	0.352039
C51	C	0.872029	0.231432	0.352070
C52	C	0.851819	0.251634	0.470411
H53	H	0.414173	0.228039	-0.077721
H54	H	0.387108	0.133605	0.187212
Br55	Br	1.076910	0.026656	0.271730
Br56	Br	0.787467	0.315989	0.728244
Br57	Br	0.440365	0.078397	-0.240609
Br58	Br	1.217424	-0.113773	0.449203
H59	H	0.411496	0.020367	0.114726
H60	H	1.122552	-0.347109	-0.114300
Br61	Br	0.760823	0.342579	0.550745
Br62	Br	1.026794	-0.515423	-0.242023
H63	H	0.556783	0.019333	0.107564
Br64	Br	0.860504	-0.299748	-0.128304
H65	H	0.848839	-0.284201	0.077063
Br66	Br	0.579963	0.246017	-0.127910
Br67	Br	0.616533	-0.061839	-0.114902
H68	H	1.084935	-0.309778	0.111310
Br69	Br	0.942376	-0.254525	0.240499
H70	H	0.872731	-0.453667	-0.077445
Br71	Br	0.442341	-0.065559	-0.113340
H72	H	1.121143	-0.489952	-0.107120
H73	H	1.096051	0.007526	0.374001
H74	H	0.833891	0.269550	0.303898
H75	H	0.387233	0.254495	0.076333
Br76	Br	1.169789	-0.066142	0.728162
H77	H	0.908832	0.194664	0.803446
H78	H	0.968447	-0.425785	0.187672
Br79	Br	0.535047	0.290783	0.127469
H80	H	1.034293	-0.347657	-0.187235
H81	H	0.531796	0.130664	0.187775
Br82	Br	0.813531	-0.433322	0.126767
H83	H	0.593493	0.070511	-0.187682
H84	H	1.081476	-0.452622	0.112279
