data_functionalizedCrystal
_audit_creation_method	'MofGen! by Chris Wilmer'
_symmetry_space_group_name_H-M	'P1'
_symmetry_Int_Tables_number	1
_symmetry_cell_setting	triclinic
loop_
_symmetry_equiv_pos_as_xyz
  x,y,z
_cell_length_a	10.540539
_cell_length_b	15.995350
_cell_length_c	9.616153
_cell_angle_alpha	89.999971
_cell_angle_beta	89.995174
_cell_angle_gamma	84.008933
loop_
_atom_site_label
_atom_site_type_symbol
_atom_site_fract_x
_atom_site_fract_y
_atom_site_fract_z
O1	O	1.684270	0.117994	-0.115573
O2	O	1.314705	0.129112	-0.115589
O3	O	1.509590	0.001726	-0.115579
O4	O	1.489385	0.245380	-0.115583
O5	O	1.509563	0.001729	0.115712
O6	O	1.314678	0.129115	0.115702
O7	O	1.684244	0.117997	0.115719
Zn8	Zn	1.499457	0.123556	0.152433
Zn9	Zn	1.499492	0.123553	-0.152303
O10	O	1.489359	0.245383	0.115709
C11	C	1.267400	0.128280	0.000055
C12	C	1.126486	0.125785	0.000048
C13	C	1.508741	-0.029472	0.000064
C14	C	1.506237	-0.122438	0.000056
C15	C	0.944373	0.030202	0.000589
C16	C	1.090956	0.032730	0.000054
C17	C	1.064213	0.170565	-0.132026
C18	C	0.917712	0.167390	-0.132122
C19	C	0.917167	0.169286	0.130899
C20	C	1.064138	0.170143	0.132630
C21	C	1.497244	-0.460239	0.000060
C22	C	1.358450	-0.413635	-0.000465
C23	C	1.360955	-0.316930	0.000057
C24	C	1.501705	-0.292652	0.000057
C25	C	1.570147	-0.333318	0.132137
C26	C	1.566661	-0.429975	0.132247
C27	C	1.569558	-0.430319	-0.130774
C28	C	1.569525	-0.333374	-0.132520
C29	C	1.504233	-0.197939	0.000060
C30	C	1.494719	-0.554952	0.000067
C31	C	1.731549	0.118829	0.000072
C32	C	1.872462	0.121324	0.000070
C33	C	1.490207	0.276581	0.000063
C34	C	1.492711	0.369547	0.000062
N35	N	1.499442	0.123558	0.360408
N36	N	1.499517	0.123544	-0.360278
C37	C	1.394879	0.191473	0.580772
C38	C	1.395104	0.191727	0.419605
C39	C	1.631892	0.143433	0.418863
C40	C	1.631321	0.143914	0.580081
C41	C	1.472879	0.035546	0.580319
C42	C	1.469825	0.036116	0.419092
H43	H	1.134043	-0.002504	0.094731
C44	C	1.508280	-0.458429	-0.266017
H45	H	1.553345	-0.439740	-0.343697
H46	H	1.421814	-0.434884	-0.270077
H47	H	1.511891	-0.518014	-0.267714
C48	C	1.502026	-0.296899	-0.264523
H49	H	1.432805	-0.257015	-0.238961
H50	H	1.470853	-0.340986	-0.316385
H51	H	1.560780	-0.270172	-0.319649
C52	C	1.708188	-0.311800	-0.143295
H53	H	1.726619	-0.277527	-0.066733
H54	H	1.718949	-0.282392	-0.227593
H55	H	1.764551	-0.362179	-0.142172
C56	C	0.852124	0.260082	0.132118
H57	H	0.879520	0.288748	0.211402
H58	H	0.762200	0.259228	0.135519
H59	H	0.874544	0.288290	0.050179
H60	H	1.085627	0.238902	-0.136941
C61	C	1.417560	0.279178	0.635422
H62	H	1.353933	0.319846	0.599300
H63	H	1.499341	0.292356	0.606570
H64	H	1.413386	0.279444	0.734110
C65	C	1.739658	0.079676	0.632765
H66	H	1.783831	0.053407	0.555634
H67	H	1.704764	0.038321	0.687670
H68	H	1.797234	0.107680	0.687473
C69	C	0.906418	-0.019461	0.128540
H70	H	0.846369	0.014926	0.182789
H71	H	0.980064	-0.035854	0.182919
H72	H	0.869375	-0.068092	0.098845
H73	H	1.133200	-0.002755	-0.094786
C74	C	1.283510	-0.439113	-0.128413
H75	H	1.200014	-0.410299	-0.126788
H76	H	1.278196	-0.498024	-0.126666
H77	H	1.326083	-0.424721	-0.210733
H78	H	1.654793	0.208115	0.617669
C79	C	1.095597	0.261794	0.143408
H80	H	1.147389	0.274264	0.066843
H81	H	1.140084	0.269148	0.227703
H82	H	1.018715	0.298517	0.142294
H83	H	0.886024	0.139172	0.231011
C84	C	1.120053	0.125950	0.264629
H85	H	1.181147	0.080657	0.239063
H86	H	1.053504	0.104987	0.316504
H87	H	1.160039	0.164945	0.319746
C88	C	1.122327	0.128546	-0.264817
H89	H	1.084029	0.156092	-0.344189
H90	H	1.107214	0.071033	-0.266004
H91	H	1.211596	0.132602	-0.266189
C92	C	1.566075	-0.035458	0.364669
H93	H	1.545879	-0.087502	0.401769
H94	H	1.649734	-0.025771	0.392612
H95	H	1.561978	-0.037265	0.266039
H96	H	1.412105	0.257014	0.381025
C97	C	1.739589	0.078430	0.367053
H98	H	1.704649	0.038499	0.309167
H99	H	1.780869	0.050487	0.444442
H100	H	1.799681	0.106205	0.315555
H101	H	1.378403	0.016630	0.621052
C102	C	1.283826	-0.440537	0.126775
H103	H	1.336888	-0.480045	0.180219
H104	H	1.210760	-0.465519	0.096408
H105	H	1.257813	-0.392639	0.182215
C106	C	0.904259	-0.019258	-0.126641
H107	H	0.843881	0.015384	-0.180079
H108	H	0.867048	-0.067677	-0.096264
H109	H	0.977105	-0.035981	-0.182092
H110	H	1.655917	0.206909	0.378473
C111	C	1.288279	-0.278962	-0.127843
H112	H	1.289723	-0.219674	-0.127699
H113	H	1.202431	-0.291966	-0.124584
H114	H	1.327868	-0.301817	-0.210163
H115	H	1.306770	-0.289388	0.094893
C116	C	1.499194	-0.455104	0.265609
H117	H	1.474165	-0.406260	0.319206
H118	H	1.555896	-0.492735	0.318420
H119	H	1.425873	-0.481805	0.241471
C120	C	1.338204	0.015762	0.367491
H121	H	1.301448	0.060359	0.310413
H122	H	1.284218	0.009268	0.444998
H123	H	1.347752	-0.034895	0.315197
H124	H	1.549186	-0.015013	0.618439
H125	H	0.868824	0.234313	-0.138118
C126	C	1.704310	-0.472721	0.140370
H127	H	1.762110	-0.430991	0.143600
H128	H	1.721830	-0.507135	0.060731
H129	H	1.713911	-0.506395	0.221823
H130	H	1.673552	-0.318574	0.137049
C131	C	1.505892	-0.295375	0.264919
H132	H	1.437366	-0.254762	0.240148
H133	H	1.566507	-0.269274	0.318362
H134	H	1.474132	-0.338689	0.318153
H135	H	0.889968	0.134291	-0.230848
H136	H	1.671890	-0.461468	-0.131661
H137	H	1.296116	0.179697	0.619579
C138	C	1.262100	0.175588	0.366210
H139	H	1.207442	0.168820	0.443050
H140	H	1.269061	0.126018	0.311137
H141	H	1.227727	0.221986	0.311523
