data_functionalizedCrystal
_audit_creation_method	'MofGen! by Chris Wilmer'
_symmetry_space_group_name_H-M	'P1'
_symmetry_Int_Tables_number	1
_symmetry_cell_setting	triclinic
loop_
_symmetry_equiv_pos_as_xyz
  x,y,z
_cell_length_a	16.625547
_cell_length_b	16.625546
_cell_length_c	16.625539
_cell_angle_alpha	90.030397
_cell_angle_beta	90.024822
_cell_angle_gamma	90.022405
loop_
_atom_site_label
_atom_site_type_symbol
_atom_site_fract_x
_atom_site_fract_y
_atom_site_fract_z
Zn1	Zn	1.232681	-0.321001	0.455989
Zn2	Zn	1.232584	-0.455845	0.321151
Zn3	Zn	1.097842	-0.321030	0.321160
Zn4	Zn	1.097813	-0.455796	0.455931
O5	O	1.165230	-0.388418	0.388558
O6	O	1.345500	-0.338897	0.438123
O7	O	1.214682	-0.437993	0.208320
O8	O	1.115782	-0.208193	0.339073
O9	O	1.345429	-0.437966	0.339059
O10	O	1.214847	-0.208173	0.438131
O11	O	1.115688	-0.338945	0.208326
O12	O	0.985006	-0.338898	0.339017
O13	O	1.115731	-0.437883	0.568771
O14	O	0.984984	-0.437910	0.438033
O15	O	1.214818	-0.338850	0.568814
O16	O	1.214653	-0.568671	0.339003
O17	O	1.115638	-0.568635	0.438025
C18	C	0.955739	-0.388402	0.388520
C19	C	0.866118	-0.388415	0.388523
C20	C	1.165154	-0.597909	0.388524
C21	C	1.165195	-0.687530	0.388537
C22	C	0.793335	-0.388416	0.388533
C23	C	0.702027	-0.388421	0.388553
C24	C	0.629251	-0.388428	0.388573
C25	C	0.537936	-0.388434	0.388593
C26	C	1.165335	-1.015705	0.388621
C27	C	1.165294	-0.924397	0.388599
C28	C	1.165264	-0.851620	0.388578
C29	C	1.165224	-0.760306	0.388558
C30	C	1.375539	-0.388434	0.388597
C31	C	1.465160	-0.388441	0.388613
C32	C	1.165282	-0.388358	0.598867
C33	C	1.165305	-0.388332	0.688488
C34	C	1.165328	-0.178109	0.388609
C35	C	1.165370	-0.088488	0.388631
C36	C	1.165224	-0.388419	0.179067
C37	C	1.165358	-0.388218	0.089446
C38	C	1.165342	-0.388242	1.016664
C39	C	1.165329	-0.388270	0.925355
C40	C	1.165324	-0.388288	0.852579
C41	C	1.165310	-0.388314	0.761265
