data_functionalizedCrystal
_audit_creation_method	'MofGen! by Chris Wilmer'
_symmetry_space_group_name_H-M	'P1'
_symmetry_Int_Tables_number	1
_symmetry_cell_setting	triclinic
loop_
_symmetry_equiv_pos_as_xyz
  x,y,z
_cell_length_a	12.827893
_cell_length_b	18.101395
_cell_length_c	12.827885
_cell_angle_alpha	89.967625
_cell_angle_beta	89.980538
_cell_angle_gamma	90.031075
loop_
_atom_site_label
_atom_site_type_symbol
_atom_site_fract_x
_atom_site_fract_y
_atom_site_fract_z
Zn1	Zn	1.597557	-0.294794	-0.590830
Zn2	Zn	2.097557	0.205206	-0.090830
Zn3	Zn	1.597403	-0.418654	-0.416082
Zn4	Zn	2.097403	0.081346	0.083918
Zn5	Zn	1.422798	-0.294830	-0.416103
Zn6	Zn	1.922798	0.205170	0.083897
Zn7	Zn	1.422736	-0.418598	-0.590782
Zn8	Zn	1.922736	0.081402	-0.090782
O9	O	1.510124	-0.356719	-0.503449
O10	O	2.010124	0.143281	-0.003449
O11	O	1.743773	-0.311233	-0.567660
O12	O	2.243773	0.188767	-0.067660
O13	O	1.574203	-0.402266	-0.269849
O14	O	2.074203	0.097734	0.230151
O15	O	1.446071	-0.191193	-0.439310
O16	O	1.946071	0.308807	0.060690
O17	O	1.743660	-0.402231	-0.439274
O18	O	2.243660	0.097769	0.060726
O19	O	1.574466	-0.191166	-0.567681
O20	O	2.074466	0.308834	-0.067681
O21	O	1.445921	-0.311294	-0.269865
O22	O	1.945921	0.188706	0.230135
O23	O	1.276554	-0.311241	-0.439264
O24	O	1.776554	0.188759	0.060736
O25	O	1.445965	-0.402137	-0.737025
O26	O	1.945965	0.097863	-0.237025
O27	O	1.276508	-0.402172	-0.567600
O28	O	1.776508	0.097828	-0.067600
O29	O	1.574406	-0.311179	-0.737060
O30	O	2.074406	0.188821	-0.237060
O31	O	1.574143	-0.522279	-0.439228
O32	O	2.074143	-0.022279	0.060772
O33	O	1.445816	-0.522239	-0.567579
O34	O	1.945816	-0.022239	-0.067579
C35	C	1.238614	-0.356705	-0.503430
C36	C	1.738614	0.143295	-0.003430
C37	C	1.122461	-0.356717	-0.503446
C38	C	1.622461	0.143283	-0.003446
C39	C	1.070681	-0.401783	-0.566852
C40	C	1.570681	0.098217	-0.066852
C41	C	0.950631	-0.401796	-0.566871
C42	C	1.450631	0.098204	-0.066871
C43	C	1.509984	-0.549130	-0.503419
C44	C	2.009984	-0.049130	-0.003419
C45	C	1.510020	-0.631444	-0.503440
C46	C	2.010020	-0.131444	-0.003440
C47	C	1.510249	-0.930535	-0.503497
C48	C	2.010249	-0.430535	-0.003497
C49	C	1.429696	-0.899215	-0.584452
C50	C	1.929696	-0.399215	-0.084452
C51	C	1.429314	-0.813597	-0.584199
C52	C	1.929314	-0.313597	-0.084199
C53	C	1.510135	-0.782152	-0.503470
C54	C	2.010135	-0.282152	-0.003470
C55	C	1.480315	-0.813311	-0.393335
C56	C	1.980315	-0.313311	0.106665
C57	C	1.479796	-0.898956	-0.393820
C58	C	1.979796	-0.398956	0.106180
C59	C	1.620798	-0.898877	-0.531706
C60	C	2.120798	-0.398877	-0.031706
C61	C	1.620148	-0.813226	-0.534121
C62	C	2.120148	-0.313226	-0.034121
C63	C	1.510073	-0.698293	-0.503448
C64	C	2.010073	-0.198293	-0.003448
C65	C	1.510309	-1.014394	-0.503511
C66	C	2.010309	-0.514394	-0.003511
C67	C	1.782694	-0.356734	-0.503470
C68	C	2.282694	0.143266	-0.003470
C69	C	1.898847	-0.356740	-0.503479
C70	C	2.398847	0.143260	-0.003479
C71	C	1.510196	-0.356648	-0.776020
C72	C	2.010196	0.143352	-0.276020
C73	C	1.510227	-0.356618	-0.892173
C74	C	2.010227	0.143382	-0.392173
C75	C	1.510293	-0.163557	-0.503503
C76	C	2.010293	0.336443	-0.003503
C77	C	1.510365	-0.081243	-0.503526
C78	C	2.010365	0.418757	-0.003526
C79	C	1.573741	-0.401583	-1.063994
C80	C	2.073741	0.098417	-0.563994
C81	C	1.573711	-0.401615	-0.943944
C82	C	2.073711	0.098385	-0.443944
C83	C	1.510112	-0.356737	-0.231940
C84	C	2.010112	0.143263	0.268060
C85	C	1.510284	-0.356558	-0.115787
C86	C	2.010284	0.143442	0.384213
H87	H	0.943370	-0.318158	-0.449188
H88	H	1.443370	0.181842	0.050812
H89	H	1.455930	-0.318037	-1.071252
H90	H	1.955930	0.181963	-0.571252
H91	H	0.906101	-0.440381	-0.621152
H92	H	1.406101	0.059619	-0.121152
C93	C	1.646930	-0.453797	-1.124154
C94	C	2.146930	0.046203	-0.624154
N95	N	1.701973	-0.493187	-1.169465
N96	N	2.201973	0.006813	-0.669465
C97	C	1.647109	-0.453694	-0.883775
C98	C	2.147109	0.046306	-0.383775
N99	N	1.702393	-0.492921	-0.838453
N100	N	2.202393	0.007079	-0.338453
H101	H	1.455900	-0.318065	-0.936707
H102	H	1.955900	0.181935	-0.436707
C103	C	1.062286	-0.304603	-0.430126
C104	C	1.562286	0.195397	0.069874
N105	N	1.016963	-0.265351	-0.374898
N106	N	1.516963	0.234649	0.125102
H107	H	1.447971	-0.792528	-0.665863
H108	H	1.947971	-0.292528	-0.165863
C109	C	1.454643	-0.926973	-0.695136
C110	C	1.954643	-0.426973	-0.195136
N111	N	1.473432	-0.947887	-0.778504
N112	N	1.973432	-0.447887	-0.278504
C113	C	1.319666	-0.928368	-0.559520
C114	C	1.819666	-0.428368	-0.059520
N115	N	1.236790	-0.950325	-0.540734
N116	N	1.736790	-0.450325	-0.040734
H117	H	1.398985	-0.919000	-0.369923
H118	H	1.898985	-0.419000	0.130077
C119	C	1.130856	-0.453897	-0.640171
C120	C	1.630856	0.046103	-0.140171
N121	N	1.176178	-0.493153	-0.695395
N122	N	1.676178	0.006847	-0.195395
H123	H	1.347372	-0.793175	-0.565514
H124	H	1.847372	-0.293175	-0.065514
H125	H	1.535922	-0.919677	-0.331445
H126	H	2.035922	-0.419677	0.168555
H127	H	1.537140	-0.792944	-0.331373
H128	H	2.037140	-0.292944	0.168627
H129	H	1.683339	-0.791817	-0.479455
H130	H	2.183339	-0.291817	0.020545
C131	C	1.372294	-0.784431	-0.360476
C132	C	1.872294	-0.284431	0.139524
N133	N	1.290929	-0.762681	-0.335733
N134	N	1.790929	-0.262681	0.164267
C135	C	1.657522	-0.927975	-0.638356
C136	C	2.157522	-0.427975	-0.138356
N137	N	1.685171	-0.949892	-0.718690
N138	N	2.185171	-0.449892	-0.218690
H139	H	1.680813	-0.919130	-0.472743
H140	H	2.180813	-0.419130	0.027257
C141	C	1.650554	-0.785678	-0.643598
C142	C	2.150554	-0.285678	-0.143598
N143	N	1.673461	-0.764915	-0.726050
N144	N	2.173461	-0.264915	-0.226050
