data_functionalizedCrystal
_audit_creation_method	'MofGen! by Chris Wilmer'
_symmetry_space_group_name_H-M	'P1'
_symmetry_Int_Tables_number	1
_symmetry_cell_setting	triclinic
loop_
_symmetry_equiv_pos_as_xyz
  x,y,z
_cell_length_a	14.044191
_cell_length_b	14.044220
_cell_length_c	7.681215
_cell_angle_alpha	95.919068
_cell_angle_beta	95.917136
_cell_angle_gamma	93.190327
loop_
_atom_site_label
_atom_site_type_symbol
_atom_site_fract_x
_atom_site_fract_y
_atom_site_fract_z
O1	O	1.285908	0.238933	0.146358
O2	O	1.009237	0.230622	0.146380
O3	O	1.143418	0.096440	0.146352
O4	O	1.151726	0.373114	0.146386
O5	O	1.125925	0.078959	-0.146519
O6	O	0.991744	0.213141	-0.146491
O7	O	1.268415	0.221452	-0.146513
Zn8	Zn	1.127302	0.214521	-0.193001
Zn9	Zn	1.150350	0.237553	0.192868
O10	O	1.134233	0.355633	-0.146485
C11	C	0.964868	0.218245	-0.000053
C12	C	0.858726	0.207398	-0.000045
C13	C	0.613267	0.264498	-0.000055
C14	C	0.664392	0.187581	-0.000062
C15	C	0.772529	0.198610	-0.000052
C16	C	0.505119	0.253470	-0.000065
C17	C	1.131036	0.052078	-0.000084
C18	C	1.120191	-0.054065	-0.000085
C19	C	1.100367	-0.248402	-0.000058
C20	C	1.177281	-0.299530	-0.000059
C21	C	1.166251	-0.407665	-0.000044
C22	C	1.111396	-0.140256	-0.000073
C23	C	1.312783	0.233829	-0.000076
C24	C	1.418927	0.244677	-0.000072
C25	C	1.146616	0.399996	-0.000045
C26	C	1.157461	0.506140	-0.000032
N27	N	1.111579	0.198802	-0.456347
N28	N	1.166079	0.253265	0.456214
H29	H	0.626955	0.113455	0.000053
O30	O	1.037914	0.125171	-0.555990
H31	H	1.039972	0.127226	-0.699626
O32	O	1.239741	0.326907	-0.444135
H33	H	1.237673	0.324866	-0.300499
O34	O	0.662854	0.362695	-0.000021
H35	H	0.741240	0.356056	0.000002
H36	H	1.251422	-0.262082	0.000053
O37	O	1.002169	-0.297986	-0.000078
H38	H	1.008806	-0.376371	-0.000093
