data_functionalizedCrystal
_audit_creation_method	'MofGen! by Chris Wilmer'
_symmetry_space_group_name_H-M	'P1'
_symmetry_Int_Tables_number	1
_symmetry_cell_setting	triclinic
loop_
_symmetry_equiv_pos_as_xyz
  x,y,z
_cell_length_a	9.065215
_cell_length_b	8.559648
_cell_length_c	7.540329
_cell_angle_alpha	89.991811
_cell_angle_beta	89.997574
_cell_angle_gamma	102.603319
loop_
_atom_site_label
_atom_site_type_symbol
_atom_site_fract_x
_atom_site_fract_y
_atom_site_fract_z
O1	O	1.931011	-0.233881	-0.147406
O2	O	1.499315	-0.253072	-0.147410
O3	O	1.753196	-0.011424	-0.147452
O4	O	1.677130	-0.475528	-0.147365
O5	O	1.753183	-0.011421	0.147514
O6	O	1.499301	-0.253068	0.147555
O7	O	1.930998	-0.233878	0.147559
Cu8	Cu	1.715149	-0.243473	0.174489
Cu9	Cu	1.715164	-0.243477	-0.174341
O10	O	1.677117	-0.475525	0.147600
C11	C	1.444553	-0.251227	0.000071
C12	C	1.281402	-0.245715	0.000067
C13	C	1.758954	0.048024	0.000016
C14	C	1.776112	0.225156	-0.000028
C15	C	1.985760	-0.235723	0.000074
C16	C	2.148910	-0.241234	0.000066
C17	C	1.671359	0.465027	0.000079
C18	C	1.654200	0.287895	-0.000036
N19	N	1.715149	-0.243469	0.419838
N20	N	1.715177	-0.243468	-0.419689
H21	H	1.893621	0.306962	-0.000028
O22	O	1.513906	0.190552	0.000049
C23	C	1.245100	0.173882	-0.000070
C24	C	1.403895	0.284319	-0.000122
H25	H	1.156113	0.249648	-0.000246
H26	H	1.230718	0.095136	0.123409
H27	H	1.230917	0.095086	-0.123476
H28	H	1.418187	0.363215	0.123199
H29	H	1.418204	0.362957	-0.123683
