data_functionalizedCrystal
_audit_creation_method	'MofGen! by Chris Wilmer'
_symmetry_space_group_name_H-M	'P1'
_symmetry_Int_Tables_number	1
_symmetry_cell_setting	triclinic
loop_
_symmetry_equiv_pos_as_xyz
  x,y,z
_cell_length_a	19.121321
_cell_length_b	19.121063
_cell_length_c	12.759387
_cell_angle_alpha	87.596398
_cell_angle_beta	87.581907
_cell_angle_gamma	89.929715
loop_
_atom_site_label
_atom_site_type_symbol
_atom_site_fract_x
_atom_site_fract_y
_atom_site_fract_z
Zn1	Zn	1.059833	-0.324721	0.547052
Zn2	Zn	1.393166	0.008613	0.880385
Zn3	Zn	1.726499	0.341946	1.213719
Zn4	Zn	1.054732	-0.441971	0.379158
Zn5	Zn	1.388065	-0.108638	0.712492
Zn6	Zn	1.721398	0.224696	1.045825
Zn7	Zn	0.942592	-0.319762	0.378553
Zn8	Zn	1.275926	0.013571	0.711886
Zn9	Zn	1.609259	0.346905	1.045220
Zn10	Zn	0.937563	-0.436927	0.561952
Zn11	Zn	1.270896	-0.103594	0.895285
Zn12	Zn	1.604230	0.229740	1.228618
O13	O	0.998680	-0.380845	0.466679
O14	O	1.332013	-0.047512	0.800012
O15	O	1.665347	0.285822	1.133345
O16	O	1.157257	-0.344461	0.518798
O17	O	1.490590	-0.011127	0.852132
O18	O	1.823924	0.322206	1.185465
O19	O	1.039826	-0.425795	0.232061
O20	O	1.373160	-0.092462	0.565394
O21	O	1.706493	0.240871	0.898728
O22	O	0.962384	-0.222316	0.394416
O23	O	1.295717	0.111017	0.727749
O24	O	1.629051	0.444351	1.061082
O25	O	1.153509	-0.430604	0.395448
O26	O	1.486843	-0.097270	0.728781
O27	O	1.820176	0.236063	1.062114
O28	O	1.048520	-0.225959	0.518211
O29	O	1.381853	0.107374	0.851545
O30	O	1.715187	0.440707	1.184878
O31	O	0.957438	-0.336009	0.231616
O32	O	1.290771	-0.002676	0.564950
O33	O	1.624105	0.330658	0.898283
O34	O	0.843824	-0.331118	0.408863
O35	O	1.177158	0.002216	0.742197
O36	O	1.510491	0.335549	1.075530
O37	O	0.953812	-0.422007	0.706992
O38	O	1.287146	-0.088674	1.040326
O39	O	1.620479	0.244660	1.373659
O40	O	0.840129	-0.417198	0.543606
O41	O	1.173462	-0.083865	0.876939
O42	O	1.506796	0.249468	1.210272
O43	O	1.043643	-0.339569	0.696046
O44	O	1.376977	-0.006236	1.029379
O45	O	1.710310	0.327097	1.362712
O46	O	1.034949	-0.539405	0.409895
O47	O	1.368283	-0.206072	0.743229
O48	O	1.701616	0.127261	1.076562
O49	O	0.948866	-0.535700	0.544193
O50	O	1.282199	-0.202366	0.877526
O51	O	1.615533	0.130967	1.210859
C52	C	0.816540	-0.373073	0.477786
C53	C	1.149873	-0.039740	0.811120
C54	C	1.483207	0.293593	1.144453
C55	C	0.738619	-0.369765	0.482564
C56	C	1.071953	-0.036432	0.815898
C57	C	1.405286	0.296901	1.149231
C58	C	0.298014	-0.348754	0.512859
C59	C	0.631348	-0.015421	0.846193
C60	C	0.964681	0.317913	1.179526
C61	C	0.371229	-0.351875	0.508365
C62	C	0.704562	-0.018542	0.841698
C63	C	1.037895	0.314791	1.175032
C64	C	0.405879	-0.398212	0.441782
C65	C	0.739212	-0.064879	0.775115
C66	C	1.072546	0.268454	1.108449
C67	C	0.367310	-0.441436	0.379697
C68	C	0.700644	-0.108103	0.713031
C69	C	1.033977	0.225231	1.046364
C70	C	0.294097	-0.438318	0.384198
C71	C	0.627431	-0.104984	0.717531
C72	C	0.960764	0.228349	1.050865
C73	C	0.626838	-0.409871	0.424980
C74	C	0.960171	-0.076537	0.758313
C75	C	1.293504	0.256796	1.091647
C76	C	0.700056	-0.412984	0.420482
C77	C	1.033389	-0.079651	0.753815
C78	C	1.366723	0.253683	1.087148
C79	C	0.703969	-0.323424	0.549152
C80	C	1.037303	0.009909	0.882485
C81	C	1.370636	0.343243	1.215818
C82	C	0.630755	-0.320307	0.553642
C83	C	0.964088	0.013026	0.886975
C84	C	1.297421	0.346360	1.220308
C85	C	0.592192	-0.363533	0.491561
C86	C	0.925526	-0.030200	0.824894
C87	C	1.258859	0.303134	1.158228
C88	C	0.480716	-0.401402	0.437184
C89	C	0.814049	-0.068069	0.770517
C90	C	1.147382	0.265264	1.103851
C91	C	0.517357	-0.360346	0.496165
C92	C	0.850690	-0.027013	0.829498
C93	C	1.184023	0.306320	1.162832
C94	C	0.990828	-0.562991	0.478748
C95	C	1.324161	-0.229657	0.812082
C96	C	1.657494	0.103676	1.145415
C97	C	0.987532	-0.640916	0.483943
C98	C	1.320866	-0.307582	0.817276
C99	C	1.654199	0.025751	1.150610
C100	C	1.030838	-0.679433	0.416515
C101	C	1.364172	-0.346100	0.749849
C102	C	1.697505	-0.012766	1.083182
C103	C	1.027743	-0.752652	0.421407
C104	C	1.361077	-0.419319	0.754740
C105	C	1.694410	-0.085985	1.088074
C106	C	0.981339	-0.787353	0.493721
C107	C	1.314672	-0.454019	0.827055
C108	C	1.648005	-0.120686	1.160388
C109	C	0.938031	-0.748830	0.561156
C110	C	1.271364	-0.415497	0.894489
C111	C	1.604698	-0.082164	1.227823
C112	C	0.941130	-0.675613	0.556269
C113	C	1.274463	-0.342279	0.889602
C114	C	1.607797	-0.008946	1.222936
C115	C	0.969741	-1.008327	0.511977
C116	C	1.303074	-0.674994	0.845311
C117	C	1.636408	-0.341660	1.178644
C118	C	0.966644	-1.081550	0.516857
C119	C	1.299977	-0.748217	0.850191
C120	C	1.633310	-0.414883	1.183524
C121	C	1.056357	-1.085367	0.377109
C122	C	1.389691	-0.752033	0.710442
C123	C	1.723024	-0.418700	1.043775
C124	C	1.059449	-1.012147	0.372224
C125	C	1.392783	-0.678814	0.705557
C126	C	1.726116	-0.345481	1.038891
C127	C	1.016144	-0.973632	0.439662
C128	C	1.349478	-0.640298	0.772996
C129	C	1.682811	-0.306965	1.106329
C130	C	0.978172	-0.862194	0.498721
C131	C	1.311506	-0.528861	0.832054
C132	C	1.644839	-0.195527	1.165387
C133	C	1.019315	-0.898792	0.434667
C134	C	1.352648	-0.565458	0.768001
C135	C	1.685981	-0.232125	1.101334
C136	C	1.181531	-0.388648	0.455529
C137	C	1.514864	-0.055315	0.788862
C138	C	1.848198	0.278019	1.122195
C139	C	1.259451	-0.391973	0.450777
C140	C	1.592785	-0.058640	0.784110
C141	C	1.926118	0.274694	1.117444
C142	C	0.998736	-0.380779	0.740705
C143	C	1.332069	-0.047445	1.074038
C144	C	1.665403	0.285888	1.407371
C145	C	0.998760	-0.380750	0.857478
C146	C	1.332093	-0.047417	1.190811
C147	C	1.665426	0.285916	1.524145
C148	C	1.006582	-0.197989	0.454584
C149	C	1.339915	0.135344	0.787917
C150	C	1.673249	0.468677	1.121251
C151	C	1.009950	-0.120067	0.449430
C152	C	1.343283	0.213266	0.782763
C153	C	1.676616	0.546600	1.116097
C154	C	0.998667	-0.380862	0.193713
C155	C	1.332000	-0.047529	0.527047
C156	C	1.665333	0.285804	0.860380
C157	C	0.998787	-0.380699	0.076919
C158	C	1.332121	-0.047366	0.410252
C159	C	1.665454	0.285968	0.743586
C160	C	1.092307	-0.294914	0.846099
C161	C	1.425640	0.038419	1.179432
C162	C	1.758973	0.371752	1.512766
C163	C	1.139090	-0.251986	0.895269
C164	C	1.472424	0.081347	1.228602
C165	C	1.805757	0.414680	1.561936
C166	C	1.139108	-0.251962	1.004988
C167	C	1.472442	0.081372	1.338321
C168	C	1.805775	0.414705	1.671655
C169	C	1.092336	-0.294868	1.065540
C170	C	1.425670	0.038465	1.398873
C171	C	1.759003	0.371799	1.732207
C172	C	1.045553	-0.337796	1.016370
C173	C	1.378886	-0.004463	1.349703
C174	C	1.712219	0.328871	1.683037
C175	C	1.045541	-0.337818	0.906648
C176	C	1.378874	-0.004484	1.239981
C177	C	1.712208	0.328849	1.573315
C178	C	0.952004	-0.423627	1.027749
C179	C	1.285337	-0.090294	1.361082
C180	C	1.618670	0.243040	1.694416
C181	C	0.951988	-0.423657	0.918030
C182	C	1.285321	-0.090323	1.251363
C183	C	1.618654	0.243010	1.584697
C184	C	0.905232	-0.466533	1.088301
C185	C	1.238565	-0.133200	1.421634
C186	C	1.571898	0.200133	1.754968
C187	C	0.858450	-0.509466	1.039131
C188	C	1.191784	-0.176133	1.372465
C189	C	1.525117	0.157201	1.705798
C190	C	0.858435	-0.509490	0.929405
C191	C	1.191768	-0.176156	1.262739
C192	C	1.525101	0.157177	1.596072
C193	C	0.905204	-0.466585	0.868860
C194	C	1.238537	-0.133251	1.202193
C195	C	1.571871	0.200082	1.535527
H196	H	0.395528	-0.479167	0.325488
H197	H	0.728862	-0.145834	0.658822
H198	H	1.062195	0.187499	0.992155
H199	H	0.402624	-0.316684	0.558923
H200	H	0.735957	0.016649	0.892256
H201	H	1.069290	0.349982	1.225590
H202	H	1.092303	-0.294937	0.756760
H203	H	1.425636	0.038396	1.090093
H204	H	1.758969	0.371729	1.423426
H205	H	0.595449	-0.445067	0.374426
H206	H	0.928782	-0.111733	0.707760
H207	H	1.262116	0.221600	1.041093
H208	H	0.905247	-0.466507	1.177640
H209	H	1.238580	-0.133174	1.510973
H210	H	1.571914	0.200159	1.844306
H211	H	0.900250	-0.777089	0.620041
H212	H	1.233584	-0.443756	0.953374
H213	H	1.566917	-0.110423	1.286707
H214	H	0.820369	-0.544393	1.088441
H215	H	1.153702	-0.211060	1.421774
H216	H	1.487035	0.122274	1.755107
H217	H	1.177170	-0.217052	0.845956
H218	H	1.510503	0.116281	1.179289
H219	H	1.843836	0.449615	1.512622
H220	H	0.820330	-0.544439	0.889378
H221	H	1.153663	-0.211106	1.222712
H222	H	1.486997	0.122227	1.556045
H223	H	1.068623	-0.651185	0.357625
H224	H	1.401956	-0.317851	0.690958
H225	H	1.735289	0.015482	1.024292
H226	H	1.177199	-0.217001	1.045022
H227	H	1.510533	0.116332	1.378355
H228	H	1.843866	0.449665	1.711688
H229	H	0.905867	-0.644253	0.611177
H230	H	1.239200	-0.310919	0.944510
H231	H	1.572533	0.022414	1.277844
H232	H	0.940388	-0.890455	0.557598
H233	H	1.273721	-0.557122	0.890931
H234	H	1.607055	-0.223789	1.224264
H235	H	0.905199	-0.466603	0.779520
H236	H	1.238532	-0.133269	1.112854
H237	H	1.571865	0.200064	1.446187
H238	H	1.092350	-0.294838	1.154878
H239	H	1.425683	0.038496	1.488212
H240	H	1.759016	0.371829	1.821545
H241	H	0.269808	-0.311017	0.567072
H242	H	0.603141	0.022316	0.900405
H243	H	0.936474	0.355649	1.233739
H244	H	0.262700	-0.473513	0.333646
H245	H	0.596033	-0.140179	0.666979
H246	H	0.929366	0.193154	1.000312
H247	H	0.602548	-0.282577	0.607864
H248	H	0.935881	0.050756	0.941198
H249	H	1.269214	0.384090	1.274531
H250	H	0.735374	-0.288232	0.599695
H251	H	1.068708	0.045101	0.933028
H252	H	1.402041	0.378434	1.266362
H253	H	0.728266	-0.450720	0.366260
H254	H	1.061599	-0.117386	0.699593
H255	H	1.394933	0.215947	1.032927
H256	H	1.091615	-1.116734	0.322206
H257	H	1.424948	-0.783401	0.655539
H258	H	1.758281	-0.450067	0.988873
H259	H	1.063007	-0.784010	0.366499
H260	H	1.396340	-0.450676	0.699833
H261	H	1.729674	-0.117343	1.033166
H262	H	1.057100	-0.870536	0.375792
H263	H	1.390433	-0.537203	0.709126
H264	H	1.723767	-0.203870	1.042459
H265	H	0.489141	-0.322621	0.550380
H266	H	0.822475	0.010712	0.883714
H267	H	1.155808	0.344045	1.217047
H268	H	1.097236	-0.983896	0.313340
H269	H	1.430569	-0.650562	0.646673
H270	H	1.763902	-0.317229	0.980006
H271	H	0.508936	-0.439128	0.382968
H272	H	0.842270	-0.105794	0.716301
H273	H	1.175603	0.227539	1.049635
H274	H	0.928864	-1.109801	0.575762
H275	H	1.262197	-0.776468	0.909096
H276	H	1.595531	-0.443135	1.242429
H277	H	0.934479	-0.976973	0.566887
H278	H	1.267812	-0.643640	0.900220
H279	H	1.601146	-0.310307	1.233553
