data_functionalizedCrystal
_audit_creation_method	'MofGen! by Chris Wilmer'
_symmetry_space_group_name_H-M	'P1'
_symmetry_Int_Tables_number	1
_symmetry_cell_setting	triclinic
loop_
_symmetry_equiv_pos_as_xyz
  x,y,z
_cell_length_a	11.026607
_cell_length_b	11.792241
_cell_length_c	10.065875
_cell_angle_alpha	98.849501
_cell_angle_beta	79.302338
_cell_angle_gamma	96.389716
loop_
_atom_site_label
_atom_site_type_symbol
_atom_site_fract_x
_atom_site_fract_y
_atom_site_fract_z
O1	O	1.630965	0.462836	-0.113504
O2	O	2.130965	0.962836	0.386496
O3	O	1.277303	0.408644	-0.113505
O4	O	1.777303	0.908644	0.386495
O5	O	1.462715	0.272275	-0.113495
O6	O	1.962715	0.772275	0.386505
O7	O	1.445553	0.599205	-0.113514
O8	O	1.945553	1.099205	0.386486
O9	O	1.427360	0.298412	0.113492
O10	O	1.927360	0.798412	0.613492
O11	O	1.241948	0.434781	0.113482
O12	O	1.741948	0.934781	0.613482
O13	O	1.595611	0.488973	0.113483
O14	O	2.095611	0.988973	0.613483
Zn15	Zn	1.413166	0.466027	0.149522
Zn16	Zn	1.913166	0.966027	0.649522
Zn17	Zn	1.459747	0.431590	-0.149543
Zn18	Zn	1.959747	0.931590	0.350457
O19	O	1.410198	0.625342	0.113473
O20	O	1.910198	1.125342	0.613473
C21	C	1.214349	0.411715	-0.000011
C22	C	1.714349	0.911715	0.499989
C23	C	1.079439	0.381912	-0.000011
C24	C	1.579439	0.881912	0.499989
C25	C	1.443960	0.242838	-0.000002
C26	C	1.943960	0.742838	0.499998
C27	C	1.440732	0.116183	-0.000003
C28	C	1.940732	0.616183	0.499997
C29	C	1.006175	0.464202	-0.000017
C30	C	1.506175	0.964202	0.499983
C31	C	0.866738	0.433401	-0.000017
C32	C	1.366738	0.933401	0.499983
C33	C	1.434802	-0.115710	-0.000026
C34	C	1.934802	0.384290	0.499974
C35	C	1.438097	0.013332	-0.000013
C36	C	1.938097	0.513332	0.499987
C37	C	1.658565	0.485901	-0.000014
C38	C	2.158565	0.985901	0.499986
C39	C	1.793477	0.515703	-0.000023
C40	C	2.293477	1.015703	0.499977
C41	C	1.428954	0.654778	-0.000023
C42	C	1.928954	1.154778	0.499977
C43	C	1.432183	0.781432	-0.000031
C44	C	1.932183	1.281432	0.499969
N45	N	1.381384	0.489530	0.353626
N46	N	1.881384	0.989530	0.853626
N47	N	1.491539	0.408079	-0.353647
N48	N	1.991539	0.908079	0.146353
C49	C	1.448682	0.439759	0.421408
C50	C	1.948682	0.939759	0.921408
C51	C	1.424231	0.457858	0.578574
C52	C	1.924231	0.957858	1.078574
H53	H	1.046680	0.557456	-0.000015
H54	H	1.546680	1.057456	0.499985
C55	C	1.525074	0.252325	0.377055
C56	C	2.025074	0.752325	0.877055
C57	C	1.550905	0.364164	0.342650
C58	C	2.050905	0.864164	0.842650
H59	H	1.588183	0.205662	0.328417
H60	H	2.088183	0.705662	0.828417
H61	H	1.522083	0.254552	0.472327
H62	H	2.022083	0.754552	0.972327
H63	H	1.447442	0.220907	0.353730
H64	H	1.947442	0.720907	0.853730
H65	H	1.628533	0.395585	0.365985
H66	H	2.128533	0.895585	0.865985
H67	H	1.553910	0.361941	0.247357
H68	H	2.053910	0.861941	0.747357
H69	H	0.826244	0.340138	-0.000046
H70	H	1.326244	0.840138	0.499954
H71	H	0.833974	0.608964	-0.000019
H72	H	1.333974	1.108964	0.499981
H73	H	1.038938	0.288655	-0.000041
H74	H	1.538938	0.788655	0.499959
H75	H	1.348504	0.513868	0.636891
H76	H	1.848504	1.013868	1.136891
H77	H	1.567257	0.352060	0.588036
H78	H	2.067257	0.852060	1.088036
C79	C	1.274732	0.568443	0.572803
C80	C	1.774732	1.068443	1.072803
C81	C	1.279167	0.565148	0.432346
C82	C	1.779167	1.065148	0.932346
H83	H	1.211630	0.615133	0.621396
H84	H	1.711630	1.115133	1.121396
H85	H	1.257192	0.492584	0.596151
H86	H	1.757192	0.992584	1.096151
H87	H	1.352364	0.599866	0.596121
H88	H	1.852364	1.099866	1.096121
H89	H	1.201537	0.533716	0.409027
H90	H	1.701537	1.033716	0.909027
H91	H	1.296698	0.641022	0.408989
H92	H	1.796698	1.141022	0.908989
