data_functionalizedCrystal
_audit_creation_method	'MofGen! by Chris Wilmer'
_symmetry_space_group_name_H-M	'P1'
_symmetry_Int_Tables_number	1
_symmetry_cell_setting	triclinic
loop_
_symmetry_equiv_pos_as_xyz
  x,y,z
_cell_length_a	14.853567
_cell_length_b	10.268362
_cell_length_c	14.853567
_cell_angle_alpha	89.998511
_cell_angle_beta	96.365070
_cell_angle_gamma	90.001612
loop_
_atom_site_label
_atom_site_type_symbol
_atom_site_fract_x
_atom_site_fract_y
_atom_site_fract_z
O1	O	1.196365	0.108199	-0.117705
O2	O	1.529698	0.441533	0.215628
O3	O	1.863031	0.774866	0.548962
O4	O	0.933905	0.108220	-0.131726
O5	O	1.267239	0.441554	0.201607
O6	O	1.600572	0.774887	0.534940
O7	O	1.072146	0.108213	0.006514
O8	O	1.405479	0.441546	0.339848
O9	O	1.738812	0.774880	0.673181
O10	O	1.058124	0.108206	-0.255945
O11	O	1.391458	0.441540	0.077388
O12	O	1.724791	0.774873	0.410721
O13	O	1.072134	-0.108388	0.006520
O14	O	1.405467	0.224946	0.339853
O15	O	1.738800	0.558279	0.673187
O16	O	0.933893	-0.108380	-0.131721
O17	O	1.267227	0.224953	0.201613
O18	O	1.600560	0.558286	0.534946
O19	O	1.196353	-0.108401	-0.117699
O20	O	1.529686	0.224932	0.215634
O21	O	1.863019	0.558265	0.548967
Cu22	Cu	1.065122	-0.128168	-0.124709
Cu23	Cu	1.398455	0.205165	0.208624
Cu24	Cu	1.731789	0.538498	0.541957
Cu25	Cu	1.065136	0.127987	-0.124716
Cu26	Cu	1.398469	0.461320	0.208617
Cu27	Cu	1.731803	0.794654	0.541951
O28	O	1.058112	-0.108394	-0.255940
O29	O	1.391446	0.224939	0.077394
O30	O	1.724779	0.558272	0.410727
C31	C	0.900311	-0.000077	-0.131088
C32	C	1.233644	0.333256	0.202245
C33	C	1.566977	0.666589	0.535579
C34	C	0.800227	-0.000069	-0.129184
C35	C	1.133560	0.333265	0.204149
C36	C	1.466894	0.666598	0.537482
C37	C	0.387693	-0.000096	-0.039019
C38	C	0.721026	0.333238	0.294315
C39	C	1.054360	0.666571	0.627648
C40	C	0.366412	-0.000099	-0.203251
C41	C	0.699745	0.333235	0.130082
C42	C	1.033079	0.666568	0.463415
C43	C	0.460446	-0.000094	-0.205041
C44	C	0.793779	0.333239	0.128292
C45	C	1.127112	0.666572	0.461625
C46	C	0.518108	-0.000089	-0.123819
C47	C	0.851441	0.333244	0.209514
C48	C	1.184774	0.666578	0.542848
C49	C	0.481736	-0.000088	-0.040806
C50	C	0.815069	0.333246	0.292527
C51	C	1.148402	0.666579	0.625860
C52	C	0.496825	-0.000083	-0.288053
C53	C	0.830158	0.333251	0.045281
C54	C	1.163492	0.666584	0.378614
C55	C	0.590864	-0.000077	-0.289846
C56	C	0.924197	0.333256	0.043487
C57	C	1.257531	0.666590	0.376820
C58	C	0.648528	-0.000081	-0.208623
C59	C	0.981861	0.333253	0.124711
C60	C	1.315194	0.666586	0.458044
C61	C	0.612150	-0.000081	-0.125607
C62	C	0.945484	0.333252	0.207727
C63	C	1.278817	0.666586	0.541060
C64	C	0.669812	-0.000075	-0.044384
C65	C	1.003146	0.333258	0.288949
C66	C	1.336479	0.666591	0.622283
C67	C	0.633437	-0.000085	0.038633
C68	C	0.966770	0.333249	0.371966
C69	C	1.300104	0.666582	0.705300
C70	C	0.539399	-0.000091	0.040417
C71	C	0.872733	0.333242	0.373751
C72	C	1.206066	0.666575	0.707084
C73	C	0.742565	-0.000074	-0.210407
C74	C	1.075898	0.333259	0.122926
C75	C	1.409232	0.666592	0.456260
C76	C	0.763855	-0.000067	-0.046172
C77	C	1.097188	0.333266	0.287162
C78	C	1.430522	0.666599	0.620495
N79	N	1.065118	-0.308334	-0.124704
N80	N	1.398452	0.024999	0.208629
N81	N	1.731785	0.358332	0.541963
C82	C	1.065132	-0.574005	-0.124714
C83	C	1.398465	-0.240671	0.208619
C84	C	1.731798	0.092662	0.541952
C85	C	1.065121	-0.426167	-0.124711
C86	C	1.398455	-0.092834	0.208622
C87	C	1.731788	0.240500	0.541955
C88	C	1.229947	-0.000101	-0.118337
C89	C	1.563281	0.333232	0.214996
C90	C	1.896614	0.666566	0.548329
C91	C	1.330031	-0.000101	-0.120241
C92	C	1.663365	0.333232	0.213092
C93	C	1.996698	0.666566	0.546425
C94	C	1.071504	-0.000083	0.040106
C95	C	1.404838	0.333250	0.373439
C96	C	1.738171	0.666583	0.706772
C97	C	1.069601	-0.000072	0.140189
C98	C	1.402934	0.333261	0.473523
C99	C	1.736267	0.666595	0.806856
N100	N	1.065147	0.308153	-0.124714
N101	N	1.398480	0.641486	0.208619
N102	N	1.731813	0.974820	0.541952
C103	C	1.058754	-0.000095	-0.289531
C104	C	1.392087	0.333238	0.043802
C105	C	1.725420	0.666572	0.377135
C106	C	1.060657	-0.000098	-0.389615
C107	C	1.393991	0.333235	-0.056282
C108	C	1.727324	0.666569	0.277052
C109	C	0.979435	-0.000090	0.552723
C110	C	1.312768	0.333244	0.886057
C111	C	1.646102	0.666577	1.219390
C112	C	1.143668	-0.000103	0.574004
C113	C	1.477001	0.333231	0.907338
C114	C	1.810334	0.666564	1.240671
C115	C	1.145458	-0.000095	0.479971
C116	C	1.478791	0.333238	0.813304
C117	C	1.812124	0.666572	1.146637
C118	C	1.064235	-0.000087	0.422309
C119	C	1.397569	0.333247	0.755642
C120	C	1.730902	0.666580	1.088975
C121	C	0.981223	-0.000086	0.458680
C122	C	1.314556	0.333247	0.792014
C123	C	1.647889	0.666581	1.125347
C124	C	1.228469	-0.000109	0.443591
C125	C	1.561802	0.333224	0.776925
C126	C	1.895136	0.666558	1.110258
C127	C	1.230262	-0.000103	0.349552
C128	C	1.563596	0.333230	0.682886
C129	C	1.896929	0.666564	1.016219
C130	C	1.149039	-0.000085	0.291889
C131	C	1.482372	0.333248	0.625222
C132	C	1.815706	0.666581	0.958555
C133	C	1.066023	-0.000083	0.328266
C134	C	1.399356	0.333250	0.661599
C135	C	1.732690	0.666584	0.994933
C136	C	0.984800	-0.000075	0.270604
C137	C	1.318134	0.333259	0.603937
C138	C	1.651467	0.666592	0.937271
C139	C	0.901783	-0.000063	0.306979
C140	C	1.235117	0.333270	0.640313
C141	C	1.568450	0.666603	0.973646
C142	C	0.899999	-0.000068	0.401017
C143	C	1.233332	0.333265	0.734350
C144	C	1.566666	0.666598	1.067683
C145	C	1.150823	-0.000080	0.197851
C146	C	1.484157	0.333253	0.531185
C147	C	1.817490	0.666586	0.864518
C148	C	0.986588	-0.000071	0.176561
C149	C	1.319921	0.333262	0.509895
C150	C	1.653255	0.666595	0.843228
H151	H	0.358072	-0.000108	0.028572
H152	H	0.691405	0.333225	0.361905
H153	H	1.024738	0.666558	0.695239
H154	H	0.319459	-0.000092	-0.269379
H155	H	0.652792	0.333241	0.063954
H156	H	0.986125	0.666575	0.397288
H157	H	0.772178	-0.000069	-0.277998
H158	H	1.105511	0.333264	0.055335
H159	H	1.438844	0.666598	0.388669
H160	H	0.449870	-0.000074	-0.354180
H161	H	0.783204	0.333260	-0.020846
H162	H	1.116537	0.666593	0.312487
H163	H	0.680397	-0.000071	0.104764
H164	H	1.013731	0.333262	0.438098
H165	H	1.347064	0.666595	0.771431
C166	C	1.317807	-0.000117	0.507014
C167	C	1.651141	0.333216	0.840347
C168	C	1.984474	0.666549	1.173680
H169	H	1.367503	-0.000135	0.471884
H170	H	1.700836	0.333198	0.805217
H171	H	2.034170	0.666532	1.138550
H172	H	1.320527	0.075417	0.544138
H173	H	1.653860	0.408750	0.877471
H174	H	1.987193	0.742084	1.210805
H175	H	1.320515	-0.075659	0.544141
H176	H	1.653849	0.257674	0.877475
H177	H	1.987182	0.591007	1.210808
H178	H	0.920445	-0.000059	0.129618
H179	H	1.253779	0.333275	0.462951
H180	H	1.587112	0.666608	0.796285
C181	C	0.630874	-0.000073	-0.381157
C182	C	0.964207	0.333261	-0.047823
C183	C	1.297541	0.666594	0.285510
H184	H	0.695138	-0.000061	-0.370591
H185	H	1.028471	0.333273	-0.037258
H186	H	1.361804	0.666606	0.296076
H187	H	0.611089	-0.075605	-0.414604
H188	H	0.944422	0.257729	-0.081271
H189	H	1.277755	0.591062	0.252063
H190	H	0.611090	0.075472	-0.414602
H191	H	0.944423	0.408805	-0.081268
H192	H	1.277757	0.742138	0.252065
C193	C	0.827280	-0.000063	0.043173
C194	C	1.160614	0.333271	0.376506
C195	C	1.493947	0.666604	0.709839
H196	H	0.888496	-0.000062	0.030222
H197	H	1.221829	0.333271	0.363555
H198	H	1.555163	0.666604	0.696888
H199	H	0.816237	0.075466	0.077208
H200	H	1.149570	0.408799	0.410541
H201	H	1.482904	0.742132	0.743874
H202	H	0.816245	-0.075611	0.077203
H203	H	1.149578	0.257723	0.410536
H204	H	1.482912	0.591056	0.743869
C205	C	0.812444	-0.000052	0.243546
C206	C	1.145778	0.333281	0.576879
C207	C	1.479111	0.666615	0.910213
H208	H	0.825404	-0.000047	0.182333
H209	H	1.158738	0.333286	0.515667
H210	H	1.492071	0.666620	0.849000
H211	H	0.778400	-0.075578	0.254582
H212	H	1.111734	0.257756	0.587915
H213	H	1.445067	0.591089	0.921249
H214	H	0.778419	0.075499	0.254578
H215	H	1.111752	0.408832	0.587911
H216	H	1.445086	0.742165	0.921245
H217	H	1.209795	-0.000120	0.620958
H218	H	1.543129	0.333214	0.954291
H219	H	1.876462	0.666547	1.287624
H220	H	0.832411	-0.000060	0.430643
H221	H	1.165744	0.333273	0.763976
H222	H	1.499078	0.666606	1.097309
C223	C	0.888123	-0.000082	0.592731
C224	C	1.221457	0.333251	0.926064
C225	C	1.554790	0.666584	1.259398
H226	H	0.898687	-0.000092	0.656995
H227	H	1.232020	0.333241	0.990328
H228	H	1.565353	0.666574	1.323661
H229	H	0.854679	0.075451	0.572944
H230	H	1.188012	0.408784	0.906277
H231	H	1.521346	0.742118	1.239610
H232	H	0.854676	-0.075625	0.572947
H233	H	1.188010	0.257708	0.906280
H234	H	1.521343	0.591041	1.239614
H235	H	0.509774	-0.000130	0.108005
H236	H	0.843107	0.333203	0.441339
H237	H	1.176440	0.666537	0.774672
H238	H	1.297860	-0.000111	0.319944
H239	H	1.631193	0.333223	0.653277
H240	H	1.964526	0.666556	0.986611
C241	C	1.242129	-0.000096	0.157841
C242	C	1.575463	0.333237	0.491174
C243	C	1.908796	0.666570	0.824507
H244	H	1.290246	-0.000100	0.205650
H245	H	1.623579	0.333233	0.538984
H246	H	1.956913	0.666567	0.872317
H247	H	1.246232	-0.075626	0.121595
H248	H	1.579566	0.257707	0.454928
H249	H	1.912899	0.591041	0.788262
H250	H	1.246248	0.075450	0.121604
H251	H	1.579582	0.408784	0.454937
H252	H	1.912915	0.742117	0.788270
