data_functionalizedCrystal
_audit_creation_method	'MofGen! by Chris Wilmer'
_symmetry_space_group_name_H-M	'P1'
_symmetry_Int_Tables_number	1
_symmetry_cell_setting	triclinic
loop_
_symmetry_equiv_pos_as_xyz
  x,y,z
_cell_length_a	12.645330
_cell_length_b	19.077241
_cell_length_c	19.076919
_cell_angle_alpha	89.886096
_cell_angle_beta	87.723750
_cell_angle_gamma	87.690224
loop_
_atom_site_label
_atom_site_type_symbol
_atom_site_fract_x
_atom_site_fract_y
_atom_site_fract_z
Zn1	Zn	-0.384843	-1.058320	0.440586
Zn2	Zn	0.115157	-0.558320	0.940586
Zn3	Zn	-0.554731	-1.062973	0.323089
Zn4	Zn	-0.054731	-0.562973	0.823089
Zn5	Zn	-0.384285	-0.945535	0.318363
Zn6	Zn	0.115715	-0.445535	0.818363
Zn7	Zn	-0.568871	-0.940793	0.435825
Zn8	Zn	-0.068871	-0.440793	0.935825
O9	O	-0.473183	-1.001905	0.379466
O10	O	0.026817	-0.501905	0.879466
O11	O	-0.401696	-1.157270	0.428970
O12	O	0.098304	-0.657270	0.928970
O13	O	-0.525970	-1.051326	0.224131
O14	O	-0.025970	-0.551326	0.724131
O15	O	-0.236010	-0.960534	0.334592
O16	O	0.263990	-0.460534	0.834592
O17	O	-0.526511	-1.160689	0.342645
O18	O	-0.026511	-0.660689	0.842645
O19	O	-0.236421	-1.043396	0.424388
O20	O	0.263579	-0.543396	0.924388
O21	O	-0.400743	-0.965046	0.220659
O22	O	0.099257	-0.465046	0.720659
O23	O	-0.414454	-0.846573	0.329975
O24	O	0.085546	-0.346573	0.829975
O25	O	-0.550611	-0.952451	0.534787
O26	O	-0.050611	-0.452451	1.034787
O27	O	-0.550069	-0.843089	0.416273
O28	O	-0.050069	-0.343089	0.916273
O29	O	-0.415406	-1.038798	0.538285
O30	O	0.084594	-0.538798	1.038285
O31	O	-0.704955	-1.046728	0.338028
O32	O	-0.204955	-0.546728	0.838028
O33	O	-0.715344	-0.956963	0.420855
O34	O	-0.215344	-0.456963	0.920855
C35	C	-0.483736	-0.819334	0.372095
C36	C	0.016264	-0.319334	0.872095
C37	C	-0.488278	-0.741229	0.368959
C38	C	0.011722	-0.241229	0.868959
C39	C	-0.425538	-0.702753	0.412498
C40	C	0.074462	-0.202753	0.912498
C41	C	-0.429800	-0.629365	0.409545
C42	C	0.070200	-0.129365	0.909545
C43	C	-0.496807	-0.594454	0.363055
C44	C	0.003193	-0.094454	0.863055
C45	C	-0.559549	-0.632936	0.319511
C46	C	-0.059549	-0.132936	0.819511
C47	C	-0.555281	-0.706322	0.322461
C48	C	-0.055281	-0.206322	0.822461
C49	C	-0.516523	-0.375163	0.349402
C50	C	-0.016523	0.124837	0.849402
C51	C	-0.520789	-0.301771	0.346457
C52	C	-0.020789	0.198229	0.846457
C53	C	-0.391038	-0.298205	0.436491
C54	C	0.108962	0.201795	0.936491
C55	C	-0.386780	-0.371593	0.439440
C56	C	0.113220	0.128407	0.939440
C57	C	-0.449518	-0.410068	0.395893
C58	C	0.050482	0.089932	0.895893
N59	N	-0.501168	-0.519440	0.360037
N60	N	-0.001168	-0.019440	0.860037
N61	N	-0.445151	-0.485081	0.398908
N62	N	0.054849	0.014919	0.898908
C63	C	-0.748615	-1.001854	0.379454
C64	C	-0.248615	-0.501854	0.879454
C65	C	-0.866443	-1.001896	0.379475
C66	C	-0.366443	-0.501896	0.879475
C67	C	-1.040584	-0.945642	0.431758
C68	C	-0.540584	-0.445642	0.931758
C69	C	-0.918030	-0.945373	0.431571
C70	C	-0.418030	-0.445373	0.931571
C71	C	-0.907532	-0.984830	0.304614
C72	C	-0.407532	-0.484830	0.804614
C73	C	-1.030170	-0.984486	0.304932
C74	C	-0.530170	-0.484486	0.804932
C75	C	-1.030418	-1.075571	0.401465
C76	C	-0.530418	-0.575571	0.901465
C77	C	-0.907940	-1.075050	0.403066
C78	C	-0.407940	-0.575050	0.903066
C79	C	-0.196675	-1.001975	0.379494
C80	C	0.303325	-0.501975	0.879494
C81	C	-0.078844	-1.002005	0.379506
C82	C	0.421156	-0.502005	0.879506
C83	C	-0.484648	-0.994577	0.562745
C84	C	0.015352	-0.494577	1.062745
C85	C	-0.489534	-0.991454	0.640848
C86	C	0.010466	-0.491454	1.140848
C87	C	-0.462582	-0.185189	0.386860
C88	C	0.037418	0.314811	0.886860
C89	C	-0.458049	-0.263295	0.389997
C90	C	0.041951	0.236705	0.889997
C91	C	-0.461683	-1.009246	0.196901
C92	C	0.038317	-0.509246	0.696901
C93	C	-0.456490	-1.012505	0.118804
C94	C	0.043510	-0.512505	0.618804
C95	C	-0.421439	-1.034940	0.679364
C96	C	0.078561	-0.534940	1.179364
C97	C	-0.426026	-1.031997	0.752749
C98	C	0.073974	-0.531997	1.252749
C99	C	-0.498715	-0.985571	0.787618
C100	C	0.001285	-0.485571	1.287618
C101	C	-0.566812	-0.942079	0.749098
C102	C	-0.066812	-0.442079	1.249098
C103	C	-0.562219	-0.945019	0.675713
C104	C	-0.062219	-0.445019	1.175713
C105	C	-0.519995	-0.971954	1.006899
C106	C	-0.019995	-0.471954	1.506899
C107	C	-0.524585	-0.969019	1.080288
C108	C	-0.024585	-0.469019	1.580288
C109	C	-0.383797	-1.058936	1.083935
C110	C	0.116203	-0.558936	1.583935
C111	C	-0.379215	-1.061874	1.010549
C112	C	0.120785	-0.561874	1.510549
C113	C	-0.447309	-1.018381	0.972035
C114	C	0.052691	-0.518381	1.472035
N115	N	-0.503407	-0.982563	0.862630
N116	N	-0.003407	-0.482563	1.362630
N117	N	-0.442610	-1.021385	0.897024
N118	N	0.057390	-0.521385	1.397024
H119	H	-0.606370	-0.737649	0.287006
H120	H	-0.106370	-0.237649	0.787006
H121	H	-0.614103	-0.604506	0.281654
H122	H	-0.114103	-0.104506	0.781654
N123	N	-0.314468	-0.409244	0.489559
N124	N	0.185532	0.090756	0.989559
H125	H	-0.321277	-0.461573	0.484815
H126	H	0.178723	0.038427	0.984815
H127	H	-0.334940	-0.394429	0.539217
H128	H	0.165060	0.105571	1.039217
N129	N	-1.074311	-1.096985	0.472744
N130	N	-0.574311	-0.596985	0.972744
H131	H	-1.014452	-1.103657	0.505935
H132	H	-0.514452	-0.603657	1.005935
H133	H	-1.111863	-1.142419	0.468453
H134	H	-0.611863	-0.642419	0.968453
H135	H	-0.339959	-0.266871	0.471943
H136	H	0.160041	0.233129	0.971943
N137	N	-0.352574	-1.078907	0.794278
N138	N	0.147426	-0.578907	1.294278
H139	H	-0.395673	-1.110242	0.826040
H140	H	0.104327	-0.610242	1.326040
H141	H	-0.307005	-1.049100	0.823530
H142	H	0.192995	-0.549100	1.323530
H143	H	-0.320027	-1.099682	0.982163
H144	H	0.179973	-0.599682	1.482163
H145	H	-0.370976	-0.731172	0.450357
H146	H	0.129024	-0.231172	0.950357
N147	N	-0.584209	-0.416652	0.302448
N148	N	-0.084209	0.083348	0.802448
H149	H	-0.571342	-0.468440	0.311367
H150	H	-0.071342	0.031560	0.811367
H151	H	-0.565208	-0.405823	0.251765
H152	H	-0.065208	0.094177	0.751765
H153	H	-0.362251	-1.072747	0.650979
H154	H	0.137749	-0.572747	1.150979
N155	N	-0.362143	-0.587856	0.456505
N156	N	0.137857	-0.087856	0.956505
H157	H	-0.312937	-0.558550	0.426777
H158	H	0.187063	-0.058550	0.926777
H159	H	-0.319113	-0.621144	0.486403
H160	H	0.180887	-0.121144	0.986403
N161	N	-0.593069	-0.264114	0.296315
N162	N	-0.093069	0.235886	0.796315
H163	H	-0.632166	-0.299623	0.269176
H164	H	-0.132166	0.200377	0.769176
H165	H	-0.549581	-0.234958	0.262626
H166	H	-0.049581	0.265042	0.762626
H167	H	-0.879004	-0.931719	0.286092
H168	H	-0.379004	-0.431719	0.786092
H169	H	-0.890610	-0.955705	0.486986
H170	H	-0.390610	-0.455705	0.986986
N171	N	-1.083192	-0.959156	0.505396
N172	N	-0.583192	-0.459156	1.005396
H173	H	-1.127711	-1.001943	0.505603
H174	H	-0.627711	-0.501943	1.005603
H175	H	-1.128118	-0.917148	0.522412
H176	H	-0.628118	-0.417148	1.022412
H177	H	-0.625993	-0.904276	0.777494
H178	H	-0.125993	-0.404276	1.277494
N179	N	-1.084674	-0.873764	0.412411
N180	N	-0.584674	-0.373764	0.912411
H181	H	-1.129323	-0.877552	0.369947
H182	H	-0.629323	-0.377552	0.869947
H183	H	-1.024366	-0.841887	0.401350
H184	H	-0.524366	-0.341887	0.901350
N185	N	-0.872719	-1.092178	0.476062
N186	N	-0.372719	-0.592178	0.976062
H187	H	-0.830059	-1.052721	0.493781
H188	H	-0.330059	-0.552721	0.993781
H189	H	-0.827640	-1.137114	0.474845
H190	H	-0.327640	-0.637114	0.974845
N191	N	-0.882468	-0.873055	0.411981
N192	N	-0.382468	-0.373055	0.911981
H193	H	-0.913583	-0.837788	0.447269
H194	H	-0.413583	-0.337788	0.947269
H195	H	-0.907385	-0.860408	0.363752
H196	H	-0.407385	-0.360408	0.863752
H197	H	-0.872512	-1.119015	0.368018
H198	H	-0.372512	-0.619015	0.868018
N199	N	-1.063069	-1.036713	0.251391
N200	N	-0.563069	-0.536713	0.751391
H201	H	-0.997915	-1.059854	0.227686
H202	H	-0.497915	-0.559854	0.727686
H203	H	-1.106741	-1.011621	0.215142
H204	H	-0.606741	-0.511621	0.715142
N205	N	-0.635654	-0.898110	0.634168
N206	N	-0.135654	-0.398110	1.134168
H207	H	-0.682399	-0.868252	0.667392
H208	H	-0.182399	-0.368252	1.167392
H209	H	-0.681158	-0.927915	0.604867
H210	H	-0.181158	-0.427915	1.104867
N211	N	-1.062406	-1.131146	0.351104
N212	N	-0.562406	-0.631146	0.851104
H213	H	-1.142168	-1.132911	0.352002
H214	H	-0.642168	-0.632911	0.852002
H215	H	-1.030997	-1.178262	0.365500
H216	H	-0.530997	-0.678262	0.865500
H217	H	-0.873535	-1.024712	0.264488
H218	H	-0.373535	-0.524712	0.764488
N219	N	-1.071014	-0.913373	0.280749
N220	N	-0.571014	-0.413373	0.780749
H221	H	-1.009340	-0.882542	0.269984
H222	H	-0.509340	-0.382542	0.769984
H223	H	-1.118518	-0.891045	0.318980
H224	H	-0.618518	-0.391045	0.818980
H225	H	-0.328358	-1.094345	1.115301
H226	H	0.171642	-0.594345	1.615301
H227	H	-0.583780	-0.931211	1.108677
H228	H	-0.083780	-0.431211	1.608677
H229	H	-0.575457	-0.936549	0.975550
H230	H	-0.075457	-0.436549	1.475550
