data_functionalizedCrystal
_audit_creation_method	'MofGen! by Chris Wilmer'
_symmetry_space_group_name_H-M	'P1'
_symmetry_Int_Tables_number	1
_symmetry_cell_setting	triclinic
loop_
_symmetry_equiv_pos_as_xyz
  x,y,z
_cell_length_a	18.215407
_cell_length_b	18.215405
_cell_length_c	17.077396
_cell_angle_alpha	89.968409
_cell_angle_beta	89.980259
_cell_angle_gamma	90.025333
loop_
_atom_site_label
_atom_site_type_symbol
_atom_site_fract_x
_atom_site_fract_y
_atom_site_fract_z
Zn1	Zn	1.125071	-0.292975	-0.443831
Zn2	Zn	1.625071	0.207025	0.056169
Zn3	Zn	1.124980	-0.416049	-0.312558
Zn4	Zn	1.624980	0.083951	0.187442
Zn5	Zn	1.002004	-0.293002	-0.312578
Zn6	Zn	1.502004	0.206998	0.187422
Zn7	Zn	1.001970	-0.416006	-0.443781
Zn8	Zn	1.501970	0.083994	0.056219
O9	O	1.063506	-0.354508	-0.378187
O10	O	1.563506	0.145492	0.121813
O11	O	1.228043	-0.309309	-0.426430
O12	O	1.728043	0.190691	0.073570
O13	O	1.108643	-0.399756	-0.202713
O14	O	1.608643	0.100244	0.297287
O15	O	1.018382	-0.190014	-0.330019
O16	O	1.518382	0.309986	0.169981
O17	O	1.227976	-0.399730	-0.329984
O18	O	1.727976	0.100270	0.170016
O19	O	1.108799	-0.189995	-0.426449
O20	O	1.608799	0.310005	0.073551
O21	O	1.018293	-0.309353	-0.202728
O22	O	1.518293	0.190647	0.297272
O23	O	0.899015	-0.309311	-0.329970
O24	O	1.399015	0.190689	0.170030
O25	O	1.018323	-0.399656	-0.553634
O26	O	1.518323	0.100344	-0.053634
O27	O	0.898990	-0.399682	-0.426364
O28	O	1.398990	0.100318	0.073636
O29	O	1.108765	-0.309267	-0.553671
O30	O	1.608765	0.190733	-0.053671
O31	O	1.108610	-0.519028	-0.329935
O32	O	1.608610	-0.019028	0.170065
O33	O	1.018235	-0.518996	-0.426344
O34	O	1.518235	-0.018996	0.073656
C35	C	0.872300	-0.354495	-0.378164
C36	C	1.372300	0.145505	0.121836
C37	C	0.790501	-0.354508	-0.378173
C38	C	1.290501	0.145492	0.121827
C39	C	0.602313	-0.401638	-0.428303
C40	C	1.102313	0.098362	0.071697
C41	C	0.525455	-0.401640	-0.428312
C42	C	1.025455	0.098360	0.071688
C43	C	0.525451	-0.307392	-0.328088
C44	C	1.025451	0.192608	0.171912
C45	C	0.602309	-0.307386	-0.328083
C46	C	1.102309	0.192614	0.171917
C47	C	0.640738	-0.354513	-0.378189
C48	C	1.140738	0.145487	0.121811
C49	C	0.487022	-0.354521	-0.378204
C50	C	0.987022	0.145479	0.121796
C51	C	0.403688	-0.354523	-0.378214
C52	C	0.903688	0.145477	0.121786
C53	C	0.724077	-0.354510	-0.378180
C54	C	1.224077	0.145490	0.121820
C55	C	1.063429	-0.545714	-0.378149
C56	C	1.563429	-0.045714	0.121851
C57	C	1.063463	-0.627513	-0.378159
C58	C	1.563463	-0.127513	0.121841
C59	C	1.110631	-0.815699	-0.328051
C60	C	1.610631	-0.315699	0.171949
C61	C	1.110664	-0.892558	-0.328070
C62	C	1.610664	-0.392558	0.171930
C63	C	1.016475	-0.892565	-0.428379
C64	C	1.516475	-0.392565	0.071621
C65	C	1.016447	-0.815707	-0.428363
C66	C	1.516447	-0.315707	0.071637
C67	C	1.063524	-0.777277	-0.378195
C68	C	1.563524	-0.277277	0.121805
C69	C	1.063585	-0.930993	-0.378230
C70	C	1.563585	-0.430993	0.121770
C71	C	1.063620	-1.014326	-0.378251
C72	C	1.563620	-0.514326	0.121749
C73	C	1.063489	-0.693938	-0.378175
C74	C	1.563489	-0.193938	0.121825
C75	C	1.255459	-0.354521	-0.378210
C76	C	1.755459	0.145479	0.121790
C77	C	1.337258	-0.354527	-0.378220
C78	C	1.837258	0.145473	0.121780
C79	C	1.063551	-0.354454	-0.582931
C80	C	1.563551	0.145546	-0.082931
C81	C	1.063570	-0.354431	-0.670181
C82	C	1.563570	0.145569	-0.170181
C83	C	1.063604	-0.162555	-0.378242
C84	C	1.563604	0.337445	0.121758
C85	C	1.063646	-0.080756	-0.378265
C86	C	1.563646	0.419244	0.121735
C87	C	1.110665	-0.307361	-0.711192
C88	C	1.610665	0.192639	-0.211192
C89	C	1.110674	-0.307336	-0.793172
C90	C	1.610674	0.192664	-0.293172
C91	C	1.063591	-0.354386	-0.834141
C92	C	1.563591	0.145614	-0.334141
C93	C	1.016490	-0.401458	-0.793124
C94	C	1.516490	0.098542	-0.293124
C95	C	1.016478	-0.401478	-0.711145
C96	C	1.516478	0.098522	-0.211145
C97	C	1.016520	-0.401414	-0.963994
C98	C	1.516520	0.098586	-0.463994
C99	C	1.016533	-0.401395	-1.045979
C100	C	1.516533	0.098605	-0.545979
C101	C	1.110715	-0.307272	-1.046021
C102	C	1.610715	0.192728	-0.546021
C103	C	1.110703	-0.307292	-0.964042
C104	C	1.610703	0.192708	-0.464042
C105	C	1.063604	-0.354365	-0.923032
C106	C	1.563604	0.145635	-0.423032
C107	C	1.063504	-0.354509	-0.174239
C108	C	1.563504	0.145491	0.325761
C109	C	1.063628	-0.354325	-0.086990
C110	C	1.563628	0.145675	0.413010
H111	H	0.494153	-0.269024	-0.287292
H112	H	0.994153	0.230976	0.212708
Cl113	Cl	1.169890	-0.940857	-0.265032
Cl114	Cl	1.669890	-0.440857	0.234968
H115	H	0.978155	-0.439734	-0.930606
H116	H	1.478155	0.060266	-0.430606
Cl117	Cl	0.957224	-0.767401	-0.491410
Cl118	Cl	1.457224	-0.267401	0.008590
Cl119	Cl	0.650617	-0.248135	-0.265083
Cl120	Cl	1.150617	0.251865	0.234917
Cl121	Cl	0.957294	-0.940883	-0.491441
Cl122	Cl	1.457294	-0.440883	0.008559
Cl123	Cl	0.957297	-0.460604	-0.844628
Cl124	Cl	1.457297	0.039396	-0.344628
H125	H	0.978121	-0.439800	-0.677755
H126	H	1.478121	0.060200	-0.177755
H127	H	0.633600	-0.440010	-0.469104
H128	H	1.133600	0.059990	0.030896
H129	H	1.148965	-0.784411	-0.287203
H130	H	1.648965	-0.284411	0.212797
H131	H	1.149007	-0.269050	-0.677841
H132	H	1.649007	0.230950	-0.177841
Cl133	Cl	1.169914	-0.248192	-0.844725
Cl134	Cl	1.669914	0.251808	-0.344725
H135	H	1.149064	-0.268942	-1.079416
H136	H	1.649064	0.231058	-0.579416
H137	H	0.494173	-0.440012	-0.469121
H138	H	0.994173	0.059988	0.030879
H139	H	1.149046	-0.268984	-0.930688
H140	H	1.649046	0.231016	-0.430688
H141	H	0.978192	-0.439705	-1.079333
H142	H	1.478192	0.060295	-0.579333
