data_functionalizedCrystal
_audit_creation_method	'MofGen! by Chris Wilmer'
_symmetry_space_group_name_H-M	'P1'
_symmetry_Int_Tables_number	1
_symmetry_cell_setting	triclinic
loop_
_symmetry_equiv_pos_as_xyz
  x,y,z
_cell_length_a	12.827892
_cell_length_b	19.805407
_cell_length_c	12.827893
_cell_angle_alpha	90.006715
_cell_angle_beta	90.007263
_cell_angle_gamma	90.015392
loop_
_atom_site_label
_atom_site_type_symbol
_atom_site_fract_x
_atom_site_fract_y
_atom_site_fract_z
Zn1	Zn	-0.416215	1.034702	0.590930
Zn2	Zn	0.083785	1.534702	1.090930
Zn3	Zn	-0.590923	1.034664	0.416190
Zn4	Zn	-0.090923	1.534664	0.916190
Zn5	Zn	-0.416197	0.921542	0.416195
Zn6	Zn	0.083803	1.421542	0.916195
Zn7	Zn	-0.590914	0.921502	0.590881
Zn8	Zn	-0.090914	1.421502	1.090881
O9	O	-0.503562	0.978102	0.503549
O10	O	-0.003562	1.478102	1.003549
O11	O	-0.439401	1.129413	0.567769
O12	O	0.060599	1.629413	1.067769
O13	O	-0.567742	1.019659	0.269955
O14	O	-0.067742	1.519659	0.769955
O15	O	-0.269963	0.936585	0.439396
O16	O	0.230037	1.436585	0.939396
O17	O	-0.567759	1.129385	0.439388
O18	O	-0.067759	1.629385	0.939388
O19	O	-0.269976	1.019723	0.567773
O20	O	0.230024	1.519723	1.067773
O21	O	-0.439371	0.936548	0.269958
O22	O	0.060629	1.436548	0.769958
O23	O	-0.439362	0.826820	0.439349
O24	O	0.060638	1.326820	0.939349
O25	O	-0.567744	0.936517	0.737124
O26	O	-0.067744	1.436517	1.237124
O27	O	-0.567727	0.826790	0.567690
O28	O	-0.067727	1.326790	1.067690
O29	O	-0.439393	1.019684	0.737159
O30	O	0.060607	1.519684	1.237159
O31	O	-0.737158	1.019620	0.439341
O32	O	-0.237158	1.519620	0.939341
O33	O	-0.737152	0.936480	0.567686
O34	O	-0.237152	1.436480	1.067686
C35	C	-0.503542	0.802246	0.503515
C36	C	-0.003542	1.302246	1.003515
C37	C	-0.503559	0.727014	0.503526
C38	C	-0.003559	1.227014	1.003526
C39	C	-0.775072	0.978060	0.503531
C40	C	-0.275072	1.478060	1.003531
C41	C	-0.891225	0.978104	0.503558
C42	C	-0.391225	1.478104	1.003558
C43	C	-0.570499	0.691672	0.570245
C44	C	-0.070499	1.191672	1.070245
C45	C	-0.570501	0.620984	0.570260
C46	C	-0.070501	1.120984	1.070260
C47	C	-0.503567	0.585638	0.503549
C48	C	-0.003567	1.085638	1.003549
C49	C	-0.436620	0.620985	0.436827
C50	C	0.063380	1.120985	0.936827
C51	C	-0.436614	0.691672	0.436818
C52	C	0.063386	1.191672	0.936818
C53	C	-0.436643	0.335912	0.436861
C54	C	0.063357	0.835912	0.936861
C55	C	-0.436657	0.265220	0.436873
C56	C	0.063343	0.765220	0.936873
C57	C	-0.570530	0.265223	0.570303
C58	C	-0.070530	0.765223	1.070303
C59	C	-0.570524	0.335911	0.570294
C60	C	-0.070524	0.835911	1.070294
C61	C	-0.503573	0.371251	0.503576
C62	C	-0.003573	0.871251	1.003576
C63	C	-0.503571	0.447900	0.503563
C64	C	-0.003571	0.947900	1.003563
C65	C	-0.503574	0.508991	0.503557
C66	C	-0.003574	1.008991	1.003557
C67	C	-0.942979	1.019293	0.440119
C68	C	-0.442979	1.519293	0.940119
C69	C	-1.063029	1.019339	0.440146
C70	C	-0.563029	1.519339	0.940146
C71	C	-0.230992	0.978163	0.503590
C72	C	0.269008	1.478163	1.003590
C73	C	-0.114839	0.978189	0.503608
C74	C	0.385161	1.478189	1.003608
C75	C	-0.503569	0.978100	0.776119
C76	C	-0.003569	1.478100	1.276119
C77	C	-0.503572	0.978100	0.892272
C78	C	-0.003572	1.478100	1.392272
C79	C	-0.503583	1.154645	0.503584
C80	C	-0.003583	1.654645	1.003584
C81	C	-0.503592	1.229877	0.503598
C82	C	-0.003592	1.729877	1.003598
C83	C	-0.440068	1.019249	0.944075
C84	C	0.059932	1.519249	1.444075
C85	C	-0.440069	1.019249	1.064125
C86	C	0.059931	1.519249	1.564125
C87	C	-0.503579	0.978099	1.232039
C88	C	-0.003579	1.478099	1.732039
C89	C	-0.503576	0.978099	1.115886
C90	C	-0.003576	1.478099	1.615886
H91	H	-0.625007	0.720445	0.624565
H92	H	-0.125007	1.220445	1.124565
H93	H	-0.898413	1.054525	0.385791
H94	H	-0.398413	1.554525	0.885791
Cl95	Cl	-0.352503	0.220786	0.353003
Cl96	Cl	0.147497	0.720786	0.853003
Cl97	Cl	-0.654697	0.220791	0.654179
Cl98	Cl	-0.154697	0.720791	1.154179
Cl99	Cl	-0.654658	0.576557	0.654139
Cl100	Cl	-0.154658	1.076557	1.154139
Cl101	Cl	-0.352468	0.576551	0.352968
Cl102	Cl	0.147532	1.076551	0.852968
Cl103	Cl	-1.131738	1.073782	0.356282
Cl104	Cl	-0.631738	1.573782	0.856282
H105	H	-0.382099	0.720447	0.382494
H106	H	0.117901	1.220447	0.882494
Cl107	Cl	-0.352474	0.380331	0.352990
Cl108	Cl	0.147526	0.880331	0.852990
Cl109	Cl	-0.654675	0.380341	0.654158
Cl110	Cl	-0.154675	0.880341	1.154158
H111	H	-0.385695	1.054476	0.899548
H112	H	0.114305	1.554476	1.399548
Cl113	Cl	-1.046137	0.923736	0.587463
Cl114	Cl	-0.546137	1.423736	1.087463
Cl115	Cl	-0.960027	0.923713	0.587452
Cl116	Cl	-0.460027	1.423713	1.087452
H117	H	-0.385705	1.054481	1.108674
H118	H	0.114295	1.554481	1.608674
Cl119	Cl	-0.587530	0.923707	1.047119
Cl120	Cl	-0.087530	1.423707	1.547119
Cl121	Cl	-0.587513	0.923702	0.961009
Cl122	Cl	-0.087513	1.423702	1.461009
