data_functionalizedCrystal
_audit_creation_method	'MofGen! by Chris Wilmer'
_symmetry_space_group_name_H-M	'P1'
_symmetry_Int_Tables_number	1
_symmetry_cell_setting	triclinic
loop_
_symmetry_equiv_pos_as_xyz
  x,y,z
_cell_length_a	11.792241
_cell_length_b	11.792241
_cell_length_c	10.268362
_cell_angle_alpha	90.005218
_cell_angle_beta	90.000408
_cell_angle_gamma	84.193416
loop_
_atom_site_label
_atom_site_type_symbol
_atom_site_fract_x
_atom_site_fract_y
_atom_site_fract_z
O1	O	-1.506910	-0.155568	-0.108155
O2	O	-1.256910	0.094432	0.141845
O3	O	-1.006910	0.344432	0.391845
O4	O	-0.756910	0.594432	0.641845
O5	O	-1.176569	-0.171601	-0.108189
O6	O	-0.926569	0.078399	0.141811
O7	O	-0.676569	0.328399	0.391811
O8	O	-0.426569	0.578399	0.641811
O9	O	-1.349756	0.001586	-0.108162
O10	O	-1.099756	0.251586	0.141838
O11	O	-0.849756	0.501586	0.391838
O12	O	-0.599756	0.751586	0.641838
O13	O	-1.333723	-0.328755	-0.108182
O14	O	-1.083723	-0.078755	0.141818
O15	O	-0.833723	0.171245	0.391818
O16	O	-0.583723	0.421245	0.641818
O17	O	-1.349738	0.001592	0.108438
O18	O	-1.099738	0.251592	0.358438
O19	O	-0.849738	0.501592	0.608438
O20	O	-0.599738	0.751592	0.858438
O21	O	-1.176551	-0.171595	0.108411
O22	O	-0.926551	0.078405	0.358411
O23	O	-0.676551	0.328405	0.608411
O24	O	-0.426551	0.578405	0.858411
O25	O	-1.506892	-0.155562	0.108446
O26	O	-1.256892	0.094438	0.358446
O27	O	-1.006892	0.344438	0.608446
O28	O	-0.756892	0.594438	0.858446
Cu29	Cu	-1.341720	-0.163578	0.128206
Cu30	Cu	-1.091720	0.086422	0.378206
Cu31	Cu	-0.841720	0.336422	0.628206
Cu32	Cu	-0.591720	0.586422	0.878206
Cu33	Cu	-1.341741	-0.163585	-0.127949
Cu34	Cu	-1.091741	0.086415	0.122051
Cu35	Cu	-0.841741	0.336415	0.372051
Cu36	Cu	-0.591741	0.586415	0.622051
O37	O	-1.333705	-0.328749	0.108419
O38	O	-1.083705	-0.078749	0.358419
O39	O	-0.833705	0.171251	0.608419
O40	O	-0.583705	0.421251	0.858419
C41	C	-1.134269	-0.170591	0.000106
C42	C	-0.884269	0.079409	0.250106
C43	C	-0.634269	0.329409	0.500106
C44	C	-0.384269	0.579409	0.750106
C45	C	-1.008255	-0.167576	0.000093
C46	C	-0.758255	0.082424	0.250093
C47	C	-0.508255	0.332424	0.500093
C48	C	-0.258255	0.582424	0.750093
N49	N	-1.341714	-0.163572	0.308372
N50	N	-1.091714	0.086428	0.558372
N51	N	-0.841714	0.336428	0.808372
N52	N	-0.591714	0.586428	1.058372
C53	C	-1.348740	0.043880	0.000138
C54	C	-1.098740	0.293880	0.250138
C55	C	-0.848740	0.543880	0.500138
C56	C	-0.598740	0.793880	0.750138
C57	C	-1.345726	0.169894	0.000136
C58	C	-1.095726	0.419894	0.250136
C59	C	-0.845726	0.669894	0.500136
C60	C	-0.595726	0.919894	0.750136
C61	C	-0.777543	-0.162034	0.000128
C62	C	-0.527543	0.087966	0.250128
C63	C	-0.277543	0.337966	0.500128
C64	C	-0.027543	0.587966	0.750128
C65	C	-0.905928	-0.165113	0.000109
C66	C	-0.655928	0.084887	0.250109
C67	C	-0.405928	0.334887	0.500109
C68	C	-0.155928	0.584887	0.750109
C69	C	-0.549192	-0.156572	0.000144
C70	C	-0.299192	0.093428	0.250144
C71	C	-0.049192	0.343428	0.500144
C72	C	0.200808	0.593428	0.750144
C73	C	-0.675206	-0.159587	0.000139
C74	C	-0.425206	0.090413	0.250139
C75	C	-0.175206	0.340413	0.500139
C76	C	0.074794	0.590413	0.750139
C77	C	-1.334721	-0.371043	0.000116
C78	C	-1.084721	-0.121043	0.250116
C79	C	-0.834721	0.128957	0.500116
C80	C	-0.584721	0.378957	0.750116
C81	C	-1.337736	-0.497057	0.000109
C82	C	-1.087736	-0.247057	0.250109
C83	C	-0.837736	0.002943	0.500109
C84	C	-0.587736	0.252943	0.750109
C85	C	-1.340183	0.400606	0.000114
C86	C	-1.090183	0.650606	0.250114
C87	C	-0.840183	0.900606	0.500114
C88	C	-0.590183	1.150606	0.750114
C89	C	-1.343262	0.272221	0.000126
C90	C	-1.093262	0.522221	0.250126
C91	C	-0.843262	0.772221	0.500126
C92	C	-0.593262	1.022221	0.750126
C93	C	-1.341728	-0.163586	0.574042
C94	C	-1.091728	0.086414	0.824042
C95	C	-0.841728	0.336414	1.074042
C96	C	-0.591728	0.586414	1.324042
C97	C	-1.341716	-0.163581	0.426204
C98	C	-1.091716	0.086419	0.676204
C99	C	-0.841716	0.336419	0.926204
C100	C	-0.591716	0.586419	1.176204
N101	N	-1.341745	-0.163586	0.691885
N102	N	-1.091745	0.086414	0.941885
N103	N	-0.841745	0.336414	1.191885
N104	N	-0.591745	0.586414	1.441885
