data_functionalizedCrystal
_audit_creation_method	'MofGen! by Chris Wilmer'
_symmetry_space_group_name_H-M	'P1'
_symmetry_Int_Tables_number	1
_symmetry_cell_setting	triclinic
loop_
_symmetry_equiv_pos_as_xyz
  x,y,z
_cell_length_a	13.339071
_cell_length_b	18.266241
_cell_length_c	13.262508
_cell_angle_alpha	105.909913
_cell_angle_beta	99.430290
_cell_angle_gamma	90.009795
loop_
_atom_site_label
_atom_site_type_symbol
_atom_site_fract_x
_atom_site_fract_y
_atom_site_fract_z
O1	O	1.344506	0.044013	0.526820
O2	O	1.049684	0.030245	0.457672
O3	O	1.204505	0.007139	0.341620
O4	O	1.189685	0.067120	0.642872
O5	O	1.204531	0.128898	0.341607
O6	O	1.049710	0.152005	0.457659
O7	O	1.344532	0.165773	0.526807
Zn8	Zn	1.197125	0.178221	0.492231
Zn9	Zn	1.197091	0.017797	0.492248
O10	O	1.189711	0.188879	0.642859
C11	C	1.011958	0.088799	0.445985
C12	C	0.899508	0.081867	0.411169
C13	C	0.858348	0.060252	0.302595
C14	C	0.752696	0.053734	0.269880
C15	C	0.688194	0.068837	0.345735
C16	C	0.729354	0.090457	0.454310
C17	C	0.835016	0.096970	0.487029
C18	C	0.664862	0.105554	0.530169
C19	C	0.706022	0.127175	0.638745
C20	C	0.811674	0.133687	0.671458
C21	C	0.876177	0.118584	0.595603
C22	C	0.559200	0.099042	0.497450
C23	C	0.535868	0.135760	0.681884
C24	C	0.641520	0.142277	0.714600
N25	N	1.197068	-0.091689	0.492252
C26	C	1.258644	-0.113726	0.573999
C27	C	1.258651	-0.190370	0.574002
C28	C	1.197094	-0.244978	0.492242
C29	C	1.135506	-0.222933	0.410488
C30	C	1.135493	-0.146289	0.410493
N31	N	1.194178	-0.383789	0.399406
N32	N	1.194196	-0.456597	0.399406
C33	C	1.197128	-0.475904	0.492222
N34	N	1.200061	-0.419651	0.585046
N35	N	1.200048	-0.346836	0.585047
C36	C	1.197101	-0.328088	0.492227
C37	C	1.258715	-0.581046	0.573978
C38	C	1.258715	-0.657692	0.573980
C39	C	1.135575	-0.690255	0.410459
C40	C	1.135570	-0.613610	0.410464
C41	C	1.197145	-0.559010	0.492223
C42	C	1.382258	0.107217	0.538494
C43	C	1.494708	0.114145	0.573311
C44	C	1.203685	0.060183	0.302269
C45	C	1.201190	0.036836	0.185031
N46	N	1.197156	0.287705	0.492221
C47	C	1.194209	0.236516	-0.145487
C48	C	1.196545	0.258453	-0.035337
C49	C	1.197707	0.203051	0.019760
C50	C	1.196531	0.125708	-0.035303
C51	C	1.194187	0.103769	-0.145465
C52	C	1.197685	0.070303	0.019782
C53	C	1.196510	-0.007039	-0.035281
C54	C	1.194166	-0.028974	-0.145432
C55	C	1.193004	0.026428	-0.200529
C56	C	1.200029	0.092242	0.129944
C57	C	1.200007	-0.040505	0.129966
C58	C	1.197671	-0.062441	0.019817
C59	C	1.190531	0.135833	0.682210
C60	C	1.193026	0.159175	0.799449
H61	H	0.525698	0.081438	0.409047
H62	H	1.308855	-0.675630	0.640554
H63	H	0.845183	0.151280	0.759867
C64	C	1.197838	0.343527	0.025224
N65	N	1.198813	0.407609	0.070840
H66	H	1.085348	-0.128349	0.343924
C67	C	1.192927	-0.114051	-0.205990
N68	N	1.192017	-0.178131	-0.251597
H69	H	1.085448	-0.734716	0.343893
H70	H	1.308849	-0.536588	0.640555
H71	H	1.191108	0.008572	-0.290222
H72	H	0.675048	0.159881	0.803004
C73	C	1.201288	-0.101452	0.190569
N74	N	1.202253	-0.147353	0.236222
H75	H	1.199607	0.220916	0.109449
H76	H	0.602168	0.063529	0.319091
H77	H	1.196713	-0.125415	-0.025032
C78	C	1.192918	0.297449	-0.206103
N79	N	1.191943	0.343347	-0.251761
C80	C	1.067836	-0.589370	0.320531
N81	N	1.016813	-0.571113	0.252791
C82	C	1.201329	0.177317	0.190502
N83	N	1.202311	0.241401	0.236114
C84	C	0.707428	0.029965	0.150450
N85	N	0.673332	0.012066	0.060490
H86	H	0.483350	0.148057	0.743652
C87	C	0.929306	0.043644	0.219168
N88	N	0.982753	0.031137	0.156325
H89	H	0.962208	0.123893	0.622234
H90	H	1.308793	-0.208316	0.640573
C91	C	1.326340	-0.053664	0.663966
N92	N	1.377316	-0.008422	0.731740
H93	H	1.085383	-0.267400	0.343920
