data_functionalizedCrystal
_audit_creation_method	'MofGen! by Chris Wilmer'
_symmetry_space_group_name_H-M	'P1'
_symmetry_Int_Tables_number	1
_symmetry_cell_setting	triclinic
loop_
_symmetry_equiv_pos_as_xyz
  x,y,z
_cell_length_a	19.805405
_cell_length_b	12.759401
_cell_length_c	12.759393
_cell_angle_alpha	90.019596
_cell_angle_beta	90.036554
_cell_angle_gamma	90.026688
loop_
_atom_site_label
_atom_site_type_symbol
_atom_site_fract_x
_atom_site_fract_y
_atom_site_fract_z
Zn1	Zn	-0.269425	1.606181	0.593938
Zn2	Zn	0.230575	2.106181	1.093938
Zn3	Zn	-0.382628	1.606036	0.418240
Zn4	Zn	0.117372	2.106036	0.918240
Zn5	Zn	-0.269459	1.430480	0.418278
Zn6	Zn	0.230541	1.930480	0.918278
Zn7	Zn	-0.382578	1.430436	0.593881
Zn8	Zn	0.117422	1.930436	1.093881
O9	O	-0.326023	1.518283	0.506084
O10	O	0.173977	2.018283	1.006084
O11	O	-0.284449	1.753183	0.570640
O12	O	0.215551	2.253183	1.070640
O13	O	-0.367651	1.582706	0.271224
O14	O	0.132349	2.082706	0.771224
O15	O	-0.174738	1.453866	0.441619
O16	O	0.325262	1.953866	0.941619
O17	O	-0.367618	1.753076	0.441555
O18	O	0.132382	2.253076	0.941555
O19	O	-0.174713	1.582953	0.570676
O20	O	0.325287	2.082953	1.070676
O21	O	-0.284506	1.453725	0.271251
O22	O	0.215494	1.953725	0.771251
O23	O	-0.284458	1.283453	0.441564
O24	O	0.215542	1.783453	0.941564
O25	O	-0.367534	1.453791	0.740910
O26	O	0.132466	1.953791	1.240910
O27	O	-0.367566	1.283420	0.570579
O28	O	0.132434	1.783420	1.070579
O29	O	-0.284401	1.582910	0.740952
O30	O	0.215599	2.082910	1.240952
O31	O	-0.477338	1.582663	0.441499
O32	O	0.022662	2.082663	0.941499
O33	O	-0.477302	1.453650	0.570542
O34	O	0.022698	1.953650	1.070542
C35	C	-0.326011	1.245316	0.506070
C36	C	0.173989	1.745316	1.006070
C37	C	-0.326022	1.128539	0.506088
C38	C	0.173978	1.628539	1.006088
C39	C	-0.369372	0.963957	0.573168
C40	C	0.130628	1.463957	1.073168
C41	C	-0.369365	1.073681	0.573157
C42	C	0.130635	1.573681	1.073157
C43	C	-0.282688	1.073668	0.439019
C44	C	0.217312	1.573668	0.939019
C45	C	-0.282700	0.963946	0.439025
C46	C	0.217300	1.463946	0.939025
C47	C	-0.501879	1.518165	0.506033
C48	C	-0.001879	2.018165	1.006033
C49	C	-0.577111	1.518210	0.506047
C50	C	-0.077111	2.018210	1.006047
C51	C	-0.612451	1.585453	0.438924
C52	C	-0.112451	2.085453	0.938924
C53	C	-0.683140	1.585497	0.438948
C54	C	-0.183140	2.085497	0.938948
C55	C	-0.718486	1.518293	0.506089
C56	C	-0.218486	2.018293	1.006089
C57	C	-0.683141	1.451048	0.573218
C58	C	-0.183141	1.951048	1.073218
C59	C	-0.612454	1.451010	0.573200
C60	C	-0.112454	1.951010	1.073200
C61	C	-0.968214	1.451203	0.573296
C62	C	-0.468214	1.951203	1.073296
C63	C	-1.038906	1.451245	0.573307
C64	C	-0.538906	1.951245	1.073307
C65	C	-1.038900	1.585691	0.439044
C66	C	-0.538900	2.085691	0.939044
C67	C	-0.968213	1.585652	0.439025
C68	C	-0.468213	2.085652	0.939025
C69	C	-0.932874	1.518411	0.506159
C70	C	-0.432874	2.018411	1.006159
C71	C	-0.856225	1.518365	0.506134
C72	C	-0.356225	2.018365	1.006134
C73	C	-0.795133	1.518334	0.506109
C74	C	-0.295133	2.018334	1.006109
C75	C	-0.149480	1.518430	0.506158
C76	C	0.350520	2.018430	1.006158
C77	C	-0.074248	1.518493	0.506190
C78	C	0.425752	2.018493	1.006190
C79	C	-0.325958	1.518362	0.780118
C80	C	0.174042	2.018362	1.280118
C81	C	-0.325930	1.518395	0.896894
C82	C	0.174070	2.018395	1.396894
C83	C	-0.326035	1.792316	0.506099
C84	C	0.173965	2.292316	1.006099
C85	C	-0.326041	1.909093	0.506106
C86	C	0.173959	2.409093	1.006106
C87	C	-0.326039	1.518265	0.233117
C88	C	0.173961	2.018265	0.733117
C89	C	-0.325876	1.518435	0.116341
C90	C	0.174124	2.018435	0.616341
C91	C	-0.282636	1.585633	0.951780
C92	C	0.217364	2.085633	1.451780
C93	C	-0.282607	1.585650	1.061504
C94	C	0.217393	2.085650	1.561504
C95	C	-0.369172	1.451190	1.061447
C96	C	0.130828	1.951190	1.561447
C97	C	-0.369197	1.451168	0.951725
C98	C	0.130803	1.951168	1.451725
H99	H	-0.247413	0.919274	0.384410
H100	H	0.252587	1.419274	0.884410
C101	C	-0.573957	1.658304	0.366066
C102	C	-0.073957	2.158304	0.866066
C103	C	-0.504487	1.643862	0.380392
C104	C	-0.004487	2.143862	0.880392
C105	C	-0.469007	1.710948	0.313283
C106	C	0.030993	2.210948	0.813283
H107	H	-0.585415	1.728935	0.381440
H108	H	-0.085415	2.228935	0.881440
H109	H	-0.585548	1.642961	0.295442
H110	H	-0.085548	2.142961	0.795442
H111	H	-0.492900	1.659212	0.450999
H112	H	0.007100	2.159212	0.950999
H113	H	-0.493009	1.573244	0.365010
H114	H	0.006991	2.073244	0.865010
H115	H	-0.480598	1.695605	0.242660
H116	H	0.019402	2.195605	0.742660
H117	H	-0.480470	1.781575	0.328663
H118	H	0.019530	2.281575	0.828663
H119	H	-0.421868	1.701151	0.322987
H120	H	0.078132	2.201151	0.822987
C121	C	-0.416233	1.378387	1.121038
C122	C	0.083767	1.878387	1.621038
C123	C	-0.459617	1.437852	1.183996
C124	C	0.040383	1.937852	1.683996
C125	C	-0.502987	1.370823	1.238892
C126	C	-0.002987	1.870823	1.738892
H127	H	-0.390408	1.332621	1.163933
H128	H	0.109592	1.832621	1.663933
H129	H	-0.442061	1.338355	1.072666
H130	H	0.057939	1.838355	1.572666
H131	H	-0.433792	1.477866	1.232362
H132	H	0.066208	1.977866	1.732362
H133	H	-0.485457	1.483614	1.141127
H134	H	0.014543	1.983614	1.641127
H135	H	-0.528814	1.330791	1.190521
H136	H	-0.028814	1.830791	1.690521
H137	H	-0.477156	1.325060	1.281782
H138	H	0.022844	1.825060	1.781782
H139	H	-0.532432	1.411160	1.281608
H140	H	-0.032432	1.911160	1.781608
H141	H	-0.404452	1.396408	0.907036
H142	H	0.095548	1.896408	1.407036
C143	C	-0.416502	0.904590	0.646034
C144	C	0.083498	1.404590	1.146034
C145	C	-0.454460	0.976128	0.704743
C146	C	0.045540	1.476128	1.204743
C147	C	-0.497890	0.921482	0.771869
C148	C	0.002110	1.421482	1.271869
H149	H	-0.390724	0.861818	0.691980
H150	H	0.109276	1.361818	1.191980
H151	H	-0.446004	0.861778	0.605790
H152	H	0.053996	1.361778	1.105790
H153	H	-0.424961	1.018923	0.744984
H154	H	0.075039	1.518923	1.244984
H155	H	-0.480252	1.018904	0.658824
H156	H	0.019748	1.518904	1.158824
H157	H	-0.527392	0.878670	0.731625
H158	H	-0.027392	1.378670	1.231625
H159	H	-0.472106	0.878711	0.817808
H160	H	0.027894	1.378711	1.317808
H161	H	-0.523654	0.970012	0.811704
H162	H	-0.023654	1.470012	1.311704
H163	H	-0.404650	1.118346	0.627765
H164	H	0.095350	1.618346	1.127765
H165	H	-0.711911	1.640252	0.384289
H166	H	-0.211911	2.140252	0.884289
H167	H	-0.247401	1.118342	0.384405
H168	H	0.252599	1.618342	0.884405
H169	H	-0.939436	1.640372	0.384350
H170	H	-0.439436	2.140372	0.884350
C171	C	-1.077392	1.658687	0.366297
C172	C	-0.577392	2.158687	0.866297
C173	C	-1.146863	1.644375	0.380710
C174	C	-0.646863	2.144375	0.880710
C175	C	-1.182340	1.711615	0.313733
C176	C	-0.682340	2.211615	0.813733
H177	H	-1.065941	1.643425	0.295641
H178	H	-0.565941	2.143425	0.795641
H179	H	-1.065791	1.729279	0.381759
H180	H	-0.565791	2.229279	0.881759
H181	H	-1.158459	1.573800	0.365241
H182	H	-0.658459	2.073800	0.865241
H183	H	-1.158334	1.659645	0.451352
H184	H	-0.658334	2.159645	0.951352
H185	H	-1.170739	1.782207	0.329195
H186	H	-0.670739	2.282207	0.829195
H187	H	-1.170884	1.696347	0.243081
H188	H	-0.670884	2.196347	0.743081
H189	H	-1.229479	1.701921	0.323510
H190	H	-0.729479	2.201921	0.823510
H191	H	-0.939446	1.396451	0.627956
H192	H	-0.439446	1.896451	1.127956
H193	H	-1.067683	1.396521	0.627990
H194	H	-0.567683	1.896521	1.127990
C195	C	-0.721637	1.378122	0.646001
C196	C	-0.221637	1.878122	1.146001
C197	C	-0.791106	1.392524	0.631631
C198	C	-0.291106	1.892524	1.131631
C199	C	-0.826588	1.325348	0.698648
C200	C	-0.326588	1.825348	1.198648
H201	H	-0.710091	1.393387	0.716645
H202	H	-0.210091	1.893387	1.216645
H203	H	-0.710134	1.307511	0.630549
H204	H	-0.210134	1.807511	1.130549
H205	H	-0.802604	1.463118	0.647090
H206	H	-0.302604	1.963118	1.147090
H207	H	-0.802672	1.377251	0.561000
H208	H	-0.302672	1.877251	1.061000
H209	H	-0.815085	1.254737	0.683196
H210	H	-0.315085	1.754737	1.183196
H211	H	-0.815036	1.340618	0.769288
H212	H	-0.315036	1.840618	1.269288
H213	H	-0.873726	1.335103	0.688900
H214	H	-0.373726	1.835103	1.188900
H215	H	-0.583680	1.396256	0.627859
H216	H	-0.083680	1.896256	1.127859
C217	C	-0.235542	1.658481	0.892306
C218	C	0.264458	2.158481	1.392306
C219	C	-0.168567	1.635642	0.919005
C220	C	0.331433	2.135642	1.419005
C221	C	-0.125162	1.702718	0.864232
C222	C	0.374838	2.202718	1.364232
H223	H	-0.245356	1.729105	0.910250
H224	H	0.254644	2.229105	1.410250
H225	H	-0.241710	1.648834	0.819087
H226	H	0.258290	2.148834	1.319087
H227	H	-0.162402	1.645298	0.992207
H228	H	0.337598	2.145298	1.492207
H229	H	-0.158732	1.565030	0.901058
H230	H	0.341268	2.065030	1.401058
H231	H	-0.131330	1.693071	0.791014
H232	H	0.368670	2.193071	1.291014
H233	H	-0.134982	1.773338	0.882180
H234	H	0.365018	2.273338	1.382180
H235	H	-0.079715	1.687225	0.882332
H236	H	0.420285	2.187225	1.382332
H237	H	-0.247351	1.640400	1.106187
H238	H	0.252649	2.140400	1.606187
