data_functionalizedCrystal
_audit_creation_method	'MofGen! by Chris Wilmer'
_symmetry_space_group_name_H-M	'P1'
_symmetry_Int_Tables_number	1
_symmetry_cell_setting	triclinic
loop_
_symmetry_equiv_pos_as_xyz
  x,y,z
_cell_length_a	10.654549
_cell_length_b	15.944493
_cell_length_c	9.130313
_cell_angle_alpha	90.001356
_cell_angle_beta	89.997498
_cell_angle_gamma	83.979910
loop_
_atom_site_label
_atom_site_type_symbol
_atom_site_fract_x
_atom_site_fract_y
_atom_site_fract_z
O1	O	1.666277	0.117978	-0.121745
O2	O	2.166277	0.617978	0.378255
O3	O	1.300649	0.129219	-0.121753
O4	O	1.800649	0.629219	0.378247
O5	O	1.493485	0.001378	-0.121761
O6	O	1.993485	0.501378	0.378239
O7	O	1.473440	0.245818	-0.121737
O8	O	1.973440	0.745818	0.378263
O9	O	1.493472	0.001374	0.121838
O10	O	1.993472	0.501374	0.621838
O11	O	1.300636	0.129215	0.121846
O12	O	1.800636	0.629215	0.621846
O13	O	1.666263	0.117974	0.121854
O14	O	2.166263	0.617974	0.621854
Cu15	Cu	1.483448	0.123594	0.144093
Cu16	Cu	1.983448	0.623594	0.644093
Cu17	Cu	1.483464	0.123599	-0.143991
Cu18	Cu	1.983464	0.623599	0.356009
O19	O	1.473427	0.245815	0.121862
O20	O	1.973427	0.745815	0.621862
C21	C	1.253855	0.128391	0.000045
C22	C	1.753855	0.628391	0.500045
C23	C	1.114445	0.125922	0.000041
C24	C	1.614445	0.625922	0.500041
C25	C	1.492659	-0.029923	0.000032
C26	C	1.992659	0.470077	0.500032
C27	C	1.490203	-0.123186	0.000014
C28	C	1.990203	0.376814	0.500014
C29	C	0.902964	0.198866	0.000054
C30	C	1.402964	0.698866	0.500054
C31	C	1.033953	0.201193	0.000045
C32	C	1.533953	0.701193	0.500045
C33	C	1.063941	0.048320	0.000030
C34	C	1.563941	0.548320	0.500030
C35	C	0.932953	0.045995	0.000028
C36	C	1.432953	0.545995	0.500028
C37	C	1.603711	-0.358289	0.000044
C38	C	2.103711	0.141711	0.500044
C39	C	1.542507	-0.409209	-0.120063
C40	C	2.042507	0.090791	0.379937
C41	C	1.485652	-0.293933	0.000032
C42	C	1.985652	0.206067	0.500032
C43	C	1.542467	-0.409189	0.120106
C44	C	2.042467	0.090811	0.620106
C45	C	1.481265	-0.458868	0.000055
C46	C	1.981265	0.041132	0.500055
C47	C	1.424480	-0.343625	-0.120175
C48	C	1.924480	0.156375	0.379825
C49	C	1.424457	-0.343602	0.120102
C50	C	1.924457	0.156398	0.620102
C51	C	1.363166	-0.394490	-0.000035
C52	C	1.863166	0.105510	0.499965
C53	C	1.488183	-0.198919	0.000017
C54	C	1.988183	0.301081	0.500017
C55	C	1.478725	-0.553880	0.000060
C56	C	1.978725	-0.053880	0.500060
C57	C	1.713057	0.118801	0.000053
C58	C	2.213057	0.618801	0.500053
C59	C	1.852468	0.121271	0.000048
C60	C	2.352468	0.621271	0.500048
C61	C	1.474253	0.277116	0.000066
C62	C	1.974253	0.777116	0.500066
C63	C	1.476709	0.370379	0.000075
C64	C	1.976709	0.870379	0.500075
N65	N	1.483447	0.123591	0.346715
N66	N	1.983447	0.623591	0.846715
N67	N	1.483476	0.123596	-0.346614
N68	N	1.983476	0.623596	0.153386
C69	C	1.568863	0.067007	0.423364
C70	C	2.068863	0.567007	0.923364
C71	C	1.568875	0.067007	0.576700
C72	C	2.068875	0.567007	1.076700
C73	C	1.398050	0.180182	0.576727
C74	C	1.898050	0.680182	1.076727
C75	C	1.398033	0.180177	0.423393
C76	C	1.898033	0.680177	0.923393
H77	H	0.837435	0.260161	0.000069
H78	H	1.337435	0.760161	0.500069
N79	N	1.608510	-0.447129	0.254615
N80	N	2.108510	0.052871	0.754615
H81	H	1.681677	-0.488872	0.223978
H82	H	2.181677	0.011128	0.723978
H83	H	1.640820	-0.400910	0.315125
H84	H	2.140820	0.099090	0.815125
H85	H	1.261394	-0.410545	-0.000103
H86	H	1.761394	0.089455	0.499897
H87	H	1.638427	0.020931	0.639103
H88	H	2.138427	0.520931	1.139103
N89	N	1.608554	-0.447180	-0.254555
N90	N	2.108554	0.052820	0.245445
H91	H	1.547247	-0.477028	-0.314715
H92	H	2.047247	0.022972	0.185285
H93	H	1.640955	-0.400983	-0.315038
H94	H	2.140955	0.099017	0.184962
H95	H	1.374636	-0.314931	0.221647
H96	H	1.874636	0.185069	0.721647
N97	N	1.358477	-0.305840	-0.254823
N98	N	1.858477	0.194160	0.245177
H99	H	1.360600	-0.242662	-0.254022
H100	H	1.860600	0.257338	0.245978
H101	H	1.402747	-0.330368	-0.345361
H102	H	1.902747	0.169632	0.154639
H103	H	1.328510	0.226255	0.639173
H104	H	1.828510	0.726255	1.139173
H105	H	1.328471	0.226255	0.360982
H106	H	1.828471	0.726255	0.860982
H107	H	1.075060	0.264379	0.000050
H108	H	1.575060	0.764379	0.500050
H109	H	1.129488	-0.012966	0.000018
H110	H	1.629488	0.487034	0.500018
H111	H	1.638410	0.020929	0.360936
H112	H	2.138410	0.520929	0.860936
H113	H	1.705404	-0.342072	-0.000074
H114	H	2.205404	0.157928	0.499926
N115	N	0.878479	-0.037702	0.000013
N116	N	1.378479	0.462298	0.500013
H117	H	0.949340	-0.085036	0.000012
H118	H	1.449340	0.414964	0.500012
H119	H	0.824778	-0.041996	0.090316
H120	H	1.324778	0.458004	0.590316
