data_functionalizedCrystal
_audit_creation_method	'MofGen! by Chris Wilmer'
_symmetry_space_group_name_H-M	'P1'
_symmetry_Int_Tables_number	1
_symmetry_cell_setting	triclinic
loop_
_symmetry_equiv_pos_as_xyz
  x,y,z
_cell_length_a	8.497374
_cell_length_b	10.686220
_cell_length_c	10.686285
_cell_angle_alpha	89.654569
_cell_angle_beta	85.626860
_cell_angle_gamma	85.634072
loop_
_atom_site_label
_atom_site_type_symbol
_atom_site_fract_x
_atom_site_fract_y
_atom_site_fract_z
Zn1	Zn	0.670936	1.956019	0.352260
Zn2	Zn	0.385530	1.972080	0.561976
Zn3	Zn	0.425706	1.746303	0.368352
Zn4	Zn	0.667804	1.762345	0.578080
O5	O	0.537494	1.859187	0.465167
O6	O	0.617574	2.133691	0.366604
O7	O	0.170096	1.942138	0.536286
O8	O	0.476361	1.760688	0.190679
O9	O	0.407887	2.145490	0.520682
O10	O	0.656531	1.914765	0.178855
O11	O	0.199614	1.776261	0.394032
O12	O	0.473323	1.572890	0.409648
O13	O	0.888982	1.788028	0.548130
O14	O	0.651192	1.584676	0.563734
O15	O	0.891283	1.930319	0.382220
O16	O	0.404849	1.957693	0.739651
O17	O	0.612235	1.803601	0.751483
C18	C	0.566278	1.533267	0.490185
C19	C	0.578626	1.393839	0.500919
C20	C	0.503874	1.884165	0.791080
C21	C	0.489534	1.894965	0.930498
C22	C	0.948975	1.859177	0.465170
C23	C	1.127617	1.859181	0.465183
C24	C	0.508598	2.186379	0.440052
C25	C	0.496284	2.325809	0.429349
C26	C	0.571276	1.834145	0.137979
C27	C	0.585673	1.823474	-0.001449
H28	H	0.658565	1.345411	0.570415
O29	O	0.696813	1.740429	0.940896
C30	C	0.670020	1.617882	0.982558
H31	H	0.540860	1.614393	1.019169
H32	H	0.749741	1.590850	1.061042
C33	C	0.866171	1.529528	0.827625
C34	C	0.707532	1.525242	0.872581
H35	H	0.889316	1.472382	0.759789
H36	H	0.884227	1.612091	0.799559
H37	H	0.932586	1.507005	0.893039
H38	H	0.641119	1.547780	0.807172
H39	H	0.689465	1.442680	0.900633
H40	H	0.416340	1.374232	0.359865
O41	O	0.378409	1.977854	0.988423
C42	C	0.388347	1.970557	1.119399
H43	H	0.511859	1.930697	1.140330
H44	H	0.296760	1.906725	1.161812
C45	C	0.204378	2.151615	1.151194
C46	C	0.356083	2.102668	1.176902
H47	H	0.184469	2.233105	1.186668
H48	H	0.197677	2.156529	1.062954
H49	H	0.128073	2.098410	1.186540
H50	H	0.432385	2.155865	1.141543
H51	H	0.362796	2.097766	1.265138
