data_functionalizedCrystal
_audit_creation_method	'MofGen! by Chris Wilmer'
_symmetry_space_group_name_H-M	'P1'
_symmetry_Int_Tables_number	1
_symmetry_cell_setting	triclinic
loop_
_symmetry_equiv_pos_as_xyz
  x,y,z
_cell_length_a	15.995280
_cell_length_b	15.995350
_cell_length_c	15.072220
_cell_angle_alpha	89.999577
_cell_angle_beta	89.996905
_cell_angle_gamma	83.477986
loop_
_atom_site_label
_atom_site_type_symbol
_atom_site_fract_x
_atom_site_fract_y
_atom_site_fract_z
O1	O	-1.111020	-0.107643	0.073793
O2	O	-0.611020	0.392357	0.573793
O3	O	-0.867237	-0.121033	0.073791
O4	O	-0.367237	0.378967	0.573791
O5	O	-0.995792	0.007551	0.073791
O6	O	-0.495792	0.507551	0.573791
O7	O	-0.982464	-0.236227	0.073793
O8	O	-0.482464	0.263773	0.573793
O9	O	-0.995786	0.007551	-0.073774
O10	O	-0.495786	0.507551	0.426226
O11	O	-0.867230	-0.121033	-0.073774
O12	O	-0.367230	0.378967	0.426226
O13	O	-1.111014	-0.107644	-0.073772
O14	O	-0.611014	0.392356	0.426228
Zn15	Zn	-0.989121	-0.114339	-0.097202
Zn16	Zn	-0.489121	0.385661	0.402798
Zn17	Zn	-0.989129	-0.114338	0.097221
Zn18	Zn	-0.489129	0.385662	0.597221
O19	O	-0.982458	-0.236228	-0.073773
O20	O	-0.482458	0.263772	0.426227
C21	C	-0.836038	-0.120490	0.000008
C22	C	-0.336038	0.379510	0.500008
C23	C	-0.743084	-0.118861	0.000007
C24	C	-0.243084	0.381139	0.500007
N25	N	-0.989121	-0.114339	-0.229891
N26	N	-0.489121	0.385661	0.270109
C27	C	-0.995238	0.038746	0.000010
C28	C	-0.495238	0.538746	0.500010
C29	C	-0.993586	0.131696	0.000015
C30	C	-0.493586	0.631696	0.500015
C31	C	-0.405344	-0.112875	0.000020
C32	C	0.094656	0.387125	0.500020
C33	C	-0.428656	-0.205678	0.000350
C34	C	0.071344	0.294322	0.500350
C35	C	-0.525332	-0.207438	0.000013
C36	C	-0.025332	0.292562	0.500013
C37	C	-0.572901	-0.115846	0.000014
C38	C	-0.072901	0.384154	0.500014
C39	C	-0.543795	-0.069449	-0.084250
C40	C	-0.043795	0.430551	0.415750
C41	C	-0.447004	-0.068337	-0.084316
C42	C	0.052996	0.431663	0.415684
C43	C	-0.447156	-0.066441	0.083494
C44	C	0.052844	0.433559	0.583494
C45	C	-0.543649	-0.069876	0.084603
C46	C	-0.043649	0.430124	0.584603
C47	C	-0.667597	-0.117519	0.000008
C48	C	-0.167597	0.382481	0.500008
C49	C	-0.310647	-0.111199	0.000021
C50	C	0.189353	0.388801	0.500021
C51	C	-0.142211	-0.108198	0.000014
C52	C	0.357789	0.391802	0.500014
C53	C	-0.235160	-0.109859	0.000027
C54	C	0.264840	0.390141	0.500027
C55	C	-0.983012	-0.267422	0.000010
C56	C	-0.483012	0.232578	0.500010
C57	C	-0.984664	-0.360372	0.000011
C58	C	-0.484664	0.139628	0.500011
C59	C	-0.987654	0.469442	0.000012
C60	C	-0.487654	0.969442	0.500012
C61	C	-0.896099	0.421984	0.000342
C62	C	-0.396099	0.921984	0.500342
C63	C	-0.897751	0.325295	0.000010
C64	C	-0.397751	0.825295	0.500010
C65	C	-0.990596	0.301882	0.000014
C66	C	-0.490596	0.801882	0.500014
C67	C	-1.035751	0.342970	-0.084251
C68	C	-0.535751	0.842970	0.415749
C69	C	-1.033451	0.439605	-0.084321
C70	C	-0.533451	0.939605	0.415679
C71	C	-1.035350	0.439965	0.083488
C72	C	-0.535350	0.939965	0.583488
C73	C	-1.035328	0.343019	0.084601
C74	C	-0.535328	0.843019	0.584601
C75	C	-0.992264	0.207185	0.000012
C76	C	-0.492264	0.707185	0.500012
C77	C	-0.985989	0.564139	0.000008
C78	C	-0.485989	1.064139	0.500008
N79	N	-0.989136	-0.114331	0.229910
N80	N	-0.489136	0.385669	0.729910
C81	C	-0.989126	-0.114337	0.589111
C82	C	-0.489126	0.385663	1.089111
C83	C	-1.057837	-0.045463	0.551477
C84	C	-0.557837	0.454537	1.051477
C85	C	-1.058084	-0.045639	0.448651
C86	C	-0.558084	0.454361	0.948651
C87	C	-0.989131	-0.114333	0.410907
C88	C	-0.489131	0.385667	0.910907
C89	C	-1.007987	-0.201761	0.448236
C90	C	-0.507987	0.298239	0.948236
C91	C	-1.008477	-0.201359	0.551093
C92	C	-0.508477	0.298641	1.051093
C93	C	-0.901353	-0.096567	0.551202
C94	C	-0.401353	0.403433	1.051202
C95	C	-0.901941	-0.094580	0.448338
C96	C	-0.401941	0.405420	0.948338
C97	C	-0.989132	-0.114337	0.310194
C98	C	-0.489132	0.385663	0.810194
C99	C	-0.989127	-0.114339	0.689825
C100	C	-0.489127	0.385661	1.189825
H101	H	-0.400663	-0.241450	0.060780
H102	H	0.099337	0.258550	0.560780
N103	N	-0.847830	0.447913	-0.079255
N104	N	-0.347830	0.947913	0.420745
H105	H	-0.844537	0.510567	-0.077182
H106	H	-0.344537	1.010567	0.422818
H107	H	-0.877558	0.433352	-0.135335
H108	H	-0.377558	0.933352	0.364665
N109	N	-0.570358	-0.112121	-0.167322
N110	N	-0.070358	0.387879	0.332678
H111	H	-0.601237	-0.161496	-0.150566
H112	H	-0.101237	0.338504	0.349434
H113	H	-0.518893	-0.132627	-0.203430
H114	H	-0.018893	0.367373	0.296570
H115	H	-0.544362	-0.243769	0.060419
H116	H	-0.044362	0.256231	0.560419
H117	H	-0.960189	-0.254039	0.575989
H118	H	-0.460189	0.245961	1.075989
H119	H	-0.959262	-0.254253	0.423788
H120	H	-0.459262	0.245747	0.923788
H121	H	-0.848430	-0.141478	0.422649
H122	H	-0.348430	0.358522	0.922649
N123	N	-1.091796	-0.222972	0.414116
N124	N	-0.591796	0.277028	0.914116
H125	H	-1.117664	-0.176077	0.374488
H126	H	-0.617664	0.323923	0.874488
H127	H	-1.130520	-0.229907	0.465871
H128	H	-0.630520	0.270093	0.965871
H129	H	-0.399635	-0.241253	-0.059740
H130	H	0.100365	0.258747	0.440260
H131	H	-0.433163	0.001869	0.084065
H132	H	0.066837	0.501869	0.584065
H133	H	-0.543733	-0.243994	-0.060494
H134	H	-0.043733	0.256006	0.439506
H135	H	-1.102853	0.471743	0.084057
H136	H	-0.602853	0.971743	0.584057
N137	N	-0.877272	-0.013916	0.585563
N138	N	-0.377272	0.486084	1.085563
H139	H	-0.923022	0.012847	0.626059
H140	H	-0.423022	0.512847	1.126059
H141	H	-0.869957	0.024885	0.533972
H142	H	-0.369957	0.524885	1.033972
H143	H	-0.420184	-0.100471	-0.147306
H144	H	0.079816	0.399529	0.352694
H145	H	-0.576619	-0.003023	0.089693
H146	H	-0.076619	0.496977	0.589693
H147	H	-0.850223	-0.146792	0.575540
H148	H	-0.350223	0.353208	1.075540
N149	N	-0.847623	0.446523	0.080381
N150	N	-0.347623	0.946523	0.580381
H151	H	-0.796142	0.472486	0.060268
H152	H	-0.296142	0.972486	0.560268
H153	H	-0.829770	0.394853	0.117262
H154	H	-0.329770	0.894853	0.617262
H155	H	-0.887628	-0.030264	0.423941
H156	H	-0.387628	0.469736	0.923941
H157	H	-0.862012	0.297421	-0.060498
H158	H	-0.362012	0.797421	0.439502
N159	N	-0.427720	0.021790	-0.089383
N160	N	0.072280	0.521790	0.410617
H161	H	-0.482075	0.060621	-0.091569
H162	H	0.017925	0.560621	0.408431
H163	H	-0.393745	0.029722	-0.144614
H164	H	0.106255	0.529722	0.355386
N165	N	-0.850734	0.287632	0.080021
N166	N	-0.350734	0.787632	0.580021
H167	H	-0.878464	0.312177	0.135879
H168	H	-0.378464	0.812177	0.635879
H169	H	-0.790527	0.300895	0.077748
H170	H	-0.290527	0.800895	0.577748
N171	N	-1.093263	-0.222045	0.582876
N172	N	-0.593263	0.277955	1.082876
H173	H	-1.094431	-0.221988	0.649875
H174	H	-0.594431	0.278012	1.149875
H175	H	-1.103380	-0.279469	0.560241
H176	H	-0.603380	0.220531	1.060241
H177	H	-1.004384	0.314581	-0.146961
H178	H	-0.504384	0.814581	0.353039
H179	H	-0.575663	-0.002050	-0.087382
H180	H	-0.075663	0.497950	0.412618
H181	H	-1.046890	0.019344	0.423413
H182	H	-0.546890	0.519344	0.923413
H183	H	-0.562221	-0.103657	0.146941
H184	H	-0.062221	0.396343	0.646941
N185	N	-0.409732	-0.104942	0.168100
N186	N	0.090268	0.395058	0.668100
H187	H	-0.365288	-0.152880	0.153172
H188	H	0.134712	0.347120	0.653172
H189	H	-0.455488	-0.126824	0.204664
H190	H	0.044512	0.373176	0.704664
H191	H	-1.100669	0.471871	-0.088142
H192	H	-0.600669	0.971871	0.411858
N193	N	-0.989820	0.463835	-0.167756
N194	N	-0.489820	0.963835	0.332244
H195	H	-0.938394	0.491754	-0.151428
H196	H	-0.438394	0.991754	0.348572
H197	H	-1.029629	0.504187	-0.203565
H198	H	-0.529629	1.004187	0.296435
N199	N	-1.126108	0.324296	-0.088375
N200	N	-0.626108	0.824296	0.411625
H201	H	-1.127853	0.261426	-0.091053
H202	H	-0.627853	0.761426	0.408947
H203	H	-1.153868	0.351365	-0.143047
H204	H	-0.653868	0.851365	0.356953
N205	N	-0.995711	0.467161	0.168092
N206	N	-0.495711	0.967161	0.668092
H207	H	-0.946429	0.498871	0.153162
H208	H	-0.446429	0.998871	0.653162
H209	H	-0.975542	0.415901	0.204657
H210	H	-0.475542	0.915901	0.704657
H211	H	-1.002314	0.315763	0.146938
H212	H	-0.502314	0.815763	0.646938
H213	H	-1.103035	0.327675	0.089692
H214	H	-0.603035	0.827675	0.589692
N215	N	-1.043248	0.040905	0.584220
N216	N	-0.543248	0.540905	1.084220
H217	H	-0.991960	0.036229	0.623773
H218	H	-0.491960	0.536229	1.123773
H219	H	-1.094014	0.066068	0.618882
H220	H	-0.594014	0.566068	1.118882
N221	N	-1.143630	-0.060258	0.585774
N222	N	-0.643630	0.439742	1.085774
H223	H	-1.138181	-0.111386	0.625576
H224	H	-0.638181	0.388614	1.125576
H225	H	-1.181639	-0.069787	0.534123
H226	H	-0.681639	0.430213	1.034123
H227	H	-1.123224	-0.057010	0.424043
H228	H	-0.623224	0.442990	0.924043
