data_functionalizedCrystal
_audit_creation_method	'MofGen! by Chris Wilmer'
_symmetry_space_group_name_H-M	'P1'
_symmetry_Int_Tables_number	1
_symmetry_cell_setting	triclinic
loop_
_symmetry_equiv_pos_as_xyz
  x,y,z
_cell_length_a	11.169417
_cell_length_b	12.594516
_cell_length_c	12.594502
_cell_angle_alpha	89.936012
_cell_angle_beta	89.961670
_cell_angle_gamma	90.012694
loop_
_atom_site_label
_atom_site_type_symbol
_atom_site_fract_x
_atom_site_fract_y
_atom_site_fract_z
Zn1	Zn	1.835169	-0.423306	-0.601760
Zn2	Zn	1.834989	-0.601428	-0.423782
Zn3	Zn	1.634390	-0.423467	-0.423800
Zn4	Zn	1.634457	-0.601245	-0.601723
O5	O	1.734751	-0.512362	-0.512766
O6	O	2.003095	-0.446943	-0.578158
O7	O	1.808275	-0.577965	-0.274838
O8	O	1.661072	-0.274500	-0.447429
O9	O	2.002962	-0.577809	-0.447399
O10	O	1.808583	-0.274381	-0.578175
O11	O	1.660896	-0.447218	-0.274851
O12	O	1.466450	-0.447040	-0.447394
O13	O	1.661186	-0.577497	-0.750674
O14	O	1.466499	-0.577654	-0.578114
O15	O	1.808648	-0.446766	-0.750701
O16	O	1.808340	-0.750350	-0.447364
O17	O	1.661011	-0.750215	-0.578097
C18	C	1.422927	-0.512345	-0.512752
C19	C	1.289527	-0.512364	-0.512772
C20	C	1.734696	-0.788903	-0.512748
C21	C	1.734782	-0.907208	-0.512775
C22	C	1.815007	-0.976495	-0.441745
C23	C	1.844376	-1.047130	-0.538893
C24	C	1.705563	-1.047372	-0.415689
C25	C	1.764207	-0.976284	-0.609974
C26	C	1.625343	-0.976520	-0.486704
C27	C	1.654670	-1.047123	-0.583919
C28	C	2.047794	-0.512379	-0.512780
C29	C	2.181194	-0.512386	-0.512787
C30	C	1.734945	-0.512093	-0.790387
C31	C	1.735027	-0.511979	-0.908693
C32	C	1.734840	-0.234741	-0.512808
C33	C	1.734878	-0.116435	-0.512826
C34	C	1.734628	-0.512552	-0.236225
C35	C	1.734778	-0.512366	-0.117920
C36	C	1.815679	-0.582702	0.022158
C37	C	1.844189	-0.485541	-0.048958
C38	C	1.706320	-0.609520	-0.048376
C39	C	1.763595	-0.414763	0.021750
C40	C	1.625675	-0.538808	0.022338
C41	C	1.654143	-0.441579	-0.048746
H42	H	1.882862	-0.945481	-0.381732
H43	H	1.586867	-1.077940	-0.644078
H44	H	1.788868	-0.945194	-0.692170
H45	H	1.585825	-0.381869	-0.079671
O46	O	1.795776	-0.305681	0.062387
H47	H	1.886154	-0.283514	0.033122
O48	O	1.966538	-0.455682	-0.090434
H49	H	2.002064	-0.521326	-0.140022
H50	H	1.680810	-1.078594	-0.333564
H51	H	1.532778	-0.945478	-0.464596
H52	H	1.533332	-0.561369	0.053669
O53	O	1.906223	-0.661602	0.063415
H54	H	1.996822	-0.639229	0.034855
H55	H	1.682143	-0.691847	-0.079192
H56	H	1.936968	-1.078150	-0.560973
