data_functionalizedCrystal
_audit_creation_method	'MofGen! by Chris Wilmer'
_symmetry_space_group_name_H-M	'P1'
_symmetry_Int_Tables_number	1
_symmetry_cell_setting	triclinic
loop_
_symmetry_equiv_pos_as_xyz
  x,y,z
_cell_length_a	9.065215
_cell_length_b	13.596369
_cell_length_c	14.519709
_cell_angle_alpha	90.006934
_cell_angle_beta	84.347421
_cell_angle_gamma	90.004765
loop_
_atom_site_label
_atom_site_type_symbol
_atom_site_fract_x
_atom_site_fract_y
_atom_site_fract_z
O1	O	1.957871	0.081783	0.135215
O2	O	2.457871	0.581783	0.635215
O3	O	1.528378	0.081787	0.146310
O4	O	2.028378	0.581787	0.646310
O5	O	1.754512	0.081776	0.006608
O6	O	2.254512	0.581776	0.506608
O7	O	1.731737	0.081794	0.274918
O8	O	2.231737	0.581794	0.774918
O9	O	1.754490	-0.081807	0.006600
O10	O	2.254490	0.418193	0.506600
O11	O	1.528356	-0.081796	0.146302
O12	O	2.028356	0.418204	0.646302
O13	O	1.957849	-0.081800	0.135208
O14	O	2.457849	0.418200	0.635208
Zn15	Zn	1.743099	-0.107770	0.140754
Zn16	Zn	2.243099	0.392230	0.640754
Zn17	Zn	1.743128	0.107757	0.140764
Zn18	Zn	2.243128	0.607757	0.640764
O19	O	1.731715	-0.081789	0.274910
O20	O	2.231715	0.418211	0.774910
C21	C	1.473400	-0.000004	0.145241
C22	C	1.973400	0.499996	0.645241
C23	C	1.309617	-0.000002	0.142054
C24	C	1.809617	0.499998	0.642054
N25	N	1.743089	-0.254862	0.140746
N26	N	2.243089	0.245138	0.640746
C27	C	1.743126	-0.656153	0.140765
C28	C	2.243126	-0.156153	0.640765
C29	C	1.743112	-0.544502	0.140763
C30	C	2.243112	-0.044502	0.640763
C31	C	1.743108	-0.455511	0.140756
C32	C	2.243108	0.044489	0.640756
C33	C	1.743092	-0.343853	0.140753
C34	C	2.243092	0.156147	0.640753
C35	C	2.012827	-0.000007	0.136277
C36	C	2.512827	0.499993	0.636277
C37	C	2.176610	-0.000002	0.139464
C38	C	2.676610	0.499998	0.639464
C39	C	1.753439	-0.000016	-0.027764
C40	C	2.253439	0.499984	0.472236
C41	C	1.750259	-0.000016	-0.130168
C42	C	2.250259	0.499984	0.369832
N43	N	1.743150	0.254849	0.140764
N44	N	2.243150	0.754849	0.640764
C45	C	1.738550	0.000009	-0.505150
C46	C	2.238550	0.500009	-0.005150
C47	C	1.741801	0.000002	-0.400818
C48	C	2.241801	0.500002	0.099182
C49	C	1.744404	-0.000004	-0.317662
C50	C	2.244404	0.499996	0.182338
C51	C	1.747656	-0.000010	-0.213324
C52	C	2.247656	0.499990	0.286676
C53	C	1.732788	0.000005	0.309282
C54	C	2.232788	0.500005	0.809282
C55	C	1.735968	0.000012	0.411686
C56	C	2.235968	0.500012	0.911686
