data_functionalizedCrystal
_audit_creation_method	'MofGen! by Chris Wilmer'
_symmetry_space_group_name_H-M	'P1'
_symmetry_Int_Tables_number	1
_symmetry_cell_setting	triclinic
loop_
_symmetry_equiv_pos_as_xyz
  x,y,z
_cell_length_a	23.096457
_cell_length_b	14.628931
_cell_length_c	14.628931
_cell_angle_alpha	59.999807
_cell_angle_beta	89.998385
_cell_angle_gamma	59.999721
loop_
_atom_site_label
_atom_site_type_symbol
_atom_site_fract_x
_atom_site_fract_y
_atom_site_fract_z
Zr1	Zr	0.557765	1.000594	-0.119995
O2	O	0.465317	1.191297	-0.265951
O3	O	0.586106	0.809889	-0.075251
O4	O	0.586106	1.000595	-0.265957
O5	O	0.465317	1.000591	0.075188
O6	O	0.681386	1.000597	-0.265963
O7	O	0.465317	1.000591	-0.075244
O8	O	0.681386	0.659459	0.075176
O9	O	0.465317	1.341729	-0.265951
O10	O	0.669299	0.888331	-0.056173
O11	O	0.598193	0.888329	0.056097
O12	O	0.598193	1.112861	-0.168435
O13	O	0.527086	1.112858	-0.056165
Zr14	Zr	0.709727	1.000597	0.119918
Zr15	Zr	0.709727	1.000598	-0.120003
Zr16	Zr	0.557766	1.000593	0.119927
Zr17	Zr	0.557766	1.240515	-0.119995
Zr18	Zr	0.709727	0.760675	0.119919
O19	O	0.681387	1.191302	0.075175
O20	O	0.681386	1.191303	-0.265963
O21	O	0.465317	1.191296	0.075187
O22	O	0.802175	0.809893	0.265874
O23	O	0.802175	0.809894	-0.075264
O24	O	0.586106	0.809888	0.265887
O25	O	0.802175	1.000600	-0.075264
O26	O	0.681387	1.000596	0.265881
O27	O	0.586106	1.000593	0.265887
O28	O	0.802175	1.000600	0.075168
O29	O	0.586106	1.341732	-0.265958
O30	O	0.681386	0.659458	0.265882
O31	O	0.802175	0.659462	0.265875
O32	O	0.802175	0.659462	0.075169
O33	O	0.465317	1.341729	-0.075245
O34	O	0.586106	1.341732	-0.075252
O35	O	0.669300	0.888330	0.168359
O36	O	0.740406	0.888332	0.056089
O37	O	0.669300	1.112862	-0.056173
O38	O	0.598193	1.112860	0.056097
C39	C	0.633746	0.700490	-0.000038
C40	C	0.633746	0.598637	-0.000038
C41	C	0.669019	0.553229	-0.055731
C42	C	0.669020	0.447959	-0.055732
C43	C	0.443666	1.000590	-0.000027
C44	C	0.379154	1.000589	-0.000023
C45	C	0.385965	0.883390	0.058566
C46	C	0.325350	0.883388	0.058570
C47	C	0.257924	1.000592	-0.000036
C48	C	0.251115	1.117806	-0.058627
C49	C	0.311730	1.117804	-0.058621
N50	N	0.135128	1.087833	-0.095414
N51	N	0.077549	1.087826	-0.095417
C52	C	0.075291	1.000603	-0.000055
N53	N	0.132794	0.913367	0.095309
N54	N	0.190380	0.913370	0.095310
C55	C	0.192192	1.000606	-0.000048
C56	C	0.016379	0.883394	0.058544
C57	C	-0.044240	0.883397	0.058552
C58	C	-0.118474	1.117818	-0.058656
C59	C	-0.057856	1.117812	-0.058653
C60	C	0.009568	1.000596	-0.000056
C61	C	0.823826	1.000600	-0.000049
C62	C	0.888338	1.000602	-0.000053
C63	C	0.633746	1.000596	-0.300144
C64	C	0.633746	1.000596	-0.401997
C65	C	0.633746	1.300701	-0.000039
C66	C	0.633747	1.402554	-0.000039
C67	C	0.669019	0.889215	-0.391717
C68	C	0.669020	0.889212	-0.496986
C69	C	0.633746	1.000594	0.300068
C70	C	0.633747	1.000594	0.401921
C71	C	0.823826	0.700495	-0.000049
C72	C	0.888338	0.598644	-0.000052
C73	C	0.633746	0.700489	0.300068
C74	C	0.633746	0.598636	0.401921
C75	C	0.823826	0.700494	0.300057
C76	C	0.888338	0.598643	0.401907
C77	C	0.443666	1.300696	-0.300133
C78	C	0.379154	1.402548	-0.401983
C79	C	0.443666	1.300696	-0.000028
C80	C	0.379155	1.402547	-0.000024
C81	C	0.633746	1.300701	-0.300144
C82	C	0.633746	1.402555	-0.401997
C83	C	0.881516	0.550813	-0.058663
C84	C	0.942125	0.455126	-0.058689
C85	C	1.009556	0.407265	-0.000097
C86	C	1.016376	0.455106	0.058516
C87	C	0.955768	0.550798	0.058535
C88	C	0.955757	0.550813	0.391132
C89	C	1.016378	0.455126	0.486822
C90	C	1.009579	0.407264	0.593284
C91	C	0.942153	0.455103	0.604056
C92	C	0.881534	0.550795	0.508368
C93	C	0.311736	1.450389	-0.391209
C94	C	0.251115	1.546106	-0.486898
C95	C	0.257913	1.593973	-0.593360
C96	C	0.325339	1.546128	-0.604132
C97	C	0.385959	1.450420	-0.508444
C98	C	0.385976	1.450388	0.058577
C99	C	0.325367	1.546101	0.058577
C100	C	0.257936	1.593965	-0.000019
C101	C	0.251116	1.546120	-0.058628
C102	C	0.311725	1.450415	-0.058633
C103	C	0.669020	0.553227	0.503020
C104	C	0.669021	0.447957	0.608292
H105	H	0.699222	0.592281	-0.103407
F106	F	0.457709	1.399506	-0.519928
H107	H	0.603549	0.559575	0.047645
H108	H	0.961332	0.589730	0.106270
F109	F	0.708499	0.396912	0.721652
F110	F	0.594276	0.453577	0.484651
H111	H	0.699215	0.793858	-0.304982
F112	F	0.179362	1.597005	-0.475410
H113	H	-0.173373	1.213248	-0.106375
F114	F	0.963009	0.601741	0.277836
F115	F	0.809783	0.601682	0.519852
F116	F	0.594269	0.547594	0.390649
H117	H	0.699221	0.793854	-0.488359
H118	H	0.196212	1.213234	-0.106344
F119	F	0.708490	0.396927	-0.118064
H120	H	0.440861	0.787944	0.106273
F121	F	0.934852	0.404224	-0.121072
F122	F	-0.036986	0.758651	0.120926
F123	F	0.332596	0.758644	0.120927
F124	F	0.594267	0.453592	0.062282
F125	F	0.304478	1.242549	-0.120982
H126	H	1.071273	0.416186	0.478031
F127	F	0.304454	1.399502	-0.121001
F128	F	0.304484	1.399460	-0.277912
F129	F	0.809757	0.601735	-0.121034
H130	H	0.071279	0.787950	0.106281
H131	H	0.603548	1.095957	-0.606715
F132	F	-0.065107	1.242553	-0.121018
F133	F	0.594268	1.125239	-0.515364
F134	F	1.074056	0.305419	-0.000125
F135	F	1.074103	0.305418	0.695116
F136	F	0.193390	1.695835	-0.695192
F137	F	1.088147	0.404153	0.120874
H138	H	0.936628	0.416119	0.690750
H139	H	0.330866	1.585114	-0.690825
H140	H	0.440876	1.411425	0.106301
H141	H	0.208590	1.671894	-0.000006
F142	F	0.332641	1.597001	0.120962
F143	F	0.179345	1.597070	-0.120983
F144	F	0.708488	0.604283	0.514292
