data_functionalizedCrystal
_audit_creation_method	'MofGen! by Chris Wilmer'
_symmetry_space_group_name_H-M	'P1'
_symmetry_Int_Tables_number	1
_symmetry_cell_setting	triclinic
loop_
_symmetry_equiv_pos_as_xyz
  x,y,z
_cell_length_a	12.594517
_cell_length_b	21.295417
_cell_length_c	12.594509
_cell_angle_alpha	90.035198
_cell_angle_beta	90.011478
_cell_angle_gamma	90.025589
loop_
_atom_site_label
_atom_site_type_symbol
_atom_site_fract_x
_atom_site_fract_y
_atom_site_fract_z
Zn1	Zn	1.627166	-0.250659	0.601529
Zn2	Zn	2.127166	0.249341	1.101529
Zn3	Zn	1.627014	-0.355938	0.423529
Zn4	Zn	2.127014	0.144062	0.923529
Zn5	Zn	1.449170	-0.250679	0.423588
Zn6	Zn	1.949170	0.249321	0.923588
Zn7	Zn	1.449110	-0.355887	0.601489
Zn8	Zn	1.949110	0.144113	1.101489
O9	O	1.538115	-0.303291	0.512534
O10	O	2.038115	0.196709	1.012534
O11	O	1.776092	-0.264638	0.577908
O12	O	2.276092	0.235362	1.077908
O13	O	1.603385	-0.342005	0.274591
O14	O	2.103385	0.157995	0.774591
O15	O	1.472870	-0.162587	0.447234
O16	O	1.972870	0.337413	0.947234
O17	O	1.775980	-0.341986	0.447132
O18	O	2.275980	0.158014	0.947132
O19	O	1.603643	-0.162573	0.577966
O20	O	2.103643	0.337427	1.077966
O21	O	1.472723	-0.264672	0.274634
O22	O	1.972723	0.235328	0.774634
O23	O	1.300216	-0.264622	0.447196
O24	O	1.800216	0.235378	0.947196
O25	O	1.472767	-0.341899	0.750440
O26	O	1.972767	0.158101	1.250440
O27	O	1.300172	-0.341918	0.577899
O28	O	1.800172	0.158082	1.077899
O29	O	1.603585	-0.264589	0.750469
O30	O	2.103585	0.235411	1.250469
O31	O	1.603326	-0.444021	0.447094
O32	O	2.103326	0.055979	0.947094
O33	O	1.472620	-0.443983	0.577841
O34	O	1.972620	0.056017	1.077841
C35	C	1.261574	-0.303267	0.512550
C36	C	1.761574	0.196733	1.012550
C37	C	1.143269	-0.303272	0.512582
C38	C	1.643269	0.196728	1.012582
C39	C	1.074022	-0.345396	0.583534
C40	C	1.574022	0.154604	1.083534
C41	C	1.003237	-0.288001	0.609724
C42	C	1.503237	0.211999	1.109724
C43	C	1.003255	-0.360714	0.486368
C44	C	1.503255	0.139286	0.986368
C45	C	1.074041	-0.245847	0.538823
C46	C	1.574041	0.254153	1.038823
C47	C	1.074066	-0.318599	0.415422
C48	C	1.574066	0.181401	0.915422
C49	C	1.003312	-0.261164	0.441575
C50	C	1.503312	0.238836	0.941575
C51	C	1.537979	-0.466843	0.512480
C52	C	2.037979	0.033157	1.012480
C53	C	1.538019	-0.536811	0.512492
C54	C	2.038019	-0.036811	1.012492
C55	C	1.606073	-0.569613	0.580613
C56	C	2.106073	-0.069613	1.080613
C57	C	1.606111	-0.635355	0.580639
C58	C	2.106111	-0.135355	1.080639
C59	C	1.538105	-0.668293	0.512526
C60	C	2.038105	-0.168293	1.012526
C61	C	1.470037	-0.635483	0.444400
C62	C	1.970037	-0.135483	0.944400
C63	C	1.469994	-0.569742	0.444383
C64	C	1.969994	-0.069742	0.944383
N65	N	1.530063	-0.771559	0.419377
N66	N	2.030063	-0.271559	0.919377
N67	N	1.530110	-0.834011	0.419396
N68	N	2.030110	-0.334011	0.919396
C69	C	1.538229	-0.866368	0.512574
C70	C	2.038229	-0.366368	1.012574
N71	N	1.546320	-0.833914	0.605735
N72	N	2.046320	-0.333914	1.105735
N73	N	1.546278	-0.771457	0.605714
N74	N	2.046278	-0.271457	1.105714
C75	C	1.538144	-0.739579	0.512537
C76	C	2.038144	-0.239579	1.012537
C77	C	1.606328	-0.970455	0.580729
C78	C	2.106328	-0.470455	1.080729
C79	C	1.606358	-1.036199	0.580757
C80	C	2.106358	-0.536199	1.080757
C81	C	1.470290	-1.036326	0.444508
C82	C	1.970290	-0.536326	0.944508
C83	C	1.470255	-0.970583	0.444490
C84	C	1.970255	-0.470583	0.944490
C85	C	1.538279	-0.937652	0.512599
C86	C	2.038279	-0.437652	1.012599
C87	C	1.815736	-0.303315	0.512518
C88	C	2.315736	0.196685	1.012518
C89	C	1.934041	-0.303326	0.512511
C90	C	2.434041	0.196674	1.012511
C91	C	1.538186	-0.303236	0.790155
C92	C	2.038186	0.196764	1.290155
C93	C	1.538217	-0.303212	0.908460
C94	C	2.038217	0.196788	1.408460
C95	C	1.538280	-0.139101	0.512611
C96	C	2.038280	0.360899	1.012611
C97	C	1.538350	-0.069133	0.512644
C98	C	2.038350	0.430867	1.012644
C99	C	1.538105	-0.303300	0.235993
C100	C	2.038105	0.196700	0.735993
C101	C	1.538281	-0.303147	0.117688
C102	C	2.038281	0.196853	0.617688
C103	C	1.467087	-0.345238	0.977698
C104	C	1.967087	0.154762	1.477698
C105	C	1.564202	-0.360622	1.048468
C106	C	2.064202	0.139378	1.548468
C107	C	1.441178	-0.287790	1.048489
C108	C	1.941178	0.212210	1.548489
C109	C	1.635382	-0.318627	0.977673
C110	C	2.135382	0.181373	1.477673
C111	C	1.512292	-0.245768	0.977687
C112	C	2.012292	0.254232	1.477687
C113	C	1.609474	-0.261131	1.048426
C114	C	2.109474	0.238869	1.548426
H115	H	0.972460	-0.225524	0.381543
H116	H	1.472460	0.274476	0.881543
Cl117	Cl	1.478341	-0.170829	0.929643
Cl118	Cl	1.978341	0.329171	1.429643
H119	H	1.669722	-0.225563	1.079285
H120	H	2.169722	0.274437	1.579285
H121	H	1.586164	-0.409174	1.079559
H122	H	2.086164	0.090826	1.579559
H123	H	1.661520	-0.662068	0.636124
H124	H	2.161520	-0.162068	1.136124
H125	H	1.105005	-0.197277	0.561057
H126	H	1.605005	0.302723	1.061057
H127	H	1.661776	-1.062905	0.636234
H128	H	2.161776	-0.562905	1.136234
H129	H	1.414843	-0.943874	0.389015
H130	H	1.914843	-0.443874	0.889015
H131	H	1.414912	-1.063143	0.389055
H132	H	1.914912	-0.563143	0.889055
H133	H	1.717497	-0.331699	0.946697
H134	H	2.217497	0.168301	1.446697
Cl135	Cl	1.314438	-0.267691	1.096516
Cl136	Cl	1.814438	0.232309	1.596516
Cl137	Cl	1.384538	-0.676890	0.358778
Cl138	Cl	1.884538	-0.176890	0.858778
H139	H	1.105073	-0.380949	0.643613
H140	H	1.605073	0.119051	1.143613
H141	H	0.972125	-0.275056	0.691860
H142	H	1.472125	0.224944	1.191860
Cl143	Cl	1.374291	-0.400190	0.929745
Cl144	Cl	1.874291	0.099810	1.429745
H145	H	0.972156	-0.409270	0.464229
H146	H	1.472156	0.090730	0.964229
Cl147	Cl	1.122102	-0.338600	0.288626
Cl148	Cl	1.622102	0.161400	0.788626
H149	H	1.661460	-0.542802	0.636074
H150	H	2.161460	-0.042802	1.136074
Cl151	Cl	1.384432	-0.528503	0.358739
Cl152	Cl	1.884432	-0.028503	0.858739
H153	H	1.661715	-0.943641	0.636191
H154	H	2.161715	-0.443641	1.136191
