data_functionalizedCrystal
_audit_creation_method	'MofGen! by Chris Wilmer'
_symmetry_space_group_name_H-M	'P1'
_symmetry_Int_Tables_number	1
_symmetry_cell_setting	triclinic
loop_
_symmetry_equiv_pos_as_xyz
  x,y,z
_cell_length_a	18.101398
_cell_length_b	18.101397
_cell_length_c	18.101389
_cell_angle_alpha	90.021047
_cell_angle_beta	90.024327
_cell_angle_gamma	90.015732
loop_
_atom_site_label
_atom_site_type_symbol
_atom_site_fract_x
_atom_site_fract_y
_atom_site_fract_z
Zn1	Zn	1.132176	-0.295001	0.418825
Zn2	Zn	1.632176	0.204999	0.918825
Zn3	Zn	1.132095	-0.418826	0.294978
Zn4	Zn	1.632095	0.081174	0.794978
Zn5	Zn	1.008335	-0.294993	0.294986
Zn6	Zn	1.508335	0.205007	0.794986
Zn7	Zn	1.008308	-0.418795	0.418767
Zn8	Zn	1.508308	0.081205	0.918767
O9	O	1.070228	-0.356904	0.356889
O10	O	1.570228	0.143096	0.856889
O11	O	1.235798	-0.311443	0.402418
O12	O	1.735798	0.188557	0.902418
O13	O	1.115655	-0.402410	0.191346
O14	O	1.615655	0.097590	0.691346
O15	O	1.024807	-0.191361	0.311442
O16	O	1.524807	0.308639	0.811442
O17	O	1.235738	-0.402417	0.311428
O18	O	1.735738	0.097583	0.811428
O19	O	1.115793	-0.191367	0.402426
O20	O	1.615793	0.308633	0.902426
O21	O	1.024729	-0.311430	0.191352
O22	O	1.524729	0.188570	0.691352
O23	O	0.904698	-0.311399	0.311385
O24	O	1.404698	0.188601	0.811385
O25	O	1.024763	-0.402363	0.522407
O26	O	1.524763	0.097637	1.022407
O27	O	0.904679	-0.402356	0.402326
O28	O	1.404679	0.097644	0.902326
O29	O	1.115767	-0.311412	0.522450
O30	O	1.615767	0.188588	1.022450
O31	O	1.115629	-0.522455	0.311371
O32	O	1.615629	-0.022455	0.811371
O33	O	1.024684	-0.522432	0.402318
O34	O	1.524684	-0.022432	0.902318
C35	C	0.877818	-0.356874	0.356850
C36	C	1.377818	0.143126	0.856850
C37	C	0.795504	-0.356879	0.356851
C38	C	1.295504	0.143121	0.856851
C39	C	0.496413	-0.356925	0.356914
C40	C	0.996413	0.143075	0.856914
C41	C	0.527725	-0.299411	0.299975
C42	C	1.027725	0.200589	0.799975
C43	C	0.613344	-0.299566	0.299732
C44	C	1.113344	0.200434	0.799732
C45	C	0.644795	-0.356901	0.356883
C46	C	1.144795	0.143099	0.856883
C47	C	0.613692	-0.434909	0.335555
C48	C	1.113692	0.065091	0.835555
C49	C	0.528046	-0.434590	0.335159
C50	C	1.028046	0.065410	0.835159
C51	C	0.528024	-0.337109	0.435314
C52	C	1.028024	0.162891	0.935314
C53	C	0.613674	-0.335371	0.434886
C54	C	1.113674	0.164629	0.934886
C55	C	0.728655	-0.356893	0.356867
C56	C	1.228655	0.143107	0.856867
C57	C	0.412553	-0.356939	0.356928
C58	C	0.912553	0.143061	0.856928
C59	C	1.070165	-0.549314	0.356853
C60	C	1.570165	-0.049314	0.856853
C61	C	1.070206	-0.631628	0.356863
C62	C	1.570206	-0.131628	0.856863
C63	C	1.070300	-0.930719	0.356930
C64	C	1.570300	-0.430719	0.856930
C65	C	1.127361	-0.899378	0.299555
C66	C	1.627361	-0.399378	0.799555
C67	C	1.127559	-0.813759	0.299704
C68	C	1.627559	-0.313759	0.799704
C69	C	1.070253	-0.782337	0.356896
C70	C	1.570253	-0.282337	0.856896
C71	C	1.091409	-0.813359	0.434959
C72	C	1.591409	-0.313359	0.934959
C73	C	1.091851	-0.899004	0.434646
C74	C	1.591851	-0.399004	0.934646
C75	C	0.991931	-0.899218	0.336918
C76	C	1.491931	-0.399218	0.836918
C77	C	0.992318	-0.813569	0.335175
C78	C	1.492318	-0.313569	0.835175
C79	C	1.070226	-0.698477	0.356881
C80	C	1.570226	-0.198477	0.856881
C81	C	1.070330	-1.014579	0.356950
C82	C	1.570330	-0.514579	0.856950
C83	C	1.263390	-0.356934	0.356928
C84	C	1.763390	0.143066	0.856928
C85	C	1.345704	-0.356948	0.356945
C86	C	1.845704	0.143052	0.856945
C87	C	1.070271	-0.356885	0.550051
C88	C	1.570271	0.143115	1.050051
C89	C	1.070289	-0.356877	0.632365
C90	C	1.570289	0.143123	1.132365
C91	C	1.070312	-0.163742	0.356941
C92	C	1.570312	0.336258	0.856941
C93	C	1.070348	-0.081428	0.356964
C94	C	1.570348	0.418572	0.856964
C95	C	1.070228	-0.356869	0.164479
C96	C	1.570228	0.143131	0.664479
C97	C	1.070354	-0.356668	0.082165
C98	C	1.570354	0.143332	0.582165
C99	C	1.070333	-0.356738	0.931456
C100	C	1.570333	0.143262	1.431456
C101	C	1.012878	-0.413780	0.900104
C102	C	1.512878	0.086220	1.400104
C103	C	1.013033	-0.414045	0.814486
C104	C	1.513033	0.085955	1.314486
C105	C	1.070310	-0.356807	0.783074
C106	C	1.570310	0.143193	1.283074
C107	C	1.148340	-0.377998	0.814178
C108	C	1.648340	0.122002	1.314178
C109	C	1.148020	-0.378372	0.899823
C110	C	1.648020	0.121628	1.399823
C111	C	1.050437	-0.278379	0.899884
C112	C	1.550437	0.221621	1.399884
C113	C	1.048701	-0.278832	0.814233
C114	C	1.548701	0.221168	1.314233
C115	C	1.070303	-0.356845	0.699214
C116	C	1.570303	0.143155	1.199214
C117	C	1.070345	-0.356702	1.015316
C118	C	1.570345	0.143298	1.515316
H119	H	0.507144	-0.241388	0.313197
H120	H	1.007144	0.258612	0.813197
H121	H	0.635110	-0.452008	0.278859
H122	H	1.135110	0.047992	0.778859
H123	H	0.506441	-0.281216	0.454705
H124	H	1.006441	0.218784	0.954705
O125	O	0.641203	-0.222940	0.317435
O126	O	1.141203	0.277060	0.817435
H127	H	0.702521	-0.222974	0.317281
H128	H	1.202521	0.277026	0.817281
H129	H	0.633800	-0.312665	0.241639
H130	H	1.133800	0.187335	0.741639
O131	O	1.110407	-0.926697	0.222568
O132	O	1.610407	-0.426697	0.722568
H133	H	1.158419	-0.958300	0.201242
H134	H	1.658419	-0.458300	0.701242
O135	O	0.935997	-0.396393	0.927359
O136	O	1.435997	0.103607	1.427359
H137	H	0.935036	-0.398939	0.988616
H138	H	1.435036	0.101061	1.488616
H139	H	1.025884	-0.471508	0.921627
H140	H	1.525884	0.028492	1.421627
H141	H	1.185610	-0.793223	0.312946
H142	H	1.685610	-0.293223	0.812946
O143	O	1.203842	-0.927807	0.316894
O144	O	1.703842	-0.427807	0.816894
H145	H	1.201392	-0.964161	0.366198
H146	H	1.701392	-0.464161	0.866198
H147	H	1.164885	-0.435654	0.919804
H148	H	1.664885	0.064346	1.419804
O149	O	1.105860	-0.222077	0.926744
O150	O	1.605860	0.277923	1.426744
H151	H	1.147378	-0.249721	0.962408
H152	H	1.647378	0.250279	1.462408
O153	O	1.167730	-0.925409	0.457090
O154	O	1.667730	-0.425409	0.957090
H155	H	1.203764	-0.877007	0.468061
H156	H	1.703764	-0.377007	0.968061
O157	O	0.976368	-0.252814	0.928463
O158	O	1.476368	0.247186	1.428463
H159	H	0.978151	-0.249587	0.989672
H160	H	1.478151	0.250413	1.489672
H161	H	1.052111	-0.919734	0.478868
H162	H	1.552111	-0.419734	0.978868
O163	O	1.171076	-0.453067	0.785781
O164	O	1.671076	0.046933	1.285781
H165	H	1.130122	-0.494975	0.803842
H166	H	1.630122	0.005025	1.303842
O167	O	1.030435	-0.490999	0.787398
O168	O	1.530435	0.009001	1.287398
H169	H	1.081495	-0.489631	0.753496
H170	H	1.581495	0.010369	1.253496
O171	O	0.499209	-0.316572	0.223463
O172	O	0.999209	0.183428	0.723463
H173	H	0.462830	-0.365886	0.225812
H174	H	0.962830	0.134114	0.725812
H175	H	0.508038	-0.451397	0.277844
H176	H	1.008038	0.048603	0.777844
O177	O	0.972639	-0.257653	0.787306
O178	O	1.472639	0.242347	1.287306
H179	H	0.976223	-0.205752	0.754869
H180	H	1.476223	0.294248	1.254869
H181	H	1.192298	-0.337757	0.793834
H182	H	1.692298	0.162243	1.293834
H183	H	0.947517	-0.792186	0.373903
H184	H	1.447517	-0.292186	0.873903
H185	H	1.192280	-0.338629	0.920566
H186	H	1.692280	0.161371	1.420566
O187	O	0.642023	-0.386812	0.494104
O188	O	1.142023	0.113188	0.994104
H189	H	0.594660	-0.414864	0.521101
H190	H	1.094660	0.085136	1.021101
O191	O	0.935548	-0.926063	0.392203
O192	O	1.435548	-0.426063	0.892203
H193	H	0.892212	-0.958272	0.363100
H194	H	1.392212	-0.458272	0.863100
H195	H	0.976366	-0.793299	0.277727
H196	H	1.476366	-0.293299	0.777727
O197	O	0.500599	-0.493265	0.387698
O198	O	1.000599	0.006735	0.887698
H199	H	0.548499	-0.521748	0.413270
H200	H	1.048499	-0.021748	0.913270
O201	O	1.100087	-0.219541	0.785923
O202	O	1.600087	0.280459	1.285923
H203	H	1.142022	-0.244837	0.749041
H204	H	1.642022	0.255163	1.249041
H205	H	0.634064	-0.478909	0.375728
H206	H	1.134064	0.021091	0.875728
H207	H	0.507775	-0.378999	0.477738
H208	H	1.007775	0.121001	0.977738
O209	O	0.640605	-0.259333	0.456197
O210	O	1.140605	0.240667	0.956197
H211	H	0.701894	-0.259189	0.458120
H212	H	1.201894	0.240811	0.958120
O213	O	1.110043	-0.785969	0.223032
O214	O	1.610043	-0.285969	0.723032
H215	H	1.101355	-0.833703	0.185512
H216	H	1.601355	-0.333703	0.685512
H217	H	1.051120	-0.793003	0.478857
H218	H	1.551120	-0.293003	0.978857
H219	H	1.148052	-0.791859	0.452196
H220	H	1.648052	-0.291859	0.952196
H221	H	0.972685	-0.920868	0.280981
H222	H	1.472685	-0.420868	0.780981
H223	H	0.955171	-0.400783	0.793454
H224	H	1.455171	0.099217	1.293454
