data_functionalizedCrystal
_audit_creation_method	'MofGen! by Chris Wilmer'
_symmetry_space_group_name_H-M	'P1'
_symmetry_Int_Tables_number	1
_symmetry_cell_setting	triclinic
loop_
_symmetry_equiv_pos_as_xyz
  x,y,z
_cell_length_a	19.077105
_cell_length_b	16.959454
_cell_length_c	19.076919
_cell_angle_alpha	92.275489
_cell_angle_beta	90.076224
_cell_angle_gamma	87.716588
loop_
_atom_site_label
_atom_site_type_symbol
_atom_site_fract_x
_atom_site_fract_y
_atom_site_fract_z
Zn1	Zn	1.058295	-0.382399	-0.440440
Zn2	Zn	1.062944	-0.509490	-0.322940
Zn3	Zn	0.945513	-0.371810	-0.318233
Zn4	Zn	0.940765	-0.509013	-0.435693
O5	O	1.001879	-0.443178	-0.379326
O6	O	1.157244	-0.403889	-0.428810
O7	O	1.051298	-0.486995	-0.223984
O8	O	0.960515	-0.262606	-0.334460
O9	O	1.160659	-0.497262	-0.342484
O10	O	1.043376	-0.270386	-0.424245
O11	O	0.965022	-0.385842	-0.220526
O12	O	0.846551	-0.385379	-0.329857
O13	O	0.952424	-0.496450	-0.534654
O14	O	0.843063	-0.486182	-0.416155
O15	O	1.038773	-0.403426	-0.538142
O16	O	1.046695	-0.620035	-0.337881
O17	O	0.956931	-0.619685	-0.420720
C18	C	0.819311	-0.434581	-0.371980
C19	C	0.741206	-0.430922	-0.368854
C20	C	0.702718	-0.481759	-0.412246
C21	C	0.629330	-0.478312	-0.409312
C22	C	0.594433	-0.424030	-0.362983
C23	C	0.632926	-0.373188	-0.319590
C24	C	0.706312	-0.376632	-0.322528
C25	C	0.375144	-0.408090	-0.349389
C26	C	0.301753	-0.404651	-0.346453
C27	C	0.298162	-0.509774	-0.436177
C28	C	0.371550	-0.513217	-0.439107
C29	C	0.410037	-0.462372	-0.395717
N30	N	0.519419	-0.420507	-0.359981
N31	N	0.485049	-0.465892	-0.398723
C32	C	1.001821	-0.648541	-0.379312
C33	C	1.001859	-0.736400	-0.379332
C34	C	0.955205	-1.107727	-0.422458
C35	C	1.048747	-1.108038	-0.336274
C36	C	1.048723	-1.025491	-0.336266
C37	C	1.001938	-0.984058	-0.379355
C38	C	0.955178	-1.025172	-0.422451
C39	C	1.095477	-0.984370	-0.293166
C40	C	1.095454	-0.901818	-0.293156
C41	C	1.048672	-0.860383	-0.336249
C42	C	1.001911	-0.901503	-0.379347
C43	C	0.955126	-0.860069	-0.422436
C44	C	0.908367	-0.901187	-0.465538
C45	C	0.908396	-0.983737	-0.465543
C46	C	1.048644	-0.777834	-0.336244
C47	C	0.955099	-0.777514	-0.422428
C48	C	1.185161	-0.451810	-0.386702
C49	C	1.263265	-0.455488	-0.389844
C50	C	0.994550	-0.451066	-0.562607
C51	C	0.991427	-0.454427	-0.640710
C52	C	1.001956	-0.237015	-0.379357
C53	C	1.001989	-0.149160	-0.379370
C54	C	1.034915	-0.407577	-0.679220
C55	C	1.031972	-0.410731	-0.752606
C56	C	0.985544	-0.460742	-0.787481
C57	C	0.942052	-0.507595	-0.748966
C58	C	0.944992	-0.504435	-0.675581
C59	C	0.971927	-0.475381	-1.006763
C60	C	0.968992	-0.478539	-1.080153
C61	C	1.058911	-0.381674	-1.083788
C62	C	1.061850	-0.378523	-1.010402
C63	C	1.018355	-0.425372	-0.971893
N64	N	0.982536	-0.463970	-0.862493
N65	N	1.021360	-0.422140	-0.896882
C66	C	1.009220	-0.435266	-0.196760
C67	C	1.012479	-0.431688	-0.118663
H68	H	0.399959	-0.557420	-0.476832
C69	C	0.924626	-0.526106	-0.964911
C70	C	0.881282	-0.477409	-0.920989
C71	C	0.837691	-0.524108	-0.882425
H72	H	0.952560	-0.560585	-0.937298
H73	H	0.896513	-0.556331	-0.996163
H74	H	0.909392	-0.447198	-0.889741
H75	H	0.853333	-0.442930	-0.948584
H76	H	0.809578	-0.554332	-0.913676
H77	H	0.865631	-0.558585	-0.854816
H78	H	0.808273	-0.491073	-0.852624
H79	H	0.597996	-0.519710	-0.444645
H80	H	0.731126	-0.525964	-0.449970
C81	C	0.857612	-0.856304	-0.512436
C82	C	0.870075	-0.880066	-0.582588
C83	C	0.823330	-0.838741	-0.625808
H84	H	0.864247	-0.801242	-0.506346
H85	H	0.810809	-0.867226	-0.500263
H86	H	0.916867	-0.869138	-0.594757
H87	H	0.863434	-0.935122	-0.588700
H88	H	0.776526	-0.849663	-0.613635
H89	H	0.829969	-0.783681	-0.619712
H90	H	0.831775	-0.854863	-0.673411
H91	H	1.067386	-0.372582	-0.783958
H92	H	0.266818	-0.551169	-0.471504
C93	C	1.146188	-0.857275	-0.246251
C94	C	1.133746	-0.873690	-0.176103
C95	C	1.180476	-0.832679	-0.132877
H96	H	1.139525	-0.802163	-0.252324
H97	H	1.192997	-0.873447	-0.258435
H98	H	1.086949	-0.857513	-0.163923
H99	H	1.140414	-0.928794	-0.170008
H100	H	1.227285	-0.848851	-0.145061
H101	H	1.173809	-0.777569	-0.138956
H102	H	1.172045	-0.843816	-0.085278
H103	H	1.133562	-1.018111	-0.258080
H104	H	0.737648	-0.335231	-0.287197
H105	H	0.909572	-0.542578	-0.644227
C106	C	1.085211	-0.353220	-0.641267
C107	C	1.047130	-0.298884	-0.597529
C108	C	1.093439	-0.248800	-0.562551
H109	H	1.110706	-0.325690	-0.674636
H110	H	1.116957	-0.383637	-0.613827
H111	H	1.015397	-0.268470	-0.624967
H112	H	1.021638	-0.326391	-0.564147
H113	H	1.125185	-0.279217	-0.535111
H114	H	1.118931	-0.221276	-0.595926
H115	H	1.067608	-0.211932	-0.532867
H116	H	0.870326	-1.017223	-0.500634
C117	C	0.263990	-0.345629	-0.296130
C118	C	0.313401	-0.301823	-0.258772
C119	C	0.278639	-0.247443	-0.212417
H120	H	0.236576	-0.373058	-0.264258
H121	H	0.234313	-0.311015	-0.321905
H122	H	0.343066	-0.336432	-0.232999
H123	H	0.340817	-0.274377	-0.290626
H124	H	0.248962	-0.212829	-0.238192
H125	H	0.251226	-0.274879	-0.180550
H126	H	0.312159	-0.217709	-0.187069
C127	C	0.417012	-0.353022	-0.302237
C128	C	0.460940	-0.397729	-0.258826
C129	C	0.499526	-0.347025	-0.215383
H130	H	0.385796	-0.320189	-0.274161
H131	H	0.444617	-0.321140	-0.330294
H132	H	0.433336	-0.429597	-0.230771
H133	H	0.492169	-0.430559	-0.286883
H134	H	0.527132	-0.315143	-0.243440
H135	H	0.468305	-0.314195	-0.187312
H136	H	0.529340	-0.377351	-0.185928
C137	C	0.904340	-0.732639	-0.469328
C138	C	0.916803	-0.756410	-0.539479
C139	C	0.870053	-0.715096	-0.582703
H140	H	0.910970	-0.677576	-0.463245
H141	H	0.857538	-0.743566	-0.457153
H142	H	0.963594	-0.745477	-0.551650
H143	H	0.910168	-0.811467	-0.545584
H144	H	0.823252	-0.726023	-0.570527
H145	H	0.876687	-0.660035	-0.576613
H146	H	0.878499	-0.731224	-0.630304
H147	H	0.917137	-1.141209	-0.457553
H148	H	0.604506	-0.328988	-0.281870
H149	H	1.086833	-1.141778	-0.301189
C150	C	1.106245	-0.330907	-1.125566
C151	C	1.176479	-0.350635	-1.110529
C152	C	1.220102	-0.303886	-1.149008
H153	H	1.096552	-0.276775	-1.113166
H154	H	1.097893	-0.339957	-1.174275
H155	H	1.184827	-0.341578	-1.061831
H156	H	1.186193	-0.404758	-1.122932
H157	H	1.211750	-0.312937	-1.197717
H158	H	1.210403	-0.249758	-1.136605
H159	H	1.267760	-0.317270	-1.138816
C160	C	1.099326	-0.733046	-0.289476
C161	C	1.089281	-0.651883	-0.298680
C162	C	1.135954	-0.610601	-0.255600
H163	H	1.146154	-0.749103	-0.301651
H164	H	1.090963	-0.744034	-0.241828
H165	H	1.097650	-0.640901	-0.346317
H166	H	1.042463	-0.635803	-0.286500
H167	H	1.127590	-0.621588	-0.207952
H168	H	1.182778	-0.626664	-0.267779
H169	H	1.129140	-0.555527	-0.261834
H170	H	0.931183	-0.519265	-1.108546
C171	C	1.112166	-0.324071	-0.972590
C172	C	1.096152	-0.245922	-0.989840
C173	C	1.142483	-0.195734	-0.955022
H174	H	1.158919	-0.338271	-0.986494
H175	H	1.107693	-0.328831	-0.923360
H176	H	1.100631	-0.241166	-1.039060
H177	H	1.049407	-0.231698	-0.975935
H178	H	1.138011	-0.200493	-0.905791
H179	H	1.189233	-0.209940	-0.968928
H180	H	1.131620	-0.142703	-0.966716
H181	H	0.904247	-0.548311	-0.777367
