data_functionalizedCrystal
_audit_creation_method	'MofGen! by Chris Wilmer'
_symmetry_space_group_name_H-M	'P1'
_symmetry_Int_Tables_number	1
_symmetry_cell_setting	triclinic
loop_
_symmetry_equiv_pos_as_xyz
  x,y,z
_cell_length_a	11.026644
_cell_length_b	10.868271
_cell_length_c	11.026607
_cell_angle_alpha	90.002960
_cell_angle_beta	71.414918
_cell_angle_gamma	89.995680
loop_
_atom_site_label
_atom_site_type_symbol
_atom_site_fract_x
_atom_site_fract_y
_atom_site_fract_z
O1	O	-1.726718	0.102345	0.533595
O2	O	-1.226718	0.602345	1.033595
O3	O	-1.360141	0.102341	0.472837
O4	O	-0.860141	0.602341	0.972837
O5	O	-1.513048	0.102338	0.319926
O6	O	-1.013048	0.602338	0.819926
O7	O	-1.573811	0.102348	0.686505
O8	O	-1.073811	0.602348	1.186505
O9	O	-1.513030	-0.102306	0.319915
O10	O	-1.013030	0.397694	0.819915
O11	O	-1.360123	-0.102303	0.472826
O12	O	-0.860123	0.397697	0.972826
O13	O	-1.726700	-0.102300	0.533583
O14	O	-1.226700	0.397700	1.033583
Zn15	Zn	-1.543409	-0.134793	0.503203
Zn16	Zn	-1.043409	0.365207	1.003203
Zn17	Zn	-1.543432	0.134835	0.503218
Zn18	Zn	-1.043432	0.634835	1.003218
O19	O	-1.573793	-0.102297	0.686494
O20	O	-1.073793	0.397703	1.186494
C21	C	-1.312473	0.000018	0.461623
C22	C	-0.812473	0.500018	0.961623
C23	C	-1.170460	0.000017	0.428208
C24	C	-0.670460	0.500017	0.928208
C25	C	-0.970034	0.000020	0.485951
C26	C	-0.470034	0.500020	0.985951
C27	C	-1.116812	0.000020	0.520489
C28	C	-0.616812	0.500020	1.020489
N29	N	-1.543402	-0.318808	0.503194
N30	N	-1.043402	0.181192	1.003194
C31	C	-1.543425	-0.569814	0.503214
C32	C	-1.043425	-0.069814	1.003214
C33	C	-1.543409	-0.430136	0.503206
C34	C	-1.043409	0.069864	1.003206
C35	C	-0.774368	0.000022	0.544800
C36	C	-0.274368	0.500022	1.044800
C37	C	-0.916381	0.000022	0.578219
C38	C	-0.416381	0.500022	1.078219
C39	C	-1.501829	0.000017	0.272261
C40	C	-1.001829	0.500017	0.772261
C41	C	-1.468413	0.000021	0.130248
C42	C	-0.968413	0.500021	0.630248
N43	N	-1.543447	0.318849	0.503218
N44	N	-1.043447	0.818849	1.003218
C45	C	-1.560681	0.000024	0.076597
C46	C	-1.060681	0.500024	0.576597
C47	C	-1.526146	0.000028	-0.070181
C48	C	-1.026146	0.500028	0.429819
C49	C	-1.585012	0.000027	0.734159
C50	C	-1.085012	0.500027	1.234159
C51	C	-1.618428	0.000031	0.876173
C52	C	-1.118428	0.500031	1.376173
H53	H	-1.107737	0.000096	0.323638
H54	H	-0.607737	0.500096	0.823638
Br55	Br	-1.221349	0.000009	0.694781
Br56	Br	-0.721349	0.500009	1.194781
Br57	Br	-0.865493	0.000002	0.311666
Br58	Br	-0.365493	0.500002	0.811666
Br59	Br	-1.792720	0.000043	-0.019291
Br60	Br	-1.292720	0.500043	0.480709
H61	H	-0.979111	0.000018	0.682782
H62	H	-0.479111	0.500018	1.182782
Br63	Br	-1.734965	0.000038	0.181141
Br64	Br	-1.234965	0.500038	0.681141
Br65	Br	-1.351856	0.000044	-0.174720
Br66	Br	-0.851856	0.500044	0.325280
Br67	Br	-1.294129	0.000038	0.025704
Br68	Br	-0.794129	0.500038	0.525704
