data_functionalizedCrystal
_audit_creation_method	'MofGen! by Chris Wilmer'
_symmetry_space_group_name_H-M	'P1'
_symmetry_Int_Tables_number	1
_symmetry_cell_setting	triclinic
loop_
_symmetry_equiv_pos_as_xyz
  x,y,z
_cell_length_a	15.538191
_cell_length_b	14.044220
_cell_length_c	14.750779
_cell_angle_alpha	76.182253
_cell_angle_beta	97.572172
_cell_angle_gamma	70.230486
loop_
_atom_site_label
_atom_site_type_symbol
_atom_site_fract_x
_atom_site_fract_y
_atom_site_fract_z
O1	O	1.206574	-0.272382	-0.079830
O2	O	0.941253	-0.166009	-0.079832
O3	O	1.069934	-0.355813	-0.079822
O4	O	1.077894	-0.082578	-0.079840
O5	O	1.106310	-0.409464	0.079832
O6	O	0.977630	-0.219660	0.079821
O7	O	1.242951	-0.326033	0.079823
Zn8	Zn	1.116066	-0.281365	0.105171
Zn9	Zn	1.068138	-0.210677	-0.105179
O10	O	1.114271	-0.136229	0.079813
C11	C	0.925281	-0.181705	-0.000006
C12	C	0.823493	-0.148554	-0.000006
C13	C	0.508030	-0.477901	0.000002
C14	C	0.412383	-0.446726	-0.000001
C15	C	0.404671	-0.271379	-0.000013
C16	C	0.500321	-0.302541	-0.000005
C17	C	0.551992	-0.405802	0.000001
C18	C	0.544283	-0.230442	-0.000006
C19	C	0.639923	-0.261599	-0.000004
C20	C	0.691600	-0.364855	-0.000000
C21	C	0.647632	-0.436960	0.000003
C22	C	0.492608	-0.127179	-0.000020
C23	C	0.536570	-0.055080	-0.000020
C24	C	0.632213	-0.086239	-0.000011
C25	C	0.683891	-0.189495	-0.000008
C26	C	0.676182	-0.014135	-0.000015
C27	C	0.771821	-0.045293	-0.000012
C28	C	0.779531	-0.220653	-0.000005
C29	C	1.084636	-0.416754	0.000005
C30	C	1.074236	-0.518402	0.000007
C31	C	1.055220	-0.704517	-0.000007
C32	C	1.128978	-0.787527	-0.000010
C33	C	1.118398	-0.891088	-0.000018
C34	C	1.065800	-0.600946	0.000000
C35	C	1.258923	-0.310337	-0.000005
C36	C	1.360709	-0.343485	-0.000011
C37	C	1.099569	-0.075288	-0.000016
C38	C	1.109967	0.026362	-0.000024
N39	N	1.148782	-0.329610	0.248729
N40	N	1.035429	-0.162442	-0.248738
C41	C	0.944054	-0.027741	0.600530
C42	C	0.966986	-0.061544	0.701031
C43	C	1.080962	-0.229579	0.701003
C44	C	1.058036	-0.195791	0.600500
C45	C	0.989582	-0.094871	0.550272
C46	C	1.103564	-0.262921	0.550242
C47	C	1.080643	-0.229134	0.449748
C48	C	1.012193	-0.128217	0.399512
C49	C	0.966661	-0.061084	0.449778
C50	C	1.172023	-0.363838	0.600472
C51	C	1.217551	-0.430968	0.550214
C52	C	1.194625	-0.397185	0.449718
C53	C	1.126176	-0.296267	0.399482
C54	C	1.240158	-0.464318	0.399452
C55	C	1.217236	-0.430530	0.298958
C56	C	1.103254	-0.262480	0.298988
H57	H	0.414731	-0.101813	-0.000025
C58	C	1.217002	-0.676149	0.000018
C59	C	1.224956	-0.778480	0.000006
H60	H	1.276255	-0.670566	0.000036
H61	H	1.172011	-0.625529	-0.055656
H62	H	1.197360	-0.662962	0.055693
H63	H	1.244592	-0.791665	-0.055674
H64	H	1.269962	-0.829115	0.055685
H65	H	0.807618	0.013414	-0.000004
C66	C	0.506056	-0.648119	0.000007
C67	C	0.564837	-0.591408	0.000005
H68	H	0.541126	-0.718186	0.000001
H69	H	0.481283	-0.651036	0.055680
H70	H	0.455902	-0.613602	-0.055670
H71	H	0.614987	-0.625921	0.055686
H72	H	0.589624	-0.588496	-0.055673
C73	C	1.055817	-0.074117	0.268038
C74	C	1.028006	-0.151548	0.243761
H75	H	1.009366	-0.005636	0.233937
H76	H	1.062938	-0.084626	0.335072
H77	H	1.114002	-0.079567	0.251554
H78	H	0.969823	-0.146103	0.260253
H79	H	1.020873	-0.141035	0.176713
C80	C	0.892921	-0.638944	-0.082076
C81	C	0.959254	-0.713575	-0.000008
H82	H	0.833679	-0.644552	-0.082074
H83	H	0.887529	-0.569532	-0.082064
H84	H	0.912563	-0.652147	-0.137747
H85	H	0.939615	-0.700366	0.055664
H86	H	0.964643	-0.783002	-0.000010
H87	H	1.136701	-0.311748	0.741911
H88	H	0.993535	-0.100707	0.317683
H89	H	0.910911	0.021091	0.408880
C90	C	0.833678	0.134987	0.610642
C91	C	0.868806	0.083194	0.545309
H92	H	0.787231	0.203472	0.576548
H93	H	0.806465	0.094770	0.649843
H94	H	0.883515	0.141858	0.649833
H95	H	0.818970	0.076315	0.506123
H96	H	0.896018	0.123420	0.506092
C97	C	0.290606	-0.485844	-0.082071
C98	C	0.364058	-0.525986	0.000003
H99	H	0.260776	-0.534777	-0.082071
H100	H	0.246150	-0.419899	-0.082066
H101	H	0.315083	-0.475649	-0.137738
H102	H	0.339580	-0.536173	0.055671
H103	H	0.408521	-0.591949	0.000007
H104	H	0.929907	-0.006869	0.741947
C105	C	1.117047	-0.401229	0.744454
C106	C	1.197220	-0.400988	0.710938
H107	H	1.132607	-0.424171	0.812650
H108	H	1.069772	-0.331526	0.721739
H109	H	1.094401	-0.448169	0.721712
H110	H	1.219863	-0.354041	0.733674
H111	H	1.244512	-0.470701	0.733663
H112	H	1.273289	-0.513137	0.591121
C113	C	0.481849	0.131564	-0.082100
C114	C	0.479765	0.058422	-0.000028
H115	H	0.446776	0.201635	-0.082104
H116	H	0.545094	0.123326	-0.082089
H117	H	0.455074	0.119345	-0.137769
H118	H	0.506547	0.070636	0.055641
H119	H	0.416507	0.066665	-0.000031
H120	H	1.295900	-0.546484	0.440361
H121	H	1.254311	-0.485195	0.258037
H122	H	0.769474	-0.390218	-0.000011
C123	C	0.796869	-0.352143	-0.082068
C124	C	0.836343	-0.334159	0.000001
H125	H	0.831948	-0.422211	-0.082066
H126	H	0.733630	-0.343920	-0.082058
H127	H	0.798273	-0.302503	-0.137738
H128	H	0.834933	-0.383795	0.055672
H129	H	0.899599	-0.342393	0.000000
H130	H	0.362586	-0.187302	-0.000022
H131	H	0.689708	-0.521047	0.000014
H132	H	0.634094	0.069943	-0.000030
