data_functionalizedCrystal
_audit_creation_method	'MofGen! by Chris Wilmer'
_symmetry_space_group_name_H-M	'P1'
_symmetry_Int_Tables_number	1
_symmetry_cell_setting	triclinic
loop_
_symmetry_equiv_pos_as_xyz
  x,y,z
_cell_length_a	6.817900
_cell_length_b	9.109307
_cell_length_c	16.256277
_cell_angle_alpha	99.825227
_cell_angle_beta	103.500353
_cell_angle_gamma	111.764999
loop_
_atom_site_label
_atom_site_type_symbol
_atom_site_fract_x
_atom_site_fract_y
_atom_site_fract_z
V1	V	-4.082686	-0.226756	-0.280345
O2	O	-4.011967	0.009542	-0.258158
O3	O	-4.088802	-0.448316	-0.294634
O4	O	-4.033592	-0.223862	-0.395219
O5	O	-4.067560	-0.216465	-0.156876
V6	V	-4.559340	-0.198422	-0.263608
O7	O	-4.359012	-0.288909	-0.317058
O8	O	-4.733211	-0.136268	-0.226895
O9	O	-4.330017	0.023138	-0.249319
O10	O	-4.747455	-0.434719	-0.285795
O11	O	-4.691863	-0.208712	-0.387077
O12	O	-4.385227	-0.201315	-0.148734
C13	C	-3.947087	-0.502309	-0.294393
C14	C	-4.033370	-0.683440	-0.306842
C15	C	-3.876660	-0.215994	-0.422698
C16	C	-3.918164	-0.215094	-0.516715
C17	C	-4.210656	-0.221382	-0.748992
C18	C	-4.069684	-0.081544	-0.781925
C19	C	-3.994044	-0.213401	-0.688838
C20	C	-4.208897	-0.351536	-0.823411
C21	C	-4.067358	-0.211772	-0.855103
C22	C	-3.852468	-0.073463	-0.720516
C23	C	-3.991768	-0.343579	-0.762016
C24	C	-3.850628	-0.203702	-0.794915
C25	C	-3.951814	-0.214337	-0.593057
C26	C	-4.109566	-0.210823	-0.950880
C27	C	-4.135076	0.077122	-0.249558
C28	C	-4.028032	0.258253	-0.237115
C29	C	-4.205503	-0.209189	-0.121251
C30	C	-4.143235	-0.210080	-0.027232
H31	H	-3.957496	-0.653092	-0.167878
C32	C	-4.114737	0.068108	-0.794570
C33	C	-4.160505	0.097182	-0.886330
C34	C	-4.205599	0.246813	-0.898981
C35	C	-4.204926	0.367370	-0.819872
C36	C	-4.159157	0.338299	-0.728106
C37	C	-4.114062	0.188668	-0.715455
H38	H	-4.161005	0.007936	-0.944897
H39	H	-4.239481	0.268332	-0.966913
H40	H	-4.238308	0.478135	-0.829237
H41	H	-4.158657	0.427545	-0.669539
H42	H	-4.080181	0.167149	-0.647523
C43	C	-4.128675	-0.803206	-0.400387
C44	C	-4.217734	-0.990377	-0.413158
C45	C	-4.313038	-1.110142	-0.506701
C46	C	-4.319283	-1.042736	-0.587473
C47	C	-4.230221	-0.855556	-0.574704
C48	C	-4.134917	-0.735791	-0.481161
H49	H	-4.213114	-1.040284	-0.353363
H50	H	-4.378967	-1.248706	-0.516152
H51	H	-4.389832	-1.131394	-0.656719
H52	H	-4.234841	-0.805649	-0.634499
H53	H	-4.068987	-0.597227	-0.471710
H54	H	-4.362330	-0.228694	-0.728633
H55	H	-3.701438	0.044163	-0.676181
H56	H	-3.698643	-0.196176	-0.815082
H57	H	-3.958520	-0.454386	-0.752658
H58	H	-4.359998	-0.469039	-0.867833
