data_functionalizedCrystal
_audit_creation_method	'MofGen! by Chris Wilmer'
_symmetry_space_group_name_H-M	'P1'
_symmetry_Int_Tables_number	1
_symmetry_cell_setting	triclinic
loop_
_symmetry_equiv_pos_as_xyz
  x,y,z
_cell_length_a	29.839134
_cell_length_b	29.839131
_cell_length_c	15.296720
_cell_angle_alpha	99.637563
_cell_angle_beta	99.664648
_cell_angle_gamma	90.021992
loop_
_atom_site_label
_atom_site_type_symbol
_atom_site_fract_x
_atom_site_fract_y
_atom_site_fract_z
Zn1	Zn	0.642753	-0.223018	-0.510038
Zn2	Zn	0.655690	-0.285154	-0.359179
Zn3	Zn	0.580638	-0.210016	-0.359204
Zn4	Zn	0.567589	-0.298091	-0.509980
O5	O	0.611668	-0.254070	-0.434600
O6	O	0.707335	-0.231288	-0.490040
O7	O	0.656609	-0.264332	-0.232948
O8	O	0.588925	-0.148877	-0.379247
O9	O	0.716840	-0.276939	-0.379205
O10	O	0.634561	-0.158429	-0.490064
O11	O	0.601469	-0.209128	-0.232966
O12	O	0.516041	-0.221672	-0.379191
O13	O	0.566685	-0.298988	-0.636222
O14	O	0.506454	-0.286380	-0.489965
O15	O	0.621908	-0.243832	-0.636265
O16	O	0.643956	-0.349735	-0.379149
O17	O	0.579229	-0.359239	-0.489941
C18	C	0.494947	-0.254020	-0.434575
C19	C	0.445012	-0.254011	-0.434586
C20	C	0.083461	-0.230369	-0.492426
C21	C	0.271136	-0.230331	-0.492405
O22	O	0.291180	-0.210172	-0.541578
N23	N	0.299565	-0.254042	-0.434607
C24	C	0.281073	-0.277767	-0.376815
O25	O	0.309559	-0.297937	-0.327660
C26	C	0.093398	-0.277807	-0.376841
C27	C	0.064972	-0.254091	-0.434636
C28	C	0.055034	-0.206655	-0.550217
C29	C	0.008119	-0.206662	-0.550218
C30	C	-0.010370	-0.230384	-0.492428
C31	C	0.018056	-0.254098	-0.434637
C32	C	0.074906	-0.301534	-0.319054
C33	C	0.027984	-0.301543	-0.319067
C34	C	-0.000442	-0.277826	-0.376862
C35	C	-0.047349	-0.277828	-0.376848
N36	N	-0.075778	-0.254117	-0.434646
C37	C	-0.057289	-0.230395	-0.492436
C38	C	0.379604	-0.277743	-0.376804
C39	C	0.426523	-0.277732	-0.376796
C40	C	0.416582	-0.230297	-0.492388
C41	C	0.369663	-0.230306	-0.492390
C42	C	0.351175	-0.254032	-0.434602
C43	C	-0.155815	-0.230412	-0.492433
C44	C	-0.202734	-0.230421	-0.492427
C45	C	-0.192789	-0.277858	-0.376839
C46	C	-0.145874	-0.277848	-0.376842
C47	C	-0.127388	-0.254124	-0.434646
O48	O	-0.067425	-0.297980	-0.327708
O49	O	-0.085784	-0.210235	-0.541597
C50	C	0.130376	-0.230361	-0.492424
C51	C	0.158803	-0.254075	-0.434633
C52	C	0.140314	-0.277797	-0.376844
C53	C	0.205721	-0.254064	-0.434626
C54	C	0.224210	-0.230343	-0.492415
C55	C	0.195781	-0.206632	-0.550213
C56	C	0.148865	-0.206639	-0.550214
C57	C	0.168743	-0.301508	-0.319046
C58	C	0.215658	-0.301498	-0.319049
C59	C	0.234147	-0.277776	-0.376839
C60	C	0.611590	-0.370789	-0.434556
C61	C	0.611596	-0.420724	-0.434567
C62	C	0.645416	-0.725416	-0.376995
C63	C	0.645469	-0.913092	-0.377030
O64	O	0.674162	-0.933144	-0.328046
N65	N	0.611755	-0.941518	-0.434668
C66	C	0.578028	-0.923022	-0.492306
O67	O	0.549356	-0.951507	-0.541338
C68	C	0.577977	-0.735348	-0.492275
C69	C	0.611691	-0.706923	-0.434626
C70	C	0.679127	-0.696992	-0.319352
C71	C	0.679112	-0.650076	-0.319340
C72	C	0.645386	-0.631583	-0.376972
C73	C	0.611676	-0.660007	-0.434615
C74	C	0.544252	-0.716853	-0.549917
C75	C	0.544243	-0.669931	-0.549906
C76	C	0.577957	-0.641507	-0.492257
C77	C	0.577935	-0.594598	-0.492235
N78	N	0.611649	-0.566172	-0.434596
C79	C	0.645374	-0.584665	-0.376965
C80	C	0.578056	-1.021554	-0.492317
C81	C	0.578068	-1.068472	-0.492324
C82	C	0.645509	-1.058539	-0.377049
C83	C	0.645495	-1.011619	-0.377038
C84	C	0.611769	-0.993128	-0.434679
C85	C	0.645340	-0.486137	-0.376944
C86	C	0.645321	-0.439217	-0.376935
C87	C	0.577881	-0.449155	-0.492213
C88	C	0.577899	-0.496071	-0.492219
C89	C	0.611632	-0.514560	-0.434582
O90	O	0.549259	-0.574515	-0.541200
O91	O	0.674048	-0.556173	-0.327954
C92	C	0.645431	-0.772332	-0.377007
C93	C	0.611720	-0.800756	-0.434650
C94	C	0.577995	-0.782264	-0.492281
C95	C	0.611732	-0.847675	-0.434657
C96	C	0.645458	-0.866167	-0.377025
C97	C	0.679171	-0.837741	-0.319387
C98	C	0.679157	-0.790825	-0.319375
C99	C	0.544281	-0.810689	-0.549920
C100	C	0.544298	-0.857605	-0.549926
C101	C	0.578024	-0.876098	-0.492294
C102	C	0.728844	-0.254121	-0.434626
C103	C	0.778777	-0.254142	-0.434637
C104	C	0.591398	-0.274303	-0.669890
C105	C	0.582760	-0.282925	-0.770156
C106	C	0.611756	-0.136897	-0.434665
C107	C	0.611793	-0.086965	-0.434692
C108	C	0.673421	-0.192366	-1.052880
C109	C	0.681540	-0.184266	-0.958674
C110	C	0.656845	-0.208930	-0.911540
C111	C	0.624031	-0.241696	-0.958621
C112	C	0.615914	-0.249800	-1.052835
C113	C	0.599338	-0.266363	-0.911496
C114	C	0.566524	-0.299129	-0.958576
C115	C	0.558408	-0.307231	-1.052782
C116	C	0.583103	-0.282567	-1.099916
C117	C	0.607455	-0.258260	-0.817281
C118	C	0.549948	-0.315693	-0.817237
C119	C	0.541830	-0.323793	-0.911442
C120	C	0.631885	-0.233883	-0.200226
C121	C	0.640610	-0.225134	-0.099960
H122	H	0.431644	-0.210981	-0.539440
O123	O	0.664650	-0.201076	-0.820030
C124	C	0.624323	-0.186805	-0.788528
H125	H	0.593759	-0.199121	-0.842810
H126	H	0.621753	-0.201662	-0.725507
H127	H	0.624847	-0.148094	-0.771794
H128	H	-0.122727	-0.297155	-0.329773
H129	H	0.449665	-0.297039	-0.329724
H130	H	0.515112	-0.350472	-0.949788
H131	H	0.706565	-0.626935	-0.272400
O132	O	0.213733	-0.183517	-0.606258
C133	C	0.203956	-0.137047	-0.586731
H134	H	0.197259	-0.128525	-0.514677
H135	H	0.234144	-0.115532	-0.594578
H136	H	0.172561	-0.129507	-0.635145
O137	O	0.511482	-0.744396	-0.606006
C138	C	0.481713	-0.718002	-0.656851
H139	H	0.499837	-0.684815	-0.659986
H140	H	0.470776	-0.737653	-0.727925
H141	H	0.450454	-0.710194	-0.623760
H142	H	0.529841	-0.335777	-0.778861
O143	O	0.511537	-0.651957	-0.605994
C144	C	0.532061	-0.629793	-0.664282
H145	H	0.566961	-0.644390	-0.669918
H146	H	0.509808	-0.635227	-0.733676
H147	H	0.536010	-0.591840	-0.636387
H148	H	0.550612	-1.091611	-0.539259
H149	H	0.706609	-0.767685	-0.272432
O150	O	0.545128	-0.523622	-0.548300
C151	C	0.515350	-0.497235	-0.599145
H152	H	0.533467	-0.464045	-0.602284
H153	H	0.504414	-0.516888	-0.670217
H154	H	0.484092	-0.489434	-0.566050
H155	H	0.550421	-0.434090	-0.539134
O156	O	0.678331	-1.076527	-0.321224
C157	C	0.702885	-1.108053	-0.372701
H158	H	0.699463	-1.100005	-0.443754
H159	H	0.740287	-1.105753	-0.340206
H160	H	0.688760	-1.143892	-0.375766
H161	H	0.550591	-1.006502	-0.539256
H162	H	-0.225877	-0.211106	-0.539490
H163	H	0.576495	-0.289161	-1.176625
O164	O	0.711841	-0.715015	-0.263370
C165	C	0.691344	-0.737175	-0.205039
H166	H	0.654544	-0.746941	-0.236748
H167	H	0.710696	-0.769130	-0.193055
H168	H	0.692217	-0.713375	-0.138149
O169	O	0.697340	-0.168369	-1.098707
C170	C	0.667090	-0.144040	-1.153236
H171	H	0.634157	-0.138802	-1.124838
H172	H	0.683275	-0.109570	-1.154340
H173	H	0.659379	-0.164075	-1.224623
O174	O	0.711997	-0.855658	-0.263449
C175	C	0.755050	-0.845867	-0.283274
H176	H	0.752963	-0.814775	-0.317944
H177	H	0.780831	-0.838664	-0.218214
H178	H	0.766171	-0.876243	-0.329693
O179	O	-0.137934	-0.207327	-0.548611
C180	C	-0.173093	-0.186411	-0.599629
H181	H	-0.203355	-0.181660	-0.562679
H182	H	-0.160374	-0.151856	-0.609379
H183	H	-0.183981	-0.208801	-0.668081
O184	O	-0.019430	-0.183621	-0.606451
C185	C	0.006960	-0.162676	-0.657436
H186	H	0.040137	-0.181338	-0.660477
H187	H	-0.012709	-0.164055	-0.728534
H188	H	0.014790	-0.125700	-0.624527
H189	H	-0.207851	-0.297169	-0.329784
O190	O	0.678062	-0.411644	-0.320809
C191	C	0.676023	-0.415395	-0.230886
H192	H	0.658926	-0.449309	-0.228996
H193	H	0.711943	-0.413514	-0.190498
H194	H	0.655553	-0.386394	-0.200450
H195	H	0.708258	-0.157589	-0.920348
H196	H	0.516841	-0.880745	-0.596869
H197	H	0.634173	-0.231581	-0.778957
O198	O	0.010102	-0.324598	-0.262843
C199	C	0.045256	-0.345536	-0.211854
H200	H	0.078967	-0.326862	-0.208796
H201	H	0.037820	-0.344167	-0.140763
H202	H	0.047406	-0.382509	-0.244771
O203	O	0.511527	-0.792790	-0.606027
C204	C	0.513569	-0.811957	-0.695957
H205	H	0.530691	-0.846171	-0.697865
H206	H	0.477649	-0.817058	-0.736338
H207	H	0.534017	-0.788143	-0.726387
O208	O	0.073002	-0.183681	-0.606453
C209	C	0.095141	-0.214289	-0.664617
H210	H	0.080534	-0.250151	-0.670068
H211	H	0.089689	-0.204064	-0.734095
H212	H	0.133101	-0.213403	-0.636724
O213	O	0.342060	-0.207330	-0.548666
C214	C	0.345803	-0.224935	-0.638532
H215	H	0.358313	-0.261207	-0.642951
H216	H	0.311114	-0.224940	-0.683125
H217	H	0.371008	-0.202897	-0.662188
O218	O	0.361726	-0.300796	-0.320573
C219	C	0.396883	-0.321727	-0.269579
H220	H	0.430591	-0.303050	-0.266530
H221	H	0.389450	-0.320354	-0.198485
H222	H	0.399036	-0.358701	-0.302486
O223	O	0.102542	-0.324503	-0.262822
C224	C	0.134704	-0.293885	-0.204649
H225	H	0.121047	-0.258030	-0.199193
H226	H	0.141208	-0.304114	-0.135175
H227	H	0.167863	-0.294754	-0.232537
O228	O	0.121245	-0.183546	-0.606233
C229	C	0.098512	-0.150093	-0.554994
H230	H	0.118762	-0.141152	-0.483951
H231	H	0.095173	-0.118362	-0.587749
H232	H	0.063221	-0.163714	-0.551849
O233	O	0.243241	-0.324610	-0.262998
C234	C	0.230069	-0.371080	-0.282549
H235	H	0.210968	-0.379596	-0.354608
H236	H	0.261591	-0.392595	-0.274699
H237	H	0.206996	-0.378628	-0.234149
O238	O	0.150757	-0.324611	-0.263033
C239	C	0.119191	-0.358074	-0.314275
H240	H	0.127208	-0.367010	-0.385316
H241	H	0.121477	-0.389806	-0.281521
H242	H	0.083363	-0.344467	-0.317424
O243	O	0.678051	-0.504144	-0.320922
C244	C	0.657537	-0.526293	-0.262598
H245	H	0.620744	-0.536072	-0.294342
H246	H	0.676893	-0.558238	-0.250560
H247	H	0.658386	-0.502480	-0.195731
O248	O	0.678290	-0.984077	-0.321013
C249	C	0.708049	-1.010465	-0.270132
H250	H	0.706411	-1.047079	-0.307093
H251	H	0.744270	-0.996069	-0.260568
H252	H	0.697529	-1.009584	-0.201593
O253	O	0.526567	-0.339117	-1.098412
C254	C	0.538342	-0.381915	-1.075375
H255	H	0.561505	-0.376967	-1.006978
H256	H	0.506183	-0.401767	-1.072125
H257	H	0.556858	-0.401618	-1.128393
