data_functionalizedCrystal
_audit_creation_method	'MofGen! by Chris Wilmer'
_symmetry_space_group_name_H-M	'P1'
_symmetry_Int_Tables_number	1
_symmetry_cell_setting	triclinic
loop_
_symmetry_equiv_pos_as_xyz
  x,y,z
_cell_length_a	11.026607
_cell_length_b	11.026607
_cell_length_c	16.776229
_cell_angle_alpha	89.996140
_cell_angle_beta	89.994019
_cell_angle_gamma	108.586017
loop_
_atom_site_label
_atom_site_type_symbol
_atom_site_fract_x
_atom_site_fract_y
_atom_site_fract_z
O1	O	1.726739	0.533628	-0.066286
O2	O	1.360159	0.472864	-0.066288
O3	O	1.513067	0.319956	-0.066284
O4	O	1.573830	0.686536	-0.066290
O5	O	1.513038	0.319938	0.066292
O6	O	1.360130	0.472846	0.066289
O7	O	1.726710	0.533610	0.066290
Zn8	Zn	1.543415	0.503225	0.087339
Zn9	Zn	1.543453	0.503249	-0.087336
O10	O	1.573802	0.686518	0.066287
C11	C	1.312485	0.461645	0.000001
C12	C	1.170471	0.428228	0.000000
C13	C	1.116821	0.520498	-0.000002
C14	C	0.970043	0.485962	-0.000002
C15	C	1.501843	0.272287	0.000003
C16	C	1.468426	0.130273	0.000000
C17	C	1.560695	0.076624	-0.000001
C18	C	1.526160	-0.070155	-0.000004
C19	C	1.774384	0.544828	0.000000
C20	C	1.916398	0.578245	-0.000004
C21	C	1.585026	0.734187	-0.000002
C22	C	1.618443	0.876200	-0.000004
N23	N	1.543399	0.503211	0.206550
N24	N	1.543478	0.503255	-0.206547
C25	C	1.611141	0.435544	0.248269
C26	C	1.611148	0.435545	0.331721
C27	C	1.543419	0.503220	0.373453
C28	C	1.475669	0.570888	0.331729
C29	C	1.475655	0.570880	0.248278
C30	C	1.475720	0.570923	0.668276
C31	C	1.475742	0.570930	0.751732
C32	C	1.611213	0.435589	0.751719
C33	C	1.611199	0.435580	0.668268
C34	C	1.543444	0.503242	0.626551
C35	C	1.543435	0.503239	0.536063
C36	C	1.543434	0.503231	0.463940
H37	H	0.907314	0.381393	-0.000021
C38	C	1.086991	0.288746	-0.000124
C39	C	1.113257	0.228289	-0.068321
C40	C	1.036396	0.099791	-0.068457
H41	H	0.999420	0.283884	-0.000165
H42	H	1.104629	0.247445	0.046085
H43	H	1.095610	0.269578	-0.114517
H44	H	1.200814	0.233115	-0.068294
H45	H	1.054033	0.058490	-0.022248
H46	H	0.948829	0.094942	-0.068496
H47	H	1.054215	0.058752	-0.114724
H48	H	1.421590	-0.132884	-0.000009
C49	C	0.999972	0.717700	0.000154
C50	C	0.973762	0.778156	0.068368
C51	C	1.050740	0.906613	0.068544
H52	H	0.982428	0.759098	-0.046027
H53	H	1.087522	0.722428	0.000197
H54	H	0.886231	0.773437	0.068318
H55	H	0.991312	0.736797	0.114560
H56	H	1.138291	0.911341	0.068587
H57	H	1.033191	0.947999	0.022361
H58	H	1.032976	0.947645	0.114830
H59	H	1.665258	0.139357	0.000005
H60	H	1.723013	-0.061072	-0.000064
C61	C	1.329051	0.046484	-0.000127
C62	C	1.304557	-0.030721	-0.068327
C63	C	1.176182	-0.107932	-0.068467
H64	H	1.275501	0.099020	-0.000167
H65	H	1.312140	-0.006079	0.046080
H66	H	1.321455	0.021837	-0.114522
H67	H	1.358076	-0.083282	-0.068302
H68	H	1.159271	-0.160495	-0.022260
H69	H	1.122643	-0.055386	-0.068504
H70	H	1.159548	-0.160333	-0.114735
C71	C	1.684677	0.362176	0.622840
C72	C	1.777513	0.446974	0.574834
C73	C	1.845123	0.379325	0.532949
H74	H	1.627178	0.299164	0.590287
H75	H	1.725088	0.321793	0.659550
H76	H	1.737105	0.487336	0.538129
H77	H	1.835040	0.509987	0.607367
H78	H	1.885533	0.338942	0.569659
H79	H	1.787614	0.316316	0.500401
H80	H	1.908127	0.436852	0.500378
H81	H	1.420585	0.626041	0.785709
H82	H	1.666299	0.380442	0.214296
C83	C	1.684848	0.362072	0.376871
C84	C	1.744200	0.302846	0.322463
C85	C	1.812127	0.235169	0.364026
H86	H	1.627562	0.298891	0.409443
H87	H	1.747973	0.419533	0.409394
H88	H	1.681083	0.245390	0.289955
H89	H	1.801506	0.365998	0.289890
H90	H	1.875251	0.292630	0.396548
H91	H	1.754832	0.171995	0.396596
H92	H	1.852415	0.194986	0.327116
H93	H	1.666378	0.380489	0.785694
H94	H	1.420555	0.626019	0.634316
C95	C	1.402264	0.644341	0.377179
C96	C	1.416804	0.629898	0.459192
C97	C	1.349218	0.697564	0.501083
H98	H	1.314146	0.611944	0.363614
H99	H	1.434694	0.732448	0.363537
H100	H	1.384368	0.541809	0.472828
H101	H	1.504907	0.662302	0.472780
H102	H	1.381648	0.785671	0.487441
H103	H	1.261104	0.665161	0.487512
H104	H	1.359084	0.687784	0.556733
H105	H	1.420491	0.625978	0.214311
H106	H	1.179555	0.625061	0.000001
