data_functionalizedCrystal
_audit_creation_method	'MofGen! by Chris Wilmer'
_symmetry_space_group_name_H-M	'P1'
_symmetry_Int_Tables_number	1
_symmetry_cell_setting	triclinic
loop_
_symmetry_equiv_pos_as_xyz
  x,y,z
_cell_length_a	10.489741
_cell_length_b	8.559649
_cell_length_c	7.681481
_cell_angle_alpha	85.086760
_cell_angle_beta	84.199479
_cell_angle_gamma	102.841081
loop_
_atom_site_label
_atom_site_type_symbol
_atom_site_fract_x
_atom_site_fract_y
_atom_site_fract_z
O1	O	-0.029684	-2.104681	-0.146400
O2	O	0.036114	-1.640234	-0.146410
O3	O	-0.183496	-1.883027	-0.146394
O4	O	0.189927	-1.861888	-0.146416
O5	O	-0.210581	-1.912910	0.146465
O6	O	0.009029	-1.670117	0.146450
O7	O	-0.056769	-2.134565	0.146459
Zn8	Zn	-0.028170	-1.907085	0.192952
Zn9	Zn	0.007516	-1.867713	-0.192903
O10	O	0.162842	-1.891771	0.146444
C11	C	0.027558	-1.595703	0.000019
C12	C	0.042401	-1.418493	0.000015
C13	C	-0.244402	-1.896372	0.000034
C14	C	-0.385529	-1.891596	0.000031
N15	N	-0.052526	-1.933968	0.456288
C16	C	-0.437401	-1.737113	0.000015
C17	C	-0.550562	-1.824822	0.144412
C18	C	-0.523837	-1.795396	-0.144325
C19	C	-0.496842	-1.979381	0.144547
C20	C	-0.470093	-1.949920	-0.144320
C21	C	-0.583242	-2.037746	0.000112
C22	C	0.223748	-1.878426	0.000011
C23	C	0.364876	-1.883201	0.000003
C24	C	-0.048212	-2.179095	0.000027
C25	C	-0.063054	-2.356304	0.000019
N26	N	0.031861	-1.840843	-0.456239
H27	H	-0.374389	-1.610114	0.000158
C28	C	-0.598426	-1.753354	0.309321
C29	C	-0.532175	-1.580456	0.341040
C30	C	-0.580031	-1.508976	0.505941
C31	C	-0.694138	-1.610393	0.639123
C32	C	-0.760396	-1.783301	0.607408
C33	C	-0.712540	-1.854781	0.442507
H34	H	-0.447700	-1.505372	0.242448
H35	H	-0.530982	-1.380978	0.529418
H36	H	-0.729565	-1.557479	0.761193
H37	H	-0.844871	-1.858385	0.706000
H38	H	-0.761588	-1.982780	0.419030
C39	C	0.148222	-1.712409	0.442178
C40	C	0.161444	-1.533112	0.466920
C41	C	0.277808	-1.404675	0.365324
C42	C	0.380949	-1.455535	0.238985
C43	C	0.367731	-1.634840	0.214238
C44	C	0.251367	-1.763277	0.315834
H45	H	0.085090	-1.495455	0.560448
H46	H	0.287593	-1.271941	0.383644
H47	H	0.467089	-1.360458	0.163778
H48	H	0.444085	-1.672497	0.120709
H49	H	0.241582	-1.896011	0.297513
H50	H	-0.536625	-1.717555	-0.266413
C51	C	-0.168894	-2.062409	0.557879
C52	C	-0.271783	-2.011608	0.684686
C53	C	-0.388148	-2.140047	0.786277
C54	C	-0.401624	-2.319286	0.761060
C55	C	-0.298732	-2.370096	0.634248
C56	C	-0.182367	-2.241657	0.532657
H57	H	-0.261810	-1.878917	0.703358
H58	H	-0.464316	-2.102434	0.880152
H59	H	-0.487765	-2.414364	0.836264
H60	H	-0.308705	-2.502787	0.615576
H61	H	-0.106199	-2.279271	0.438782
H62	H	-0.484189	-2.057159	0.266760
H63	H	0.144049	-1.336155	-0.000000
H64	H	-0.434635	-2.002772	-0.266400
C65	C	-0.668111	-2.209492	0.000210
C66	C	-0.671585	-2.339696	0.153076
C67	C	-0.756455	-2.511441	0.153181
C68	C	-0.837851	-2.552981	0.000421
C69	C	-0.834379	-2.422774	-0.152456
C70	C	-0.749509	-2.251029	-0.152561
H71	H	-0.611329	-2.308949	0.266168
H72	H	-0.759025	-2.607829	0.266351
H73	H	-0.900676	-2.680117	0.000499
H74	H	-0.894635	-2.453521	-0.265548
H75	H	-0.746940	-2.154641	-0.265731
H76	H	-0.164693	-1.438631	0.000016
