data_functionalizedCrystal
_audit_creation_method	'MofGen! by Chris Wilmer'
_symmetry_space_group_name_H-M	'P1'
_symmetry_Int_Tables_number	1
_symmetry_cell_setting	triclinic
loop_
_symmetry_equiv_pos_as_xyz
  x,y,z
_cell_length_a	23.196402
_cell_length_b	23.096457
_cell_length_c	23.196401
_cell_angle_alpha	90.004056
_cell_angle_beta	59.998963
_cell_angle_gamma	59.998263
loop_
_atom_site_label
_atom_site_type_symbol
_atom_site_fract_x
_atom_site_fract_y
_atom_site_fract_z
Zr1	Zr	0.631042	0.557738	-0.075668
O2	O	0.751326	0.465270	-0.167721
O3	O	0.510768	0.586086	-0.047450
O4	O	0.631059	0.586061	-0.167727
O5	O	0.631020	0.465312	0.047436
O6	O	0.631060	0.681341	-0.167731
O7	O	0.631036	0.465294	-0.047443
O8	O	0.415883	0.681386	0.047423
O9	O	0.846197	0.465268	-0.167719
O10	O	0.560236	0.669280	-0.035416
O11	O	0.560223	0.598187	0.035393
O12	O	0.701849	0.598158	-0.106218
O13	O	0.701836	0.527064	-0.035408
Zr14	Zr	0.631019	0.709727	0.075648
Zr15	Zr	0.631045	0.709699	-0.075673
Zr16	Zr	0.631016	0.557766	0.075653
Zr17	Zr	0.782350	0.557734	-0.075664
Zr18	Zr	0.479711	0.709730	0.075645
O19	O	0.751293	0.681379	0.047430
O20	O	0.751330	0.681339	-0.167728
O21	O	0.751289	0.465310	0.047438
O22	O	0.510735	0.802195	0.167701
O23	O	0.510772	0.802155	-0.047458
O24	O	0.510731	0.586126	0.167709
O25	O	0.631041	0.802153	-0.047455
O26	O	0.631002	0.681404	0.167708
O27	O	0.631001	0.586123	0.167711
O28	O	0.631025	0.802170	0.047423
O29	O	0.846199	0.586056	-0.167723
O30	O	0.415862	0.681408	0.167703
O31	O	0.415864	0.802197	0.167699
O32	O	0.415885	0.802175	0.047419
O33	O	0.846176	0.465290	-0.047439
O34	O	0.846178	0.586079	-0.047443
O35	O	0.560212	0.669307	0.106198
O36	O	0.560225	0.740400	0.035388
O37	O	0.701838	0.669278	-0.035413
O38	O	0.701825	0.598184	0.035396
C39	C	0.441768	0.633736	-0.000014
C40	C	0.377534	0.633737	-0.000015
C41	C	-0.085303	0.670844	-0.036959
C42	C	-0.024944	0.670842	-0.036966
C43	C	0.005231	0.633733	-0.000004
C44	C	-0.024943	0.596608	0.036953
C45	C	-0.085295	0.596605	0.036952
C46	C	0.067248	0.639048	0.061906
C47	C	0.127595	0.639056	0.061909
C48	C	0.191379	0.633738	-0.000003
C49	C	0.194801	0.628427	-0.061917
C50	C	0.134450	0.628424	-0.061918
C51	C	0.070673	0.633732	0.000001
C52	C	0.286998	0.670855	-0.036968
C53	C	0.347362	0.670848	-0.036977
C54	C	0.347356	0.596619	0.036949
C55	C	0.286999	0.596621	0.036950
C56	C	0.256821	0.633743	-0.000007
C57	C	0.631027	0.443652	-0.000003
C58	C	0.631026	0.379140	-0.000001
C59	C	0.557108	0.385960	0.036950
C60	C	0.557107	0.325345	0.036953
C61	C	0.631028	0.257910	-0.000008
C62	C	0.704956	0.251093	-0.036961
C63	C	0.704955	0.311708	-0.036957
N64	N	0.686057	0.135102	-0.060163
N65	N	0.686053	0.077522	-0.060165
C66	C	0.631035	0.075277	-0.000021
N67	N	0.576010	0.132793	0.060125
N68	N	0.576011	0.190379	0.060126
C69	C	0.631037	0.192179	-0.000016
C70	C	0.557111	0.016373	0.036937
C71	C	0.557113	-0.044245	0.036942
C72	C	0.704964	-0.118497	-0.036979
C73	C	0.704960	-0.057879	-0.036977
C74	C	0.631031	0.009554	-0.000021
C75	C	0.820293	0.633728	-0.000006
C76	C	0.884527	0.633727	-0.000005
C77	C	0.631063	0.633697	-0.189289
C78	C	0.631074	0.633685	-0.253529
C79	C	0.631034	0.823813	-0.000017
C80	C	0.631035	0.888324	-0.000019
C81	C	0.631076	0.686178	-0.283694
C82	C	0.631060	0.686193	-0.344040
C83	C	0.631058	0.633706	-0.374228
C84	C	0.631051	0.581209	-0.344053
C85	C	0.631059	0.581198	-0.283704
C86	C	0.678553	0.569646	-0.493606
C87	C	0.678550	0.569656	-0.553957
C88	C	0.631029	0.633737	-0.560364
C89	C	0.583521	0.697812	-0.506418
C90	C	0.583529	0.697802	-0.446068
C91	C	0.631048	0.633711	-0.439667
C92	C	0.631012	0.686251	-0.655963
C93	C	0.630991	0.686267	-0.716309
C94	C	0.630990	0.581277	-0.716324
C95	C	0.631003	0.581266	-0.655976
C96	C	0.631018	0.633753	-0.625801
C97	C	0.630998	0.633767	0.189269
C98	C	0.630987	0.633779	0.253509
C99	C	0.441771	0.823816	-0.000021
C100	C	0.377538	0.888329	-0.000025
C101	C	0.441735	0.633771	0.189265
C102	C	0.377490	0.633785	0.253504
C103	C	0.441738	0.823852	0.189258
C104	C	0.377494	0.888376	0.253494
C105	C	0.820323	0.443613	-0.189278
C106	C	0.884567	0.379088	-0.253514
C107	C	0.820290	0.443648	0.000001
C108	C	0.884523	0.379135	0.000005
C109	C	0.820326	0.633693	-0.189285
C110	C	0.884571	0.633680	-0.253523
C111	C	0.347379	0.881501	-0.036992
C112	C	0.287034	0.942112	-0.037009
C113	C	0.256844	1.009550	-0.000055
C114	C	0.287009	1.016377	0.036913
C115	C	0.347357	0.955767	0.036926
C116	C	0.347314	0.670915	0.320636
C117	C	0.286957	0.670924	0.381001
C118	C	0.256774	0.633808	0.374231
C119	C	0.286955	0.596673	0.307091
C120	C	0.347315	0.596660	0.246728
C121	C	0.347332	0.955794	0.246698
C122	C	0.286976	1.016428	0.307049
C123	C	0.256780	1.009642	0.374195
C124	C	0.286948	0.942217	0.380990
C125	C	0.347307	0.881585	0.320640
C126	C	0.914737	0.311670	-0.246718
C127	C	0.975111	0.251036	-0.307069
C128	C	1.005310	0.257822	-0.374215
C129	C	0.975138	0.325247	-0.381010
C130	C	0.914769	0.385880	-0.320660
C131	C	0.914688	0.385963	0.036966
C132	C	0.975050	0.325352	0.036967
C133	C	1.005242	0.257914	0.000010
C134	C	0.975074	0.251088	-0.036955
C135	C	0.914718	0.311698	-0.036960
C136	C	0.914736	0.670804	-0.246731
C137	C	0.975093	0.670805	-0.307084
C138	C	1.005288	0.633678	-0.374229
C139	C	0.975118	0.596553	-0.381019
C140	C	0.914758	0.596556	-0.320667
H141	H	0.246738	0.624095	-0.112332
Cl142	Cl	1.013035	0.166303	-0.083408
Cl143	Cl	0.248999	0.550017	0.298593
H144	H	0.207632	1.059019	0.423330
H145	H	0.371876	0.566426	0.192068
Cl146	Cl	0.523802	0.778349	-0.378250
Cl147	Cl	0.385322	0.796729	-0.083458
Cl148	Cl	0.123278	0.645747	0.139746
H149	H	0.717243	0.517459	-0.488394
Cl150	Cl	1.081203	0.181591	-0.450078
Cl151	Cl	0.876851	0.549874	-0.329218
H152	H	0.630983	0.538542	-0.740900
H153	H	0.999712	0.566325	-0.435696
Cl154	Cl	0.876798	0.303102	-0.083425
H155	H	0.262390	0.701166	0.435662
Cl156	Cl	0.385245	0.717583	0.329165
Cl157	Cl	0.876787	0.717485	-0.162328
Cl158	Cl	1.012959	0.333951	0.083445
H159	H	0.262419	1.071323	0.301504
H160	H	0.631062	0.728941	-0.368605
Cl161	Cl	1.013014	0.717475	-0.298531
H162	H	0.890152	0.306131	-0.192050
Cl163	Cl	0.248978	0.933698	0.465407
Cl164	Cl	-0.123226	0.549941	0.083415
H165	H	0.999668	0.196142	-0.301523
Cl166	Cl	0.797889	0.303133	-0.083414
H167	H	0.371908	0.961333	0.192030
Cl168	Cl	1.013108	0.333766	-0.465427
H169	H	-0.109870	0.701069	-0.067054
Cl170	Cl	0.249044	1.101162	0.083370
Cl171	Cl	0.385258	0.964363	0.083410
Cl172	Cl	1.081173	0.633679	-0.450094
Cl173	Cl	0.876842	0.470631	-0.329216
H174	H	0.207625	0.633825	0.423388
H175	H	0.890111	0.440869	0.067065
Cl176	Cl	1.081119	0.181725	0.000025
Cl177	Cl	0.138756	0.621739	-0.139750
Cl178	Cl	0.012990	0.717509	-0.083425
H179	H	0.631006	0.538519	-0.631416
H180	H	0.371858	0.826692	0.326183
Cl181	Cl	0.630986	0.752266	-0.754229
Cl182	Cl	0.797891	-0.066453	-0.083437
Cl183	Cl	0.249053	0.717525	-0.083423
H184	H	0.371930	0.701070	-0.067074
H185	H	0.371928	0.566400	0.067040
H186	H	0.262431	0.566400	0.067046
H187	H	0.496914	0.071280	0.067044
Cl188	Cl	0.631025	0.752237	-0.618025
Cl189	Cl	-0.012934	0.645730	0.139745
H190	H	0.544825	0.749993	-0.511631
Cl191	Cl	0.012994	0.549954	0.083416
H192	H	0.496912	0.330898	0.067044
Cl193	Cl	0.797886	0.166318	-0.083423
Cl194	Cl	0.464169	0.470729	0.083415
H195	H	0.765152	-0.173402	-0.067075
Cl196	Cl	0.464178	-0.035668	0.083407
Cl197	Cl	0.631043	0.515226	-0.381999
Cl198	Cl	0.738277	0.489106	-0.621771
Cl199	Cl	0.631057	0.515202	-0.245780
Cl200	Cl	0.631089	0.752162	-0.245757
Cl201	Cl	0.180975	1.085740	-0.000077
Cl202	Cl	0.249121	0.933514	-0.083484
