data_functionalizedCrystal
_audit_creation_method	'MofGen! by Chris Wilmer'
_symmetry_space_group_name_H-M	'P1'
_symmetry_Int_Tables_number	1
_symmetry_cell_setting	triclinic
loop_
_symmetry_equiv_pos_as_xyz
  x,y,z
_cell_length_a	12.759401
_cell_length_b	12.759400
_cell_length_c	12.759401
_cell_angle_alpha	90.006511
_cell_angle_beta	90.001294
_cell_angle_gamma	90.013592
loop_
_atom_site_label
_atom_site_type_symbol
_atom_site_fract_x
_atom_site_fract_y
_atom_site_fract_z
Zn1	Zn	1.606087	-0.418441	0.593992
Zn2	Zn	1.606039	-0.594086	0.418316
Zn3	Zn	1.430442	-0.418423	0.418332
Zn4	Zn	1.430382	-0.594079	0.593957
O5	O	1.518238	-0.506257	0.506149
O6	O	1.753102	-0.441750	0.570697
O7	O	1.582751	-0.570779	0.271297
O8	O	1.453787	-0.271404	0.441655
O9	O	1.753066	-0.570796	0.441628
O10	O	1.582832	-0.271417	0.570712
O11	O	1.453740	-0.441721	0.271309
O12	O	1.283413	-0.441714	0.441620
O13	O	1.453685	-0.570785	0.740983
O14	O	1.283369	-0.570768	0.570652
O15	O	1.582774	-0.441744	0.741009
O16	O	1.582693	-0.741106	0.441594
O17	O	1.453638	-0.741101	0.570637
C18	C	1.245270	-0.506239	0.506134
C19	C	1.128494	-0.506257	0.506153
C20	C	1.073651	-0.439184	0.573463
C21	C	0.963926	-0.439195	0.573470
C22	C	0.963898	-0.573360	0.438854
C23	C	1.073620	-0.573343	0.438843
C24	C	1.518182	-0.779225	0.506133
C25	C	1.518255	-0.896001	0.506161
C26	C	1.585415	-0.950790	0.573416
C27	C	1.585464	-1.060514	0.573441
C28	C	1.451189	-1.060651	0.438948
C29	C	1.451136	-0.950929	0.438928
C30	C	1.652534	-0.895863	0.640648
C31	C	1.719701	-0.950652	0.707908
C32	C	1.719750	-1.060376	0.707934
C33	C	1.652632	-1.115311	0.640700
C34	C	1.792271	-0.506276	0.506165
C35	C	1.909047	-0.506284	0.506171
C36	C	1.518228	-0.506266	0.780183
C37	C	1.518224	-0.506269	0.896959
C38	C	1.518322	-0.232224	0.506189
C39	C	1.518357	-0.115447	0.506206
C40	C	1.451015	-0.573451	0.951809
C41	C	1.451022	-0.573457	1.061533
C42	C	1.585453	-0.439090	1.061547
C43	C	1.585449	-0.439090	0.951825
C44	C	1.383790	-0.640631	0.896943
C45	C	1.316573	-0.707817	0.951793
C46	C	1.316581	-0.707823	1.061518
C47	C	1.383805	-0.640643	1.116391
C48	C	1.518237	-0.506274	1.233182
C49	C	1.518235	-0.506275	1.116405
H50	H	0.919207	-0.627980	0.384054
C51	C	1.377413	-1.121083	0.364948
N52	N	1.321862	-1.166601	0.309191
C53	C	1.652684	-1.236011	0.640738
N54	N	1.652727	-1.326922	0.640764
H55	H	1.640182	-0.384394	1.106234
H56	H	1.261858	-0.762537	1.106174
H57	H	1.383813	-0.640659	1.205736
C58	C	1.377266	-0.890657	0.364934
N59	N	1.321626	-0.845261	0.309199
H60	H	1.383774	-0.640632	0.807600
C61	C	1.133951	-0.647132	0.364793
N62	N	1.179392	-0.702705	0.309019
C63	C	1.659382	-0.365184	0.891487
N64	N	1.715071	-0.309519	0.846040
C65	C	0.903604	-0.365412	0.647519
N66	N	0.858170	-0.309836	0.703296
C67	C	1.652483	-0.775164	0.640630
N68	N	1.652443	-0.684254	0.640616
C69	C	1.134007	-0.365378	0.647496
N70	N	1.179465	-0.309781	0.703258
C71	C	1.793524	-0.890222	0.781864
N72	N	1.849130	-0.844707	0.837568
C73	C	1.242634	-0.781714	0.891430
N74	N	1.186939	-0.837374	0.845966
C75	C	1.793634	-1.120641	0.781919
N76	N	1.849293	-1.166031	0.837641
