data_functionalizedCrystal
_audit_creation_method	'MofGen! by Chris Wilmer'
_symmetry_space_group_name_H-M	'P1'
_symmetry_Int_Tables_number	1
_symmetry_cell_setting	triclinic
loop_
_symmetry_equiv_pos_as_xyz
  x,y,z
_cell_length_a	17.639181
_cell_length_b	16.625545
_cell_length_c	17.640968
_cell_angle_alpha	78.769372
_cell_angle_beta	87.836484
_cell_angle_gamma	78.832784
loop_
_atom_site_label
_atom_site_type_symbol
_atom_site_fract_x
_atom_site_fract_y
_atom_site_fract_z
Zn1	Zn	1.247484	-0.537965	-0.194251
Zn2	Zn	1.221713	-0.693684	-0.067288
Zn3	Zn	1.094850	-0.527428	-0.092999
Zn4	Zn	1.120478	-0.641294	-0.219937
O5	O	1.171131	-0.600093	-0.143619
O6	O	1.350311	-0.584957	-0.155899
O7	O	1.183373	-0.689145	0.035560
O8	O	1.115157	-0.416003	-0.106441
O9	O	1.331376	-0.699363	-0.062620
O10	O	1.227297	-0.423745	-0.180830
O11	O	1.090167	-0.566997	0.016670
O12	O	0.992004	-0.516197	-0.131348
O13	O	1.158836	-0.610072	-0.322788
O14	O	1.010833	-0.599854	-0.224608
O15	O	1.252147	-0.534157	-0.303917
O16	O	1.208224	-0.799557	-0.087527
O17	O	1.133847	-0.761066	-0.199677
C18	C	0.973870	-0.551197	-0.183556
C19	C	0.889485	-0.530296	-0.200659
C20	C	0.562613	-0.759054	-0.013697
C21	C	0.483322	-0.739402	-0.029774
C22	C	0.503066	-0.620414	-0.127050
C23	C	0.582360	-0.640054	-0.110978
C24	C	0.612127	-0.709375	-0.054301
C25	C	0.631874	-0.590374	-0.151583
C26	C	0.711162	-0.610015	-0.135514
C27	C	0.740936	-0.679335	-0.078841
C28	C	0.691415	-0.729016	-0.038233
C29	C	0.602107	-0.521057	-0.208263
C30	C	0.651621	-0.471378	-0.248868
C31	C	0.730909	-0.491015	-0.232796
C32	C	0.760683	-0.560334	-0.176123
C33	C	0.780430	-0.441334	-0.273405
C34	C	0.859718	-0.460975	-0.257336
C35	C	0.839971	-0.579975	-0.160055
C36	C	1.171044	-0.809567	-0.143612
C37	C	1.171081	-0.899194	-0.143620
C38	C	1.171113	-0.971981	-0.143629
C39	C	1.171161	-1.063298	-0.143637
C40	C	1.171202	-1.136083	-0.143638
C41	C	1.171249	-1.227405	-0.143645
C42	C	1.369162	-0.649179	-0.103526
C43	C	1.453551	-0.670097	-0.086441
C44	C	1.211225	-0.567446	-0.341674
C45	C	1.228311	-0.553533	-0.426074
C46	C	1.171243	-0.389803	-0.143639
C47	C	1.171290	-0.300190	-0.143647
C48	C	1.041623	-0.705416	-0.752774
C49	C	1.057694	-0.692337	-0.832077
C50	C	1.154850	-0.613294	-0.812418
C51	C	1.138785	-0.626363	-0.733112
C52	C	1.082171	-0.672425	-0.703297
C53	C	1.179333	-0.593372	-0.683634
C54	C	1.163272	-0.606443	-0.604335
C55	C	1.106662	-0.652506	-0.574513
C56	C	1.066110	-0.685497	-0.623997
C57	C	1.235951	-0.547314	-0.713450
C58	C	1.276499	-0.514323	-0.663973
C59	C	1.260434	-0.527390	-0.584673
C60	C	1.203824	-0.573452	-0.554851
C61	C	1.300986	-0.494399	-0.535188
C62	C	1.284925	-0.507470	-0.455889
C63	C	1.187763	-0.586524	-0.475551
C64	C	1.131236	-0.632566	0.053675
C65	C	1.114298	-0.646287	0.138104
H66	H	0.443009	-0.779864	0.003293
H67	H	0.756182	-0.384897	-0.319556
H68	H	0.627374	-0.414938	-0.295016
F69	F	1.328083	-0.472361	-0.403228
F70	F	0.471378	-0.546643	-0.187372
H71	H	1.141644	-0.624009	-0.451278
H72	H	1.322596	-0.476822	-0.688259
F73	F	1.089572	-0.666423	-0.490114
H74	H	0.537545	-0.505070	-0.221346
H75	H	0.864208	-0.636420	-0.113898
F76	F	0.825323	-0.700241	-0.061743
H77	H	0.900034	-0.420519	-0.290399
F78	F	0.981362	-0.754434	-0.721040
H79	H	1.019991	-0.722982	-0.599724
H80	H	1.024671	-0.719206	-0.872361
F81	F	0.723100	-0.802798	0.022088
F82	F	1.215103	-0.564275	-0.844157
H83	H	1.347086	-0.456902	-0.559475
H84	H	0.586850	-0.815499	0.032460
H85	H	1.249028	-0.536675	-0.778021
