data_functionalizedCrystal
_audit_creation_method	'MofGen! by Chris Wilmer'
_symmetry_space_group_name_H-M	'P1'
_symmetry_Int_Tables_number	1
_symmetry_cell_setting	triclinic
loop_
_symmetry_equiv_pos_as_xyz
  x,y,z
_cell_length_a	14.044220
_cell_length_b	10.489741
_cell_length_c	12.503572
_cell_angle_alpha	93.559494
_cell_angle_beta	86.164750
_cell_angle_gamma	88.864026
loop_
_atom_site_label
_atom_site_type_symbol
_atom_site_fract_x
_atom_site_fract_y
_atom_site_fract_z
O1	O	1.265220	0.300990	-0.089205
O2	O	0.989177	0.289883	-0.089232
O3	O	1.133479	0.110477	-0.089211
O4	O	1.120918	0.480397	-0.089225
O5	O	1.122627	0.123993	0.089429
O6	O	0.978325	0.303400	0.089408
O7	O	1.254368	0.314507	0.089436
Cu8	Cu	1.115355	0.310188	0.105733
Cu9	Cu	1.128189	0.294203	-0.105530
O10	O	1.110065	0.493914	0.089415
C11	C	0.948403	0.291780	0.000085
C12	C	0.843079	0.277280	0.000074
C13	C	0.650235	0.250773	0.000097
C14	C	0.593304	0.353611	0.000097
C15	C	0.485999	0.338862	0.000110
C16	C	0.757550	0.265520	0.000084
C17	C	1.127104	0.069607	0.000108
C18	C	1.124266	-0.072311	0.000106
C19	C	1.032451	-0.149764	0.000089
C20	C	1.070473	-0.230823	0.088172
C21	C	1.081194	-0.244122	-0.087953
C22	C	1.162321	-0.151494	0.088262
C23	C	1.173035	-0.164791	-0.087943
C24	C	1.211122	-0.245814	0.000162
C25	C	1.295142	0.312610	0.000116
C26	C	1.400466	0.327110	0.000120
C27	C	1.116440	0.534783	0.000093
C28	C	1.119279	0.676700	0.000088
N29	N	1.106335	0.321431	0.254324
N30	N	1.137217	0.282950	-0.254121
C31	C	1.093067	0.337981	0.473438
C32	C	1.150482	0.266404	0.526773
C33	C	1.143099	0.275613	0.648695
C34	C	1.100449	0.328774	0.351504
H35	H	0.625152	0.452730	0.000088
H36	H	1.038372	0.406172	0.519337
C37	C	0.507728	0.128077	0.000098
C38	C	0.607250	0.116971	0.000095
H39	H	0.481185	0.045472	0.000087
H40	H	0.483476	0.177836	0.062395
H41	H	0.491032	0.168438	-0.062197
H42	H	0.623947	0.076618	0.062395
H43	H	0.631511	0.067192	-0.062208
C44	C	1.301862	-0.146609	0.189267
C45	C	1.208607	-0.096953	0.188906
H46	H	1.330434	-0.112927	0.251398
H47	H	1.300355	-0.237048	0.189859
H48	H	1.338045	-0.123506	0.126795
H49	H	1.172422	-0.120063	0.251375
H50	H	1.210108	-0.006493	0.188324
C51	C	0.877080	-0.126036	0.092543
C52	C	0.930539	-0.093052	0.000194
H53	H	0.814169	-0.091014	0.092612
H54	H	0.874537	-0.216404	0.093172
H55	H	0.906273	-0.093038	0.154476
H56	H	0.901350	-0.126058	-0.061739
H57	H	0.933078	-0.002665	-0.000445
H58	H	1.216375	-0.135444	-0.162407
C59	C	1.010619	-0.403897	0.188091
C60	C	1.011926	-0.270415	0.188689
H61	H	0.974475	-0.428333	0.250147
H62	H	0.982409	-0.436983	0.125549
H63	H	1.074090	-0.436898	0.188192
H64	H	0.948455	-0.237414	0.188581
H65	H	1.040134	-0.237316	0.251248
H66	H	1.286677	-0.287570	0.000218
C67	C	0.941281	-0.250146	-0.188313
C68	C	1.034843	-0.298866	-0.188487
H69	H	0.912665	-0.283934	-0.250379
H70	H	0.905485	-0.273812	-0.125780
H71	H	0.942242	-0.159649	-0.188681
H72	H	1.033881	-0.389363	-0.188111
H73	H	1.070647	-0.275209	-0.251036
C74	C	1.217145	0.182490	0.354274
C75	C	1.224121	0.174045	0.464812
H76	H	1.262548	0.125390	0.316021
H77	H	1.154727	0.160434	0.336047
H78	H	1.229448	0.267372	0.335787
H79	H	1.211811	0.089165	0.483300
H80	H	1.286554	0.196093	0.483046
