data_functionalizedCrystal
_audit_creation_method	'MofGen! by Chris Wilmer'
_symmetry_space_group_name_H-M	'P1'
_symmetry_Int_Tables_number	1
_symmetry_cell_setting	triclinic
loop_
_symmetry_equiv_pos_as_xyz
  x,y,z
_cell_length_a	18.101398
_cell_length_b	16.625546
_cell_length_c	16.625539
_cell_angle_alpha	89.969603
_cell_angle_beta	89.988670
_cell_angle_gamma	90.018025
loop_
_atom_site_label
_atom_site_type_symbol
_atom_site_fract_x
_atom_site_fract_y
_atom_site_fract_z
Zn1	Zn	1.132177	-0.321096	-0.455699
Zn2	Zn	1.465510	0.012237	-0.122365
Zn3	Zn	1.798844	0.345571	0.210968
Zn4	Zn	1.132088	-0.455939	-0.320861
Zn5	Zn	1.465421	-0.122606	0.012472
Zn6	Zn	1.798755	0.210728	0.345806
Zn7	Zn	1.008332	-0.321114	-0.320901
Zn8	Zn	1.341666	0.012220	0.012432
Zn9	Zn	1.674999	0.345553	0.345766
Zn10	Zn	1.008305	-0.455880	-0.455673
Zn11	Zn	1.341639	-0.122546	-0.122339
Zn12	Zn	1.674972	0.210787	0.210994
O13	O	1.070226	-0.388507	-0.388283
O14	O	1.403559	-0.055174	-0.054950
O15	O	1.736892	0.278160	0.278383
O16	O	1.235798	-0.339000	-0.437807
O17	O	1.569131	-0.005667	-0.104473
O18	O	1.902465	0.327666	0.228860
O19	O	1.115646	-0.438086	-0.208034
O20	O	1.448979	-0.104753	0.125299
O21	O	1.782312	0.228580	0.458633
O22	O	1.024809	-0.208279	-0.338810
O23	O	1.358143	0.125054	-0.005477
O24	O	1.691476	0.458388	0.327857
O25	O	1.235733	-0.438069	-0.338742
O26	O	1.569066	-0.104736	-0.005408
O27	O	1.902399	0.228598	0.327925
O28	O	1.115797	-0.208266	-0.437845
O29	O	1.449131	0.125068	-0.104512
O30	O	1.782464	0.458401	0.228821
O31	O	1.024723	-0.339031	-0.208063
O32	O	1.358056	-0.005697	0.125270
O33	O	1.691390	0.327636	0.458603
O34	O	0.904696	-0.338973	-0.338785
O35	O	1.238029	-0.005640	-0.005451
O36	O	1.571363	0.327693	0.327882
O37	O	1.024763	-0.437968	-0.568509
O38	O	1.358096	-0.104635	-0.235175
O39	O	1.691430	0.228699	0.098158
O40	O	0.904676	-0.437985	-0.437801
O41	O	1.238009	-0.104652	-0.104467
O42	O	1.571343	0.228681	0.228866
O43	O	1.115771	-0.338943	-0.568528
O44	O	1.449104	-0.005610	-0.235194
O45	O	1.782438	0.327724	0.098139
O46	O	1.115619	-0.568764	-0.338717
O47	O	1.448953	-0.235430	-0.005383
O48	O	1.782286	0.097903	0.327950
O49	O	1.024677	-0.568720	-0.437762
O50	O	1.358010	-0.235387	-0.104429
O51	O	1.691343	0.097947	0.228905
C52	C	0.877815	-0.388475	-0.388295
C53	C	1.211148	-0.055142	-0.054961
C54	C	1.544482	0.278191	0.278372
C55	C	0.795501	-0.388481	-0.388319
C56	C	1.128834	-0.055148	-0.054985
C57	C	1.462168	0.278185	0.278348
C58	C	1.070156	-0.597998	-0.388250
C59	C	1.403489	-0.264665	-0.054916
C60	C	1.736822	0.068669	0.278417
C61	C	1.070193	-0.687619	-0.388262
C62	C	1.403527	-0.354286	-0.054929
C63	C	1.736860	-0.020952	0.278404
C64	C	1.070323	-1.015795	-0.388346
C65	C	1.403656	-0.682461	-0.055013
C66	C	1.736989	-0.349128	0.278320
C67	C	1.070284	-0.924486	-0.388325
C68	C	1.403618	-0.591153	-0.054992
C69	C	1.736951	-0.257819	0.278342
C70	C	1.070257	-0.851710	-0.388304
C71	C	1.403591	-0.518376	-0.054970
C72	C	1.736924	-0.185043	0.278363
C73	C	1.070220	-0.760395	-0.388283
C74	C	1.403554	-0.427062	-0.054950
C75	C	1.736887	-0.093729	0.278383
C76	C	0.496410	-0.388529	-0.388285
C77	C	0.829743	-0.055195	-0.054952
C78	C	1.163077	0.278138	0.278382
C79	C	0.527747	-0.451126	-0.450276
C80	C	0.861081	-0.117792	-0.116942
C81	C	1.194414	0.215541	0.216391
C82	C	0.613366	-0.450930	-0.450530
C83	C	0.946699	-0.117596	-0.117197
C84	C	1.280033	0.215737	0.216136
C85	C	0.644793	-0.388506	-0.388302
C86	C	0.978126	-0.055172	-0.054968
C87	C	1.311459	0.278161	0.278365
C88	C	0.613727	-0.303579	-0.411524
C89	C	0.947060	0.029754	-0.078191
C90	C	1.280394	0.363088	0.255142
C91	C	0.528082	-0.303955	-0.411965
C92	C	0.861415	0.029379	-0.078632
C93	C	1.194749	0.362712	0.254701
C94	C	0.527958	-0.410110	-0.302922
C95	C	0.861292	-0.076777	0.030411
C96	C	1.194625	0.256557	0.363745
C97	C	0.613609	-0.411973	-0.303378
C98	C	0.946942	-0.078640	0.029955
C99	C	1.280275	0.254693	0.363289
C100	C	0.728652	-0.388488	-0.388310
C101	C	1.061985	-0.055154	-0.054976
C102	C	1.395319	0.278179	0.278357
C103	C	0.412551	-0.388541	-0.388279
C104	C	0.745884	-0.055208	-0.054946
C105	C	1.079217	0.278126	0.278388
C106	C	1.263388	-0.388539	-0.388273
C107	C	1.596721	-0.055206	-0.054939
C108	C	1.930054	0.278127	0.278394
C109	C	1.345702	-0.388553	-0.388268
C110	C	1.679035	-0.055220	-0.054935
C111	C	2.012368	0.278113	0.278399
C112	C	1.070274	-0.388447	-0.598592
C113	C	1.403607	-0.055114	-0.265259
C114	C	1.736941	0.278220	0.068074
C115	C	1.070294	-0.388421	-0.688214
C116	C	1.403628	-0.055088	-0.354880
C117	C	1.736961	0.278245	-0.021547
C118	C	1.070316	-0.178198	-0.388335
C119	C	1.403650	0.155135	-0.055002
C120	C	1.736983	0.488469	0.278332
C121	C	1.070355	-0.088577	-0.388357
C122	C	1.403688	0.244756	-0.055024
C123	C	1.737021	0.578090	0.278310
C124	C	1.070329	-0.388331	-1.016389
C125	C	1.403662	-0.054998	-0.683056
C126	C	1.736995	0.278336	-0.349723
C127	C	1.070317	-0.388359	-0.925081
C128	C	1.403650	-0.055025	-0.591748
C129	C	1.736984	0.278308	-0.258414
C130	C	1.070312	-0.388377	-0.852304
C131	C	1.403645	-0.055044	-0.518971
C132	C	1.736978	0.278290	-0.185638
C133	C	1.070300	-0.388403	-0.760990
C134	C	1.403633	-0.055070	-0.427657
C135	C	1.736966	0.278263	-0.094323
C136	C	1.070220	-0.388509	-0.178793
C137	C	1.403554	-0.055175	0.154541
C138	C	1.736887	0.278158	0.487874
C139	C	1.070343	-0.388307	-0.089172
C140	C	1.403677	-0.054974	0.244161
C141	C	1.737010	0.278359	0.577495
H142	H	0.507141	-0.514309	-0.435883
H143	H	0.840474	-0.180976	-0.102550
H144	H	1.173807	0.152358	0.230783
N145	N	0.639097	-0.490372	-0.281419
N146	N	0.972431	-0.157038	0.051914
N147	N	1.305764	0.176295	0.385248
N148	N	0.706815	-0.503836	-0.275525
N149	N	1.040148	-0.170503	0.057808
N150	N	1.373481	0.162831	0.391141
H151	H	0.724824	-0.559205	-0.260021
H152	H	1.058157	-0.225872	0.073312
H153	H	1.391491	0.107462	0.406646
N154	N	0.500762	-0.433433	-0.529159
N155	N	0.834095	-0.100100	-0.195826
N156	N	1.167428	0.233233	0.137508
N157	N	0.458551	-0.374923	-0.539921
N158	N	0.791884	-0.041590	-0.206588
N159	N	1.125217	0.291744	0.126746
H160	H	0.439491	-0.362425	-0.595632
H161	H	0.772824	-0.029091	-0.262299
H162	H	1.106157	0.304242	0.071035
H163	H	0.506353	-0.470979	-0.281818
H164	H	0.839686	-0.137646	0.051515
H165	H	1.173019	0.195687	0.384849
N166	N	0.640453	-0.358930	-0.242328
N167	N	0.973786	-0.025597	0.091006
N168	N	1.307119	0.307736	0.424339
N169	N	0.683191	-0.302713	-0.260496
N170	N	1.016525	0.030620	0.072837
N171	N	1.349858	0.363953	0.406170
H172	H	0.702152	-0.265246	-0.217381
H173	H	1.035485	0.068087	0.115952
H174	H	1.368819	0.401421	0.449286
N175	N	0.639080	-0.433017	-0.529878
N176	N	0.972414	-0.099684	-0.196544
N177	N	1.305747	0.233649	0.136789
N178	N	0.593773	-0.420615	-0.585238
N179	N	0.927107	-0.087282	-0.251905
N180	N	1.260440	0.246051	0.081428
H181	H	0.611933	-0.407963	-0.641281
H182	H	0.945266	-0.074630	-0.307948
H183	H	1.278600	0.258704	0.025385
N184	N	0.502541	-0.352900	-0.244987
N185	N	0.835875	-0.019567	0.088346
N186	N	1.169208	0.313766	0.421679
N187	N	0.461372	-0.296457	-0.266363
N188	N	0.794706	0.036877	0.066970
N189	N	1.128039	0.370210	0.400304
H190	H	0.443422	-0.256047	-0.225454
H191	H	0.776755	0.077287	0.107879
H192	H	1.110088	0.410620	0.441213
N193	N	0.640644	-0.280181	-0.488956
N194	N	0.973977	0.053152	-0.155622
N195	N	1.307311	0.386485	0.177711
N196	N	0.678273	-0.217558	-0.496347
N197	N	1.011607	0.115776	-0.163014
N198	N	1.344940	0.449109	0.170320
H199	H	0.697283	-0.201035	-0.551034
H200	H	1.030616	0.132299	-0.217701
H201	H	1.363950	0.465632	0.115632
N202	N	0.639718	-0.529932	-0.432264
N203	N	0.973051	-0.196598	-0.098931
N204	N	1.306385	0.136735	0.234402
N205	N	0.623151	-0.562322	-0.366833
N206	N	0.956484	-0.228989	-0.033500
N207	N	1.289817	0.104344	0.299833
H208	H	0.641758	-0.618122	-0.353935
H209	H	0.975091	-0.284789	-0.020601
H210	H	1.308425	0.048545	0.312732
N211	N	0.503046	-0.280989	-0.490252
N212	N	0.836379	0.052344	-0.156918
N213	N	1.169713	0.385678	0.176415
N214	N	0.548825	-0.264797	-0.544183
N215	N	0.882159	0.068536	-0.210850
N216	N	1.215492	0.401869	0.122483
H217	H	0.531148	-0.248578	-0.599476
H218	H	0.864481	0.084756	-0.266143
H219	H	1.197814	0.418089	0.067191
H220	H	0.507352	-0.255644	-0.368885
H221	H	0.840686	0.077689	-0.035551
H222	H	1.174019	0.411023	0.297782
N223	N	0.639255	-0.243552	-0.356572
N224	N	0.972588	0.089781	-0.023238
N225	N	1.305922	0.423115	0.310095
N226	N	0.624160	-0.249147	-0.283413
N227	N	0.957494	0.084187	0.049921
N228	N	1.290827	0.417520	0.383254
H229	H	0.642191	-0.206781	-0.244571
H230	H	0.975524	0.126553	0.088762
H231	H	1.308858	0.459886	0.422095
