data_functionalizedCrystal
_audit_creation_method	'MofGen! by Chris Wilmer'
_symmetry_space_group_name_H-M	'P1'
_symmetry_Int_Tables_number	1
_symmetry_cell_setting	triclinic
loop_
_symmetry_equiv_pos_as_xyz
  x,y,z
_cell_length_a	11.792241
_cell_length_b	9.065218
_cell_length_c	8.140239
_cell_angle_alpha	90.001686
_cell_angle_beta	89.998145
_cell_angle_gamma	95.395350
loop_
_atom_site_label
_atom_site_type_symbol
_atom_site_fract_x
_atom_site_fract_y
_atom_site_fract_z
O1	O	1.508028	-0.202221	-0.136574
O2	O	1.177802	-0.223063	-0.136584
O3	O	1.349740	0.002064	-0.136575
O4	O	1.336089	-0.427349	-0.136582
O5	O	1.349731	0.002067	0.136652
O6	O	1.177792	-0.223060	0.136644
O7	O	1.508018	-0.202219	0.136653
Zn8	Zn	1.342904	-0.212639	0.180029
Zn9	Zn	1.342916	-0.212643	-0.179959
O10	O	1.336079	-0.427346	0.136645
C11	C	1.135499	-0.221752	0.000029
C12	C	1.009464	-0.217834	0.000025
C13	C	1.550321	-0.203529	0.000037
C14	C	1.676356	-0.207448	0.000030
C15	C	1.907108	-0.214653	0.000031
C16	C	1.778701	-0.210650	0.000031
C17	C	1.348424	0.057040	0.000036
C18	C	1.344501	0.220846	0.000028
C19	C	1.337396	-0.482322	0.000030
C20	C	1.341319	-0.646128	0.000028
N21	N	1.342903	-0.212636	0.425712
N22	N	1.342926	-0.212634	-0.425642
