data_functionalizedCrystal
_audit_creation_method	'MofGen! by Chris Wilmer'
_symmetry_space_group_name_H-M	'P1'
_symmetry_Int_Tables_number	1
_symmetry_cell_setting	triclinic
loop_
_symmetry_equiv_pos_as_xyz
  x,y,z
_cell_length_a	19.288864
_cell_length_b	15.538191
_cell_length_c	17.766277
_cell_angle_alpha	89.995273
_cell_angle_beta	89.976791
_cell_angle_gamma	65.204172
loop_
_atom_site_label
_atom_site_type_symbol
_atom_site_fract_x
_atom_site_fract_y
_atom_site_fract_z
O1	O	0.891966	0.117639	-0.062821
O2	O	1.391966	0.617639	0.437179
O3	O	0.685741	0.133508	-0.062767
O4	O	1.185741	0.633508	0.437233
O5	O	0.828996	-0.011726	-0.062808
O6	O	1.328996	0.488274	0.437192
O7	O	0.748710	0.262873	-0.062780
O8	O	1.248710	0.762873	0.437220
O9	O	0.828980	-0.011734	0.062381
O10	O	1.328980	0.488266	0.562381
O11	O	0.685724	0.133501	0.062421
O12	O	1.185724	0.633501	0.562421
O13	O	0.891949	0.117631	0.062368
O14	O	1.391949	0.617631	0.562368
Cu15	Cu	0.788835	0.125565	0.073825
Cu16	Cu	1.288835	0.625565	0.573825
Cu17	Cu	0.788855	0.125574	-0.074225
Cu18	Cu	1.288855	0.625574	0.425775
O19	O	0.748693	0.262866	0.062409
O20	O	1.248693	0.762866	0.562409
C21	C	0.659983	0.132994	-0.000166
C22	C	1.159983	0.632994	0.499834
C23	C	0.583263	0.131461	-0.000147
C24	C	1.083263	0.631461	0.499853
C25	C	0.517278	0.216678	-0.000150
C26	C	1.017278	0.716678	0.499850
C27	C	0.445191	0.215238	-0.000158
C28	C	0.945191	0.715238	0.499842
C29	C	0.439092	0.128576	-0.000179
C30	C	0.939092	0.628576	0.499821
C31	C	0.505089	0.043348	-0.000171
C32	C	1.005089	0.543348	0.499829
C33	C	0.577175	0.044790	-0.000155
C34	C	1.077175	0.544790	0.499845
C35	C	0.347855	0.060453	-0.044070
C36	C	0.847855	0.560453	0.455930
C37	C	0.275770	0.059014	-0.044091
C38	C	0.775770	0.559014	0.455909
C39	C	0.216759	0.124123	-0.000225
C40	C	0.716759	0.624123	0.499775
C41	C	0.229837	0.190688	0.043652
C42	C	0.729837	0.690688	0.543652
C43	C	0.301922	0.192130	0.043668
C44	C	0.801922	0.692130	0.543668
C45	C	0.360931	0.127002	-0.000196
C46	C	0.860931	0.627002	0.499804
C47	C	0.072607	0.207785	-0.000236
C48	C	0.572607	0.707785	0.499764
C49	C	0.000520	0.206341	-0.000240
C50	C	0.500520	0.706341	0.499760
C51	C	0.060421	0.034449	-0.000261
C52	C	0.560421	0.534449	0.499739
C53	C	0.132506	0.035895	-0.000249
C54	C	0.632506	0.535895	0.499751
C55	C	0.138594	0.122565	-0.000241
C56	C	0.638594	0.622565	0.499759
C57	C	0.837388	-0.046861	-0.000218
C58	C	1.337388	0.453139	0.499782
C59	C	0.862409	-0.151541	-0.000232
C60	C	1.362409	0.348459	0.499768
C61	C	0.613831	-0.438277	-0.000152
C62	C	1.113831	0.061723	0.499848
C63	C	0.637359	-0.536642	-0.000156
C64	C	1.137359	-0.036642	0.499844
C65	C	0.769703	-0.559647	-0.000191
C66	C	1.269703	-0.059647	0.499809
C67	C	0.746185	-0.461281	-0.000190
C68	C	1.246185	0.038719	0.499810
C69	C	0.668248	-0.400603	-0.000170
C70	C	1.168248	0.099397	0.499830
C71	C	0.800603	-0.423608	-0.000208
C72	C	1.300603	0.076392	0.499792
C73	C	0.777087	-0.325251	-0.000203
C74	C	1.277087	0.174749	0.499797
C75	C	0.699153	-0.264567	-0.000181
C76	C	1.199153	0.235433	0.499819
C77	C	0.644732	-0.302246	-0.000165
C78	C	1.144732	0.197754	0.499835
C79	C	0.878540	-0.484287	-0.000223
C80	C	1.378540	0.015713	0.499777
C81	C	0.932957	-0.446614	-0.000241
C82	C	1.432957	0.053386	0.499759
C83	C	0.909441	-0.348255	-0.000242
C84	C	1.409441	0.151745	0.499758
C85	C	0.831508	-0.287571	-0.000219
C86	C	1.331508	0.212429	0.499781
C87	C	0.963863	-0.310576	-0.000257
C88	C	1.463863	0.189424	0.499743
C89	C	0.940346	-0.212219	-0.000253
C90	C	1.440346	0.287781	0.499747
C91	C	0.807992	-0.189214	-0.000214
C92	C	1.307992	0.310786	0.499786
C93	C	0.917706	0.118146	-0.000235
C94	C	1.417706	0.618146	0.499765
C95	C	0.994427	0.119679	-0.000259
C96	C	1.494427	0.619679	0.499741
C97	C	0.740301	0.298001	-0.000183
C98	C	1.240301	0.798001	0.499817
C99	C	0.715280	0.402681	-0.000174
C100	C	1.215280	0.902681	0.499826
N101	N	0.788826	0.125559	0.177956
N102	N	1.288826	0.625559	0.677956
N103	N	0.788871	0.125573	-0.178355
N104	N	1.288871	0.625573	0.321645
C105	C	0.852267	0.061280	0.217325
C106	C	1.352267	0.561280	0.717325
C107	C	0.852272	0.061276	0.296126
C108	C	1.352272	0.561276	0.796126
C109	C	0.788839	0.125566	0.335556
C110	C	1.288839	0.625566	0.835556
C111	C	0.725387	0.189850	0.296178
C112	C	1.225387	0.689850	0.796178
C113	C	0.725381	0.189846	0.217378
C114	C	1.225381	0.689846	0.717378
C115	C	0.758075	0.211489	0.460404
C116	C	1.258075	0.711489	0.960404
C117	C	0.758086	0.211494	0.539203
C118	C	1.258086	0.711494	1.039203
C119	C	0.788854	0.125578	0.578603
C120	C	1.288854	0.625578	1.078603
C121	C	0.819627	0.039653	0.539193
C122	C	1.319627	0.539653	1.039193
C123	C	0.819621	0.039649	0.460393
C124	C	1.319621	0.539649	0.960393
C125	C	0.788838	0.125577	0.421002
C126	C	1.288838	0.625577	0.921002
C127	C	0.852305	0.061289	0.703417
C128	C	1.352305	0.561289	1.203417
C129	C	0.852305	0.061283	0.782221
C130	C	1.352305	0.561283	1.282221
C131	C	0.725422	0.189865	0.782271
C132	C	1.225422	0.689865	1.282271
C133	C	0.725420	0.189863	0.703469
C134	C	1.225420	0.689863	1.203469
C135	C	0.788865	0.125576	0.664047
C136	C	1.288865	0.625576	1.164047
H137	H	0.522228	0.287252	-0.000144
H138	H	1.022228	0.787252	0.499856
Cl139	Cl	0.719406	0.319512	0.588738
Cl140	Cl	1.219406	0.819512	1.088738
H141	H	0.897684	-0.564375	-0.000234
H142	H	1.397684	-0.064375	0.499766
H143	H	0.312567	0.246327	0.079397
H144	H	0.812567	0.746327	0.579397
Cl145	Cl	1.030932	-0.522903	-0.000261
Cl146	Cl	1.530932	-0.022903	0.499739
Cl147	Cl	0.932061	-0.019533	0.653857
Cl148	Cl	1.432061	0.480467	1.153857
Cl149	Cl	1.008758	-0.164854	-0.000261
Cl150	Cl	1.508758	0.335146	0.499739
Cl151	Cl	0.052761	-0.074499	-0.000277
Cl152	Cl	0.552761	0.425501	0.499723
Cl153	Cl	0.932034	-0.019538	0.345627
Cl154	Cl	1.432034	0.480462	0.845627
H155	H	0.186234	-0.033498	-0.000251
H156	H	0.686234	0.466502	0.499749
Cl157	Cl	0.645640	0.270668	0.345745
Cl158	Cl	1.145640	0.770668	0.845745
Cl159	Cl	0.259333	-0.024657	-0.099257
Cl160	Cl	0.759333	0.475343	0.400743
H161	H	0.673719	0.242190	0.185323
H162	H	1.173719	0.742190	0.685323
H163	H	0.395899	0.007431	-0.079796
H164	H	0.895899	0.507431	0.420204
Cl165	Cl	-0.082436	0.313482	-0.000240
Cl166	Cl	0.417564	0.813482	0.499760
H167	H	0.903966	0.008935	0.814275
H168	H	1.403966	0.508935	1.314275
Cl169	Cl	1.061836	-0.386867	-0.000269
Cl170	Cl	1.561836	0.113133	0.499731
Cl171	Cl	0.497424	-0.065599	-0.000193
Cl172	Cl	0.997424	0.434401	0.499807
H173	H	0.903926	0.008932	0.185230
H174	H	1.403926	0.508932	0.685230
H175	H	0.673772	0.242208	0.814374
H176	H	1.173772	0.742208	1.314374
H177	H	0.833159	-0.609064	-0.000204
H178	H	1.333159	-0.109064	0.499796
Cl179	Cl	0.546752	-0.225958	-0.000147
Cl180	Cl	1.046752	0.274042	0.499853
H181	H	0.844675	-0.030314	0.428309
H182	H	1.344675	0.469686	0.928309
Cl183	Cl	0.660132	-0.062349	-0.000152
Cl184	Cl	1.160132	0.437651	0.499848
H185	H	0.680008	-0.184479	-0.000173
H186	H	1.180008	0.315521	0.499827
H187	H	0.744528	-0.139806	-0.000203
H188	H	1.244528	0.360194	0.499797
H189	H	0.844681	-0.030309	0.571271
H190	H	1.344681	0.469691	1.071271
H191	H	0.673762	0.242208	0.671413
H192	H	1.173762	0.742208	1.171413
H193	H	0.733007	0.281457	0.428332
H194	H	1.233007	0.781457	0.928332
H195	H	0.391456	0.284634	-0.000159
H196	H	0.891456	0.784634	0.499841
Cl197	Cl	0.515850	-0.361988	-0.000134
Cl198	Cl	1.015850	0.138012	0.499866
H199	H	0.181790	0.243706	0.079373
H200	H	0.681790	0.743706	0.579373
H201	H	0.077564	0.278357	-0.000218
H202	H	0.577564	0.778357	0.499782
Cl203	Cl	0.568939	-0.583999	-0.000129
Cl204	Cl	1.068939	-0.083999	0.499871
