data_functionalizedCrystal
_audit_creation_method	'MofGen! by Chris Wilmer'
_symmetry_space_group_name_H-M	'P1'
_symmetry_Int_Tables_number	1
_symmetry_cell_setting	triclinic
loop_
_symmetry_equiv_pos_as_xyz
  x,y,z
_cell_length_a	19.188933
_cell_length_b	19.188930
_cell_length_c	10.268362
_cell_angle_alpha	89.993536
_cell_angle_beta	89.996815
_cell_angle_gamma	83.145175
loop_
_atom_site_label
_atom_site_type_symbol
_atom_site_fract_x
_atom_site_fract_y
_atom_site_fract_z
O1	O	0.926144	0.087171	-0.108271
O2	O	1.426144	0.587171	0.391729
O3	O	0.722833	0.098903	-0.108285
O4	O	1.222833	0.598903	0.391715
O5	O	0.830356	-0.008619	-0.108253
O6	O	1.330356	0.491381	0.391747
O7	O	0.818622	0.194693	-0.108304
O8	O	1.318622	0.694693	0.391696
O9	O	0.830346	-0.008615	0.108348
O10	O	1.330346	0.491385	0.608348
O11	O	0.722823	0.098907	0.108315
O12	O	1.222823	0.598907	0.608315
O13	O	0.926134	0.087174	0.108329
O14	O	1.426134	0.587174	0.608329
Cu15	Cu	0.824478	0.093041	0.128100
Cu16	Cu	1.324478	0.593041	0.628100
Cu17	Cu	0.824490	0.093037	-0.128056
Cu18	Cu	1.324490	0.593037	0.371944
O19	O	0.818611	0.194696	0.108296
O20	O	1.318611	0.694696	0.608296
C21	C	0.696817	0.098525	0.000013
C22	C	1.196817	0.598525	0.500013
C23	C	0.619313	0.097384	0.000009
C24	C	1.119313	0.597384	0.500009
C25	C	0.066063	0.089237	-0.118044
C26	C	0.566063	0.589237	0.381956
C27	C	0.138887	0.090305	-0.118049
C28	C	0.638887	0.590305	0.381951
C29	C	0.175299	0.090844	0.000019
C30	C	0.675299	0.590844	0.500019
C31	C	0.138882	0.090297	0.118102
C32	C	0.638882	0.590297	0.618102
C33	C	0.066060	0.089222	0.118104
C34	C	0.566060	0.589222	0.618104
N35	N	0.284314	0.132264	0.087893
N36	N	0.784314	0.632264	0.587893
N37	N	0.353492	0.133287	0.087883
N38	N	0.853492	0.633287	0.587883
C39	C	0.394707	0.094082	0.000021
C40	C	0.894707	0.594082	0.500021
N41	N	0.364130	0.053824	-0.087851
N42	N	0.864130	0.553824	0.412149
N43	N	0.294946	0.052804	-0.087845
N44	N	0.794946	0.552804	0.412155
C45	C	0.254262	0.092009	0.000030
C46	C	0.754262	0.592009	0.500030
C47	C	0.510080	0.095782	-0.118060
C48	C	1.010080	0.595782	0.381940
C49	C	0.582906	0.096846	-0.118060
C50	C	1.082906	0.596846	0.381940
C51	C	0.582899	0.096845	0.118094
C52	C	1.082899	0.596845	0.618094
C53	C	0.510075	0.095774	0.118091
C54	C	1.010075	0.595774	0.618091
C55	C	0.473669	0.095246	0.000010
C56	C	0.973669	0.595246	0.500010
C57	C	0.829971	-0.034628	0.000051
C58	C	1.329971	0.465372	0.500051
C59	C	0.828830	-0.112132	0.000063
C60	C	1.328830	0.387868	0.500063
C61	C	0.891921	-0.157056	0.000073
C62	C	1.391921	0.342944	0.500073
C63	C	0.890849	-0.229880	0.000052
C64	C	1.390849	0.270120	0.500052
C65	C	0.826683	-0.257777	0.000047
C66	C	1.326683	0.242223	0.500047
C67	C	0.763584	-0.212843	0.000029
C68	C	1.263584	0.287157	0.500029
C69	C	0.764658	-0.140021	0.000037
C70	C	1.264658	0.359979	0.500037
N71	N	0.777632	-0.365781	0.073757
N72	N	1.277632	0.134219	0.573757
N73	N	0.776617	-0.434959	0.073752
N74	N	1.276617	0.065041	0.573752
C75	C	0.823445	-0.477185	0.000020
C76	C	1.323445	0.022815	0.500020
N77	N	0.871338	-0.447621	-0.073690
N78	N	1.371338	0.052379	0.426310
N79	N	0.872355	-0.378436	-0.073680
N80	N	1.372355	0.121564	0.426320
C81	C	0.825512	-0.336739	0.000037
C82	C	1.325512	0.163261	0.500037
C83	C	0.885378	-0.601073	0.000006
C84	C	1.385378	-0.101073	0.500006
C85	C	0.884304	-0.673898	-0.000023
C86	C	1.384304	-0.173898	0.499977
C87	C	0.757037	-0.656860	-0.000033
C88	C	1.257037	-0.156860	0.499967
C89	C	0.758113	-0.584037	-0.000017
C90	C	1.258113	-0.084037	0.499983
C91	C	0.822286	-0.556148	0.000009
C92	C	1.322286	-0.056148	0.500009
C93	C	0.952150	0.087553	0.000027
C94	C	1.452150	0.587553	0.500027
C95	C	1.029655	0.088694	0.000023
C96	C	1.529655	0.588694	0.500023
C97	C	0.818997	0.220705	-0.000011
C98	C	1.318997	0.720705	0.499989
C99	C	0.820137	0.298210	-0.000030
C100	C	1.320137	0.798210	0.499970
N101	N	0.824474	0.093044	0.308265
N102	N	1.324474	0.593044	0.808265
N103	N	0.824499	0.093028	-0.308222
N104	N	1.324499	0.593028	0.191778
C105	C	0.824479	0.093044	0.426108
C106	C	1.324479	0.593044	0.926108
C107	C	0.824488	0.093038	0.573946
C108	C	1.324488	0.593038	1.073946
H109	H	0.480437	0.095349	-0.214208
H110	H	0.980437	0.595349	0.285792
H111	H	0.036427	0.088804	-0.214194
H112	H	0.536427	0.588804	0.285806
H113	H	0.612545	0.097282	0.214228
H114	H	1.112545	0.597282	0.714228
O115	O	0.952203	-0.273429	0.000124
O116	O	1.452203	0.226571	0.500124
C117	C	1.009072	-0.233198	0.000110
C118	C	1.509072	0.266802	0.500110
H119	H	0.991182	-0.178792	0.041115
H120	H	1.491182	0.321208	0.541115
H121	H	1.053257	-0.260203	0.063006
H122	H	1.553257	0.239797	0.563006
H123	H	1.028762	-0.228067	-0.103798
H124	H	1.528762	0.271933	0.396202
O125	O	0.954237	-0.129930	0.000312
O126	O	1.454237	0.370070	0.500312
C127	C	0.958654	-0.088309	0.112475
C128	C	1.458654	0.411691	0.612475
H129	H	0.922219	-0.105426	0.190881
H130	H	1.422219	0.394574	0.690881
H131	H	1.014943	-0.095017	0.150132
H132	H	1.514943	0.404983	0.650132
H133	H	0.942373	-0.030829	0.087113
H134	H	1.442373	0.469171	0.587113
O135	O	0.474806	0.095289	0.232899
O136	O	0.974806	0.595289	0.732899
C137	C	0.522559	0.095976	0.337112
C138	C	1.022559	0.595976	0.837112
H139	H	0.571512	0.118840	0.302492
H140	H	1.071512	0.618840	0.802492
H141	H	0.496980	0.129556	0.419684
H142	H	0.996980	0.629556	0.919684
H143	H	0.537799	0.040089	0.373429
H144	H	1.037799	0.540089	0.873429
H145	H	0.706738	-0.547459	-0.000018
H146	H	1.206738	-0.047459	0.499982
O147	O	0.701297	-0.240022	-0.000148
O148	O	1.201297	0.259978	0.499852
C149	C	0.696868	-0.281615	-0.112346
C150	C	1.196868	0.218385	0.387654
H151	H	0.751957	-0.299916	-0.149738
H152	H	1.251957	0.200084	0.350262
H153	H	0.669182	-0.329220	-0.087122
H154	H	1.169182	0.170780	0.412878
H155	H	0.665886	-0.249341	-0.190901
H156	H	1.165886	0.250659	0.309099
H157	H	0.713280	-0.103444	0.000029
H158	H	1.213280	0.396556	0.500029
H159	H	0.937631	-0.578365	0.000021
H160	H	1.437631	-0.078365	0.500021
H161	H	0.704792	-0.679573	-0.000044
H162	H	1.204792	-0.179573	0.499956
O163	O	0.174151	0.090871	-0.232861
O164	O	0.674151	0.590871	0.267139
C165	C	0.126405	0.090157	-0.337079
C166	C	0.626405	0.590157	0.162921
H167	H	0.071533	0.111480	-0.302465
H168	H	0.571533	0.611480	0.197535
H169	H	0.142908	0.124370	-0.419648
H170	H	0.642908	0.624370	0.080352
H171	H	0.126165	0.034046	-0.373399
H172	H	0.626165	0.534046	0.126601
O173	O	0.174338	0.090730	0.232711
O174	O	0.674338	0.590730	0.732711
C175	C	0.224545	0.030889	0.239797
C176	C	0.724545	0.530889	0.739797
H177	H	0.238155	0.010897	0.137284
H178	H	0.738155	0.510897	0.637284
H179	H	0.273932	0.045243	0.289765
H180	H	0.773932	0.545243	0.789765
H181	H	0.202148	-0.011860	0.298071
H182	H	0.702148	0.488140	0.798071
H183	H	0.036417	0.088783	0.214251
H184	H	0.536417	0.588783	0.714251
O185	O	0.945641	-0.717467	-0.000188
O186	O	1.445641	-0.217467	0.499812
C187	C	0.984616	-0.704853	-0.112369
C188	C	1.484616	-0.204853	0.387631
H189	H	0.967305	-0.649553	-0.149762
H190	H	1.467305	-0.149553	0.350238
H191	H	1.042862	-0.710154	-0.087123
H192	H	1.542862	-0.210154	0.412877
H193	H	0.975201	-0.744649	-0.190933
H194	H	1.475201	-0.244649	0.309067
O195	O	0.618164	0.097400	-0.232874
O196	O	1.118164	0.597400	0.267126
C197	C	0.570414	0.096686	-0.337086
C198	C	1.070414	0.596686	0.162914
H199	H	0.515546	0.118021	-0.302472
H200	H	1.015546	0.618021	0.197528
H201	H	0.586922	0.130888	-0.419668
H202	H	1.086922	0.630888	0.080332
H203	H	0.570163	0.040572	-0.373388
H204	H	1.070163	0.540572	0.126612
