data_functionalizedCrystal
_audit_creation_method	'MofGen! by Chris Wilmer'
_symmetry_space_group_name_H-M	'P1'
_symmetry_Int_Tables_number	1
_symmetry_cell_setting	triclinic
loop_
_symmetry_equiv_pos_as_xyz
  x,y,z
_cell_length_a	31.640172
_cell_length_b	20.016444
_cell_length_c	31.640172
_cell_angle_alpha	59.998088
_cell_angle_beta	89.999972
_cell_angle_gamma	59.996143
loop_
_atom_site_label
_atom_site_type_symbol
_atom_site_fract_x
_atom_site_fract_y
_atom_site_fract_z
Zr1	Zr	0.407191	0.731199	-0.055489
Zr2	Zr	0.907191	1.231199	0.444511
O3	O	0.339697	0.870595	-0.122977
O4	O	0.839697	1.370595	0.377023
O5	O	0.427879	0.591818	-0.034800
O6	O	0.927879	1.091818	0.465200
O7	O	0.427871	0.731207	-0.122979
O8	O	0.927871	1.231207	0.377021
O9	O	0.339715	0.731194	0.034759
O10	O	0.839715	1.231194	0.534759
O11	O	0.497427	0.731195	-0.122982
O12	O	0.997427	1.231195	0.377018
O13	O	0.339705	0.731206	-0.034798
O14	O	0.839705	1.231206	0.465202
O15	O	0.497442	0.481854	0.034754
O16	O	0.997442	0.981854	0.534754
O17	O	0.339700	0.980535	-0.122978
O18	O	0.839700	1.480535	0.377022
O19	O	0.488615	0.649133	-0.025979
O20	O	0.988615	1.149133	0.474021
O21	O	0.436713	0.649133	0.025932
O22	O	0.936713	1.149133	0.525932
O23	O	0.436703	0.813245	-0.077888
O24	O	0.936703	1.313245	0.422112
O25	O	0.384802	0.813245	-0.025976
O26	O	0.884802	1.313245	0.474024
Zr27	Zr	0.518141	0.731162	0.055441
Zr28	Zr	1.018141	1.231162	0.555441
Zr29	Zr	0.518125	0.731181	-0.055494
Zr30	Zr	1.018125	1.231181	0.444506
Zr31	Zr	0.407207	0.731180	0.055445
Zr32	Zr	0.907207	1.231180	0.555445
Zr33	Zr	0.407197	0.906541	-0.055491
Zr34	Zr	0.907197	1.406541	0.444509
Zr35	Zr	0.518136	0.555820	0.055442
Zr36	Zr	1.018136	1.055820	0.555442
O37	O	0.497454	0.870543	0.034751
O38	O	0.997454	1.370543	0.534751
O39	O	0.497431	0.870569	-0.122983
O40	O	0.997431	1.370569	0.377017
O41	O	0.339720	0.870568	0.034758
O42	O	0.839720	1.370568	0.534758
O43	O	0.585636	0.591766	0.122928
O44	O	1.085636	1.091766	0.622928
O45	O	0.585613	0.591792	-0.034806
O46	O	1.085613	1.091792	0.465194
O47	O	0.427902	0.591791	0.122934
O48	O	0.927902	1.091791	0.622934
O49	O	0.585617	0.731166	-0.034807
O50	O	1.085617	1.231166	0.465193
O51	O	0.497462	0.731154	0.122930
O52	O	0.997462	1.231154	0.622930
O53	O	0.427906	0.731165	0.122933
O54	O	0.927906	1.231165	0.622933
O55	O	0.585627	0.731155	0.034749
O56	O	1.085627	1.231155	0.534749
O57	O	0.427878	0.980521	-0.122981
O58	O	0.927878	1.480521	0.377019
O59	O	0.497455	0.481840	0.122932
O60	O	0.997455	0.981840	0.622932
O61	O	0.585633	0.481825	0.122929
O62	O	1.085633	0.981825	0.622929
O63	O	0.585620	0.481840	0.034751
O64	O	1.085620	0.981840	0.534751
O65	O	0.339713	0.980521	-0.034800
O66	O	0.839713	1.480521	0.465200
O67	O	0.427891	0.980506	-0.034803
O68	O	0.927891	1.480506	0.465197
O69	O	0.488630	0.649116	0.077839
O70	O	0.988630	1.149116	0.577839
O71	O	0.540531	0.649116	0.025928
O72	O	1.040531	1.149116	0.525928
O73	O	0.488620	0.813228	-0.025981
O74	O	0.988620	1.313228	0.474019
O75	O	0.436718	0.813228	0.025931
O76	O	0.936718	1.313228	0.525931
C77	C	0.462660	0.511854	-0.000023
C78	C	0.962660	1.011854	0.499977
C79	C	0.462657	0.437416	-0.000022
C80	C	0.962657	0.937416	0.499978
C81	C	0.424342	0.326734	-0.038344
C82	C	0.924342	0.826734	0.461656
C83	C	0.424346	0.256789	-0.038346
C84	C	0.924346	0.756789	0.461654
C85	C	0.500994	0.135627	0.038297
C86	C	1.000994	0.635627	0.538297
C87	C	0.500993	0.205571	0.038296
C88	C	1.000993	0.705571	0.538296
C89	C	0.462664	0.301124	-0.000024
C90	C	0.962664	0.801124	0.499976
C91	C	0.462669	0.161236	-0.000025
C92	C	0.962669	0.661236	0.499975
C93	C	0.462673	0.085399	-0.000027
C94	C	0.962673	0.585399	0.499973
C95	C	0.462660	0.376967	-0.000023
C96	C	0.962660	0.876967	0.499977
C97	C	0.323905	0.731203	-0.000019
C98	C	0.823905	1.231203	0.499981
C99	C	0.276810	0.731211	-0.000017
C100	C	0.776810	1.231211	0.499983
C101	C	-0.015201	0.731170	-0.038342
C102	C	0.484799	1.231170	0.461658
C103	C	-0.192187	0.731158	-0.038346
C104	C	0.307813	1.231158	0.461654
O105	O	-0.215065	0.731121	-0.070923
O106	O	0.284935	1.231121	0.429077
N107	N	-0.214312	0.731153	-0.000028
N108	N	0.285688	1.231153	0.499972
C109	C	-0.192186	0.731146	0.038297
C110	C	0.307814	1.231146	0.538297
O111	O	-0.215063	0.731132	0.070892
O112	O	0.284937	1.231132	0.570892
C113	C	-0.015198	0.731151	0.038302
C114	C	0.484802	1.231151	0.538302
C115	C	0.006921	0.731165	-0.000022
C116	C	0.506921	1.231165	0.499978
C117	C	0.006919	0.731183	-0.076663
C118	C	0.506919	1.231183	0.423337
C119	C	0.051162	0.731191	-0.076663
C120	C	0.551162	1.231191	0.423337
C121	C	0.073284	0.731186	-0.038343
C122	C	0.573284	1.231186	0.461657
C123	C	0.051164	0.731173	-0.000022
C124	C	0.551164	1.231173	0.499978
C125	C	0.006929	0.731136	0.076628
C126	C	0.506929	1.231136	0.576628
C127	C	0.051180	0.731135	0.076627
C128	C	0.551180	1.231135	0.576627
C129	C	0.073299	0.731149	0.038303
C130	C	0.573299	1.231149	0.538303
C131	C	0.117528	0.731176	0.038298
C132	C	0.617528	1.231176	0.538298
N133	N	0.139653	0.731181	-0.000021
N134	N	0.639653	1.231181	0.499979
C135	C	0.117531	0.731186	-0.038341
C136	C	0.617531	1.231186	0.461659
C137	C	-0.285108	0.731145	0.038290
C138	C	0.214892	1.231145	0.538290
C139	C	-0.329355	0.731145	0.038289
C140	C	0.170645	1.231145	0.538289
C141	C	-0.329353	0.731156	-0.038354
C142	C	0.170647	1.231156	0.461646
C143	C	-0.285107	0.731162	-0.038354
C144	C	0.214893	1.231162	0.461646
C145	C	-0.262983	0.731149	-0.000028
C146	C	0.237017	1.231149	0.499972
C147	C	0.210443	0.731203	-0.038339
C148	C	0.710443	1.231203	0.461661
C149	C	0.254688	0.731216	-0.038337
C150	C	0.754688	1.231216	0.461663
C151	C	0.254683	0.731200	0.038307
C152	C	0.754683	1.231200	0.538307
C153	C	0.210440	0.731193	0.038303
C154	C	0.710440	1.231193	0.538303
C155	C	0.188322	0.731191	-0.000022
C156	C	0.688322	1.231191	0.499978
O157	O	0.140436	0.731202	0.070861
O158	O	0.640436	1.231202	0.570861
O159	O	0.140422	0.731178	-0.070925
O160	O	0.640422	1.231178	0.429075
C161	C	-0.059443	0.731162	-0.038342
C162	C	0.440557	1.231162	0.461658
C163	C	-0.081563	0.731149	-0.000021
C164	C	0.418437	1.231149	0.499979
C165	C	-0.059441	0.731144	0.038299
C166	C	0.440559	1.231144	0.538299
C167	C	-0.125811	0.731149	-0.000023
C168	C	0.374189	1.231149	0.499977
C169	C	-0.147933	0.731154	-0.038344
C170	C	0.352067	1.231154	0.461656
C171	C	-0.125808	0.731158	-0.076662
C172	C	0.374192	1.231158	0.423338
C173	C	-0.081565	0.731167	-0.076663
C174	C	0.418435	1.231167	0.423337
C175	C	-0.081566	0.731139	0.076618
C176	C	0.418434	1.231139	0.576618
C177	C	-0.125809	0.731132	0.076614
C178	C	0.374191	1.231132	0.576614
C179	C	-0.147931	0.731137	0.038294
C180	C	0.352069	1.231137	0.538294
C181	C	0.601428	0.731158	-0.000030
C182	C	1.101428	1.231158	0.499970
C183	C	0.648523	0.731150	-0.000032
C184	C	1.148523	1.231150	0.499968
C185	C	0.462646	0.731204	-0.138786
C186	C	0.962646	1.231204	0.361214
C187	C	0.462640	0.731212	-0.185881
C188	C	0.962640	1.231212	0.314119
C189	C	0.462673	0.950507	-0.000026
C190	C	0.962673	1.450507	0.499974
C191	C	0.462675	1.024945	-0.000027
C192	C	0.962675	1.524945	0.499973
C193	C	0.500995	0.731157	-0.477888
C194	C	1.000995	1.231157	0.022112
C195	C	0.501007	0.731145	-0.654874
C196	C	1.001007	1.231145	-0.154874
O197	O	0.533610	0.731097	-0.677748
O198	O	1.033610	1.231097	-0.177748
N199	N	0.462687	0.731153	-0.677003
N200	N	0.962687	1.231153	-0.177003
C201	C	0.424363	0.731158	-0.654881
C202	C	0.924363	1.231158	-0.154881
O203	O	0.391773	0.731155	-0.677761
O204	O	0.891773	1.231155	-0.177761
C205	C	0.424355	0.731163	-0.477893
C206	C	0.924355	1.231163	0.022107
C207	C	0.462674	0.731165	-0.455769
C208	C	0.962674	1.231165	0.044231
C209	C	0.539312	0.731158	-0.455763
C210	C	1.039312	1.231158	0.044237
C211	C	0.539307	0.731166	-0.411521
C212	C	1.039307	1.231166	0.088479
C213	C	0.500985	0.731174	-0.389403
C214	C	1.000985	1.231174	0.110597
C215	C	0.462669	0.731173	-0.411527
C216	C	0.962669	1.231173	0.088473
C217	C	0.386034	0.731162	-0.455770
C218	C	0.886034	1.231162	0.044230
C219	C	0.386036	0.731161	-0.411519
C220	C	0.886036	1.231161	0.088481
C221	C	0.424355	0.731162	-0.389395
C222	C	0.924355	1.231162	0.110605
C223	C	0.424343	0.731189	-0.345167
C224	C	0.924343	1.231189	0.154833
N225	N	0.462662	0.731181	-0.323038
N226	N	0.962662	1.231181	0.176962
C227	C	0.500984	0.731173	-0.345156
C228	C	1.000984	1.231173	0.154844
C229	C	0.424370	0.731157	-0.747802
C230	C	0.924370	1.231157	-0.247802
C231	C	0.424372	0.731157	-0.792050
C232	C	0.924372	1.231157	-0.292050
C233	C	0.501016	0.731142	-0.792039
C234	C	1.001016	1.231142	-0.292039
C235	C	0.501012	0.731149	-0.747793
C236	C	1.001012	1.231149	-0.247793
C237	C	0.462690	0.731149	-0.725673
C238	C	0.962690	1.231149	-0.225673
C239	C	0.500970	0.731192	-0.252244
C240	C	1.000970	1.231192	0.247756
C241	C	0.500961	0.731204	-0.207999
C242	C	1.000961	1.231204	0.292001
C243	C	0.424319	0.731214	-0.208012
C244	C	0.924319	1.231214	0.291988
C245	C	0.424327	0.731206	-0.252255
C246	C	0.924327	1.231206	0.247745
C247	C	0.462657	0.731192	-0.274368
C248	C	0.962657	1.231192	0.225632
O249	O	0.391760	0.731226	-0.322262
O250	O	0.891760	1.231226	0.177738
O251	O	0.533576	0.731156	-0.322261
O252	O	1.033576	1.231156	0.177739
C253	C	0.501000	0.731149	-0.522130
C254	C	1.001000	1.231149	-0.022130
C255	C	0.462684	0.731148	-0.544254
C256	C	0.962684	1.231148	-0.044254
C257	C	0.424362	0.731156	-0.522136
C258	C	0.924362	1.231156	-0.022136
C259	C	0.462685	0.731149	-0.588501
C260	C	0.962685	1.231149	-0.088501
C261	C	0.501007	0.731141	-0.610619
C262	C	1.001007	1.231141	-0.110619
C263	C	0.539326	0.731133	-0.588490
C264	C	1.039326	1.231133	-0.088490
C265	C	0.539321	0.731141	-0.544248
C266	C	1.039321	1.231141	-0.044248
C267	C	0.386042	0.731164	-0.544265
C268	C	0.886042	1.231164	-0.044265
C269	C	0.386050	0.731157	-0.588508
C270	C	0.886050	1.231157	-0.088508
C271	C	0.424371	0.731149	-0.610626
C272	C	0.924371	1.231149	-0.110626
C273	C	0.462686	0.731157	0.138738
C274	C	0.962686	1.231157	0.638738
C275	C	0.462693	0.731149	0.185832
C276	C	0.962693	1.231149	0.685832
C277	C	0.601421	0.511831	-0.000028
C278	C	1.101421	1.011831	0.499972
C279	C	0.648514	0.437386	-0.000030
C280	C	1.148514	0.937386	0.499970
C281	C	0.462680	0.511830	0.138739
C282	C	0.962680	1.011830	0.638739
C283	C	0.462684	0.437385	0.185834
C284	C	0.962684	0.937385	0.685834
C285	C	0.601441	0.511808	0.138734
C286	C	1.101441	1.011808	0.638734
C287	C	0.648540	0.437355	0.185827
C288	C	1.148540	0.937355	0.685827
C289	C	0.323891	0.950553	-0.138782
C290	C	0.823891	1.450553	0.361218
C291	C	0.276792	1.025006	-0.185876
C292	C	0.776792	1.525006	0.314124
C293	C	0.323911	0.950530	-0.000021
C294	C	0.823911	1.450530	0.499979
C295	C	0.276819	1.024975	-0.000019
C296	C	0.776819	1.524975	0.499981
C297	C	0.462653	0.950530	-0.138788
C298	C	0.962653	1.450530	0.361212
C299	C	0.462648	1.024976	-0.185883
C300	C	0.962648	1.524976	0.314117
C301	C	0.643529	0.402435	-0.027130
C302	C	1.143529	0.902435	0.472870
C303	C	0.687773	0.332495	-0.027141
C304	C	1.187773	0.832495	0.472859
C305	C	0.737001	0.297504	-0.000049
C306	C	1.237001	0.797504	0.499951
C307	C	0.741985	0.332462	0.027052
C308	C	1.241985	0.832462	0.527052
C309	C	0.697741	0.402405	0.027060
C310	C	1.197741	0.902405	0.527060
C311	C	0.489786	0.402416	0.235050
C312	C	0.989786	0.902416	0.735050
C313	C	0.489789	0.332476	0.279306
C314	C	0.989789	0.832476	0.779306
C315	C	0.462692	0.297502	0.274344
C316	C	0.962692	0.797502	0.774344
C317	C	0.435586	0.332478	0.225122
C318	C	0.935586	0.832478	0.725122
C319	C	0.435581	0.402422	0.180868
C320	C	0.935581	0.902422	0.680868
C321	C	0.697755	0.402391	0.180845
C322	C	1.197755	0.902391	0.680845
C323	C	0.742014	0.332444	0.225090
C324	C	1.242014	0.832444	0.725090
C325	C	0.737057	0.297458	0.274316
C326	C	1.237057	0.797458	0.774316
C327	C	0.687837	0.332428	0.279297
C328	C	1.187837	0.832428	0.779297
C329	C	0.643579	0.402379	0.235052
C330	C	1.143579	0.902379	0.735052
C331	C	0.227577	1.059978	-0.180894
C332	C	0.727577	1.559978	0.319106
C333	C	0.183319	1.129947	-0.225139
C334	C	0.683319	1.629947	0.274861
C335	C	0.188276	1.164937	-0.274365
C336	C	0.688276	1.664937	0.225635
C337	C	0.237496	1.129962	-0.279346
C338	C	0.737496	1.629962	0.220654
C339	C	0.281754	1.059999	-0.235101
C340	C	0.781754	1.559999	0.264899
C341	C	0.281804	1.059933	0.027076
C342	C	0.781804	1.559933	0.527076
C343	C	0.237560	1.129892	0.027076
C344	C	0.737560	1.629892	0.527076
C345	C	0.188332	1.164886	-0.000018
C346	C	0.688332	1.664886	0.499982
C347	C	0.183348	1.129925	-0.027117
C348	C	0.683348	1.629925	0.472883
C349	C	0.227591	1.059972	-0.027119
C350	C	0.727591	1.559972	0.472881
C351	C	0.489751	1.059927	-0.180905
C352	C	0.989751	1.559927	0.319095
C353	C	0.489757	1.129868	-0.225151
C354	C	0.989757	1.629868	0.274849
C355	C	0.462657	1.164859	-0.274376
C356	C	0.962657	1.664859	0.225624
C357	C	0.435554	1.129901	-0.279353
C358	C	0.935554	1.629901	0.220647
C359	C	0.435551	1.059957	-0.235107
C360	C	0.935551	1.559957	0.264893
H361	H	0.272696	0.731229	-0.069547
H362	H	0.772696	1.231229	0.430453
F363	F	0.591202	0.439578	0.240362
F364	F	1.091202	0.939578	0.740362
H365	H	0.773023	0.240551	-0.000060
H366	H	1.273023	0.740551	0.499940
F367	F	0.141168	1.239398	-0.321450
F368	F	0.641168	1.739398	0.178550
F369	F	0.541783	0.033931	0.079079
F370	F	1.041783	0.533931	0.579079
H371	H	0.683705	0.304041	-0.049210
H372	H	1.183705	0.804041	0.450790
H373	H	0.462700	0.240550	0.310382
H374	H	0.962700	0.740550	0.810382
F375	F	0.242764	1.167209	-0.331740
F376	F	0.742764	1.667209	0.168260
H377	H	0.413513	0.430884	0.140796
H378	H	0.913513	0.930884	0.640796
F379	F	0.541783	0.178311	0.079082
F380	F	1.041783	0.678311	0.579082
H381	H	0.143260	1.158428	-0.049175
H382	H	0.643260	1.658428	0.450825
H383	H	0.701802	0.430867	0.140767
H384	H	1.201802	0.930867	0.640767
H385	H	0.511826	1.158323	-0.221088
H386	H	1.011826	1.658323	0.278912
F387	F	0.794393	0.295235	0.219779
F388	F	1.294393	0.795235	0.719779
F389	F	0.334131	1.022781	-0.240411
F390	F	0.834131	1.522781	0.259589
F391	F	0.591140	0.439665	-0.055968
F392	F	1.091140	0.939665	0.444032
F393	F	0.462663	1.239302	-0.321463
F394	F	0.962663	1.739302	0.178537
F395	F	0.334192	1.022705	0.055914
F396	F	0.834192	1.522705	0.555914
H397	H	0.683808	0.303932	0.319383
H398	H	1.183808	0.803932	0.819383
H399	H	0.413490	1.158402	-0.319438
H400	H	0.913490	1.658402	0.180562
H401	H	-0.347373	0.731162	-0.069557
H402	H	0.152627	1.231162	0.430443
H403	H	0.532183	0.731178	-0.270244
H404	H	1.032183	1.231178	0.229756
F405	F	0.242875	1.167085	0.055921
F406	F	0.742875	1.667085	0.555921
F407	F	0.406750	0.295246	0.219850
F408	F	0.906750	0.795246	0.719850
F409	F	0.345250	0.731158	-0.479307
F410	F	0.845250	1.231158	0.020693
F411	F	0.784165	0.223009	0.321401
F412	F	1.284165	0.723009	0.821401
H413	H	0.393141	0.277649	-0.069550
H414	H	0.893141	0.777649	0.430450
H415	H	0.152310	1.221846	-0.000012
H416	H	0.652310	1.721846	0.499988
H417	H	0.223531	1.031493	-0.140816
H418	H	0.723531	1.531493	0.359184
H419	H	0.192440	0.731201	-0.069547
H420	H	0.692440	1.231201	0.430453
H421	H	0.393163	0.731157	-0.729796
H422	H	0.893163	1.231157	-0.229796
H423	H	0.223525	1.031511	-0.049182
H424	H	0.723525	1.531511	0.450818
H425	H	-0.267099	0.731173	-0.069560
H426	H	0.232901	1.231173	0.430440
H427	H	0.069170	0.731199	-0.107869
H428	H	0.569170	1.231199	0.392131
H429	H	0.511818	1.031448	-0.140827
H430	H	1.011818	1.531448	0.359173
H431	H	0.701807	0.430853	0.049131
H432	H	1.201807	0.930853	0.549131
F433	F	0.406699	1.022773	-0.240414
F434	F	0.906699	1.522773	0.259586
H435	H	0.393129	0.404535	-0.069543
H436	H	0.893129	0.904535	0.430457
F437	F	0.130940	1.167155	-0.219827
F438	F	0.630940	1.667155	0.280173
H439	H	-0.011088	0.731184	-0.107869
H440	H	0.488912	1.231184	0.392131
F441	F	0.541800	0.731134	-0.815587
F442	F	1.041800	1.231134	-0.315587
F443	F	-0.352898	0.731148	0.079073
F444	F	0.147102	1.231148	0.579073
H445	H	0.511863	0.304007	0.319379
H446	H	1.011863	0.804007	0.819379
H447	H	-0.267098	0.731135	0.069501
H448	H	0.232902	1.231135	0.569501
F449	F	-0.016604	0.731119	0.117418
F450	F	0.483396	1.231119	0.617418
H451	H	0.069192	0.731122	0.107838
H452	H	0.569192	1.231122	0.607838
H453	H	0.570511	0.731163	-0.393509
H454	H	1.070511	1.231163	0.106491
F455	F	0.278233	0.731198	0.079088
F456	F	0.778233	1.231198	0.579088
F457	F	-0.058028	0.731181	-0.117452
F458	F	0.441972	1.231181	0.382548
F459	F	0.186895	0.731193	0.079088
F460	F	0.686895	1.231193	0.579088
H461	H	-0.143818	0.731128	0.107822
H462	H	0.356182	1.231128	0.607822
F463	F	-0.058027	0.731134	0.117405
F464	F	0.441973	1.231134	0.617405
F465	F	0.541746	0.731208	-0.184456
F466	F	1.041746	1.231208	0.315544
F467	F	-0.149361	0.731168	-0.117447
F468	F	0.350639	1.231168	0.382553
H469	H	0.511852	0.430884	0.239100
H470	H	1.011852	0.930884	0.739100
F471	F	0.580102	0.731148	-0.479297
F472	F	1.080102	1.231148	0.020703
H473	H	0.393164	0.731170	-0.810064
H474	H	0.893164	1.231170	-0.310064
F475	F	0.541796	0.731149	-0.724251
F476	F	1.041796	1.231149	-0.224251
H477	H	0.354830	0.731158	-0.393510
H478	H	0.854830	1.231158	0.106490
H479	H	0.393119	0.731219	-0.270272
H480	H	0.893119	1.231219	0.229728
H481	H	0.393117	0.731224	-0.189998
H482	H	0.893117	1.231224	0.310002
H483	H	0.570525	0.731142	-0.526238
H484	H	1.070525	1.231142	-0.026238
F485	F	0.580109	0.731129	-0.612039
F486	F	1.080109	1.231129	-0.112039
H487	H	0.354842	0.731163	-0.606520
H488	H	0.854842	1.231163	-0.106520
H489	H	0.354837	0.731169	-0.526259
H490	H	0.854837	1.231169	-0.026259
H491	H	0.782072	0.303961	0.049109
H492	H	1.282072	0.803961	0.549109
