data_functionalizedCrystal
_audit_creation_method	'MofGen! by Chris Wilmer'
_symmetry_space_group_name_H-M	'P1'
_symmetry_Int_Tables_number	1
_symmetry_cell_setting	triclinic
loop_
_symmetry_equiv_pos_as_xyz
  x,y,z
_cell_length_a	12.827892
_cell_length_b	19.805407
_cell_length_c	19.805399
_cell_angle_alpha	90.016510
_cell_angle_beta	89.976064
_cell_angle_gamma	89.988458
loop_
_atom_site_label
_atom_site_type_symbol
_atom_site_fract_x
_atom_site_fract_y
_atom_site_fract_z
Zn1	Zn	-0.416150	-1.034770	-0.382737
Zn2	Zn	-0.590910	-1.034711	-0.269558
Zn3	Zn	-0.416171	-0.921589	-0.269562
Zn4	Zn	-0.590838	-0.921569	-0.382706
O5	O	-0.503517	-0.978160	-0.326141
O6	O	-0.439353	-1.129478	-0.367735
O7	O	-0.567769	-1.019690	-0.174842
O8	O	-0.269933	-0.936636	-0.284589
O9	O	-0.567748	-1.129436	-0.284583
O10	O	-0.269917	-1.019789	-0.367738
O11	O	-0.439390	-0.936579	-0.174845
O12	O	-0.439320	-0.826870	-0.284559
O13	O	-0.567626	-0.936602	-0.477427
O14	O	-0.567647	-0.826856	-0.367686
O15	O	-0.439284	-1.019769	-0.477449
O16	O	-0.737136	-1.019670	-0.284553
O17	O	-0.737084	-0.936545	-0.367682
C18	C	-0.503479	-0.802304	-0.326120
C19	C	-0.503488	-0.727072	-0.326127
C20	C	-0.436750	-0.691751	-0.369489
C21	C	-0.436753	-0.621062	-0.369490
C22	C	-0.503500	-0.585696	-0.326132
C23	C	-0.570242	-0.621023	-0.282765
C24	C	-0.570232	-0.691710	-0.282761
C25	C	-0.570280	-0.335949	-0.282779
C26	C	-0.570286	-0.265257	-0.282787
C27	C	-0.436800	-0.265302	-0.369508
C28	C	-0.436791	-0.335989	-0.369504
C29	C	-0.503528	-0.371309	-0.326135
C30	C	-0.503522	-0.447957	-0.326134
C31	C	-0.503512	-0.509049	-0.326136
C32	C	-0.775027	-0.978118	-0.326129
C33	C	-0.891180	-0.978161	-0.326146
C34	C	-0.942956	-1.019343	-0.285057
C35	C	-1.063007	-1.019389	-0.285074
C36	C	-0.230947	-0.978221	-0.326167
C37	C	-0.114794	-0.978247	-0.326179
C38	C	-0.503445	-0.978190	-0.502683
C39	C	-0.503414	-0.978202	-0.577915
C40	C	-0.503549	-0.154703	-0.326156
C41	C	-0.503542	-0.229935	-0.326147
C42	C	-0.436560	-0.934939	-0.613261
C43	C	-0.436540	-0.934948	-0.683949
C44	C	-0.503369	-0.978225	-0.719291
C45	C	-0.570230	-1.021490	-0.683941
C46	C	-0.570254	-1.021477	-0.613254
C47	C	-0.570132	-1.021544	-0.969015
C48	C	-0.570100	-1.021555	-1.039707
C49	C	-0.436418	-0.935015	-1.039710
C50	C	-0.436442	-0.935002	-0.969022
C51	C	-0.503307	-0.978264	-0.933679
C52	C	-0.503329	-0.978253	-0.857030
C53	C	-0.503342	-0.978240	-0.795938
C54	C	-0.503514	-0.978169	-0.150285
C55	C	-0.503251	-0.978288	-0.075053
H56	H	-0.382442	-0.364780	-0.404813
C57	C	-0.363343	-0.582216	-0.417198
C58	C	-0.372044	-0.591969	-0.494131
C59	C	-0.298630	-0.553127	-0.541843
C60	C	-0.216516	-0.504531	-0.512622
C61	C	-0.207812	-0.494776	-0.435685
C62	C	-0.281226	-0.533618	-0.387973
H63	H	-0.432832	-0.627944	-0.515766
H64	H	-0.305073	-0.560348	-0.598797
H65	H	-0.162171	-0.475778	-0.547941
H66	H	-0.147024	-0.458801	-0.414050
H67	H	-0.274783	-0.526397	-0.331018
H68	H	-0.624648	-1.056723	-0.712722
H69	H	-1.070275	-0.942985	-0.361356
C70	C	-0.643792	-1.069068	-0.574372
C71	C	-0.717301	-1.116674	-0.613243
C72	C	-0.790846	-1.164264	-0.574362
C73	C	-0.790880	-1.164249	-0.496609
C74	C	-0.717368	-1.116642	-0.457733
C75	C	-0.643824	-1.069052	-0.496614
H76	H	-0.717278	-1.116686	-0.670805
H77	H	-0.845264	-1.199506	-0.603141
H78	H	-0.845322	-1.199479	-0.467826
H79	H	-0.717391	-1.116630	-0.400171
H80	H	-0.589406	-1.033810	-0.467835
H81	H	-0.624524	-1.056797	-1.068480
C82	C	-0.363376	-0.226449	-0.417210
C83	C	-0.244567	-0.236183	-0.411821
C84	C	-0.171148	-0.197333	-0.459524
C85	C	-0.216538	-0.148750	-0.512615
C86	C	-0.335354	-0.139014	-0.518006
C87	C	-0.408773	-0.177864	-0.470303
H88	H	-0.210961	-0.272149	-0.372518
H89	H	-0.083192	-0.204540	-0.455533
H90	H	-0.162189	-0.119991	-0.547927
H91	H	-0.368960	-0.103048	-0.557309
H92	H	-0.496728	-0.170657	-0.474294
H93	H	-0.624642	-0.236464	-0.247477
H94	H	-0.624588	-1.056763	-0.940246
H95	H	-1.107533	-1.054645	-0.249894
C96	C	-0.362989	-0.887362	-0.722825
C97	C	-0.371484	-0.810413	-0.713092
C98	C	-0.297928	-0.762825	-0.751966
C99	C	-0.215876	-0.792186	-0.800574
C100	C	-0.207378	-0.869139	-0.810310
C101	C	-0.280934	-0.916727	-0.771436
H102	H	-0.432227	-0.788675	-0.677107
H103	H	-0.304220	-0.705859	-0.744759
H104	H	-0.161426	-0.756958	-0.829351
H105	H	-0.146635	-0.890877	-0.846295
H106	H	-0.274643	-0.973693	-0.778643
C107	C	-0.363325	-0.730650	-0.417185
C108	C	-0.289909	-0.691794	-0.464879
C109	C	-0.216480	-0.730691	-0.512574
C110	C	-0.216465	-0.808444	-0.512575
C111	C	-0.289883	-0.847304	-0.464879
C112	C	-0.363313	-0.808407	-0.417184
H113	H	-0.289918	-0.634232	-0.464880
H114	H	-0.162131	-0.701923	-0.547882
H115	H	-0.162108	-0.837238	-0.547882
H116	H	-0.289875	-0.904866	-0.464879
H117	H	-0.417662	-0.837175	-0.381876
H118	H	-0.935730	-0.942941	-0.361340
C119	C	-0.362873	-0.887419	-1.078590
C120	C	-0.408121	-0.834273	-1.127170
C121	C	-0.334576	-0.786680	-1.166048
C122	C	-0.215783	-0.792234	-1.156346
C123	C	-0.170528	-0.845382	-1.107763
C124	C	-0.244073	-0.892975	-1.068885
H125	H	-0.496064	-0.830160	-1.134355
H126	H	-0.368077	-0.747337	-1.202013
H127	H	-0.161340	-0.757003	-1.185125
H128	H	-0.082585	-0.849495	-1.100578
H129	H	-0.210572	-0.932318	-1.032920
H130	H	-0.624622	-0.364698	-0.247466
C131	C	-0.643666	-0.582121	-0.235071
C132	C	-0.598287	-0.533507	-0.181987
C133	C	-0.671715	-0.494607	-0.134293
C134	C	-0.790523	-0.504321	-0.139684
C135	C	-0.835908	-0.552937	-0.192770
C136	C	-0.762479	-0.591838	-0.240464
H137	H	-0.510333	-0.526314	-0.177994
H138	H	-0.638117	-0.458617	-0.094995
H139	H	-0.844879	-0.475524	-0.104378
H140	H	-0.923862	-0.560130	-0.196763
H141	H	-0.796077	-0.627827	-0.279761
C142	C	-0.643646	-0.730566	-0.235063
C143	C	-0.717070	-0.691668	-0.187370
C144	C	-0.790482	-0.730524	-0.139667
C145	C	-0.790470	-0.808277	-0.139657
C146	C	-0.717044	-0.847179	-0.187352
C147	C	-0.643632	-0.808324	-0.235055
H148	H	-0.717081	-0.634107	-0.187375
H149	H	-0.844837	-0.701726	-0.104360
H150	H	-0.844814	-0.837040	-0.104345
H151	H	-0.717033	-0.904740	-0.187347
H152	H	-0.589277	-0.837122	-0.270362
H153	H	-0.898410	-1.054569	-0.249868
H154	H	-0.382135	-0.899702	-0.584490
H155	H	-0.382020	-0.899764	-0.940250
