data_functionalizedCrystal
_audit_creation_method	'MofGen! by Chris Wilmer'
_symmetry_space_group_name_H-M	'P1'
_symmetry_Int_Tables_number	1
_symmetry_cell_setting	triclinic
loop_
_symmetry_equiv_pos_as_xyz
  x,y,z
_cell_length_a	16.974800
_cell_length_b	19.188930
_cell_length_c	15.455446
_cell_angle_alpha	87.330126
_cell_angle_beta	96.313128
_cell_angle_gamma	83.267966
loop_
_atom_site_label
_atom_site_type_symbol
_atom_site_fract_x
_atom_site_fract_y
_atom_site_fract_z
O1	O	1.048914	0.088874	0.001518
O2	O	1.382247	0.422207	0.334851
O3	O	1.715580	0.755541	0.668184
O4	O	0.817888	0.100907	-0.014709
O5	O	1.151221	0.434240	0.318625
O6	O	1.484554	0.767574	0.651958
O7	O	0.940068	-0.006774	-0.006110
O8	O	1.273402	0.326559	0.327223
O9	O	1.606735	0.659892	0.660556
O10	O	0.926733	0.196555	-0.007081
O11	O	1.260066	0.529889	0.326253
O12	O	1.593400	0.863222	0.659586
O13	O	0.947016	-0.012910	0.138638
O14	O	1.280350	0.320423	0.471971
O15	O	1.613683	0.653757	0.805304
O16	O	0.824835	0.094771	0.130039
O17	O	1.158169	0.428105	0.463373
O18	O	1.491502	0.761438	0.796706
O19	O	1.055862	0.082738	0.146266
O20	O	1.389195	0.416072	0.479599
O21	O	1.722528	0.749405	0.812932
Cu22	Cu	0.940983	0.088195	0.151369
Cu23	Cu	1.274316	0.421528	0.484702
Cu24	Cu	1.607650	0.754861	0.818036
Cu25	Cu	0.932766	0.095451	-0.019812
Cu26	Cu	1.266100	0.428784	0.313521
Cu27	Cu	1.599433	0.762117	0.646854
O28	O	0.933681	0.190420	0.137667
O29	O	1.267014	0.523753	0.471001
O30	O	1.600347	0.857087	0.804334
C31	C	0.791805	0.097497	0.055590
C32	C	1.125138	0.430831	0.388923
C33	C	1.458472	0.764164	0.722256
C34	C	0.703735	0.096471	0.049405
C35	C	1.037069	0.429804	0.382738
C36	C	1.370402	0.763137	0.716071
C37	C	0.666152	0.092642	0.125403
C38	C	0.999485	0.425975	0.458737
C39	C	1.332819	0.759308	0.792070
C40	C	0.583403	0.091666	0.119594
C41	C	0.916736	0.424999	0.452928
C42	C	1.250070	0.758332	0.786261
C43	C	0.538238	0.094523	0.037786
C44	C	0.871571	0.427857	0.371120
C45	C	1.204905	0.761190	0.704453
C46	C	0.575827	0.098350	-0.038218
C47	C	0.909160	0.431684	0.295115
C48	C	1.242494	0.765017	0.628449
C49	C	0.658575	0.099321	-0.032408
C50	C	0.991909	0.432655	0.300925
C51	C	1.325242	0.765988	0.634258
C52	C	0.290351	0.091973	0.011950
C53	C	0.623684	0.425307	0.345283
C54	C	0.957018	0.758640	0.678617
C55	C	0.207597	0.091004	0.006146
C56	C	0.540930	0.424337	0.339479
C57	C	0.874264	0.757671	0.672813
C58	C	0.215179	0.084318	0.163959
C59	C	0.548512	0.417651	0.497292
C60	C	0.881846	0.750985	0.830626
C61	C	0.297928	0.085294	0.169761
C62	C	0.631261	0.418627	0.503095
C63	C	0.964595	0.751960	0.836428
C64	C	0.335510	0.089117	0.093757
C65	C	0.668844	0.422450	0.427091
C66	C	1.002177	0.755783	0.760424
N67	N	0.453655	0.093528	0.031847
N68	N	0.786988	0.426861	0.365180
N69	N	1.120321	0.760195	0.698513
N70	N	0.420093	0.090107	0.099698
N71	N	0.753426	0.423440	0.433031
N72	N	1.086759	0.756774	0.766365
C73	C	0.943111	-0.035853	0.066236
C74	C	1.276444	0.297480	0.399569
C75	C	1.609777	0.630814	0.732903
C76	C	0.941815	-0.113356	0.066152
C77	C	1.275148	0.219977	0.399486
C78	C	1.608482	0.553311	0.732819
C79	C	1.013506	-0.158373	0.071192
C80	C	1.346840	0.174961	0.404525
C81	C	1.680173	0.508294	0.737858
C82	C	1.012288	-0.231194	0.071092
C83	C	1.345621	0.102139	0.404426
C84	C	1.678955	0.435472	0.737759
C85	C	0.939375	-0.258997	0.065971
C86	C	1.272708	0.074337	0.399304
C87	C	1.606041	0.407670	0.732637
C88	C	0.867674	-0.213970	0.060926
C89	C	1.201007	0.119364	0.394259
C90	C	1.534340	0.452697	0.727592
C91	C	0.868894	-0.141149	0.061016
C92	C	1.202227	0.192184	0.394350
C93	C	1.535560	0.525517	0.727683
N94	N	0.886006	-0.369018	0.111317
N95	N	1.219339	-0.035684	0.444650
N96	N	1.552673	0.297649	0.777983
N97	N	0.884852	-0.438195	0.111232
N98	N	1.218185	-0.104861	0.444566
N99	N	1.551519	0.228472	0.777899
C100	C	0.935694	-0.478400	0.065695
C101	C	1.269028	-0.145067	0.399028
C102	C	1.602361	0.188267	0.732361
N103	N	0.987747	-0.446817	0.020256
N104	N	1.321080	-0.113483	0.353589
N105	N	1.654414	0.219850	0.686922
N106	N	0.988904	-0.377634	0.020344
N107	N	1.322237	-0.044300	0.353677
N108	N	1.655570	0.289033	0.687011
C109	C	0.938044	-0.337957	0.065871
C110	C	1.271377	-0.004624	0.399204
C111	C	1.604710	0.328709	0.732538
C112	C	1.006070	-0.602379	0.070625
C113	C	1.339403	-0.269045	0.403959
C114	C	1.672736	0.064288	0.737292
C115	C	1.004848	-0.675201	0.070520
C116	C	1.338181	-0.341868	0.403853
C117	C	1.671515	-0.008534	0.737187
C118	C	0.860232	-0.657975	0.060362
C119	C	1.193565	-0.324642	0.393695
C120	C	1.526899	0.008691	0.727029
C121	C	0.861455	-0.585154	0.060458
C122	C	1.194789	-0.251821	0.393792
C123	C	1.528122	0.081513	0.727125
C124	C	0.934377	-0.557361	0.065594
C125	C	1.267710	-0.224027	0.398928
C126	C	1.601043	0.109306	0.732261
C127	C	1.081944	0.086148	0.075965
C128	C	1.415278	0.419481	0.409299
C129	C	1.748611	0.752815	0.742632
C130	C	1.170014	0.087175	0.082145
C131	C	1.503347	0.420509	0.415478
C132	C	1.836680	0.753842	0.748811
C133	C	0.930639	0.219498	0.065319
C134	C	1.263972	0.552832	0.398652
C135	C	1.597305	0.886165	0.731986
C136	C	0.931934	0.297002	0.065397
C137	C	1.265267	0.630335	0.398730
C138	C	1.598601	0.963668	0.732064
N139	N	0.946768	0.083091	0.271769
N140	N	1.280101	0.416424	0.605103
N141	N	1.613434	0.749757	0.938436
N142	N	0.926988	0.100549	-0.140212
N143	N	1.260321	0.433882	0.193121
N144	N	1.593654	0.767216	0.526455
C145	C	0.978904	0.054820	0.818025
C146	C	1.312237	0.388153	1.151358
C147	C	1.645570	0.721487	1.484692
C148	C	0.974511	0.058689	0.726910
C149	C	1.307844	0.392022	1.060243
C150	C	1.641177	0.725355	1.393576
C151	C	0.918198	0.108283	0.677559
C152	C	1.251531	0.441617	1.010893
C153	C	1.584864	0.774950	1.344226
C154	C	0.866279	0.154017	0.719329
C155	C	1.199613	0.487351	1.052662
C156	C	1.532946	0.820684	1.385995
C157	C	0.870677	0.150152	0.810442
C158	C	1.204010	0.483485	1.143776
C159	C	1.537343	0.816818	1.477109
C160	C	0.899247	0.124959	0.404652
C161	C	1.232580	0.458292	0.737986
C162	C	1.565914	0.791626	1.071319
C163	C	0.894852	0.128820	0.313532
C164	C	1.228185	0.462153	0.646866
C165	C	1.561518	0.795486	0.980199
C166	C	1.003085	0.033491	0.321120
C167	C	1.336418	0.366825	0.654453
C168	C	1.669752	0.700158	0.987787
C169	C	1.007474	0.029627	0.412235
C170	C	1.340807	0.362961	0.745568
C171	C	1.674141	0.696294	1.078902
C172	C	0.955559	0.075364	0.453997
C173	C	1.288892	0.408697	0.787330
C174	C	1.622225	0.742030	1.120663
N175	N	0.913704	0.112237	0.584425
N176	N	1.247037	0.445571	0.917758
N177	N	1.580371	0.778904	1.251091
N178	N	0.960056	0.071412	0.547130
N179	N	1.293390	0.404746	0.880463
N180	N	1.626723	0.738079	1.213796
H181	H	0.334697	0.082963	0.236378
H182	H	0.668030	0.416297	0.569712
H183	H	1.001363	0.749630	0.903045
F184	F	0.843993	0.173633	0.449091
F185	F	1.177326	0.506966	0.782425
F186	F	1.510660	0.840299	1.115758
F187	F	0.792586	-0.093237	0.055652
F188	F	1.125920	0.240096	0.388985
F189	F	1.459253	0.573430	0.722319
F190	F	1.091115	-0.128796	0.076639
F191	F	1.424448	0.204537	0.409972
F192	F	1.757781	0.537870	0.743306
H193	H	1.045353	-0.003744	0.287109
H194	H	1.378686	0.329589	0.620443
H195	H	1.712020	0.662922	0.953776
F196	F	0.175175	0.080247	0.244842
F197	F	0.508509	0.413581	0.578176
F198	F	0.841842	0.746914	0.911509
H199	H	0.170825	0.093333	-0.060475
H200	H	0.504158	0.426667	0.272858
H201	H	0.837491	0.760000	0.606191
F202	F	0.330338	0.096043	-0.068941
F203	F	0.663672	0.429376	0.264392
F204	F	0.997005	0.762709	0.597726
H205	H	1.070669	-0.267854	0.075193
H206	H	1.404003	0.065479	0.408526
H207	H	1.737336	0.398813	0.741859
F208	F	0.527760	0.101370	-0.125285
F209	F	0.861093	0.434704	0.208049
F210	F	1.194427	0.768037	0.541382
F211	F	0.815422	0.198825	0.854889
F212	F	1.148755	0.532159	1.188222
F213	F	1.482089	0.865492	1.521555
H214	H	0.689174	0.102440	-0.094294
H215	H	1.022507	0.435774	0.239039
H216	H	1.355840	0.769107	0.572372
F217	F	0.790074	-0.243560	0.055469
F218	F	1.123408	0.089774	0.388802
F219	F	1.456741	0.423107	0.722136
F220	F	1.083678	-0.572797	0.076095
F221	F	1.417011	-0.239463	0.409429
F222	F	1.750344	0.093870	0.742762
H223	H	1.063230	-0.711854	0.074619
H224	H	1.396563	-0.378520	0.407953
H225	H	1.729897	-0.045187	0.741286
H226	H	0.803077	-0.548500	0.056360
H227	H	1.136410	-0.215167	0.389693
H228	H	1.469743	0.118166	0.723026
F229	F	0.782632	-0.687559	0.054907
F230	F	1.115965	-0.354226	0.388240
F231	F	1.449298	-0.020893	0.721573
H232	H	1.024757	0.014432	0.858200
H233	H	1.358090	0.347765	1.191534
H234	H	1.691423	0.681099	1.524867
F235	F	0.806349	0.206804	0.666806
F236	F	1.139682	0.540137	1.000139
F237	F	1.473016	0.873471	1.333472
F238	F	1.029766	0.010020	0.682462
F239	F	1.363100	0.343353	1.015796
F240	F	1.696433	0.676686	1.349129
H241	H	1.053329	-0.010757	0.452415
H242	H	1.386662	0.322577	0.785748
H243	H	1.719995	0.655910	1.119081
H244	H	0.702919	0.090320	0.192020
H245	H	1.036252	0.423654	0.525354
H246	H	1.369586	0.756987	0.858687
F247	F	0.543407	0.087600	0.200483
F248	F	0.876740	0.420934	0.533816
F249	F	1.210073	0.754267	0.867150
F250	F	0.834910	0.181608	0.261015
F251	F	1.168244	0.514941	0.594348
F252	F	1.501577	0.848275	0.927682
