data_functionalizedCrystal
_audit_creation_method	'MofGen! by Chris Wilmer'
_symmetry_space_group_name_H-M	'P1'
_symmetry_Int_Tables_number	1
_symmetry_cell_setting	triclinic
loop_
_symmetry_equiv_pos_as_xyz
  x,y,z
_cell_length_a	18.050591
_cell_length_b	18.050589
_cell_length_c	12.645323
_cell_angle_alpha	90.025443
_cell_angle_beta	90.027333
_cell_angle_gamma	90.024669
loop_
_atom_site_label
_atom_site_type_symbol
_atom_site_fract_x
_atom_site_fract_y
_atom_site_fract_z
Zn1	Zn	1.135348	-0.295724	0.599574
Zn2	Zn	1.635348	0.204276	1.099574
Zn3	Zn	1.135242	-0.419923	0.422312
Zn4	Zn	1.635242	0.080077	0.922312
Zn5	Zn	1.011151	-0.295744	0.422304
Zn6	Zn	1.511151	0.204256	0.922304
Zn7	Zn	1.011115	-0.419869	0.599513
Zn8	Zn	1.511115	0.080131	1.099513
O9	O	1.073214	-0.357815	0.510926
O10	O	1.573214	0.142185	1.010926
O11	O	1.239259	-0.312214	0.576088
O12	O	1.739259	0.187786	1.076088
O13	O	1.118752	-0.403481	0.273964
O14	O	1.618752	0.096519	0.773964
O15	O	1.027685	-0.191816	0.445841
O16	O	1.527685	0.308184	0.945841
O17	O	1.239181	-0.403462	0.445855
O18	O	1.739181	0.096538	0.945855
O19	O	1.118932	-0.191802	0.576080
O20	O	1.618932	0.308198	1.076080
O21	O	1.027582	-0.312247	0.273957
O22	O	1.527582	0.187753	0.773957
O23	O	0.907222	-0.312195	0.445782
O24	O	1.407222	0.187805	0.945782
O25	O	1.027624	-0.403370	0.747868
O26	O	1.527624	0.096630	1.247868
O27	O	0.907195	-0.403389	0.575977
O28	O	1.407195	0.096611	1.075977
O29	O	1.118898	-0.312161	0.747913
O30	O	1.618898	0.187839	1.247913
O31	O	1.118717	-0.523840	0.445796
O32	O	1.618717	-0.023840	0.945796
O33	O	1.027522	-0.523801	0.575985
O34	O	1.527522	-0.023801	1.075985
C35	C	0.880262	-0.357789	0.510873
C36	C	1.380262	0.142211	1.010873
C37	C	0.797716	-0.357795	0.510875
C38	C	1.297716	0.142205	1.010875
C39	C	1.073124	-0.550767	0.510908
C40	C	1.573124	-0.050767	1.010908
C41	C	1.073154	-0.633313	0.510936
C42	C	1.573154	-0.133313	1.010936
C43	C	0.548883	-0.308153	0.440242
C44	C	1.048883	0.191847	0.940242
C45	C	0.598324	-0.290063	0.536988
C46	C	1.098324	0.209937	1.036988
C47	C	0.500596	-0.357833	0.510962
C48	C	1.000596	0.142167	1.010962
C49	C	0.598237	-0.375869	0.414179
C50	C	1.098237	0.124131	0.914179
C51	C	0.646581	-0.357813	0.510914
C52	C	1.146581	0.142187	1.010914
C53	C	0.548950	-0.339709	0.607758
C54	C	1.048950	0.160291	1.107758
C55	C	0.548858	-0.425547	0.484885
C56	C	1.048858	0.074453	0.984885
C57	C	0.598276	-0.407483	0.581697
C58	C	1.098276	0.092517	1.081697
C59	C	0.416498	-0.357843	0.510988
C60	C	0.916498	0.142157	1.010988
C61	C	0.730677	-0.357803	0.510899
C62	C	1.230677	0.142197	1.010899
C63	C	1.023611	-0.832769	0.581708
C64	C	1.523611	-0.332769	1.081708
C65	C	1.005504	-0.882210	0.484971
C66	C	1.505504	-0.382210	0.984971
C67	C	1.073227	-0.784443	0.510950
C68	C	1.573227	-0.284443	1.010950
C69	C	1.091370	-0.882083	0.607698
C70	C	1.591370	-0.382083	1.107698
C71	C	1.073296	-0.930428	0.510972
C72	C	1.573296	-0.430428	1.010972
C73	C	1.055085	-0.832797	0.414162
C74	C	1.555085	-0.332797	0.914162
C75	C	1.140983	-0.832666	0.536954
C76	C	1.640983	-0.332666	1.036954
C77	C	1.122902	-0.882085	0.440150
C78	C	1.622902	-0.382085	0.940150
C79	C	1.073185	-0.700345	0.510939
C80	C	1.573185	-0.200345	1.010939
C81	C	1.073338	-1.014525	0.510972
C82	C	1.573338	-0.514525	1.010972
C83	C	1.266920	-0.357842	0.510979
C84	C	1.766920	0.142158	1.010979
C85	C	1.349465	-0.357853	0.511002
C86	C	1.849465	0.142147	1.011002
C87	C	1.073269	-0.357757	0.787431
C88	C	1.573269	0.142243	1.287431
C89	C	1.073292	-0.357733	0.905261
C90	C	1.573292	0.142267	1.405261
C91	C	1.073324	-0.164109	0.510966
C92	C	1.573324	0.335891	1.010966
C93	C	1.073371	-0.081563	0.510984
C94	C	1.573371	0.418437	1.010984
C95	C	1.073202	-0.357818	0.235496
C96	C	1.573202	0.142182	0.735496
C97	C	1.073323	-0.357634	0.117666
C98	C	1.573323	0.142366	0.617666
C99	C	1.015695	-0.414842	1.072797
C100	C	1.515695	0.085158	1.572797
C101	C	1.015846	-0.415125	0.950237
C102	C	1.515846	0.084875	1.450237
C103	C	1.151539	-0.378977	0.949790
C104	C	1.651539	0.121023	1.449790
C105	C	1.151223	-0.379336	1.072388
C106	C	1.651223	0.120664	1.572388
C107	C	1.053382	-0.279060	1.072458
C108	C	1.553382	0.220940	1.572458
C109	C	1.051636	-0.279531	0.949851
C110	C	1.551636	0.220469	1.449851
H111	H	0.527198	-0.266116	0.380532
H112	H	1.027198	0.233884	0.880532
N113	N	1.212796	-0.805325	0.564589
N114	N	1.712796	-0.305325	1.064589
N115	N	1.224370	-0.737092	0.568226
N116	N	1.724370	-0.237092	1.068226
H117	H	1.275088	-0.717779	0.587756
H118	H	1.775088	-0.217779	1.087756
H119	H	1.028730	-0.472728	1.103617
H120	H	1.528730	0.027272	1.603617
H121	H	1.029009	-0.473375	0.920924
H122	H	1.529009	0.026625	1.420924
H123	H	0.948237	-0.903989	0.462997
H124	H	1.448237	-0.403989	0.962997
N125	N	1.172436	-0.451392	1.108273
N126	N	1.672436	0.048608	1.608273
N127	N	1.187369	-0.501067	1.042773
N128	N	1.687369	-0.001067	1.542773
H129	H	1.202352	-0.551959	1.068110
H130	H	1.702352	-0.051959	1.568110
N131	N	0.943063	-0.398440	0.912443
N132	N	1.443063	0.101560	1.412443
N133	N	0.932658	-0.342862	0.855417
N134	N	1.432658	0.157138	1.355417
H135	H	0.881252	-0.331079	0.828729
H136	H	1.381252	0.168921	1.328729
H137	H	1.164890	-0.903603	0.380253
H138	H	1.664890	-0.403603	0.880253
H139	H	1.195616	-0.339477	1.102072
H140	H	1.695616	0.160523	1.602072
H141	H	1.106688	-0.903733	0.689507
H142	H	1.606688	-0.403733	1.189507
H143	H	1.039700	-0.811237	0.332330
H144	H	1.539700	-0.311237	0.832330
H145	H	0.527389	-0.324379	0.689609
H146	H	1.027389	0.175621	1.189609
N147	N	0.942690	-0.398315	1.109760
N148	N	1.442690	0.101685	1.609760
N149	N	0.932277	-0.344183	1.169607
N150	N	1.432277	0.155817	1.669607
H151	H	0.880716	-0.332510	1.195721
H152	H	1.380716	0.167490	1.695721
N153	N	1.206842	-0.328355	0.913246
N154	N	1.706842	0.171645	1.413246
N155	N	1.189161	-0.275931	0.853832
N156	N	1.689161	0.224069	1.353832
H157	H	1.228217	-0.240177	0.828021
H158	H	1.728217	0.259823	1.328021
H159	H	1.095356	-0.236438	1.101477
H160	H	1.595356	0.263562	1.601477
N161	N	0.521559	-0.497369	0.457212
N162	N	1.021559	0.002631	0.957212
N163	N	0.481967	-0.532558	0.520853
N164	N	0.981967	-0.032558	1.020853
H165	H	0.462684	-0.583283	0.501300
H166	H	0.962684	-0.083283	1.001300
N167	N	1.173105	-0.450277	0.911284
N168	N	1.673105	0.049723	1.411284
N169	N	1.130983	-0.485568	0.851061
N170	N	1.630983	0.014432	1.351061
H171	H	1.146210	-0.535925	0.823865
H172	H	1.646210	-0.035925	1.323865
N173	N	0.983056	-0.254758	1.111223
N174	N	1.483056	0.245242	1.611223
N175	N	0.972962	-0.247260	1.208426
N176	N	1.472962	0.252740	1.708426
H177	H	0.923292	-0.230103	1.235805
H178	H	1.423292	0.269897	1.735805
H179	H	1.090544	-0.234654	0.919235
H180	H	1.590544	0.265346	1.419235
N181	N	0.970898	-0.805582	0.656653
N182	N	1.470898	-0.305582	1.156653
N183	N	0.962796	-0.737373	0.669195
N184	N	1.462796	-0.237373	1.169195
H185	H	0.925567	-0.718169	0.722119
H186	H	1.425567	-0.218169	1.222119
N187	N	0.625576	-0.218213	0.564634
N188	N	1.125576	0.281787	1.064634
N189	N	0.609749	-0.163458	0.508530
N190	N	1.109749	0.336542	1.008530
H191	H	0.628993	-0.112712	0.528048
H192	H	1.128993	0.387288	1.028048
N193	N	0.625305	-0.460175	0.656788
N194	N	1.125305	0.039825	1.156788
N195	N	0.609370	-0.453461	0.752497
N196	N	1.109370	0.046539	1.252497
H197	H	0.628459	-0.490673	0.805534
H198	H	1.128459	0.009327	1.305534
N199	N	0.979406	-0.259441	0.913303
N200	N	1.479406	0.240559	1.413303
N201	N	0.966983	-0.254074	0.816356
N202	N	1.466983	0.245926	1.316356
H203	H	0.915971	-0.239890	0.790530
H204	H	1.415971	0.260110	1.290530
H205	H	0.619889	-0.391132	0.332352
H206	H	1.119889	0.108868	0.832352
