data_functionalizedCrystal
_audit_creation_method	'MofGen! by Chris Wilmer'
_symmetry_space_group_name_H-M	'P1'
_symmetry_Int_Tables_number	1
_symmetry_cell_setting	triclinic
loop_
_symmetry_equiv_pos_as_xyz
  x,y,z
_cell_length_a	6.817900
_cell_length_b	9.514072
_cell_length_c	16.255661
_cell_angle_alpha	91.323020
_cell_angle_beta	103.488922
_cell_angle_gamma	118.843421
loop_
_atom_site_label
_atom_site_type_symbol
_atom_site_fract_x
_atom_site_fract_y
_atom_site_fract_z
V1	V	-4.111881	-0.223505	-0.264538
O2	O	-4.010606	0.009405	-0.258820
O3	O	-4.146651	-0.441889	-0.263385
O4	O	-4.062356	-0.220653	-0.379613
O5	O	-4.095485	-0.213362	-0.141788
V6	V	-4.584878	-0.195577	-0.249776
O7	O	-4.396230	-0.284767	-0.296919
O8	O	-4.750727	-0.134315	-0.217395
O9	O	-4.326902	0.022807	-0.250929
O10	O	-4.803550	-0.428487	-0.255494
O11	O	-4.718672	-0.205720	-0.372527
O12	O	-4.411196	-0.198429	-0.134702
C13	C	-4.011921	-0.495108	-0.259381
C14	C	-4.121629	-0.673643	-0.259205
C15	C	-3.904393	-0.212897	-0.407640
C16	C	-3.945735	-0.212010	-0.501719
C17	C	-3.852254	-0.201415	-0.724506
C18	C	-4.060779	-0.338160	-0.794390
C19	C	-4.021486	-0.210347	-0.673962
C20	C	-3.886655	-0.072037	-0.771711
C21	C	-4.094639	-0.208733	-0.840341
C22	C	-4.229538	-0.347214	-0.742617
C23	C	-4.055307	-0.080971	-0.719922
C24	C	-4.263983	-0.217754	-0.789787
C25	C	-3.979340	-0.211278	-0.578116
C26	C	-4.136807	-0.207815	-0.936187
C27	C	-4.124977	0.076017	-0.254931
C28	C	-3.994508	0.254551	-0.255112
C29	C	-4.232504	-0.206190	-0.106670
C30	C	-4.170397	-0.207069	-0.012590
H31	H	-3.677935	-0.194685	-0.696005
H32	H	-3.801719	-0.670327	-0.251700
O33	O	-4.351543	-0.763389	-0.263151
C34	C	-4.636154	-0.940328	-0.194181
C35	C	-4.375710	-0.838791	-0.189617
H36	H	-4.655775	-1.001290	-0.134729
H37	H	-4.731323	-1.037229	-0.253849
H38	H	-4.714176	-0.857528	-0.197323
H39	H	-4.297483	-0.921461	-0.186442
H40	H	-4.280708	-0.741875	-0.129958
O41	O	-4.063658	-0.467742	-0.833006
C42	C	-3.850577	-0.605745	-0.843332
C43	C	-3.847003	-0.458906	-0.799552
H44	H	-3.675449	-0.598668	-0.816289
H45	H	-3.883874	-0.604470	-0.915299
H46	H	-3.995147	-0.722880	-0.830778
H47	H	-3.702439	-0.341695	-0.812039
H48	H	-3.813819	-0.460325	-0.727599
H49	H	-4.374118	-0.463635	-0.729497
O50	O	-4.471966	-0.225739	-0.823649
C51	C	-4.670638	-0.095656	-0.899858
C52	C	-4.434936	-0.086381	-0.861527
H53	H	-4.640786	0.016983	-0.930508
H54	H	-4.757519	-0.102013	-0.846951
H55	H	-4.788136	-0.208887	-0.950547
H56	H	-4.317259	0.026840	-0.810849
H57	H	-4.348242	-0.080114	-0.914482
O58	O	-4.051532	0.048929	-0.681240
C59	C	-3.866094	0.340768	-0.651732
C60	C	-3.870108	0.193787	-0.695566
H61	H	-3.719459	0.457921	-0.663314
H62	H	-3.835933	0.338237	-0.579919
H63	H	-4.040059	0.334946	-0.679564
H64	H	-3.696191	0.199513	-0.667804
H65	H	-3.900395	0.196370	-0.767376
O66	O	-3.713927	0.066674	-0.787392
C67	C	-3.302306	0.231918	-0.771938
C68	C	-3.497698	0.074800	-0.754110
H69	H	-3.127445	0.238523	-0.745054
H70	H	-3.298112	0.341658	-0.740000
H71	H	-3.336752	0.231834	-0.844024
H72	H	-3.463388	0.074725	-0.682041
H73	H	-3.501843	-0.034870	-0.786106
