data_functionalizedCrystal
_audit_creation_method	'MofGen! by Chris Wilmer'
_symmetry_space_group_name_H-M	'P1'
_symmetry_Int_Tables_number	1
_symmetry_cell_setting	triclinic
loop_
_symmetry_equiv_pos_as_xyz
  x,y,z
_cell_length_a	17.077404
_cell_length_b	16.959454
_cell_length_c	17.077404
_cell_angle_alpha	90.006946
_cell_angle_beta	90.003452
_cell_angle_gamma	90.020300
loop_
_atom_site_label
_atom_site_type_symbol
_atom_site_fract_x
_atom_site_fract_y
_atom_site_fract_z
Zn1	Zn	1.199946	-0.314816	0.443863
Zn2	Zn	1.699946	0.185184	0.943863
Zn3	Zn	1.199896	-0.446962	0.312606
Zn4	Zn	1.699896	0.053038	0.812606
Zn5	Zn	1.068714	-0.314802	0.312611
Zn6	Zn	1.568714	0.185198	0.812611
Zn7	Zn	1.068652	-0.446957	0.443829
Zn8	Zn	1.568652	0.053043	0.943829
O9	O	1.134302	-0.380884	0.378227
O10	O	1.634302	0.119116	0.878227
O11	O	1.309786	-0.332353	0.426463
O12	O	1.809786	0.167647	0.926463
O13	O	1.182500	-0.429428	0.202759
O14	O	1.682500	0.070572	0.702759
O15	O	1.086169	-0.204193	0.330038
O16	O	1.586169	0.295807	0.830038
O17	O	1.309749	-0.429441	0.330029
O18	O	1.809749	0.070559	0.830029
O19	O	1.182584	-0.204203	0.426468
O20	O	1.682584	0.295797	0.926468
O21	O	1.086121	-0.332331	0.202763
O22	O	1.586121	0.167669	0.702763
O23	O	0.958859	-0.332325	0.330005
O24	O	1.458859	0.167675	0.830005
O25	O	1.086063	-0.429431	0.553680
O26	O	1.586063	0.070569	1.053680
O27	O	0.958813	-0.429418	0.426411
O28	O	1.458813	0.070582	0.926411
O29	O	1.182524	-0.332347	0.553705
O30	O	1.682524	0.167653	1.053705
O31	O	1.182439	-0.557572	0.329996
O32	O	1.682439	-0.057572	0.829996
O33	O	1.086015	-0.557568	0.426406
O34	O	1.586015	-0.057568	0.926406
C35	C	0.930354	-0.380870	0.378205
C36	C	1.430354	0.119130	0.878205
C37	C	0.843104	-0.380883	0.378215
C38	C	1.343104	0.119117	0.878215
C39	C	0.802111	-0.431515	0.428333
C40	C	1.302111	0.068485	0.928333
C41	C	0.720130	-0.431517	0.428345
C42	C	1.220130	0.068483	0.928345
C43	C	0.679145	-0.380890	0.378235
C44	C	1.179145	0.119110	0.878235
C45	C	0.720144	-0.330251	0.328115
C46	C	1.220144	0.169749	0.828115
C47	C	0.802123	-0.330246	0.328107
C48	C	1.302123	0.169754	0.828107
C49	C	0.549274	-0.330267	0.328134
C50	C	1.049274	0.169733	0.828134
C51	C	0.467289	-0.330273	0.328141
C52	C	0.967289	0.169727	0.828141
C53	C	0.467281	-0.431538	0.428372
C54	C	0.967281	0.068462	0.928372
C55	C	0.549260	-0.431533	0.428364
C56	C	1.049260	0.068467	0.928364
C57	C	0.590254	-0.380895	0.378243
C58	C	1.090254	0.119105	0.878243
C59	C	1.134236	-0.586250	0.378214
C60	C	1.634236	-0.086250	0.878214
C61	C	1.134280	-0.674107	0.378234
C62	C	1.634280	-0.174107	0.878234
C63	C	1.084167	-1.045610	0.428422
C64	C	1.584167	-0.545610	0.928422
C65	C	1.184656	-1.045555	0.328112
C66	C	1.684656	-0.545555	0.828112
C67	C	1.184628	-0.963009	0.328105
C68	C	1.684628	-0.463009	0.828105
C69	C	1.134368	-0.921760	0.378256
C70	C	1.634368	-0.421760	0.878256
C71	C	1.084136	-0.963057	0.428415
C72	C	1.584136	-0.463057	0.928415
C73	C	1.234854	-0.921706	0.277942
C74	C	1.734854	-0.421706	0.777942
C75	C	1.234828	-0.839155	0.277932
C76	C	1.734828	-0.339155	0.777932
C77	C	1.184572	-0.797905	0.328088
C78	C	1.684572	-0.297905	0.828088
C79	C	1.134338	-0.839206	0.378249
C80	C	1.634338	-0.339206	0.878249
C81	C	1.084078	-0.797957	0.428400
C82	C	1.584078	-0.297957	0.928400
C83	C	1.033847	-0.839258	0.478566
C84	C	1.533847	-0.339258	0.978566
C85	C	1.033879	-0.921806	0.478571
C86	C	1.533879	-0.421806	0.978571
C87	C	1.184540	-0.715356	0.328083
C88	C	1.684540	-0.215356	0.828083
C89	C	1.084047	-0.715404	0.428393
C90	C	1.584047	-0.215404	0.928393
C91	C	1.339046	-0.380899	0.378249
C92	C	1.839046	0.119101	0.878249
C93	C	1.426296	-0.380906	0.378259
C94	C	1.926296	0.119094	0.878259
C95	C	1.134292	-0.380890	0.582971
C96	C	1.634292	0.119110	1.082971
C97	C	1.134288	-0.380892	0.670221
C98	C	1.634288	0.119108	1.170221
C99	C	1.134389	-0.174716	0.378258
C100	C	1.634389	0.325284	0.878258
C101	C	1.134427	-0.086859	0.378271
C102	C	1.634427	0.413141	0.878271
C103	C	1.184522	-0.330343	1.046050
C104	C	1.684522	0.169657	1.546050
C105	C	1.184524	-0.330347	0.964069
C106	C	1.684524	0.169653	1.464069
C107	C	1.134299	-0.380891	0.923070
C108	C	1.634299	0.119109	1.423070
C109	C	1.084075	-0.431440	0.964055
C110	C	1.584075	0.068560	1.464055
C111	C	1.084078	-0.431440	1.046034
C112	C	1.584078	0.068560	1.546034
C113	C	1.084070	-0.431437	0.793185
C114	C	1.584070	0.068563	1.293185
C115	C	1.084066	-0.431436	0.711201
C116	C	1.584066	0.068564	1.211201
C117	C	1.184516	-0.330344	0.711220
C118	C	1.684516	0.169656	1.211220
C119	C	1.184519	-0.330343	0.793199
C120	C	1.684519	0.169657	1.293199
C121	C	1.134294	-0.380892	0.834179
C122	C	1.634294	0.119108	1.334179
C123	C	1.134303	-0.380894	1.174279
C124	C	1.634303	0.119106	1.674279
C125	C	1.134300	-0.380887	1.087029
C126	C	1.634300	0.119113	1.587029
H127	H	0.835499	-0.289012	0.287300
H128	H	1.335499	0.210988	0.787300
F129	F	1.030556	-0.671510	0.481776
F130	F	1.530556	-0.171510	0.981776
F131	F	1.237984	-0.276558	0.836832
F132	F	1.737984	0.223442	1.336832
H133	H	1.225410	-0.289184	0.677851
H134	H	1.725410	0.210816	1.177851
F135	F	0.980355	-0.795348	0.531935
F136	F	1.480355	-0.295348	1.031935
H137	H	0.582648	-0.289026	0.287327
H138	H	1.082648	0.210974	0.787327
F139	F	0.676522	-0.276365	0.274789
F140	F	1.176522	0.223635	0.774789
H141	H	0.582628	-0.472762	0.469163
H142	H	1.082628	0.027238	0.969163
F143	F	0.980424	-0.965766	0.531955
F144	F	1.480424	-0.465766	1.031955
F145	F	0.423652	-0.485421	0.481724
F146	F	0.923652	0.014579	0.981724
H147	H	1.043272	-1.079241	0.469268
H148	H	1.543272	-0.579241	0.969268
F149	F	0.423671	-0.276393	0.274806
F150	F	0.923671	0.223607	0.774806
F151	F	1.238142	-1.089457	0.274740
F152	F	1.738142	-0.589457	0.774740
F153	F	1.288344	-0.965610	0.224574
F154	F	1.788344	-0.465610	0.724574
H155	H	1.043150	-0.472575	0.677821
H156	H	1.543150	0.027425	1.177821
F157	F	1.288292	-0.795208	0.224547
F158	F	1.788292	-0.295208	0.724547
F159	F	1.237987	-0.671405	0.274690
F160	F	1.737987	-0.171405	0.774690
H161	H	1.225416	-0.289179	1.079425
H162	H	1.725416	0.210821	1.579425
F163	F	0.676506	-0.485407	0.481688
F164	F	1.176506	0.014593	0.981688
F165	F	1.030623	-0.485236	0.920419
F166	F	1.530623	0.014764	1.420419
F167	F	1.237977	-0.276552	0.920459
F168	F	1.737977	0.223448	1.420459
H169	H	1.043174	-0.472601	0.826549
H170	H	1.543174	0.027399	1.326549
F171	F	0.845723	-0.485405	0.481663
F172	F	1.345723	0.014595	0.981663
H173	H	1.043183	-0.472599	1.079399
H174	H	1.543183	0.027401	1.579399
