data_functionalizedCrystal
_audit_creation_method	'MofGen! by Chris Wilmer'
_symmetry_space_group_name_H-M	'P1'
_symmetry_Int_Tables_number	1
_symmetry_cell_setting	triclinic
loop_
_symmetry_equiv_pos_as_xyz
  x,y,z
_cell_length_a	16.109301
_cell_length_b	16.109301
_cell_length_c	8.140239
_cell_angle_alpha	89.995060
_cell_angle_beta	89.999641
_cell_angle_gamma	83.461532
loop_
_atom_site_label
_atom_site_type_symbol
_atom_site_fract_x
_atom_site_fract_y
_atom_site_fract_z
O1	O	1.103130	0.106867	-0.136528
O2	O	1.436463	0.440200	0.196805
O3	O	1.769796	0.773534	0.530138
O4	O	0.861068	0.120166	-0.136552
O5	O	1.194401	0.453499	0.196781
O6	O	1.527734	0.786833	0.530114
O7	O	0.988748	-0.007515	-0.136523
O8	O	1.322082	0.325819	0.196810
O9	O	1.655415	0.659152	0.530144
O10	O	0.975449	0.234547	-0.136558
O11	O	1.308782	0.567881	0.196776
O12	O	1.642116	0.901214	0.530109
O13	O	0.988741	-0.007516	0.136704
O14	O	1.322075	0.325817	0.470038
O15	O	1.655408	0.659151	0.803371
O16	O	0.861061	0.120165	0.136675
O17	O	1.194394	0.453498	0.470008
O18	O	1.527727	0.786831	0.803342
O19	O	1.103123	0.106865	0.136699
O20	O	1.436456	0.440199	0.470032
O21	O	1.769789	0.773532	0.803365
Zn22	Zn	0.982091	0.113515	0.180067
Zn23	Zn	1.315424	0.446848	0.513401
Zn24	Zn	1.648757	0.780181	0.846734
Zn25	Zn	0.982100	0.113517	-0.179921
Zn26	Zn	1.315433	0.446850	0.153412
Zn27	Zn	1.648767	0.780183	0.486746
O28	O	0.975442	0.234546	0.136669
O29	O	1.308775	0.567879	0.470003
O30	O	1.642109	0.901213	0.803336
C31	C	0.830089	0.119627	0.000059
C32	C	1.163423	0.452960	0.333392
C33	C	1.496756	0.786293	0.666725
C34	C	0.737794	0.118011	0.000050
C35	C	1.071127	0.451345	0.333383
C36	C	1.404461	0.784678	0.666717
C37	C	0.428796	0.188494	0.000069
C38	C	0.762129	0.521828	0.333402
C39	C	1.095463	0.855161	0.666735
C40	C	0.515516	0.190020	0.000059
C41	C	0.848849	0.523353	0.333392
C42	C	1.182183	0.856686	0.666725
C43	C	0.535389	0.038531	0.000059
C44	C	0.868723	0.371864	0.333392
C45	C	1.202056	0.705198	0.666725
C46	C	0.448671	0.037007	0.000057
C47	C	0.782004	0.370340	0.333390
C48	C	1.115337	0.703673	0.666723
C49	C	0.395376	0.111991	0.000070
C50	C	0.728709	0.445324	0.333403
C51	C	1.062042	0.778657	0.666737
C52	C	0.568815	0.115041	0.000062
C53	C	0.902148	0.448374	0.333396
C54	C	1.235481	0.781707	0.666729
C55	C	0.662841	0.116694	0.000052
C56	C	0.996174	0.450027	0.333385
C57	C	1.329507	0.783361	0.666718
C58	C	0.301344	0.110338	0.000077
C59	C	0.634677	0.443671	0.333411
C60	C	0.968010	0.777004	0.666744
C61	C	0.988206	-0.038490	0.000091
C62	C	1.321540	0.294843	0.333425
C63	C	1.654873	0.628177	0.666758
C64	C	0.986591	-0.130785	0.000094
C65	C	1.319924	0.202548	0.333427
C66	C	1.653258	0.535881	0.666760
C67	C	1.058599	-0.353058	0.000075
C68	C	1.391932	-0.019724	0.333408
C69	C	1.725265	0.313609	0.666741
C70	C	1.057075	-0.439778	0.000061
C71	C	1.390408	-0.106445	0.333394
C72	C	1.723741	0.226888	0.666728
C73	C	0.905586	-0.419904	0.000053
C74	C	1.238919	-0.086571	0.333386
C75	C	1.572253	0.246763	0.666719
C76	C	0.907111	-0.333185	0.000054
C77	C	1.240444	0.000148	0.333388
C78	C	1.573778	0.333481	0.666721
C79	C	0.983620	-0.299765	0.000074
C80	C	1.316953	0.033569	0.333407
C81	C	1.650286	0.366902	0.666741
C82	C	0.980571	-0.473204	0.000058
C83	C	1.313904	-0.139871	0.333392
C84	C	1.647237	0.193463	0.666725
C85	C	0.978918	-0.567230	0.000043
C86	C	1.312251	-0.233897	0.333377
C87	C	1.645584	0.099437	0.666710
C88	C	0.985273	-0.205733	0.000086
C89	C	1.318607	0.127601	0.333419
C90	C	1.651940	0.460934	0.666752
C91	C	1.134101	0.107405	0.000084
C92	C	1.467434	0.440738	0.333418
C93	C	1.800768	0.774072	0.666751
C94	C	1.226396	0.109020	0.000082
C95	C	1.559730	0.442353	0.333415
C96	C	1.893063	0.775687	0.666749
C97	C	0.975984	0.265522	0.000051
C98	C	1.309318	0.598855	0.333385
C99	C	1.642651	0.932188	0.666718
C100	C	0.977599	0.357817	0.000038
C101	C	1.310933	0.691150	0.333372
C102	C	1.644266	1.024484	0.666705
N103	N	0.982090	0.113513	0.425750
N104	N	1.315424	0.446846	0.759083
N105	N	1.648757	0.780180	1.092417
N106	N	0.982107	0.113512	-0.425604
N107	N	1.315440	0.446845	-0.092270
N108	N	1.648773	0.780179	0.241063
H109	H	0.421461	-0.025296	0.000052
H110	H	0.754794	0.308038	0.333386
H111	H	1.088127	0.641371	0.666719
H112	H	0.578792	-0.022518	0.000052
H113	H	0.912126	0.310815	0.333385
H114	H	1.245459	0.644148	0.666718
H115	H	0.542722	0.252317	0.000056
H116	H	0.876055	0.585650	0.333390
H117	H	1.209389	0.918983	0.666723
Cl118	Cl	1.154781	-0.311046	0.000095
Cl119	Cl	1.488114	0.022287	0.333428
Cl120	Cl	1.821448	0.355620	0.666762
H121	H	1.118130	-0.483167	0.000058
H122	H	1.451464	-0.149833	0.333391
H123	H	1.784797	0.183500	0.666725
Cl124	Cl	0.809409	-0.461925	0.000029
Cl125	Cl	1.142742	-0.128592	0.333362
Cl126	Cl	1.476075	0.204742	0.666695
H127	H	0.385405	0.249551	0.000078
H128	H	0.718738	0.582885	0.333412
H129	H	1.052072	0.916218	0.666745
H130	H	0.846050	-0.289791	0.000049
H131	H	1.179383	0.043542	0.333382
H132	H	1.512717	0.376875	0.666716
