data_functionalizedCrystal
_audit_creation_method	'MofGen! by Chris Wilmer'
_symmetry_space_group_name_H-M	'P1'
_symmetry_Int_Tables_number	1
_symmetry_cell_setting	triclinic
loop_
_symmetry_equiv_pos_as_xyz
  x,y,z
_cell_length_a	15.297476
_cell_length_b	12.594516
_cell_length_c	15.296720
_cell_angle_alpha	99.649603
_cell_angle_beta	91.616508
_cell_angle_gamma	80.315672
loop_
_atom_site_label
_atom_site_type_symbol
_atom_site_fract_x
_atom_site_fract_y
_atom_site_fract_z
Zn1	Zn	1.253518	-0.828398	-0.726662
Zn2	Zn	1.278802	-0.981668	-0.580188
Zn3	Zn	1.132387	-0.768603	-0.554898
Zn4	Zn	1.107027	-0.971207	-0.701314
O5	O	1.192934	-0.887469	-0.640766
O6	O	1.379454	-0.878133	-0.728424
O7	O	1.280575	-0.932758	-0.454258
O8	O	1.148487	-0.627600	-0.577708
O9	O	1.398030	-0.990739	-0.620810
O10	O	1.237481	-0.671532	-0.703902
O11	O	1.173004	-0.776220	-0.435677
O12	O	1.006441	-0.766076	-0.553128
O13	O	1.105265	-0.972909	-0.827252
O14	O	0.987809	-0.914928	-0.660700
O15	O	1.212891	-0.867989	-0.845876
O16	O	1.255985	-1.129215	-0.596231
O17	O	1.129782	-1.121529	-0.685222
C18	C	0.965341	-0.832879	-0.601420
C19	C	0.867972	-0.809554	-0.584608
C20	C	0.831892	-0.720994	-0.520788
C21	C	0.740409	-0.699077	-0.504991
C22	C	0.684998	-0.765712	-0.553017
C23	C	0.721077	-0.854269	-0.616842
C24	C	0.812569	-0.876194	-0.632636
C25	C	0.665675	-0.920912	-0.664864
C26	C	0.701755	-1.009469	-0.728690
C27	C	0.793238	-1.031390	-0.744481
C28	C	0.848650	-0.964754	-0.696456
C29	C	0.574183	-0.898987	-0.649070
C30	C	0.554861	-1.054187	-0.760918
C31	C	0.646343	-1.076105	-0.776715
C32	C	1.192896	-1.163998	-0.640743
C33	C	1.192955	-1.282322	-0.640777
C34	C	1.261653	-1.355743	-0.592449
C35	C	1.269216	-1.445067	-0.676093
C36	C	1.185493	-1.403832	-0.557203
C37	C	1.200551	-1.370104	-0.724470
C38	C	1.116800	-1.328845	-0.605519
C39	C	1.124323	-1.418138	-0.689213
C40	C	1.421415	-0.942273	-0.680266
C41	C	1.518780	-0.965627	-0.697098
C42	C	1.153429	-0.925952	-0.869235
C43	C	1.136594	-0.942352	-0.966595
C44	C	1.192992	-0.609869	-0.640811
C45	C	1.193017	-0.491573	-0.640831
C46	C	1.313287	-0.770082	-1.279823
C47	C	1.329110	-0.754677	-1.188349
C48	C	1.280982	-0.801594	-1.132906
C49	C	1.217029	-0.863919	-1.168946
C50	C	1.201210	-0.879333	-1.260429
C51	C	1.168905	-0.910845	-1.113513
C52	C	1.104952	-0.973170	-1.149552
C53	C	1.089135	-0.988580	-1.241027
C54	C	1.137263	-0.941663	-1.296470
C55	C	1.184724	-0.895431	-1.022029
C56	C	1.072647	-1.004682	-1.002636
C57	C	1.056824	-1.020087	-1.094109
C58	C	1.232336	-0.849071	-0.413194
C59	C	1.249340	-0.832412	-0.315864
H60	H	0.509744	-1.108448	-0.800024
O61	O	0.586325	-0.742070	-0.535992
H62	H	0.570544	-0.669290	-0.483549
O63	O	1.398085	-0.687465	-1.149480
H64	H	1.380047	-0.603285	-1.164447
H65	H	0.711041	-0.626977	-0.453020
O66	O	1.365170	-0.719450	-1.339613
H67	H	1.343413	-0.740624	-1.409275
O68	O	1.338600	-1.319286	-0.538372
H69	H	1.401753	-1.366513	-0.567867
O70	O	1.120192	-0.958280	-1.395134
H71	H	1.164403	-0.915183	-1.427627
H72	H	1.333643	-1.495370	-0.705942
O73	O	1.020165	-1.055812	-1.279897
H74	H	1.017257	-1.058656	-1.352822
H75	H	0.923143	-0.982594	-0.709316
O76	O	0.685257	-1.171605	-0.845567
H77	H	0.758181	-1.175648	-0.848480
H78	H	0.822612	-1.103507	-0.796445
O79	O	1.209057	-1.349878	-0.818168
H80	H	1.209001	-1.261587	-0.817406
H81	H	1.066244	-1.445479	-0.730163
O82	O	0.987848	-1.087309	-1.132983
H83	H	0.984940	-1.090144	-1.205907
H84	H	1.033459	-1.042888	-0.957494
H85	H	1.052396	-1.278520	-0.575650
H86	H	0.544816	-0.826881	-0.597105
H87	H	0.877016	-0.666754	-0.481688
O88	O	1.177082	-1.424273	-0.463552
H89	H	1.234155	-1.399440	-0.423557
H90	H	1.236794	-0.844684	-0.992695
H91	H	1.293869	-0.789048	-1.058425
