data_functionalizedCrystal
_audit_creation_method	'MofGen! by Chris Wilmer'
_symmetry_space_group_name_H-M	'P1'
_symmetry_Int_Tables_number	1
_symmetry_cell_setting	triclinic
loop_
_symmetry_equiv_pos_as_xyz
  x,y,z
_cell_length_a	15.944480
_cell_length_b	15.944499
_cell_length_c	10.268362
_cell_angle_alpha	90.002038
_cell_angle_beta	89.996335
_cell_angle_gamma	96.526272
loop_
_atom_site_label
_atom_site_type_symbol
_atom_site_fract_x
_atom_site_fract_y
_atom_site_fract_z
O1	O	-1.114541	0.108053	0.108263
O2	O	-0.614541	0.608053	0.608263
O3	O	-0.869981	0.121471	0.108270
O4	O	-0.369981	0.621471	0.608270
O5	O	-0.998962	-0.007518	0.108269
O6	O	-0.498962	0.492482	0.608269
O7	O	-0.985560	0.237041	0.108265
O8	O	-0.485560	0.737041	0.608265
O9	O	-0.998951	-0.007523	-0.108332
O10	O	-0.498951	0.492477	0.391668
O11	O	-0.869970	0.121466	-0.108330
O12	O	-0.369970	0.621466	0.391670
O13	O	-1.114530	0.108047	-0.108338
O14	O	-0.614530	0.608047	0.391662
Cu15	Cu	-0.992249	0.114756	-0.128111
Cu16	Cu	-0.492249	0.614756	0.371889
Cu17	Cu	-0.992262	0.114762	0.128044
Cu18	Cu	-0.492262	0.614762	0.628044
O19	O	-0.985549	0.237036	-0.108336
O20	O	-0.485549	0.737036	0.391664
C21	C	-0.838680	0.120922	-0.000029
C22	C	-0.338680	0.620922	0.499971
C23	C	-0.745432	0.119283	-0.000026
C24	C	-0.245432	0.619283	0.499974
C25	C	-0.509656	0.195216	-0.000024
C26	C	-0.009656	0.695216	0.499976
C27	C	-0.459100	0.154274	-0.106824
C28	C	0.040900	0.654274	0.393176
C29	C	-0.574710	0.116247	-0.000026
C30	C	-0.074710	0.616247	0.499974
C31	C	-0.459115	0.154261	0.106728
C32	C	0.040885	0.654261	0.606728
C33	C	-0.409800	0.113320	-0.000022
C34	C	0.090200	0.613320	0.499978
C35	C	-0.525382	0.075326	-0.106914
C36	C	-0.025382	0.575326	0.393086
C37	C	-0.525401	0.075324	0.106733
C38	C	-0.025401	0.575324	0.606733
C39	C	-0.474877	0.034324	-0.000093
C40	C	0.025123	0.534324	0.499907
C41	C	-0.669710	0.117935	-0.000030
C42	C	-0.169710	0.617935	0.499970
C43	C	-0.314803	0.111625	-0.000027
C44	C	0.185197	0.611625	0.499973
C45	C	-0.998408	-0.038815	-0.000028
C46	C	-0.498408	0.461185	0.499972
C47	C	-0.996763	-0.132063	-0.000019
C48	C	-0.496763	0.367937	0.499981
C49	C	-1.071697	-0.423618	-0.000028
C50	C	-0.571697	0.076382	0.499972
C51	C	-1.032739	-0.362585	-0.106827
C52	C	-0.532739	0.137415	0.393173
C53	C	-0.990786	-0.467698	-0.000034
C54	C	-0.490786	0.032302	0.499966
C55	C	-1.032728	-0.362586	0.106724
C56	C	-0.532728	0.137414	0.606724
C57	C	-0.993727	-0.302790	-0.000024
C58	C	-0.493727	0.197210	0.499976
C59	C	-0.951805	-0.407893	-0.106921
C60	C	-0.451805	0.092107	0.393079
C61	C	-0.951806	-0.407901	0.106727
C62	C	-0.451806	0.092099	0.606727
C63	C	-0.912789	-0.346886	-0.000098
C64	C	-0.412789	0.153114	0.499902
C65	C	-0.989095	-0.562697	-0.000040
C66	C	-0.489095	-0.062697	0.499960
C67	C	-0.995413	-0.207791	-0.000027
C68	C	-0.495413	0.292209	0.499973
C69	C	-0.145829	0.108608	-0.000033
C70	C	0.354171	0.608608	0.499967
C71	C	-0.239073	0.110281	-0.000021
C72	C	0.260927	0.610281	0.499979
C73	C	-0.986103	0.268333	-0.000036
C74	C	-0.486103	0.768333	0.499964
C75	C	-0.987748	0.361581	-0.000038
C76	C	-0.487748	0.861581	0.499962
N77	N	-0.992246	0.114751	-0.308277
N78	N	-0.492246	0.614751	0.191723
C79	C	-0.992258	0.114761	-0.573948
C80	C	-0.492258	0.614761	-0.073948
C81	C	-0.992248	0.114758	-0.426110
C82	C	-0.492248	0.614758	0.073890
N83	N	-0.992272	0.114761	0.308210
N84	N	-0.492272	0.614761	0.808210
H85	H	-0.459424	-0.033748	-0.000154
H86	H	0.040576	0.466252	0.499846
H87	H	-1.066958	-0.342506	-0.197117
H88	H	-0.566958	0.157494	0.302883
N89	N	-0.906503	-0.434342	-0.226648
N90	N	-0.406503	0.065658	0.273352
H91	H	-0.905674	-0.497585	-0.225934
H92	H	-0.405674	0.002415	0.274066
H93	H	-0.936857	-0.417423	-0.307148
H94	H	-0.436857	0.082577	0.192852
N95	N	-0.563761	0.031177	0.226332
N96	N	-0.063761	0.531177	0.726332
H97	H	-0.539534	0.061074	0.306963
H98	H	-0.039534	0.561074	0.806963
H99	H	-0.626978	0.032153	0.224881
H100	H	-0.126978	0.532153	0.724881
N101	N	-0.906516	-0.434537	0.226324
N102	N	-0.406516	0.065463	0.726324
H103	H	-0.937138	-0.418251	0.306956
H104	H	-0.437138	0.081749	0.806956
H105	H	-0.905254	-0.497717	0.224851
H106	H	-0.405254	0.002283	0.724851
H107	H	-1.066969	-0.342512	0.197006
H108	H	-0.566969	0.157488	0.697006
N109	N	-0.530339	0.285314	-0.000143
N110	N	-0.030339	0.785314	0.499857
H111	H	-0.506085	0.315045	-0.080892
H112	H	-0.006085	0.815045	0.419108
H113	H	-0.593628	0.285741	0.000740
H114	H	-0.093628	0.785741	0.500740
N115	N	-0.420758	0.198437	-0.226432
N116	N	0.079242	0.698437	0.273568
H117	H	-0.433115	0.259176	-0.226357
H118	H	0.066885	0.759176	0.273643
H119	H	-0.357674	0.196442	-0.225918
H120	H	0.142326	0.696442	0.274082
N121	N	-0.823771	-0.302902	-0.000184
N122	N	-0.323771	0.197098	0.499816
H123	H	-0.825383	-0.239763	0.000577
H124	H	-0.325383	0.260237	0.500577
H125	H	-0.793011	-0.320175	0.079700
H126	H	-0.293011	0.179825	0.579700
H127	H	-0.554211	0.041994	-0.197296
H128	H	-0.054211	0.541994	0.302704
H129	H	-0.430175	0.187629	0.197007
H130	H	0.069825	0.687629	0.697007
N131	N	-1.160639	-0.467794	-0.000153
N132	N	-0.660639	0.032206	0.499847
H133	H	-1.191090	-0.451442	-0.080903
H134	H	-0.691090	0.048558	0.419097
H135	H	-1.158810	-0.530900	0.000725
H136	H	-0.658810	-0.030900	0.500725
