data_functionalizedCrystal
_audit_creation_method	'MofGen! by Chris Wilmer'
_symmetry_space_group_name_H-M	'P1'
_symmetry_Int_Tables_number	1
_symmetry_cell_setting	triclinic
loop_
_symmetry_equiv_pos_as_xyz
  x,y,z
_cell_length_a	12.759399
_cell_length_b	12.759401
_cell_length_c	12.759393
_cell_angle_alpha	90.024487
_cell_angle_beta	89.968539
_cell_angle_gamma	89.985610
loop_
_atom_site_label
_atom_site_type_symbol
_atom_site_fract_x
_atom_site_fract_y
_atom_site_fract_z
Zn1	Zn	-0.418230	-1.606259	-0.594130
Zn2	Zn	-0.593947	-1.606150	-0.418448
Zn3	Zn	-0.418281	-1.430559	-0.418452
Zn4	Zn	-0.593865	-1.430548	-0.594073
O5	O	-0.506081	-1.518379	-0.506276
O6	O	-0.441552	-1.753265	-0.570847
O7	O	-0.570700	-1.582816	-0.271428
O8	O	-0.271253	-1.453916	-0.441782
O9	O	-0.570651	-1.753185	-0.441775
O10	O	-0.271216	-1.583002	-0.570851
O11	O	-0.441639	-1.453810	-0.271431
O12	O	-0.441559	-1.283536	-0.441727
O13	O	-0.570511	-1.453897	-0.741102
O14	O	-0.570560	-1.283528	-0.570755
O15	O	-0.441473	-1.582991	-0.741143
O16	O	-0.740957	-1.582806	-0.441720
O17	O	-0.740897	-1.453792	-0.570751
C18	C	-0.506057	-1.245411	-0.506236
C19	C	-0.506072	-1.128635	-0.506244
C20	C	-0.573186	-1.073727	-0.438947
C21	C	-0.573202	-0.964003	-0.438969
C22	C	-0.438982	-0.964104	-0.573588
C23	C	-0.438972	-1.073826	-0.573570
C24	C	-0.697076	-0.814011	-0.401239
C25	C	-0.764181	-0.759100	-0.333925
C26	C	-0.780186	-0.794648	-0.231377
C27	C	-0.729071	-0.885105	-0.196122
C28	C	-0.661959	-0.940011	-0.263430
C29	C	-0.645974	-0.904465	-0.365993
C30	C	-0.315096	-1.223820	-0.611289
C31	C	-0.247978	-1.278728	-0.678593
C32	C	-0.231962	-1.243182	-0.781142
C33	C	-0.283058	-1.152721	-0.816394
C34	C	-0.350177	-1.097813	-0.749091
C35	C	-0.366194	-1.133366	-0.646542
C36	C	-0.779048	-1.518314	-0.506252
C37	C	-0.895825	-1.518383	-0.506277
C38	C	-0.950683	-1.585637	-0.439167
C39	C	-1.060407	-1.585705	-0.439202
C40	C	-1.060405	-1.451255	-0.573460
C41	C	-0.950683	-1.451193	-0.573430
C42	C	-1.210288	-1.709713	-0.401823
C43	C	-1.265150	-1.776958	-0.334697
C44	C	-1.229611	-1.793122	-0.232188
C45	C	-1.139212	-1.742025	-0.196784
C46	C	-1.084355	-1.674772	-0.263905
C47	C	-1.119893	-1.658629	-0.366429
C48	C	-0.800800	-1.327183	-0.610798
C49	C	-0.745942	-1.259924	-0.677914
C50	C	-0.781478	-1.243750	-0.780425
C51	C	-0.871881	-1.294828	-0.815825
C52	C	-0.926740	-1.362087	-0.748708
C53	C	-0.891195	-1.378263	-0.646199
C54	C	-0.232047	-1.518472	-0.506323
C55	C	-0.115271	-1.518512	-0.506343
C56	C	-0.505977	-1.518455	-0.780309
C57	C	-0.505933	-1.518488	-0.897086
C58	C	-0.506101	-0.792412	-0.506304
C59	C	-0.506098	-0.909189	-0.506283
C60	C	-0.438692	-1.585734	-1.061703
C61	C	-0.438733	-1.585713	-0.951978
C62	C	-0.573104	-1.451285	-0.951924
C63	C	-0.573068	-1.451311	-1.061646
C64	C	-0.401257	-1.709596	-0.802060
C65	C	-0.334077	-1.776787	-0.747226
C66	C	-0.231553	-1.792962	-0.782862
C67	C	-0.196188	-1.741932	-0.873331
C68	C	-0.263362	-1.674734	-0.928159
C69	C	-0.365901	-1.658578	-0.892524
C70	C	-0.610533	-1.327427	-1.211567
C71	C	-0.677703	-1.260223	-1.266397
C72	C	-0.780229	-1.244037	-1.230762
C73	C	-0.815591	-1.295049	-1.140291
C74	C	-0.748421	-1.362253	-1.085461
C75	C	-0.645895	-1.378441	-1.121102
C76	C	-0.506108	-1.518363	-0.233309
C77	C	-0.505856	-1.518534	-0.116533
H78	H	-0.834828	-0.749934	-0.176572
H79	H	-0.906020	-1.640349	-0.384489
H80	H	-1.105083	-1.396550	-0.628132
H81	H	-1.110289	-1.755183	-0.113307
H82	H	-0.648890	-1.218654	-1.340040
N83	N	-0.332381	-1.262165	-0.500680
H84	H	-0.289821	-1.327798	-0.488559
H85	H	-0.309760	-1.206150	-0.449528
N86	N	-0.986850	-1.619660	-0.225763
H87	H	-1.004876	-1.574057	-0.163591
H88	H	-0.932880	-1.673448	-0.204348
H89	H	-0.234564	-1.633173	-1.001807
H90	H	-0.177297	-1.287890	-0.835936
N91	N	-1.288804	-1.865616	-0.159771
H92	H	-1.351469	-1.895518	-0.197747
H93	H	-1.241215	-1.924567	-0.136870
N94	N	-0.645580	-1.378777	-0.892715
H95	H	-0.629248	-1.303722	-0.911802
H96	H	-0.720615	-1.395160	-0.911814
N97	N	-0.606836	-1.037570	-0.225413
H98	H	-0.627923	-1.099135	-0.270486
H99	H	-0.528516	-1.027091	-0.230047
N100	N	-0.819325	-0.661545	-0.371940
H101	H	-0.798238	-0.599978	-0.326869
H102	H	-0.799000	-0.647449	-0.447135
H103	H	-0.771851	-1.340355	-0.527327
H104	H	-1.338753	-1.818562	-0.363533
N105	N	-0.746311	-0.923431	-0.085504
H106	H	-0.796580	-0.874922	-0.048213
H107	H	-0.776623	-0.996520	-0.087389
H108	H	-0.527049	-1.340606	-1.240593
N109	N	-0.786564	-1.417286	-0.987888
H110	H	-0.728455	-1.462314	-0.958563
H111	H	-0.808099	-1.363458	-0.933958
N112	N	-0.852678	-1.171553	-1.289903
H113	H	-0.922995	-1.169046	-1.253597
H114	H	-0.821394	-1.098878	-1.291873
N115	N	-0.679828	-0.775680	-0.511854
H116	H	-0.722386	-0.710043	-0.523966
H117	H	-0.603038	-0.759742	-0.522567
H118	H	-0.362881	-1.818336	-0.673567
N119	N	-0.645555	-1.132845	-0.366335
H120	H	-0.688074	-1.081407	-0.323707
H121	H	-0.694223	-1.178388	-0.409007
H122	H	-1.239226	-1.696570	-0.485298
N123	N	-1.024249	-1.417180	-0.786883
H124	H	-1.038442	-1.396730	-0.862009
H125	H	-1.013724	-1.495503	-0.782396
H126	H	-0.206366	-1.352381	-0.649879
N127	N	-0.910218	-1.277379	-0.926389
H128	H	-0.854240	-1.299910	-0.977667
H129	H	-0.975828	-1.319939	-0.938534
N130	N	-0.366605	-0.904979	-0.646187
H131	H	-0.291519	-0.924080	-0.629996
H132	H	-0.383098	-0.924133	-0.721195
N133	N	-0.722319	-1.171195	-0.852814
H134	H	-0.659661	-1.141280	-0.814835
H135	H	-0.697869	-1.211563	-0.916393
N136	N	-0.648441	-1.204820	-0.639734
H137	H	-0.634245	-1.225274	-0.564610
H138	H	-0.586910	-1.225808	-0.684936
N139	N	-0.405287	-1.000243	-0.787115
H140	H	-0.450985	-1.018228	-0.849176
H141	H	-0.450176	-0.970898	-0.728855
N142	N	-0.265782	-1.114365	-0.926998
H143	H	-0.215511	-1.162875	-0.964286
H144	H	-0.334881	-1.113225	-0.965554
N145	N	-0.366200	-1.658238	-1.120894
H146	H	-0.382532	-1.733294	-1.101810
H147	H	-0.376392	-1.647972	-1.198706
N148	N	-0.085596	-1.759359	-0.911755
H149	H	-0.048408	-1.809670	-0.863294
H150	H	-0.087529	-1.789692	-0.984852
N151	N	-0.159091	-1.865434	-0.723732
H152	H	-0.149674	-1.838776	-0.649791
H153	H	-0.190336	-1.938128	-0.721830
N154	N	-0.511847	-1.692164	-0.763633
H155	H	-0.524048	-1.734680	-0.698001
H156	H	-0.522419	-1.615352	-0.747659
N157	N	-0.926170	-1.277590	-1.101841
H158	H	-0.963356	-1.227278	-1.150304
H159	H	-0.964852	-1.346629	-1.100695
