data_functionalizedCrystal
_audit_creation_method	'MofGen! by Chris Wilmer'
_symmetry_space_group_name_H-M	'P1'
_symmetry_Int_Tables_number	1
_symmetry_cell_setting	triclinic
loop_
_symmetry_equiv_pos_as_xyz
  x,y,z
_cell_length_a	15.297475
_cell_length_b	25.639239
_cell_length_c	15.296720
_cell_angle_alpha	99.638856
_cell_angle_beta	91.617114
_cell_angle_gamma	80.340538
loop_
_atom_site_label
_atom_site_type_symbol
_atom_site_fract_x
_atom_site_fract_y
_atom_site_fract_z
Zn1	Zn	1.253213	-0.406888	-0.726521
Zn2	Zn	1.278441	-0.482170	-0.580022
Zn3	Zn	1.132104	-0.377518	-0.554767
Zn4	Zn	1.106670	-0.477031	-0.701152
O5	O	1.192607	-0.435902	-0.640616
O6	O	1.379131	-0.431317	-0.728274
O7	O	1.280232	-0.458147	-0.454100
O8	O	1.148256	-0.308262	-0.577599
O9	O	1.397666	-0.486626	-0.620642
O10	O	1.237234	-0.329841	-0.703785
O11	O	1.172719	-0.381260	-0.435545
O12	O	1.006159	-0.376276	-0.552999
O13	O	1.104906	-0.477867	-0.827090
O14	O	0.987472	-0.449388	-0.660547
O15	O	1.212571	-0.426334	-0.845728
O16	O	1.255568	-0.554640	-0.596043
O17	O	1.129369	-0.550864	-0.685036
C18	C	0.965034	-0.409088	-0.601280
C19	C	0.867674	-0.397631	-0.584473
C20	C	0.554472	-0.517789	-0.760740
C21	C	0.645948	-0.528557	-0.776529
C22	C	0.701384	-0.495826	-0.728517
C23	C	0.665336	-0.452326	-0.664713
C24	C	0.573852	-0.441560	-0.648918
C25	C	0.720763	-0.419597	-0.616694
C26	C	0.684715	-0.376097	-0.552890
C27	C	0.593241	-0.365332	-0.537098
C28	C	0.537805	-0.398063	-0.585110
C29	C	0.812247	-0.430363	-0.632489
C30	C	0.831627	-0.354134	-0.520666
C31	C	0.740151	-0.343366	-0.504877
C32	C	1.192467	-0.571724	-0.640550
C33	C	1.192482	-0.629841	-0.640565
C34	C	1.258449	-0.992200	-0.594398
C35	C	1.258481	-1.046809	-0.594415
O36	O	1.314423	-1.076721	-0.555091
N37	N	1.192751	-1.072164	-0.640700
C38	C	1.126990	-1.042907	-0.686978
O39	O	1.071085	-1.069488	-0.726350
C40	C	1.126963	-0.988300	-0.686965
C41	C	1.192692	-0.962947	-0.640670
C42	C	1.324173	-0.966847	-0.548107
C43	C	1.324140	-0.912241	-0.548088
C44	C	1.258383	-0.882988	-0.594360
C45	C	1.192658	-0.908341	-0.640651
C46	C	1.061206	-0.959045	-0.733248
C47	C	1.061185	-0.904435	-0.733232
C48	C	1.126914	-0.879082	-0.686936
C49	C	1.126868	-0.824483	-0.686905
N50	N	1.192598	-0.799128	-0.640619
C51	C	1.258355	-0.828381	-0.594347
C52	C	1.127054	-1.157587	-0.687003
C53	C	1.127077	-1.212192	-0.687011
C54	C	1.258569	-1.216091	-0.594449
C55	C	1.258541	-1.161483	-0.594437
C56	C	1.192784	-1.132232	-0.640718
C57	C	1.258280	-0.713705	-0.594311
C58	C	1.258239	-0.659094	-0.594293
C59	C	1.126750	-0.655201	-0.686858
C60	C	1.126788	-0.709806	-0.686873
C61	C	1.192561	-0.739058	-0.640597
O62	O	1.070956	-0.794537	-0.726211
O63	O	1.314257	-0.801795	-0.554992
C64	C	1.421068	-0.462821	-0.680105
C65	C	1.518425	-0.474292	-0.696933
C66	C	1.153088	-0.454803	-0.869079
C67	C	1.136247	-0.462858	-0.966437
C68	C	1.192768	-0.299554	-0.640705
C69	C	1.192837	-0.241450	-0.640743
C70	C	1.313004	-0.378246	-1.279690
C71	C	1.328832	-0.370679	-1.188219
C72	C	1.280687	-0.393723	-1.132769
C73	C	1.216711	-0.424335	-1.168799
C74	C	1.200886	-0.431905	-1.260281
C75	C	1.168569	-0.447383	-1.113359
C76	C	1.104593	-0.477995	-1.149390
C77	C	1.088771	-0.485564	-1.240862
C78	C	1.136916	-0.462520	-1.296312
C79	C	1.184394	-0.439812	-1.021878
C80	C	1.072276	-0.493472	-1.002468
C81	C	1.056448	-0.501039	-1.093940
C82	C	1.232023	-0.417042	-0.413049
C83	C	1.249034	-0.408860	-0.315722
H84	H	0.463317	-0.389297	-0.572260
O85	O	0.885450	-0.322376	-0.473891
C86	C	0.939158	-0.287806	-0.329803
C87	C	0.878176	-0.323794	-0.382666
H88	H	0.933284	-0.288931	-0.256037
H89	H	1.010755	-0.302968	-0.351979
H90	H	0.918534	-0.244841	-0.342262
H91	H	0.898721	-0.366768	-0.370233
H92	H	0.806593	-0.308587	-0.360481
H93	H	1.073269	-0.730450	-0.724573
H94	H	1.033074	-0.512238	-0.957321
H95	H	1.293579	-0.387561	-1.058289
O96	O	0.680813	-0.570816	-0.838564
C97	C	0.651938	-0.645309	-0.947769
C98	C	0.612334	-0.597458	-0.877551
H99	H	0.596595	-0.666869	-0.979297
H100	H	0.686830	-0.630216	-1.001098
H101	H	0.701728	-0.674291	-0.914846
H102	H	0.562509	-0.568458	-0.910395
H103	H	0.577498	-0.612590	-0.824229
H104	H	0.563895	-0.329916	-0.485135
O105	O	1.391049	-0.341015	-1.153181
C106	C	1.527120	-0.339329	-1.070255
C107	C	1.456746	-0.373000	-1.109920
H108	H	1.580243	-0.365172	-1.035254
H109	H	1.558885	-0.324160	-1.125554
H110	H	1.494288	-0.303711	-1.020539
H111	H	1.489509	-0.408641	-1.159626
H112	H	1.424985	-0.388128	-1.054574
H113	H	0.841588	-0.465781	-0.684439
H114	H	1.311764	-0.638453	-0.556590
H115	H	1.004358	-0.525963	-1.123289
O116	O	0.705153	-0.301052	-0.442996
C117	C	0.684578	-0.205298	-0.395900
C118	C	0.724241	-0.253168	-0.466055
H119	H	0.700012	-0.166574	-0.414508
H120	H	0.609664	-0.203182	-0.392865
H121	H	0.714749	-0.210707	-0.328347
H122	H	0.694139	-0.247792	-0.533644
H123	H	0.799156	-0.255270	-0.469012
O124	O	1.387959	-0.995322	-0.503144
C125	C	1.420415	-1.048638	-0.387012
C126	C	1.348074	-1.016408	-0.437849
H127	H	1.388197	-1.065686	-0.334198
H128	H	1.459188	-1.082905	-0.435185
H129	H	1.467428	-1.021149	-0.353979
H130	H	1.301002	-1.043854	-0.470885
H131	H	1.309368	-0.982136	-0.389635
O132	O	1.322575	-1.244549	-0.549688
C133	C	1.442930	-1.319083	-0.558594
C134	C	1.370468	-1.286899	-0.609368
H135	H	1.481660	-1.353337	-0.606821
H136	H	1.489962	-1.291601	-0.525573
H137	H	1.410767	-1.336159	-0.505779
H138	H	1.402555	-1.269819	-0.662225
H139	H	1.323445	-1.314404	-0.642328
H140	H	1.311840	-0.737515	-0.556631
O141	O	0.790218	-0.506344	-0.743993
C142	C	0.910864	-0.563640	-0.827975
C143	C	0.810239	-0.551781	-0.810545
H144	H	0.927085	-0.600382	-0.881769
H145	H	0.932612	-0.527636	-0.850634
H146	H	0.947400	-0.571701	-0.764368
H147	H	0.773632	-0.543732	-0.874118
H148	H	0.788559	-0.587793	-0.787847
O149	O	1.388085	-0.887707	-0.503113
C150	C	1.518488	-0.897353	-0.411279
C151	C	1.446127	-0.925201	-0.462190
H152	H	1.565423	-0.927651	-0.378163
H153	H	1.557346	-0.880492	-0.459405
H154	H	1.486220	-0.863283	-0.358523
H155	H	1.478322	-0.959291	-0.514945
H156	H	1.407276	-0.942024	-0.414008
O157	O	1.359740	-0.355780	-1.333450
C158	C	1.397486	-0.274191	-1.368907
C159	C	1.344522	-0.299564	-1.307945
H160	H	1.385186	-0.228736	-1.348320
H161	H	1.471231	-0.290163	-1.363110
H162	H	1.375200	-0.284891	-1.440473
H163	H	1.366731	-0.288874	-1.236354
H164	H	1.270787	-0.283591	-1.313819
O165	O	0.997430	-0.983662	-0.778368
C166	C	0.929015	-1.007616	-0.919969
C167	C	1.001295	-0.979733	-0.868977
H168	H	0.932103	-1.004440	-0.993232
H169	H	0.940305	-1.051685	-0.912122
H170	H	0.861077	-0.987330	-0.892284
H171	H	1.069263	-0.999975	-0.896628
H172	H	0.989927	-0.935663	-0.876822
H173	H	1.312064	-1.140844	-0.556739
H174	H	1.073547	-1.232828	-0.724700
O175	O	1.121547	-0.469966	-1.385171
C176	C	1.121335	-0.533587	-1.520315
C177	C	1.138749	-0.525233	-1.419684
H178	H	1.135254	-0.578268	-1.548252
H179	H	1.049210	-0.516840	-1.533481
H180	H	1.166712	-0.511829	-1.553723
H181	H	1.093428	-0.546991	-1.386210
H182	H	1.210895	-0.541966	-1.406583
H183	H	1.236483	-0.414888	-0.992551
H184	H	1.007637	-0.880621	-0.770923
H185	H	0.509330	-0.544436	-0.799820
H186	H	1.073209	-0.631374	-0.724530
H187	H	1.073499	-1.133772	-0.724687
H188	H	1.036684	-0.510495	-1.270196
