data_functionalizedCrystal
_audit_creation_method	'MofGen! by Chris Wilmer'
_symmetry_space_group_name_H-M	'P1'
_symmetry_Int_Tables_number	1
_symmetry_cell_setting	triclinic
loop_
_symmetry_equiv_pos_as_xyz
  x,y,z
_cell_length_a	12.759400
_cell_length_b	21.395362
_cell_length_c	21.395355
_cell_angle_alpha	90.043940
_cell_angle_beta	89.986153
_cell_angle_gamma	89.969436
loop_
_atom_site_label
_atom_site_type_symbol
_atom_site_fract_x
_atom_site_fract_y
_atom_site_fract_z
Zn1	Zn	-0.417943	-0.957929	-0.354606
Zn2	Zn	0.082057	-0.457929	0.145394
Zn3	Zn	-0.593607	-0.957861	-0.249837
Zn4	Zn	-0.093607	-0.457861	0.250163
Zn5	Zn	-0.417992	-0.853144	-0.249807
Zn6	Zn	0.082008	-0.353144	0.250193
Zn7	Zn	-0.593629	-0.853143	-0.354542
Zn8	Zn	-0.093629	-0.353143	0.145458
O9	O	-0.505793	-0.905519	-0.302198
O10	O	-0.005793	-0.405519	0.197802
O11	O	-0.441215	-1.045598	-0.340747
O12	O	0.058785	-0.545598	0.159253
O13	O	-0.570323	-0.943942	-0.162155
O14	O	-0.070323	-0.443942	0.337845
O15	O	-0.270964	-0.867073	-0.263723
O16	O	0.229036	-0.367073	0.236277
O17	O	-0.570275	-1.045548	-0.263774
O18	O	-0.070275	-0.545548	0.236226
O19	O	-0.270928	-0.944058	-0.340719
O20	O	0.229072	-0.444058	0.159281
O21	O	-0.441299	-0.867007	-0.162133
O22	O	0.058701	-0.367007	0.337867
O23	O	-0.441320	-0.765466	-0.263661
O24	O	0.058680	-0.265466	0.236339
O25	O	-0.570312	-0.867071	-0.442228
O26	O	-0.070312	-0.367071	0.057772
O27	O	-0.570360	-0.765465	-0.340609
O28	O	-0.070360	-0.265465	0.159391
O29	O	-0.441236	-0.944057	-0.442275
O30	O	0.058764	-0.444057	0.057725
O31	O	-0.740631	-0.943941	-0.263712
O32	O	-0.240631	-0.443941	0.236288
O33	O	-0.740647	-0.867005	-0.340638
O34	O	-0.240647	-0.367005	0.159362
C35	C	-0.505848	-0.742732	-0.302125
C36	C	-0.005848	-0.242732	0.197875
C37	C	-0.505897	-0.673090	-0.302109
C38	C	-0.005897	-0.173090	0.197891
C39	C	-0.778760	-0.905482	-0.302185
C40	C	-0.278760	-0.405482	0.197815
C41	C	-0.895537	-0.905523	-0.302200
C42	C	-0.395537	-0.405523	0.197800
C43	C	-0.505771	-0.905571	-0.465621
C44	C	-0.005771	-0.405571	0.034379
C45	C	-0.505762	-0.905593	-0.535263
C46	C	-0.005762	-0.405593	-0.035263
C47	C	-0.950355	-0.945629	-0.262189
C48	C	-0.450355	-0.445629	0.237811
C49	C	-1.060079	-0.945667	-0.262209
C50	C	-0.560079	-0.445667	0.237791
C51	C	-1.060156	-0.865490	-0.342252
C52	C	-0.560156	-0.365490	0.157748
C53	C	-0.950434	-0.865455	-0.342235
C54	C	-0.450434	-0.365455	0.157765
C55	C	-0.895458	-0.985697	-0.222154
C56	C	-0.395458	-0.485697	0.277846
C57	C	-0.950277	-1.025805	-0.182139
C58	C	-0.450277	-0.525805	0.317861
C59	C	-1.060001	-1.025843	-0.182159
C60	C	-0.560001	-0.525843	0.317841
C61	C	-1.114906	-0.985774	-0.222193
C62	C	-0.614906	-0.485774	0.277807
C63	C	-0.231759	-0.905574	-0.302225
C64	C	0.268241	-0.405574	0.197775
C65	C	-0.114983	-0.905597	-0.302236
C66	C	0.385017	-0.405597	0.197764
C67	C	-0.505738	-1.068943	-0.302271
C68	C	-0.005738	-0.568943	0.197729
C69	C	-0.505714	-1.138584	-0.302303
C70	C	-0.005714	-0.638584	0.197697
C71	C	-0.573177	-0.640393	-0.342116
C72	C	-0.073177	-0.140393	0.157884
C73	C	-0.573152	-0.574958	-0.342144
C74	C	-0.073152	-0.074958	0.157856
C75	C	-0.505857	-0.542222	-0.302154
C76	C	-0.005857	-0.042222	0.197846
C77	C	-0.438564	-0.574927	-0.262144
C78	C	0.061436	-0.074927	0.237856
C79	C	-0.438584	-0.640361	-0.262122
C80	C	0.061416	-0.140361	0.237878
C81	C	-0.497393	-0.438496	-0.245748
C82	C	0.002607	0.061504	0.254252
C83	C	-0.497380	-0.373063	-0.245769
C84	C	0.002620	0.126937	0.254231
C85	C	-0.505788	-0.340401	-0.302223
C86	C	-0.005788	0.159599	0.197777
C87	C	-0.514231	-0.373181	-0.358657
C88	C	-0.014231	0.126819	0.141343
C89	C	-0.514251	-0.438615	-0.358635
C90	C	-0.014251	0.061385	0.141365
C91	C	-0.505827	-0.471270	-0.302174
C92	C	-0.005827	0.028730	0.197826
C93	C	-0.573044	-0.236752	-0.342263
C94	C	-0.073044	0.263248	0.157737
C95	C	-0.573011	-0.171315	-0.342292
C96	C	-0.073011	0.328685	0.157708
C97	C	-0.438428	-0.171286	-0.262287
C98	C	0.061572	0.328714	0.237713
C99	C	-0.438456	-0.236721	-0.262264
C100	C	0.061544	0.263279	0.237736
C101	C	-0.505769	-0.269450	-0.302251
C102	C	-0.005769	0.230550	0.197749
C103	C	-0.438550	-0.945678	-0.568001
C104	C	0.061450	-0.445678	-0.068001
C105	C	-0.438504	-0.945678	-0.633437
C106	C	0.061496	-0.445678	-0.133437
C107	C	-0.505691	-0.905598	-0.666131
C108	C	-0.005691	-0.405598	-0.166131
C109	C	-0.572908	-0.865505	-0.633384
C110	C	-0.072908	-0.365505	-0.133384
C111	C	-0.572944	-0.865503	-0.567950
C112	C	-0.072944	-0.365503	-0.067950
C113	C	-0.600292	-0.900638	-0.769799
C114	C	-0.100292	-0.400638	-0.269799
C115	C	-0.600258	-0.900645	-0.835232
C116	C	-0.100258	-0.400645	-0.335232
C117	C	-0.505580	-0.905602	-0.867952
C118	C	-0.005580	-0.405602	-0.367952
C119	C	-0.410932	-0.910566	-0.835230
C120	C	0.089068	-0.410566	-0.335230
C121	C	-0.410968	-0.910563	-0.769796
C122	C	0.089032	-0.410563	-0.269796
C123	C	-0.505659	-0.905596	-0.737083
C124	C	-0.005659	-0.405596	-0.237083
C125	C	-0.438312	-0.945688	-0.971643
C126	C	0.061688	-0.445688	-0.471643
C127	C	-0.438265	-0.945683	-1.037080
C128	C	0.061735	-0.445683	-0.537080
C129	C	-0.572678	-0.865514	-1.037026
C130	C	-0.072678	-0.365514	-0.537026
C131	C	-0.572716	-0.865516	-0.971591
C132	C	-0.072716	-0.365516	-0.471591
C133	C	-0.505534	-0.905607	-0.938903
C134	C	-0.005534	-0.405607	-0.438903
C135	C	-0.505738	-0.905503	-0.139410
C136	C	-0.005738	-0.405503	0.360590
C137	C	-0.505451	-0.905603	-0.069770
C138	C	-0.005451	-0.405603	0.430230
H139	H	-0.806115	-0.985668	-0.222132
H140	H	-0.306115	-0.485668	0.277868
Br141	Br	-0.663940	-0.811113	-0.927156
Br142	Br	-0.163940	-0.311113	-0.427156
Br143	Br	-1.134670	-0.811113	-0.396580
Br144	Br	-0.634670	-0.311113	0.103420
H145	H	-0.627608	-0.832871	-0.660008
H146	H	-0.127608	-0.332871	-0.160008
Br147	Br	-0.664465	-0.530573	-0.396444
Br148	Br	-0.164465	-0.030573	0.103556
Br149	Br	-0.525705	-0.483100	-0.435219
Br150	Br	-0.025705	0.016900	0.064781
H151	H	-0.383674	-0.263344	-0.229683
H152	H	0.116326	0.236656	0.270317
Br153	Br	-0.875767	-1.080190	-0.127818
Br154	Br	-0.375767	-0.580190	0.372182
Br155	Br	-0.664391	-0.281173	-0.396533
Br156	Br	-0.164391	0.218827	0.103467
H157	H	-1.104632	-1.058505	-0.149581
H158	H	-0.604632	-0.558505	0.350419
H159	H	-0.490542	-0.465084	-0.199774
H160	H	0.009458	0.034916	0.300226
Br161	Br	-0.664167	-0.811097	-0.523516
Br162	Br	-0.164167	-0.311097	-0.023516
H163	H	-1.204251	-0.985813	-0.222210
H164	H	-0.704251	-0.485813	0.277790
H165	H	-0.383793	-0.666983	-0.229543
H166	H	0.116207	-0.166983	0.270457
H167	H	-0.905800	-0.832798	-0.374817
H168	H	-0.405800	-0.332798	0.125183
Br169	Br	-0.347056	-1.000099	-1.081513
Br170	Br	0.152944	-0.500099	-0.581513
H171	H	-0.383631	-0.144633	-0.229729
H172	H	0.116369	0.355367	0.270271
Br173	Br	-0.664528	-0.684808	-0.396386
Br174	Br	-0.164528	-0.184808	0.103614
H175	H	-0.627796	-0.144694	-0.374875
H176	H	-0.127796	0.355306	0.125125
H177	H	-0.333836	-0.914603	-0.861869
H178	H	0.166164	-0.414603	-0.361869
H179	H	-0.677325	-0.896607	-0.861869
H180	H	-0.177325	-0.396607	-0.361869
H181	H	-0.521076	-0.346589	-0.404627
H182	H	-0.021076	0.153411	0.095373
Br183	Br	-0.347137	-1.000093	-0.927278
Br184	Br	0.152863	-0.500093	-0.427278
Br185	Br	-0.485924	-0.328583	-0.169182
Br186	Br	0.014076	0.171417	0.330818
H187	H	-0.383770	-0.548270	-0.229585
H188	H	0.116230	-0.048270	0.270415
H189	H	-0.383844	-0.978322	-0.541391
H190	H	0.116156	-0.478322	-0.041391
H191	H	-0.383766	-0.978318	-0.660098
H192	H	0.116234	-0.478318	-0.160098
H193	H	-0.333903	-0.914603	-0.743157
H194	H	0.166097	-0.414603	-0.243157
H195	H	-0.627372	-0.832875	-1.063645
H196	H	-0.127372	-0.332875	-0.563645
Br197	Br	-0.728798	-0.893929	-0.725401
Br198	Br	-0.228798	-0.393929	-0.225401
