data_functionalizedCrystal
_audit_creation_method	'MofGen! by Chris Wilmer'
_symmetry_space_group_name_H-M	'P1'
_symmetry_Int_Tables_number	1
_symmetry_cell_setting	triclinic
loop_
_symmetry_equiv_pos_as_xyz
  x,y,z
_cell_length_a	12.645323
_cell_length_b	18.215407
_cell_length_c	18.215405
_cell_angle_alpha	89.976820
_cell_angle_beta	89.968645
_cell_angle_gamma	90.021746
loop_
_atom_site_label
_atom_site_type_symbol
_atom_site_fract_x
_atom_site_fract_y
_atom_site_fract_z
Zn1	Zn	-0.599412	-1.125097	-0.292955
Zn2	Zn	-0.422138	-1.125006	-0.416035
Zn3	Zn	-0.422156	-1.002025	-0.292988
Zn4	Zn	-0.599353	-1.002000	-0.415986
O5	O	-0.510765	-1.063532	-0.354491
O6	O	-0.575913	-1.228069	-0.309289
O7	O	-0.273793	-1.108665	-0.399746
O8	O	-0.445702	-1.018400	-0.189999
O9	O	-0.445670	-1.228002	-0.399715
O10	O	-0.575931	-1.108820	-0.189975
O11	O	-0.273806	-1.018311	-0.309344
O12	O	-0.445645	-0.899038	-0.309296
O13	O	-0.747708	-1.018357	-0.399631
O14	O	-0.575831	-0.899019	-0.399663
O15	O	-0.747751	-1.108795	-0.309241
O16	O	-0.445614	-1.108640	-0.519013
O17	O	-0.575813	-1.018268	-0.518976
C18	C	-0.510734	-0.872326	-0.354478
C19	C	-0.510747	-0.790527	-0.354491
C20	C	-0.510728	-1.063461	-0.545697
C21	C	-0.510748	-1.063499	-0.627496
C22	C	-0.787270	-1.063583	-0.354427
C23	C	-0.905100	-1.063605	-0.354400
C24	C	-0.949955	-1.006713	-0.411253
C25	C	-1.072515	-1.006513	-0.411039
C26	C	-1.073011	-1.042876	-0.276719
C27	C	-0.950413	-1.042441	-0.277094
C28	C	-0.950289	-1.141416	-0.374454
C29	C	-1.072895	-1.141022	-0.376119
C30	C	-0.235335	-1.063523	-0.354501
C31	C	-0.117506	-1.063644	-0.354321
C32	C	-0.510796	-1.255485	-0.354504
C33	C	-0.510809	-1.337284	-0.354510
C34	C	-0.578449	-0.602342	-0.401618
C35	C	-0.578463	-0.525484	-0.401620
C36	C	-0.443103	-0.525474	-0.307377
C37	C	-0.443096	-0.602331	-0.307371
C38	C	-0.510768	-0.640763	-0.354496
C39	C	-0.510788	-0.487047	-0.354504
C40	C	-0.510802	-0.403714	-0.354506
C41	C	-0.510756	-0.724102	-0.354493
C42	C	-0.578650	-1.110603	-0.815617
C43	C	-0.578670	-1.110629	-0.892475
C44	C	-0.442945	-1.016552	-0.892613
C45	C	-0.442931	-1.016522	-0.815756
C46	C	-0.510782	-1.063552	-0.777259
C47	C	-0.510816	-1.063608	-0.930975
C48	C	-0.510837	-1.063637	-1.014309
C49	C	-0.510763	-1.063522	-0.693920
C50	C	-0.510825	-1.063623	-0.162538
C51	C	-0.510850	-1.063662	-0.080739
H52	H	-1.102599	-1.019478	-0.468574
C53	C	-0.652897	-0.644615	-0.453451
N54	N	-0.708977	-0.676453	-0.492492
H55	H	-0.920740	-1.082091	-0.233274
H56	H	-0.387665	-0.978204	-0.784523
C57	C	-0.911093	-1.198678	-0.318519
N58	N	-0.881563	-1.241803	-0.276388
H59	H	-0.919367	-1.160360	-0.430104
H60	H	-1.103525	-1.185669	-0.337730
C61	C	-0.368637	-0.644596	-0.255531
N62	N	-0.312558	-0.676431	-0.216485
C63	C	-0.911778	-0.965611	-0.254176
N64	N	-0.882683	-0.907741	-0.236916
C65	C	-0.652908	-0.483224	-0.453465
N66	N	-0.708981	-0.451395	-0.492519
C67	C	-0.653323	-1.162394	-0.934665
N68	N	-0.709553	-1.201387	-0.966441
C69	C	-0.368663	-0.483191	-0.255546
N70	N	-0.312591	-0.451344	-0.216508
H71	H	-0.633900	-1.148896	-0.784275
H72	H	-0.920473	-1.019514	-0.468991
C73	C	-0.908345	-0.929262	-0.393509
N74	N	-0.877005	-0.870926	-0.380141
C75	C	-1.112140	-0.928638	-0.393040
N76	N	-1.141985	-0.869980	-0.379479
H77	H	-0.387702	-0.978264	-0.923966
C78	C	-1.112414	-1.097137	-0.217890
N79	N	-1.142107	-1.138002	-0.173579
C80	C	-1.114490	-0.966908	-0.253368
N81	N	-1.145732	-0.909687	-0.235783
H82	H	-1.101972	-1.156685	-0.433231
