data_functionalizedCrystal
_audit_creation_method	'MofGen! by Chris Wilmer'
_symmetry_space_group_name_H-M	'P1'
_symmetry_Int_Tables_number	1
_symmetry_cell_setting	triclinic
loop_
_symmetry_equiv_pos_as_xyz
  x,y,z
_cell_length_a	16.974800
_cell_length_b	10.540510
_cell_length_c	16.053789
_cell_angle_alpha	92.862569
_cell_angle_beta	89.238068
_cell_angle_gamma	83.950335
loop_
_atom_site_label
_atom_site_type_symbol
_atom_site_fract_x
_atom_site_fract_y
_atom_site_fract_z
O1	O	1.049984	0.161588	-0.001547
O2	O	1.549984	0.661588	0.498453
O3	O	0.820562	0.183280	0.013961
O4	O	1.320562	0.683280	0.513961
O5	O	0.940519	-0.012385	0.005852
O6	O	1.440519	0.487615	0.505852
O7	O	0.930027	0.357254	0.006562
O8	O	1.430027	0.857254	0.506562
O9	O	0.934526	-0.021898	-0.132602
O10	O	1.434526	0.478102	0.367398
O11	O	0.814569	0.173767	-0.124493
O12	O	1.314569	0.673767	0.375507
O13	O	1.043990	0.152075	-0.140001
O14	O	1.543990	0.652075	0.359999
Zn15	Zn	0.928328	0.161411	-0.154230
Zn16	Zn	1.428328	0.661411	0.345770
Zn17	Zn	0.936225	0.173945	0.028190
Zn18	Zn	1.436225	0.673945	0.528190
O19	O	0.924033	0.347741	-0.131892
O20	O	1.424033	0.847741	0.368108
C21	C	0.788189	0.177879	-0.053280
C22	C	1.288189	0.677879	0.446720
C23	C	0.700654	0.175942	-0.047362
C24	C	1.200654	0.675942	0.452638
C25	C	0.656268	0.169843	-0.120056
C26	C	1.156268	0.669843	0.379944
C27	C	0.574022	0.168002	-0.114498
C28	C	1.074022	0.668002	0.385502
C29	C	0.536163	0.172270	-0.036247
C30	C	1.036163	0.672270	0.463753
C31	C	0.580555	0.178366	0.036452
C32	C	1.080555	0.678366	0.536452
C33	C	0.662801	0.180197	0.030894
C34	C	1.162801	0.680197	0.530894
C35	C	0.290536	0.167341	-0.011530
C36	C	0.790536	0.667341	0.488470
C37	C	0.208285	0.165513	-0.005977
C38	C	0.708285	0.665513	0.494023
C39	C	0.201757	0.155147	-0.156928
C40	C	0.701757	0.655147	0.343072
C41	C	0.284004	0.156987	-0.162479
C42	C	0.784004	0.656987	0.337521
C43	C	0.328390	0.163076	-0.089781
C44	C	0.828390	0.663076	0.410219
N45	N	0.452094	0.170393	-0.030564
N46	N	0.952094	0.670393	0.469436
N47	N	0.412458	0.164943	-0.095464
N48	N	0.912458	0.664943	0.404536
C49	C	0.936741	-0.064429	-0.063320
C50	C	1.436741	0.435571	0.436680
C51	C	0.934402	-0.205329	-0.063157
C52	C	1.434402	0.294671	0.436843
C53	C	1.017722	-0.424563	-0.069108
C54	C	1.517722	0.075437	0.430892
C55	C	1.020231	-0.277998	-0.068960
C56	C	1.520231	0.222002	0.431040
C57	C	0.893888	-0.243729	0.018875
C58	C	1.393888	0.256271	0.518875
C59	C	0.892003	-0.390446	0.019065
C60	C	1.392003	0.109554	0.519065
C61	C	0.883400	-0.401035	-0.138263
C62	C	1.383400	0.098965	0.361737
C63	C	0.887426	-0.254852	-0.139579
C64	C	1.387426	0.245148	0.360421
C65	C	1.076364	0.157477	-0.072758
C66	C	1.576364	0.657477	0.427242
C67	C	1.163899	0.159414	-0.078670
C68	C	1.663899	0.659414	0.421330
C69	C	0.927812	0.399784	-0.062718
C70	C	1.427812	0.899784	0.437282
C71	C	0.930151	0.540685	-0.062875
C72	C	1.430151	1.040685	0.437125
N73	N	0.922944	0.152856	-0.278726
N74	N	1.422944	0.652856	0.221274
C75	C	0.969303	0.226587	-0.325551
C76	C	1.469303	0.726587	0.174449
C77	C	0.965547	0.220594	-0.412704
C78	C	1.465547	0.720594	0.087296
C79	C	0.915429	0.140876	-0.453031
C80	C	1.415429	0.640876	0.046969
C81	C	0.869069	0.067136	-0.406201
C82	C	1.369069	0.567136	0.093799
C83	C	0.872829	0.073123	-0.319049
C84	C	1.372829	0.573123	0.180951
C85	C	0.899015	0.114737	-0.713332
C86	C	1.399015	0.614737	-0.213332
C87	C	0.895256	0.108759	-0.800490
C88	C	1.395256	0.608759	-0.300490
C89	C	0.991736	0.262215	-0.806987
C90	C	1.491736	0.762215	-0.306987
C91	C	0.995488	0.268201	-0.719833
C92	C	1.495488	0.768201	-0.219833
C93	C	0.949131	0.194456	-0.673011
C94	C	1.449131	0.694456	-0.173011
N95	N	0.911587	0.134751	-0.542115
N96	N	1.411587	0.634751	-0.042115
N97	N	0.952978	0.200575	-0.583929
N98	N	1.452978	0.700575	-0.083929
N99	N	0.941615	0.182490	0.152686
N100	N	1.441615	0.682490	0.652686
H101	H	0.326666	0.172295	0.047667
H102	H	0.826666	0.672295	0.547667
H103	H	1.052155	-0.253273	-0.127958
H104	H	1.552155	0.246727	0.372042
H105	H	0.827963	-0.411842	0.026986
H106	H	1.327963	0.088158	0.526986
O107	O	0.543652	0.182559	0.112401
O108	O	1.043652	0.682559	0.612401
C109	C	0.461544	0.179607	0.101721
C110	C	0.961544	0.679607	0.601721
H111	H	0.444462	0.215083	0.037823
H112	H	0.944462	0.715083	0.537823
H113	H	0.427708	0.243842	0.152351
H114	H	0.927708	0.743842	0.652351
H115	H	0.446067	0.077511	0.106354
H116	H	0.946067	0.577511	0.606354
H117	H	0.698939	0.185166	0.090089
H118	H	1.198939	0.685166	0.590089
H119	H	0.537888	0.163015	-0.173693
H120	H	1.037888	0.663015	0.326307
O121	O	0.693023	0.165467	-0.196091
O122	O	1.193023	0.665467	0.303909
C123	C	0.679243	0.051957	-0.241215
C124	C	1.179243	0.551957	0.258785
H125	H	0.664363	-0.022338	-0.195918
H126	H	1.164363	0.477662	0.304082
H127	H	0.734643	0.013910	-0.279295
H128	H	1.234643	0.513910	0.220705
H129	H	0.627585	0.072510	-0.284921
H130	H	1.127585	0.572510	0.215079
H131	H	0.908081	-0.447910	-0.200036
H132	H	1.408081	0.052090	0.299964
O133	O	0.820399	-0.010195	-0.445500
O134	O	1.320399	0.489805	0.054500
C135	C	0.826988	0.000371	-0.532462
C136	C	1.326988	0.500371	-0.032462
H137	H	0.849453	0.095597	-0.545899
H138	H	1.349453	0.595597	-0.045899
H139	H	0.766442	-0.004786	-0.561569
H140	H	1.266442	0.495214	-0.061569
H141	H	0.870396	-0.081154	-0.560237
H142	H	1.370396	0.418846	-0.060237
H143	H	1.029478	0.322252	-0.845119
H144	H	1.529478	0.822252	-0.345119
O145	O	0.158624	0.148995	-0.227520
O146	O	0.658624	0.648995	0.272480
C147	C	0.119163	0.037720	-0.229373
C148	C	0.619163	0.537720	0.270627
H149	H	0.151618	-0.035611	-0.188609
H150	H	0.651618	0.464389	0.311391
H151	H	0.118138	-0.003788	-0.296251
H152	H	0.618138	0.496212	0.203749
H153	H	0.055826	0.062577	-0.204760
H154	H	0.555826	0.562577	0.295240
H155	H	1.010110	0.291509	-0.292722
H156	H	1.510110	0.791509	0.207278
H157	H	0.916864	-0.230932	-0.200230
H158	H	1.416864	0.269068	0.299770
O159	O	0.827716	0.001461	-0.273686
O160	O	1.327716	0.501461	0.226314
C161	C	0.782687	-0.070207	-0.327966
C162	C	1.282687	0.429793	0.172034
H163	H	0.775694	-0.021900	-0.389798
H164	H	1.275694	0.478100	0.110202
H165	H	0.721739	-0.076013	-0.298601
H166	H	1.221739	0.423987	0.201399
H167	H	0.814215	-0.170659	-0.339392
H168	H	1.314215	0.329341	0.160608
H169	H	0.177462	0.168992	0.057748
H170	H	0.677462	0.668992	0.557748
H171	H	0.314823	0.153505	-0.226200
H172	H	0.814823	0.653505	0.273800
O173	O	1.044056	0.345798	-0.680623
O174	O	1.544056	0.845798	-0.180623
C175	C	0.998634	0.436119	-0.626991
C176	C	1.498634	0.936119	-0.126991
H177	H	0.934844	0.448270	-0.649030
H178	H	1.434844	0.948270	-0.149030
H179	H	1.024389	0.531674	-0.627743
H180	H	1.524389	1.031674	-0.127743
H181	H	0.999940	0.401452	-0.560834
H182	H	1.499940	0.901452	-0.060834
H183	H	0.854440	0.043843	-0.833321
H184	H	1.354440	0.543843	-0.333321
O185	O	0.812387	-0.195257	-0.140107
O186	O	1.312387	0.304743	0.359893
C187	C	0.771919	-0.218874	-0.066135
C188	C	1.271919	0.281126	0.433865
H189	H	0.800993	-0.309983	-0.039231
H190	H	1.300993	0.190017	0.460769
H191	H	0.707419	-0.230595	-0.080506
H192	H	1.207419	0.269405	0.419494
H193	H	0.774620	-0.135144	-0.018854
H194	H	1.274620	0.364856	0.481146
H195	H	0.926947	-0.209473	0.075651
H196	H	1.426947	0.290527	0.575651
H197	H	1.048705	-0.471119	-0.128068
H198	H	1.548705	0.028881	0.371932
H199	H	0.861268	0.054688	-0.675220
H200	H	1.361268	0.554688	-0.175220
H201	H	0.924588	-0.427234	0.076136
H202	H	1.424588	0.072766	0.576136
O203	O	1.060176	-0.472707	-0.004458
O204	O	1.560176	0.027293	0.495542
C205	C	1.011091	-0.537739	0.046364
C206	C	1.511091	-0.037739	0.546364
H207	H	0.946486	-0.500141	0.037249
H208	H	1.446486	-0.000141	0.537249
H209	H	1.026993	-0.521304	0.114542
H210	H	1.526993	-0.021304	0.614542
H211	H	1.020101	-0.644354	0.028399
H212	H	1.520101	-0.144354	0.528399
O213	O	1.064299	-0.240141	-0.003975
O214	O	1.564299	0.259859	0.496025
C215	C	1.017108	-0.151997	0.049535
C216	C	1.517108	0.348003	0.549535
H217	H	0.965454	-0.105275	0.013366
H218	H	1.465454	0.394725	0.513366
H219	H	1.054417	-0.075494	0.074963
H220	H	1.554417	0.424506	0.574963
H221	H	0.993294	-0.203942	0.103543
H222	H	1.493294	0.296058	0.603543
H223	H	0.818936	-0.421864	-0.134439
H224	H	1.318936	0.078136	0.365561
O225	O	0.818688	-0.185295	0.027636
O226	O	1.318688	0.314705	0.527636
C227	C	0.811728	-0.108299	0.102292
C228	C	1.311728	0.391701	0.602292
H229	H	0.859468	-0.144664	0.147138
H230	H	1.359468	0.355336	0.647138
H231	H	0.750778	-0.112626	0.132041
H232	H	1.250778	0.387374	0.632041
H233	H	0.819311	-0.005348	0.088065
H234	H	1.319311	0.494652	0.588065
O235	O	1.010603	0.292350	-0.458060
O236	O	1.510603	0.792350	0.041940
C237	C	1.055654	0.363978	-0.403779
C238	C	1.555654	0.863978	0.096221
H239	H	1.025738	0.375827	-0.339457
H240	H	1.525738	0.875827	0.160543
H241	H	1.060003	0.462040	-0.429324
H242	H	1.560003	0.962040	0.070676
H243	H	1.117648	0.311992	-0.398663
H244	H	1.617648	0.811992	0.101337
