data_functionalizedCrystal
_audit_creation_method	'MofGen! by Chris Wilmer'
_symmetry_space_group_name_H-M	'P1'
_symmetry_Int_Tables_number	1
_symmetry_cell_setting	triclinic
loop_
_symmetry_equiv_pos_as_xyz
  x,y,z
_cell_length_a	10.654541
_cell_length_b	17.699083
_cell_length_c	16.776229
_cell_angle_alpha	90.007545
_cell_angle_beta	89.993154
_cell_angle_gamma	96.116529
loop_
_atom_site_label
_atom_site_type_symbol
_atom_site_fract_x
_atom_site_fract_y
_atom_site_fract_z
O1	O	1.665988	-0.106296	-0.066285
O2	O	2.165988	0.393704	0.433715
O3	O	1.300331	-0.116425	-0.066288
O4	O	1.800331	0.383575	0.433712
O5	O	1.493490	-0.001237	-0.066280
O6	O	1.993490	0.498763	0.433720
O7	O	1.472829	-0.221484	-0.066294
O8	O	1.972829	0.278516	0.433706
O9	O	1.493465	-0.001230	0.066297
O10	O	1.993465	0.498770	0.566297
O11	O	1.300306	-0.116418	0.066288
O12	O	1.800306	0.383582	0.566288
O13	O	1.665962	-0.106288	0.066291
O14	O	2.165962	0.393712	0.566291
Zn15	Zn	1.483130	-0.111352	0.087339
Zn16	Zn	1.983130	0.388648	0.587339
Zn17	Zn	1.483164	-0.111362	-0.087336
Zn18	Zn	1.983164	0.388638	0.412664
O19	O	1.472803	-0.221477	0.066283
O20	O	1.972803	0.278523	0.566283
C21	C	1.492737	0.026968	0.000009
C22	C	1.992737	0.526968	0.500009
C23	C	1.490516	0.111001	0.000009
C24	C	1.990516	0.611001	0.500009
C25	C	1.253534	-0.115678	-0.000000
C26	C	1.753534	0.384322	0.500000
C27	C	1.114129	-0.113454	-0.000001
C28	C	1.614129	0.386546	0.499999
C29	C	1.712760	-0.107035	0.000001
C30	C	2.212760	0.392965	0.500001
C31	C	1.852165	-0.109260	-0.000003
C32	C	2.352165	0.390740	0.499997
C33	C	1.882547	0.028479	-0.000004
C34	C	2.382547	0.528479	0.499996
C35	C	1.963228	0.096301	-0.000008
C36	C	2.463228	0.596301	0.499992
C37	C	2.094209	0.094206	-0.000011
C38	C	2.594209	0.594206	0.499989
C39	C	2.144511	0.024283	-0.000007
C40	C	2.644511	0.524283	0.499993
C41	C	2.063829	-0.043538	-0.000003
C42	C	2.563829	0.456462	0.499997
C43	C	1.932846	-0.041436	-0.000002
C44	C	2.432846	0.458564	0.499998
C45	C	2.033448	-0.181276	0.000004
C46	C	2.533448	0.318724	0.500004
C47	C	1.902466	-0.179183	0.000001
C48	C	2.402466	0.320817	0.500001
C49	C	2.083749	-0.251199	0.000008
C50	C	2.583749	0.248801	0.500008
C51	C	2.003067	-0.319022	0.000007
C52	C	2.503067	0.180978	0.500007
C53	C	1.872078	-0.316925	0.000009
C54	C	2.372078	0.183075	0.500009
C55	C	1.821784	-0.247004	0.000006
C56	C	2.321784	0.252996	0.500006
C57	C	1.473556	-0.249682	-0.000007
C58	C	1.973556	0.250318	0.499993
C59	C	1.475777	-0.333714	-0.000013
C60	C	1.975777	0.166286	0.499987
N61	N	1.483116	-0.111345	0.206550
N62	N	1.983116	0.388655	0.706550
C63	C	1.603896	0.158901	0.000011
C64	C	2.103896	0.658901	0.500011
C65	C	1.601802	0.237858	0.000004
C66	C	2.101802	0.737858	0.500004
C67	C	1.486326	0.268912	0.000001
C68	C	1.986326	0.768912	0.500001
C69	C	1.372937	0.221005	-0.000004
C70	C	1.872937	0.721005	0.499996
C71	C	1.375033	0.142050	-0.000002
C72	C	1.875033	0.642050	0.499998
C73	C	1.364483	0.539422	-0.000010
C74	C	1.864483	1.039422	0.499990
C75	C	1.362396	0.618383	-0.000009
C76	C	1.862396	1.118383	0.499991
C77	C	1.591252	0.635230	-0.000004
C78	C	2.091252	1.135230	0.499996
C79	C	1.593348	0.556275	-0.000003
C80	C	2.093348	1.056275	0.499997
C81	C	1.479960	0.508375	-0.000011
C82	C	1.979960	1.008375	0.499989
C83	C	1.482232	0.422761	-0.000005
C84	C	1.982232	0.922761	0.499995
C85	C	1.484052	0.354524	0.000000
C86	C	1.984052	0.854524	0.500000
N87	N	1.483187	-0.111363	-0.206547
N88	N	1.983187	0.388637	0.293453
C89	C	1.568673	-0.060361	0.248271
C90	C	2.068673	0.439639	0.748271
C91	C	1.568680	-0.060360	0.331723
C92	C	2.068680	0.439640	0.831723
C93	C	1.483135	-0.111348	0.373453
C94	C	1.983135	0.388652	0.873453
C95	C	1.397569	-0.162335	0.331727
C96	C	1.897569	0.337665	0.831727
C97	C	1.397557	-0.162331	0.248276
C98	C	1.897557	0.337669	0.748276
C99	C	1.397615	-0.162350	0.668274
C100	C	1.897615	0.337650	1.168274
C101	C	1.397636	-0.162351	0.751730
C102	C	1.897636	0.337649	1.251730
C103	C	1.568737	-0.060379	0.751721
C104	C	2.068737	0.439621	1.251721
C105	C	1.568725	-0.060376	0.668271
C106	C	2.068725	0.439624	1.168271
C107	C	1.483156	-0.111359	0.626551
C108	C	1.983156	0.388641	1.126551
C109	C	1.483147	-0.111358	0.536063
C110	C	1.983147	0.388642	1.036063
C111	C	1.483148	-0.111353	0.463940
C112	C	1.983148	0.388647	0.963940
H113	H	1.775896	0.030192	-0.000010
H114	H	2.275896	0.530192	0.499990
Cl115	Cl	1.676274	0.003723	0.615813
Cl116	Cl	2.176274	0.503723	1.115813
Cl117	Cl	1.289990	-0.226426	0.195828
Cl118	Cl	1.789990	0.273574	0.695828
Cl119	Cl	1.733800	0.695452	0.000004
Cl120	Cl	2.233800	1.195452	0.500004
Cl121	Cl	1.657123	-0.244362	0.000005
Cl122	Cl	2.157123	0.255638	0.500005
H123	H	1.638409	-0.018863	0.785698
H124	H	2.138409	0.481137	1.285698
H125	H	1.327911	-0.203848	0.365708
H126	H	1.827911	0.296152	0.865708
H127	H	1.268356	0.643664	-0.000010
H128	H	1.768356	1.143664	0.499990
H129	H	1.638346	-0.018845	0.365692
H130	H	2.138346	0.481155	0.865692
H131	H	1.922258	0.153231	-0.000000
H132	H	2.422258	0.653231	0.500000
H133	H	1.282707	0.103050	-0.000004
H134	H	1.782707	0.603050	0.499996
H135	H	2.044034	-0.375948	0.000015
H136	H	2.544034	0.124052	0.500015
H137	H	1.272155	0.500431	-0.000017
H138	H	1.772155	1.000431	0.499983
H139	H	1.638338	-0.018844	0.214300
H140	H	2.138338	0.481156	0.714300
H141	H	2.159901	0.149433	-0.000013
H142	H	2.659901	0.649433	0.499987
H143	H	1.327970	-0.203873	0.785705
H144	H	1.827970	0.296127	1.285705
H145	H	2.251164	0.022584	-0.000000
H146	H	2.751164	0.522584	0.500000
Cl147	Cl	1.749075	0.119870	0.000023
Cl148	Cl	2.249075	0.619870	0.500023
Cl149	Cl	1.744344	0.298073	0.000009
Cl150	Cl	2.244344	0.798073	0.500009
H151	H	2.190402	-0.252900	0.000010
H152	H	2.690402	0.247100	0.500010
Cl153	Cl	1.290050	-0.226445	0.615832
Cl154	Cl	1.790050	0.273555	1.115832
H155	H	1.806393	-0.372154	0.000018
H156	H	2.306393	0.127846	0.500018
H157	H	1.278915	0.246296	-0.000012
H158	H	1.778915	0.746296	0.499988
Cl159	Cl	1.738523	0.517240	-0.000001
Cl160	Cl	2.238523	1.017240	0.499999
