data_functionalizedCrystal
_audit_creation_method	'MofGen! by Chris Wilmer'
_symmetry_space_group_name_H-M	'P1'
_symmetry_Int_Tables_number	1
_symmetry_cell_setting	triclinic
loop_
_symmetry_equiv_pos_as_xyz
  x,y,z
_cell_length_a	16.992694
_cell_length_b	11.026607
_cell_length_c	9.483334
_cell_angle_alpha	101.402112
_cell_angle_beta	80.070423
_cell_angle_gamma	99.627120
loop_
_atom_site_label
_atom_site_type_symbol
_atom_site_fract_x
_atom_site_fract_y
_atom_site_fract_z
O1	O	1.067558	0.278913	0.120695
O2	O	0.838865	0.276058	0.120738
O3	O	0.934258	0.098994	0.120715
O4	O	0.972165	0.455977	0.120718
O5	O	0.953592	0.062873	-0.121065
O6	O	0.858200	0.239937	-0.121042
O7	O	1.086892	0.242793	-0.121085
Cu8	Cu	0.974311	0.238067	-0.143140
Cu9	Cu	0.951446	0.280784	0.142793
O10	O	0.991499	0.419856	-0.121062
C11	C	0.818800	0.254316	-0.000146
C12	C	0.730203	0.243333	-0.000130
C13	C	0.694924	0.349330	-0.000130
C14	C	0.611681	0.338998	-0.000150
C15	C	0.563718	0.222668	-0.000160
C16	C	0.599003	0.116662	-0.000164
C17	C	0.682245	0.126994	-0.000154
C18	C	0.314080	0.179845	-0.000199
C19	C	0.230832	0.169522	-0.000204
C20	C	0.243517	0.391858	-0.000193
C21	C	0.326759	0.402181	-0.000175
C22	C	0.362037	0.296174	-0.000187
N23	N	0.478630	0.212104	-0.000176
N24	N	0.447125	0.306737	-0.000181
C25	C	0.936932	0.035045	-0.000172
C26	C	0.916084	-0.101689	-0.000163
C27	C	0.973647	-0.169914	-0.000172
C28	C	0.952101	-0.311236	-0.000162
C29	C	1.106957	0.264535	-0.000197
C30	C	1.195553	0.275519	-0.000205
C31	C	0.988825	0.483806	-0.000172
C32	C	1.009672	0.620541	-0.000171
N33	N	0.990399	0.208022	-0.344250
C34	C	0.956182	0.271920	-0.416471
C35	C	0.969586	0.246911	-0.583880
N36	N	0.935363	0.310819	0.343903
H37	H	0.214784	0.478162	-0.000186
C38	C	1.103304	-0.225098	0.124094
C39	C	1.097741	-0.317090	-0.000190
H40	H	1.157673	-0.186591	0.124075
H41	H	1.086040	-0.262315	0.208394
H42	H	1.069980	-0.163987	0.124084
H43	H	1.131061	-0.378207	-0.000174
H44	H	1.115015	-0.279873	-0.084512
H45	H	0.365805	0.496912	-0.000150
C46	C	0.859735	-0.501533	-0.000141
C47	C	0.864033	-0.373607	-0.000145
H48	H	0.805366	-0.540037	-0.000139
H49	H	0.878711	-0.513062	0.084165
H50	H	0.892203	-0.538260	-0.084464
H51	H	0.831569	-0.336878	0.084184
H52	H	0.845046	-0.362069	-0.084459
C53	C	0.226651	-0.049224	-0.000230
C54	C	0.178108	0.041642	-0.000218
H55	H	0.194100	-0.128166	-0.000243
H56	H	0.252635	-0.027983	0.084078
H57	H	0.266131	-0.053160	-0.084551
H58	H	0.138631	0.045585	0.084109
H59	H	0.152111	0.020396	-0.084535
H60	H	0.850851	-0.147903	-0.000141
C61	C	0.936190	0.487526	-0.369317
C62	C	0.903240	0.370771	-0.332641
H63	H	0.903506	0.548553	-0.317557
H64	H	0.938244	0.483681	-0.470808
H65	H	0.989162	0.509532	-0.344433
H66	H	0.850269	0.348761	-0.357535
H67	H	0.901176	0.374613	-0.231127
C68	C	0.552620	-0.057458	0.124116
C69	C	0.546284	-0.011211	-0.000172
H70	H	0.520078	-0.136406	0.124107
H71	H	0.534832	-0.000883	0.208413
H72	H	0.607249	-0.066469	0.124101
H73	H	0.491655	-0.002192	-0.000152
H74	H	0.564068	-0.067800	-0.084491
C75	C	0.778447	-0.008940	-0.124440
C76	C	0.721025	0.010477	-0.000151
H77	H	0.802382	-0.080881	-0.124444
H78	H	0.818920	0.061811	-0.124423
H79	H	0.752976	-0.020940	-0.208746
H80	H	0.746497	0.022487	0.084155
H81	H	0.680545	-0.060291	-0.000155
H82	H	0.342793	0.093526	-0.000210
C83	C	1.046371	0.103527	-0.577692
C84	C	1.043342	0.109170	-0.428076
H85	H	1.079052	0.042492	-0.629437
H86	H	1.068718	0.182732	-0.602552
H87	H	0.993394	0.081507	-0.602558
H88	H	1.096318	0.131199	-0.403209
H89	H	1.020997	0.029947	-0.403207
C90	C	0.915370	0.526428	-0.608967
C91	C	0.882418	0.409677	-0.572283
H92	H	0.882686	0.587457	-0.557216
H93	H	0.917427	0.522577	-0.710460
H94	H	0.968341	0.548436	-0.584077
H95	H	0.829448	0.387665	-0.597182
H96	H	0.880351	0.413526	-0.470766
H97	H	0.733971	0.444058	-0.000121
H98	H	0.582962	0.425313	-0.000148
H99	H	1.038880	-0.123700	-0.000193
H100	H	1.008810	0.173690	-0.645979
