data_functionalizedCrystal
_audit_creation_method	'MofGen! by Chris Wilmer'
_symmetry_space_group_name_H-M	'P1'
_symmetry_Int_Tables_number	1
_symmetry_cell_setting	triclinic
loop_
_symmetry_equiv_pos_as_xyz
  x,y,z
_cell_length_a	25.639242
_cell_length_b	16.959453
_cell_length_c	16.959447
_cell_angle_alpha	89.968429
_cell_angle_beta	89.975785
_cell_angle_gamma	90.018253
loop_
_atom_site_label
_atom_site_type_symbol
_atom_site_fract_x
_atom_site_fract_y
_atom_site_fract_z
Zn1	Zn	0.799294	-0.314760	-0.447110
Zn2	Zn	0.799238	-0.446953	-0.314929
Zn3	Zn	0.711867	-0.314782	-0.314925
Zn4	Zn	0.711839	-0.446890	-0.447045
O5	O	0.755560	-0.380846	-0.381002
O6	O	0.872452	-0.332313	-0.429605
O7	O	0.787637	-0.429455	-0.204318
O8	O	0.723499	-0.204168	-0.332486
O9	O	0.872411	-0.429434	-0.332492
O10	O	0.787731	-0.204152	-0.429602
O11	O	0.723445	-0.332350	-0.204315
O12	O	0.638698	-0.332289	-0.332422
O13	O	0.723452	-0.429328	-0.557664
O14	O	0.638678	-0.429349	-0.429490
O15	O	0.787704	-0.332252	-0.557713
O16	O	0.787610	-0.557555	-0.332429
O17	O	0.723398	-0.557509	-0.429493
C18	C	0.619717	-0.380815	-0.380949
C19	C	0.561603	-0.380821	-0.380945
C20	C	0.755509	-0.586213	-0.380972
C21	C	0.755536	-0.674069	-0.380985
C22	C	0.722134	-0.715420	-0.330385
C23	C	0.788960	-0.715272	-0.431602
C24	C	0.788985	-0.797818	-0.431619
C25	C	0.755583	-0.839168	-0.381019
C26	C	0.722156	-0.797973	-0.330402
C27	C	0.822407	-0.839020	-0.482241
C28	C	0.822432	-0.921571	-0.482260
C29	C	0.789032	-0.962922	-0.431656
C30	C	0.755605	-0.921722	-0.381037
C31	C	0.722203	-0.963072	-0.330437
C32	C	0.688778	-0.921873	-0.279813
C33	C	0.688756	-0.839325	-0.279798
C34	C	0.789054	-1.045471	-0.431671
C35	C	0.722225	-1.045626	-0.330454
C36	C	0.201238	-0.431470	-0.431498
C37	C	0.146634	-0.431474	-0.431510
O38	O	0.118396	-0.474499	-0.474447
N39	N	0.119321	-0.380868	-0.381054
C40	C	0.146614	-0.330248	-0.330588
O41	O	0.118368	-0.287203	-0.287672
C42	C	0.201217	-0.330239	-0.330580
C43	C	0.228528	-0.380855	-0.381034
C44	C	0.228549	-0.482080	-0.481948
C45	C	0.283150	-0.482076	-0.481934
C46	C	0.310439	-0.431462	-0.431470
C47	C	0.283129	-0.380851	-0.381020
C48	C	0.228510	-0.279616	-0.280118
C49	C	0.283117	-0.279611	-0.280115
C50	C	0.310428	-0.330227	-0.330569
C51	C	0.365019	-0.330232	-0.330542
N52	N	0.392333	-0.380839	-0.380998
C53	C	0.365043	-0.431453	-0.431462
C54	C	0.031944	-0.330268	-0.330609
C55	C	-0.022659	-0.330279	-0.330612
C56	C	-0.022635	-0.431505	-0.431536
C57	C	0.031968	-0.431497	-0.431528
C58	C	0.059257	-0.380874	-0.381065
C59	C	0.479708	-0.431442	-0.431429
C60	C	0.534313	-0.431436	-0.431409
C61	C	0.534285	-0.330207	-0.330488
C62	C	0.479684	-0.330216	-0.330505
C63	C	0.452397	-0.380836	-0.380982
O64	O	0.393292	-0.287227	-0.287630
O65	O	0.393296	-0.474484	-0.474378
C66	C	0.891933	-0.380878	-0.381057
C67	C	0.950047	-0.380892	-0.381080
C68	C	0.755581	-0.380781	-0.587171
C69	C	0.755591	-0.380753	-0.675027
C70	C	0.755624	-0.174678	-0.381051
C71	C	0.755652	-0.086821	-0.381071
C72	C	0.722200	-0.431212	-1.046480
C73	C	0.789106	-0.330127	-1.046526
C74	C	0.789092	-0.330144	-0.963980
C75	C	0.755632	-0.380696	-0.922680
C76	C	0.722186	-0.431232	-0.963927
C77	C	0.822542	-0.279614	-0.922727
C78	C	0.822530	-0.279630	-0.840176
C79	C	0.789066	-0.330179	-0.798875
C80	C	0.755618	-0.380716	-0.840127
C81	C	0.722158	-0.431269	-0.798827
C82	C	0.688707	-0.481803	-0.840077
C83	C	0.688723	-0.481781	-0.922626
C84	C	0.789051	-0.330200	-0.716327
C85	C	0.722144	-0.431289	-0.716274
C86	C	0.755568	-0.380854	-0.175636
C87	C	0.755660	-0.380660	-0.087780
H88	H	0.695026	-1.079288	-0.289247
F89	F	0.199456	-0.225739	-0.226421
F90	F	0.686564	-0.671573	-0.276507
H91	H	0.849786	-0.238462	-0.956359
F92	F	0.450617	-0.276357	-0.276796
F93	F	0.824652	-0.276427	-0.672429
H94	H	0.661542	-0.805776	-0.238583
H95	H	-0.044864	-0.472716	-0.472629
F96	F	0.857944	-0.795008	-0.536101
F97	F	0.858129	-0.225846	-0.796282
H98	H	0.849650	-0.955108	-0.523480
F99	F	0.824623	-1.089314	-0.485547
H100	H	0.661579	-0.955552	-0.238618
F101	F	0.563338	-0.276342	-0.276783
F102	F	0.563376	-0.485311	-0.485109
F103	F	0.824501	-0.671262	-0.485460
H104	H	-0.044891	-0.289071	-0.289520
F105	F	0.060982	-0.276389	-0.276891
F106	F	0.686528	-0.485091	-0.672326
F107	F	0.450674	-0.485317	-0.485152
H108	H	0.305381	-0.523291	-0.523021
H109	H	0.206335	-0.523297	-0.523046
F110	F	0.312157	-0.225729	-0.226405
F111	F	0.061029	-0.485367	-0.485228
H112	H	0.661466	-0.522966	-0.806441
H113	H	0.661490	-0.522926	-0.956219
F114	F	0.686599	-0.484989	-1.090381
F115	F	0.824718	-0.276334	-1.090482
