data_functionalizedCrystal
_audit_creation_method	'MofGen! by Chris Wilmer'
_symmetry_space_group_name_H-M	'P1'
_symmetry_Int_Tables_number	1
_symmetry_cell_setting	triclinic
loop_
_symmetry_equiv_pos_as_xyz
  x,y,z
_cell_length_a	11.026607
_cell_length_b	10.654550
_cell_length_c	9.483290
_cell_angle_alpha	79.615849
_cell_angle_beta	81.875780
_cell_angle_gamma	96.535473
loop_
_atom_site_label
_atom_site_type_symbol
_atom_site_fract_x
_atom_site_fract_y
_atom_site_fract_z
O1	O	0.153719	1.683504	0.120863
O2	O	0.169988	1.321556	0.120870
O3	O	-0.015051	1.472533	0.120862
O4	O	0.338759	1.532527	0.120872
O5	O	0.019047	1.515335	-0.120913
O6	O	0.204086	1.364358	-0.120905
O7	O	0.187817	1.726306	-0.120912
Cu8	Cu	0.199065	1.549240	-0.142985
Cu9	Cu	0.158740	1.498622	0.142943
O10	O	0.372856	1.575329	-0.120904
C11	C	-0.043307	1.482866	-0.000024
C12	C	-0.178299	1.449870	-0.000018
C13	C	0.185842	1.295900	-0.000017
C14	C	0.182268	1.155680	-0.000014
C15	C	0.171962	1.751962	-0.000022
C16	C	0.175536	1.892180	-0.000015
C17	C	-0.251338	1.540973	-0.000018
C18	C	-0.390860	1.506873	-0.000012
C19	C	0.401111	1.564996	-0.000015
C20	C	0.536102	1.597990	-0.000011
N21	N	0.227426	1.584851	-0.344091
C22	C	0.066586	1.948015	-0.000013
C23	C	0.069953	2.079768	-0.000017
C24	C	0.291226	2.099837	-0.000021
C25	C	0.287860	1.968089	-0.000027
C26	C	0.167099	1.509110	-0.416320
C27	C	0.190705	1.538771	-0.583726
N28	N	0.130369	1.463018	0.344049
H29	H	-0.210576	1.644217	-0.000028
O30	O	-0.409936	1.734757	0.000002
H31	H	-0.426818	1.799698	-0.098532
H32	H	-0.018765	2.125223	-0.000017
O33	O	-0.054552	1.866141	-0.000028
H34	H	-0.129742	1.927111	-0.000045
H35	H	-0.431617	1.403623	-0.000000
H36	H	-0.219061	1.346627	-0.000007
O37	O	0.412371	2.181704	-0.000017
H38	H	0.396408	2.282696	0.000002
H39	H	0.376586	1.922628	-0.000034
O40	O	0.075459	1.394181	-0.334087
H41	H	0.071254	1.388955	-0.215504
H42	H	0.259840	1.625576	-0.645817
O43	O	0.318985	1.699840	-0.426341
H44	H	0.411881	1.689573	-0.397230
O45	O	0.038774	1.348043	-0.573727
H46	H	0.034586	1.342799	-0.455143
