data_functionalizedCrystal
_audit_creation_method	'MofGen! by Chris Wilmer'
_symmetry_space_group_name_H-M	'P1'
_symmetry_Int_Tables_number	1
_symmetry_cell_setting	triclinic
loop_
_symmetry_equiv_pos_as_xyz
  x,y,z
_cell_length_a	16.109301
_cell_length_b	14.044220
_cell_length_c	15.186229
_cell_angle_alpha	89.995248
_cell_angle_beta	89.999362
_cell_angle_gamma	88.325179
loop_
_atom_site_label
_atom_site_type_symbol
_atom_site_fract_x
_atom_site_fract_y
_atom_site_fract_z
O1	O	1.112195	0.121835	-0.073175
O2	O	1.362195	0.371835	0.176825
O3	O	1.612195	0.621835	0.426825
O4	O	1.862195	0.871835	0.676825
O5	O	0.871261	0.136997	-0.073189
O6	O	1.121261	0.386997	0.176811
O7	O	1.371261	0.636997	0.426811
O8	O	1.621261	0.886997	0.676811
O9	O	0.988112	-0.008568	-0.073174
O10	O	1.238112	0.241432	0.176826
O11	O	1.488112	0.491432	0.426826
O12	O	1.738112	0.741432	0.676826
O13	O	0.995345	0.267399	-0.073191
O14	O	1.245345	0.517399	0.176809
O15	O	1.495345	0.767399	0.426809
O16	O	1.745345	1.017399	0.676809
O17	O	0.988103	-0.008570	0.073284
O18	O	1.238103	0.241430	0.323284
O19	O	1.488103	0.491430	0.573284
O20	O	1.738103	0.741430	0.823284
O21	O	0.871253	0.136995	0.073268
O22	O	1.121253	0.386995	0.323268
O23	O	1.371253	0.636995	0.573268
O24	O	1.621253	0.886995	0.823268
O25	O	1.112187	0.121832	0.073282
O26	O	1.362187	0.371832	0.323282
O27	O	1.612187	0.621832	0.573282
O28	O	1.862187	0.871832	0.823282
Zn29	Zn	0.991718	0.129413	0.096528
Zn30	Zn	1.241718	0.379413	0.346528
Zn31	Zn	1.491718	0.629413	0.596528
Zn32	Zn	1.741718	0.879413	0.846528
Zn33	Zn	0.991730	0.129416	-0.096435
Zn34	Zn	1.241730	0.379416	0.153565
Zn35	Zn	1.491730	0.629416	0.403565
Zn36	Zn	1.741730	0.879416	0.653565
O37	O	0.995336	0.267397	0.073267
O38	O	1.245336	0.517397	0.323267
O39	O	1.495336	0.767397	0.573267
O40	O	1.745336	1.017397	0.823267
C41	C	0.840236	0.136381	0.000038
C42	C	1.090236	0.386381	0.250038
C43	C	1.340236	0.636381	0.500038
C44	C	1.590236	0.886381	0.750038
C45	C	0.747804	0.134540	0.000033
C46	C	0.997804	0.384540	0.250033
C47	C	1.247804	0.634540	0.500033
C48	C	1.497804	0.884540	0.750033
C49	C	0.531640	0.216634	0.000038
C50	C	0.781640	0.466634	0.250038
C51	C	1.031640	0.716634	0.500038
C52	C	1.281640	0.966634	0.750038
C53	C	0.444790	0.214896	0.000043
C54	C	0.694790	0.464896	0.250043
C55	C	0.944790	0.714896	0.500043
C56	C	1.194790	0.964896	0.750043
C57	C	0.451815	0.042189	0.000050
C58	C	0.701815	0.292189	0.250050
C59	C	0.951815	0.542189	0.500050
C60	C	1.201815	0.792189	0.750050
C61	C	0.538663	0.043927	0.000051
C62	C	0.788663	0.293927	0.250051
C63	C	1.038663	0.543927	0.500051
C64	C	1.288663	0.793927	0.750051
C65	C	0.578573	0.131153	0.000040
C66	C	0.828573	0.381153	0.250040
C67	C	1.078573	0.631153	0.500040
C68	C	1.328573	0.881153	0.750040
C69	C	0.404875	0.127677	0.000045
C70	C	0.654875	0.377677	0.250045
C71	C	0.904875	0.627677	0.500045
C72	C	1.154875	0.877677	0.750045
C73	C	0.310709	0.125792	0.000052
C74	C	0.560709	0.375792	0.250052
C75	C	0.810709	0.625792	0.500052
C76	C	1.060709	0.875792	0.750052
C77	C	0.672745	0.133038	0.000036
C78	C	0.922745	0.383038	0.250036
C79	C	1.172745	0.633038	0.500036
C80	C	1.422745	0.883038	0.750036
C81	C	0.984941	-0.043882	0.000055
C82	C	1.234941	0.206118	0.250055
C83	C	1.484941	0.456118	0.500055
C84	C	1.734941	0.706118	0.750055
C85	C	0.975498	-0.149105	0.000056
C86	C	1.225498	0.100895	0.250056
C87	C	1.475498	0.350895	0.500056
C88	C	1.725498	0.600895	0.750056
C89	C	0.958232	-0.341761	0.000042
C90	C	1.208232	-0.091761	0.250042
C91	C	1.458232	0.158239	0.500042
C92	C	1.708232	0.408239	0.750042
C93	C	1.025212	-0.399415	0.000043
C94	C	1.275212	-0.149415	0.250043
C95	C	1.525212	0.100585	0.500043
C96	C	1.775212	0.350585	0.750043
C97	C	1.015605	-0.506616	0.000036
C98	C	1.265605	-0.256616	0.250036
C99	C	1.515605	-0.006616	0.500036
C100	C	1.765605	0.243384	0.750036
C101	C	0.967838	-0.234551	0.000050
C102	C	1.217838	0.015449	0.250050
C103	C	1.467838	0.265449	0.500050
C104	C	1.717838	0.515449	0.750050
C105	C	1.143211	0.122448	0.000053
C106	C	1.393211	0.372448	0.250053
C107	C	1.643211	0.622448	0.500053
C108	C	1.893211	0.872448	0.750053
C109	C	1.235644	0.124289	0.000053
C110	C	1.485644	0.374289	0.250053
C111	C	1.735644	0.624289	0.500053
C112	C	1.985644	0.874289	0.750053
C113	C	0.998506	0.302711	0.000036
C114	C	1.248506	0.552711	0.250036
C115	C	1.498506	0.802711	0.500036
C116	C	1.748506	1.052711	0.750036
C117	C	1.007950	0.407934	0.000030
C118	C	1.257950	0.657934	0.250030
C119	C	1.507950	0.907934	0.500030
C120	C	1.757950	1.157934	0.750030
N121	N	0.991716	0.129411	0.228221
N122	N	1.241716	0.379411	0.478221
N123	N	1.491716	0.629411	0.728221
N124	N	1.741716	0.879411	0.978221
N125	N	0.991737	0.129411	-0.228128
N126	N	1.241737	0.379411	0.021872
N127	N	1.491737	0.629411	0.271872
N128	N	1.741737	0.879411	0.521872
C129	C	1.043479	0.064976	0.453951
C130	C	1.293479	0.314976	0.703951
C131	C	1.543479	0.564976	0.953951
C132	C	1.793479	0.814976	1.203951
C133	C	1.043481	0.064974	0.546141
C134	C	1.293481	0.314974	0.796141
C135	C	1.543481	0.564974	1.046141
C136	C	1.793481	0.814974	1.296141
C137	C	0.939969	0.193848	0.546136
C138	C	1.189969	0.443848	0.796136
C139	C	1.439969	0.693848	1.046136
C140	C	1.689969	0.943848	1.296136
C141	C	0.939963	0.193845	0.453948
C142	C	1.189963	0.443845	0.703948
C143	C	1.439963	0.693845	0.953948
C144	C	1.689963	0.943845	1.203948
C145	C	0.991723	0.129410	0.407858
C146	C	1.241723	0.379410	0.657858
C147	C	1.491723	0.629410	0.907858
C148	C	1.741723	0.879410	1.157858
C149	C	0.991731	0.129411	0.592235
C150	C	1.241731	0.379411	0.842235
C151	C	1.491731	0.629411	1.092235
C152	C	1.741731	0.879411	1.342235
C153	C	0.991734	0.129409	0.692192
C154	C	1.241734	0.379409	0.942192
C155	C	1.491734	0.629409	1.192192
C156	C	1.741734	0.879409	1.442192
C157	C	0.991719	0.129411	0.307895
C158	C	1.241719	0.379411	0.557895
C159	C	1.491719	0.629411	0.807895
C160	C	1.741719	0.879411	1.057895
H161	H	0.564132	0.287658	0.000035
H162	H	0.814132	0.537658	0.250035
H163	H	1.064132	0.787658	0.500035
H164	H	1.314132	1.037658	0.750035
H165	H	1.089769	-0.368264	-0.000012
H166	H	1.339769	-0.118264	0.249988
H167	H	1.589769	0.131736	0.499988
H168	H	1.839769	0.381736	0.749988
H169	H	0.893680	-0.372911	0.000036
H170	H	1.143680	-0.122911	0.250036
H171	H	1.393680	0.127089	0.500036
H172	H	1.643680	0.377089	0.750036
F173	F	0.588616	-0.047058	0.000059
F174	F	0.838616	0.202942	0.250059
F175	F	1.088616	0.452942	0.500059
F176	F	1.338616	0.702942	0.750059
F177	F	1.098564	-0.003603	0.404902
F178	F	1.348564	0.246397	0.654902
F179	F	1.598564	0.496397	0.904902
F180	F	1.848564	0.746397	1.154902
H181	H	1.085624	0.012505	0.583667
H182	H	1.335624	0.262505	0.833667
H183	H	1.585624	0.512505	1.083667
H184	H	1.835624	0.762505	1.333667
H185	H	0.897829	0.246311	0.583672
H186	H	1.147829	0.496311	0.833672
H187	H	1.397829	0.746311	1.083672
H188	H	1.647829	0.996311	1.333672
H189	H	0.419309	-0.028827	0.000065
H190	H	0.669309	0.221173	0.250065
H191	H	0.919309	0.471173	0.500065
H192	H	1.169309	0.721173	0.750065
H193	H	0.897813	0.246315	0.416416
H194	H	1.147813	0.496315	0.666416
H195	H	1.397813	0.746315	0.916416
H196	H	1.647813	0.996315	1.166416
H197	H	0.406580	0.284504	0.000043
H198	H	0.656580	0.534504	0.250043
H199	H	0.906580	0.784504	0.500043
H200	H	1.156580	1.034504	0.750043
