data_functionalizedCrystal
_audit_creation_method	'MofGen! by Chris Wilmer'
_symmetry_space_group_name_H-M	'P1'
_symmetry_Int_Tables_number	1
_symmetry_cell_setting	triclinic
loop_
_symmetry_equiv_pos_as_xyz
  x,y,z
_cell_length_a	14.908520
_cell_length_b	17.077404
_cell_length_c	17.077396
_cell_angle_alpha	89.981638
_cell_angle_beta	93.268321
_cell_angle_gamma	93.318621
loop_
_atom_site_label
_atom_site_type_symbol
_atom_site_fract_x
_atom_site_fract_y
_atom_site_fract_z
Zn1	Zn	-0.359207	1.182021	-0.461847
Zn2	Zn	0.140793	1.682021	0.038153
Zn3	Zn	-0.510079	1.174354	-0.338153
Zn4	Zn	-0.010079	1.674354	0.161847
Zn5	Zn	-0.359233	1.050752	-0.330599
Zn6	Zn	0.140767	1.550752	0.169401
Zn7	Zn	-0.510019	1.043150	-0.469376
Zn8	Zn	-0.010019	1.543150	0.030624
O9	O	-0.434635	1.112569	-0.399993
O10	O	0.065365	1.612569	0.100007
O11	O	-0.379235	1.290850	-0.445449
O12	O	0.120765	1.790850	0.054551
O13	O	-0.490104	1.157930	-0.227305
O14	O	0.009896	1.657930	0.272695
O15	O	-0.232985	1.074555	-0.341697
O16	O	0.267015	1.574555	0.158303
O17	O	-0.490079	1.285217	-0.354571
O18	O	0.009921	1.785217	0.145429
O19	O	-0.232966	1.170998	-0.438124
O20	O	0.267034	1.670998	0.061876
O21	O	-0.379279	1.067120	-0.221755
O22	O	0.120721	1.567120	0.278245
O23	O	-0.379221	0.939897	-0.348997
O24	O	0.120779	1.439897	0.151003
O25	O	-0.489978	1.061598	-0.578222
O26	O	0.010022	1.561598	-0.078222
O27	O	-0.490003	0.934312	-0.450956
O28	O	0.009997	1.434312	0.049044
O29	O	-0.379177	1.163627	-0.572691
O30	O	0.120823	1.663627	-0.072691
O31	O	-0.636315	1.150559	-0.361872
O32	O	-0.136315	1.650559	0.138128
O33	O	-0.636272	1.054164	-0.458281
O34	O	-0.136272	1.554164	0.041719
C35	C	-0.434609	0.908622	-0.399974
C36	C	0.065391	1.408622	0.100026
C37	C	-0.434620	0.821372	-0.399986
C38	C	0.065380	1.321372	0.100014
C39	C	-0.377006	0.783311	-0.447388
C40	C	0.122994	1.283311	0.052612
C41	C	-0.377012	0.701330	-0.447392
C42	C	0.122988	1.201330	0.052608
C43	C	-0.434637	0.657412	-0.399998
C44	C	0.065363	1.157412	0.100002
C45	C	-0.492253	0.695479	-0.352590
C46	C	0.007747	1.195479	0.147410
C47	C	-0.492242	0.777458	-0.352583
C48	C	0.007758	1.277458	0.147417
C49	C	-0.492274	0.524608	-0.352611
C50	C	0.007726	1.024608	0.147389
C51	C	-0.492286	0.442623	-0.352619
C52	C	0.007714	0.942623	0.147381
C53	C	-0.377043	0.448479	-0.447420
C54	C	0.122957	0.948479	0.052580
C55	C	-0.377032	0.530459	-0.447412
C56	C	0.122968	1.030459	0.052588
C57	C	-0.434650	0.568520	-0.400006
C58	C	0.065350	1.068520	0.099994
C59	C	-0.669027	1.100726	-0.411730
C60	C	-0.169027	1.600726	0.088270
C61	C	-0.769302	1.095731	-0.416778
C62	C	-0.269302	1.595731	0.083222
C63	C	-0.957712	1.186825	-0.325952
C64	C	-0.457712	1.686825	0.174048
C65	C	-1.051929	1.182135	-0.330692
C66	C	-0.551929	1.682135	0.169308
C67	C	-1.051953	1.081665	-0.431001
C68	C	-0.551953	1.581665	0.068999
C69	C	-0.957736	1.086355	-0.426261
C70	C	-0.457736	1.586355	0.073739
C71	C	-0.910619	1.138936	-0.373734
C72	C	-0.410619	1.638936	0.126266
C73	C	-0.816401	1.143622	-0.368991
C74	C	-0.316401	1.643622	0.131009
C75	C	-0.816427	1.043156	-0.469303
C76	C	-0.316427	1.543156	0.030697
C77	C	-0.910644	1.038466	-0.474043
C78	C	-0.410644	1.538466	0.025957
C79	C	-0.199327	1.124480	-0.388228
C80	C	0.300673	1.624480	0.111772
C81	C	-0.099052	1.129555	-0.383214
C82	C	0.400948	1.629555	0.116786
C83	C	-0.434568	1.112620	-0.604734
C84	C	0.065432	1.612620	-0.104734
C85	C	-0.434540	1.112642	-0.691983
C86	C	0.065460	1.612642	-0.191983
C87	C	-0.434661	1.317312	-0.400013
C88	C	0.065339	1.817312	0.099987
C89	C	-0.434672	1.404561	-0.400021
C90	C	0.065328	1.904561	0.099979
C91	C	-0.376841	1.165770	-0.730094
C92	C	0.123159	1.665770	-0.230094
C93	C	-0.376811	1.165781	-0.812073
C94	C	0.123189	1.665781	-0.312073
C95	C	-0.434485	1.112667	-0.855940
C96	C	0.065515	1.612667	-0.355940
C97	C	-0.492186	1.059533	-0.817823
C98	C	0.007814	1.559533	-0.317823
C99	C	-0.492211	1.059519	-0.735845
C100	C	0.007789	1.559519	-0.235845
C101	C	-0.492132	1.059567	-0.988691
C102	C	0.007868	1.559567	-0.488691
C103	C	-0.492109	1.059582	-1.070674
C104	C	0.007891	1.559582	-0.570674
C105	C	-0.376732	1.165829	-1.064918
C106	C	0.123268	1.665829	-0.564918
C107	C	-0.376757	1.165815	-0.982940
C108	C	0.123243	1.665815	-0.482940
C109	C	-0.434460	1.112682	-0.944829
C110	C	0.065540	1.612682	-0.444829
C111	C	-0.434636	1.112567	-0.196046
C112	C	0.065364	1.612567	0.303954
C113	C	-0.434410	1.112710	-0.108785
C114	C	0.065590	1.612710	0.391215
H115	H	-0.330127	0.417486	-0.486018
H116	H	0.169873	0.917486	0.013982
H117	H	-0.539168	0.659714	-0.313997
H118	H	-0.039168	1.159714	0.186003
H119	H	-0.919348	1.229633	-0.283177
H120	H	-0.419348	1.729633	0.216823
C121	C	-0.313634	0.659466	-0.499540
C122	C	0.186366	1.159466	0.000460
N123	N	-0.265896	0.627935	-0.538821
N124	N	0.234104	1.127935	-0.038821
C125	C	-0.555624	0.819325	-0.300439
C126	C	-0.055624	1.319325	0.199561
N127	N	-0.603364	0.850858	-0.261161
N128	N	-0.103364	1.350858	0.238839
H129	H	-0.330083	0.819063	-0.485984
H130	H	0.169917	1.319063	0.014016
H131	H	-0.329879	1.209024	-0.694383
H132	H	0.170121	1.709024	-0.194383
H133	H	-1.090268	1.221132	-0.291785
H134	H	-0.590268	1.721132	0.208215
C135	C	-0.555620	1.001099	-0.866079
C136	C	-0.055620	1.501099	-0.366079
N137	N	-0.603399	0.957086	-0.902425
N138	N	-0.103399	1.457086	-0.402425
C139	C	-0.764618	0.990475	-0.521866
C140	C	-0.264618	1.490475	-0.021866
N141	N	-0.725594	0.950795	-0.561455
N142	N	-0.225594	1.450795	-0.061455
H143	H	-0.539186	1.016249	-0.704816
H144	H	-0.039186	1.516249	-0.204816
C145	C	-0.764573	1.201462	-0.311211
C146	C	-0.264573	1.701462	0.188789
N147	N	-0.725539	1.245030	-0.267691
N148	N	-0.225539	1.745030	0.232309
H149	H	-0.330114	0.566215	-0.486010
H150	H	0.169886	1.066215	0.013990
H151	H	-0.539210	0.406866	-0.314027
H152	H	-0.039210	0.906866	0.185973
C153	C	-0.313339	1.224227	-0.853991
C154	C	0.186661	1.724227	-0.353991
N155	N	-0.265529	1.268252	-0.885563
N156	N	0.234471	1.768252	-0.385563
C157	C	-1.103798	1.023829	-0.488774
C158	C	-0.603798	1.523829	0.011226
N159	N	-1.142849	0.980264	-0.532288
N160	N	-0.642849	1.480264	-0.032288
H161	H	-0.949019	0.995658	-0.516811
H162	H	-0.449019	1.495658	-0.016811
C163	C	-0.555660	0.566473	-0.300464
C164	C	-0.055660	1.066473	0.199536
N165	N	-0.603405	0.598006	-0.261191
N166	N	-0.103405	1.098006	0.238809
C167	C	-0.313258	1.224276	-1.106841
C168	C	0.186742	1.724276	-0.606841
N169	N	-0.265453	1.268298	-1.138422
N170	N	0.234547	1.768298	-0.638422
C171	C	-0.555547	1.001149	-1.118926
C172	C	-0.055547	1.501149	-0.618926
N173	N	-0.603329	0.957135	-1.155269
N174	N	-0.103329	1.457135	-0.655269
H175	H	-0.539106	1.016289	-0.957663
H176	H	-0.039106	1.516289	-0.457663
H177	H	-0.329799	1.209069	-0.947226
H178	H	0.170201	1.709069	-0.447226
