data_functionalizedCrystal
_audit_creation_method	'MofGen! by Chris Wilmer'
_symmetry_space_group_name_H-M	'P1'
_symmetry_Int_Tables_number	1
_symmetry_cell_setting	triclinic
loop_
_symmetry_equiv_pos_as_xyz
  x,y,z
_cell_length_a	16.625548
_cell_length_b	16.625545
_cell_length_c	11.169409
_cell_angle_alpha	90.036134
_cell_angle_beta	90.023153
_cell_angle_gamma	90.026626
loop_
_atom_site_label
_atom_site_type_symbol
_atom_site_fract_x
_atom_site_fract_y
_atom_site_fract_z
Zn1	Zn	1.232684	-0.320913	0.678618
Zn2	Zn	1.482684	-0.070913	0.928618
Zn3	Zn	1.732684	0.179087	1.178618
Zn4	Zn	1.982684	0.429087	1.428618
Zn5	Zn	1.232574	-0.455775	0.477921
Zn6	Zn	1.482574	-0.205775	0.727921
Zn7	Zn	1.732574	0.044225	0.977921
Zn8	Zn	1.982574	0.294225	1.227921
Zn9	Zn	1.097839	-0.320963	0.477940
Zn10	Zn	1.347839	-0.070963	0.727940
Zn11	Zn	1.597839	0.179037	0.977940
Zn12	Zn	1.847839	0.429037	1.227940
Zn13	Zn	1.097809	-0.455710	0.678554
Zn14	Zn	1.347809	-0.205710	0.928554
Zn15	Zn	1.597809	0.044290	1.178554
Zn16	Zn	1.847809	0.294290	1.428554
O17	O	1.165226	-0.388340	0.578258
O18	O	1.415226	-0.138340	0.828258
O19	O	1.665226	0.111660	1.078258
O20	O	1.915226	0.361660	1.328258
O21	O	1.345502	-0.338810	0.652013
O22	O	1.595502	-0.088810	0.902013
O23	O	1.845502	0.161190	1.152013
O24	O	2.095502	0.411190	1.402013
O25	O	1.214668	-0.437940	0.309974
O26	O	1.464668	-0.187940	0.559974
O27	O	1.714668	0.062060	0.809974
O28	O	1.964668	0.312060	1.059974
O29	O	1.115786	-0.208124	0.504595
O30	O	1.365786	0.041876	0.754595
O31	O	1.615786	0.291876	1.004595
O32	O	1.865786	0.541876	1.254595
O33	O	1.345421	-0.437892	0.504562
O34	O	1.595421	-0.187892	0.754562
O35	O	1.845421	0.062108	1.004562
O36	O	2.095421	0.312108	1.254562
O37	O	1.214855	-0.208087	0.652032
O38	O	1.464855	0.041913	0.902032
O39	O	1.714855	0.291913	1.152032
O40	O	1.964855	0.541913	1.402032
O41	O	1.115679	-0.338894	0.309988
O42	O	1.365679	-0.088894	0.559988
O43	O	1.615679	0.161106	0.809988
O44	O	1.865679	0.411106	1.059988
O45	O	0.985003	-0.338831	0.504534
O46	O	1.235003	-0.088831	0.754534
O47	O	1.485003	0.161169	1.004534
O48	O	1.735003	0.411169	1.254534
O49	O	1.115733	-0.437781	0.846513
O50	O	1.365733	-0.187781	1.096513
O51	O	1.615733	0.062219	1.346513
O52	O	1.865733	0.312219	1.596513
O53	O	0.984980	-0.437829	0.651924
O54	O	1.234980	-0.187829	0.901924
O55	O	1.484980	0.062171	1.151924
O56	O	1.734980	0.312171	1.401924
O57	O	1.214826	-0.338746	0.846559
O58	O	1.464826	-0.088746	1.096559
O59	O	1.714826	0.161254	1.346559
O60	O	1.964826	0.411254	1.596559
O61	O	1.214638	-0.568599	0.504501
O62	O	1.464638	-0.318599	0.754501
O63	O	1.714638	-0.068599	1.004501
O64	O	1.964638	0.181401	1.254501
O65	O	1.115627	-0.568551	0.651906
O66	O	1.365627	-0.318551	0.901906
O67	O	1.615627	-0.068551	1.151906
O68	O	1.865627	0.181449	1.401906
C69	C	0.955736	-0.388329	0.578225
C70	C	1.205736	-0.138329	0.828225
C71	C	1.455736	0.111671	1.078225
C72	C	1.705736	0.361671	1.328225
C73	C	0.866114	-0.388343	0.578239
C74	C	1.116114	-0.138343	0.828239
C75	C	1.366114	0.111657	1.078239
C76	C	1.616114	0.361657	1.328239
C77	C	0.537939	-0.388349	0.578290
C78	C	0.787939	-0.138349	0.828290
C79	C	1.037939	0.111651	1.078290
C80	C	1.287939	0.361651	1.328290
C81	C	0.629247	-0.388345	0.578272
C82	C	0.879247	-0.138345	0.828272
C83	C	1.129247	0.111655	1.078272
C84	C	1.379247	0.361655	1.328272
C85	C	0.702024	-0.388346	0.578264
C86	C	0.952024	-0.138346	0.828264
C87	C	1.202024	0.111654	1.078264
C88	C	1.452024	0.361654	1.328264
C89	C	0.793338	-0.388342	0.578247
C90	C	1.043338	-0.138342	0.828247
C91	C	1.293338	0.111658	1.078247
C92	C	1.543338	0.361658	1.328247
C93	C	1.165139	-0.597831	0.578221
C94	C	1.415139	-0.347831	0.828221
C95	C	1.665139	-0.097831	1.078221
C96	C	1.915139	0.152169	1.328221
C97	C	1.165175	-0.687452	0.578245
C98	C	1.415175	-0.437452	0.828245
C99	C	1.665175	-0.187452	1.078245
C100	C	1.915175	0.062548	1.328245
C101	C	1.165206	-0.760235	0.578268
C102	C	1.415206	-0.510235	0.828268
C103	C	1.665206	-0.260235	1.078268
C104	C	1.915206	-0.010235	1.328268
C105	C	1.165253	-0.851543	0.578295
C106	C	1.415253	-0.601543	0.828295
C107	C	1.665253	-0.351543	1.078295
C108	C	1.915253	-0.101543	1.328295
C109	C	1.165295	-0.924320	0.578310
C110	C	1.415295	-0.674320	0.828310
C111	C	1.665295	-0.424320	1.078310
C112	C	1.915295	-0.174320	1.328310
C113	C	1.165341	-1.015634	0.578335
C114	C	1.415341	-0.765634	0.828335
C115	C	1.665341	-0.515634	1.078335
C116	C	1.915341	-0.265634	1.328335
C117	C	1.375535	-0.388353	0.578293
C118	C	1.625535	-0.138353	0.828293
C119	C	1.875535	0.111647	1.078293
C120	C	2.125535	0.361647	1.328293
C121	C	1.465156	-0.388358	0.578307
C122	C	1.715156	-0.138358	0.828307
C123	C	1.965156	0.111642	1.078307
C124	C	2.215156	0.361642	1.328307
C125	C	1.165288	-0.388251	0.891301
C126	C	1.415288	-0.138251	1.141301
C127	C	1.665288	0.111749	1.391301
C128	C	1.915288	0.361749	1.641301
C129	C	1.165315	-0.388213	1.024701
C130	C	1.415315	-0.138213	1.274701
C131	C	1.665315	0.111787	1.524701
C132	C	1.915315	0.361787	1.774701
C133	C	1.165336	-0.178032	0.578323
C134	C	1.415336	0.071968	0.828323
C135	C	1.665336	0.321968	1.078323
C136	C	1.915336	0.571968	1.328323
C137	C	1.165383	-0.088410	0.578350
C138	C	1.415383	0.161590	0.828350
C139	C	1.665383	0.411590	1.078350
C140	C	1.915383	0.661590	1.328350
C141	C	1.165211	-0.388371	0.266434
C142	C	1.415211	-0.138371	0.516434
C143	C	1.665211	0.111629	0.766434
C144	C	1.915211	0.361629	1.016434
C145	C	1.165341	-0.388182	0.133034
C146	C	1.415341	-0.138182	0.383034
C147	C	1.665341	0.111818	0.633034
C148	C	1.915341	0.361818	0.883034
