data_functionalizedCrystal
_audit_creation_method	'MofGen! by Chris Wilmer'
_symmetry_space_group_name_H-M	'P1'
_symmetry_Int_Tables_number	1
_symmetry_cell_setting	triclinic
loop_
_symmetry_equiv_pos_as_xyz
  x,y,z
_cell_length_a	18.050591
_cell_length_b	19.805405
_cell_length_c	19.805399
_cell_angle_alpha	90.029301
_cell_angle_beta	89.975361
_cell_angle_gamma	89.977584
loop_
_atom_site_label
_atom_site_type_symbol
_atom_site_fract_x
_atom_site_fract_y
_atom_site_fract_z
Zn1	Zn	1.135329	0.269551	-0.382803
Zn2	Zn	1.135236	0.382739	-0.269611
Zn3	Zn	1.011140	0.269562	-0.269618
Zn4	Zn	1.011100	0.382695	-0.382748
O5	O	1.073201	0.326137	-0.326195
O6	O	1.239241	0.284579	-0.367808
O7	O	1.118752	0.367749	-0.174896
O8	O	1.027670	0.174844	-0.284657
O9	O	1.239173	0.367738	-0.284647
O10	O	1.118911	0.174836	-0.367814
O11	O	1.027579	0.284598	-0.174900
O12	O	0.907210	0.284555	-0.284604
O13	O	1.027602	0.367664	-0.477472
O14	O	0.907181	0.367674	-0.367721
O15	O	1.118872	0.284537	-0.477512
O16	O	1.118713	0.477450	-0.284594
O17	O	1.027511	0.477418	-0.367715
C18	C	1.073118	0.501993	-0.326162
C19	C	1.073150	0.577225	-0.326171
C20	C	0.880249	0.326112	-0.326158
C21	C	0.797703	0.326117	-0.326158
C22	C	1.073243	0.326094	-0.502738
C23	C	1.073261	0.326076	-0.577970
C24	C	0.598247	0.280865	-0.281063
C25	C	0.548828	0.342600	-0.264403
C26	C	0.646573	0.326138	-0.326188
C27	C	0.548910	0.264424	-0.342846
C28	C	0.500588	0.326152	-0.326216
C29	C	0.598242	0.387906	-0.309496
C30	C	0.598327	0.309687	-0.387968
C31	C	0.548931	0.371466	-0.371332
C32	C	0.730671	0.326129	-0.326170
C33	C	0.416491	0.326168	-0.326235
C34	C	1.266907	0.326163	-0.326233
C35	C	1.349453	0.326174	-0.326249
C36	C	1.073305	0.149594	-0.326243
C37	C	1.073350	0.074362	-0.326263
C38	C	1.120685	0.612563	-0.282935
C39	C	1.120716	0.683252	-0.282950
C40	C	1.073209	0.718600	-0.326198
C41	C	1.025672	0.683257	-0.369438
C42	C	1.025645	0.612570	-0.369426
C43	C	1.025781	0.968330	-0.369489
C44	C	1.025811	1.039022	-0.369496
C45	C	1.120853	1.039012	-0.283012
C46	C	1.120826	0.968325	-0.283000
C47	C	1.073292	0.932988	-0.326243
C48	C	1.073259	0.856339	-0.326227
C49	C	1.073237	0.795248	-0.326211
C50	C	1.120786	0.282790	-0.613336
C51	C	1.120794	0.282770	-0.684025
C52	C	1.073279	0.326041	-0.719345
C53	C	1.025748	0.369329	-0.683974
C54	C	1.025738	0.369345	-0.613287
C55	C	1.025790	0.369266	-0.969048
C56	C	1.025806	0.369248	-1.039740
C57	C	1.120847	0.282691	-1.039785
C58	C	1.120836	0.282707	-0.969098
C59	C	1.073303	0.325992	-0.933733
C60	C	1.073294	0.326012	-0.857085
C61	C	1.073291	0.326025	-0.795993
C62	C	1.073203	0.326130	-0.150339
C63	C	1.073329	0.325958	-0.075107
H64	H	0.619901	0.242620	-0.242861
H65	H	0.986993	0.712044	-0.404655
H66	H	0.527414	0.409802	-0.409505
H67	H	0.987058	0.404558	-0.712738
C68	C	1.172283	0.929912	-0.235961
C69	C	1.130246	0.889401	-0.192520
C70	C	1.177625	0.854014	-0.149174
H71	H	1.204628	0.902243	-0.261801
H72	H	1.200586	0.961062	-0.210174
H73	H	1.101956	0.858255	-0.218304
H74	H	1.097904	0.917054	-0.166666
H75	H	1.205928	0.885165	-0.123387
H76	H	1.209967	0.826349	-0.175019
H77	H	1.149110	0.826529	-0.119690
C78	C	0.627495	0.291141	-0.457555
C79	C	0.705050	0.292004	-0.456747
C80	C	0.731947	0.274922	-0.520839
H81	H	0.610715	0.247251	-0.469382
H82	H	0.609919	0.322870	-0.489753
H83	H	0.722618	0.260277	-0.424559
H84	H	0.721849	0.335888	-0.444931
H85	H	0.714371	0.306650	-0.553037
H86	H	0.715162	0.231032	-0.532661
H87	H	0.784570	0.275511	-0.520301
H88	H	0.987076	0.939564	-0.404697
H89	H	1.159496	0.247524	-0.712817
H90	H	1.159560	1.067792	-0.247804
H91	H	0.619821	0.440118	-0.295361
H92	H	0.986938	0.583798	-0.404634
H93	H	1.159481	0.247556	-0.584583
H94	H	1.159530	0.247474	-0.940343
C95	C	0.520117	0.194767	-0.361530
C96	C	0.545121	0.147571	-0.314111
C97	C	0.518623	0.083394	-0.331299
H98	H	0.467497	0.195281	-0.361798
H99	H	0.537815	0.182728	-0.405087
H100	H	0.527419	0.159607	-0.270565
H101	H	0.597738	0.147036	-0.313836
H102	H	0.536321	0.071356	-0.374857
H103	H	0.466003	0.083916	-0.331567
H104	H	0.535589	0.051364	-0.299132
C105	C	1.172368	0.235713	-1.078305
C106	C	1.162195	0.244941	-1.147770
C107	C	1.209636	0.201673	-1.183273
H108	H	1.222289	0.245586	-1.066813
H109	H	1.161517	0.190222	-1.066766
H110	H	1.173051	0.290421	-1.159304
H111	H	1.112284	0.235063	-1.159282
H112	H	1.198785	0.156182	-1.171734
H113	H	1.259554	0.211550	-1.171776
H114	H	1.202736	0.207924	-1.230408
H115	H	0.987111	0.404486	-1.068496
H116	H	0.527087	0.356525	-0.212170
C117	C	1.172346	0.574310	-0.235951
C118	C	1.213995	0.620391	-0.198104
C119	C	1.261601	0.585180	-0.154822
H120	H	1.144028	0.546773	-0.206368
H121	H	1.204717	0.546709	-0.261853
H122	H	1.181628	0.647981	-0.172204
H123	H	1.242327	0.647930	-0.227669
H124	H	1.293972	0.557579	-0.180723
H125	H	1.233278	0.557643	-0.125243
H126	H	1.289871	0.616440	-0.129141
C127	C	0.974204	1.077281	-0.416532
C128	C	0.932585	1.031205	-0.454415
C129	C	0.885048	1.066424	-0.497755
H130	H	0.941806	1.104897	-0.390692
H131	H	1.002594	1.104803	-0.446086
H132	H	0.904198	1.003695	-0.424865
H133	H	0.964964	1.003587	-0.480269
H134	H	0.913438	1.093946	-0.527308
H135	H	0.852654	1.094039	-0.471909
H136	H	0.856809	1.035167	-0.523467
C137	C	0.974219	0.416192	-0.930535
C138	C	0.984359	0.406936	-0.861070
C139	C	0.936857	0.450150	-0.825569
H140	H	0.985018	0.461695	-0.942029
H141	H	0.924313	0.406272	-0.942073
H142	H	1.034254	0.416861	-0.849537
H143	H	0.973554	0.361442	-0.849556
H144	H	0.886950	0.440229	-0.837106
H145	H	0.947660	0.495650	-0.837068
H146	H	0.943725	0.443871	-0.778433
H147	H	1.159423	0.712021	-0.247743
H148	H	0.987030	0.404586	-0.584493
