data_functionalizedCrystal
_audit_creation_method	'MofGen! by Chris Wilmer'
_symmetry_space_group_name_H-M	'P1'
_symmetry_Int_Tables_number	1
_symmetry_cell_setting	triclinic
loop_
_symmetry_equiv_pos_as_xyz
  x,y,z
_cell_length_a	12.784890
_cell_length_b	12.837942
_cell_length_c	11.295483
_cell_angle_alpha	85.469583
_cell_angle_beta	86.328828
_cell_angle_gamma	96.032251
loop_
_atom_site_label
_atom_site_type_symbol
_atom_site_fract_x
_atom_site_fract_y
_atom_site_fract_z
O1	O	1.417361	0.001128	-0.098988
O2	O	1.112362	-0.042865	-0.098998
O3	O	1.258098	0.129424	-0.098986
O4	O	1.271625	-0.171161	-0.099000
O5	O	1.245295	0.114313	0.099064
O6	O	1.099559	-0.057977	0.099051
O7	O	1.404558	-0.013983	0.099062
Cu8	Cu	1.250890	-0.037360	0.117140
Cu9	Cu	1.266030	-0.019489	-0.117077
O10	O	1.258822	-0.186273	0.099049
C11	C	1.066651	-0.053282	0.000025
C12	C	0.949519	-0.061796	0.000022
C13	C	0.781351	-0.168496	0.000015
C14	C	0.891406	-0.160503	0.000015
C15	C	0.897570	0.028926	0.000024
C16	C	0.787515	0.020933	0.000024
C17	C	0.729409	-0.077781	0.000021
C18	C	0.619351	-0.085774	0.000029
C19	C	0.625518	0.103655	0.000029
C20	C	0.735573	0.111648	0.000029
C21	C	1.247127	0.160077	0.000038
C22	C	1.233500	0.273926	0.000036
C23	C	1.450270	-0.003566	0.000035
C24	C	1.567402	0.004948	0.000031
C25	C	1.269793	-0.216925	0.000023
C26	C	1.283421	-0.330774	0.000017
N27	N	1.240249	-0.049928	0.281875
C28	C	1.397333	0.529654	0.000016
C29	C	1.384533	0.636626	0.000014
C30	C	1.195103	0.594845	0.000020
C31	C	1.207902	0.487873	0.000022
C32	C	1.309020	0.455282	0.000022
C33	C	1.321818	0.348307	0.000033
C34	C	1.132389	0.306529	0.000031
C35	C	1.119590	0.413501	0.000028
N36	N	1.276679	-0.006912	-0.281812
C37	C	1.353276	0.083617	0.531174
C38	C	1.345242	0.074113	0.655837
C39	C	1.216143	-0.078436	0.655867
C40	C	1.224177	-0.068931	0.531204
C41	C	1.292746	0.012097	0.468862
C42	C	1.300785	0.021596	0.344197
C43	C	1.171681	-0.130947	0.344228
C44	C	1.163647	-0.140451	0.468891
H45	H	0.572042	-0.166153	0.000033
H46	H	1.107816	-0.206421	0.519664
Cl47	Cl	1.439487	0.185468	0.452800
Cl48	Cl	0.708298	-0.292591	0.000033
H49	H	0.944900	0.109295	0.000017
Cl50	Cl	0.956701	-0.274549	0.000004
H51	H	1.456447	0.697179	0.000005
Cl52	Cl	1.386988	0.123456	0.265826
H53	H	1.394530	0.132352	0.706569
H54	H	0.583221	0.177529	-0.000061
H55	H	1.160308	-0.144400	0.706642
Cl56	Cl	1.095591	-0.220867	0.265881
H57	H	1.404154	0.321774	0.000037
Cl58	Cl	0.808630	0.235738	0.000034
Cl59	Cl	1.524447	0.488676	0.000046
Cl60	Cl	0.992477	0.454485	0.000018
Cl61	Cl	1.067996	0.635840	-0.000016
Cl62	Cl	1.021360	0.213023	0.000053
