data_functionalizedCrystal
_audit_creation_method	'MofGen! by Chris Wilmer'
_symmetry_space_group_name_H-M	'P1'
_symmetry_Int_Tables_number	1
_symmetry_cell_setting	triclinic
loop_
_symmetry_equiv_pos_as_xyz
  x,y,z
_cell_length_a	19.288867
_cell_length_b	10.489716
_cell_length_c	17.766277
_cell_angle_alpha	89.997726
_cell_angle_beta	89.992126
_cell_angle_gamma	83.833102
loop_
_atom_site_label
_atom_site_type_symbol
_atom_site_fract_x
_atom_site_fract_y
_atom_site_fract_z
O1	O	0.922412	0.159124	-0.062561
O2	O	0.720294	0.180585	-0.062568
O3	O	0.825961	-0.015849	-0.062567
O4	O	0.816745	0.355559	-0.062562
O5	O	0.825942	-0.015859	0.062621
O6	O	0.720275	0.180575	0.062621
O7	O	0.922393	0.159114	0.062627
Cu8	Cu	0.821332	0.169844	0.074055
Cu9	Cu	0.821354	0.169855	-0.073995
O10	O	0.816726	0.355549	0.062627
C11	C	0.694404	0.179889	0.000026
C12	C	0.617286	0.177815	0.000023
C13	C	0.061632	0.162880	-0.068209
C14	C	0.134092	0.164821	-0.068212
C15	C	0.170317	0.165792	0.000028
C16	C	0.134078	0.164789	0.068276
C17	C	0.061619	0.162835	0.068277
C18	C	0.280154	0.243587	0.052310
C19	C	0.352611	0.245549	0.052307
C20	C	0.393803	0.171814	0.000029
C21	C	0.362528	0.096133	-0.052258
C22	C	0.290070	0.094179	-0.052257
C23	C	0.248886	0.167911	0.000035
C24	C	0.508604	0.174913	-0.068218
C25	C	0.581066	0.176846	-0.068218
C26	C	0.581049	0.176827	0.068272
C27	C	0.508589	0.174881	0.068270
C28	C	0.472371	0.173930	0.000023
C29	C	0.825259	-0.063371	0.000025
C30	C	0.823187	-0.204955	0.000018
C31	C	0.887985	-0.304093	0.000027
C32	C	0.853754	-0.380675	-0.061697
C33	C	0.853720	-0.380649	0.061729
C34	C	0.788983	-0.279672	-0.061757
C35	C	0.788959	-0.279640	0.061725
C36	C	0.754680	-0.356172	-0.000014
C37	C	0.948283	0.159810	0.000032
C38	C	1.025400	0.161884	0.000030
C39	C	0.817428	0.403070	0.000033
C40	C	0.819499	0.544654	0.000035
N41	N	0.821322	0.169835	0.178185
N42	N	0.821370	0.169854	-0.178126
C43	C	0.868126	0.082896	0.217572
C44	C	0.868130	0.082890	0.296374
C45	C	0.821336	0.169845	0.335786
C46	C	0.774523	0.256790	0.296389
C47	C	0.774515	0.256785	0.217589
C48	C	0.812811	0.286059	0.460625
C49	C	0.812824	0.286066	0.539424
C50	C	0.821355	0.169860	0.578832
C51	C	0.829889	0.053643	0.539432
C52	C	0.829882	0.053638	0.460631
C53	C	0.821339	0.169859	0.421231
C54	C	0.868167	0.082908	0.703665
C55	C	0.868166	0.082900	0.782468
C56	C	0.774562	0.256811	0.782482
C57	C	0.774559	0.256808	0.703680
C58	C	0.821365	0.169857	0.664276
H59	H	0.163577	0.165578	0.123838
C60	C	0.839268	-0.074190	0.582769
H61	H	0.838041	-0.057548	0.635343
H62	H	0.882846	-0.119884	0.569850
H63	H	0.802692	-0.123993	0.569862
H64	H	0.761652	-0.235746	-0.113997
H65	H	0.906237	0.012093	0.185492
H66	H	0.944349	-0.280691	-0.000034
H67	H	0.805852	0.380693	0.428545
H68	H	0.736458	0.327607	0.814570
C69	C	0.723081	0.352456	0.660352
H70	H	0.695216	0.404251	0.695108
H71	H	0.693941	0.306710	0.629620
H72	H	0.748330	0.405436	0.629605
H73	H	0.032120	0.162029	0.123847
H74	H	0.881115	-0.424784	-0.113879
H75	H	0.761621	-0.235509	0.113909
H76	H	0.610565	0.177647	-0.123789
H77	H	0.906277	0.012103	0.671581
H78	H	0.698274	-0.379328	-0.000049
C79	C	0.919655	-0.012735	0.825795
H80	H	0.947532	-0.064507	0.791038
H81	H	0.894417	-0.065721	0.856543
H82	H	0.948793	0.033031	0.856524
C83	C	0.890674	-0.440204	0.132226
H84	H	0.937999	-0.422770	0.132145
H85	H	0.888708	-0.530301	0.131970
H86	H	0.868123	-0.404255	0.176057
H87	H	0.906246	0.012091	0.328449
H88	H	0.836828	-0.040990	0.428555
H89	H	0.805879	0.380696	0.571498
H90	H	0.736421	0.327588	0.328482
C91	C	0.723033	0.352431	0.174261
H92	H	0.695166	0.404224	0.209016
H93	H	0.693895	0.306685	0.143526
H94	H	0.748283	0.405413	0.143517
H95	H	0.032147	0.162100	-0.123781
H96	H	0.163597	0.165639	-0.123782
C97	C	0.407829	0.015020	-0.109768
H98	H	0.455463	0.027009	-0.102277
H99	H	0.394220	0.040976	-0.159307
H100	H	0.401763	-0.072972	-0.103187
H101	H	0.479113	0.174134	-0.123789
C102	C	0.255671	0.010923	-0.109760
H103	H	0.290576	-0.032722	-0.140894
H104	H	0.223835	0.064020	-0.139992
H105	H	0.231388	-0.049917	-0.083864
C106	C	0.468732	0.173807	0.143334
H107	H	0.500681	0.174674	0.183976
H108	H	0.445392	0.098685	0.146171
H109	H	0.435538	0.247418	0.146171
C110	C	0.620888	0.177894	0.143335
H111	H	0.669231	0.179207	0.133562
H112	H	0.613938	0.103210	0.171373
H113	H	0.604081	0.251943	0.171375
H114	H	0.246622	0.303626	0.094890
C115	C	0.387010	0.328795	0.109815
H116	H	0.436061	0.319413	0.102322
H117	H	0.376873	0.302196	0.159355
H118	H	0.369321	0.416147	0.103237
