data_functionalizedCrystal
_audit_creation_method	'MofGen! by Chris Wilmer'
_symmetry_space_group_name_H-M	'P1'
_symmetry_Int_Tables_number	1
_symmetry_cell_setting	triclinic
loop_
_symmetry_equiv_pos_as_xyz
  x,y,z
_cell_length_a	14.971486
_cell_length_b	9.016244
_cell_length_c	14.971486
_cell_angle_alpha	90.006980
_cell_angle_beta	83.614129
_cell_angle_gamma	89.997425
loop_
_atom_site_label
_atom_site_type_symbol
_atom_site_fract_x
_atom_site_fract_y
_atom_site_fract_z
O1	O	1.186942	0.123170	0.116566
O2	O	0.926541	0.123211	0.130524
O3	O	1.063721	0.123179	-0.006655
O4	O	1.049762	0.123202	0.253745
O5	O	1.063715	-0.123502	-0.006665
O6	O	0.926536	-0.123470	0.130514
O7	O	1.186936	-0.123510	0.116555
Cu8	Cu	1.056735	-0.146014	0.123534
Cu9	Cu	1.056742	0.145715	0.123546
O10	O	1.049756	-0.123478	0.253735
C11	C	0.893214	-0.000124	0.129895
C12	C	0.793917	-0.000109	0.128024
C13	C	0.736692	-0.000104	0.208614
C14	C	0.643392	-0.000126	0.206850
C15	C	0.607320	-0.000143	0.124497
C16	C	0.664552	-0.000153	0.043902
C17	C	0.757850	-0.000141	0.045666
C18	C	0.470090	-0.000173	0.040231
C19	C	0.376786	-0.000182	0.038466
C20	C	0.355632	-0.000159	0.201415
C21	C	0.448930	-0.000147	0.203179
C22	C	0.506156	-0.000154	0.122584
N23	N	1.056737	-0.351200	0.123525
C24	C	1.130389	-0.586204	0.050392
C25	C	1.130194	-0.414313	0.050117
C26	C	0.963397	-0.413613	0.103041
C27	C	0.963835	-0.585557	0.102528
C28	C	1.075604	-0.585699	0.217401
C29	C	1.077720	-0.413744	0.216770
C30	C	1.220263	-0.000172	0.117185
C31	C	1.319561	-0.000177	0.119056
C32	C	1.063094	-0.000161	-0.039985
C33	C	1.061223	-0.000159	-0.139282
N34	N	1.056747	0.350901	0.123548
C35	C	1.141812	-0.000173	-0.196507
C36	C	1.140049	-0.000158	-0.289807
C37	C	1.057696	-0.000139	-0.325879
C38	C	0.977101	-0.000121	-0.268646
C39	C	0.978865	-0.000126	-0.175349
C40	C	0.973430	-0.000115	-0.463109
C41	C	0.971665	-0.000114	-0.556413
C42	C	1.134614	-0.000147	-0.577567
C43	C	1.136378	-0.000152	-0.484269
C44	C	1.055782	-0.000136	-0.427043
C45	C	1.050384	-0.000135	0.287065
C46	C	1.052254	-0.000127	0.386362
H47	H	1.199575	-0.372114	0.062329
O48	O	1.221546	-0.000171	-0.639282
H49	H	1.260965	0.100350	-0.626432
H50	H	0.766054	-0.000089	0.275675
O51	O	1.230640	-0.000176	-0.157607
H52	H	1.269374	-0.100713	-0.180602
H53	H	1.203437	-0.000177	-0.454903
O54	O	0.625648	-0.000186	-0.044923
H55	H	0.648627	0.100345	-0.083656
H56	H	0.913240	-0.000115	-0.128756
O57	O	0.882844	-0.000069	-0.595326
H58	H	0.827097	-0.000031	-0.539861
O59	O	0.886501	-0.000102	-0.401385
H60	H	0.883414	-0.100644	-0.358379
O61	O	0.888277	-0.000098	-0.307554
H62	H	0.832534	-0.000075	-0.252084
O63	O	0.531816	-0.000193	-0.046696
H64	H	0.574828	0.100347	-0.049783
O65	O	0.293913	-0.000160	0.288345
H66	H	0.306764	-0.100687	0.327751
O67	O	0.581667	-0.000122	0.293771
H68	H	0.622424	-0.000090	0.351332
H69	H	0.347419	-0.000198	-0.028593
O70	O	0.487843	-0.000148	0.292000
H71	H	0.432377	-0.000167	0.347747
H72	H	0.804443	-0.000144	-0.019958
O73	O	1.168669	-0.359700	0.237367
H74	H	1.213105	-0.456318	0.245103
O75	O	1.222608	-0.640961	0.066303
H76	H	1.216945	-0.713600	0.126518
H77	H	1.118506	-0.629434	-0.018861
O78	O	1.114208	-0.359829	-0.042136
H79	H	1.106577	-0.456294	-0.086724
O80	O	0.941874	-0.638725	0.011851
H81	H	0.931043	-0.541626	-0.031222
O82	O	0.889042	-0.640690	0.170387
H83	H	0.852716	-0.544536	0.203421
H84	H	0.907272	-0.372732	0.154899
O85	O	0.940861	-0.356631	0.013392
H86	H	0.995988	-0.283877	-0.016711
H87	H	1.142219	-0.629061	0.237067
O88	O	1.011273	-0.356876	0.292272
H89	H	0.962034	-0.282822	0.264391
O90	O	1.004482	-0.639584	0.289524
H91	H	0.955932	-0.711173	0.258734
O92	O	1.226969	-0.000170	-0.351532
H93	H	1.230052	-0.100702	-0.394562
