data_functionalizedCrystal
_audit_creation_method	'MofGen! by Chris Wilmer'
_symmetry_space_group_name_H-M	'P1'
_symmetry_Int_Tables_number	1
_symmetry_cell_setting	triclinic
loop_
_symmetry_equiv_pos_as_xyz
  x,y,z
_cell_length_a	14.044220
_cell_length_b	17.699083
_cell_length_c	16.776229
_cell_angle_alpha	89.999799
_cell_angle_beta	90.002022
_cell_angle_gamma	91.764054
loop_
_atom_site_label
_atom_site_type_symbol
_atom_site_fract_x
_atom_site_fract_y
_atom_site_fract_z
O1	O	-1.257290	0.182444	-0.066182
O2	O	-0.757290	0.682444	0.433818
O3	O	-0.981336	0.175860	-0.066203
O4	O	-0.481336	0.675860	0.433797
O5	O	-1.127109	0.069500	-0.066200
O6	O	-0.627109	0.569500	0.433800
O7	O	-1.111516	0.288803	-0.066185
O8	O	-0.611516	0.788803	0.433815
O9	O	-1.127090	0.069492	0.066377
O10	O	-0.627090	0.569492	0.566377
O11	O	-0.981317	0.175852	0.066374
O12	O	-0.481317	0.675852	0.566374
O13	O	-1.257271	0.182435	0.066395
O14	O	-0.757271	0.682435	0.566395
Zn15	Zn	-1.119290	0.179142	0.087433
Zn16	Zn	-0.619290	0.679142	0.587433
Zn17	Zn	-1.119316	0.179153	-0.087242
Zn18	Zn	-0.619316	0.679153	0.412758
O19	O	-1.111497	0.288795	0.066391
O20	O	-0.611497	0.788795	0.566391
C21	C	-0.946018	0.172974	0.000082
C22	C	-0.446018	0.672974	0.500082
C23	C	-0.840812	0.164378	0.000074
C24	C	-0.340812	0.664378	0.500074
C25	C	-1.292588	0.185321	0.000107
C26	C	-0.792588	0.685321	0.500107
C27	C	-1.397794	0.193917	0.000111
C28	C	-0.897794	0.693917	0.500111
C29	C	-1.126541	0.041261	0.000085
C30	C	-0.626541	0.541261	0.500085
C31	C	-1.124865	-0.042873	0.000074
C32	C	-0.624865	0.457127	0.500074
C33	C	-0.648187	0.148663	0.000089
C34	C	-0.148187	0.648663	0.500089
C35	C	-0.590414	0.209629	0.000096
C36	C	-0.090414	0.709629	0.500096
C37	C	-0.483230	0.200885	0.000104
C38	C	0.016770	0.700885	0.500104
C39	C	-0.755381	0.157406	0.000080
C40	C	-0.255381	0.657406	0.500080
N41	N	-1.119280	0.179134	0.206645
N42	N	-0.619280	0.679134	0.706645
C43	C	-1.112066	0.317035	0.000105
C44	C	-0.612066	0.817035	0.500105
C45	C	-1.113742	0.401168	0.000111
C46	C	-0.613742	0.901168	0.500111
C47	C	-1.028176	0.443887	0.000105
C48	C	-0.528176	0.943887	0.500105
C49	C	-1.029756	0.522939	0.000095
C50	C	-0.529756	1.022939	0.500095
C51	C	-1.116904	0.559271	0.000098
C52	C	-0.616904	1.059271	0.500098
C53	C	-1.202476	0.516547	0.000102
C54	C	-0.702476	1.016547	0.500102
C55	C	-1.200895	0.437496	0.000106
C56	C	-0.700895	0.937496	0.500106
C57	C	-1.208857	0.835350	0.000087
C58	C	-0.708857	1.335350	0.500087
C59	C	-1.210432	0.914407	0.000086
C60	C	-0.710432	1.414407	0.500086
C61	C	-1.037718	0.920793	0.000076
C62	C	-0.537718	1.420793	0.500076
C63	C	-1.036137	0.841742	0.000080
C64	C	-0.536137	1.341742	0.500080
C65	C	-1.121709	0.799025	0.000080
C66	C	-0.621709	1.299025	0.500080
C67	C	-1.119994	0.713307	0.000088
C68	C	-0.619994	1.213307	0.500088
C69	C	-1.118620	0.644987	0.000095
C70	C	-0.618620	1.144987	0.500095
N71	N	-1.119334	0.179155	-0.206453
N72	N	-0.619334	0.679155	0.293547
C73	C	-1.183848	0.132061	0.248363
C74	C	-0.683848	0.632061	0.748363
C75	C	-1.183853	0.132061	0.331815
C76	C	-0.683853	0.632061	0.831815
C77	C	-1.119294	0.179138	0.373548
C78	C	-0.619294	0.679138	0.873548
C79	C	-1.054719	0.226214	0.331823
C80	C	-0.554719	0.726214	0.831823
C81	C	-1.054710	0.226210	0.248373
C82	C	-0.554710	0.726210	0.748373
C83	C	-1.054754	0.226231	0.668370
C84	C	-0.554754	0.726231	1.168370
C85	C	-1.054770	0.226233	0.751827
C86	C	-0.554770	0.726233	1.251827
C87	C	-1.183897	0.132082	0.751813
C88	C	-0.683897	0.632082	1.251813
C89	C	-1.183888	0.132078	0.668363
C90	C	-0.683888	0.632078	1.168363
C91	C	-1.119310	0.179150	0.626646
C92	C	-0.619310	0.679150	1.126646
C93	C	-1.119304	0.179149	0.536157
C94	C	-0.619304	0.679149	1.036157
C95	C	-1.119304	0.179144	0.464034
C96	C	-0.619304	0.679144	0.964034
H97	H	-0.621449	0.268391	0.000096
H98	H	-0.121449	0.768391	0.500096
H99	H	-1.273433	0.546135	0.000106
H100	H	-0.773433	1.046135	0.500106
H101	H	-0.617153	0.089906	0.000089
H102	H	-0.117153	0.589906	0.500089
N103	N	-0.937468	0.569015	0.000087
N104	N	-0.437468	1.069015	0.500087
H105	H	-0.882021	0.534003	0.000091
H106	H	-0.382021	1.034003	0.500091
H107	H	-0.934359	0.601957	0.049232
H108	H	-0.434359	1.101957	0.549232
N109	N	-0.942143	0.802555	0.000089
N110	N	-0.442143	1.302555	0.500089
H111	H	-0.888175	0.841613	0.000084
H112	H	-0.388175	1.341613	0.500084
H113	H	-0.937728	0.769891	-0.049056
H114	H	-0.437728	1.269891	0.450944
H115	H	-0.957210	0.414311	0.000111
H116	H	-0.457210	0.914311	0.500111
H117	H	-0.968041	0.955583	0.000073
H118	H	-0.468041	1.455583	0.500073
H119	H	-1.236461	0.093745	0.634387
H120	H	-0.736461	0.593745	1.134387
H121	H	-1.281402	0.943986	0.000087
H122	H	-0.781402	1.443986	0.500087
H123	H	-1.270571	0.402716	0.000108
H124	H	-0.770571	0.902716	0.500108
H125	H	-1.278535	0.800579	0.000092
H126	H	-0.778535	1.300579	0.500092
N127	N	-1.253550	0.081308	0.796808
N128	N	-0.753550	0.581308	1.296808
H129	H	-1.243762	0.088449	0.856006
H130	H	-0.743762	0.588449	1.356006
H131	H	-1.242734	0.026878	0.782223
H132	H	-0.742734	0.526878	1.282223
H133	H	-1.236423	0.093728	0.214390
H134	H	-0.736423	0.593728	0.714390
H135	H	-1.236429	0.093729	0.365782
H136	H	-0.736429	0.593729	0.865782
H137	H	-1.002194	0.264571	0.785804
H138	H	-0.502194	0.764571	1.285804
H139	H	-1.002174	0.264561	0.634411
H140	H	-0.502174	0.764561	1.134411
N141	N	-0.985080	0.276986	0.376830
N142	N	-0.485080	0.776986	0.876830
H143	H	-0.994883	0.269848	0.436026
H144	H	-0.494883	0.769848	0.936026
H145	H	-0.995895	0.331415	0.362238
H146	H	-0.495895	0.831415	0.862238
N147	N	-0.985065	0.276977	0.203372
N148	N	-0.485065	0.776977	0.703372
H149	H	-0.944168	0.306802	0.242470
H150	H	-0.444168	0.806802	0.742470
H151	H	-1.021258	0.312898	0.168739
H152	H	-0.521258	0.812898	0.668739
