data_functionalizedCrystal
_audit_creation_method	'MofGen! by Chris Wilmer'
_symmetry_space_group_name_H-M	'P1'
_symmetry_Int_Tables_number	1
_symmetry_cell_setting	triclinic
loop_
_symmetry_equiv_pos_as_xyz
  x,y,z
_cell_length_a	14.519731
_cell_length_b	19.188924
_cell_length_c	18.266242
_cell_angle_alpha	89.991576
_cell_angle_beta	89.990875
_cell_angle_gamma	83.415409
loop_
_atom_site_label
_atom_site_type_symbol
_atom_site_fract_x
_atom_site_fract_y
_atom_site_fract_z
O1	O	1.223289	0.091595	-0.060886
O2	O	1.556623	0.424929	0.272447
O3	O	1.889956	0.758262	0.605781
O4	O	0.954748	0.102358	-0.060888
O5	O	1.288081	0.435691	0.272446
O6	O	1.621415	0.769025	0.605779
O7	O	1.096771	-0.004651	-0.060878
O8	O	1.430105	0.328682	0.272455
O9	O	1.763438	0.662015	0.605789
O10	O	1.081266	0.198605	-0.060895
O11	O	1.414599	0.531938	0.272438
O12	O	1.747932	0.865271	0.605771
O13	O	1.096747	-0.004657	0.060884
O14	O	1.430081	0.328677	0.394217
O15	O	1.763414	0.662010	0.727551
O16	O	0.954724	0.102352	0.060874
O17	O	1.288057	0.435686	0.394208
O18	O	1.621391	0.769019	0.727541
O19	O	1.223265	0.091590	0.060876
O20	O	1.556599	0.424923	0.394209
O21	O	1.889932	0.758257	0.727543
Zn22	Zn	1.088991	0.096970	0.080208
Zn23	Zn	1.422324	0.430304	0.413541
Zn24	Zn	1.755657	0.763637	0.746874
Zn25	Zn	1.089022	0.096978	-0.080219
Zn26	Zn	1.422356	0.430311	0.253114
Zn27	Zn	1.755689	0.763644	0.586448
O28	O	1.081242	0.198599	0.060867
O29	O	1.414575	0.531932	0.394200
O30	O	1.747908	0.865266	0.727533
C31	C	0.920380	0.101851	-0.000007
C32	C	1.253713	0.435184	0.333327
C33	C	1.587046	0.768518	0.666660
C34	C	0.818009	0.100340	-0.000007
C35	C	1.151342	0.433673	0.333326
C36	C	1.484675	0.767006	0.666660
C37	C	0.734872	0.099112	-0.000010
C38	C	1.068206	0.432445	0.333324
C39	C	1.401539	0.765779	0.666657
C40	C	0.630573	0.097578	-0.000010
C41	C	0.963906	0.430911	0.333323
C42	C	1.297240	0.764244	0.666657
C43	C	0.547442	0.096360	-0.000010
C44	C	0.880775	0.429693	0.333324
C45	C	1.214108	0.763027	0.666657
C46	C	0.443136	0.094826	-0.000011
C47	C	0.776469	0.428159	0.333322
C48	C	1.109803	0.761492	0.666655
C49	C	1.096258	-0.030667	0.000004
C50	C	1.429592	0.302666	0.333337
C51	C	1.762925	0.636000	0.666670
C52	C	1.094754	-0.108177	0.000006
C53	C	1.428088	0.225156	0.333339
C54	C	1.761421	0.558490	0.666672
C55	C	1.094065	-0.144575	-0.066367
C56	C	1.427399	0.188758	0.266966
C57	C	1.760732	0.522091	0.600300
C58	C	1.092639	-0.217403	-0.066373
C59	C	1.425972	0.115930	0.266961
C60	C	1.759306	0.449263	0.600294
C61	C	1.091920	-0.253832	-0.000002
C62	C	1.425253	0.079501	0.333332
C63	C	1.758587	0.412835	0.666665
C64	C	1.092604	-0.217424	0.066380
C65	C	1.425937	0.115909	0.399713
C66	C	1.759271	0.449243	0.733046
C67	C	1.094021	-0.144597	0.066383
C68	C	1.427354	0.188737	0.399717
C69	C	1.760688	0.522070	0.733050
N70	N	1.142165	-0.373315	0.049397
N71	N	1.475499	-0.039982	0.382730
N72	N	1.808832	0.293351	0.716063
N73	N	1.140821	-0.442499	0.049389
N74	N	1.474154	-0.109165	0.382722
N75	N	1.807488	0.224168	0.716055
C76	C	1.087648	-0.473256	-0.000009
C77	C	1.420982	-0.139923	0.333324
C78	C	1.754315	0.193410	0.666658
N79	N	1.035882	-0.432219	-0.049409
N80	N	1.369216	-0.098885	0.283924
N81	N	1.702549	0.234448	0.617257
N82	N	1.037231	-0.363030	-0.049403
N83	N	1.370564	-0.029696	0.283930
N84	N	1.703897	0.303637	0.617263
C85	C	1.090383	-0.332801	0.000002
C86	C	1.423716	0.000532	0.333335
C87	C	1.757049	0.333866	0.666668
C88	C	1.085411	-0.588623	-0.066392
C89	C	1.418745	-0.255290	0.266941
C90	C	1.752078	0.078044	0.600275
C91	C	1.083979	-0.661452	-0.066395
C92	C	1.417313	-0.328118	0.266938
C93	C	1.750646	0.005215	0.600272
C94	C	1.083954	-0.661472	0.066359
C95	C	1.417287	-0.328139	0.399693
C96	C	1.750620	0.005195	0.733026
C97	C	1.085376	-0.588644	0.066360
C98	C	1.418710	-0.255310	0.399693
C99	C	1.752043	0.078023	0.733027
C100	C	1.086110	-0.552224	-0.000018
C101	C	1.419443	-0.218891	0.333316
C102	C	1.752776	0.114443	0.666649
C103	C	1.257634	0.092097	-0.000007
C104	C	1.590967	0.425430	0.333327
C105	C	1.924300	0.758764	0.666660
C106	C	1.360004	0.093608	-0.000011
C107	C	1.693338	0.426941	0.333322
C108	C	2.026671	0.760275	0.666656
C109	C	1.081755	0.224615	-0.000017
C110	C	1.415088	0.557948	0.333317
C111	C	1.748421	0.891281	0.666650
C112	C	1.083259	0.302125	-0.000023
C113	C	1.416592	0.635458	0.333310
C114	C	1.749926	0.968792	0.666643
N115	N	1.088976	0.096965	0.189695
N116	N	1.422309	0.430298	0.523028
N117	N	1.755643	0.763632	0.856361
N118	N	1.089045	0.096978	-0.189706
N119	N	1.422378	0.430311	0.143627
N120	N	1.755711	0.763644	0.476961
C121	C	1.151884	0.049605	0.228008
C122	C	1.485218	0.382938	0.561341
C123	C	1.818551	0.716271	0.894674
C124	C	1.151890	0.049601	0.304652
C125	C	1.485224	0.382935	0.637986
C126	C	1.818557	0.716268	0.971319
C127	C	1.088996	0.096970	0.342981
C128	C	1.422330	0.430304	0.676315
C129	C	1.755663	0.763637	1.009648
C130	C	1.026076	0.144334	0.304659
C131	C	1.359409	0.477668	0.637992
C132	C	1.692743	0.811001	0.971326
C133	C	1.026066	0.144332	0.228016
C134	C	1.359399	0.477665	0.561349
C135	C	1.692733	0.810998	0.894682
N136	N	1.077007	0.158735	0.463308
N137	N	1.410340	0.492068	0.796642
N138	N	1.743674	0.825401	1.129975
N139	N	1.077022	0.158735	0.536117
N140	N	1.410356	0.492069	0.869450
N141	N	1.743689	0.825402	1.202783
C142	C	1.089022	0.096981	0.573904
C143	C	1.422356	0.430314	0.907237
C144	C	1.755689	0.763647	1.240570
N145	N	1.101025	0.035224	0.536132
N146	N	1.434358	0.368557	0.869466
N147	N	1.767691	0.701890	1.202799
N148	N	1.101014	0.035224	0.463318
N149	N	1.434347	0.368557	0.796651
N150	N	1.767681	0.701890	1.129984
C151	C	1.089000	0.096978	0.426088
C152	C	1.422334	0.430312	0.759422
C153	C	1.755667	0.763645	1.092755
C154	C	1.151941	0.049613	0.695324
C155	C	1.485274	0.382946	1.028657
C156	C	1.818607	0.716280	1.361991
C157	C	1.151940	0.049609	0.771970
C158	C	1.485273	0.382942	1.105304
C159	C	1.818607	0.716275	1.438637
C160	C	1.026130	0.144348	0.771976
C161	C	1.359464	0.477681	1.105309
C162	C	1.692797	0.811015	1.438642
C163	C	1.026126	0.144346	0.695331
C164	C	1.359460	0.477679	1.028664
C165	C	1.692793	0.811013	1.361997
C166	C	1.089036	0.096979	0.657010
C167	C	1.422370	0.430313	0.990343
C168	C	1.755703	0.763646	1.323676
H169	H	1.094660	-0.114927	-0.120417
H170	H	1.427993	0.218407	0.212916
H171	H	1.761326	0.551740	0.546250
H172	H	1.086003	-0.558968	-0.120441
H173	H	1.419337	-0.225635	0.212893
H174	H	1.752670	0.107699	0.546226
H175	H	0.974904	0.182914	0.664134
H176	H	1.308237	0.516247	0.997467
H177	H	1.641571	0.849581	1.330801
O178	O	1.219724	-0.001493	0.186678
O179	O	1.553057	0.331841	0.520012
O180	O	1.886391	0.665174	0.853345
H181	H	1.291577	0.007526	0.201375
H182	H	1.624910	0.340859	0.534709
H183	H	1.958244	0.674192	0.868042
H184	H	1.083414	-0.691086	-0.120446
H185	H	1.416747	-0.357752	0.212888
H186	H	1.750080	-0.024419	0.546221
O187	O	1.086143	-0.549380	0.137948
O188	O	1.419476	-0.216047	0.471281
O189	O	1.752809	0.117286	0.804615
H190	H	1.085414	-0.586945	0.184100
H191	H	1.418748	-0.253612	0.517434
H192	H	1.752081	0.079722	0.850767
O193	O	1.083185	-0.700751	0.137949
O194	O	1.416518	-0.367418	0.471282
O195	O	1.749852	-0.034085	0.804615
H196	H	1.082091	-0.757509	0.126797
H197	H	1.415424	-0.424176	0.460130
H198	H	1.748757	-0.090843	0.793463
H199	H	0.974865	0.182902	0.335870
H200	H	1.308199	0.516235	0.669204
H201	H	1.641532	0.849569	1.002537
H202	H	1.203120	0.011033	0.335853
H203	H	1.536453	0.344367	0.669186
H204	H	1.869786	0.677700	1.002519
O205	O	1.091898	-0.256676	-0.137962
O206	O	1.425231	0.076657	0.195371
O207	O	1.758565	0.409991	0.528704
H208	H	1.092650	-0.219116	-0.184117
H209	H	1.425983	0.114217	0.149216
H210	H	1.759317	0.447551	0.482550
O211	O	1.094776	-0.105340	0.137978
O212	O	1.428110	0.227994	0.471311
O213	O	1.761443	0.561327	0.804644
H214	H	1.032580	-0.066018	0.141159
H215	H	1.365913	0.267315	0.474493
H216	H	1.699246	0.600648	0.807826
H217	H	1.092016	-0.247089	0.120419
H218	H	1.425349	0.086245	0.453752
H219	H	1.758682	0.419578	0.787086
O220	O	0.958219	0.195420	0.186685
O221	O	1.291553	0.528753	0.520018
O222	O	1.624886	0.862087	0.853351
H223	H	0.914487	0.228362	0.226210
H224	H	1.247820	0.561696	0.559543
H225	H	1.581154	0.895029	0.892877
O226	O	1.219777	-0.001480	0.653983
O227	O	1.553110	0.331853	0.987316
O228	O	1.886444	0.665186	1.320650
H229	H	1.263513	-0.034424	0.693505
H230	H	1.596846	0.298910	1.026838
H231	H	1.930179	0.632243	1.360171
H232	H	1.203165	0.011038	0.803165
H233	H	1.536498	0.344372	1.136499
H234	H	1.869832	0.677705	1.469832
O235	O	0.958293	0.195443	0.813303
O236	O	1.291626	0.528776	1.146637
O237	O	1.624960	0.862110	1.479970
H238	H	0.968871	0.187492	0.873036
H239	H	1.302205	0.520826	1.206369
H240	H	1.635538	0.854159	1.539703
