data_functionalizedCrystal
_audit_creation_method	'MofGen! by Chris Wilmer'
_symmetry_space_group_name_H-M	'P1'
_symmetry_Int_Tables_number	1
_symmetry_cell_setting	triclinic
loop_
_symmetry_equiv_pos_as_xyz
  x,y,z
_cell_length_a	29.839134
_cell_length_b	29.839134
_cell_length_c	29.839126
_cell_angle_alpha	90.031345
_cell_angle_beta	89.989304
_cell_angle_gamma	89.998637
loop_
_atom_site_label
_atom_site_type_symbol
_atom_site_fract_x
_atom_site_fract_y
_atom_site_fract_z
Zn1	Zn	-0.178943	-0.686864	-0.254188
Zn2	Zn	0.321057	-0.186864	0.245812
Zn3	Zn	-0.254064	-0.686833	-0.179075
Zn4	Zn	0.245936	-0.186833	0.320925
Zn5	Zn	-0.178943	-0.611737	-0.179055
Zn6	Zn	0.321057	-0.111737	0.320945
Zn7	Zn	-0.254041	-0.611741	-0.254161
Zn8	Zn	0.245959	-0.111741	0.245839
O9	O	-0.216498	-0.649294	-0.216620
O10	O	0.283502	-0.149294	0.283380
O11	O	-0.188918	-0.749727	-0.244243
O12	O	0.311082	-0.249727	0.255757
O13	O	-0.244108	-0.676856	-0.116205
O14	O	0.255892	-0.176856	0.383795
O15	O	-0.116076	-0.621714	-0.189024
O16	O	0.383924	-0.121714	0.310976
O17	O	-0.244109	-0.749704	-0.189058
O18	O	0.255891	-0.249704	0.310942
O19	O	-0.116076	-0.676910	-0.244224
O20	O	0.383924	-0.176910	0.255776
O21	O	-0.188917	-0.621684	-0.116190
O22	O	0.311083	-0.121684	0.383810
O23	O	-0.188895	-0.548870	-0.188998
O24	O	0.311105	-0.048870	0.311002
O25	O	-0.244070	-0.621721	-0.317032
O26	O	0.255930	-0.121721	0.182968
O27	O	-0.244069	-0.548873	-0.244179
O28	O	0.255931	-0.048873	0.255821
O29	O	-0.188896	-0.676914	-0.317051
O30	O	0.311104	-0.176914	0.182949
O31	O	-0.316928	-0.676860	-0.189033
O32	O	0.183072	-0.176860	0.310967
O33	O	-0.316911	-0.621691	-0.244199
O34	O	0.183089	-0.121691	0.255801
C35	C	-0.216480	-0.532571	-0.216584
C36	C	0.283520	-0.032571	0.283416
C37	C	-0.216483	-0.482637	-0.216579
C38	C	0.283517	0.017363	0.283421
C39	C	-0.245274	-0.173004	-0.245303
C40	C	0.254726	0.326996	0.254697
C41	C	-0.245288	0.014669	-0.245317
C42	C	0.254712	0.514669	0.254683
O43	O	-0.269744	0.038924	-0.269727
O44	O	0.230256	0.538924	0.230273
N45	N	-0.216520	0.038148	-0.216633
N46	N	0.283480	0.538148	0.283367
C47	C	-0.187745	0.014707	-0.187945
C48	C	0.312255	0.514707	0.312055
O49	O	-0.163273	0.038984	-0.163551
O50	O	0.336727	0.538984	0.336449
C51	C	-0.187728	-0.172965	-0.187934
C52	C	0.312272	0.327035	0.312066
C53	C	-0.216501	-0.196443	-0.216616
C54	C	0.283499	0.303557	0.283384
C55	C	-0.274044	-0.196482	-0.273984
C56	C	0.225956	0.303518	0.226016
C57	C	-0.274042	-0.243397	-0.273978
C58	C	0.225958	0.256603	0.226022
C59	C	-0.245269	-0.266835	-0.245292
C60	C	0.254731	0.233165	0.254708
C61	C	-0.216499	-0.243358	-0.216611
C62	C	0.283501	0.256642	0.283389
C63	C	-0.158951	-0.196406	-0.159249
C64	C	0.341049	0.303594	0.340751
C65	C	-0.158949	-0.243327	-0.159249
C66	C	0.341051	0.256673	0.340751
C67	C	-0.187722	-0.266804	-0.187932
C68	C	0.312278	0.233196	0.312068
C69	C	-0.187725	-0.313712	-0.187919
C70	C	0.312275	0.186288	0.312081
N71	N	-0.216492	-0.337191	-0.216603
N72	N	0.283508	0.162809	0.283397
C73	C	-0.245265	-0.313753	-0.245289
C74	C	0.254735	0.186247	0.254711
C75	C	-0.187756	0.113238	-0.187953
C76	C	0.312244	0.613238	0.312047
C77	C	-0.187760	0.160155	-0.187955
C78	C	0.312240	0.660155	0.312045
C79	C	-0.245303	0.160114	-0.245328
C80	C	0.254697	0.660114	0.254672
C81	C	-0.245300	0.113195	-0.245323
C82	C	0.254700	0.613195	0.254677
C83	C	-0.216523	0.089758	-0.216637
C84	C	0.283477	0.589758	0.283363
C85	C	-0.245258	-0.412279	-0.245275
C86	C	0.254742	0.087721	0.254725
C87	C	-0.245255	-0.459199	-0.245266
C88	C	0.254745	0.040801	0.254734
C89	C	-0.187711	-0.459153	-0.187895
C90	C	0.312289	0.040847	0.312105
C91	C	-0.187716	-0.412237	-0.187903
C92	C	0.312284	0.087763	0.312097
C93	C	-0.216491	-0.388802	-0.216596
C94	C	0.283509	0.111198	0.283404
O95	O	-0.163278	-0.337996	-0.163525
O96	O	0.336722	0.162004	0.336475
O97	O	-0.269726	-0.338038	-0.269687
O98	O	0.230274	0.161962	0.230313
C99	C	-0.245276	-0.126089	-0.245308
C100	C	0.254724	0.373911	0.254692
C101	C	-0.216506	-0.102612	-0.216628
C102	C	0.283494	0.397388	0.283372
C103	C	-0.187733	-0.126050	-0.187941
C104	C	0.312267	0.373950	0.312059
C105	C	-0.216510	-0.055694	-0.216630
C106	C	0.283490	0.444306	0.283370
C107	C	-0.245282	-0.032256	-0.245316
C108	C	0.254718	0.467744	0.254684
C109	C	-0.274050	-0.055735	-0.274000
C110	C	0.225950	0.444265	0.226000
C111	C	-0.274048	-0.102651	-0.273995
C112	C	0.225952	0.397349	0.226005
C113	C	-0.158965	-0.102570	-0.159257
C114	C	0.341035	0.397430	0.340743
C115	C	-0.158970	-0.055655	-0.159265
C116	C	0.341030	0.444345	0.340735
C117	C	-0.187743	-0.032216	-0.187951
C118	C	0.312257	0.467784	0.312049
C119	C	-0.333220	-0.649285	-0.216625
C120	C	0.166780	-0.149285	0.283375
C121	C	-0.383155	-0.649322	-0.216642
C122	C	0.116845	-0.149322	0.283358
C123	C	-0.099319	-0.649315	-0.216624
C124	C	0.400681	-0.149315	0.283376
C125	C	-0.049385	-0.649324	-0.216626
C126	C	0.450615	-0.149324	0.283374
C127	C	0.260262	-0.620576	-0.187897
C128	C	0.760262	-0.120576	0.312103
C129	C	0.447935	-0.620579	-0.187902
C130	C	0.947935	-0.120579	0.312098
O131	O	0.472202	-0.596126	-0.163475
O132	O	0.972202	-0.096126	0.336525
N133	N	0.471400	-0.649317	-0.216640
N134	N	0.971400	-0.149317	0.283360
C135	C	0.447944	-0.678055	-0.245382
C136	C	0.947944	-0.178055	0.254618
O137	O	0.472209	-0.702496	-0.269830
O138	O	0.972209	-0.202496	0.230170
C139	C	0.260272	-0.678050	-0.245380
C140	C	0.760272	-0.178050	0.254620
C141	C	0.236809	-0.649313	-0.216636
C142	C	0.736809	-0.149313	0.283364
C143	C	0.236799	-0.591841	-0.159156
C144	C	0.736799	-0.091841	0.340844
C145	C	0.189883	-0.591842	-0.159154
C146	C	0.689883	-0.091842	0.340846
C147	C	0.166431	-0.620579	-0.187892
C148	C	0.666431	-0.120579	0.312108
C149	C	0.189894	-0.649314	-0.216634
C150	C	0.689894	-0.149314	0.283366
C151	C	0.236817	-0.706786	-0.274124
C152	C	0.736817	-0.206786	0.225876
C153	C	0.189896	-0.706781	-0.274121
C154	C	0.689896	-0.206781	0.225879
C155	C	0.166433	-0.678044	-0.245377
C156	C	0.666433	-0.178044	0.254623
C157	C	0.119526	-0.678052	-0.245370
C158	C	0.619526	-0.178052	0.254630
N159	N	0.096061	-0.649314	-0.216631
N160	N	0.596061	-0.149314	0.283369
C161	C	0.119513	-0.620577	-0.187892
C162	C	0.619513	-0.120577	0.312108
C163	C	0.546475	-0.678057	-0.245381
C164	C	1.046475	-0.178057	0.254619
C165	C	0.593393	-0.678059	-0.245381
C166	C	1.093393	-0.178059	0.254619
C167	C	0.593380	-0.620581	-0.187901
C168	C	1.093380	-0.120581	0.312099
C169	C	0.546461	-0.620582	-0.187899
C170	C	1.046461	-0.120582	0.312101
C171	C	0.523010	-0.649318	-0.216642
C172	C	1.023010	-0.149318	0.283358
C173	C	0.020987	-0.620582	-0.187889
C174	C	0.520987	-0.120582	0.312111
C175	C	-0.025932	-0.620587	-0.187888
C176	C	0.474068	-0.120587	0.312112
C177	C	-0.025916	-0.678063	-0.245369
C178	C	0.474084	-0.178063	0.254631
C179	C	0.021000	-0.678060	-0.245369
C180	C	0.521000	-0.178060	0.254631
C181	C	0.044450	-0.649315	-0.216627
C182	C	0.544450	-0.149315	0.283373
O183	O	0.095229	-0.702488	-0.269787
O184	O	0.595229	-0.202488	0.230213
O185	O	0.095240	-0.596133	-0.163456
O186	O	0.595240	-0.096133	0.336544
C187	C	0.307177	-0.620575	-0.187900
C188	C	0.807177	-0.120575	0.312100
C189	C	0.330640	-0.649310	-0.216641
C190	C	0.830640	-0.149310	0.283359
C191	C	0.307188	-0.678047	-0.245380
C192	C	0.807188	-0.178047	0.254620
C193	C	0.377558	-0.649312	-0.216641
C194	C	0.877558	-0.149312	0.283359
C195	C	0.401011	-0.620575	-0.187902
C196	C	0.901011	-0.120575	0.312098
C197	C	0.377545	-0.591837	-0.159164
C198	C	0.877545	-0.091837	0.340836
C199	C	0.330630	-0.591838	-0.159161
C200	C	0.830630	-0.091838	0.340839
C201	C	0.330653	-0.706786	-0.274118
C202	C	0.830653	-0.206786	0.225882
C203	C	0.377569	-0.706782	-0.274118
C204	C	0.877569	-0.206782	0.225882
C205	C	0.401021	-0.678045	-0.245380
C206	C	0.901021	-0.178045	0.254620
C207	C	-0.216480	-0.649322	-0.333798
C208	C	0.283520	-0.149322	0.166202
C209	C	-0.216473	-0.649333	-0.383733
C210	C	0.283527	-0.149333	0.116267
C211	C	-0.216518	0.233528	-0.216649
C212	C	0.283482	0.733528	0.283351
C213	C	-0.216533	0.183593	-0.216642
C214	C	0.283467	0.683593	0.283358
C215	C	-0.187690	-0.620614	-0.693371
C216	C	0.312310	-0.120614	-0.193371
C217	C	-0.187659	-0.620627	-0.881044
C218	C	0.312341	-0.120627	-0.381044
O219	O	-0.163231	-0.596186	-0.905305
O220	O	0.336769	-0.096186	-0.405305
N221	N	-0.216389	-0.649355	-0.904518
N222	N	0.283611	-0.149355	-0.404518
C223	C	-0.245131	-0.678079	-0.881070
C224	C	0.254869	-0.178079	-0.381070
O225	O	-0.269570	-0.702511	-0.905342
O226	O	0.230430	-0.202511	-0.405342
C227	C	-0.245164	-0.678064	-0.693398
C228	C	0.254836	-0.178064	-0.193398
C229	C	-0.216429	-0.649337	-0.669927
C230	C	0.283571	-0.149337	-0.169927
C231	C	-0.158958	-0.591889	-0.669900
C232	C	0.341042	-0.091889	-0.169900
C233	C	-0.158964	-0.591888	-0.622985
C234	C	0.341036	-0.091888	-0.122985
C235	C	-0.187703	-0.620612	-0.599540
C236	C	0.312297	-0.120612	-0.099540
C237	C	-0.216435	-0.649336	-0.623011
C238	C	0.283565	-0.149336	-0.123011
C239	C	-0.273908	-0.706786	-0.669951
C240	C	0.226092	-0.206786	-0.169951
C241	C	-0.273914	-0.706779	-0.623030
C242	C	0.226086	-0.206779	-0.123030
C243	C	-0.245179	-0.678052	-0.599559
C244	C	0.254821	-0.178052	-0.099559
C245	C	-0.245180	-0.678059	-0.552652
C246	C	0.254820	-0.178059	-0.052652
N247	N	-0.216450	-0.649331	-0.529178
N248	N	0.283550	-0.149331	-0.029178
C249	C	-0.187712	-0.620607	-0.552622
C250	C	0.312288	-0.120607	-0.052622
C251	C	-0.245111	-0.678086	-0.979601
C252	C	0.254889	-0.178086	-0.479601
C253	C	-0.245102	-0.678091	-1.026519
C254	C	0.254898	-0.178091	-0.526519
C255	C	-0.187631	-0.620637	-1.026490
C256	C	0.312369	-0.120637	-0.526490
C257	C	-0.187637	-0.620635	-0.979571
C258	C	0.312363	-0.120635	-0.479571
C259	C	-0.216381	-0.649358	-0.956127
C260	C	0.283619	-0.149358	-0.456127
C261	C	-0.187727	-0.620607	-0.454097
C262	C	0.312273	-0.120607	0.045903
C263	C	-0.187734	-0.620610	-0.407177
C264	C	0.312266	-0.120610	0.092823
C265	C	-0.245207	-0.678061	-0.407210
C266	C	0.254793	-0.178061	0.092790
C267	C	-0.245198	-0.678061	-0.454126
C268	C	0.254802	-0.178061	0.045874
C269	C	-0.216456	-0.649330	-0.477568
C270	C	0.283544	-0.149330	0.022432
O271	O	-0.269599	-0.702483	-0.528362
O272	O	0.230401	-0.202483	-0.028362
O273	O	-0.163283	-0.596172	-0.528342
O274	O	0.336717	-0.096172	-0.028342
C275	C	-0.187684	-0.620615	-0.740287
C276	C	0.312316	-0.120615	-0.240287
C277	C	-0.216416	-0.649340	-0.763758
C278	C	0.283584	-0.149340	-0.263758
C279	C	-0.245155	-0.678063	-0.740313
C280	C	0.254845	-0.178063	-0.240313
C281	C	-0.216407	-0.649344	-0.810676
C282	C	0.283593	-0.149344	-0.310676
C283	C	-0.187669	-0.620621	-0.834120
C284	C	0.312331	-0.120621	-0.334120
C285	C	-0.158939	-0.591893	-0.810646
C286	C	0.341061	-0.091893	-0.310646
C287	C	-0.158945	-0.591892	-0.763731
C288	C	0.341055	-0.091892	-0.263731
C289	C	-0.273885	-0.706791	-0.763787
C290	C	0.226115	-0.206791	-0.263787
C291	C	-0.273876	-0.706790	-0.810703
C292	C	0.226124	-0.206790	-0.310703
C293	C	-0.245137	-0.678067	-0.834147
C294	C	0.254863	-0.178067	-0.334147
C295	C	-0.216482	-0.649292	-0.099897
C296	C	0.283518	-0.149292	0.400103
C297	C	-0.216363	-0.649367	-0.049963
C298	C	0.283637	-0.149367	0.450037
H299	H	-0.297478	-0.121762	-0.297351
H300	H	0.202522	0.378238	0.202649
O301	O	-0.301849	-0.734632	-0.740998
O302	O	0.198151	-0.234632	-0.240998
C303	C	-0.330863	-0.709056	-0.713834
C304	C	0.169137	-0.209056	-0.213834
H305	H	-0.333632	-0.673671	-0.727949
H306	H	0.166368	-0.173671	-0.227949
H307	H	-0.365438	-0.725302	-0.713314
H308	H	0.134562	-0.225302	-0.213314
H309	H	-0.316981	-0.707515	-0.678274
H310	H	0.183019	-0.207515	-0.178274
H311	H	0.040104	-0.701465	-0.268770
H312	H	0.540104	-0.201465	0.231230
O313	O	-0.131008	-0.564043	-0.600167
O314	O	0.368992	-0.064043	-0.100167
C315	C	-0.102003	-0.589616	-0.573030
C316	C	0.397997	-0.089616	-0.073030
H317	H	-0.099227	-0.625002	-0.587181
H318	H	0.400773	-0.125002	-0.087181
H319	H	-0.067429	-0.573369	-0.572495
H320	H	0.432571	-0.073369	-0.072495
H321	H	-0.115897	-0.591155	-0.537471
H322	H	0.384103	-0.091155	-0.037471
H323	H	0.255914	-0.730186	-0.297530
H324	H	0.755914	-0.230186	0.202470
O325	O	-0.302019	-0.173669	-0.301788
O326	O	0.197981	0.326331	0.198212
C327	C	-0.331012	-0.146527	-0.276166
C328	C	0.168988	0.353473	0.223834
H329	H	-0.315118	-0.139470	-0.242148
H330	H	0.184882	0.360530	0.257852
H331	H	-0.337070	-0.113549	-0.294461
H332	H	0.162930	0.386451	0.205539
H333	H	-0.364292	-0.164614	-0.271171
H334	H	0.135708	0.335386	0.228829
H335	H	-0.268729	0.094083	-0.268680
H336	H	0.231271	0.594083	0.231320
O337	O	-0.159701	-0.481874	-0.160050
O338	O	0.340299	0.018126	0.339950
C339	C	-0.114939	-0.470425	-0.169949
C340	C	0.385061	0.029575	0.330051
H341	H	-0.114032	-0.436370	-0.187222
H342	H	0.385968	0.063630	0.312778
H343	H	-0.094748	-0.468801	-0.137559
H344	H	0.405252	0.031199	0.362441
H345	H	-0.099840	-0.496845	-0.193069
H346	H	0.400160	0.003155	0.306931
O347	O	0.259596	-0.563876	-0.131300
O348	O	0.759596	-0.063876	0.368700
C349	C	0.286750	-0.534869	-0.156860
C350	C	0.786750	-0.034869	0.343140
H351	H	0.272625	-0.532100	-0.192244
H352	H	0.772625	-0.032100	0.307756
H353	H	0.287272	-0.500293	-0.140597
H354	H	0.787272	-0.000293	0.359403
H355	H	0.322311	-0.548756	-0.158406
H356	H	0.822311	-0.048756	0.341594
O357	O	-0.273209	0.182955	-0.273182
O358	O	0.226791	0.682955	0.226818
C359	C	-0.267047	0.229399	-0.267022
C360	C	0.232953	0.729399	0.232978
H361	H	-0.232358	0.235813	-0.252358
H362	H	0.267642	0.735813	0.247642
H363	H	-0.270135	0.247213	-0.300668
H364	H	0.229865	0.747213	0.199332
H365	H	-0.293664	0.242728	-0.243059
H366	H	0.206336	0.742728	0.256941
H367	H	0.170784	-0.568440	-0.135749
H368	H	0.670784	-0.068440	0.364251
O369	O	-0.273252	-0.482024	-0.273067
O370	O	0.226748	0.017976	0.226933
C371	C	-0.302226	-0.509156	-0.247444
C372	C	0.197774	-0.009156	0.252556
H373	H	-0.304954	-0.494996	-0.212057
H374	H	0.195046	0.005004	0.287943
H375	H	-0.336821	-0.509698	-0.263639
H376	H	0.163179	-0.009698	0.236361
H377	H	-0.288333	-0.544714	-0.245916
H378	H	0.211667	-0.044714	0.254084
O379	O	-0.130982	-0.266024	-0.131338
O380	O	0.369018	0.233976	0.368662
C381	C	-0.105583	-0.235237	-0.106033
C382	C	0.394417	0.264763	0.393967
H383	H	-0.123984	-0.201792	-0.104455
H384	H	0.376016	0.298208	0.395545
H385	H	-0.100741	-0.248767	-0.070641
H386	H	0.399259	0.251233	0.429359
H387	H	-0.071486	-0.230258	-0.122539
H388	H	0.428514	0.269742	0.377461
O389	O	-0.131005	-0.032797	-0.131457
O390	O	0.368995	0.467203	0.368543
C391	C	-0.102017	-0.005679	-0.157079
C392	C	0.397983	0.494321	0.342921
H393	H	-0.117905	0.001326	-0.191103
H394	H	0.382095	0.501326	0.308897
H395	H	-0.095979	0.027326	-0.138791
H396	H	0.404021	0.527326	0.361209
H397	H	-0.068728	-0.023759	-0.162060
H398	H	0.431272	0.476241	0.337940
H399	H	-0.164335	0.179267	-0.164594
H400	H	0.335665	0.679267	0.335406
H401	H	-0.135555	-0.568497	-0.688983
H402	H	0.364445	-0.068497	-0.188983
O403	O	-0.159713	-0.592685	-0.956842
O404	O	0.340287	-0.092685	-0.456842
C405	C	-0.134339	-0.567345	-0.987602
C406	C	0.365661	-0.067345	-0.487602
H407	H	-0.152735	-0.565794	-1.021045
H408	H	0.347265	-0.065794	-0.521045
H409	H	-0.129544	-0.531947	-0.974034
H410	H	0.370456	-0.031947	-0.474034
H411	H	-0.100221	-0.583803	-0.992598
H412	H	0.399779	-0.083803	-0.492598
O413	O	0.400311	-0.563967	-0.131184
O414	O	0.900311	-0.063967	0.368816
C415	C	0.388837	-0.573762	-0.086408
C416	C	0.888837	-0.073762	0.413592
H417	H	0.375938	-0.609650	-0.084145
H418	H	0.875938	-0.109650	0.415855
H419	H	0.419692	-0.569887	-0.064218
H420	H	0.919692	-0.069887	0.435782
H421	H	0.361604	-0.549670	-0.074656
H422	H	0.861604	-0.049670	0.425344
H423	H	-0.045034	-0.597185	-0.164479
H424	H	0.454966	-0.097185	0.335521
O425	O	0.616202	-0.706025	-0.273235
O426	O	1.116202	-0.206025	0.226765
C427	C	0.643346	-0.735032	-0.247672
C428	C	1.143346	-0.235032	0.252328
H429	H	0.629204	-0.737799	-0.212288
H430	H	1.129204	-0.237799	0.287712
H431	H	0.643877	-0.769609	-0.263933
H432	H	1.143877	-0.269609	0.236067
H433	H	0.678905	-0.721145	-0.246123
H434	H	1.178905	-0.221145	0.253877
H435	H	-0.297479	-0.036644	-0.297357
H436	H	0.202521	0.463356	0.202643
O437	O	-0.159787	0.090543	-0.160042
O438	O	0.340213	0.590543	0.339958
C439	C	-0.134393	0.121333	-0.134736
C440	C	0.365607	0.621333	0.365264
H441	H	-0.152800	0.154776	-0.133158
H442	H	0.347200	0.654776	0.366842
H443	H	-0.129549	0.107804	-0.099345
H444	H	0.370451	0.607804	0.400655
H445	H	-0.100297	0.126318	-0.151242
H446	H	0.399703	0.626318	0.348758
H447	H	-0.045019	-0.701461	-0.268766
H448	H	0.454981	-0.201461	0.231234
H449	H	-0.135522	-0.177299	-0.135891
H450	H	0.364478	0.322701	0.364109
O451	O	-0.301802	-0.734755	-0.692691
O452	O	0.198198	-0.234755	-0.192691
C453	C	-0.291987	-0.779530	-0.681248
C454	C	0.208013	-0.279530	-0.181248
H455	H	-0.274713	-0.780456	-0.647188
H456	H	0.225287	-0.280456	-0.147188
H457	H	-0.324415	-0.799665	-0.679638
H458	H	0.175585	-0.299665	-0.179638
H459	H	-0.268896	-0.794676	-0.707665
H460	H	0.231104	-0.294676	-0.207665
O461	O	0.307820	-0.563983	-0.131196
O462	O	0.807820	-0.063983	0.368804
C463	C	0.280666	-0.589546	-0.102190
C464	C	0.780666	-0.089546	0.397810
H465	H	0.294801	-0.624930	-0.099423
H466	H	0.794801	-0.124930	0.400577
H467	H	0.280133	-0.573286	-0.067613
H468	H	0.780133	-0.073286	0.432387
H469	H	0.245109	-0.591093	-0.116077
H470	H	0.745109	-0.091093	0.383923
O471	O	0.167163	-0.734672	-0.302107
O472	O	0.667163	-0.234672	0.197893
C473	C	0.178628	-0.724850	-0.346878
C474	C	0.678628	-0.224850	0.153122
H475	H	0.212694	-0.707581	-0.347802
H476	H	0.712694	-0.207581	0.152198
H477	H	0.180236	-0.757274	-0.367038
H478	H	0.680236	-0.257274	0.132962
H479	H	0.152225	-0.701753	-0.361999
H480	H	0.652225	-0.201753	0.138001
H481	H	-0.268689	-0.393203	-0.268641
H482	H	0.231311	0.106797	0.231359
H483	H	0.527385	-0.701460	-0.268787
H484	H	1.027385	-0.201460	0.231213
O485	O	-0.272946	-0.706050	-1.049334
O486	O	0.227054	-0.206050	-0.549334
C487	C	-0.247370	-0.735068	-1.076494
C488	C	0.252630	-0.235068	-0.576494
H489	H	-0.211988	-0.737844	-1.062359
H490	H	0.288012	-0.237844	-0.562359
H491	H	-0.263621	-0.769640	-1.077035
H492	H	0.236379	-0.269640	-0.577035
H493	H	-0.245818	-0.721187	-1.112048
H494	H	0.254182	-0.221187	-0.612048
O495	O	0.400288	-0.734715	-0.302084
O496	O	0.900288	-0.234715	0.197916
C497	C	0.369522	-0.760084	-0.327440
C498	C	0.869522	-0.260084	0.172560
H499	H	0.336077	-0.741682	-0.328981
H500	H	0.836077	-0.241682	0.171019
H501	H	0.383077	-0.764881	-0.362840
H502	H	0.883077	-0.264881	0.137160
H503	H	0.364532	-0.794201	-0.311001
H504	H	0.864532	-0.294201	0.188999
H505	H	-0.297318	-0.730172	-0.603945
H506	H	0.202682	-0.230172	-0.103945
O507	O	-0.159791	-0.389474	-0.159980
O508	O	0.340209	0.110526	0.340020
C509	C	-0.169549	-0.400892	-0.115183
C510	C	0.330451	0.099108	0.384817
H511	H	-0.186816	-0.434957	-0.114212
H512	H	0.313184	0.065043	0.385788
H513	H	-0.137095	-0.402479	-0.095093
H514	H	0.362905	0.097521	0.404907
H515	H	-0.192624	-0.374473	-0.100021
H516	H	0.307376	0.125527	0.399979
O517	O	0.307825	-0.734726	-0.301972
O518	O	0.807825	-0.234726	0.198028
C519	C	0.280694	-0.763745	-0.276400
C520	C	0.780694	-0.263745	0.223600
H521	H	0.273656	-0.747890	-0.242351
H522	H	0.773656	-0.247890	0.257649
H523	H	0.247706	-0.769776	-0.294700
H524	H	0.747706	-0.269776	0.205300
H525	H	0.298781	-0.797033	-0.271471
H526	H	0.798781	-0.297033	0.228529
H527	H	-0.164229	-0.597250	-1.045586
H528	H	0.335771	-0.097250	-0.545586
H529	H	0.527361	-0.597181	-0.164494
H530	H	1.027361	-0.097181	0.335506
H531	H	-0.297471	-0.262508	-0.297335
H532	H	0.202529	0.237492	0.202665
O533	O	-0.159884	-0.592680	-0.384328
O534	O	0.340116	-0.092680	0.115672
C535	C	-0.185460	-0.563650	-0.357182
C536	C	0.314540	-0.063650	0.142818
H537	H	-0.219509	-0.579489	-0.350157
H538	H	0.280491	-0.079489	0.149843
H539	H	-0.167164	-0.557629	-0.324188
H540	H	0.332836	-0.057629	0.175812
H541	H	-0.190391	-0.530358	-0.375248
H542	H	0.309609	-0.030358	0.124752
O543	O	0.616236	-0.592678	-0.160028
O544	O	1.116236	-0.092678	0.339972
C545	C	0.662677	-0.598854	-0.166188
C546	C	1.162677	-0.098854	0.333812
H547	H	0.669085	-0.613582	-0.200861
H548	H	1.169085	-0.113582	0.299139
H549	H	0.680511	-0.565204	-0.163138
H550	H	1.180511	-0.065204	0.336862
H551	H	0.675988	-0.622768	-0.139545
H552	H	1.175988	-0.122768	0.360455
H553	H	-0.268592	-0.701457	-0.473237
H554	H	0.231408	-0.201457	0.026763
O555	O	-0.131001	-0.125265	-0.131347
O556	O	0.368999	0.374735	0.368653
C557	C	-0.105605	-0.094475	-0.106043
C558	C	0.394395	0.405525	0.393957
H559	H	-0.124009	-0.061031	-0.104467
H560	H	0.375991	0.438969	0.395533
H561	H	-0.100763	-0.108002	-0.070650
H562	H	0.399237	0.391998	0.429350
H563	H	-0.071508	-0.089494	-0.122548
H564	H	0.428492	0.410506	0.377452
O565	O	-0.159764	-0.592686	-0.476794
O566	O	0.340236	-0.092686	0.023206
C567	C	-0.134416	-0.567328	-0.446010
C568	C	0.365584	-0.067328	0.053990
H569	H	-0.132874	-0.585732	-0.412576
H570	H	0.367126	-0.085732	0.087424
H571	H	-0.099015	-0.562544	-0.459559
H572	H	0.400985	-0.062544	0.040441
H573	H	-0.150861	-0.533205	-0.441000
H574	H	0.349139	-0.033205	0.059000
H575	H	-0.297274	-0.730187	-0.829809
H576	H	0.202726	-0.230187	-0.329809
O577	O	0.043693	-0.592647	-0.159927
O578	O	0.543693	-0.092647	0.340073
C579	C	0.012915	-0.567279	-0.134571
C580	C	0.512915	-0.067279	0.365429
H581	H	-0.020527	-0.585685	-0.133024
H582	H	0.479473	-0.085685	0.366976
H583	H	0.026461	-0.562478	-0.099172
H584	H	0.526461	-0.062478	0.400828
H585	H	0.007924	-0.533164	-0.151011
H586	H	0.507924	-0.033164	0.348989
O587	O	-0.273045	-0.706035	-0.956901
O588	O	0.226955	-0.206035	-0.456901
C589	C	-0.298404	-0.731382	-0.987685
C590	C	0.201596	-0.231382	-0.487685
H591	H	-0.279993	-0.732937	-1.021129
H592	H	0.220007	-0.232937	-0.521129
H593	H	-0.303202	-0.766778	-0.974151
H594	H	0.196798	-0.266778	-0.474151
H595	H	-0.332521	-0.714927	-0.992668
H596	H	0.167479	-0.214927	-0.492668
H597	H	-0.268604	-0.701449	-0.388113
H598	H	0.231396	-0.201449	0.111887
O599	O	-0.131020	-0.563942	-0.741004
O600	O	0.368980	-0.063942	-0.241004
C601	C	-0.105649	-0.538601	-0.771765
C602	C	0.394351	-0.038601	-0.271765
H603	H	-0.124048	-0.537050	-0.805207
H604	H	0.375952	-0.037050	-0.305207
H605	H	-0.100852	-0.503203	-0.758198
H606	H	0.399148	-0.003203	-0.258198
H607	H	-0.071531	-0.555059	-0.776766
H608	H	0.428469	-0.055059	-0.276766
H609	H	-0.135537	-0.568507	-0.829743
H610	H	0.364463	-0.068507	-0.329743
