data_functionalizedCrystal
_audit_creation_method	'MofGen! by Chris Wilmer'
_symmetry_space_group_name_H-M	'P1'
_symmetry_Int_Tables_number	1
_symmetry_cell_setting	triclinic
loop_
_symmetry_equiv_pos_as_xyz
  x,y,z
_cell_length_a	21.295417
_cell_length_b	14.908792
_cell_length_c	14.909241
_cell_angle_alpha	96.416526
_cell_angle_beta	86.669119
_cell_angle_gamma	86.681052
loop_
_atom_site_label
_atom_site_type_symbol
_atom_site_fract_x
_atom_site_fract_y
_atom_site_fract_z
Zn1	Zn	-0.169969	-1.413369	-0.591800
Zn2	Zn	0.330031	-0.913369	-0.091800
Zn3	Zn	-0.281698	-1.404501	-0.440411
Zn4	Zn	0.218302	-0.904501	0.059589
Zn5	Zn	-0.182876	-1.253256	-0.431695
Zn6	Zn	0.317124	-0.753256	0.068305
Zn7	Zn	-0.281644	-1.261933	-0.582982
Zn8	Zn	0.218356	-0.761933	-0.082982
O9	O	-0.229047	-1.333265	-0.511722
O10	O	0.270953	-0.833265	-0.011722
O11	O	-0.179411	-1.538866	-0.579056
O12	O	0.320589	-1.038866	-0.079056
O13	O	-0.274013	-1.377096	-0.312584
O14	O	0.225987	-0.877096	0.187416
O15	O	-0.093069	-1.274574	-0.452975
O16	O	0.406931	-0.774574	0.047025
O17	O	-0.261498	-1.532351	-0.467832
O18	O	0.238502	-1.032351	0.032168
O19	O	-0.083587	-1.392209	-0.570604
O20	O	0.416413	-0.892209	-0.070604
O21	O	-0.201409	-1.265976	-0.306180
O22	O	0.298591	-0.765976	0.193820
O23	O	-0.201357	-1.127734	-0.444425
O24	O	0.298643	-0.627734	0.055575
O25	O	-0.261406	-1.289364	-0.710823
O26	O	0.238594	-0.789364	-0.210823
O27	O	-0.273922	-1.134109	-0.555576
O28	O	0.226078	-0.634109	-0.055576
O29	O	-0.179359	-1.400623	-0.717301
O30	O	0.320641	-0.900623	-0.217301
O31	O	-0.369785	-1.385510	-0.459282
O32	O	0.130215	-0.885510	0.040718
O33	O	-0.369746	-1.280766	-0.564028
O34	O	0.130254	-0.780766	-0.064028
C35	C	-0.239034	-1.098076	-0.498098
C36	C	0.260966	-0.598076	0.001902
C37	C	-0.243321	-0.997463	-0.492291
C38	C	0.256679	-0.497463	0.007709
C39	C	-0.292039	-0.852258	-0.426109
C40	C	0.207961	-0.352258	0.073891
C41	C	-0.288013	-0.946793	-0.431565
C42	C	0.211987	-0.446793	0.068435
C43	C	-0.202651	-0.953592	-0.547565
C44	C	0.297349	-0.453592	-0.047565
C45	C	-0.206676	-0.859056	-0.542109
C46	C	0.293324	-0.359056	-0.042109
C47	C	-0.251372	-0.808393	-0.481380
C48	C	0.248628	-0.308393	0.018620
C49	C	-0.255400	-0.713856	-0.475930
C50	C	0.244600	-0.213856	0.024070
C51	C	-0.170035	-0.720656	-0.591924
C52	C	0.329965	-0.220656	-0.091924
C53	C	-0.166009	-0.815191	-0.597380
C54	C	0.333991	-0.315191	-0.097380
C55	C	-0.392606	-1.333143	-0.511665
C56	C	0.107394	-0.833143	-0.011665
C57	C	-0.462572	-1.333176	-0.511676
C58	C	0.037428	-0.833176	-0.011676
C59	C	-0.495434	-1.387771	-0.457197
C60	C	0.004566	-0.887771	0.042803
C61	C	-0.561173	-1.387815	-0.457219
C62	C	-0.061173	-0.887815	0.042781
C63	C	-0.594050	-1.333246	-0.511711
C64	C	-0.094050	-0.833246	-0.011711
C65	C	-0.561180	-1.278648	-0.566201
C66	C	-0.061180	-0.778648	-0.066201
C67	C	-0.495441	-1.278612	-0.566184
C68	C	0.004559	-0.778612	-0.066184
N69	N	-0.700389	-1.254457	-0.514025
N70	N	-0.200389	-0.754457	-0.014025
N71	N	-0.762838	-1.254493	-0.514036
N72	N	-0.262838	-0.754493	-0.014036
C73	C	-0.792118	-1.333351	-0.511769
C74	C	-0.292118	-0.833351	-0.011769
N75	N	-0.756591	-1.412172	-0.509472
N76	N	-0.256591	-0.912172	-0.009472
N77	N	-0.694135	-1.412135	-0.509455
N78	N	-0.194135	-0.912135	-0.009455
C79	C	-0.665333	-1.333279	-0.511737
C80	C	-0.165333	-0.833279	-0.011737
C81	C	-0.896263	-1.387998	-0.457312
C82	C	-0.396263	-0.887998	0.042688
C83	C	-0.962003	-1.388043	-0.457341
C84	C	-0.462003	-0.888043	0.042659
C85	C	-0.962009	-1.278868	-0.566317
C86	C	-0.462009	-0.778868	-0.066317
C87	C	-0.896269	-1.278831	-0.566293
C88	C	-0.396269	-0.778831	-0.066293
C89	C	-0.863400	-1.333394	-0.511785
C90	C	-0.363400	-0.833394	-0.011785
C91	C	-0.064847	-1.333413	-0.511801
C92	C	0.435153	-0.833413	-0.011801
C93	C	0.005125	-1.333476	-0.511834
C94	C	0.505125	-0.833476	-0.011834
C95	C	-0.218937	-1.346951	-0.747825
C96	C	0.281063	-0.846951	-0.247825
C97	C	-0.214628	-1.352783	-0.848438
C98	C	0.285372	-0.852783	-0.348438
C99	C	-0.219016	-0.569371	-0.525393
C100	C	0.280984	-0.069371	-0.025393
C101	C	-0.214729	-0.669985	-0.531203
C102	C	0.285271	-0.169985	-0.031203
C103	C	-0.291983	-1.247890	-1.030757
C104	C	0.208017	-0.747890	-0.530757
C105	C	-0.287937	-1.253367	-1.125292
C106	C	0.212063	-0.753367	-0.625292
C107	C	-0.202494	-1.369217	-1.132044
C108	C	0.297506	-0.869217	-0.632044
C109	C	-0.206540	-1.363740	-1.037509
C110	C	0.293460	-0.863740	-0.537509
C111	C	-0.251285	-1.303074	-0.986869
C112	C	0.248715	-0.803074	-0.486869
C113	C	-0.255328	-1.297593	-0.892332
C114	C	0.244672	-0.797593	-0.392332
C115	C	-0.169888	-1.413447	-0.899087
C116	C	0.330112	-0.913447	-0.399087
C117	C	-0.165842	-1.418924	-0.993622
C118	C	0.334158	-0.918924	-0.493622
C119	C	-0.239070	-1.319684	-0.276541
C120	C	0.260930	-0.819684	0.223459
C121	C	-0.243194	-1.314028	-0.175938
C122	C	0.256806	-0.814028	0.324062
H123	H	-0.136922	-0.684932	-0.636931
H124	H	0.363078	-0.184932	-0.136931
H125	H	-0.321078	-1.208432	-1.161021
H126	H	0.178922	-0.708432	-0.661021
O127	O	-0.340246	-0.797611	-0.360613
O128	O	0.159754	-0.297611	0.139387
H129	H	-0.336214	-0.724505	-0.366108
H130	H	0.163786	-0.224505	0.133892
H131	H	-0.129414	-1.468319	-1.034866
H132	H	0.370586	-0.968319	-0.534866
O133	O	-0.459997	-1.219720	-0.624945
O134	O	0.040003	-0.719720	-0.124945
H135	H	-0.408761	-1.228866	-0.615780
H136	H	0.091239	-0.728866	-0.115780
O137	O	-0.117803	-0.869843	-0.662873
O138	O	0.382197	-0.369843	-0.162873
H139	H	-0.090199	-0.823456	-0.700386
H140	H	0.409801	-0.323456	-0.200386
O141	O	-0.340237	-1.182452	-0.976135
O142	O	0.159763	-0.682452	-0.476135
H143	H	-0.336209	-1.187910	-0.903025
H144	H	0.163791	-0.687910	-0.403025
H145	H	-0.587934	-1.432276	-0.412856
H146	H	-0.087934	-0.932276	0.087144
O147	O	-0.154441	-1.008248	-0.613050
O148	O	0.345559	-0.508248	-0.113050
H149	H	-0.163037	-0.994235	-0.683022
H150	H	0.336963	-0.494235	-0.183022
H151	H	-0.468673	-1.432202	-0.412816
H152	H	0.031327	-0.932202	0.087184
O153	O	-0.860802	-1.446856	-0.398538
O154	O	-0.360802	-0.946856	0.101462
H155	H	-0.894699	-1.484842	-0.360670
H156	H	-0.394699	-0.984842	0.139330
H157	H	-0.321128	-0.982504	-0.386556
H158	H	0.178872	-0.482504	0.113444
H159	H	-0.587953	-1.234220	-0.610570
H160	H	-0.087953	-0.734220	-0.110570
H161	H	-0.988758	-1.432507	-0.412979
H162	H	-0.488758	-0.932507	0.087021
H163	H	-0.166069	-1.418616	-1.173292
H164	H	0.333931	-0.918616	-0.673292
H165	H	-0.136746	-1.458377	-0.863343
H166	H	0.363254	-0.958377	-0.363343
O167	O	-0.997464	-1.220014	-0.625092
O168	O	-0.497464	-0.720014	-0.125092
H169	H	-0.963565	-1.182045	-0.662976
H170	H	-0.463565	-0.682045	-0.162976
O171	O	-0.860821	-1.219921	-0.625028
O172	O	-0.360821	-0.719921	-0.125028
H173	H	-0.894725	-1.181972	-0.662914
H174	H	-0.394725	-0.681972	-0.162914
H175	H	-0.291756	-1.248186	-0.851101
H176	H	0.208244	-0.748186	-0.351101
H177	H	-0.291796	-0.672607	-0.426484
H178	H	0.208204	-0.172607	0.073516
