data_functionalizedCrystal
_audit_creation_method	'MofGen! by Chris Wilmer'
_symmetry_space_group_name_H-M	'P1'
_symmetry_Int_Tables_number	1
_symmetry_cell_setting	triclinic
loop_
_symmetry_equiv_pos_as_xyz
  x,y,z
_cell_length_a	12.837943
_cell_length_b	14.519709
_cell_length_c	11.295483
_cell_angle_alpha	94.101713
_cell_angle_beta	85.461227
_cell_angle_gamma	89.254542
loop_
_atom_site_label
_atom_site_type_symbol
_atom_site_fract_x
_atom_site_fract_y
_atom_site_fract_z
O1	O	1.382869	0.234188	-0.099009
O2	O	1.081042	0.222343	-0.099016
O3	O	1.239958	0.094719	-0.099002
O4	O	1.223954	0.361812	-0.099023
O5	O	1.226000	0.105910	0.099048
O6	O	1.067084	0.233533	0.099034
O7	O	1.368911	0.245379	0.099040
Cu8	Cu	1.216723	0.240478	0.117121
Cu9	Cu	1.233230	0.227244	-0.117096
O10	O	1.209996	0.373002	0.099026
C11	C	1.035435	0.223937	0.000008
C12	C	0.920336	0.212002	0.000006
C13	C	0.679643	0.355473	0.000011
C14	C	0.571497	0.344264	0.000010
C15	C	0.595894	0.178377	0.000011
C16	C	0.704041	0.189586	0.000012
C17	C	0.745911	0.278137	0.000011
C18	C	0.854060	0.289344	0.000003
C19	C	0.878455	0.123458	0.000013
C20	C	0.770308	0.112249	0.000011
C21	C	1.232233	0.065890	0.000023
C22	C	1.229997	-0.036684	0.000024
C23	C	1.221771	-0.412293	-0.000007
C24	C	1.224055	-0.307787	0.000002
C25	C	1.225884	-0.224492	0.000010
C26	C	1.228169	-0.119979	0.000016
C27	C	1.414518	0.243785	0.000014
C28	C	1.529618	0.255719	0.000008
C29	C	1.217721	0.401831	-0.000001
C30	C	1.219957	0.504405	-0.000010
N31	N	1.205121	0.249786	0.281856
N32	N	1.244841	0.217929	-0.281831
C33	C	1.328362	0.150873	0.531156
C34	C	1.319601	0.157915	0.655819
C35	C	1.178834	0.270905	0.655847
C36	C	1.187595	0.263863	0.531184
C37	C	1.262362	0.203847	0.468843
C38	C	1.271127	0.196811	0.344178
C39	C	1.130356	0.309795	0.344208
C40	C	1.121596	0.316837	0.468871
H41	H	0.888149	0.361447	0.000004
C42	C	1.353370	0.130803	0.275599
H43	H	1.349146	0.134202	0.192428
H44	H	1.340566	0.069401	0.296031
H45	H	1.421146	0.148097	0.296018
C46	C	1.039363	0.382853	0.537452
H47	H	1.043601	0.379465	0.620621
H48	H	0.971585	0.365577	0.517038
H49	H	1.052187	0.444256	0.517015
H50	H	0.736201	0.040154	0.000026
C51	C	1.392198	0.099647	0.724366
H52	H	1.376269	0.112428	0.807540
H53	H	1.462847	0.114618	0.703919
H54	H	1.382250	0.035935	0.703940
C55	C	1.096597	0.336913	0.724435
H56	H	1.100838	0.333519	0.807604
H57	H	1.028821	0.319632	0.704021
H58	H	1.109413	0.398319	0.704008
H59	H	1.076618	0.352933	0.293458
H60	H	0.713735	0.427575	0.000008
H61	H	0.517545	0.407240	0.000014
C62	C	0.549822	0.080982	0.000025
H63	H	0.475923	0.085387	0.000023
H64	H	0.567694	0.052641	0.069090
H65	H	0.577415	0.044836	-0.069047
C66	C	0.951352	0.038384	0.000010
H67	H	1.021757	0.057740	0.000015
H68	H	0.943502	-0.001430	-0.069054
H69	H	0.933777	0.006368	0.069083
H70	H	1.389247	0.102012	0.480398
