data_functionalizedCrystal
_audit_creation_method	'MofGen! by Chris Wilmer'
_symmetry_space_group_name_H-M	'P1'
_symmetry_Int_Tables_number	1
_symmetry_cell_setting	triclinic
loop_
_symmetry_equiv_pos_as_xyz
  x,y,z
_cell_length_a	15.021413
_cell_length_b	14.519709
_cell_length_c	14.519709
_cell_angle_alpha	96.319855
_cell_angle_beta	89.998665
_cell_angle_gamma	89.998426
loop_
_atom_site_label
_atom_site_type_symbol
_atom_site_fract_x
_atom_site_fract_y
_atom_site_fract_z
O1	O	0.073918	-1.223872	0.120881
O2	O	0.073946	-0.955395	0.135118
O3	O	0.073923	-1.096752	-0.006239
O4	O	0.073941	-1.082515	0.262238
O5	O	-0.074141	-1.096730	-0.006223
O6	O	-0.074119	-0.955374	0.135133
O7	O	-0.074146	-1.223851	0.120897
Zn8	Zn	-0.097641	-1.089609	0.128017
Zn9	Zn	0.097440	-1.089637	0.127997
O10	O	-0.074124	-1.082494	0.262253
C11	C	-0.000109	-1.096078	-0.040591
C12	C	-0.000109	-1.094090	-0.142972
C13	C	-0.000083	-0.921025	0.134462
C14	C	-0.000073	-0.818643	0.132474
N15	N	-0.230778	-1.089596	0.128031
C16	C	-0.529783	-1.024776	0.193906
C17	C	-0.470427	-1.005982	0.110797
C18	C	-0.587815	-1.089636	0.127993
C19	C	-0.470429	-1.108366	0.211119
C20	C	-0.412391	-1.089614	0.128016
C21	C	-0.529766	-1.070801	0.044841
C22	C	-0.529773	-1.173222	0.145218
C23	C	-0.470444	-1.154463	0.062048
C24	C	-0.688873	-1.089647	0.127981
C25	C	-0.311336	-1.089604	0.128019
N26	N	0.230578	-1.089657	0.127977
C27	C	-0.000116	-1.258221	0.121553
C28	C	-0.000120	-1.360602	0.123541
C29	C	-0.000114	-0.443748	0.125154
C30	C	-0.000102	-0.548056	0.127187
C31	C	-0.000093	-0.631192	0.128814
C32	C	-0.000083	-0.735507	0.130847
C33	C	-0.000086	-1.086770	-0.517868
C34	C	-0.000092	-1.088803	-0.413560
C35	C	-0.000098	-1.090430	-0.330423
C36	C	-0.000104	-1.092463	-0.226109
C37	C	-0.000090	-1.083168	0.296606
C38	C	-0.000083	-1.085156	0.398987
H39	H	-0.555837	-0.969898	0.249574
C40	C	-0.435709	-0.911646	0.091556
C41	C	-0.465750	-0.844018	0.160764
C42	C	-0.433780	-0.757105	0.143082
H43	H	-0.456878	-0.897759	0.033004
H44	H	-0.372467	-0.912449	0.091184
H45	H	-0.528978	-0.843213	0.161126
H46	H	-0.444583	-0.857874	0.219323
H47	H	-0.370538	-0.757908	0.142711
H48	H	-0.454951	-0.743228	0.084529
H49	H	-0.454151	-0.711210	0.190041
H50	H	-0.444382	-1.124230	0.281410
C51	C	-0.564540	-1.049517	-0.048824
C52	C	-0.657742	-1.049716	-0.047722
C53	C	-0.689808	-1.030098	-0.133982
H54	H	-0.543843	-1.095275	-0.095730
H55	H	-0.543776	-0.990301	-0.061170
H56	H	-0.678497	-1.108923	-0.035387
H57	H	-0.678462	-1.003958	-0.000834
H58	H	-0.669044	-0.970882	-0.146328
H59	H	-0.669105	-1.075858	-0.180882
H60	H	-0.753048	-1.030222	-0.133244
C61	C	-0.564394	-1.267505	0.164733
C62	C	-0.492406	-1.325950	0.177736
C63	C	-0.524265	-1.412805	0.195740
H64	H	-0.599156	-1.293663	0.113787
H65	H	-0.600067	-1.260618	0.219088
H66	H	-0.456748	-1.332839	0.123388
H67	H	-0.457637	-1.299821	0.228685
H68	H	-0.559938	-1.405919	0.250095
H69	H	-0.559027	-1.438955	0.144791
H70	H	-0.475427	-1.452468	0.204573
H71	H	-0.444555	-1.209307	0.006256
