data_functionalizedCrystal
_audit_creation_method	'MofGen! by Chris Wilmer'
_symmetry_space_group_name_H-M	'P1'
_symmetry_Int_Tables_number	1
_symmetry_cell_setting	triclinic
loop_
_symmetry_equiv_pos_as_xyz
  x,y,z
_cell_length_a	8.559649
_cell_length_b	11.792241
_cell_length_c	7.681481
_cell_angle_alpha	84.218353
_cell_angle_beta	85.087445
_cell_angle_gamma	103.013960
loop_
_atom_site_label
_atom_site_type_symbol
_atom_site_fract_x
_atom_site_fract_y
_atom_site_fract_z
O1	O	-2.104791	-0.026421	-0.146429
O2	O	-1.640094	0.032150	-0.146433
O3	O	-1.883721	-0.163340	-0.146418
O4	O	-1.861165	0.169068	-0.146443
O5	O	-1.913707	-0.187450	0.146441
O6	O	-1.670080	0.008040	0.146427
O7	O	-2.134777	-0.050531	0.146431
Zn8	Zn	-1.907190	-0.025074	0.192927
Zn9	Zn	-1.867682	0.006692	-0.192928
O10	O	-1.891151	0.144958	0.146417
C11	C	-1.595596	0.024533	-0.000003
C12	C	-1.418330	0.037745	-0.000004
C13	C	-1.897297	-0.217556	0.000011
C14	C	-1.893057	-0.343181	0.000009
C15	C	-1.885256	-0.573177	-0.000020
C16	C	-1.889590	-0.445190	-0.000004
C17	C	-1.179276	-0.042915	0.000001
C18	C	-1.356541	-0.056127	0.000001
C19	C	-1.877574	0.199175	-0.000017
C20	C	-1.881813	0.324801	-0.000026
N21	N	-1.934164	-0.046755	0.456263
N22	N	-1.840720	0.028363	-0.456264
H23	H	-1.439254	-0.146602	-0.000002
H24	H	-1.335606	0.128228	-0.000020
N25	N	-2.053818	-0.142954	0.550619
N26	N	-2.012863	-0.217286	0.653537
H27	H	-2.097362	-0.285230	0.720177
H28	H	-1.745332	0.105037	0.468533
