data_functionalizedCrystal
_audit_creation_method	'MofGen! by Chris Wilmer'
_symmetry_space_group_name_H-M	'P1'
_symmetry_Int_Tables_number	1
_symmetry_cell_setting	triclinic
loop_
_symmetry_equiv_pos_as_xyz
  x,y,z
_cell_length_a	15.995350
_cell_length_b	15.995350
_cell_length_c	14.472310
_cell_angle_alpha	89.998838
_cell_angle_beta	90.009379
_cell_angle_gamma	83.492375
loop_
_atom_site_label
_atom_site_type_symbol
_atom_site_fract_x
_atom_site_fract_y
_atom_site_fract_z
O1	O	-1.110997	-0.107921	-0.076758
O2	O	-0.610997	0.392079	0.423242
O3	O	-0.867221	-0.121248	-0.076776
O4	O	-0.367221	0.378752	0.423224
O5	O	-0.995773	0.007303	-0.076766
O6	O	-0.495773	0.507303	0.423234
O7	O	-0.982445	-0.236472	-0.076769
O8	O	-0.482445	0.263528	0.423231
O9	O	-0.995740	0.007296	0.076916
O10	O	-0.495740	0.507296	0.576916
O11	O	-0.867188	-0.121256	0.076906
O12	O	-0.367188	0.378744	0.576906
O13	O	-1.110963	-0.107928	0.076924
O14	O	-0.610963	0.392072	0.576924
Cu15	Cu	-0.989073	-0.114593	0.090947
Cu16	Cu	-0.489073	0.385407	0.590947
Cu17	Cu	-0.989112	-0.114584	-0.090800
Cu18	Cu	-0.489112	0.385416	0.409200
O19	O	-0.982412	-0.236480	0.076913
O20	O	-0.482412	0.263520	0.576913
C21	C	-0.836010	-0.120701	0.000062
C22	C	-0.336010	0.379299	0.500062
C23	C	-0.743060	-0.119049	0.000055
C24	C	-0.243060	0.380951	0.500055
C25	C	-0.995205	0.038494	0.000073
C26	C	-0.495205	0.538494	0.500073
C27	C	-0.993553	0.131444	0.000068
C28	C	-0.493553	0.631444	0.500068
C29	C	-1.142175	-0.108476	0.000083
C30	C	-0.642175	0.391524	0.500083
C31	C	-1.235125	-0.110127	0.000084
C32	C	-0.735125	0.389873	0.500084
C33	C	-0.405312	-0.113117	0.000074
C34	C	0.094688	0.386883	0.500074
C35	C	-0.452746	-0.021565	0.000418
C36	C	0.047254	0.478435	0.500418
C37	C	-0.549436	-0.023217	0.000065
C38	C	-0.049436	0.476783	0.500065
C39	C	-0.572873	-0.116060	0.000065
C40	C	-0.072873	0.383940	0.500065
C41	C	-0.531804	-0.161212	-0.087692
C42	C	-0.031804	0.338788	0.412308
C43	C	-0.435169	-0.158912	-0.087759
C44	C	0.064831	0.341088	0.412241
C45	C	-0.434792	-0.160812	0.087007
C46	C	0.065208	0.339188	0.587007
C47	C	-0.531737	-0.160790	0.088160
C48	C	-0.031737	0.339210	0.588160
C49	C	-0.667570	-0.117727	0.000057
C50	C	-0.167570	0.382273	0.500057
C51	C	-0.310614	-0.111452	0.000076
C52	C	0.189386	0.388548	0.500076
C53	C	-0.982980	-0.267671	0.000072
C54	C	-0.482980	0.232329	0.500072
C55	C	-0.984631	-0.360621	0.000071
C56	C	-0.484631	0.139379	0.500071
N57	N	-0.989051	-0.114598	0.218778
N58	N	-0.489051	0.385402	0.718778
C59	C	-0.987621	0.469192	0.000071
C60	C	-0.487621	0.969192	0.500071
C61	C	-0.896069	0.421758	-0.000281
C62	C	-0.396069	0.921758	0.499719
C63	C	-0.897721	0.325068	0.000066
C64	C	-0.397721	0.825068	0.500066
C65	C	-0.990564	0.301631	0.000069
C66	C	-0.490564	0.801631	0.500069
C67	C	-1.035701	0.342705	0.087831
C68	C	-0.535701	0.842705	0.587831
C69	C	-1.033401	0.439340	0.087904
C70	C	-0.533401	0.939340	0.587904
C71	C	-1.035330	0.439707	-0.086861
C72	C	-0.535330	0.939707	0.413139
C73	C	-1.035309	0.342762	-0.088021
C74	C	-0.535309	0.842762	0.411979
C75	C	-0.992231	0.206934	0.000071
C76	C	-0.492231	0.706934	0.500071
C77	C	-0.985956	0.563890	0.000075
C78	C	-0.485956	1.063890	0.500075
N79	N	-0.989140	-0.114572	-0.218631
N80	N	-0.489140	0.385428	0.281369
C81	C	-0.989111	-0.114581	0.592869
C82	C	-0.489111	0.385419	1.092869
C83	C	-0.920095	-0.183135	0.553698
C84	C	-0.420095	0.316865	1.053698
C85	C	-0.920254	-0.183385	0.446610
C86	C	-0.420254	0.316615	0.946610
C87	C	-0.989081	-0.114590	0.407278
C88	C	-0.489081	0.385410	0.907278
C89	C	-1.076445	-0.133671	0.446122
C90	C	-0.576445	0.366329	0.946122
C91	C	-1.076057	-0.134159	0.553243
C92	C	-0.576057	0.365841	1.053243
C93	C	-0.971542	-0.026741	0.553398
C94	C	-0.471542	0.473259	1.053398
C95	C	-0.969538	-0.027327	0.446270
C96	C	-0.469538	0.472673	0.946270
C97	C	-0.989069	-0.114593	0.302390
C98	C	-0.489069	0.385407	0.802390
C99	C	-0.989128	-0.114579	0.697757
C100	C	-0.489128	0.385421	1.197757
H101	H	-0.577852	0.012275	0.062973
H102	H	-0.077852	0.512275	0.562973
H103	H	-0.859626	0.441349	0.062299
H104	H	-0.359626	0.941349	0.562299
H105	H	-1.092297	-0.197002	0.419285
H106	H	-0.592297	0.302998	0.919285
C107	C	-0.849777	0.286670	-0.084911
C108	C	-0.349777	0.786670	0.415089
H109	H	-0.829109	0.330160	-0.119954
H110	H	-0.329109	0.830160	0.380046
H111	H	-0.886678	0.258381	-0.122043
H112	H	-0.386678	0.758381	0.377957
H113	H	-0.803945	0.247790	-0.065156
H114	H	-0.303945	0.747790	0.434844
H115	H	-0.859490	0.440293	-0.063217
H116	H	-0.359490	0.940293	0.436783
H117	H	-1.004324	0.314320	0.153137
H118	H	-0.504324	0.814320	0.653137
C119	C	-1.147514	-0.069272	0.588252
C120	C	-0.647514	0.430728	1.088252
H121	H	-1.176656	-0.042737	0.537003
H122	H	-0.676656	0.457263	1.037003
H123	H	-1.124492	-0.028127	0.624732
H124	H	-0.624492	0.471873	1.124732
H125	H	-1.185490	-0.096931	0.624604
H126	H	-0.685490	0.403069	1.124604
H127	H	-0.545930	-0.229421	-0.090955
H128	H	-0.045930	0.270579	0.409045
H129	H	-1.002307	0.315516	-0.152945
H130	H	-0.502307	0.815516	0.347055
C131	C	-0.407034	-0.120386	0.176867
C132	C	0.092966	0.379614	0.676867
H133	H	-0.377204	-0.074035	0.162204
H134	H	0.122796	0.425965	0.662204
H135	H	-0.371555	-0.160790	0.211129
H136	H	0.128445	0.339210	0.711129
H137	H	-0.455223	-0.101372	0.212696
H138	H	0.044777	0.398628	0.712696
C139	C	-0.391601	-0.249708	-0.093163
C140	C	0.108399	0.250292	0.406837
H141	H	-0.432985	-0.287835	-0.095315
H142	H	0.067015	0.212165	0.404685
H143	H	-0.357073	-0.261269	-0.040248
H144	H	0.142927	0.238731	0.459752
H145	H	-0.357877	-0.256038	-0.147285
H146	H	0.142123	0.243962	0.352715
H147	H	-0.854945	-0.171953	0.579481
H148	H	-0.354945	0.328047	1.079481
H149	H	-1.005412	0.460250	-0.153379
H150	H	-0.505412	0.960250	0.346621
H151	H	-0.855314	-0.172016	0.420349
H152	H	-0.355314	0.327984	0.920349
H153	H	-0.434210	0.015027	0.063352
H154	H	0.065790	0.515027	0.563352
C155	C	-0.568612	-0.116264	0.175867
C156	C	-0.068612	0.383736	0.675867
H157	H	-0.608913	-0.070606	0.158878
H158	H	-0.108913	0.429394	0.658878
H159	H	-0.524711	-0.095698	0.210333
H160	H	-0.024711	0.404302	0.710333
H161	H	-0.594984	-0.155019	0.212491
H162	H	-0.094984	0.344981	0.712491
C163	C	-1.039520	0.042183	0.587623
C164	C	-0.539520	0.542183	1.087623
H165	H	-1.028570	0.095114	0.563541
H166	H	-0.528570	0.595114	1.063541
H167	H	-1.038699	0.044090	0.653218
H168	H	-0.538699	0.544090	1.153218
H169	H	-1.093234	0.029868	0.567212
H170	H	-0.593234	0.529868	1.067212
C171	C	-0.935040	-0.270700	0.590041
C172	C	-0.435040	0.229300	1.090041
H173	H	-0.983159	-0.265661	0.628980
H174	H	-0.483159	0.234339	1.128980
H175	H	-0.887243	-0.294013	0.624142
H176	H	-0.387243	0.205987	1.124142
H177	H	-0.943957	-0.306444	0.539415
H178	H	-0.443957	0.193556	1.039415
C179	C	-0.570144	-0.118837	-0.175922
C180	C	-0.070144	0.381163	0.324078
H181	H	-0.611167	-0.073635	-0.159467
H182	H	-0.111167	0.426365	0.340533
H183	H	-0.595886	-0.158825	-0.211430
H184	H	-0.095886	0.341175	0.288570
H185	H	-0.527026	-0.097889	-0.211295
H186	H	-0.027026	0.402111	0.288705
H187	H	-0.547101	-0.228494	0.093461
H188	H	-0.047101	0.271506	0.593461
H189	H	-0.861973	0.297200	0.063079
H190	H	-0.361973	0.797200	0.563079
H191	H	-1.000459	0.457639	0.153505
H192	H	-0.500459	0.957639	0.653505
H193	H	-1.129029	-0.085068	0.420643
H194	H	-0.629029	0.414932	0.920643
C195	C	-1.124198	0.482909	0.093304
C196	C	-0.624198	0.982909	0.593304
H197	H	-1.162324	0.441525	0.095451
H198	H	-0.662324	0.941525	0.595451
H199	H	-1.135760	0.517429	0.040388
H200	H	-0.635760	1.017429	0.540388
H201	H	-1.130526	0.516639	0.147426
H202	H	-0.630526	1.016639	0.647426
C203	C	-1.127842	0.323619	0.092253
C204	C	-0.627842	0.823619	0.592253
H205	H	-1.139628	0.290349	0.040494
H206	H	-0.639628	0.790349	0.540494
H207	H	-1.164148	0.374906	0.091442
H208	H	-0.664148	0.874906	0.591442
H209	H	-1.136588	0.293810	0.147550
H210	H	-0.636588	0.793810	0.647550
C211	C	-1.126516	0.482611	-0.087665
C212	C	-0.626516	0.982611	0.412335
H213	H	-1.155027	0.464542	-0.140346
H214	H	-0.655027	0.964542	0.359654
H215	H	-1.126200	0.541927	-0.089919
H216	H	-0.626200	1.041927	0.410081
H217	H	-1.154580	0.467819	-0.033221
H218	H	-0.654580	0.967819	0.466779
C219	C	-1.126775	0.322017	-0.095178
C220	C	-0.626775	0.822017	0.404822
H221	H	-1.138928	0.287853	-0.044306
H222	H	-0.638928	0.787853	0.455694
H223	H	-1.133879	0.292675	-0.151190
H224	H	-0.633879	0.792675	0.348810
H225	H	-1.163954	0.372734	-0.094431
H226	H	-0.663954	0.872734	0.405569
C227	C	-0.410446	-0.114420	-0.176372
C228	C	0.089554	0.385580	0.323628
H229	H	-0.351286	-0.112629	-0.177197
H230	H	0.148714	0.387371	0.322803
H231	H	-0.438245	-0.058710	-0.177741
H232	H	0.061755	0.441290	0.322259
H233	H	-0.426546	-0.144487	-0.228853
H234	H	0.073454	0.355513	0.271147
H235	H	-0.931473	-0.248569	0.420976
H236	H	-0.431473	0.251431	0.920976
H237	H	-1.091540	-0.198219	0.578220
H238	H	-0.591540	0.301781	1.078220
H239	H	-0.909219	-0.008392	0.580461
H240	H	-0.409219	0.491608	1.080461
H241	H	-0.905272	-0.012845	0.420883
H242	H	-0.405272	0.487155	0.920883
C243	C	-1.033029	0.044826	0.410111
C244	C	-0.533029	0.544826	0.910111
H245	H	-1.019703	0.096748	0.434762
H246	H	-0.519703	0.596748	0.934762
H247	H	-1.088211	0.035640	0.428679
H248	H	-0.588211	0.535640	0.928679
H249	H	-1.030333	0.046610	0.344576
H250	H	-0.530333	0.546610	0.844576
C251	C	-0.426294	0.027655	-0.084123
C252	C	0.073706	0.527655	0.415877
H253	H	-0.386471	-0.007348	-0.119630
H254	H	0.113529	0.492652	0.380370
H255	H	-0.401747	0.075851	-0.063941
H256	H	0.098253	0.575851	0.436059
H257	H	-0.474349	0.044813	-0.120966
H258	H	0.025651	0.544813	0.379034
H259	H	-0.577308	0.012521	-0.062951
H260	H	-0.077308	0.512521	0.437049
H261	H	-0.403031	-0.228313	0.087600
H262	H	0.096969	0.271687	0.587600
