data_functionalizedCrystal
_audit_creation_method	'MofGen! by Chris Wilmer'
_symmetry_space_group_name_H-M	'P1'
_symmetry_Int_Tables_number	1
_symmetry_cell_setting	triclinic
loop_
_symmetry_equiv_pos_as_xyz
  x,y,z
_cell_length_a	12.759394
_cell_length_b	12.759395
_cell_length_c	17.077396
_cell_angle_alpha	90.017209
_cell_angle_beta	90.026316
_cell_angle_gamma	90.016374
loop_
_atom_site_label
_atom_site_type_symbol
_atom_site_fract_x
_atom_site_fract_y
_atom_site_fract_z
Zn1	Zn	-0.418223	1.606233	0.443807
Zn2	Zn	-0.593924	1.606134	0.312546
Zn3	Zn	-0.418264	1.430542	0.312560
Zn4	Zn	-0.593866	1.430524	0.443774
O5	O	-0.506069	1.518358	0.378172
O6	O	-0.441538	1.753241	0.426402
O7	O	-0.570664	1.582807	0.202700
O8	O	-0.271238	1.453897	0.329989
O9	O	-0.570624	1.753168	0.329965
O10	O	-0.271208	1.582977	0.426416
O11	O	-0.441607	1.453800	0.202711
O12	O	-0.441551	1.283518	0.329958
O13	O	-0.570525	1.453866	0.553626
O14	O	-0.570565	1.283505	0.426361
O15	O	-0.441481	1.582959	0.553649
O16	O	-0.740937	1.582789	0.329934
O17	O	-0.740895	1.453769	0.426347
C18	C	-0.506057	1.245391	0.378158
C19	C	-0.506076	1.128614	0.378171
C20	C	-0.640636	1.128639	0.478393
C21	C	-0.707923	1.073790	0.528506
C22	C	-0.707936	0.964069	0.528516
C23	C	-0.640652	0.909193	0.478408
C24	C	-0.573364	0.964041	0.428295
C25	C	-0.573361	1.073765	0.428289
C26	C	-0.438801	0.964017	0.328078
C27	C	-0.438792	1.073738	0.328064
C28	C	-0.371516	0.909141	0.277971
C29	C	-0.304232	0.963989	0.227853
C30	C	-0.304223	1.073718	0.227845
C31	C	-0.371504	1.128587	0.277950
C32	C	-0.779037	1.518295	0.378153
C33	C	-0.895814	1.518364	0.378171
C34	C	-0.895805	1.652814	0.277851
C35	C	-0.950661	1.720066	0.227700
C36	C	-1.060383	1.720127	0.227721
C37	C	-1.115250	1.652932	0.277900
C38	C	-1.060394	1.585680	0.328051
C39	C	-0.950670	1.585623	0.328023
C40	C	-1.060403	1.451237	0.428374
C41	C	-0.950681	1.451169	0.428350
C42	C	-1.115270	1.384042	0.478553
C43	C	-1.060414	1.316783	0.528701
C44	C	-0.950686	1.316723	0.528677
C45	C	-0.895825	1.383917	0.478501
C46	C	-0.232036	1.518450	0.378208
C47	C	-0.115259	1.518489	0.378223
C48	C	-0.505992	1.518422	0.582916
C49	C	-0.505959	1.518449	0.670166
C50	C	-0.506083	1.792392	0.378186
C51	C	-0.506089	1.909168	0.378192
C52	C	-0.506071	1.518355	0.174224
C53	C	-0.505808	1.518532	0.086974
C54	C	-0.438760	1.585670	0.711169
C55	C	-0.438725	1.585683	0.793150
C56	C	-0.505895	1.518479	0.834125
C57	C	-0.573097	1.451250	0.793116
C58	C	-0.573126	1.451233	0.711137
C59	C	-0.573034	1.451292	0.963986
C60	C	-0.573006	1.451310	1.045971
C61	C	-0.438633	1.585742	1.045999
C62	C	-0.438662	1.585725	0.964020
C63	C	-0.505865	1.518497	0.923016
H64	H	-0.640640	1.217980	0.478384
H65	H	-0.762703	1.118482	0.569303
H66	H	-0.806464	1.652757	0.277818
H67	H	-0.383912	1.640480	1.079388
H68	H	-0.249422	1.118369	0.187042
H69	H	-0.906027	1.261962	0.569519
H70	H	-0.383973	1.640455	0.930660
H71	H	-0.905978	1.774778	0.186846
H72	H	-0.762722	0.919411	0.569326
H73	H	-0.640659	0.819852	0.478427
H74	H	-1.105047	1.774895	0.186888
H75	H	-0.384008	1.640424	0.826532
H76	H	-1.204592	1.652997	0.277920
H77	H	-0.627741	1.396532	0.930603
H78	H	-0.627699	1.396585	1.079330
H79	H	-1.204612	1.384101	0.478570
H80	H	-0.371527	0.819800	0.277986
H81	H	-0.806484	1.383868	0.478471
H82	H	-0.384066	1.640399	0.677813
H83	H	-0.627784	1.396527	0.826484
H84	H	-0.627835	1.396484	0.677753
H85	H	-0.249450	0.919301	0.187063
H86	H	-1.105096	1.262083	0.569556
H87	H	-0.371506	1.217928	0.277946
