data_functionalizedCrystal
_audit_creation_method	'MofGen! by Chris Wilmer'
_symmetry_space_group_name_H-M	'P1'
_symmetry_Int_Tables_number	1
_symmetry_cell_setting	triclinic
loop_
_symmetry_equiv_pos_as_xyz
  x,y,z
_cell_length_a	10.489741
_cell_length_b	9.565339
_cell_length_c	10.489716
_cell_angle_alpha	90.000972
_cell_angle_beta	84.534155
_cell_angle_gamma	90.001147
loop_
_atom_site_label
_atom_site_type_symbol
_atom_site_fract_x
_atom_site_fract_y
_atom_site_fract_z
O1	O	1.694038	0.116180	0.179959
O2	O	1.322840	0.116203	0.196852
O3	O	1.516902	0.116175	0.002806
O4	O	1.499976	0.116208	0.374006
O5	O	1.516885	-0.116345	0.002821
O6	O	1.322824	-0.116317	0.196867
O7	O	1.694021	-0.116340	0.179974
Zn8	Zn	1.508420	-0.153246	0.188423
Zn9	Zn	1.508442	0.153109	0.188403
O10	O	1.499960	-0.116312	0.374021
C11	C	1.275301	-0.000055	0.195584
C12	C	1.133672	-0.000047	0.191767
C13	C	1.065542	-0.000071	0.068301
C14	C	0.973418	0.114576	0.126617
C15	C	0.973436	-0.114671	0.126662
C16	C	1.043413	0.114695	0.250134
C17	C	1.043440	-0.114655	0.250161
C18	C	0.951344	0.000020	0.308568
N19	N	1.508414	-0.362325	0.188436
C20	C	1.419414	-0.546685	0.278876
C21	C	1.392569	-0.453468	0.163731
C22	C	1.535203	-0.453474	0.303571
C23	C	1.481554	-0.546646	0.073177
C24	C	1.624239	-0.546660	0.213093
C25	C	1.597441	-0.453484	0.097865
C26	C	1.741561	-0.000079	0.181243
C27	C	1.883190	-0.000078	0.185060
C28	C	1.515622	-0.000086	-0.044719
C29	C	1.511817	-0.000090	-0.186350
N30	N	1.508457	0.362189	0.188381
C31	C	1.501240	-0.000047	0.421545
C32	C	1.505044	-0.000035	0.563176
C33	C	1.386040	-0.000047	0.660850
C34	C	1.448933	0.114582	0.738218
C35	C	1.448944	-0.114665	0.738168
C36	C	1.567888	0.114689	0.638678
C37	C	1.567881	-0.114660	0.638623
C38	C	1.630862	-0.000003	0.715942
H39	H	0.942416	0.211494	0.074370
H40	H	1.458800	-0.587401	-0.024236
H41	H	0.901911	0.000092	0.410172
C42	C	1.442203	0.365413	0.744780
C43	C	1.381136	0.245417	0.796967
H44	H	1.400337	0.446177	0.781048
H45	H	1.529103	0.365514	0.763258
H46	H	1.438565	0.365935	0.654640
H47	H	1.384782	0.244889	0.887106
H48	H	1.294214	0.245315	0.778499
H49	H	1.074243	0.211730	0.302328
C50	C	1.631384	0.244562	0.447234
C51	C	1.635660	0.245689	0.580242
H52	H	1.673213	0.325441	0.411161
H53	H	1.673347	0.163264	0.412284
H54	H	1.544687	0.244239	0.428057
H55	H	1.722358	0.246001	0.599420
H56	H	1.593700	0.327008	0.615205
C57	C	1.050418	-0.365444	0.255805
C58	C	1.085359	-0.245492	0.320631
H59	H	1.076308	-0.446224	0.299299
H60	H	0.960162	-0.366856	0.253218
H61	H	1.091106	-0.364610	0.170935
H62	H	1.044663	-0.246321	0.405498
H63	H	1.175631	-0.244080	0.323231
H64	H	1.672727	-0.412821	0.021277
H65	H	1.618065	-0.211588	0.595100
H66	H	1.734453	0.000048	0.740372
C67	C	0.989816	-0.245291	-0.069675
C68	C	0.931613	-0.245522	0.056126
H69	H	0.964003	-0.326073	-0.113223
H70	H	0.964675	-0.163894	-0.112702
H71	H	1.080246	-0.245775	-0.068415
H72	H	0.841183	-0.245028	0.054866
H73	H	0.956746	-0.326941	0.099163
C74	C	1.196529	-0.554889	0.355867
C75	C	1.317725	-0.601939	0.382038
H76	H	1.133751	-0.589008	0.419549
H77	H	1.195305	-0.455600	0.356086
H78	H	1.178330	-0.588172	0.274223
H79	H	1.335927	-0.568646	0.463679
H80	H	1.318951	-0.701249	0.381832
C81	C	1.253004	-0.245277	0.769538
C82	C	1.381101	-0.245525	0.796814
H83	H	1.211121	-0.326069	0.805730
H84	H	1.211607	-0.163890	0.804989
H85	H	1.249413	-0.245729	0.679392
H86	H	1.384693	-0.245063	0.886961
H87	H	1.422509	-0.326934	0.761368
H88	H	1.722140	-0.587629	0.234019
C89	C	1.097502	0.120281	-0.133076
C90	C	1.132606	0.000076	-0.068727
H91	H	1.138916	0.120379	-0.217664
H92	H	1.007342	0.121094	-0.136456
H93	H	1.122462	0.200892	-0.088757
H94	H	1.107637	-0.080536	-0.113041
H95	H	1.222786	-0.000750	-0.065353
H96	H	1.294638	-0.412523	0.142848
H97	H	1.557859	-0.412573	0.400967
C98	C	1.224478	0.119059	0.554880
C99	C	1.246310	0.000115	0.627512
H100	H	1.138220	0.119157	0.534289
H101	H	1.239883	0.200517	0.602874
H102	H	1.280513	0.118156	0.478205
H103	H	1.190281	0.001024	0.704191
H104	H	1.230892	-0.081363	0.579517
