data_functionalizedCrystal
_audit_creation_method	'MofGen! by Chris Wilmer'
_symmetry_space_group_name_H-M	'P1'
_symmetry_Int_Tables_number	1
_symmetry_cell_setting	triclinic
loop_
_symmetry_equiv_pos_as_xyz
  x,y,z
_cell_length_a	16.120484
_cell_length_b	19.077105
_cell_length_c	16.120297
_cell_angle_alpha	89.301750
_cell_angle_beta	95.614431
_cell_angle_gamma	89.261477
loop_
_atom_site_label
_atom_site_type_symbol
_atom_site_fract_x
_atom_site_fract_y
_atom_site_fract_z
Zn1	Zn	-0.408728	-1.035311	-0.541298
Zn2	Zn	-0.541413	-1.035223	-0.408604
Zn3	Zn	-0.396094	-0.924375	-0.395989
Zn4	Zn	-0.542259	-0.911827	-0.542147
O5	O	-0.472123	-0.976684	-0.472009
O6	O	-0.431262	-1.133368	-0.528620
O7	O	-0.516495	-1.025733	-0.290230
O8	O	-0.281070	-0.944379	-0.409629
O9	O	-0.528745	-1.133303	-0.431130
O10	O	-0.290352	-1.025883	-0.516387
O11	O	-0.409729	-0.944293	-0.280961
O12	O	-0.410550	-0.824641	-0.410453
O13	O	-0.530187	-0.922993	-0.658735
O14	O	-0.517936	-0.815423	-0.517835
O15	O	-0.432082	-1.013716	-0.658111
O16	O	-0.658225	-1.013566	-0.431954
O17	O	-0.658846	-0.922907	-0.530067
C18	C	-0.462964	-0.794604	-0.462868
C19	C	-0.459067	-0.716707	-0.458977
C20	C	-0.688796	-0.966884	-0.482491
C21	C	-0.781495	-0.962754	-0.487006
C22	C	-0.482638	-0.966965	-0.689528
C23	C	-0.487119	-0.962823	-0.782222
C24	C	-0.951216	-0.955218	-0.495266
C25	C	-0.992197	-0.998275	-0.448772
C26	C	-1.086636	-0.994082	-0.453368
C27	C	-0.856769	-0.959410	-0.490671
C28	C	-0.254606	-0.986541	-0.461506
C29	C	-0.161913	-0.990741	-0.457030
C30	C	-0.481318	-1.159475	-0.481187
C31	C	-0.485237	-1.237370	-0.485098
C32	C	-0.513223	-0.675330	-0.512978
C33	C	-0.509551	-0.602138	-0.509326
C34	C	-0.451726	-0.570325	-0.451670
C35	C	-0.397564	-0.611708	-0.397667
C36	C	-0.401233	-0.684898	-0.401323
C37	C	-0.434744	-0.351943	-0.434752
C38	C	-0.431081	-0.278747	-0.431098
C39	C	-0.543067	-0.269182	-0.542759
C40	C	-0.546735	-0.342375	-0.546407
C41	C	-0.492570	-0.383751	-0.492407
N42	N	-0.447972	-0.495512	-0.447934
N43	N	-0.496320	-0.458563	-0.496147
C44	C	-0.495280	-0.955237	-0.951932
C45	C	-0.448724	-0.998280	-0.992933
C46	C	-0.453265	-0.994059	-1.087365
C47	C	-0.490740	-0.959457	-0.857491
C48	C	-0.461591	-0.986408	-0.255335
C49	C	-0.456882	-0.990696	-0.162638
H50	H	-0.956355	-1.038287	-0.405515
H51	H	-0.987055	-0.915208	-0.538519
H52	H	-0.538545	-0.915220	-0.987750
C53	C	-0.341659	-0.730413	-0.341916
N54	N	-0.296784	-0.764694	-0.297170
C55	C	-0.375166	-0.397447	-0.375344
N56	N	-0.330290	-0.431724	-0.330595
C57	C	-0.390277	-1.052353	-0.944544
N58	N	-0.346261	-1.093081	-0.908095
H59	H	-0.560313	-0.701227	-0.559926
H60	H	-0.593824	-0.368271	-0.593355
C61	C	-0.569142	-0.556627	-0.568716
N62	N	-0.614034	-0.522347	-0.613447
H63	H	-0.587164	-0.235486	-0.586724
H64	H	-0.383983	-0.252847	-0.384151
C65	C	-0.333953	-0.576711	-0.334245
N66	N	-0.286043	-0.550352	-0.286473
