data_functionalizedCrystal
_audit_creation_method	'MofGen! by Chris Wilmer'
_symmetry_space_group_name_H-M	'P1'
_symmetry_Int_Tables_number	1
_symmetry_cell_setting	triclinic
loop_
_symmetry_equiv_pos_as_xyz
  x,y,z
_cell_length_a	18.050591
_cell_length_b	18.050590
_cell_length_c	18.050582
_cell_angle_alpha	90.023337
_cell_angle_beta	90.019760
_cell_angle_gamma	90.015000
loop_
_atom_site_label
_atom_site_type_symbol
_atom_site_fract_x
_atom_site_fract_y
_atom_site_fract_z
Zn1	Zn	1.135342	-0.295777	0.420004
Zn2	Zn	1.468676	0.037556	0.753338
Zn3	Zn	1.802009	0.370890	1.086671
Zn4	Zn	1.135274	-0.419960	0.295813
Zn5	Zn	1.468607	-0.086627	0.629146
Zn6	Zn	1.801941	0.246706	0.962479
Zn7	Zn	1.011162	-0.295781	0.295818
Zn8	Zn	1.344495	0.037552	0.629151
Zn9	Zn	1.677828	0.370886	0.962485
Zn10	Zn	1.011131	-0.419922	0.419951
Zn11	Zn	1.344464	-0.086589	0.753284
Zn12	Zn	1.677797	0.246745	1.086617
O13	O	1.073227	-0.357860	0.357897
O14	O	1.406561	-0.024527	0.691230
O15	O	1.739894	0.308807	1.024563
O16	O	1.239258	-0.312265	0.403550
O17	O	1.572591	0.021069	0.736884
O18	O	1.905925	0.354402	1.070217
O19	O	1.118795	-0.403505	0.191889
O20	O	1.452128	-0.070172	0.525222
O21	O	1.785461	0.263161	0.858556
O22	O	1.027676	-0.191856	0.312316
O23	O	1.361009	0.141478	0.645650
O24	O	1.694343	0.474811	0.978983
O25	O	1.239208	-0.403501	0.312307
O26	O	1.572541	-0.070168	0.645641
O27	O	1.905874	0.263165	0.978974
O28	O	1.118911	-0.191853	0.403556
O29	O	1.452245	0.141480	0.736889
O30	O	1.785578	0.474814	1.070222
O31	O	1.027610	-0.312271	0.191893
O32	O	1.360943	0.021062	0.525226
O33	O	1.694276	0.354395	0.858559
O34	O	0.907233	-0.312234	0.312264
O35	O	1.240566	0.021099	0.645598
O36	O	1.573900	0.354433	0.978931
O37	O	1.027623	-0.403436	0.523883
O38	O	1.360956	-0.070103	0.857216
O39	O	1.694290	0.263230	1.190549
O40	O	0.907210	-0.403440	0.403464
O41	O	1.240543	-0.070107	0.736797
O42	O	1.573877	0.263227	1.070131
O43	O	1.118881	-0.312227	0.523922
O44	O	1.452214	0.021106	0.857255
O45	O	1.785548	0.354439	1.190589
O46	O	1.118765	-0.523880	0.312255
O47	O	1.452098	-0.190546	0.645589
O48	O	1.785431	0.142787	0.978922
O49	O	1.027557	-0.523852	0.403459
O50	O	1.360890	-0.190518	0.736792
O51	O	1.694224	0.142815	1.070126
C52	C	0.880275	-0.357834	0.357859
C53	C	1.213608	-0.024501	0.691193
C54	C	1.546942	0.308833	1.024526
C55	C	0.797729	-0.357841	0.357861
C56	C	1.131063	-0.024507	0.691194
C57	C	1.464396	0.308826	1.024528
C58	C	1.073170	-0.550812	0.357867
C59	C	1.406503	-0.217479	0.691200
C60	C	1.739837	0.115854	1.024534
C61	C	1.073214	-0.633358	0.357879
C62	C	1.406547	-0.300025	0.691212
C63	C	1.739880	0.033309	1.024546
C64	C	0.548895	-0.308191	0.308384
C65	C	0.882228	0.025142	0.641717
C66	C	1.215561	0.358475	0.975051
C67	C	0.598323	-0.290110	0.376160
C68	C	0.931657	0.043223	0.709494
C69	C	1.264990	0.376556	1.042827
C70	C	0.500609	-0.357879	0.357922
C71	C	0.833942	-0.024545	0.691255
C72	C	1.167276	0.308788	1.024589
C73	C	0.598262	-0.375906	0.290119
C74	C	0.931595	-0.042572	0.623453
C75	C	1.264928	0.290761	0.956786
C76	C	0.646594	-0.357858	0.357888
C77	C	0.979927	-0.024525	0.691222
C78	C	1.313261	0.308809	1.024555
C79	C	0.548951	-0.339762	0.425734
C80	C	0.882284	-0.006429	0.759068
C81	C	1.215617	0.326904	1.092401
C82	C	0.548884	-0.425589	0.339648
C83	C	0.882218	-0.092256	0.672981
C84	C	1.215551	0.241077	1.006314
C85	C	0.598291	-0.407534	0.407471
C86	C	0.931624	-0.074201	0.740804
C87	C	1.264958	0.259133	1.074137
C88	C	0.416511	-0.357888	0.357940
C89	C	0.749844	-0.024555	0.691273
C90	C	1.083177	0.308778	1.024607
C91	C	0.730690	-0.357848	0.357878
C92	C	1.064024	-0.024515	0.691211
C93	C	1.397357	0.308818	1.024544
C94	C	1.122916	-0.832797	0.308352
C95	C	1.456249	-0.499464	0.641685
C96	C	1.789582	-0.166130	0.975018
C97	C	1.141051	-0.882137	0.376133
C98	C	1.474384	-0.548803	0.709467
C99	C	1.807718	-0.215470	1.042800
C100	C	1.073256	-0.784488	0.357909
C101	C	1.406589	-0.451155	0.691242
C102	C	1.739922	-0.117822	1.024575
C103	C	1.055196	-0.882230	0.290158
C104	C	1.388529	-0.548897	0.623491
C105	C	1.721863	-0.215564	0.956824
C106	C	1.073298	-0.930473	0.357931
C107	C	1.406631	-0.597140	0.691265
C108	C	1.739965	-0.263807	1.024598
C109	C	1.091426	-0.832741	0.425726
C110	C	1.424759	-0.499407	0.759059
C111	C	1.758093	-0.166074	1.092393
C112	C	1.005539	-0.832830	0.339704
C113	C	1.338873	-0.499497	0.673038
C114	C	1.672206	-0.166163	1.006371
C115	C	1.023649	-0.882147	0.407533
C116	C	1.356982	-0.548814	0.740866
C117	C	1.690316	-0.215481	1.074199
C118	C	1.073233	-0.700390	0.357895
C119	C	1.406567	-0.367057	0.691228
C120	C	1.739900	-0.033723	1.024561
C121	C	1.073320	-1.014570	0.357953
C122	C	1.406653	-0.681237	0.691286
C123	C	1.739987	-0.347903	1.024620
C124	C	1.266933	-0.357887	0.357934
C125	C	1.600266	-0.024554	0.691268
C126	C	1.933599	0.308780	1.024601
C127	C	1.349479	-0.357898	0.357950
C128	C	1.682812	-0.024565	0.691284
C129	C	2.016145	0.308768	1.024617
C130	C	1.073256	-0.357827	0.551602
C131	C	1.406590	-0.024494	0.884936
C132	C	1.739923	0.308840	1.218269
C133	C	1.073269	-0.357813	0.634148
C134	C	1.406602	-0.024480	0.967481
C135	C	1.739935	0.308854	1.300815
C136	C	1.073305	-0.164154	0.357943
C137	C	1.406638	0.169179	0.691276
C138	C	1.739971	0.502512	1.024609
C139	C	1.073338	-0.081609	0.357962
C140	C	1.406671	0.251725	0.691295
C141	C	1.740004	0.585058	1.024629
C142	C	1.073241	-0.357839	0.164944
C143	C	1.406574	-0.024506	0.498278
C144	C	1.739908	0.308827	0.831611
C145	C	1.073372	-0.357644	0.082399
C146	C	1.406706	-0.024311	0.415732
C147	C	1.740039	0.309023	0.749066
C148	C	1.023681	-0.407345	0.833577
C149	C	1.357014	-0.074011	1.166911
C150	C	1.690347	0.259322	1.500244
C151	C	1.091439	-0.425502	0.882974
C152	C	1.424772	-0.092169	1.216308
C153	C	1.758106	0.241164	1.549641
C154	C	1.073305	-0.357756	0.785278
C155	C	1.406639	-0.024423	1.118612
C156	C	1.739972	0.308910	1.451945
C157	C	1.005584	-0.339578	0.882963
C158	C	1.338918	-0.006245	1.216297
C159	C	1.672251	0.327089	1.549630
C160	C	1.073335	-0.357703	0.931264
C161	C	1.406668	-0.024370	1.264597
C162	C	1.740001	0.308964	1.597930
C163	C	1.141099	-0.375950	0.833588
C164	C	1.474432	-0.042616	1.166921
C165	C	1.807766	0.290717	1.500255
C166	C	1.055199	-0.289994	0.833573
C167	C	1.388532	0.043340	1.166906
C168	C	1.721865	0.376673	1.500240
C169	C	1.123004	-0.308126	0.882948
C170	C	1.456337	0.025208	1.216281
C171	C	1.789671	0.358541	1.549614
C172	C	1.073287	-0.357789	0.701180
C173	C	1.406621	-0.024456	1.034513
C174	C	1.739954	0.308878	1.367847
C175	C	1.073360	-0.357670	1.015360
C176	C	1.406694	-0.024337	1.348694
C177	C	1.740027	0.308996	1.682027
H178	H	0.620026	-0.232837	0.391616
H179	H	0.953360	0.100496	0.724950
H180	H	1.286693	0.433829	1.058283
N181	N	1.034936	-0.911011	0.214247
N182	N	1.368269	-0.577678	0.547580
N183	N	1.701602	-0.244344	0.880914
H184	H	0.984137	-0.892300	0.200104
H185	H	1.317470	-0.558967	0.533438
H186	H	1.650804	-0.225634	0.866771
H187	H	1.034671	-0.966957	0.214977
H188	H	1.368005	-0.633624	0.548310
H189	H	1.701338	-0.300290	0.881643
H190	H	1.039846	-0.232728	0.811857
H191	H	1.373180	0.100606	1.145190
H192	H	1.706513	0.433939	1.478524
N193	N	0.968033	-0.910661	0.463113
N194	N	1.301366	-0.577328	0.796446
N195	N	1.634699	-0.243994	1.129780
H196	H	0.981782	-0.892555	0.514253
H197	H	1.315116	-0.559221	0.847586
H198	H	1.648449	-0.225888	1.180920
H199	H	0.968057	-0.966609	0.462459
H200	H	1.301391	-0.633276	0.795792
H201	H	1.634724	-0.299942	1.129126
N202	N	1.216924	-0.910840	0.396550
N203	N	1.550258	-0.577507	0.729883
N204	N	1.883591	-0.244174	1.063216
H205	H	1.230970	-0.892064	0.447367
H206	H	1.564304	-0.558731	0.780700
H207	H	1.897637	-0.225398	1.114033
H208	H	1.254336	-0.892889	0.359033
H209	H	1.587669	-0.559556	0.692366
H210	H	1.921003	-0.226222	1.025699
H211	H	0.619924	-0.391162	0.232794
H212	H	0.953257	-0.057828	0.566127
H213	H	1.286591	0.275505	0.899461
N214	N	0.968144	-0.462958	0.804855
N215	N	1.301477	-0.129625	1.138189
N216	N	1.634811	0.203708	1.471522
H217	H	0.981934	-0.514113	0.822825
H218	H	1.315267	-0.180779	1.156159
H219	H	1.648600	0.152554	1.489492
H220	H	0.968217	-0.462186	0.748909
H221	H	1.301550	-0.128853	1.082243
H222	H	1.634884	0.204480	1.415576
N223	N	1.111776	-0.804070	0.501654
N224	N	1.445109	-0.470737	0.834987
N225	N	1.778442	-0.137403	1.168321
H226	H	1.162773	-0.822443	0.515523
H227	H	1.496106	-0.489109	0.848856
H228	H	1.829440	-0.155776	1.182189
H229	H	1.074489	-0.822447	0.539089
H230	H	1.407822	-0.489114	0.872422
H231	H	1.741155	-0.155781	1.205756
N232	N	0.520089	-0.501424	0.319154
N233	N	0.853423	-0.168091	0.652488
N234	N	1.186756	0.165242	0.985821
H235	H	0.464142	-0.500979	0.319798
H236	H	0.797475	-0.167646	0.653131
H237	H	1.130808	0.165687	0.986464
H238	H	0.538891	-0.539057	0.356030
H239	H	0.872224	-0.205724	0.689363
H240	H	1.205557	0.127609	1.022697
N241	N	0.626844	-0.463176	0.463008
N242	N	0.960177	-0.129843	0.796342
N243	N	1.293510	0.203491	1.129675
H244	H	0.682794	-0.463171	0.462391
H245	H	1.016127	-0.129838	0.795724
H246	H	1.349460	0.203495	1.129057
H247	H	0.608010	-0.514152	0.449647
H248	H	0.941343	-0.180819	0.782980
H249	H	1.274676	0.152515	1.116314
N250	N	1.178561	-0.804085	0.252901
N251	N	1.511895	-0.470752	0.586235
N252	N	1.845228	-0.137419	0.919568
H253	H	1.177817	-0.748137	0.252952
H254	H	1.511151	-0.414803	0.586285
H255	H	1.844484	-0.081470	0.919619
H256	H	1.165399	-0.822911	0.201869
H257	H	1.498732	-0.489578	0.535203
H258	H	1.832066	-0.156245	0.868536
H259	H	1.198399	-0.391368	0.811990
H260	H	1.531732	-0.058034	1.145324
H261	H	1.865066	0.275299	1.478657
H262	H	1.106771	-0.482785	0.904674
H263	H	1.440105	-0.149452	1.238007
H264	H	1.773438	0.183882	1.571340
N265	N	0.929683	-0.804106	0.319272
N266	N	1.263016	-0.470773	0.652605
N267	N	1.596350	-0.137440	0.985939
H268	H	0.895364	-0.847225	0.309516
H269	H	1.228698	-0.513892	0.642849
H270	H	1.562031	-0.180558	0.976183
H271	H	0.933509	-0.772531	0.273254
H272	H	1.266843	-0.439197	0.606587
H273	H	1.600176	-0.105864	0.939920
N274	N	0.520163	-0.252510	0.252976
N275	N	0.853497	0.080823	0.586310
N276	N	1.186830	0.414156	0.919643
H277	H	0.538150	-0.201368	0.266868
H278	H	0.871483	0.131966	0.600201
H279	H	1.204816	0.465299	0.933535
H280	H	0.464217	-0.253307	0.253067
H281	H	0.797551	0.080026	0.586400
H282	H	1.130884	0.413359	0.919734
N283	N	0.520387	-0.319467	0.501693
N284	N	0.853720	0.013866	0.835026
N285	N	1.187054	0.347199	1.168360
H286	H	0.464435	-0.319579	0.501232
H287	H	0.797769	0.013754	0.834565
H288	H	1.131102	0.347088	1.167899
H289	H	0.538862	-0.268492	0.515551
H290	H	0.872195	0.064841	0.848884
H291	H	1.205528	0.398175	1.182217
N292	N	1.178669	-0.252555	0.911501
N293	N	1.512002	0.080778	1.244834
N294	N	1.845335	0.414112	1.578167
H295	H	1.229790	-0.266364	0.893447
H296	H	1.563123	0.066969	1.226780
H297	H	1.896457	0.400302	1.560114
H298	H	1.178000	-0.252568	0.967448
H299	H	1.511333	0.080765	1.300781
H300	H	1.844666	0.414099	1.634115
H301	H	0.948301	-0.324225	0.904653
H302	H	1.281634	0.009108	1.237986
H303	H	1.614968	0.342442	1.571319
