data_functionalizedCrystal
_audit_creation_method	'MofGen! by Chris Wilmer'
_symmetry_space_group_name_H-M	'P1'
_symmetry_Int_Tables_number	1
_symmetry_cell_setting	triclinic
loop_
_symmetry_equiv_pos_as_xyz
  x,y,z
_cell_length_a	10.723024
_cell_length_b	9.730223
_cell_length_c	10.723024
_cell_angle_alpha	90.001141
_cell_angle_beta	95.532131
_cell_angle_gamma	90.002551
loop_
_atom_site_label
_atom_site_type_symbol
_atom_site_fract_x
_atom_site_fract_y
_atom_site_fract_z
O1	O	1.657186	0.114277	-0.175019
O2	O	1.294034	0.114282	-0.191772
O3	O	1.483987	0.114274	-0.001819
O4	O	1.467234	0.114285	-0.364972
O5	O	1.483975	-0.114306	-0.001830
O6	O	1.294022	-0.114298	-0.191783
O7	O	1.657174	-0.114303	-0.175030
Zn8	Zn	1.475596	-0.150593	-0.183408
Zn9	Zn	1.475612	0.150571	-0.183394
O10	O	1.467221	-0.114295	-0.364982
C11	C	1.247528	-0.000008	-0.190558
C12	C	1.108974	-0.000006	-0.186911
N13	N	1.475594	-0.356129	-0.183417
C14	C	1.033991	-0.000002	-0.293198
C15	C	0.890788	-0.000001	-0.289431
C16	C	1.551923	-0.428067	-0.259790
C17	C	1.551941	-0.571950	-0.259767
C18	C	1.399292	-0.571944	-0.106993
C19	C	1.399281	-0.428064	-0.107011
C20	C	1.628236	-0.356132	-0.336196
C21	C	1.704570	-0.428070	-0.412576
C22	C	1.704588	-0.571953	-0.412553
C23	C	1.628273	-0.643898	-0.336149
C24	C	1.703680	-0.000010	-0.176243
C25	C	1.842234	-0.000003	-0.179891
C26	C	1.482762	-0.000014	0.044675
C27	C	1.479114	-0.000009	0.183229
N28	N	1.475624	0.356108	-0.183375
C29	C	1.468447	-0.000004	-0.411477
C30	C	1.472094	0.000000	-0.550031
C31	C	1.585401	-0.000009	0.258212
C32	C	1.581634	-0.000004	0.401415
H33	H	1.075814	-0.000007	-0.386984
H34	H	0.826355	0.000008	-0.380421
H35	H	1.067152	0.000026	-0.093125
F36	F	0.926441	0.000003	-0.060950
F37	F	1.628219	-0.203000	-0.336230
H38	H	1.766710	-0.369483	-0.474775
H39	H	1.766752	-0.630521	-0.474737
H40	H	1.672624	-0.000009	0.465848
F41	F	1.318074	-0.648518	-0.025688
F42	F	1.628310	-0.797033	-0.336114
H43	H	1.337125	-0.369491	-0.044823
H44	H	1.679187	-0.000018	0.216390
H45	H	1.381099	-0.000010	0.385544
F46	F	1.356524	0.000005	0.237887
