data_functionalizedCrystal
_audit_creation_method	'MofGen! by Chris Wilmer'
_symmetry_space_group_name_H-M	'P1'
_symmetry_Int_Tables_number	1
_symmetry_cell_setting	triclinic
loop_
_symmetry_equiv_pos_as_xyz
  x,y,z
_cell_length_a	15.944551
_cell_length_b	19.188930
_cell_length_c	18.266242
_cell_angle_alpha	90.006796
_cell_angle_beta	90.001865
_cell_angle_gamma	83.321760
loop_
_atom_site_label
_atom_site_type_symbol
_atom_site_fract_x
_atom_site_fract_y
_atom_site_fract_z
O1	O	1.114190	0.090045	0.060813
O2	O	0.869599	0.101146	0.060832
O3	O	0.998953	-0.006042	0.060808
O4	O	0.984836	0.197233	0.060838
O5	O	0.998936	-0.006038	-0.060954
O6	O	0.869582	0.101150	-0.060930
O7	O	1.114173	0.090048	-0.060949
Zn8	Zn	0.991875	0.095599	-0.080272
Zn9	Zn	0.991897	0.095595	0.080155
O10	O	0.984819	0.197236	-0.060924
C11	C	0.838298	0.100687	-0.000046
C12	C	0.745057	0.099306	-0.000040
C13	C	0.998487	-0.032052	-0.000075
C14	C	0.997115	-0.109560	-0.000081
C15	C	0.530462	0.029562	-0.000064
C16	C	0.469329	0.061947	0.059976
C17	C	0.574341	0.096806	-0.000049
C18	C	0.469334	0.061966	-0.060072
C19	C	0.409437	0.094386	-0.000061
C20	C	0.514436	0.129209	0.060041
C21	C	0.514448	0.129219	-0.060061
C22	C	0.453332	0.161652	-0.000007
C23	C	0.669338	0.098198	-0.000041
C24	C	0.314441	0.093000	-0.000063
C25	C	1.073016	-0.154288	-0.000091
C26	C	1.071726	-0.227115	-0.000079
C27	C	0.994532	-0.255211	-0.000072
C28	C	0.918622	-0.210474	-0.000059
C29	C	0.919913	-0.137648	-0.000063
N30	N	0.935521	-0.363368	-0.041506
N31	N	0.934299	-0.432550	-0.041503
C32	C	0.990637	-0.474630	-0.000057
N33	N	1.048255	-0.444917	0.041376
N34	N	1.049479	-0.375729	0.041370
C35	C	0.993123	-0.334178	-0.000067
C36	C	1.065145	-0.598326	-0.000053
C37	C	1.063852	-0.671154	-0.000037
C38	C	0.910745	-0.654511	-0.000024
C39	C	0.912040	-0.581685	-0.000033
C40	C	0.989242	-0.553597	-0.000051
C41	C	1.145474	0.090507	-0.000069
C42	C	1.238715	0.091889	-0.000070
C43	C	0.985285	0.223247	-0.000040
C44	C	0.986657	0.300755	-0.000029
N45	N	0.991866	0.095602	-0.189759
C46	C	1.042698	0.137954	-0.772033
C47	C	1.042689	0.137961	-0.695388
C48	C	0.991905	0.095588	-0.657071
C49	C	0.941109	0.053218	-0.695406
C50	C	0.941113	0.053218	-0.772049
N51	N	0.989870	0.034422	-0.536741
N52	N	0.989871	0.034424	-0.463933
C53	C	0.991889	0.095588	-0.426149
N54	N	0.993921	0.156750	-0.463923
N55	N	0.993924	0.156746	-0.536737
C56	C	0.991894	0.095584	-0.573964
C57	C	1.042667	0.137966	-0.304716
C58	C	1.042652	0.137975	-0.228070
C59	C	0.941077	0.053226	-0.228089
C60	C	0.941087	0.053224	-0.304734
C61	C	0.991887	0.095593	-0.343043
N62	N	0.991912	0.095587	0.189642
H63	H	0.449332	0.033505	0.110727
O64	O	0.409137	0.235651	0.000047
H65	H	0.339765	0.234117	-0.000432
H66	H	0.534324	0.157627	0.110855
O67	O	0.886327	0.007522	-0.346088
H68	H	0.926747	-0.029971	-0.381010
H69	H	0.899723	0.018729	-0.196893
O70	O	0.540987	0.166860	-0.127285
H71	H	0.523144	0.138838	-0.177054
O72	O	0.442863	0.024289	-0.127314
H73	H	0.474072	-0.030519	-0.127190
O74	O	1.153597	-0.275366	-0.000100
H75	H	1.139727	-0.330725	-0.000092
H76	H	0.847892	-0.677386	-0.000015
O77	O	1.097481	0.183653	-0.813353
H78	H	1.078995	0.239449	-0.798641
O79	O	0.830175	-0.533435	-0.000041
H80	H	0.776279	-0.565204	-0.000043
O81	O	0.838046	-0.089399	-0.000066
H82	H	0.784149	-0.121167	-0.000065
H83	H	0.899756	0.018717	-0.803253
H84	H	1.128007	-0.575456	-0.000064
O85	O	1.097472	0.183653	-0.654036
H86	H	1.132800	0.213110	-0.693552
H87	H	1.135880	-0.131424	-0.000103
H88	H	0.855769	-0.233354	-0.000052
O89	O	1.145720	-0.719402	-0.000053
H90	H	1.199616	-0.687633	-0.000075
H91	H	0.899759	0.018719	-0.664203
O92	O	1.097458	0.183661	-0.346038
H93	H	1.088943	0.176533	-0.405773
H94	H	1.084006	0.172479	-0.196867
H95	H	0.564003	-0.026244	0.000002
