data_functionalizedCrystal
_audit_creation_method	'MofGen! by Chris Wilmer'
_symmetry_space_group_name_H-M	'P1'
_symmetry_Int_Tables_number	1
_symmetry_cell_setting	triclinic
loop_
_symmetry_equiv_pos_as_xyz
  x,y,z
_cell_length_a	18.215407
_cell_length_b	18.215404
_cell_length_c	18.215399
_cell_angle_alpha	89.972067
_cell_angle_beta	90.019350
_cell_angle_gamma	89.975729
loop_
_atom_site_label
_atom_site_type_symbol
_atom_site_fract_x
_atom_site_fract_y
_atom_site_fract_z
Zn1	Zn	1.125074	0.292980	0.416118
Zn2	Zn	1.458407	0.626313	0.749451
Zn3	Zn	1.791741	0.959647	1.082785
Zn4	Zn	1.124986	0.416052	0.293053
Zn5	Zn	1.458319	0.749385	0.626386
Zn6	Zn	1.791652	1.082719	0.959719
Zn7	Zn	1.002007	0.293005	0.293065
Zn8	Zn	1.335341	0.626338	0.626399
Zn9	Zn	1.668674	0.959672	0.959732
Zn10	Zn	1.001975	0.416010	0.416078
Zn11	Zn	1.335308	0.749344	0.749411
Zn12	Zn	1.668641	1.082677	1.082744
O13	O	1.063510	0.354512	0.354578
O14	O	1.396844	0.687845	0.687912
O15	O	1.730177	1.021179	1.021245
O16	O	1.228046	0.309313	0.399805
O17	O	1.561380	0.642646	0.733138
O18	O	1.894713	0.975980	1.066471
O19	O	1.108649	0.399758	0.190070
O20	O	1.441982	0.733091	0.523403
O21	O	1.775316	1.066424	0.856737
O22	O	1.018383	0.190017	0.309411
O23	O	1.351717	0.523351	0.642744
O24	O	1.685050	0.856684	0.976078
O25	O	1.227982	0.399733	0.309389
O26	O	1.561315	0.733067	0.642723
O27	O	1.894648	1.066400	0.976056
O28	O	1.108800	0.189999	0.399817
O29	O	1.442133	0.523332	0.733150
O30	O	1.775466	0.856666	1.066484
O31	O	1.018298	0.309355	0.190079
O32	O	1.351631	0.642689	0.523413
O33	O	1.684964	0.976022	0.856746
O34	O	0.899019	0.309315	0.309372
O35	O	1.232352	0.642648	0.642705
O36	O	1.565686	0.975981	0.976038
O37	O	1.018327	0.399662	0.519067
O38	O	1.351661	0.732995	0.852401
O39	O	1.684994	1.066329	1.185734
O40	O	0.898995	0.399686	0.399748
O41	O	1.232328	0.733020	0.733082
O42	O	1.565661	1.066353	1.066415
O43	O	1.108768	0.309272	0.519097
O44	O	1.442101	0.642606	0.852430
O45	O	1.775434	0.975939	1.185764
O46	O	1.108617	0.519031	0.309350
O47	O	1.441951	0.852364	0.642683
O48	O	1.775284	1.185698	0.976017
O49	O	1.018242	0.519000	0.399736
O50	O	1.351575	0.852333	0.733069
O51	O	1.684908	1.185667	1.066403
C52	C	0.872304	0.354499	0.354557
C53	C	1.205637	0.687833	0.687891
C54	C	1.538971	1.021166	1.021224
C55	C	0.790505	0.354512	0.354566
C56	C	1.123839	0.687845	0.687899
C57	C	1.457172	1.021178	1.021232
C58	C	0.602318	0.401642	0.401566
C59	C	0.935651	0.734975	0.734899
C60	C	1.268985	1.068309	1.068232
C61	C	0.525459	0.401644	0.401575
C62	C	0.858793	0.734978	0.734908
C63	C	1.192126	1.068311	1.068242
C64	C	0.525455	0.307395	0.307607
C65	C	0.858788	0.640728	0.640941
C66	C	1.192121	0.974062	0.974274
C67	C	0.602312	0.307390	0.307602
C68	C	0.935645	0.640723	0.640936
C69	C	1.268979	0.974056	0.974269
C70	C	0.640742	0.354517	0.354581
C71	C	0.974075	0.687851	0.687914
C72	C	1.307408	1.021184	1.021247
C73	C	0.487026	0.354525	0.354595
C74	C	0.820359	0.687858	0.687928
C75	C	1.153692	1.021192	1.021261
C76	C	0.403692	0.354527	0.354604
C77	C	0.737025	0.687860	0.687938
C78	C	1.070359	1.021194	1.021271
C79	C	0.724081	0.354514	0.354572
C80	C	1.057414	0.687848	0.687905
C81	C	1.390747	1.021181	1.021239
C82	C	1.063436	0.545718	0.354553
C83	C	1.396770	0.879052	0.687887
C84	C	1.730103	1.212385	1.021220
C85	C	1.063472	0.627517	0.354567
C86	C	1.396805	0.960850	0.687900
C87	C	1.730138	1.294184	1.021234
C88	C	1.110644	0.815702	0.307600
C89	C	1.443978	1.149036	0.640933
C90	C	1.777311	1.482369	0.974266
C91	C	1.110679	0.892561	0.307622
C92	C	1.444012	1.225895	0.640955
C93	C	1.777345	1.559228	0.974288
C94	C	1.016489	0.892569	0.401663
C95	C	1.349822	1.225902	0.734996
C96	C	1.683156	1.559236	1.068330
C97	C	1.016459	0.815712	0.401644
C98	C	1.349792	1.149045	0.734978
C99	C	1.683126	1.482378	1.068311
C100	C	1.063536	0.777280	0.354609
C101	C	1.396869	1.110614	0.687942
C102	C	1.730202	1.443947	1.021275
C103	C	1.063600	0.930997	0.354649
C104	C	1.396933	1.264330	0.687982
C105	C	1.730267	1.597663	1.021316
C106	C	1.063637	1.014330	0.354673
C107	C	1.396970	1.347664	0.688007
C108	C	1.730304	1.680997	1.021340
C109	C	1.063500	0.693942	0.354585
C110	C	1.396833	1.027275	0.687919
C111	C	1.730167	1.360608	1.021252
C112	C	1.255463	0.354525	0.354600
C113	C	1.588797	0.687858	0.687933
C114	C	1.922130	1.021192	1.021267
C115	C	1.337262	0.354531	0.354609
C116	C	1.670596	0.687864	0.687943
C117	C	2.003929	1.021197	1.021276
C118	C	1.063554	0.354460	0.546531
C119	C	1.396887	0.687793	0.879865
C120	C	1.730220	1.021126	1.213198
C121	C	1.063572	0.354437	0.628330
C122	C	1.396905	0.687771	0.961664
C123	C	1.730239	1.021104	1.294997
C124	C	1.063610	1.162559	0.354633
C125	C	1.396943	1.495892	0.687967
C126	C	1.730276	1.829226	1.021300
C127	C	1.063664	1.080760	0.354691
C128	C	1.396997	1.414093	0.688024
C129	C	1.730330	1.747427	1.021357
C130	C	1.063510	0.354511	0.163372
C131	C	1.396843	0.687844	0.496706
C132	C	1.730176	1.021177	0.830039
C133	C	1.063634	0.354326	0.081574
C134	C	1.396967	0.687659	0.414907
C135	C	1.730301	1.020992	0.748240
C136	C	1.110692	0.307308	0.893405
C137	C	1.444025	0.640641	1.226738
C138	C	1.777358	0.973975	1.560071
C139	C	1.110683	0.307328	0.816546
C140	C	1.444016	0.640661	1.149879
C141	C	1.777350	0.973995	1.483213
C142	C	1.016512	0.401460	0.816505
C143	C	1.349846	0.734794	1.149838
C144	C	1.683179	1.068127	1.483171
C145	C	1.016525	0.401444	0.893362
C146	C	1.349859	0.734777	1.226695
C147	C	1.683192	1.068110	1.560029
C148	C	1.063614	0.354363	0.931810
C149	C	1.396947	0.687697	1.265144
C150	C	1.730280	1.021030	1.598477
C151	C	1.063592	0.354400	0.778094
C152	C	1.396925	0.687733	1.111427
C153	C	1.730259	1.021067	1.444761
C154	C	1.063582	0.354422	0.694760
C155	C	1.396916	0.687755	1.028094
C156	C	1.730249	1.021088	1.361427
C157	C	1.063625	0.354342	1.015149
C158	C	1.396958	0.687675	1.348483
C159	C	1.730291	1.021009	1.681816
H160	H	0.494178	0.440017	0.439836
H161	H	0.827511	0.773350	0.773170
H162	H	1.160845	1.106684	1.106503
F163	F	1.160820	0.933449	0.257590
F164	F	1.494154	1.266783	0.590923
F165	F	1.827487	1.600116	0.924257
H166	H	0.978097	0.784427	0.439928
H167	H	1.311431	1.117760	0.773262
H168	H	1.644764	1.451093	1.106595
H169	H	0.633605	0.440015	0.439820
H170	H	0.966938	0.773348	0.773154
H171	H	1.300272	1.106681	1.106487
H172	H	0.494156	0.269026	0.269358
H173	H	0.827489	0.602360	0.602692
H174	H	1.160823	0.935693	0.936025
H175	H	1.148978	0.784414	0.269301
H176	H	1.482311	1.117747	0.602635
H177	H	1.815645	1.451080	0.935968
H178	H	0.978173	0.439790	0.785191
H179	H	1.311507	0.773124	1.118524
H180	H	1.644840	1.106457	1.451858
F181	F	0.966388	0.933477	0.451718
F182	F	1.299722	1.266810	0.785051
F183	F	1.633055	1.600144	1.118384
F184	F	0.966420	0.451533	0.934238
F185	F	1.299753	0.784866	1.267572
F186	F	1.633087	1.118200	1.600905
F187	F	1.160806	0.257200	0.934322
F188	F	1.494139	0.590533	1.267655
F189	F	1.827473	0.923867	1.600988
H190	H	0.633598	0.269010	0.269341
H191	H	0.966931	0.602344	0.602675
H192	H	1.300264	0.935677	0.936008
F193	F	1.160791	0.257247	0.775676
F194	F	1.494124	0.590580	1.109009
F195	F	1.827458	0.923913	1.442342
