data_functionalizedCrystal
_audit_creation_method	'MofGen! by Chris Wilmer'
_symmetry_space_group_name_H-M	'P1'
_symmetry_Int_Tables_number	1
_symmetry_cell_setting	triclinic
loop_
_symmetry_equiv_pos_as_xyz
  x,y,z
_cell_length_a	19.377625
_cell_length_b	19.376995
_cell_length_c	19.376995
_cell_angle_alpha	82.763540
_cell_angle_beta	75.980157
_cell_angle_gamma	44.200954
loop_
_atom_site_label
_atom_site_type_symbol
_atom_site_fract_x
_atom_site_fract_y
_atom_site_fract_z
Zr1	Zr	0.565793	0.748374	-0.087026
O2	O	0.436712	0.879635	-0.134762
O3	O	0.629845	0.596765	-0.094955
O4	O	0.629849	0.705659	-0.203850
O5	O	0.408856	0.811532	0.085698
O6	O	0.754349	0.695111	-0.232682
O7	O	0.436708	0.770742	-0.025867
O8	O	0.754342	0.500320	-0.037889
O9	O	0.408863	1.006323	-0.109095
O10	O	0.720497	0.658789	-0.092593
O11	O	0.606798	0.697102	0.012183
O12	O	0.606803	0.825311	-0.116027
O13	O	0.493104	0.863624	-0.011251
Zr14	Zr	0.719935	0.796608	0.044925
Zr15	Zr	0.764356	0.731552	-0.133009
Zr16	Zr	0.521371	0.813431	0.090908
Zr17	Zr	0.521377	0.950427	-0.046090
Zr18	Zr	0.764351	0.594556	0.003989
O19	O	0.655883	0.948218	0.052854
O20	O	0.719044	0.855716	-0.200144
O21	O	0.373551	0.972137	0.118236
O22	O	0.849015	0.665347	0.092661
O23	O	0.912177	0.572845	-0.160337
O24	O	0.566683	0.689267	0.158043
O25	O	0.876872	0.733450	-0.127799
O26	O	0.655879	0.839324	0.161749
O27	O	0.531378	0.849872	0.190581
O28	O	0.849020	0.774241	-0.016234
O29	O	0.566695	0.992952	-0.145646
O30	O	0.719033	0.552031	0.103545
O31	O	0.876864	0.538659	0.066994
O32	O	0.912173	0.486948	-0.074439
O33	O	0.373554	1.058035	0.032338
O34	O	0.531386	1.044663	-0.004212
O35	O	0.678925	0.719672	0.073926
O36	O	0.792624	0.681359	-0.030850
O37	O	0.678930	0.847880	-0.054284
O38	O	0.565231	0.886194	0.050492
C39	C	0.698421	0.519754	-0.072254
C40	C	0.717277	0.433978	-0.089633
C41	C	0.803200	0.293080	-0.168814
C42	C	0.785475	0.373682	-0.152479
C43	C	0.666781	0.413685	-0.043095
C44	C	0.684500	0.333081	-0.059420
C45	C	0.752710	0.272784	-0.122281
C46	C	0.634010	0.312786	-0.012886
C47	C	0.651723	0.232192	-0.029212
C48	C	0.719927	0.171893	-0.092071
C49	C	0.770423	0.192191	-0.138606
C50	C	0.565795	0.373087	0.049972
C51	C	0.515304	0.352792	0.096505
C52	C	0.533023	0.272193	0.080183
C53	C	0.601227	0.211894	0.017324
C54	C	0.482527	0.251895	0.126718
C55	C	0.500241	0.171302	0.110393
C56	C	0.618941	0.131300	0.000998
C57	C	0.394491	0.793534	0.036467
C58	C	0.310195	0.800675	0.055988
C59	C	0.109669	0.711777	-0.187083
C60	C	0.030460	0.718489	-0.168716
C61	C	-0.000206	0.763430	-0.045800
C62	C	0.078999	0.756727	-0.064157
C63	C	0.133931	0.730899	-0.134799
C64	C	0.103262	0.775849	-0.011873
C65	C	0.182463	0.769141	-0.030228
C66	C	0.237402	0.743312	-0.100866
C67	C	0.213133	0.724192	-0.153154
C68	C	0.048332	0.801669	0.058769
C69	C	0.072595	0.820791	0.111053
C70	C	0.151793	0.814090	0.092698
C71	C	0.206732	0.788261	0.022059
C72	C	0.176062	0.833211	0.144985
C73	C	0.255263	0.826503	0.126630
C74	C	0.285933	0.781554	0.003705
C75	C	0.891237	0.751449	-0.078568
C76	C	0.975532	0.744307	-0.098089
C77	C	0.698428	0.691116	-0.243618
C78	C	0.717286	0.663497	-0.319155
C79	C	0.587306	1.025228	0.030153
C80	C	0.568451	1.111005	0.047532
C81	C	0.803208	0.537654	-0.413391
C82	C	0.785481	0.563616	-0.342414
C83	C	0.666786	0.737458	-0.366870
C84	C	0.684499	0.711511	-0.437850
C85	C	0.752712	0.611608	-0.461105
C86	C	0.634003	0.785465	-0.485563
C87	C	0.651719	0.759519	-0.556538
C88	C	0.719931	0.659620	-0.579799
C89	C	0.770428	0.585662	-0.532079
C90	C	0.565796	0.885367	-0.462308
C91	C	0.515300	0.959320	-0.510022
C92	C	0.533010	0.933376	-0.580996
C93	C	0.601222	0.833477	-0.604258
C94	C	0.482513	1.007334	-0.628716
C95	C	0.500229	0.981389	-0.699691
C96	C	0.618938	0.807532	-0.675232
C97	C	0.587300	0.853867	0.201517
C98	C	0.568442	0.881485	0.277054
C99	C	0.946794	0.498712	-0.129772
C100	C	1.049946	0.405793	-0.166671
C101	C	0.642857	0.601130	0.150313
C102	C	0.642855	0.542971	0.208472
C103	C	0.891230	0.580087	0.092795
C104	C	0.975523	0.514787	0.131434
C105	C	0.394498	0.964895	-0.134896
C106	C	0.310204	1.030195	-0.173535
C107	C	0.338933	1.046271	0.087671
C108	C	0.235782	1.139189	0.124570
C109	C	0.642871	0.943853	-0.192414
C110	C	0.642873	1.002011	-0.250573
C111	C	1.060739	0.350374	-0.216236
C112	C	1.157654	0.263073	-0.250919
C113	C	1.243776	0.231190	-0.236033
C114	C	1.232979	0.286618	-0.186465
C115	C	1.136064	0.373921	-0.151786
C116	C	0.680502	0.527444	0.268021
C117	C	0.680492	0.472812	0.322678
C118	C	0.642841	0.433702	0.317782
C119	C	0.605189	0.449236	0.258228
C120	C	0.605193	0.503873	0.203575
C121	C	1.074466	0.464122	0.094884
C122	C	1.153676	0.402774	0.131183
C123	C	1.133941	0.392087	0.204029
C124	C	1.034987	0.442760	0.240581
C125	C	0.955779	0.504113	0.204283
C126	C	0.211259	1.080871	-0.136983
C127	C	0.132044	1.142244	-0.173277
C128	C	0.151778	1.152935	-0.246122
C129	C	0.250733	1.102256	-0.282675
C130	C	0.329945	1.040890	-0.246380
C131	C	0.224989	1.194614	0.174129
C132	C	0.128073	1.281930	0.208797
C133	C	0.041952	1.313816	0.193909
C134	C	0.052749	1.258385	0.144343
C135	C	0.149663	1.171075	0.109673
C136	C	0.680532	1.041104	-0.245658
C137	C	0.680553	1.095740	-0.300304
C138	C	0.642908	1.111289	-0.359863
C139	C	0.605249	1.072189	-0.364778
C140	C	0.605235	1.017548	-0.310134
H141	H	0.674492	0.082197	-0.050186
C142	C	0.324524	0.735936	-0.121057
N143	N	0.390144	0.730382	-0.136265
C144	C	0.721954	1.024006	-0.180151
N145	N	0.753163	1.011127	-0.130815
C146	C	0.642857	0.373591	0.377904
N147	N	0.642877	0.328310	0.423188
H148	H	0.257855	0.703170	-0.210680
H149	H	0.275017	0.842073	0.169205
H150	H	0.459765	1.040661	-0.491078
H151	H	0.459124	0.154780	0.148284
H152	H	0.826595	0.390200	-0.190378
H153	H	1.090554	0.472811	0.035569
C154	C	0.116220	1.342883	0.263323
N155	N	0.107294	1.388789	0.304392
C156	C	0.064634	1.220435	-0.286039
N157	N	-0.001007	1.271273	-0.316102
H158	H	0.734344	0.106273	-0.105364
C159	C	0.407495	0.318234	0.195861
N160	N	0.350981	0.368199	0.247940
H161	H	0.642924	1.155783	-0.404352
H162	H	0.295102	1.168664	0.186264
C163	C	0.161520	1.110106	0.055165
N164	N	0.170443	1.064188	0.014111
H165	H	0.266789	1.110969	-0.341989
H166	H	0.459109	1.041609	-0.738541
C167	C	0.845464	0.475763	-0.557663
N168	N	0.901981	0.392991	-0.576933
H169	H	0.674474	0.726181	-0.694165
H170	H	0.051478	1.183499	-0.143503
H171	H	0.990625	0.376327	-0.228373
C172	C	0.012187	0.849163	0.188762
N173	N	-0.033305	0.870523	0.247296
C174	C	0.115657	0.861576	0.222695
N175	N	0.070168	0.882929	0.281229
C176	C	0.721916	0.570462	0.273425
N177	N	0.753104	0.602867	0.277503
C178	C	0.878244	0.427755	-0.438975
N179	N	0.934761	0.344983	-0.458245
C180	C	0.721976	1.138747	-0.294881
N181	N	0.753174	1.171139	-0.290795
C182	C	1.169508	0.202111	-0.305435
N183	N	1.178433	0.156194	-0.346494
H184	H	0.734358	0.638497	-0.637593
H185	H	-0.017384	1.284360	0.132228
C186	C	1.350378	0.135146	-0.274182
N187	N	1.430669	0.062803	-0.302915
C188	C	0.721927	0.455725	0.388176
N189	N	0.753139	0.442854	0.437507
C190	C	0.591756	0.480016	0.026051
N191	N	0.535250	0.529973	0.078136
C192	C	1.327724	0.251527	-0.170092
N193	N	1.399090	0.225089	-0.157757
C194	C	0.563889	1.089259	-0.430315
N195	N	0.532749	1.102106	-0.479684
H196	H	0.551371	0.438714	0.063260
C197	C	0.563787	0.974566	-0.315546
N198	N	0.532563	0.942197	-0.319625
C199	C	-0.064650	1.409859	0.232058
N200	N	-0.144941	1.482198	0.260796
H201	H	0.330655	0.760532	-0.053821
H202	H	0.825975	0.143087	-0.189791
H203	H	0.858751	0.243976	-0.219998
C204	C	1.124208	0.434867	-0.097256
N205	N	1.115285	0.480767	-0.056184
H206	H	0.154391	0.690756	-0.244608
H207	H	0.410510	0.999627	-0.276151
H208	H	0.010713	0.702914	-0.211298
C209	C	0.440279	0.419123	0.165652
N210	N	0.383773	0.469081	0.217736
H211	H	-0.044938	0.784455	0.011717
H212	H	-0.016154	0.807125	0.073711
H213	H	0.826604	0.503387	-0.303566
C214	C	0.563783	0.406202	0.252850
N215	N	0.532602	0.373781	0.248800
C216	C	1.262519	0.347031	0.090961
N217	N	1.344499	0.305045	0.060664
C218	C	0.407494	1.117223	-0.603128
N219	N	0.350992	1.199992	-0.583856
H220	H	0.611251	0.818798	-0.347926
H221	H	0.551376	0.906488	-0.404516
H222	H	0.574541	0.516505	0.155087
H223	H	1.198447	0.342126	0.233576
C224	C	1.013297	0.430986	0.320712
N225	N	0.996964	0.422108	0.381067
H226	H	0.875218	0.545359	0.234052
H227	H	0.195174	1.072171	-0.077670
