data_functionalizedCrystal
_audit_creation_method	'MofGen! by Chris Wilmer'
_symmetry_space_group_name_H-M	'P1'
_symmetry_Int_Tables_number	1
_symmetry_cell_setting	triclinic
loop_
_symmetry_equiv_pos_as_xyz
  x,y,z
_cell_length_a	17.699083
_cell_length_b	10.654541
_cell_length_c	16.776229
_cell_angle_alpha	89.993604
_cell_angle_beta	89.998886
_cell_angle_gamma	83.883472
loop_
_atom_site_label
_atom_site_type_symbol
_atom_site_fract_x
_atom_site_fract_y
_atom_site_fract_z
O1	O	1.005087	0.158809	-0.066176
O2	O	0.784840	0.179470	-0.066202
O3	O	0.900029	-0.013689	-0.066184
O4	O	0.889899	0.351968	-0.066194
O5	O	0.900013	-0.013700	0.066393
O6	O	0.784825	0.179458	0.066374
O7	O	1.005072	0.158797	0.066400
Zn8	Zn	0.894946	0.169126	0.087437
Zn9	Zn	0.894966	0.169142	-0.087238
O10	O	0.889883	0.351956	0.066382
C11	C	0.756631	0.178724	0.000083
C12	C	0.672599	0.176503	0.000073
C13	C	0.624698	0.289883	0.000070
C14	C	0.545741	0.287789	0.000080
C15	C	0.514687	0.172313	0.000088
C16	C	0.562594	0.058924	0.000094
C17	C	0.641549	0.061020	0.000089
C18	C	0.244177	0.050470	0.000114
C19	C	0.165216	0.048383	0.000116
C20	C	0.148369	0.277239	0.000105
C21	C	0.227324	0.279335	0.000100
C22	C	0.275224	0.165946	0.000110
C23	C	0.360838	0.168219	0.000100
C24	C	0.429075	0.170039	0.000092
C25	C	0.899277	-0.060480	0.000104
C26	C	0.897053	-0.199884	0.000103
C27	C	1.034792	-0.230266	0.000129
C28	C	1.102614	-0.310947	0.000144
C29	C	1.100519	-0.441929	0.000141
C30	C	1.030596	-0.492230	0.000121
C31	C	0.962775	-0.411549	0.000106
C32	C	0.964876	-0.280566	0.000111
C33	C	0.825037	-0.381167	0.000074
C34	C	0.827130	-0.250185	0.000083
C35	C	0.755114	-0.431468	0.000054
C36	C	0.687291	-0.350786	0.000045
C37	C	0.689388	-0.219798	0.000049
C38	C	0.759308	-0.169504	0.000068
C39	C	1.033281	0.159543	0.000114
C40	C	1.117313	0.161764	0.000118
C41	C	0.890634	0.398747	0.000093
C42	C	0.892859	0.538151	0.000089
N43	N	0.894937	0.169115	0.206648
N44	N	0.894981	0.169143	-0.206450
C45	C	0.945959	0.083619	0.248373
C46	C	0.945963	0.083618	0.331826
C47	C	0.894949	0.169119	0.373551
C48	C	0.843922	0.254619	0.331820
C49	C	0.843915	0.254613	0.248369
C50	C	0.843950	0.254644	0.668367
C51	C	0.843962	0.254646	0.751824
C52	C	0.945998	0.083648	0.751823
C53	C	0.945990	0.083642	0.668373
C54	C	0.894961	0.169137	0.626649
C55	C	0.894956	0.169136	0.536161
C56	C	0.894957	0.169128	0.464038
H57	H	0.506743	0.380115	0.000077
Br58	Br	0.269465	0.436057	0.000082
H59	H	0.753413	-0.538121	0.000047
H60	H	0.802382	0.324232	0.365797
H61	H	0.802367	0.324231	0.214397
H62	H	0.109359	0.369565	0.000101
Br63	Br	0.123071	-0.108345	0.000124
Br64	Br	0.309174	-0.103415	0.000129
Br65	Br	1.037640	-0.052505	0.000155
H66	H	0.987508	0.014000	0.365798
H67	H	0.649976	0.383917	0.000063
Br68	Br	0.592405	-0.419059	0.000005
Br69	Br	0.520450	-0.097796	0.000112
H70	H	0.680549	-0.031306	0.000091
H71	H	0.987533	0.014023	0.634402
Br72	Br	1.197505	-0.242677	0.000162
Br73	Br	1.192563	-0.551431	0.000150
Br74	Br	1.027755	-0.669992	0.000055
Br75	Br	0.774700	0.370671	0.611746
Br76	Br	0.597339	-0.110311	0.000020
Br77	Br	0.762160	0.008256	0.000082
H78	H	0.987503	0.013999	0.214406
H79	H	0.802418	0.324274	0.785795
Br80	Br	1.015252	-0.032385	0.808452
