data_functionalizedCrystal
_audit_creation_method	'MofGen! by Chris Wilmer'
_symmetry_space_group_name_H-M	'P1'
_symmetry_Int_Tables_number	1
_symmetry_cell_setting	triclinic
loop_
_symmetry_equiv_pos_as_xyz
  x,y,z
_cell_length_a	11.026607
_cell_length_b	14.853567
_cell_length_c	9.482900
_cell_angle_alpha	99.351342
_cell_angle_beta	78.636152
_cell_angle_gamma	96.110474
loop_
_atom_site_label
_atom_site_type_symbol
_atom_site_fract_x
_atom_site_fract_y
_atom_site_fract_z
O1	O	1.629690	0.366576	-0.120866
O2	O	1.276313	0.323576	-0.120871
O3	O	1.462441	0.215369	-0.120872
O4	O	1.443561	0.474783	-0.120864
O5	O	1.424635	0.237461	0.120920
O6	O	1.238506	0.345668	0.120922
O7	O	1.591884	0.388668	0.120927
Cu8	Cu	1.411743	0.369186	0.143002
Cu9	Cu	1.456453	0.343059	-0.142946
O10	O	1.405755	0.496875	0.120929
C11	C	1.212185	0.326689	0.000025
C12	C	1.077432	0.303041	0.000022
C13	C	1.003736	0.368337	0.000023
C14	C	0.864461	0.343897	0.000020
C15	C	1.442683	0.192688	0.000020
C16	C	1.440122	0.092190	0.000007
C17	C	1.318718	-0.339931	0.000033
C18	C	1.539842	-0.325531	0.000036
C19	C	1.542254	-0.231109	0.000028
C20	C	1.432895	-0.191094	0.000024
C21	C	1.321125	-0.245500	0.000029
C22	C	1.654019	-0.176694	0.000038
C23	C	1.656435	-0.082266	0.000031
C24	C	1.547077	-0.042250	0.000017
C25	C	1.435303	-0.096663	0.000020
C26	C	1.325944	-0.056648	0.000016
C27	C	1.214170	-0.111060	0.000009
C28	C	1.211767	-0.205484	0.000015
C29	C	1.549480	0.052174	0.000011
C30	C	1.328352	0.037783	0.000012
C31	C	1.656012	0.385555	0.000029
C32	C	1.790766	0.409202	0.000022
C33	C	1.425513	0.519556	0.000033
C34	C	1.428076	0.620054	0.000037
N35	N	1.380304	0.387562	0.344123
N36	N	1.487901	0.324677	-0.344066
C37	C	1.447172	0.348473	0.416321
C38	C	1.421024	0.363771	0.583739
H39	H	1.043750	0.442333	0.000034
H40	H	1.125129	-0.078466	0.000016
H41	H	0.824456	0.269894	-0.000019
H42	H	1.120766	-0.249794	0.000010
H43	H	1.640483	0.096473	0.000026
O44	O	1.329699	0.417327	0.657681
C45	C	1.355694	0.506429	0.620624
H46	H	1.419678	0.503787	0.510062
H47	H	1.265449	0.535732	0.615592
H48	H	1.402973	0.551816	0.706251
O49	O	1.210241	-0.392907	0.000092
C50	C	1.231562	-0.484836	0.000052
H51	H	1.319093	-0.487368	0.045830
H52	H	1.149058	-0.518904	0.070247
H53	H	1.243776	-0.522571	-0.115950
O54	O	1.765080	-0.029479	-0.000231
C55	C	1.851338	-0.059642	-0.125437
H56	H	1.799666	-0.097813	-0.212958
H57	H	1.909649	0.001875	-0.167483
H58	H	1.914449	-0.107377	-0.097118
H59	H	0.830773	0.483203	0.000034
O60	O	1.538453	0.294993	0.342021
C61	C	1.486855	0.220879	0.253970
H62	H	1.395527	0.239452	0.231371
H63	H	1.554103	0.205067	0.146849
H64	H	1.469213	0.158188	0.312488
O65	O	1.579022	0.270990	0.581822
C66	C	1.527137	0.196881	0.494032
H67	H	1.435972	0.215640	0.471254
H68	H	1.594362	0.180755	0.386982
H69	H	1.509122	0.134322	0.552866
O70	O	1.029688	0.214753	-0.000241
C71	C	0.976839	0.185759	-0.125450
H72	H	1.020634	0.229724	-0.212973
H73	H	0.994523	0.111064	-0.167489
H74	H	0.872626	0.193044	-0.097137
H75	H	1.239298	0.070355	0.000002
O76	O	1.645963	-0.364550	-0.000018
C77	C	1.619864	-0.459556	0.000033
H78	H	1.531673	-0.482822	-0.045743
H79	H	1.700533	-0.497266	-0.070158
H80	H	1.606281	-0.475403	0.116038
H81	H	1.303693	0.432350	0.406253
H82	H	1.743051	-0.209281	0.000054
