data_functionalizedCrystal
_audit_creation_method	'MofGen! by Chris Wilmer'
_symmetry_space_group_name_H-M	'P1'
_symmetry_Int_Tables_number	1
_symmetry_cell_setting	triclinic
loop_
_symmetry_equiv_pos_as_xyz
  x,y,z
_cell_length_a	19.288864
_cell_length_b	19.288865
_cell_length_c	18.366186
_cell_angle_alpha	89.988521
_cell_angle_beta	89.977106
_cell_angle_gamma	83.136245
loop_
_atom_site_label
_atom_site_type_symbol
_atom_site_fract_x
_atom_site_fract_y
_atom_site_fract_z
O1	O	0.921353	0.086649	-0.060791
O2	O	0.719092	0.098337	-0.060743
O3	O	0.826067	-0.008637	-0.060754
O4	O	0.814378	0.193623	-0.060780
O5	O	0.826049	-0.008643	0.060345
O6	O	0.719074	0.098332	0.060357
O7	O	0.921335	0.086643	0.060308
Zn8	Zn	0.820201	0.092487	0.079559
Zn9	Zn	0.820225	0.092494	-0.079994
O10	O	0.814360	0.193618	0.060319
C11	C	0.693207	0.097959	-0.000187
C12	C	0.616103	0.096830	-0.000167
C13	C	0.571407	0.159598	-0.000187
C14	C	0.498960	0.158537	-0.000195
C15	C	0.471212	0.094705	-0.000198
C16	C	0.515918	0.031929	-0.000174
C17	C	0.588364	0.032991	-0.000159
C18	C	0.362956	0.044527	-0.042642
C19	C	0.290512	0.043468	-0.042662
C20	C	0.247767	0.091425	-0.000241
C21	C	0.277473	0.140454	0.042189
C22	C	0.349918	0.141517	0.042205
C23	C	0.392658	0.093546	-0.000214
C24	C	0.124514	0.153047	-0.000269
C25	C	0.052066	0.151984	-0.000272
C26	C	0.069026	0.025374	-0.000259
C27	C	0.141473	0.026439	-0.000248
C28	C	0.169212	0.090278	-0.000256
C29	C	0.825682	-0.034516	-0.000202
C30	C	0.824553	-0.111620	-0.000195
C31	C	0.887321	-0.156316	-0.000207
C32	C	0.886260	-0.228763	-0.000218
C33	C	0.822428	-0.256511	-0.000203
C34	C	0.759652	-0.211805	-0.000196
C35	C	0.760714	-0.139359	-0.000192
C36	C	0.772242	-0.364800	0.042227
C37	C	0.771182	-0.437245	0.042228
C38	C	0.819148	-0.479956	-0.000219
C39	C	0.868186	-0.450216	-0.042657
C40	C	0.869248	-0.377771	-0.042653
C41	C	0.821269	-0.335065	-0.000208
C42	C	0.880770	-0.603209	-0.000244
C43	C	0.879707	-0.675657	-0.000259
C44	C	0.753097	-0.658697	-0.000230
C45	C	0.754162	-0.586250	-0.000221
C46	C	0.818001	-0.558511	-0.000225
C47	C	0.947220	0.087022	-0.000250
C48	C	1.024324	0.088151	-0.000274
C49	C	0.814745	0.219497	-0.000234
C50	C	0.815874	0.296601	-0.000246
N51	N	0.820190	0.092482	0.188451
N52	N	0.820242	0.092493	-0.188885
C53	C	0.867574	0.045137	0.226546
C54	C	0.867578	0.045134	0.302774
C55	C	0.820206	0.092488	0.340903
C56	C	0.772813	0.139836	0.302799
C57	C	0.772805	0.139834	0.226572
C58	C	0.810907	0.155775	0.461657
C59	C	0.810920	0.155779	0.537882
C60	C	0.820225	0.092496	0.576011
C61	C	0.829533	0.029207	0.537905
C62	C	0.829525	0.029204	0.461679
C63	C	0.820208	0.092496	0.423558
C64	C	0.867617	0.045144	0.696761
C65	C	0.867616	0.045140	0.772990
C66	C	0.772854	0.139849	0.773014
C67	C	0.772851	0.139847	0.696786
C68	C	0.820236	0.092495	0.658664
H69	H	0.242671	0.179506	0.076733
H70	H	0.734219	0.178388	0.195554
H71	H	0.397755	0.005473	-0.077191
H72	H	0.462561	0.209652	-0.000209
H73	H	0.932751	-0.580622	-0.000250
H74	H	0.939303	-0.133736	-0.000212
N75	N	0.258474	-0.009409	-0.088426
H76	H	0.296545	-0.039635	-0.115289
H77	H	0.232385	-0.039630	-0.055882
H78	H	0.909175	-0.353560	-0.077208
H79	H	0.493322	-0.020044	-0.000187
N80	N	0.839563	-0.039052	0.420580
H81	H	0.797392	-0.043066	0.388974
H82	H	0.882583	-0.040631	0.388976
N83	N	0.636572	-0.034715	-0.000137
H84	H	0.627695	-0.062574	-0.045026
H85	H	0.686656	-0.024300	-0.000101
N86	N	0.919928	-0.496273	-0.088440
H87	H	0.911814	-0.546680	-0.082008
H88	H	0.913629	-0.482725	-0.141357
H89	H	0.937375	-0.265162	-0.000231
H90	H	0.593987	0.211580	-0.000195
H91	H	0.046435	-0.026600	-0.000306
H92	H	0.930822	-0.712049	-0.000273
N93	N	0.720516	-0.318739	0.088029
H94	H	0.728631	-0.268333	0.081596
H95	H	0.671480	-0.324849	0.072192
H96	H	0.701123	-0.681288	-0.000221
H97	H	0.906156	0.006579	0.195509
N98	N	0.918685	-0.005935	0.343875
H99	H	0.948700	-0.035933	0.308158
H100	H	0.949305	0.020586	0.375478
H101	H	0.803318	0.207311	0.430619
N102	N	0.839574	-0.039055	0.579018
H103	H	0.838164	-0.029453	0.633088
H104	H	0.801051	-0.067885	0.565718
N105	N	0.154434	0.221900	-0.000268
H106	H	0.184092	0.225160	0.044628
H107	H	0.184101	0.225126	-0.045185
H108	H	0.374102	0.181436	0.076756
H109	H	0.906200	0.006582	0.804008
H110	H	0.177866	-0.024674	-0.000236
N111	N	0.003877	0.219702	-0.000282
H112	H	-0.026542	0.222101	-0.045174
H113	H	-0.026532	0.222050	0.044639
N114	N	0.686462	-0.538036	-0.000205
H115	H	0.645862	-0.566605	-0.000196
H116	H	0.684139	-0.507619	0.044691
N117	N	0.918719	-0.005927	0.655637
H118	H	0.948735	-0.035925	0.691341
H119	H	0.892225	-0.036566	0.624029
N120	N	0.721752	0.190918	0.814129
H121	H	0.748193	0.221610	0.845736
H122	H	0.691747	0.220864	0.778378
N123	N	0.718297	-0.469311	0.088006
H124	H	0.669614	-0.450156	0.072175
H125	H	0.724962	-0.521682	0.081555
N126	N	0.690803	-0.241727	-0.000184
H127	H	0.699654	-0.294404	-0.000186
H128	H	0.663337	-0.225370	0.044715
N129	N	0.693012	-0.091146	-0.000180
H130	H	0.652411	-0.119713	-0.000175
H131	H	0.690688	-0.060730	0.044717
N132	N	0.721743	0.190912	0.655692
H133	H	0.691732	0.220910	0.691411
H134	H	0.748230	0.221552	0.624041
H135	H	0.803346	0.207313	0.568901
N136	N	0.721713	0.190908	0.343919
H137	H	0.728909	0.183727	0.397989
H138	H	0.729575	0.240164	0.330577
