data_functionalizedCrystal
_audit_creation_method	'MofGen! by Chris Wilmer'
_symmetry_space_group_name_H-M	'P1'
_symmetry_Int_Tables_number	1
_symmetry_cell_setting	triclinic
loop_
_symmetry_equiv_pos_as_xyz
  x,y,z
_cell_length_a	17.699077
_cell_length_b	15.944551
_cell_length_c	16.176319
_cell_angle_alpha	89.992246
_cell_angle_beta	89.993140
_cell_angle_gamma	83.389657
loop_
_atom_site_label
_atom_site_type_symbol
_atom_site_fract_x
_atom_site_fract_y
_atom_site_fract_z
O1	O	1.004263	0.106198	-0.068737
O2	O	1.504263	0.606198	0.431263
O3	O	0.783908	0.120023	-0.068742
O4	O	1.283908	0.620023	0.431258
O5	O	0.900103	-0.009177	-0.068732
O6	O	1.400103	0.490823	0.431268
O7	O	0.888068	0.235398	-0.068747
O8	O	1.388068	0.735398	0.431253
O9	O	0.900087	-0.009185	0.068761
O10	O	1.400087	0.490815	0.568761
O11	O	0.783892	0.120015	0.068752
O12	O	1.283892	0.620015	0.568752
O13	O	1.004247	0.106190	0.068756
O14	O	1.504247	0.606190	0.568756
Cu15	Cu	0.894068	0.113102	0.081308
Cu16	Cu	1.394068	0.613102	0.581308
Cu17	Cu	0.894087	0.113111	-0.081294
Cu18	Cu	1.394087	0.613111	0.418706
O19	O	0.888052	0.235390	0.068746
O20	O	1.388052	0.735390	0.568746
C21	C	0.755702	0.119524	0.000005
C22	C	1.255702	0.619524	0.500005
C23	C	0.671681	0.118041	0.000003
C24	C	1.171681	0.618041	0.500003
C25	C	0.632204	0.117337	0.074952
C26	C	1.132204	0.617337	0.574952
C27	C	0.553259	0.115930	0.074953
C28	C	1.053259	0.615930	0.574953
C29	C	0.513792	0.115232	0.000004
C30	C	1.013792	0.615232	0.500004
C31	C	0.553275	0.115933	-0.074950
C32	C	1.053275	0.615933	0.425050
C33	C	0.632219	0.117335	-0.074950
C34	C	1.132219	0.617335	0.425050
C35	C	0.234902	0.110281	-0.074951
C36	C	0.734902	0.610281	0.425049
C37	C	0.155952	0.108882	-0.074945
C38	C	0.655952	0.608882	0.425055
C39	C	0.155941	0.108876	0.074951
C40	C	0.655941	0.608876	0.574951
C41	C	0.234886	0.110277	0.074951
C42	C	0.734886	0.610277	0.574951
C43	C	0.274362	0.110974	-0.000002
C44	C	0.774362	0.610974	0.499998
C45	C	0.359964	0.112498	-0.000003
C46	C	0.859964	0.612498	0.499997
C47	C	0.428191	0.113714	0.000003
C48	C	0.928191	0.613714	0.500003
C49	C	0.899595	-0.040474	0.000015
C50	C	1.399595	0.459526	0.500015
C51	C	0.898097	-0.133717	0.000015
C52	C	1.398097	0.366283	0.500015
C53	C	0.822494	-0.348413	0.000002
C54	C	1.322494	0.151587	0.500002
C55	C	0.857594	-0.409509	0.067796
C56	C	1.357594	0.090491	0.567796
C57	C	0.895388	-0.304437	0.000009
C58	C	1.395388	0.195563	0.500009
C59	C	0.857627	-0.409484	-0.067762
C60	C	1.357627	0.090516	0.432238
C61	C	0.892765	-0.469344	-0.000001
C62	C	1.392765	0.030656	0.499999
C63	C	0.930507	-0.364305	0.067858
C64	C	1.430507	0.135695	0.567858
C65	C	0.930530	-0.364274	-0.067760
C66	C	1.430530	0.135726	0.432240
C67	C	0.965683	-0.425352	0.000049
C68	C	1.465683	0.074648	0.500049
C69	C	0.896896	-0.209438	0.000015
C70	C	1.396896	0.290562	0.500015
C71	C	0.891261	-0.564342	-0.000001
C72	C	1.391261	-0.064342	0.499999
C73	C	1.032453	0.106689	0.000008
C74	C	1.532453	0.606689	0.500008
C75	C	1.116474	0.108172	0.000004
C76	C	1.616474	0.608172	0.500004
C77	C	0.888559	0.266687	-0.000002
C78	C	1.388559	0.766687	0.499998
C79	C	0.890057	0.359930	-0.000008
C80	C	1.390057	0.859930	0.499992
N81	N	0.894060	0.113094	0.195673
N82	N	1.394060	0.613094	0.695673
N83	N	0.894101	0.113112	-0.195659
N84	N	1.394101	0.613112	0.304341
C85	C	0.945527	0.055908	0.238942
C86	C	1.445527	0.555908	0.738942
C87	C	0.945531	0.055907	0.325489
C88	C	1.445531	0.555907	0.825489
C89	C	0.894071	0.113097	0.368766
C90	C	1.394071	0.613097	0.868766
C91	C	0.842599	0.170286	0.325491
C92	C	1.342599	0.670286	0.825491
C93	C	0.842592	0.170283	0.238946
C94	C	1.342592	0.670283	0.738946
C95	C	0.842624	0.170302	0.674519
C96	C	1.342624	0.670302	1.174519
C97	C	0.842637	0.170303	0.761071
C98	C	1.342637	0.670303	1.261071
C99	C	0.945563	0.055926	0.761062
C100	C	1.445563	0.555926	1.261062
C101	C	0.945557	0.055923	0.674517
C102	C	1.445557	0.555923	1.174517
C103	C	0.894082	0.113108	0.631250
C104	C	1.394082	0.613108	1.131250
C105	C	0.894078	0.113108	0.537406
C106	C	1.394078	0.613108	1.037406
C107	C	0.894078	0.113103	0.462608
C108	C	1.394078	0.613103	0.962608
H109	H	0.123790	0.108305	0.135982
H110	H	0.623790	0.608305	0.635982
F111	F	0.787844	0.231165	0.628478
F112	F	1.287844	0.731165	1.128478
F113	F	0.817288	-0.435711	0.142708
F114	F	1.317288	0.064289	0.642708
F115	F	1.000346	-0.004939	0.807117
F116	F	1.500346	0.495061	1.307117
H117	H	0.987462	0.009356	0.639284
H118	H	1.487462	0.509356	1.139284
F119	F	0.276906	0.111023	-0.154724
F120	F	0.776906	0.611023	0.345276
H121	H	0.761989	-0.314976	0.000069
H122	H	1.261989	0.185024	0.500069
F123	F	0.113950	0.108138	-0.154720
F124	F	0.613950	0.608138	0.345280
H125	H	0.664331	0.117912	0.135983
H126	H	1.164331	0.617912	0.635983
F127	F	1.044836	-0.468864	0.000098
F128	F	1.544836	0.031136	0.500098
F129	F	0.511246	0.115193	0.154723
F130	F	1.011246	0.615193	0.654723
F131	F	0.970766	-0.338270	0.142853
F132	F	1.470766	0.161730	0.642853
H133	H	0.800681	0.216849	0.203717
H134	H	1.300681	0.716849	0.703717
H135	H	0.521135	0.115359	-0.135974
H136	H	1.021135	0.615359	0.364026
H137	H	0.664360	0.117909	-0.135981
H138	H	1.164360	0.617909	0.364019
H139	H	0.961341	-0.344206	-0.125076
H140	H	1.461341	0.155794	0.374924
F141	F	0.787827	0.231150	0.371551
F142	F	1.287827	0.731150	0.871551
H143	H	0.826793	-0.429492	-0.125080
H144	H	1.326793	0.070508	0.374920
H145	H	0.267015	0.110850	0.135982
H146	H	0.767015	0.610850	0.635982
F147	F	0.787863	0.231175	0.807128
F148	F	1.287863	0.731175	1.307128
F149	F	1.000302	-0.004959	0.192891
F150	F	1.500302	0.495041	0.692891
F151	F	1.000306	-0.004958	0.371539
F152	F	1.500306	0.495042	0.871539
