data_functionalizedCrystal
_audit_creation_method	'MofGen! by Chris Wilmer'
_symmetry_space_group_name_H-M	'P1'
_symmetry_Int_Tables_number	1
_symmetry_cell_setting	triclinic
loop_
_symmetry_equiv_pos_as_xyz
  x,y,z
_cell_length_a	17.640280
_cell_length_b	14.908618
_cell_length_c	14.908308
_cell_angle_alpha	89.826377
_cell_angle_beta	82.669722
_cell_angle_gamma	105.080554
loop_
_atom_site_label
_atom_site_type_symbol
_atom_site_fract_x
_atom_site_fract_y
_atom_site_fract_z
Zn1	Zn	-0.413083	-1.445840	-0.498205
Zn2	Zn	-0.538274	-1.484893	-0.320747
Zn3	Zn	-0.397876	-1.300455	-0.342490
Zn4	Zn	-0.537330	-1.325691	-0.462599
O5	O	-0.471641	-1.389220	-0.406010
O6	O	-0.436449	-1.578492	-0.480466
O7	O	-0.513682	-1.466209	-0.199099
O8	O	-0.289139	-1.292835	-0.387147
O9	O	-0.528426	-1.607184	-0.350089
O10	O	-0.300311	-1.399649	-0.501550
O11	O	-0.410532	-1.330703	-0.215073
O12	O	-0.409616	-1.176331	-0.352621
O13	O	-0.526817	-1.335847	-0.591855
O14	O	-0.512072	-1.194873	-0.440865
O15	O	-0.435533	-1.424120	-0.618014
O16	O	-0.648904	-1.490680	-0.315563
O17	O	-0.648210	-1.373715	-0.419781
C18	C	-0.459092	-1.152550	-0.395239
C19	C	-0.453744	-1.051306	-0.390648
C20	C	-0.550531	-0.880457	-0.473722
C21	C	-0.545508	-0.785329	-0.469411
C22	C	-0.438673	-0.765919	-0.377721
C23	C	-0.443695	-0.861047	-0.382032
C24	C	-0.499627	-0.918313	-0.430033
C25	C	-0.504653	-1.013444	-0.434338
C26	C	-0.397814	-0.994031	-0.342654
C27	C	-0.392792	-0.898903	-0.338343
C28	C	-0.677277	-1.439198	-0.361470
C29	C	-0.765254	-1.460660	-0.342449
C30	C	-1.052904	-1.226529	-0.550852
C31	C	-1.135571	-1.246700	-0.532950
C32	C	-1.136238	-1.368562	-0.424547
C33	C	-1.053569	-1.348405	-0.442442
C34	C	-1.011909	-1.277386	-0.505595
C35	C	-1.012574	-1.399262	-0.397185
C36	C	-0.929912	-1.379103	-0.415076
C37	C	-0.888246	-1.308086	-0.478224
C38	C	-0.929247	-1.257227	-0.523486
C39	C	-1.054236	-1.470276	-0.334028
C40	C	-1.013240	-1.521133	-0.288771
C41	C	-0.930578	-1.500979	-0.306667
C42	C	-0.888911	-1.429962	-0.369814
C43	C	-0.889576	-1.551838	-0.261405
C44	C	-0.806915	-1.531679	-0.279296
C45	C	-0.806250	-1.409803	-0.387705
C46	C	-0.265204	-1.339071	-0.450745
C47	C	-0.177233	-1.317700	-0.469809
C48	C	-0.482766	-1.378443	-0.638127
C49	C	-0.487506	-1.373850	-0.737041
C50	C	-0.484233	-0.626813	-0.416819
C51	C	-0.489582	-0.728057	-0.421411
C52	C	-0.401342	-1.457131	-0.950158
C53	C	-0.405794	-1.452819	-1.043097
C54	C	-0.500857	-1.360906	-1.015863
C55	C	-0.496405	-1.365219	-0.922923
C56	C	-0.446647	-1.413334	-0.890074
C57	C	-0.442200	-1.417653	-0.797132
C58	C	-0.537258	-1.325735	-0.769900
C59	C	-0.541710	-1.321422	-0.862840
C60	C	-0.460505	-1.399994	-0.174811
C61	C	-0.455550	-1.404709	-0.075953
H62	H	-0.596076	-0.927085	-0.512801
H63	H	-0.772329	-1.351979	-0.439138
C64	C	-1.005595	-1.639578	-0.183412
C65	C	-1.059037	-1.599195	-0.219356
H66	H	-1.033868	-1.687768	-0.140555
H67	H	-0.977030	-1.664714	-0.230785
H68	H	-0.969649	-1.593639	-0.154506
H69	H	-1.094979	-1.645134	-0.248268
H70	H	-1.087614	-1.574061	-0.171975
C71	C	-0.936884	-1.138794	-0.628876
C72	C	-0.883447	-1.179174	-0.592918
H73	H	-0.908607	-1.090609	-0.671737
H74	H	-0.972828	-1.184730	-0.657772
H75	H	-0.965450	-1.113644	-0.581503
H76	H	-0.854886	-1.204331	-0.640290
H77	H	-0.847489	-1.133230	-0.564022
C78	C	-0.764575	-1.259999	-0.418122
C79	C	-0.797382	-1.285925	-0.497894
H80	H	-0.708480	-1.246323	-0.430267
H81	H	-0.779463	-1.206522	-0.395963
H82	H	-0.783524	-1.309578	-0.374042
H83	H	-0.778438	-1.236342	-0.541972
H84	H	-0.782487	-1.339408	-0.520065
H85	H	-1.018983	-1.168705	-0.602284
H86	H	-1.168948	-1.205290	-0.569820
H87	H	-0.582220	-1.282245	-0.889599
H88	H	-1.170169	-1.426383	-0.373125
H89	H	-0.401685	-1.456832	-0.770388
H90	H	-0.923508	-1.609654	-0.209980
H91	H	-1.121544	-1.486689	-0.319466
C92	C	-0.611638	-1.369246	-1.096765
C93	C	-0.555535	-1.308008	-1.051989
H94	H	-0.645393	-1.336585	-1.119065
H95	H	-0.585289	-1.394710	-1.145839
H96	H	-0.642289	-1.417965	-1.055750
H97	H	-0.524880	-1.259292	-1.093006
H98	H	-0.581887	-1.282529	-1.002909
H99	H	-0.550196	-1.060070	-0.473421
C100	C	-0.815869	-1.654173	-0.170344
C101	C	-0.761847	-1.587579	-0.229550
H102	H	-0.788044	-1.688684	-0.139634
H103	H	-0.844409	-1.623969	-0.127483
H104	H	-0.851784	-1.695040	-0.203766
H105	H	-0.725935	-1.546709	-0.196126
H106	H	-0.733293	-1.617785	-0.272416
C107	C	-0.307828	-1.547556	-0.986408
C108	C	-0.346652	-1.510020	-0.914043
H109	H	-0.274061	-1.580203	-0.964112
H110	H	-0.345895	-1.589094	-1.016768
H111	H	-0.277186	-1.498823	-1.027414
H112	H	-0.377299	-1.558754	-0.873040
H113	H	-0.308580	-1.468480	-0.883668
H114	H	-0.368900	-1.488480	-1.092015
H115	H	-0.574151	-1.290075	-0.720969
H116	H	-0.393131	-0.719276	-0.338647
C117	C	-0.651614	-0.814074	-0.560474
C118	C	-0.601464	-0.743717	-0.517434
H119	H	-0.686161	-0.788383	-0.590119
H120	H	-0.620767	-0.841225	-0.603713
H121	H	-0.681934	-0.860322	-0.516773
H122	H	-0.571139	-0.697472	-0.561136
H123	H	-0.632313	-0.716552	-0.474191
H124	H	-0.347252	-0.852264	-0.299264
H125	H	-0.356366	-1.024863	-0.307076
