data_functionalizedCrystal
_audit_creation_method	'MofGen! by Chris Wilmer'
_symmetry_space_group_name_H-M	'P1'
_symmetry_Int_Tables_number	1
_symmetry_cell_setting	triclinic
loop_
_symmetry_equiv_pos_as_xyz
  x,y,z
_cell_length_a	21.395363
_cell_length_b	21.395361
_cell_length_c	21.395355
_cell_angle_alpha	90.021511
_cell_angle_beta	89.979718
_cell_angle_gamma	89.949529
loop_
_atom_site_label
_atom_site_type_symbol
_atom_site_fract_x
_atom_site_fract_y
_atom_site_fract_z
Zn1	Zn	0.957859	0.249181	-0.354177
Zn2	Zn	1.457859	0.749181	0.145823
Zn3	Zn	0.957762	0.353941	-0.249394
Zn4	Zn	1.457762	0.853941	0.250606
Zn5	Zn	0.853074	0.249217	-0.249422
Zn6	Zn	1.353074	0.749217	0.250578
Zn7	Zn	0.853043	0.353961	-0.354142
Zn8	Zn	1.353043	0.853961	0.145858
O9	O	0.905435	0.301575	-0.301784
O10	O	1.405435	0.801575	0.198216
O11	O	1.045524	0.263054	-0.340281
O12	O	1.545524	0.763054	0.159719
O13	O	0.943847	0.340056	-0.161720
O14	O	1.443847	0.840056	0.338280
O15	O	0.867028	0.161534	-0.263344
O16	O	1.367028	0.661534	0.236656
O17	O	1.045453	0.340020	-0.263297
O18	O	1.545453	0.840020	0.236703
O19	O	0.944013	0.161508	-0.340307
O20	O	1.444013	0.661508	0.159693
O21	O	0.866933	0.263116	-0.161740
O22	O	1.366933	0.763116	0.338260
O23	O	0.765392	0.263135	-0.263310
O24	O	1.265392	0.763135	0.236690
O25	O	0.866975	0.340054	-0.441825
O26	O	1.366975	0.840054	0.058175
O27	O	0.765370	0.340090	-0.340248
O28	O	1.265370	0.840090	0.159752
O29	O	0.943983	0.263073	-0.441850
O30	O	1.443983	0.763073	0.058150
O31	O	0.943817	0.441621	-0.263263
O32	O	1.443817	0.941621	0.236737
O33	O	0.866881	0.441636	-0.340221
O34	O	1.366881	0.941636	0.159779
C35	C	0.742647	0.301619	-0.301778
C36	C	1.242647	0.801619	0.198222
C37	C	0.673006	0.301653	-0.301791
C38	C	1.173006	0.801653	0.198209
C39	C	0.905352	0.464362	-0.301749
C40	C	1.405352	0.964362	0.198251
C41	C	0.905374	0.534004	-0.301755
C42	C	1.405374	1.034004	0.198245
C43	C	0.905487	0.301562	-0.465207
C44	C	1.405487	0.801562	0.034793
C45	C	0.905509	0.301557	-0.534848
C46	C	1.405509	0.801557	-0.034848
C47	C	1.068858	0.301531	-0.301790
C48	C	1.568858	0.801531	0.198210
C49	C	1.138499	0.301512	-0.301792
C50	C	1.638499	0.801512	0.198208
C51	C	1.171181	0.341581	-0.341851
C52	C	1.671181	0.841581	0.158149
C53	C	1.236616	0.341603	-0.341849
C54	C	1.736616	0.841603	0.158151
C55	C	1.269368	0.301544	-0.301794
C56	C	1.769368	0.801544	0.198206
C57	C	1.236678	0.261472	-0.261728
C58	C	1.736678	0.761472	0.238272
C59	C	1.171244	0.261456	-0.261726
C60	C	1.671244	0.761456	0.238274
C61	C	1.373097	0.245120	-0.296868
C62	C	1.873097	0.745120	0.203132
C63	C	1.438529	0.245135	-0.296873
C64	C	1.938529	0.745135	0.203127
C65	C	1.471188	0.301593	-0.301794
C66	C	1.971188	0.801593	0.198206
C67	C	1.438406	0.358039	-0.306723
C68	C	1.938406	0.858039	0.193277
C69	C	1.372972	0.358023	-0.306722
C70	C	1.872972	0.858023	0.193278
C71	C	1.340320	0.301557	-0.301791
C72	C	1.840320	0.801557	0.198209
C73	C	1.574822	0.341689	-0.341853
C74	C	2.074822	0.841689	0.158147
C75	C	1.640259	0.341711	-0.341847
C76	C	2.140259	0.841711	0.158153
C77	C	1.640320	0.261575	-0.261728
C78	C	2.140320	0.761575	0.238272
C79	C	1.574884	0.261558	-0.261732
C80	C	2.074884	0.761558	0.238268
C81	C	1.542140	0.301614	-0.301797
C82	C	2.042140	0.801614	0.198203
C83	C	0.905535	0.138151	-0.301832
C84	C	1.405535	0.638151	0.198168
C85	C	0.905577	0.068510	-0.301853
C86	C	1.405577	0.568510	0.198147
C87	C	0.945470	0.566688	-0.261724
C88	C	1.445470	1.066688	0.238276
C89	C	0.945499	0.632124	-0.261738
C90	C	1.445499	1.132124	0.238262
C91	C	0.905421	0.664872	-0.301776
C92	C	1.405421	1.164872	0.198224
C93	C	0.865322	0.632179	-0.341815
C94	C	1.365322	1.132179	0.158185
C95	C	0.865298	0.566745	-0.341804
C96	C	1.365298	1.066745	0.158196
C97	C	0.849006	0.768607	-0.306691
C98	C	1.349006	1.268607	0.193309
C99	C	0.849029	0.834039	-0.306697
C100	C	1.349029	1.334039	0.193303
C101	C	0.905494	0.866693	-0.301813
C102	C	1.405494	1.366693	0.198187
C103	C	0.961938	0.833905	-0.296910
C104	C	1.461938	1.333905	0.203090
C105	C	0.961915	0.768471	-0.296899
C106	C	1.461915	1.268471	0.203101
C107	C	0.905442	0.735824	-0.301793
C108	C	1.405442	1.235824	0.198207
C109	C	0.945625	0.970330	-0.261795
C110	C	1.445625	1.470330	0.238205
C111	C	0.945655	1.035766	-0.261814
C112	C	1.445655	1.535766	0.238186
C113	C	0.865473	1.035821	-0.341887
C114	C	1.365473	1.535821	0.158113
C115	C	0.865448	0.970385	-0.341872
C116	C	1.365448	1.470385	0.158128
C117	C	0.905523	0.937644	-0.301823
C118	C	1.405523	1.437644	0.198177
C119	C	0.945605	0.261471	-0.567576
C120	C	1.445605	0.761471	-0.067576
C121	C	0.945604	0.261444	-0.633011
C122	C	1.445604	0.761444	-0.133011
C123	C	0.905514	0.301514	-0.665717
C124	C	1.405514	0.801514	-0.165717
C125	C	0.865410	0.341603	-0.632981
C126	C	1.365410	0.841603	-0.132981
C127	C	0.865407	0.341624	-0.567547
C128	C	1.365407	0.841624	-0.067547
C129	C	0.900538	0.357931	-0.769380
C130	C	1.400538	0.857931	-0.269380
C131	C	0.900545	0.357911	-0.834813
C132	C	1.400545	0.857911	-0.334813
C133	C	0.905518	0.301448	-0.867538
C134	C	1.405518	0.801448	-0.367538
C135	C	0.910497	0.245003	-0.834821
C136	C	1.410497	0.745003	-0.334821
C137	C	0.910494	0.245025	-0.769387
C138	C	1.410494	0.745025	-0.269387
C139	C	0.905512	0.301495	-0.736669
C140	C	1.405512	0.801495	-0.236669
C141	C	0.945615	0.261329	-0.971218
C142	C	1.445615	0.761329	-0.471218
C143	C	0.945610	0.261301	-1.036654
C144	C	1.445610	0.761301	-0.536654
C145	C	0.865419	0.341466	-1.036623
C146	C	1.365419	0.841466	-0.536623
C147	C	0.865421	0.341488	-0.971188
C148	C	1.365421	0.841488	-0.471188
C149	C	0.905522	0.301421	-0.938489
C150	C	1.405522	0.801421	-0.438489
C151	C	0.905419	0.301542	-0.138996
C152	C	1.405419	0.801542	0.361004
C153	C	0.905518	0.301371	-0.069355
C154	C	1.405518	0.801371	0.430645
H155	H	1.144524	0.374201	-0.374474
H156	H	1.644524	0.874201	0.125526
N157	N	1.271995	0.218258	-0.218529
N158	N	1.771995	0.718258	0.281471
H159	H	1.260584	0.227989	-0.173758
H160	H	1.760584	0.727989	0.326242
H161	H	1.318396	0.224363	-0.224662
H162	H	1.818396	0.724363	0.275338
N163	N	0.822190	0.935130	-0.385040
N164	N	1.322190	1.435130	0.114960
H165	H	0.828256	0.888709	-0.378957
H166	H	1.328256	1.388709	0.121043
H167	H	0.831922	0.946530	-0.429798
H168	H	1.331922	1.446530	0.070202
H169	H	1.666986	0.228960	-0.229113
H170	H	2.166986	0.728960	0.270887
N171	N	1.539505	0.384900	-0.385059
N172	N	2.039505	0.884900	0.114941
H173	H	1.512313	0.413928	-0.359587
H174	H	2.012313	0.913928	0.140413
H175	H	1.512433	0.359386	-0.414098
H176	H	2.012433	0.859386	0.085902
N177	N	1.337615	0.418899	-0.312023
N178	N	1.837615	0.918899	0.187977
H179	H	1.291208	0.410320	-0.311274
H180	H	1.791208	0.910320	0.188726
H181	H	1.349038	0.440196	-0.352563
H182	H	1.849038	0.940196	0.147437
H183	H	0.832647	0.540133	-0.374403
H184	H	1.332647	1.040133	0.125597
N185	N	0.988863	0.218066	-1.071955
N186	N	1.488863	0.718066	-0.571955
H187	H	0.982779	0.224130	-1.118369
H188	H	1.482779	0.724130	-0.618369
H189	H	0.979145	0.173324	-1.060514
H190	H	1.479145	0.673324	-0.560514
N191	N	1.675504	0.384933	-0.385059
N192	N	2.175504	0.884933	0.114941
H193	H	1.702694	0.359473	-0.414099
H194	H	2.202694	0.859473	0.085901
H195	H	1.702573	0.413975	-0.359548
H196	H	2.202573	0.913975	0.140452
N197	N	1.473883	0.184257	-0.291555
N198	N	1.973883	0.684257	0.208445
H199	H	1.520290	0.192833	-0.292306
H200	H	2.020290	0.692833	0.207694
H201	H	1.462487	0.156237	-0.327792
H202	H	1.962487	0.656237	0.172208
H203	H	0.832770	0.374085	-1.063251
H204	H	1.332770	0.874085	-0.563251
H205	H	0.914547	0.199066	-0.742752
H206	H	1.414547	0.699066	-0.242752
N207	N	1.539630	0.218338	-0.218527
N208	N	2.039630	0.718338	0.281473
H209	H	1.570305	0.192964	-0.193151
H210	H	2.070305	0.692964	0.306849
H211	H	1.512522	0.189334	-0.244039
H212	H	2.012522	0.689334	0.255961
N213	N	1.337874	0.184222	-0.291557
N214	N	1.837874	0.684222	0.208443
H215	H	1.368569	0.148468	-0.288440
H216	H	1.868569	0.648468	0.211560
H217	H	1.310745	0.178395	-0.329733
H218	H	1.810745	0.678395	0.170267
N219	N	0.822240	1.071135	-0.385067
N220	N	1.322240	1.571135	0.114933
H221	H	0.796831	1.040497	-0.410423
H222	H	1.296831	1.540497	0.089577
H223	H	0.847737	1.098237	-0.414090
H224	H	1.347737	1.598237	0.085910
H225	H	0.832774	0.374134	-0.944541
H226	H	1.332774	0.874134	-0.444541
N227	N	0.895177	0.418785	-0.870099
N228	N	1.395177	0.918785	-0.370099
H229	H	0.931384	0.446822	-0.858718
H230	H	1.431384	0.946822	-0.358718
H231	H	0.854590	0.440064	-0.858685
H232	H	1.354590	0.940064	-0.358685
N233	N	0.822094	0.667502	-0.384995
N234	N	1.322094	1.167502	0.115005
H235	H	0.777328	0.656173	-0.375224
H236	H	1.277328	1.156173	0.124776
H237	H	0.831851	0.656068	-0.429752
H238	H	1.331851	1.156068	0.070248
H239	H	0.803068	0.860730	-0.310683
H240	H	1.303068	1.360730	0.189317
H241	H	0.978152	0.658741	-0.229140
H242	H	1.478152	1.158741	0.270860
N243	N	0.988854	0.218256	-0.532308
N244	N	1.488854	0.718256	-0.032308
H245	H	1.014255	0.192857	-0.562974
H246	H	1.514255	0.692857	-0.062974
H247	H	0.963368	0.189275	-0.505153
H248	H	1.463368	0.689275	-0.005153
H249	H	0.978254	0.228798	-0.659663
H250	H	1.478254	0.728798	-0.159663
H251	H	0.832753	0.374266	-0.540901
H252	H	1.332753	0.874266	-0.040901
H253	H	0.914547	0.199026	-0.861465
H254	H	1.414547	0.699026	-0.361465
N255	N	0.895182	0.418835	-0.734086
N256	N	1.395182	0.918835	-0.234086
H257	H	0.892038	0.454588	-0.764739
H258	H	1.392038	0.954588	-0.264739
H259	H	0.933358	0.424642	-0.706954
H260	H	1.433358	0.924642	-0.206954
N261	N	0.988863	0.218115	-0.935944
N262	N	1.488863	0.718115	-0.435944
H263	H	1.014261	0.192712	-0.966609
H264	H	1.514261	0.692712	-0.466609
H265	H	0.963376	0.189137	-0.908785
H266	H	1.463376	0.689137	-0.408785
H267	H	1.007873	0.741776	-0.292909
H268	H	1.507873	1.241776	0.207091
N269	N	1.135990	0.218238	-0.218517
N270	N	1.635990	0.718238	0.281483
H271	H	1.166665	0.192864	-0.193139
H272	H	1.666665	0.692864	0.306861
H273	H	1.108884	0.189232	-0.244030
H274	H	1.608884	0.689232	0.255970
H275	H	0.832766	0.374226	-0.659614
H276	H	1.332766	0.874226	-0.159614
H277	H	0.978259	0.943671	-0.229186
H278	H	1.478259	1.443671	0.270814
N279	N	1.271876	0.384822	-0.385056
N280	N	1.771876	0.884822	0.114944
H281	H	1.241203	0.410196	-0.410436
H282	H	1.741203	0.910196	0.089564
H283	H	1.299062	0.359317	-0.414056
H284	H	1.799062	0.859317	0.085944
N285	N	0.988701	0.531374	-0.218539
N286	N	1.488701	1.031374	0.281461
H287	H	1.014110	0.562013	-0.193184
H288	H	1.514110	1.062013	0.306816
H289	H	1.017673	0.504181	-0.244070
H290	H	1.517673	1.004181	0.255930
H291	H	1.464995	0.404012	-0.310734
H292	H	1.964995	0.904012	0.189266
H293	H	1.007918	0.860489	-0.292933
H294	H	1.507918	1.360489	0.207067
H295	H	0.803022	0.742027	-0.310670
H296	H	1.303022	1.242027	0.189330
N297	N	0.988907	1.071023	-0.218639
N298	N	1.488907	1.571023	0.281361
H299	H	1.014288	1.040349	-0.193267
H300	H	1.514288	1.540349	0.306733
H301	H	0.963425	1.098221	-0.189630
H302	H	1.463425	1.598221	0.310370
