data_functionalizedCrystal
_audit_creation_method	'MofGen! by Chris Wilmer'
_symmetry_space_group_name_H-M	'P1'
_symmetry_Int_Tables_number	1
_symmetry_cell_setting	triclinic
loop_
_symmetry_equiv_pos_as_xyz
  x,y,z
_cell_length_a	16.109301
_cell_length_b	16.109298
_cell_length_c	14.586319
_cell_angle_alpha	90.001604
_cell_angle_beta	89.998857
_cell_angle_gamma	83.460886
loop_
_atom_site_label
_atom_site_type_symbol
_atom_site_fract_x
_atom_site_fract_y
_atom_site_fract_z
O1	O	1.103129	0.106867	-0.076179
O2	O	1.603129	0.606867	0.423821
O3	O	0.861067	0.120166	-0.076190
O4	O	1.361067	0.620166	0.423810
O5	O	0.988749	-0.007514	-0.076191
O6	O	1.488749	0.492486	0.423809
O7	O	0.975447	0.234548	-0.076178
O8	O	1.475447	0.734548	0.423822
O9	O	0.988741	-0.007516	0.076290
O10	O	1.488741	0.492484	0.576290
O11	O	0.861058	0.120164	0.076290
O12	O	1.361058	0.620164	0.576290
O13	O	1.103121	0.106865	0.076302
O14	O	1.603121	0.606865	0.576302
Cu15	Cu	0.982089	0.113515	0.090219
Cu16	Cu	1.482089	0.613515	0.590219
Cu17	Cu	0.982099	0.113517	-0.090107
Cu18	Cu	1.482099	0.613517	0.409893
O19	O	0.975438	0.234546	0.076302
O20	O	1.475438	0.734546	0.576302
C21	C	0.830088	0.119627	0.000048
C22	C	1.330088	0.619627	0.500048
C23	C	0.737793	0.118011	0.000043
C24	C	1.237793	0.618011	0.500043
C25	C	0.428794	0.188495	0.000063
C26	C	0.928794	0.688495	0.500063
C27	C	0.515514	0.190020	0.000058
C28	C	1.015514	0.690020	0.500058
C29	C	0.535389	0.038531	0.000038
C30	C	1.035389	0.538531	0.500038
C31	C	0.448670	0.037007	0.000036
C32	C	0.948670	0.537007	0.500036
C33	C	0.395374	0.111991	0.000054
C34	C	0.895374	0.611991	0.500054
C35	C	0.568813	0.115041	0.000050
C36	C	1.068813	0.615041	0.500050
C37	C	0.662839	0.116694	0.000044
C38	C	1.162839	0.616694	0.500044
C39	C	0.301342	0.110338	0.000058
C40	C	0.801342	0.610338	0.500058
C41	C	0.988207	-0.038490	0.000046
C42	C	1.488207	0.461510	0.500046
C43	C	0.986593	-0.130786	0.000035
C44	C	1.486593	0.369214	0.500035
C45	C	1.134100	0.107405	0.000061
C46	C	1.634100	0.607405	0.500061
C47	C	1.226395	0.109020	0.000060
C48	C	1.726395	0.609020	0.500060
C49	C	0.981330	-0.429853	-0.083063
C50	C	1.481330	0.070147	0.416937
C51	C	0.982858	-0.343134	-0.083070
C52	C	1.482858	0.156866	0.416930
C53	C	0.982860	-0.343121	0.083173
C54	C	1.482860	0.156879	0.583173
C55	C	0.981338	-0.429840	0.083179
C56	C	1.481338	0.070160	0.583179
C57	C	0.980569	-0.473204	0.000058
C58	C	1.480569	0.026796	0.500058
C59	C	0.983619	-0.299765	0.000046
C60	C	1.483619	0.200235	0.500046
C61	C	0.985275	-0.205739	0.000039
C62	C	1.485275	0.294261	0.500039
C63	C	0.978914	-0.567235	0.000064
C64	C	1.478914	-0.067235	0.500064
C65	C	0.975981	0.265522	0.000064
C66	C	1.475981	0.765522	0.500064
C67	C	0.977595	0.357817	0.000069
C68	C	1.477595	0.857817	0.500069
N69	N	0.982087	0.113513	0.217051
N70	N	1.482087	0.613513	0.717051
N71	N	0.982107	0.113512	-0.216939
N72	N	1.482107	0.613512	0.283061
C73	C	1.038644	0.056995	0.452057
C74	C	1.538644	0.556995	0.952057
C75	C	1.038646	0.056993	0.548038
C76	C	1.538646	0.556993	1.048038
C77	C	0.925545	0.170033	0.548048
C78	C	1.425545	0.670033	1.048048
C79	C	0.925539	0.170031	0.452068
C80	C	1.425539	0.670031	0.952068
C81	C	0.982093	0.113512	0.404075
C82	C	1.482093	0.613512	0.904075
C83	C	0.982101	0.113513	0.596036
C84	C	1.482101	0.613513	1.096036
C85	C	0.982104	0.113511	0.700103
C86	C	1.482104	0.613511	1.200103
C87	C	0.982090	0.113513	0.300002
C88	C	1.482090	0.613513	0.800002
H89	H	0.542719	0.252317	0.000065
H90	H	1.042719	0.752317	0.500065
O91	O	0.587280	-0.034228	0.000070
O92	O	1.087280	0.465772	0.500070
C93	C	0.729683	-0.099019	0.000016
C94	C	1.229683	0.400981	0.500016
C95	C	0.671015	-0.016556	-0.000003
C96	C	1.171015	0.483444	0.499997
H97	H	0.797395	-0.084760	-0.000063
H98	H	1.297395	0.415240	0.499937
H99	H	0.717593	-0.136684	0.063839
H100	H	1.217593	0.363316	0.563839
H101	H	0.717487	-0.136667	-0.063787
H102	H	1.217487	0.363333	0.436213
H103	H	0.683177	0.021159	0.063756
H104	H	1.183177	0.521159	0.563756
H105	H	0.683117	0.021045	-0.063869
H106	H	1.183117	0.521045	0.436131
O107	O	0.416340	-0.037386	0.000069
O108	O	0.916340	0.462614	0.500069
C109	C	0.445197	-0.187482	-0.000008
C110	C	0.945197	0.312518	0.499992
C111	C	0.481923	-0.103297	-0.000018
C112	C	0.981923	0.396703	0.499982
H113	H	0.498203	-0.240793	-0.000098
H114	H	0.998203	0.259207	0.499902
H115	H	0.405122	-0.192044	0.063817
H116	H	0.905122	0.307956	0.563817
H117	H	0.405068	-0.191929	-0.063809
H118	H	0.905068	0.308071	0.436191
H119	H	0.522090	-0.098794	0.063739
H120	H	1.022090	0.401206	0.563739
H121	H	0.521951	-0.098772	-0.063886
H122	H	1.021951	0.401228	0.436114
O123	O	0.980611	-0.471852	-0.163885
O124	O	1.480611	0.028148	0.336115
C125	C	0.980685	-0.462696	-0.328776
C126	C	1.480685	0.037304	0.171224
C127	C	0.981529	-0.415037	-0.237309
C128	C	1.481529	0.084963	0.262691
H129	H	0.981408	-0.416780	-0.388163
H130	H	1.481408	0.083220	0.111837
H131	H	1.038128	-0.510912	-0.333011
H132	H	1.538128	-0.010912	0.166989
H133	H	0.921828	-0.495682	-0.332862
H134	H	1.421828	0.004318	0.167138
H135	H	1.040347	-0.382001	-0.233161
H136	H	1.540347	0.117999	0.266839
H137	H	0.924046	-0.366869	-0.233112
H138	H	1.424046	0.133131	0.266888
H139	H	0.983479	-0.307842	-0.150755
H140	H	1.483479	0.192158	0.349245
O141	O	1.093467	0.002011	0.594688
O142	O	1.593467	0.502011	1.094688
C143	C	1.111209	-0.111500	0.703086
C144	C	1.611209	0.388500	1.203086
C145	C	1.049032	-0.049290	0.650298
C146	C	1.549032	0.450710	1.150298
H147	H	1.075308	-0.152981	0.748074
H148	H	1.575308	0.347019	1.248074
H149	H	1.151615	-0.151954	0.652336
H150	H	1.651615	0.348046	1.152336
H151	H	1.152746	-0.075575	0.747979
H152	H	1.652746	0.424425	1.247979
H153	H	1.007441	-0.085148	0.605404
H154	H	1.507441	0.414852	1.105404
H155	H	1.008685	-0.008837	0.701098
H156	H	1.508685	0.491163	1.201098
H157	H	0.983485	-0.307804	0.150847
H158	H	1.483485	0.192196	0.650847
O159	O	0.377056	0.261353	-0.000092
O160	O	0.877056	0.761353	0.499908
C161	C	0.333576	0.390388	-0.079054
C162	C	0.833576	0.890388	0.420946
C163	C	0.392200	0.307897	-0.078998
C164	C	0.892200	0.807897	0.421002
H165	H	0.345811	0.428049	-0.142832
H166	H	0.845811	0.928049	0.357168
H167	H	0.265838	0.376209	-0.079114
H168	H	0.765838	0.876209	0.420886
H169	H	0.345720	0.428003	-0.015209
H170	H	0.845720	0.928003	0.484791
H171	H	0.380131	0.270241	-0.142832
H172	H	0.880131	0.770241	0.357168
H173	H	0.459918	0.322134	-0.078890
H174	H	0.959918	0.822134	0.421110
H175	H	0.980721	-0.465137	0.150870
H176	H	1.480721	0.034863	0.650870
O177	O	0.870524	0.224823	0.405411
O178	O	1.370524	0.724823	0.905411
C179	C	0.757013	0.242485	0.297006
C180	C	1.257013	0.742485	0.797006
C181	C	0.819255	0.180348	0.349806
C182	C	1.319255	0.680348	0.849806
H183	H	0.715558	0.206551	0.252023
H184	H	1.215558	0.706551	0.752023
H185	H	0.716537	0.282877	0.347750
H186	H	1.216537	0.782877	0.847750
H187	H	0.792913	0.284039	0.252108
H188	H	1.292913	0.784039	0.752108
H189	H	0.783422	0.138739	0.394706
H190	H	1.283422	0.638739	0.894706
H191	H	0.859730	0.140015	0.299013
H192	H	1.359730	0.640015	0.799013
H193	H	1.084692	0.010973	0.412983
H194	H	1.584692	0.510973	0.912983
H195	H	0.879501	0.216050	0.587134
H196	H	1.379501	0.716050	1.087134
