data_functionalizedCrystal
_audit_creation_method	'MofGen! by Chris Wilmer'
_symmetry_space_group_name_H-M	'P1'
_symmetry_Int_Tables_number	1
_symmetry_cell_setting	triclinic
loop_
_symmetry_equiv_pos_as_xyz
  x,y,z
_cell_length_a	27.732048
_cell_length_b	15.944551
_cell_length_c	15.021413
_cell_angle_alpha	90.009504
_cell_angle_beta	89.999540
_cell_angle_gamma	83.070697
loop_
_atom_site_label
_atom_site_type_symbol
_atom_site_fract_x
_atom_site_fract_y
_atom_site_fract_z
O1	O	-0.641360	-0.099949	-0.073919
O2	O	-0.391360	0.150051	0.176081
O3	O	-0.141360	0.400051	0.426081
O4	O	0.108640	0.650051	0.676081
O5	O	-0.500632	-0.115146	-0.073947
O6	O	-0.250632	0.134854	0.176053
O7	O	-0.000632	0.384854	0.426053
O8	O	0.249368	0.634854	0.676053
O9	O	-0.574839	0.014778	-0.073924
O10	O	-0.324839	0.264778	0.176076
O11	O	-0.074839	0.514778	0.426076
O12	O	0.175161	0.764778	0.676076
O13	O	-0.567153	-0.229873	-0.073942
O14	O	-0.317153	0.020127	0.176058
O15	O	-0.067153	0.270127	0.426058
O16	O	0.182847	0.520127	0.676058
O17	O	-0.574833	0.014791	0.074140
O18	O	-0.324833	0.264791	0.324140
O19	O	-0.074833	0.514791	0.574140
O20	O	0.175167	0.764791	0.824140
O21	O	-0.500626	-0.115133	0.074118
O22	O	-0.250626	0.134867	0.324118
O23	O	-0.000626	0.384867	0.574118
O24	O	0.249374	0.634867	0.824118
O25	O	-0.641354	-0.099936	0.074145
O26	O	-0.391354	0.150064	0.324145
O27	O	-0.141354	0.400064	0.574145
O28	O	0.108646	0.650064	0.824145
Zn29	Zn	-0.570989	-0.107532	0.097640
Zn30	Zn	-0.320989	0.142468	0.347640
Zn31	Zn	-0.070989	0.392468	0.597640
Zn32	Zn	0.179011	0.642468	0.847640
Zn33	Zn	-0.570997	-0.107550	-0.097441
Zn34	Zn	-0.320997	0.142450	0.152559
Zn35	Zn	-0.070997	0.392450	0.402559
Zn36	Zn	0.179003	0.642450	0.652559
O37	O	-0.567147	-0.229859	0.074122
O38	O	-0.317147	0.020141	0.324122
O39	O	-0.067147	0.270141	0.574122
O40	O	0.182853	0.520141	0.824122
C41	C	-0.574517	0.046074	0.000108
C42	C	-0.324517	0.296074	0.250108
C43	C	-0.074517	0.546074	0.500108
C44	C	0.175483	0.796074	0.750108
C45	C	-0.573560	0.139308	0.000108
C46	C	-0.323560	0.389308	0.250108
C47	C	-0.073560	0.639308	0.500108
C48	C	0.176440	0.889308	0.750108
C49	C	-0.482621	-0.114820	0.000082
C50	C	-0.232621	0.135180	0.250082
C51	C	0.017379	0.385180	0.500082
C52	C	0.267379	0.635180	0.750082
C53	C	-0.428962	-0.113860	0.000072
C54	C	-0.178962	0.136140	0.250072
C55	C	0.071038	0.386140	0.500072
C56	C	0.321038	0.636140	0.750072
C57	C	-0.659365	-0.100262	0.000114
C58	C	-0.409365	0.149738	0.250114
C59	C	-0.159365	0.399738	0.500114
C60	C	0.090635	0.649738	0.750114
C61	C	-0.713024	-0.101222	0.000118
C62	C	-0.463024	0.148778	0.250118
C63	C	-0.213024	0.398778	0.500118
C64	C	0.036976	0.648778	0.750118
C65	C	-0.090453	-0.184589	0.000106
C66	C	0.159547	0.065411	0.250106
C67	C	0.409547	0.315411	0.500106
C68	C	0.659547	0.565411	0.750106
C69	C	0.111222	-0.181025	0.000114
C70	C	0.361222	0.068975	0.250114
C71	C	0.611222	0.318975	0.500114
C72	C	0.861222	0.568975	0.750114
O73	O	0.142198	-0.245701	0.000148
O74	O	0.392198	0.004299	0.250148
O75	O	0.642198	0.254299	0.500148
O76	O	0.892198	0.504299	0.750148
N77	N	0.130679	-0.103986	0.000118
N78	N	0.380679	0.146014	0.250118
N79	N	0.630679	0.396014	0.500118
N80	N	0.880679	0.646014	0.750118
C81	C	0.099715	-0.027832	0.000125
C82	C	0.349715	0.222168	0.250125
C83	C	0.599715	0.472168	0.500125
C84	C	0.849715	0.722168	0.750125
O85	O	0.120892	0.037776	0.000138
O86	O	0.370892	0.287776	0.250138
O87	O	0.620892	0.537776	0.500138
O88	O	0.870892	0.787776	0.750138
C89	C	-0.101960	-0.031397	0.000124
C90	C	0.148040	0.218603	0.250124
C91	C	0.398040	0.468603	0.500124
C92	C	0.648040	0.718603	0.750124
C93	C	-0.121414	-0.108441	0.000111
C94	C	0.128586	0.141559	0.250111
C95	C	0.378586	0.391559	0.500111
C96	C	0.628586	0.641559	0.750111
C97	C	-0.109908	-0.261627	0.000094
C98	C	0.140092	-0.011627	0.250094
C99	C	0.390092	0.238373	0.500094
C100	C	0.640092	0.488373	0.750094
C101	C	-0.160324	-0.262517	0.000087
C102	C	0.089676	-0.012517	0.250087
C103	C	0.339676	0.237483	0.500087
C104	C	0.589676	0.487483	0.750087
C105	C	-0.191285	-0.186369	0.000092
C106	C	0.058715	0.063631	0.250092
C107	C	0.308715	0.313631	0.500092
C108	C	0.558715	0.563631	0.750092
C109	C	-0.171830	-0.109331	0.000104
C110	C	0.078170	0.140669	0.250104
C111	C	0.328170	0.390669	0.500104
C112	C	0.578170	0.640669	0.750104
C113	C	-0.132923	0.044756	0.000138
C114	C	0.117077	0.294756	0.250138
C115	C	0.367077	0.544756	0.500138
C116	C	0.617077	0.794756	0.750138
C117	C	-0.183345	0.043858	0.000139
C118	C	0.066655	0.293858	0.250139
C119	C	0.316655	0.543858	0.500139
C120	C	0.566655	0.793858	0.750139
C121	C	-0.202799	-0.033186	0.000126
C122	C	0.047201	0.216814	0.250126
C123	C	0.297201	0.466814	0.500126
C124	C	0.547201	0.716814	0.750126
C125	C	-0.253206	-0.034073	0.000102
C126	C	-0.003206	0.215927	0.250102
C127	C	0.246794	0.465927	0.500102
C128	C	0.496794	0.715927	0.750102
N129	N	-0.272664	-0.111113	0.000098
N130	N	-0.022664	0.138887	0.250098
N131	N	0.227336	0.388887	0.500098
N132	N	0.477336	0.638887	0.750098
C133	C	-0.241703	-0.187260	0.000093
C134	C	0.008297	0.062740	0.250093
C135	C	0.258297	0.312740	0.500093
C136	C	0.508297	0.562740	0.750093
C137	C	0.205597	-0.025966	0.000125
C138	C	0.455597	0.224034	0.250125
C139	C	0.705597	0.474034	0.500125
C140	C	0.955597	0.724034	0.750125
C141	C	0.256015	-0.025074	0.000123
C142	C	0.506015	0.224926	0.250123
C143	C	0.756015	0.474926	0.500123
C144	C	1.006015	0.724926	0.750123
C145	C	0.267519	-0.178268	0.000113
C146	C	0.517519	0.071732	0.250113
C147	C	0.767519	0.321732	0.500113
C148	C	1.017519	0.571732	0.750113
C149	C	0.217100	-0.179158	0.000108
C150	C	0.467100	0.070842	0.250108
C151	C	0.717100	0.320842	0.500108
C152	C	0.967100	0.570842	0.750108
C153	C	0.186139	-0.103005	0.000121
C154	C	0.436139	0.146995	0.250121
C155	C	0.686139	0.396995	0.500121
C156	C	0.936139	0.646995	0.750121
C157	C	-0.347580	-0.189124	0.000078
C158	C	-0.097580	0.060876	0.250078
C159	C	0.152420	0.310876	0.500078
C160	C	0.402420	0.560876	0.750078
C161	C	-0.398001	-0.190007	0.000067
C162	C	-0.148001	0.059993	0.250067
C163	C	0.101999	0.309993	0.500067
C164	C	0.351999	0.559993	0.750067
C165	C	-0.409500	-0.036815	0.000082
C166	C	-0.159500	0.213185	0.250082
C167	C	0.090500	0.463185	0.500082
C168	C	0.340500	0.713185	0.750082
C169	C	-0.359084	-0.035931	0.000088
C170	C	-0.109084	0.214069	0.250088
C171	C	0.140916	0.464069	0.500088
C172	C	0.390916	0.714069	0.750088
C173	C	-0.328125	-0.112092	0.000089
C174	C	-0.078125	0.137908	0.250089
C175	C	0.171875	0.387908	0.500089
C176	C	0.421875	0.637908	0.750089
O177	O	-0.284210	0.030569	0.000078
O178	O	-0.034210	0.280569	0.250078
O179	O	0.215790	0.530569	0.500078
O180	O	0.465790	0.780569	0.750078
O181	O	-0.262890	-0.252859	0.000100
O182	O	-0.012890	-0.002859	0.250100
O183	O	0.237110	0.247141	0.500100
O184	O	0.487110	0.497141	0.750100
C185	C	-0.040037	-0.183699	0.000112
C186	C	0.209963	0.066301	0.250112
C187	C	0.459963	0.316301	0.500112
C188	C	0.709963	0.566301	0.750112
C189	C	-0.020582	-0.106661	0.000124
C190	C	0.229418	0.143339	0.250124
C191	C	0.479418	0.393339	0.500124
C192	C	0.729418	0.643339	0.750124
C193	C	-0.051543	-0.030513	0.000129
C194	C	0.198457	0.219487	0.250129
C195	C	0.448457	0.469487	0.500129
C196	C	0.698457	0.719487	0.750129
C197	C	0.029836	-0.105769	0.000123
C198	C	0.279836	0.144231	0.250123
C199	C	0.529836	0.394231	0.500123
C200	C	0.779836	0.644231	0.750123
C201	C	0.060797	-0.181917	0.000118
C202	C	0.310797	0.068083	0.250118
C203	C	0.560797	0.318083	0.500118
C204	C	0.810797	0.568083	0.750118
C205	C	0.041339	-0.258956	0.000114
C206	C	0.291339	-0.008956	0.250114
C207	C	0.541339	0.241044	0.500114
C208	C	0.791339	0.491044	0.750114
C209	C	-0.009076	-0.259846	0.000107
C210	C	0.240924	-0.009846	0.250107
C211	C	0.490924	0.240154	0.500107
C212	C	0.740924	0.490154	0.750107
C213	C	-0.032086	0.046526	0.000133
C214	C	0.217914	0.296526	0.250133
C215	C	0.467914	0.546526	0.500133
C216	C	0.717914	0.796526	0.750133
C217	C	0.018331	0.047410	0.000139
C218	C	0.268331	0.297410	0.250139
C219	C	0.518331	0.547410	0.500139
C220	C	0.768331	0.797410	0.750139
C221	C	0.049291	-0.028737	0.000134
C222	C	0.299291	0.221263	0.250134
C223	C	0.549291	0.471263	0.500134
C224	C	0.799291	0.721263	0.750134
C225	C	-0.567469	-0.261156	0.000088
C226	C	-0.317469	-0.011156	0.250088
C227	C	-0.067469	0.238844	0.500088
C228	C	0.182531	0.488844	0.750088
C229	C	-0.568426	-0.354389	0.000082
C230	C	-0.318426	-0.104389	0.250082
C231	C	-0.068426	0.145611	0.500082
C232	C	0.181574	0.395611	0.750082
N233	N	-0.570986	-0.107520	0.230777
N234	N	-0.320986	0.142480	0.480777
N235	N	-0.070986	0.392480	0.730777
N236	N	0.179014	0.642480	0.980777
C237	C	-0.525277	0.353533	0.000087
C238	C	-0.275277	0.603533	0.250087
C239	C	-0.025277	0.853533	0.500087
C240	C	0.224723	1.103533	0.750087
C241	C	-0.547695	0.414850	0.073096
C242	C	-0.297695	0.664850	0.323096
C243	C	-0.047695	0.914850	0.573096
C244	C	0.202305	1.164850	0.823096
C245	C	-0.571830	0.310011	0.000101
C246	C	-0.321830	0.560011	0.250101
C247	C	-0.071830	0.810011	0.500101
C248	C	0.178170	1.060011	0.750101
C249	C	-0.547712	0.414820	-0.072884
C250	C	-0.297712	0.664820	0.177116
C251	C	-0.047712	0.914820	0.427116
C252	C	0.202288	1.164820	0.677116
C253	C	-0.570155	0.474902	0.000090
C254	C	-0.320155	0.724902	0.250090
C255	C	-0.070155	0.974902	0.500090
C256	C	0.179845	1.224902	0.750090
C257	C	-0.594260	0.370100	0.073170
C258	C	-0.344260	0.620100	0.323170
C259	C	-0.094260	0.870100	0.573170
C260	C	0.155740	1.120100	0.823170
C261	C	-0.594271	0.370064	-0.072875
C262	C	-0.344271	0.620064	0.177125
C263	C	-0.094271	0.870064	0.427125
C264	C	0.155729	1.120064	0.677125
C265	C	-0.616723	0.431364	0.000152
C266	C	-0.366723	0.681364	0.250152
C267	C	-0.116723	0.931364	0.500152
C268	C	0.133277	1.181364	0.750152
C269	C	-0.572793	0.215021	0.000108
C270	C	-0.322793	0.465021	0.250108
C271	C	-0.072793	0.715021	0.500108
C272	C	0.177207	0.965021	0.750108
C273	C	-0.569195	0.569890	0.000090
C274	C	-0.319195	0.819890	0.250090
C275	C	-0.069195	1.069890	0.500090
C276	C	0.180805	1.319890	0.750090
N277	N	-0.571003	-0.107555	-0.230579
N278	N	-0.321003	0.142445	0.019421
N279	N	-0.071003	0.392445	0.269421
N280	N	0.178997	0.642445	0.519421
C281	C	-0.605043	-0.046973	0.529779
C282	C	-0.355043	0.203027	0.779779
C283	C	-0.105043	0.453027	1.029779
C284	C	0.144957	0.703027	1.279779
C285	C	-0.614818	-0.122516	0.470409
C286	C	-0.364818	0.127484	0.720409
C287	C	-0.114818	0.377484	0.970409
C288	C	0.135182	0.627484	1.220409
C289	C	-0.570998	-0.107545	0.587814
C290	C	-0.320998	0.142455	0.837814
C291	C	-0.070998	0.392455	1.087814
C292	C	0.179002	0.642455	1.337814
C293	C	-0.561240	-0.031992	0.470442
C294	C	-0.311240	0.218008	0.720442
C295	C	-0.061240	0.468008	0.970442
C296	C	0.188760	0.718008	1.220442
C297	C	-0.570993	-0.107528	0.412390
C298	C	-0.320993	0.142472	0.662390
C299	C	-0.070993	0.392472	0.912390
C300	C	0.179007	0.642472	1.162390
C301	C	-0.580795	-0.183125	0.529751
C302	C	-0.330795	0.066875	0.779751
C303	C	-0.080795	0.316875	1.029751
C304	C	0.169205	0.566875	1.279751
C305	C	-0.527197	-0.092552	0.529789
C306	C	-0.277197	0.157448	0.779789
C307	C	-0.027197	0.407448	1.029789
C308	C	0.222803	0.657448	1.279789
C309	C	-0.536954	-0.168150	0.470446
C310	C	-0.286954	0.081850	0.720446
C311	C	-0.036954	0.331850	0.970446
C312	C	0.213046	0.581850	1.220446
C313	C	-0.571002	-0.107553	0.688871
C314	C	-0.321002	0.142447	0.938871
C315	C	-0.071002	0.392447	1.188871
C316	C	0.178998	0.642447	1.438871
C317	C	-0.570989	-0.107529	0.311335
C318	C	-0.320989	0.142471	0.561335
C319	C	-0.070989	0.392471	0.811335
C320	C	0.179011	0.642471	1.061335
H321	H	-0.413838	-0.252749	0.000056
H322	H	-0.163838	-0.002749	0.250056
H323	H	0.086162	0.247251	0.500056
H324	H	0.336162	0.497251	0.750056
H325	H	-0.613947	0.350185	-0.134594
H326	H	-0.363947	0.600185	0.115406
H327	H	-0.113947	0.850185	0.365406
H328	H	0.136053	1.100185	0.615406
H329	H	-0.552988	0.031895	0.444389
H330	H	-0.302988	0.281895	0.694389
H331	H	-0.052988	0.531895	0.944389
H332	H	0.197012	0.781895	1.194389
H333	H	0.180392	0.036051	0.000135
H334	H	0.430392	0.286051	0.250135
H335	H	0.680392	0.536051	0.500135
H336	H	0.930392	0.786051	0.750135
H337	H	-0.528002	0.434706	0.134811
H338	H	-0.278002	0.684706	0.384811
H339	H	-0.028002	0.934706	0.634811
H340	H	0.221998	1.184706	0.884811
H341	H	-0.176158	-0.325254	0.000076
H342	H	0.073842	-0.075254	0.250076
H343	H	0.323842	0.174746	0.500076
H344	H	0.573842	0.424746	0.750076
F345	F	-0.521969	0.440737	-0.153555
F346	F	-0.271969	0.690737	0.096445
F347	F	-0.021969	0.940737	0.346445
F348	F	0.228031	1.190737	0.596445
F349	F	-0.619973	0.344318	0.153935
F350	F	-0.369973	0.594318	0.403935
F351	F	-0.119973	0.844318	0.653935
F352	F	0.130027	1.094318	0.903935
H353	H	-0.490170	-0.079848	0.555892
H354	H	-0.240170	0.170152	0.805892
H355	H	0.009830	0.420152	1.055892
H356	H	0.259830	0.670152	1.305892
F357	F	-0.065031	0.127578	0.000140
F358	F	0.184969	0.377578	0.250140
F359	F	0.434969	0.627578	0.500140
F360	F	0.684969	0.877578	0.750140
H361	H	-0.633854	0.004187	0.555829
H362	H	-0.383854	0.254187	0.805829
H363	H	-0.133854	0.504187	1.055829
H364	H	0.116146	0.754187	1.305829
F365	F	-0.667273	0.475368	0.000213
F366	F	-0.417273	0.725368	0.250213
F367	F	-0.167273	0.975368	0.500213
F368	F	0.082727	1.225368	0.750213
F369	F	-0.663228	-0.139080	0.436297
F370	F	-0.413228	0.110920	0.686297
F371	F	-0.163228	0.360920	0.936297
F372	F	0.086772	0.610920	1.186297
H373	H	-0.589087	-0.247028	0.555694
H374	H	-0.339087	0.002972	0.805694
H375	H	-0.089087	0.252972	1.055694
H376	H	0.160913	0.502972	1.305694
H377	H	-0.434718	0.025183	0.000082
H378	H	-0.184718	0.275183	0.250082
H379	H	0.065282	0.525183	0.500082
H380	H	0.315282	0.775183	0.750082
F381	F	-0.474771	0.309338	0.000168
F382	F	-0.224771	0.559338	0.250168
F383	F	0.025229	0.809338	0.500168
F384	F	0.275229	1.059338	0.750168
H385	H	-0.508161	-0.219422	0.444559
H386	H	-0.258161	0.030578	0.694559
H387	H	-0.008161	0.280578	0.944559
H388	H	0.241839	0.530578	1.194559
H389	H	-0.322378	-0.251142	0.000081
H390	H	-0.072378	-0.001142	0.250081
H391	H	0.177622	0.248858	0.500081
H392	H	0.427622	0.498858	0.750081
H393	H	-0.024911	-0.322584	0.000098
H394	H	0.225089	-0.072584	0.250098
H395	H	0.475089	0.177416	0.500098
H396	H	0.725089	0.427416	0.750098
F397	F	-0.076964	-0.342681	0.000088
F398	F	0.173036	-0.092681	0.250088
F399	F	0.423036	0.157319	0.500088
F400	F	0.673036	0.407319	0.750088
F401	F	0.196400	-0.261158	0.000096
F402	F	0.446400	-0.011158	0.250096
F403	F	0.696400	0.238842	0.500096
F404	F	0.946400	0.488842	0.750096
H405	H	0.292736	-0.240270	0.000110
H406	H	0.542736	0.009730	0.250110
H407	H	0.792736	0.259730	0.500110
H408	H	1.042736	0.509730	0.750110
H409	H	-0.117093	0.107494	0.000149
H410	H	0.132907	0.357494	0.250149
H411	H	0.382907	0.607494	0.500149
H412	H	0.632907	0.857494	0.750149
F413	F	0.276714	0.056926	0.000117
F414	F	0.526714	0.306926	0.250117
F415	F	0.776714	0.556926	0.500117
F416	F	1.026714	0.806926	0.750117
H417	H	-0.208551	0.105873	0.000150
H418	H	0.041449	0.355873	0.250150
H419	H	0.291449	0.605873	0.500150
H420	H	0.541449	0.855873	0.750150
F421	F	-0.338379	0.046068	0.000102
F422	F	-0.088379	0.296068	0.250102
F423	F	0.161621	0.546068	0.500102
F424	F	0.411621	0.796068	0.750102
H425	H	0.034165	0.110154	0.000143
H426	H	0.284165	0.360154	0.250143
H427	H	0.534165	0.610154	0.500143
H428	H	0.784165	0.860154	0.750143
F429	F	0.074299	-0.339998	0.000104
F430	F	0.324299	-0.089998	0.250104
F431	F	0.574299	0.160002	0.500104
F432	F	0.824299	0.410002	0.750104
