data_functionalizedCrystal
_audit_creation_method	'MofGen! by Chris Wilmer'
_symmetry_space_group_name_H-M	'P1'
_symmetry_Int_Tables_number	1
_symmetry_cell_setting	triclinic
loop_
_symmetry_equiv_pos_as_xyz
  x,y,z
_cell_length_a	17.077402
_cell_length_b	21.295418
_cell_length_c	17.077396
_cell_angle_alpha	90.040468
_cell_angle_beta	89.969358
_cell_angle_gamma	89.956563
loop_
_atom_site_label
_atom_site_type_symbol
_atom_site_fract_x
_atom_site_fract_y
_atom_site_fract_z
Zn1	Zn	-0.312114	-0.962333	-0.444330
Zn2	Zn	-0.443393	-0.962259	-0.313063
Zn3	Zn	-0.312187	-0.857070	-0.313024
Zn4	Zn	-0.443384	-0.857035	-0.444233
O5	O	-0.377769	-0.909674	-0.378663
O6	O	-0.329502	-1.050413	-0.426974
O7	O	-0.426022	-0.948289	-0.203211
O8	O	-0.202330	-0.871079	-0.330467
O9	O	-0.425952	-1.050358	-0.330533
O10	O	-0.202277	-0.948415	-0.426937
O11	O	-0.329625	-0.871007	-0.203183
O12	O	-0.329617	-0.768976	-0.330373
O13	O	-0.425936	-0.871020	-0.554093
O14	O	-0.426007	-0.768950	-0.426771
O15	O	-0.329493	-0.948382	-0.554164
O16	O	-0.553238	-0.948255	-0.330438
O17	O	-0.553232	-0.870948	-0.426808
C18	C	-0.581717	-0.909607	-0.378634
C19	C	-0.668967	-0.909636	-0.378648
C20	C	-0.377819	-0.746123	-0.378558
C21	C	-0.377859	-0.676154	-0.378531
C22	C	-1.044690	-0.950012	-0.428986
C23	C	-0.962709	-0.949984	-0.428967
C24	C	-0.921816	-0.909735	-0.378694
C25	C	-0.962907	-0.869516	-0.328431
C26	C	-1.044886	-0.869548	-0.328446
C27	C	-0.792037	-0.869451	-0.328404
C28	C	-0.710052	-0.869418	-0.328390
C29	C	-0.709861	-0.949887	-0.428926
C30	C	-0.791839	-0.949919	-0.428941
C31	C	-0.832925	-0.909699	-0.378678
C32	C	-0.428118	-0.643291	-0.428648
C33	C	-0.428102	-0.577549	-0.428677
C34	C	-0.377836	-0.544672	-0.378576
C35	C	-0.327568	-0.577543	-0.328456
C36	C	-0.327579	-0.643284	-0.328433
N37	N	-0.371713	-0.441403	-0.309910
N38	N	-0.371706	-0.378951	-0.309933
C39	C	-0.377796	-0.346597	-0.378641
N40	N	-0.383908	-0.379054	-0.447327
N41	N	-0.383919	-0.441511	-0.447302
C42	C	-0.377817	-0.473387	-0.378595
C43	C	-0.428040	-0.242448	-0.428794
C44	C	-0.428018	-0.176705	-0.428825
C45	C	-0.327488	-0.176701	-0.328596
C46	C	-0.327506	-0.242443	-0.328573
C47	C	-0.377786	-0.275313	-0.378670
C48	C	-0.173025	-0.909759	-0.378709
C49	C	-0.085775	-0.909795	-0.378728
C50	C	-0.377706	-0.909705	-0.583407
C51	C	-0.377679	-0.909719	-0.670657
C52	C	-0.377733	-0.073865	-0.378746
C53	C	-0.377751	-0.143833	-0.378724
C54	C	-0.427781	-0.950016	-1.046489
C55	C	-0.427804	-0.950001	-0.964508
C56	C	-0.377623	-0.909759	-0.923506
C57	C	-0.327422	-0.869526	-0.964489
C58	C	-0.327404	-0.869540	-1.046468
C59	C	-0.327462	-0.869503	-0.793618
C60	C	-0.327480	-0.869490	-0.711634
C61	C	-0.427863	-0.949964	-0.711659
C62	C	-0.427844	-0.949977	-0.793638
C63	C	-0.377642	-0.909745	-0.834615
C64	C	-0.377776	-0.909679	-0.174715
C65	C	-0.377582	-0.909788	-0.087465
H66	H	-1.077980	-0.982782	-0.469932
H67	H	-0.286584	-0.269201	-0.287758
F68	F	-0.481628	-0.678270	-0.481969
F69	F	-0.835761	-0.826647	-0.274906
H70	H	-0.286568	-0.836758	-0.931098
H71	H	-0.468739	-0.982722	-0.678291
F72	F	-0.666531	-0.826589	-0.274874
H73	H	-0.929606	-0.836747	-0.287494
H74	H	-0.286557	-0.149933	-0.287807
F75	F	-0.273972	-0.826726	-1.090078
H76	H	-1.078336	-0.836799	-0.287521
F77	F	-0.274068	-0.542553	-0.275138
H78	H	-0.286650	-0.670041	-0.287622
F79	F	-0.481548	-0.277433	-0.482115
H80	H	-0.286616	-0.836724	-0.678252
H81	H	-0.469028	-0.550786	-0.469491
H82	H	-0.286582	-0.836742	-0.826979
H83	H	-0.468943	-0.149948	-0.469641
H84	H	-0.929258	-0.982732	-0.469891
F85	F	-0.481186	-0.992851	-1.090119
F86	F	-0.481250	-0.992808	-0.837274
F87	F	-0.835360	-0.992750	-0.482455
F88	F	-0.481231	-0.992818	-0.920901
F89	F	-0.666134	-0.992696	-0.482415
