data_functionalizedCrystal
_audit_creation_method	'MofGen! by Chris Wilmer'
_symmetry_space_group_name_H-M	'P1'
_symmetry_Int_Tables_number	1
_symmetry_cell_setting	triclinic
loop_
_symmetry_equiv_pos_as_xyz
  x,y,z
_cell_length_a	23.532407
_cell_length_b	15.944551
_cell_length_c	15.021413
_cell_angle_alpha	89.996935
_cell_angle_beta	89.995415
_cell_angle_gamma	96.826258
loop_
_atom_site_label
_atom_site_type_symbol
_atom_site_fract_x
_atom_site_fract_y
_atom_site_fract_z
O1	O	0.755658	-0.101954	-0.073978
O2	O	1.088991	0.231379	0.259355
O3	O	1.422324	0.564713	0.592689
O4	O	0.589851	-0.116707	-0.073992
O5	O	0.923185	0.216626	0.259341
O6	O	1.256518	0.549960	0.592674
O7	O	0.677282	0.012982	-0.073977
O8	O	1.010616	0.346316	0.259357
O9	O	1.343949	0.679649	0.592690
O10	O	0.668227	-0.231643	-0.073993
O11	O	1.001560	0.101690	0.259340
O12	O	1.334893	0.435023	0.592673
O13	O	0.677268	0.012964	0.074088
O14	O	1.010602	0.346297	0.407421
O15	O	1.343935	0.679631	0.740754
O16	O	0.589837	-0.116726	0.074072
O17	O	0.923171	0.216608	0.407405
O18	O	1.256504	0.549941	0.740739
O19	O	0.755644	-0.101972	0.074086
O20	O	1.088977	0.231361	0.407420
O21	O	1.422310	0.564694	0.740753
Zn22	Zn	0.672738	-0.109352	0.097588
Zn23	Zn	1.006072	0.223981	0.430921
Zn24	Zn	1.339405	0.557315	0.764254
Zn25	Zn	0.672757	-0.109328	-0.097493
Zn26	Zn	1.006090	0.224006	0.235840
Zn27	Zn	1.339423	0.557339	0.569173
O28	O	0.668213	-0.231662	0.074071
O29	O	1.001546	0.101671	0.407404
O30	O	1.334879	0.435005	0.740737
C31	C	0.568627	-0.116341	0.000038
C32	C	0.901960	0.216993	0.333371
C33	C	1.235294	0.550326	0.666705
C34	C	0.505406	-0.115211	0.000033
C35	C	0.838739	0.218122	0.333366
C36	C	1.172072	0.551456	0.666700
C37	C	0.238923	-0.033805	0.000063
C38	C	0.572256	0.299528	0.333396
C39	C	0.905589	0.632861	0.666729
C40	C	0.298327	-0.034855	0.000062
C41	C	0.631660	0.298479	0.333396
C42	C	0.964994	0.631812	0.666729
O43	O	0.334821	0.029724	0.000098
O44	O	0.668155	0.363057	0.333431
O45	O	1.001488	0.696390	0.666764
N46	N	0.321252	-0.111955	0.000051
N47	N	0.654585	0.221378	0.333384
N48	N	0.987919	0.554712	0.666718
C49	C	0.284769	-0.188011	0.000049
C50	C	0.618102	0.145322	0.333382
C51	C	0.951436	0.478655	0.666716
O52	O	0.309723	-0.253688	0.000040
O53	O	0.643056	0.079646	0.333374
O54	O	0.976390	0.412979	0.666707
C55	C	0.225366	-0.186961	0.000056
C56	C	0.558699	0.146372	0.333389
C57	C	0.892033	0.479706	0.666722
C58	C	0.202444	-0.109856	0.000058
C59	C	0.535778	0.223478	0.333391
C60	C	0.869111	0.556811	0.666725
C61	C	0.216001	0.043294	0.000066
C62	C	0.549334	0.376627	0.333399
C63	C	0.882667	0.709961	0.666733
C64	C	0.156601	0.044343	0.000065
C65	C	0.489934	0.377676	0.333398
C66	C	0.823267	0.711009	0.666731
C67	C	0.120122	-0.031708	0.000060
C68	C	0.453456	0.301626	0.333393
C69	C	0.786789	0.634959	0.666727
C70	C	0.143044	-0.108807	0.000057
C71	C	0.476378	0.224527	0.333390
C72	C	0.809711	0.557860	0.666723
C73	C	0.188884	-0.263016	0.000060
C74	C	0.522217	0.070317	0.333393
C75	C	0.855551	0.403650	0.666727
C76	C	0.129477	-0.261959	0.000068
C77	C	0.462811	0.071374	0.333401
C78	C	0.796144	0.404707	0.666734
C79	C	0.106556	-0.184854	0.000070
C80	C	0.439889	0.148479	0.333403
C81	C	0.773223	0.481813	0.666736
C82	C	0.047166	-0.183808	0.000051
C83	C	0.380499	0.149525	0.333384
C84	C	0.713832	0.482859	0.666717
N85	N	0.024241	-0.106708	0.000062
N86	N	0.357574	0.226626	0.333395
N87	N	0.690908	0.559959	0.666729
C88	C	0.060719	-0.030657	0.000067
C89	C	0.394052	0.302676	0.333400
C90	C	0.727386	0.636009	0.666733
C91	C	0.409520	-0.190211	0.000037
C92	C	0.742853	0.143123	0.333370
C93	C	1.076187	0.476456	0.666703
C94	C	0.468922	-0.191262	0.000024
C95	C	0.802255	0.142071	0.333357
C96	C	1.135589	0.475405	0.666690
C97	C	0.482476	-0.038105	0.000039
C98	C	0.815809	0.295228	0.333372
C99	C	1.149143	0.628562	0.666705
C100	C	0.423073	-0.037055	0.000045
C101	C	0.756406	0.296279	0.333379
C102	C	1.089740	0.629612	0.666712
C103	C	0.386595	-0.113110	0.000048
C104	C	0.719929	0.220223	0.333381
C105	C	1.053262	0.553556	0.666715
C106	C	-0.064026	-0.028460	0.000063
C107	C	0.269307	0.304873	0.333396
C108	C	0.602641	0.638206	0.666730
C109	C	-0.123432	-0.027418	0.000058
C110	C	0.209901	0.305915	0.333391
C111	C	0.543234	0.639249	0.666725
C112	C	-0.136981	-0.180575	0.000048
C113	C	0.196352	0.152759	0.333381
C114	C	0.529686	0.486092	0.666714
C115	C	-0.077580	-0.181617	0.000048
C116	C	0.255753	0.151716	0.333381
C117	C	0.589087	0.485049	0.666715
C118	C	-0.041104	-0.105553	0.000059
C119	C	0.292230	0.227780	0.333392
C120	C	0.625563	0.561113	0.666725
O121	O	0.010637	-0.248352	0.000019
O122	O	0.343970	0.084981	0.333352
O123	O	0.677303	0.418314	0.666686
O124	O	0.035757	0.035008	0.000087
O125	O	0.369090	0.368341	0.333421
O126	O	0.702424	0.701675	0.666754
C127	C	0.676899	0.044264	0.000056
C128	C	1.010233	0.377597	0.333389
C129	C	1.343566	0.710931	0.666722
C130	C	0.675772	0.137501	0.000056
C131	C	1.009106	0.470834	0.333389
C132	C	1.342439	0.804167	0.666723
C133	C	0.776868	-0.102339	0.000054
C134	C	1.110201	0.230994	0.333387
C135	C	1.443535	0.564328	0.666721
C136	C	0.840090	-0.103468	0.000053
C137	C	1.173423	0.229865	0.333387
C138	C	1.506756	0.563198	0.666720
C139	C	0.668596	-0.262944	0.000037
C140	C	1.001929	0.070390	0.333370
C141	C	1.335262	0.403723	0.666703
C142	C	0.669723	-0.356180	0.000030
C143	C	1.003056	-0.022847	0.333364
C144	C	1.336389	0.310487	0.666697
N145	N	0.672730	-0.109368	0.230725
N146	N	1.006063	0.223965	0.564058
N147	N	1.339397	0.557299	0.897392
C148	C	0.618885	0.351878	0.000039
C149	C	0.952218	0.685211	0.333372
C150	C	1.285551	1.018545	0.666705
C151	C	0.645295	0.413109	0.073046
C152	C	0.978628	0.746442	0.406379
C153	C	1.311961	1.079775	0.739712
C154	C	0.673733	0.308209	0.000049
C155	C	1.007067	0.641543	0.333382
C156	C	1.340400	0.974876	0.666716
C157	C	0.645321	0.413110	-0.072934
C158	C	0.978655	0.746444	0.260399
C159	C	1.311988	1.079777	0.593733
C160	C	0.671760	0.473105	0.000038
C161	C	1.005093	0.806439	0.333372
C162	C	1.338427	1.139772	0.666705
C163	C	0.700158	0.368212	0.073116
C164	C	1.033492	0.701545	0.406449
C165	C	1.366825	1.034879	0.739783
C166	C	0.700177	0.368207	-0.072929
C167	C	1.033511	0.701541	0.260404
C168	C	1.366844	1.034874	0.593738
C169	C	0.726627	0.429421	0.000096
C170	C	1.059960	0.762754	0.333429
C171	C	1.393294	1.096087	0.666762
C172	C	0.674869	0.213216	0.000056
C173	C	1.008202	0.546550	0.333389
C174	C	1.341535	0.879883	0.666723
C175	C	0.670629	0.568097	0.000038
C176	C	1.003962	0.901430	0.333371
C177	C	1.337295	1.234764	0.666704
N178	N	0.672770	-0.109305	-0.230631
N179	N	1.006103	0.224029	0.102702
N180	N	1.339436	0.557362	0.436036
C181	C	0.632296	-0.169309	0.470401
C182	C	0.965629	0.164025	0.803735
C183	C	1.298962	0.497358	1.137068
C184	C	0.683757	-0.185182	0.529739
C185	C	1.017090	0.148151	0.863072
C186	C	1.350423	0.481485	1.196406
C187	C	0.672745	-0.109347	0.412332
C188	C	1.006078	0.223986	0.745665
C189	C	1.339411	0.557320	1.078999
C190	C	0.621298	-0.093492	0.529736
C191	C	0.954631	0.239841	0.863070
C192	C	1.287964	0.573174	1.196403
C193	C	0.672754	-0.109329	0.587756
C194	C	1.006087	0.224005	0.921089
C195	C	1.339421	0.557338	1.254423
C196	C	0.724231	-0.125258	0.470363
C197	C	1.057565	0.208075	0.803697
C198	C	1.390898	0.541409	1.137030
C199	C	0.661739	-0.033535	0.470355
C200	C	0.995072	0.299798	0.803689
C201	C	1.328405	0.633131	1.137022
C202	C	0.713237	-0.049376	0.529666
C203	C	1.046570	0.283957	0.863000
C204	C	1.379903	0.617290	1.196333
C205	C	0.672738	-0.109360	0.311275
C206	C	1.006072	0.223974	0.644608
C207	C	1.339405	0.557307	0.977941
C208	C	0.672766	-0.109315	0.688811
C209	C	1.006100	0.224018	1.022145
C210	C	1.339433	0.557352	1.355478
H211	H	0.137944	0.107130	0.000070
H212	H	0.471277	0.440463	0.333404
H213	H	0.804611	0.773797	0.666737
H214	H	0.379822	-0.252148	0.000032
H215	H	0.713156	0.081185	0.333366
H216	H	1.046489	0.414518	0.666699
Cl217	Cl	0.217684	-0.359955	0.000058
Cl218	Cl	0.551018	-0.026622	0.333391
Cl219	Cl	0.884351	0.306711	0.666725
H220	H	0.404415	0.025731	0.000048
H221	H	0.737748	0.359065	0.333381
H222	H	1.071082	0.692398	0.666714
H223	H	-0.142091	0.035373	0.000058
H224	H	0.191242	0.368706	0.333391
H225	H	0.524576	0.702040	0.666724
H226	H	0.622090	0.433014	0.134763
H227	H	0.955423	0.766347	0.468097
H228	H	1.288757	1.099680	0.801430
H229	H	-0.166692	-0.242493	0.000040
H230	H	0.166641	0.090841	0.333373
H231	H	0.499975	0.424174	0.666706
H232	H	0.598124	-0.220057	0.444380
H233	H	0.931457	0.113277	0.777713
H234	H	1.264791	0.446610	1.111046
H235	H	0.245696	0.105227	0.000073
H236	H	0.579030	0.438560	0.333406
H237	H	0.912363	0.771893	0.666739
H238	H	0.577786	-0.080091	0.555819
H239	H	0.911119	0.253243	0.889152
H240	H	1.244453	0.586576	1.222485
Cl241	Cl	0.735938	0.337644	0.168514
Cl242	Cl	1.069272	0.670977	0.501847
Cl243	Cl	1.402605	1.004310	0.835181
Cl244	Cl	0.083623	-0.357579	0.000074
Cl245	Cl	0.416956	-0.024245	0.333408
Cl246	Cl	0.750290	0.309088	0.666741
Cl247	Cl	0.528346	0.057502	0.000044
Cl248	Cl	0.861679	0.390835	0.333377
Cl249	Cl	1.195012	0.724169	0.666711
Cl250	Cl	0.609498	0.443839	-0.168220
Cl251	Cl	0.942832	0.777173	0.165113
Cl252	Cl	1.276165	1.110506	0.498447
Cl253	Cl	-0.048764	-0.278551	0.000034
Cl254	Cl	0.284570	0.054783	0.333367
Cl255	Cl	0.617903	0.388116	0.666700
H256	H	0.747484	0.001343	0.555525
H257	H	1.080818	0.334676	0.888858
H258	H	1.414151	0.668009	1.222191
H259	H	0.772194	0.462963	0.000141
H260	H	1.105527	0.796297	0.333474
H261	H	1.438861	1.129630	0.666807
Cl262	Cl	0.735973	0.337437	-0.168222
Cl263	Cl	1.069307	0.670770	0.165111
Cl264	Cl	1.402640	1.004104	0.498445
Cl265	Cl	0.497730	-0.288198	0.000002
Cl266	Cl	0.831063	0.045135	0.333336
Cl267	Cl	1.164396	0.378468	0.666669
H268	H	-0.034333	0.033478	0.000072
H269	H	0.299000	0.366812	0.333405
H270	H	0.632333	0.700145	0.666738
H271	H	0.693074	-0.249286	0.555823
H272	H	1.026408	0.084047	0.889156
H273	H	1.359741	0.417381	1.222489
H274	H	0.767753	-0.138737	0.444393
H275	H	1.101086	0.194597	0.777726
H276	H	1.434419	0.527930	1.111060
H277	H	0.573358	0.318187	0.000108
H278	H	0.906691	0.651520	0.333441
H279	H	1.240024	0.984853	0.666774
Cl280	Cl	0.647328	0.065405	0.430048
Cl281	Cl	0.980661	0.398738	0.763381
Cl282	Cl	1.313995	0.732072	1.096714
