data_functionalizedCrystal
_audit_creation_method	'MofGen! by Chris Wilmer'
_symmetry_space_group_name_H-M	'P1'
_symmetry_Int_Tables_number	1
_symmetry_cell_setting	triclinic
loop_
_symmetry_equiv_pos_as_xyz
  x,y,z
_cell_length_a	12.594517
_cell_length_b	17.077404
_cell_length_c	17.077396
_cell_angle_alpha	90.019501
_cell_angle_beta	89.979999
_cell_angle_gamma	89.993141
loop_
_atom_site_label
_atom_site_type_symbol
_atom_site_fract_x
_atom_site_fract_y
_atom_site_fract_z
Zn1	Zn	0.423736	1.200143	0.443889
Zn2	Zn	0.923736	1.700143	0.943889
Zn3	Zn	0.601736	1.200088	0.312642
Zn4	Zn	1.101736	1.700088	0.812642
Zn5	Zn	0.423773	1.068875	0.312637
Zn6	Zn	0.923773	1.568875	0.812637
Zn7	Zn	0.601673	1.068880	0.443866
Zn8	Zn	1.101673	1.568880	0.943866
O9	O	0.512730	1.134497	0.378259
O10	O	1.012730	1.634497	0.878259
O11	O	0.447359	1.309983	0.426491
O12	O	0.947359	1.809983	0.926491
O13	O	0.578171	1.182657	0.202795
O14	O	1.078171	1.682657	0.702795
O15	O	0.274822	1.086309	0.330055
O16	O	0.774822	1.586309	0.830055
O17	O	0.578135	1.309942	0.330064
O18	O	1.078135	1.809942	0.830064
O19	O	0.274795	1.182751	0.426485
O20	O	0.774795	1.682751	0.926485
O21	O	0.447422	1.086255	0.202791
O22	O	0.947422	1.586255	0.702791
O23	O	0.447361	0.959029	0.330033
O24	O	0.947361	1.459029	0.830033
O25	O	0.578027	1.086318	0.553716
O26	O	1.078027	1.586318	1.053716
O27	O	0.578064	0.959033	0.426446
O28	O	1.078064	1.459033	0.926446
O29	O	0.447297	1.182756	0.553733
O30	O	0.947297	1.682756	1.053733
O31	O	0.750674	1.182662	0.330042
O32	O	1.250674	1.682662	0.830042
O33	O	0.750627	1.086264	0.426452
O34	O	1.250627	1.586264	0.926452
C35	C	0.512710	0.930549	0.378237
C36	C	1.012710	1.430549	0.878237
C37	C	0.512728	0.843299	0.378246
C38	C	1.012728	1.343299	0.878246
C39	C	0.235109	1.134536	0.378272
C40	C	0.735109	1.634536	0.878272
C41	C	0.116803	1.134553	0.378278
C42	C	0.616803	1.634553	0.878278
C43	C	0.580887	0.802331	0.428368
C44	C	1.080887	1.302331	0.928368
C45	C	0.580889	0.720351	0.428381
C46	C	1.080889	1.220351	0.928381
C47	C	0.512737	0.679340	0.378267
C48	C	1.012737	1.179340	0.878267
C49	C	0.444570	0.720313	0.328143
C50	C	0.944570	1.220313	0.828143
C51	C	0.444563	0.802292	0.328135
C52	C	0.944563	1.302292	0.828135
C53	C	0.444591	0.549443	0.328162
C54	C	0.944591	1.049443	0.828162
C55	C	0.444599	0.467458	0.328168
C56	C	0.944599	0.967458	0.828168
C57	C	0.580917	0.467502	0.428408
C58	C	1.080917	0.967502	0.928408
C59	C	0.580910	0.549481	0.428400
C60	C	1.080910	1.049481	0.928400
C61	C	0.512745	0.590449	0.378274
C62	C	1.012745	1.090449	0.878274
C63	C	0.047535	1.187002	0.430730
C64	C	0.547535	1.687002	0.930730
C65	C	-0.023226	1.206183	0.359119
C66	C	0.476774	1.706183	0.859119
C67	C	-0.023234	1.115396	0.449893
C68	C	0.476766	1.615396	0.949893
C69	C	0.047600	1.153772	0.306629
C70	C	0.547600	1.653772	0.806629
C71	C	0.047598	1.062951	0.397452
C72	C	0.547598	1.562951	0.897452
C73	C	-0.023131	1.082105	0.325791
C74	C	0.476869	1.582105	0.825791
C75	C	0.789271	1.134479	0.378262
C76	C	1.289271	1.634479	0.878262
C77	C	0.907576	1.134543	0.378290
C78	C	1.407576	1.634543	0.878290
C79	C	0.512651	1.134544	0.583003
C80	C	1.012651	1.634544	1.083003
C81	C	0.512618	1.134564	0.670253
C82	C	1.012618	1.634564	1.170253
C83	C	0.512750	1.339241	0.378281
C84	C	1.012750	1.839241	0.878281
C85	C	0.512758	1.426491	0.378290
C86	C	1.012758	1.926491	0.878290
C87	C	0.512731	1.134494	0.174311
C88	C	1.012731	1.634494	0.674311
C89	C	0.512464	1.134626	0.087061
C90	C	1.012464	1.634626	0.587061
C91	C	0.444541	1.184782	0.711253
C92	C	0.944541	1.684782	1.211253
C93	C	0.444506	1.184791	0.793234
C94	C	0.944506	1.684791	1.293234
C95	C	0.512553	1.134587	0.834212
C96	C	1.012553	1.634587	1.334212
C97	C	0.580633	1.084364	0.793206
C98	C	1.080633	1.584364	1.293206
C99	C	0.580662	1.084351	0.711227
C100	C	1.080662	1.584351	1.211227
C101	C	0.580569	1.084395	0.964076
C102	C	1.080569	1.584395	1.464076
C103	C	0.580541	1.084409	1.046061
C104	C	1.080541	1.584409	1.546061
C105	C	0.444412	1.184835	1.046083
C106	C	0.944412	1.684835	1.546083
C107	C	0.444442	1.184823	0.964104
C108	C	0.944442	1.684823	1.464104
C109	C	0.512523	1.134601	0.923103
C110	C	1.012523	1.634601	1.423103
H111	H	0.636389	0.835717	0.469174
H112	H	1.136389	1.335717	0.969174
H113	H	0.389073	0.582796	0.287351
H114	H	0.889073	1.082796	0.787351
O115	O	0.646847	1.035685	0.671306
O116	O	1.146847	1.535685	1.171306
C117	C	0.715626	1.080364	0.623905
C118	C	1.215626	1.580364	1.123905
H119	H	0.678094	1.139856	0.611643
H120	H	1.178094	1.639856	1.111643
H121	H	0.729902	1.048384	0.566247
H122	H	1.229902	1.548384	1.066247
H123	H	0.794496	1.088981	0.655492
H124	H	1.294496	1.588981	1.155492
H125	H	-0.053964	1.037747	0.281389
H126	H	0.446036	1.537747	0.781389
H127	H	-0.054350	1.099198	0.510451
H128	H	0.445650	1.599198	1.010451
H129	H	0.078729	1.002420	0.413689
H130	H	0.578729	1.502420	0.913689
O131	O	0.084435	1.239907	0.483673
O132	O	0.584435	1.739907	0.983673
C133	C	0.046818	1.220327	0.558930
C134	C	0.546818	1.720327	1.058930
H135	H	-0.028208	1.183411	0.553339
H136	H	0.471792	1.683411	1.053339
H137	H	0.028041	1.276177	0.592798
H138	H	0.528041	1.776177	1.092798
H139	H	0.110200	1.185560	0.591509
H140	H	0.610200	1.685560	1.091509
O141	O	0.378417	0.680561	0.279354
O142	O	0.878417	1.180561	0.779354
C143	C	0.401556	0.700543	0.201087
C144	C	0.901556	1.200543	0.701087
H145	H	0.442461	0.760064	0.199404
H146	H	0.942461	1.260064	0.699404
H147	H	0.324677	0.703332	0.165982
H148	H	0.824677	1.203332	0.665982
H149	H	0.456239	0.654391	0.174587
H150	H	0.956239	1.154391	0.674587
H151	H	-0.054335	1.266731	0.342901
H152	H	0.445665	1.766731	0.842901
H153	H	0.078584	1.170045	0.246055
H154	H	0.578584	1.670045	0.746055
O155	O	0.378442	0.427691	0.279396
O156	O	0.878442	0.927691	0.779396
C157	C	0.401548	0.447652	0.201118
C158	C	0.901548	0.947652	0.701118
H159	H	0.442437	0.507178	0.199409
H160	H	0.942437	1.007178	0.699409
H161	H	0.324656	0.450421	0.166026
H162	H	0.824656	0.950421	0.666026
H163	H	0.456233	0.401500	0.174621
H164	H	0.956233	0.901500	0.674621
H165	H	0.636393	0.686999	0.469194
H166	H	1.136393	1.186999	0.969194
O167	O	0.646821	1.035598	0.924369
O168	O	1.146821	1.535598	1.424369
C169	C	0.706869	0.991284	0.978115
C170	C	1.206869	1.491284	1.478115
H171	H	0.710512	1.023437	1.036563
H172	H	1.210512	1.523437	1.536563
H173	H	0.790746	0.982919	0.954428
H174	H	1.290746	1.482919	1.454428
H175	H	0.667909	0.931662	0.986813
H176	H	1.167909	1.431662	1.486813
O177	O	0.378243	1.233617	0.924417
O178	O	0.878243	1.733617	1.424417
C179	C	0.318164	1.277960	0.978181
C180	C	0.818164	1.777960	1.478181
H181	H	0.314449	1.245821	1.036615
H182	H	0.814449	1.745821	1.536615
H183	H	0.234314	1.286341	0.954498
H184	H	0.734314	1.786341	1.454498
H185	H	0.357145	1.337573	0.986906
H186	H	0.857145	1.837573	1.486906
O187	O	0.378338	1.233577	0.671571
O188	O	0.878338	1.733577	1.171571
C189	C	0.318263	1.277914	0.725343
C190	C	0.818263	1.777914	1.225343
H191	H	0.314555	1.245770	0.783774
H192	H	0.814555	1.745770	1.283774
H193	H	0.234410	1.286295	0.701664
H194	H	0.734410	1.786295	1.201664
H195	H	0.357242	1.337527	0.734071
H196	H	0.857242	1.837527	1.234071
H197	H	0.388976	1.225727	1.079469
H198	H	0.888976	1.725727	1.579469
O199	O	0.647149	0.589199	0.477152
O200	O	1.147149	1.089199	0.977152
C201	C	0.707333	0.535464	0.521382
C202	C	1.207333	1.035464	1.021382
H203	H	0.663752	0.477027	0.524163
H204	H	1.163752	0.977027	1.024163
H205	H	0.718792	0.559181	0.583212
H206	H	1.218792	1.059181	1.083212
H207	H	0.788122	0.526731	0.492540
H208	H	1.288122	1.026731	0.992540
O209	O	0.647030	0.427589	0.477079
O210	O	1.147030	0.927589	0.977079
C211	C	0.632440	0.346438	0.466333
C212	C	1.132440	0.846438	0.966333
H213	H	0.550253	0.335233	0.440727
H214	H	1.050253	0.835233	0.940727
H215	H	0.639766	0.315311	0.525126
H216	H	1.139766	0.815311	1.025126
H217	H	0.695500	0.323150	0.424457
H218	H	1.195500	0.823150	0.924457
O219	O	0.378520	1.233604	0.833153
O220	O	0.878520	1.733604	1.333153
C221	C	0.439100	1.284312	0.880573
C222	C	0.939100	1.784312	1.380573
H223	H	0.519758	1.256621	0.892841
H224	H	1.019758	1.756621	1.392841
H225	H	0.395722	1.294833	0.938227
H226	H	0.895722	1.794833	1.438227
H227	H	0.450804	1.342483	0.848999
H228	H	0.950804	1.842483	1.348999
H229	H	0.635949	1.043526	1.079424
H230	H	1.135949	1.543526	1.579424
H231	H	0.389055	0.835647	0.287324
H232	H	0.889055	1.335647	0.787324
H233	H	0.636034	1.043484	0.826578
H234	H	1.136034	1.543484	1.326578
