data_functionalizedCrystal
_audit_creation_method	'MofGen! by Chris Wilmer'
_symmetry_space_group_name_H-M	'P1'
_symmetry_Int_Tables_number	1
_symmetry_cell_setting	triclinic
loop_
_symmetry_equiv_pos_as_xyz
  x,y,z
_cell_length_a	11.169417
_cell_length_b	21.295417
_cell_length_c	21.295411
_cell_angle_alpha	89.978356
_cell_angle_beta	89.978806
_cell_angle_gamma	90.031386
loop_
_atom_site_label
_atom_site_type_symbol
_atom_site_fract_x
_atom_site_fract_y
_atom_site_fract_z
Zn1	Zn	1.834810	-0.250666	-0.355855
Zn2	Zn	2.334810	0.249334	0.144145
Zn3	Zn	1.834624	-0.355918	-0.250580
Zn4	Zn	2.334624	0.144082	0.249420
Zn5	Zn	1.634091	-0.250668	-0.250606
Zn6	Zn	2.134091	0.249332	0.249394
Zn7	Zn	1.634033	-0.355903	-0.355818
Zn8	Zn	2.134033	0.144097	0.144182
O9	O	1.734390	-0.303289	-0.303215
O10	O	2.234390	0.196711	0.196785
O11	O	2.002735	-0.264633	-0.341895
O12	O	2.502735	0.235367	0.158105
O13	O	1.807970	-0.341964	-0.162494
O14	O	2.307970	0.158036	0.337506
O15	O	1.660819	-0.162579	-0.264594
O16	O	2.160819	0.337421	0.235406
O17	O	2.002599	-0.341962	-0.264550
O18	O	2.502599	0.158038	0.235450
O19	O	1.808287	-0.162577	-0.341920
O20	O	2.308287	0.337423	0.158080
O21	O	1.660639	-0.264637	-0.162513
O22	O	2.160639	0.235363	0.337487
O23	O	1.466134	-0.264623	-0.264558
O24	O	1.966134	0.235377	0.235442
O25	O	1.660720	-0.341936	-0.443912
O26	O	2.160720	0.158064	0.056088
O27	O	1.466091	-0.341938	-0.341857
O28	O	1.966091	0.158062	0.158143
O29	O	1.808230	-0.264619	-0.443939
O30	O	2.308230	0.235381	0.056061
O31	O	1.807913	-0.444005	-0.264514
O32	O	2.307913	0.055995	0.235486
O33	O	1.660540	-0.443994	-0.341832
O34	O	2.160540	0.056006	0.158168
C35	C	1.422565	-0.303279	-0.303207
C36	C	1.922565	0.196721	0.196793
C37	C	1.289165	-0.303290	-0.303218
C38	C	1.789165	0.196710	0.196782
C39	C	1.734232	-0.466841	-0.303180
C40	C	2.234232	0.033159	0.196820
C41	C	1.734275	-0.536809	-0.303186
C42	C	2.234275	-0.036809	0.196814
C43	C	1.811080	-0.569660	-0.262968
C44	C	2.311080	-0.069660	0.237032
C45	C	1.811137	-0.635403	-0.262982
C46	C	2.311137	-0.135403	0.237018
C47	C	1.734366	-0.668291	-0.303208
C48	C	2.234366	-0.168291	0.196792
C49	C	1.657555	-0.635432	-0.343434
C50	C	2.157555	-0.135432	0.156566
C51	C	1.657509	-0.569690	-0.343423
C52	C	2.157509	-0.069690	0.156577
N53	N	1.629376	-0.771559	-0.308004
N54	N	2.129376	-0.271559	0.191996
N55	N	1.629423	-0.834010	-0.308011
N56	N	2.129423	-0.334010	0.191989
C57	C	1.734500	-0.866366	-0.303244
C58	C	2.234500	-0.366366	0.196756
N59	N	1.839532	-0.833911	-0.298458
N60	N	2.339532	-0.333911	0.201542
N61	N	1.839484	-0.771454	-0.298448
N62	N	2.339484	-0.271454	0.201552
C63	C	1.734407	-0.739576	-0.303224
C64	C	2.234407	-0.239576	0.196776
C65	C	1.811373	-0.970503	-0.263039
C66	C	2.311373	-0.470503	0.236961
C67	C	1.811432	-1.036246	-0.263058
C68	C	2.311432	-0.536246	0.236942
C69	C	1.657839	-1.036274	-0.343506
C70	C	2.157839	-0.536274	0.156494
C71	C	1.657792	-0.970532	-0.343491
C72	C	2.157792	-0.470532	0.156509
C73	C	1.734557	-0.937650	-0.303254
C74	C	2.234557	-0.437650	0.196746
C75	C	2.047432	-0.303299	-0.303223
C76	C	2.547432	0.196701	0.196777
C77	C	2.180832	-0.303303	-0.303227
C78	C	2.680832	0.196697	0.196773
C79	C	1.734489	-0.303276	-0.467405
C80	C	2.234489	0.196724	0.032595
C81	C	1.734532	-0.303270	-0.537373
C82	C	2.234532	0.196730	-0.037373
C83	C	1.734580	-0.139099	-0.303264
C84	C	2.234580	0.360901	0.196736
C85	C	1.734662	-0.069130	-0.303284
C86	C	2.234662	0.430870	0.196716
C87	C	1.811337	-0.263009	-0.570255
C88	C	2.311337	0.236991	-0.070255
C89	C	1.811335	-0.262982	-0.635998
C90	C	2.311335	0.237018	-0.135998
C91	C	1.734541	-0.303227	-0.668856
C92	C	2.234541	0.196773	-0.168856
C93	C	1.657721	-0.343490	-0.635966
C94	C	2.157721	0.156510	-0.135966
C95	C	1.657716	-0.343512	-0.570225
C96	C	2.157716	0.156488	-0.070225
N97	N	1.725281	-0.358294	-0.772072
N98	N	2.225281	0.141706	-0.272072
N99	N	1.725293	-0.358272	-0.834523
N100	N	2.225293	0.141728	-0.334523
C101	C	1.734549	-0.303163	-0.866931
C102	C	2.234549	0.196837	-0.366931
N103	N	1.743816	-0.248075	-0.834528
N104	N	2.243816	0.251925	-0.334528
N105	N	1.743811	-0.248099	-0.772070
N106	N	2.243811	0.251901	-0.272070
C107	C	1.734537	-0.303207	-0.740141
C108	C	2.234537	0.196793	-0.240141
C109	C	1.811356	-0.262869	-0.971098
C110	C	2.311356	0.237131	-0.471098
C111	C	1.811346	-0.262841	-1.036842
C112	C	2.311346	0.237159	-0.536842
C113	C	1.657738	-0.343355	-1.036809
C114	C	2.157738	0.156645	-0.536809
C115	C	1.657742	-0.343377	-0.971067
C116	C	2.157742	0.156623	-0.471067
C117	C	1.734557	-0.303135	-0.938215
C118	C	2.234557	0.196865	-0.438215
C119	C	1.734360	-0.303257	-0.139663
C120	C	2.234360	0.196743	0.360337
C121	C	1.734550	-0.303085	-0.069696
C122	C	2.234550	0.196915	0.430304
H123	H	1.873590	-0.542890	-0.230206
H124	H	2.373590	-0.042890	0.269794
H125	H	1.595206	-0.376166	-0.944294
H126	H	2.095206	0.123834	-0.444294
H127	H	1.873685	-0.662155	-0.230232
H128	H	2.373685	-0.162155	0.269768
H129	H	1.595191	-0.376256	-0.662724
H130	H	2.095191	0.123744	-0.162724
H131	H	1.594964	-0.542942	-0.376174
H132	H	2.094964	-0.042942	0.123826
H133	H	1.595167	-0.376296	-0.543453
H134	H	2.095167	0.123704	-0.043453
C135	C	1.895928	-1.072383	-0.218811
C136	C	2.395928	-0.572383	0.281189
N137	N	1.959569	-1.099601	-0.185483
N138	N	2.459569	-0.599601	0.314517
C139	C	1.573392	-1.072448	-0.387756
C140	C	2.073392	-0.572448	0.112244
N141	N	1.509786	-1.099697	-0.421088
N142	N	2.009786	-0.599697	0.078912
H143	H	1.873884	-0.943729	-0.230278
H144	H	2.373884	-0.443729	0.269722
C145	C	1.573323	-0.934394	-0.387747
C146	C	2.073323	-0.434394	0.112253
N147	N	1.509710	-0.907175	-0.421091
N148	N	2.009710	-0.407175	0.078909
H149	H	1.873885	-0.230240	-0.543511
H150	H	2.373885	0.269760	-0.043511
H151	H	1.873877	-0.230193	-0.662775
H152	H	2.373877	0.269807	-0.162775
H153	H	1.873897	-0.230098	-0.944349
H154	H	2.373897	0.269902	-0.444349
C155	C	1.895840	-0.218547	-1.073011
C156	C	2.395840	0.281453	-0.573011
N157	N	1.959484	-0.185185	-1.100255
N158	N	2.459484	0.314815	-0.600255
C159	C	1.573103	-0.671610	-0.387680
C160	C	2.073103	-0.171610	0.112320
N161	N	1.509492	-0.698860	-0.421008
N162	N	2.009492	-0.198860	0.078992
C163	C	1.573264	-0.387625	-1.072950
C164	C	2.073264	0.112375	-0.572950
N165	N	1.509635	-0.420970	-1.100174
N166	N	2.009635	0.079030	-0.600174
