data_functionalizedCrystal
_audit_creation_method	'MofGen! by Chris Wilmer'
_symmetry_space_group_name_H-M	'P1'
_symmetry_Int_Tables_number	1
_symmetry_cell_setting	triclinic
loop_
_symmetry_equiv_pos_as_xyz
  x,y,z
_cell_length_a	17.699083
_cell_length_b	15.995350
_cell_length_c	16.776229
_cell_angle_alpha	89.995580
_cell_angle_beta	89.998886
_cell_angle_gamma	83.387695
loop_
_atom_site_label
_atom_site_type_symbol
_atom_site_fract_x
_atom_site_fract_y
_atom_site_fract_z
O1	O	1.004255	0.105885	-0.066173
O2	O	0.783899	0.119661	-0.066198
O3	O	0.900100	-0.009127	-0.066184
O4	O	0.888053	0.234673	-0.066187
O5	O	0.900085	-0.009135	0.066393
O6	O	0.783884	0.119653	0.066378
O7	O	1.004239	0.105877	0.066404
Zn8	Zn	0.894059	0.112764	0.087441
Zn9	Zn	0.894079	0.112774	-0.087235
O10	O	0.888038	0.234665	0.066390
C11	C	0.755694	0.119163	0.000087
C12	C	0.671673	0.117683	0.000077
C13	C	0.623178	0.193278	0.000076
C14	C	0.544232	0.191882	0.000087
C15	C	0.513783	0.114889	0.000092
C16	C	0.562285	0.039287	0.000095
C17	C	0.641229	0.040685	0.000090
C18	C	0.243912	0.033651	0.000115
C19	C	0.164962	0.032259	0.000117
C20	C	0.146916	0.184848	0.000111
C21	C	0.225860	0.186245	0.000106
C22	C	0.274354	0.110644	0.000114
C23	C	0.359956	0.112159	0.000104
C24	C	0.428183	0.113373	0.000096
C25	C	0.899595	-0.040324	0.000103
C26	C	0.898101	-0.133272	0.000098
C27	C	0.892739	-0.471008	0.000100
C28	C	0.809983	-0.423406	-0.000207
C29	C	0.811476	-0.326719	0.000092
C30	C	0.895399	-0.303453	0.000099
C31	C	0.936209	-0.344618	0.075810
C32	C	0.934130	-0.441250	0.075873
C33	C	0.935857	-0.441602	-0.074891
C34	C	0.935837	-0.344657	-0.075892
C35	C	0.896907	-0.208759	0.000101
C36	C	0.891234	-0.565703	0.000104
C37	C	1.032445	0.106375	0.000117
C38	C	1.116465	0.107856	0.000122
C39	C	0.888544	0.265863	0.000101
C40	C	0.890037	0.358810	0.000101
N41	N	0.894051	0.112756	0.206652
N42	N	0.894094	0.112775	-0.206446
C43	C	0.945520	0.055752	0.248375
C44	C	0.945524	0.055752	0.331827
C45	C	0.894062	0.112760	0.373555
C46	C	0.842587	0.169766	0.331825
C47	C	0.842580	0.169762	0.248375
C48	C	0.842614	0.169783	0.668373
C49	C	0.842627	0.169784	0.751829
C50	C	0.945559	0.055772	0.751825
C51	C	0.945552	0.055768	0.668375
C52	C	0.894074	0.112771	0.626653
C53	C	0.894069	0.112770	0.536164
C54	C	0.894070	0.112765	0.464041
H55	H	0.647962	0.255975	0.000071
C56	C	0.694578	-0.042472	0.000088
C57	C	0.751332	-0.062497	0.068931
C58	C	0.804681	-0.145656	0.068933
C59	C	0.801274	-0.208789	0.000092
C60	C	0.744517	-0.188765	-0.068756
C61	C	0.691169	-0.105606	-0.068758
H62	H	0.753856	-0.015761	0.119896
H63	H	0.846696	-0.160478	0.119900
H64	H	0.840766	-0.270348	0.000094
H65	H	0.741994	-0.235501	-0.119721
H66	H	0.649154	-0.090783	-0.119725
C67	C	0.528792	-0.045406	0.000103
C68	C	0.547091	-0.108159	0.068950
C69	C	0.513600	-0.192854	0.068956
C70	C	0.461810	-0.214796	0.000115
C71	C	0.443508	-0.152042	-0.068737
C72	C	0.476999	-0.067347	-0.068743
H73	H	0.585432	-0.091917	0.119915
H74	H	0.527148	-0.239308	0.119926
H75	H	0.437017	-0.277493	0.000120
H76	H	0.405167	-0.168284	-0.119702
H77	H	0.463451	-0.020893	-0.119713
C78	C	0.768126	-0.288226	-0.073218
C79	C	0.794848	-0.315217	-0.157691
C80	C	0.751488	-0.276730	-0.231001
C81	C	0.681405	-0.211253	-0.219838
C82	C	0.654679	-0.184259	-0.135361
C83	C	0.698040	-0.222745	-0.062052
H84	H	0.846730	-0.363690	-0.165958
H85	H	0.771272	-0.296713	-0.293536
H86	H	0.649307	-0.182763	-0.274106
H87	H	0.602797	-0.135786	-0.127095
H88	H	0.678255	-0.202762	0.000483
C89	C	0.490890	0.275041	0.000086
C90	C	0.494295	0.338178	-0.068762
C91	C	0.440955	0.421342	-0.068759
C92	C	0.384210	0.441370	0.000092
C93	C	0.380803	0.378232	0.068945
C94	C	0.434143	0.295068	0.068942
H95	H	0.536303	0.323353	-0.119734
H96	H	0.443478	0.468081	-0.119729
H97	H	0.344725	0.502934	0.000094
H98	H	0.338795	0.393057	0.119917
H99	H	0.431621	0.248329	0.119912
C100	C	1.002131	-0.006959	0.202479
C101	C	0.972558	-0.070956	0.145120
C102	C	1.029169	-0.133672	0.099227
C103	C	1.115352	-0.132389	0.110694
C104	C	1.144929	-0.068389	0.168056
C105	C	1.088319	-0.005674	0.213949
H106	H	0.908756	-0.071908	0.136629
H107	H	1.007273	-0.181049	0.056764
H108	H	1.157259	-0.178815	0.076721
H109	H	1.208731	-0.067438	0.176547
H110	H	1.110214	0.041703	0.256412
H111	H	0.800717	0.216208	0.785802
C112	C	1.002159	-0.006942	0.622474
C113	C	1.060033	0.025691	0.565091
C114	C	1.116639	-0.037023	0.519192
C115	C	1.115372	-0.132370	0.530675
C116	C	1.057497	-0.165007	0.588060
C117	C	1.000890	-0.102294	0.633960
H118	H	1.060972	0.096277	0.556589
H119	H	1.159482	-0.012862	0.476711
H120	H	1.157275	-0.178794	0.496697
H121	H	1.056557	-0.235593	0.596563
H122	H	0.958047	-0.126455	0.676440
H123	H	0.997864	-0.330618	0.078630
H124	H	0.907852	-0.316183	0.132147
C125	C	0.893903	-0.465902	0.152317
C126	C	0.936456	-0.527322	0.212207
C127	C	0.896226	-0.551968	0.288651
C128	C	0.813444	-0.515194	0.305205
C129	C	0.770886	-0.453770	0.245313
C130	C	0.811116	-0.429124	0.168869
H131	H	0.997741	-0.554548	0.199954
H132	H	0.927731	-0.597439	0.332987
H133	H	0.783663	-0.533438	0.361794
H134	H	0.709601	-0.426544	0.257566
H135	H	0.779611	-0.383653	0.124533
H136	H	0.994888	-0.473622	0.079313
H137	H	0.250646	0.248941	0.000098
H138	H	0.987434	0.009334	0.365798
C139	C	0.765303	-0.448332	-0.073560
C140	C	0.803411	-0.512218	-0.134079
C141	C	0.758734	-0.537144	-0.207439
C142	C	0.675947	-0.498183	-0.220279
C143	C	0.637835	-0.434293	-0.159758
C144	C	0.682512	-0.409367	-0.086398
H145	H	0.864699	-0.541062	-0.124576
H146	H	0.786948	-0.584440	-0.252241
H147	H	0.642874	-0.516635	-0.274585
H148	H	0.576547	-0.405449	-0.169261
H149	H	0.654298	-0.362072	-0.041596
H150	H	0.908806	-0.462084	-0.132275
H151	H	0.777046	-0.442936	0.053777
C152	C	0.093569	0.268013	0.000113
C153	C	0.036809	0.288039	-0.068726
C154	C	-0.016535	0.371200	-0.068727
C155	C	-0.013119	0.434336	0.000110
C156	C	0.043644	0.414312	0.068954
C157	C	0.096988	0.331150	0.068955
H158	H	0.034278	0.241300	-0.119688
H159	H	-0.058554	0.386023	-0.119690
H160	H	-0.052607	0.495898	0.000109
H161	H	0.046175	0.461050	0.119916
H162	H	0.139007	0.316327	0.119918
C163	C	0.767941	-0.289081	0.073630
C164	C	0.809054	-0.240208	0.136137
C165	C	0.765567	-0.202619	0.209728
C166	C	0.680967	-0.213902	0.220812
C167	C	0.639850	-0.262777	0.158304
C168	C	0.683336	-0.300367	0.084713
H169	H	0.871684	-0.231854	0.127933
H170	H	0.796006	-0.166438	0.256001
H171	H	0.648776	-0.186076	0.275289
H172	H	0.577220	-0.271132	0.166508
H173	H	0.652898	-0.336548	0.038440
C174	C	0.785998	0.232489	0.622481
C175	C	0.729414	0.295224	0.668376
C176	C	0.672797	0.357934	0.622478
C177	C	0.672764	0.357909	0.530686
C178	C	0.729351	0.295172	0.484786
C179	C	0.785968	0.232462	0.530683
H180	H	0.729436	0.295245	0.736331
H181	H	0.630908	0.404377	0.656457
H182	H	0.630853	0.404331	0.496709
H183	H	0.729328	0.295151	0.416831
H184	H	0.827857	0.186019	0.496705
C185	C	0.895590	-0.307690	-0.151563
C186	C	0.826332	-0.240407	-0.144423
C187	C	0.786084	-0.203433	-0.220092
C188	C	0.815094	-0.233743	-0.302902
C189	C	0.884356	-0.301030	-0.310045
C190	C	0.924604	-0.338004	-0.234376
H191	H	0.804854	-0.217966	-0.083119
H192	H	0.734812	-0.153622	-0.214804
H193	H	0.785300	-0.206373	-0.358917
H194	H	0.905834	-0.323470	-0.371349
H195	H	0.975876	-0.387814	-0.239664
H196	H	0.987473	0.009354	0.785804
C197	C	1.018516	-0.324073	-0.082069
C198	C	1.050905	-0.269247	-0.017931
C199	C	1.133586	-0.248661	-0.024103
C200	C	1.183879	-0.282901	-0.094413
C201	C	1.151491	-0.337731	-0.158556
C202	C	1.068809	-0.358316	-0.152384
H203	H	1.013674	-0.243897	0.034121
H204	H	1.157561	-0.208073	0.023381
H205	H	1.245085	-0.267663	-0.098981
H206	H	1.188721	-0.363081	-0.210608
H207	H	1.044834	-0.398905	-0.199867
H208	H	0.996873	-0.473487	-0.075395
C209	C	0.785963	0.232470	0.202476
C210	C	0.729382	0.295207	0.248372
C211	C	0.672760	0.357913	0.202475
C212	C	0.672721	0.357882	0.110683
C213	C	0.729305	0.295142	0.064782
C214	C	0.785926	0.232436	0.110679
H215	H	0.729409	0.295232	0.316327
H216	H	0.630873	0.404357	0.236454
H217	H	0.630807	0.404301	0.076707
H218	H	0.729278	0.295117	-0.003173
H219	H	0.827813	0.185992	0.076700
H220	H	0.283388	-0.027909	0.000121
H221	H	0.140174	-0.030442	0.000122
H222	H	0.800681	0.216180	0.365805
