data_functionalizedCrystal
_audit_creation_method	'MofGen! by Chris Wilmer'
_symmetry_space_group_name_H-M	'P1'
_symmetry_Int_Tables_number	1
_symmetry_cell_setting	triclinic
loop_
_symmetry_equiv_pos_as_xyz
  x,y,z
_cell_length_a	13.032268
_cell_length_b	11.169417
_cell_length_c	11.169416
_cell_angle_alpha	90.011219
_cell_angle_beta	82.846368
_cell_angle_gamma	82.834482
loop_
_atom_site_label
_atom_site_type_symbol
_atom_site_fract_x
_atom_site_fract_y
_atom_site_fract_z
Zn1	Zn	-0.590812	-1.748724	0.563909
Zn2	Zn	-0.416084	-1.774118	0.739149
Zn3	Zn	-0.416094	-1.573513	0.538483
Zn4	Zn	-0.590784	-1.548022	0.764548
O5	O	-0.503444	-1.661094	0.651522
O6	O	-0.567642	-1.920041	0.587166
O7	O	-0.269853	-1.768803	0.691259
O8	O	-0.439288	-1.596796	0.373908
O9	O	-0.439269	-1.938698	0.715914
O10	O	-0.567652	-1.725523	0.392589
O11	O	-0.269860	-1.621419	0.543831
O12	O	-0.439260	-1.402183	0.568459
O13	O	-0.737020	-1.553350	0.759203
O14	O	-0.567603	-1.383454	0.734548
O15	O	-0.737041	-1.700805	0.611795
O16	O	-0.439241	-1.744085	0.910465
O17	O	-0.567593	-1.577973	0.929126
C18	C	-0.503430	-1.349271	0.651502
C19	C	-0.503449	-1.215868	0.651526
C20	C	-0.503436	-1.661048	0.963346
C21	C	-0.503467	-1.661132	1.096750
C22	C	-0.776007	-1.621401	0.691169
C23	C	-0.892158	-1.604486	0.708064
C24	C	-0.943952	-1.669903	0.642661
C25	C	-1.063999	-1.652423	0.660122
C26	C	-0.231940	-1.700701	0.611943
C27	C	-0.115790	-1.717849	0.594710
C28	C	-0.503458	-1.974134	0.651543
C29	C	-0.503464	-2.107533	0.651552
C30	C	-0.503474	-1.661170	0.338484
C31	C	-0.503488	-1.661202	0.205086
H32	H	-0.899420	-1.738846	0.573737
C33	C	-1.126539	-1.868074	0.444524
C34	C	-1.055692	-1.810932	0.501659
H35	H	-1.089435	-1.925532	0.387075
H36	H	-1.169103	-1.907813	0.502966
H37	H	-1.169117	-1.809625	0.404766
H38	H	-1.013120	-1.869380	0.541425
H39	H	-1.013111	-1.771192	0.443208
C40	C	-0.925939	-1.541088	0.916166
C41	C	-0.952258	-1.511406	0.801110
H42	H	-0.963036	-1.483616	0.973608
H43	H	-0.943784	-1.619132	0.936302
H44	H	-0.853147	-1.540625	0.916621
H45	H	-1.025049	-1.511877	0.800652
H46	H	-0.934420	-1.433341	0.780969
H47	H	-1.108527	-1.583463	0.729038
