data_functionalizedCrystal
_audit_creation_method	'MofGen! by Chris Wilmer'
_symmetry_space_group_name_H-M	'P1'
_symmetry_Int_Tables_number	1
_symmetry_cell_setting	triclinic
loop_
_symmetry_equiv_pos_as_xyz
  x,y,z
_cell_length_a	13.032831
_cell_length_b	15.297327
_cell_length_c	13.032268
_cell_angle_alpha	105.380838
_cell_angle_beta	90.886977
_cell_angle_gamma	93.742008
loop_
_atom_site_label
_atom_site_type_symbol
_atom_site_fract_x
_atom_site_fract_y
_atom_site_fract_z
Zn1	Zn	1.363663	-0.605893	-0.885100
Zn2	Zn	1.355662	-0.739564	-0.736122
Zn3	Zn	1.221861	-0.568414	-0.684891
Zn4	Zn	1.162990	-0.734713	-0.885413
O5	O	1.276044	-0.662146	-0.797881
O6	O	1.502581	-0.641340	-0.886647
O7	O	1.359203	-0.703205	-0.583060
O8	O	1.268657	-0.447848	-0.689878
O9	O	1.496703	-0.739547	-0.777194
O10	O	1.372838	-0.475384	-0.836970
O11	O	1.260899	-0.577463	-0.545420
O12	O	1.074072	-0.572759	-0.690181
O13	O	1.168320	-0.731280	-1.031638
O14	O	1.030820	-0.694938	-0.837504
O15	O	1.315754	-0.636636	-1.031408
O16	O	1.302118	-0.864458	-0.777497
O17	O	1.160562	-0.860894	-0.887180
C18	C	1.016151	-0.629256	-0.758318
C19	C	0.904960	-0.615209	-0.741421
C20	C	1.224108	-0.895233	-0.837959
C21	C	1.201976	-0.994963	-0.855153
C22	C	0.834008	-0.669477	-0.806700
C23	C	0.719086	-0.654961	-0.789238
C24	C	1.434586	-1.283427	-0.675411
C25	C	1.455381	-1.189725	-0.659251
C26	C	1.392032	-1.141030	-0.708225
C27	C	1.307884	-1.186046	-0.773362
C28	C	1.287082	-1.279756	-0.789517
C29	C	1.244528	-1.137359	-0.822332
C30	C	1.160380	-1.182375	-0.887469
C31	C	1.139583	-1.276076	-0.903621
C32	C	1.202932	-1.324771	-0.854647
C33	C	1.265329	-1.043649	-0.806176
C34	C	1.117825	-1.039978	-0.920283
C35	C	1.097031	-1.133680	-0.936443
C36	C	1.536951	-0.695165	-0.837600
C37	C	1.648135	-0.709236	-0.854526
C38	C	1.236363	-0.687598	-1.070508
C39	C	1.219453	-0.698444	-1.186686
C40	C	1.328207	-0.428155	-0.757674
C41	C	1.350436	-0.328442	-0.740540
C42	C	1.284861	-0.656451	-1.238367
C43	C	1.267385	-0.667660	-1.358443
C44	C	1.315643	-0.636736	-0.526313
C45	C	1.332803	-0.625662	-0.410122
H46	H	0.694754	-0.597746	-0.720421
H47	H	0.672465	-0.766443	-0.923352
H48	H	0.880623	-0.557999	-0.672609
H49	H	1.186008	-1.401072	-0.867804
C50	C	0.866875	-0.746764	-0.899668
C51	C	0.831164	-0.846137	-0.906328
C52	C	0.864029	-0.923427	-0.999298
C53	C	0.932604	-0.901343	-1.085609
C54	C	0.968319	-0.801965	-1.078952
C55	C	0.935455	-0.724676	-0.985982
H56	H	0.780397	-0.862489	-0.842433
H57	H	0.837590	-0.996992	-1.004226
H58	H	0.956932	-0.958557	-1.154431
H59	H	1.019086	-0.785613	-1.142847
H60	H	0.961894	-0.651110	-0.981054
H61	H	1.401740	-0.581404	-1.365477
C62	C	1.357891	-0.994139	-0.734536
C63	C	1.364245	-0.994957	-0.616708
C64	C	1.456815	-0.945448	-0.545065
C65	C	1.543031	-0.895121	-0.591250
C66	C	1.536680	-0.894301	-0.709085
C67	C	1.444110	-0.943810	-0.780728
H68	H	1.300420	-1.032214	-0.582513
H69	H	1.461516	-0.946055	-0.457836
H70	H	1.611557	-0.858471	-0.538216
H71	H	1.600505	-0.857044	-0.743280
H72	H	1.439409	-0.943203	-0.867957
C73	C	1.126320	-0.758224	-1.246992
C74	C	1.143115	-0.841099	-1.340770
C75	C	1.049980	-0.900881	-1.401073
C76	C	0.940051	-0.877788	-1.367597
C77	C	0.923251	-0.794909	-1.273814
C78	C	1.016386	-0.735127	-1.213511
H79	H	1.224496	-0.858198	-1.365555
H80	H	1.062417	-0.962234	-1.470498
H81	H	0.871107	-0.922042	-1.412237
H82	H	0.841871	-0.777811	-1.249028
H83	H	1.003950	-0.673774	-1.144086
C84	C	1.547942	-1.140211	-0.587612
C85	C	1.617629	-1.193769	-0.533745
C86	C	1.710198	-1.144254	-0.462104
C87	C	1.733079	-1.041182	-0.444330
C88	C	1.663390	-0.987619	-0.498197
C89	C	1.570821	-1.037134	-0.569838
H90	H	1.600693	-1.270074	-0.546902
H91	H	1.761787	-1.183906	-0.422228
H92	H	1.801604	-1.004529	-0.391297
H93	H	1.680326	-0.911314	-0.485041
H94	H	1.519233	-0.997482	-0.609715
C95	C	1.504257	-1.336993	-0.621543
C96	C	1.458597	-1.388332	-0.543979
C97	C	1.528272	-1.441900	-0.490105
C98	C	1.643607	-1.444129	-0.513794
C99	C	1.689273	-1.392789	-0.591362
C100	C	1.619599	-1.339221	-0.645236
H101	H	1.373214	-1.386683	-0.526439
H102	H	1.494466	-1.479905	-0.432684
H103	H	1.695184	-1.483784	-0.473913
H104	H	1.774657	-1.394438	-0.608901
H105	H	1.653405	-1.301216	-0.702657
H106	H	1.408967	-1.064733	-0.695062
C107	C	1.174248	-0.727444	-1.418745
C108	C	1.064319	-0.704351	-1.385269
C109	C	0.971184	-0.764133	-1.445571
C110	C	0.987979	-0.847008	-1.539350
C111	C	1.097913	-0.870105	-1.572831
C112	C	1.191048	-0.810323	-1.512528
H113	H	1.051882	-0.642998	-1.315844
H114	H	0.889803	-0.747034	-1.420786
H115	H	0.919035	-0.891262	-1.583990
H116	H	1.110349	-0.931458	-1.642256
H117	H	1.272428	-0.827421	-1.537313
C118	C	1.047015	-1.325590	-0.975265
C119	C	0.937402	-1.297599	-0.947127
C120	C	0.844833	-1.347110	-1.018770
C121	C	0.861877	-1.424612	-1.118551
C122	C	0.971495	-1.452607	-1.146693
C123	C	1.064063	-1.403096	-1.075050
H124	H	0.924780	-1.240224	-0.873259
H125	H	0.763686	-1.326386	-0.997937
H126	H	0.793352	-1.461263	-1.171585
H127	H	0.984116	-1.509982	-1.220561
H128	H	1.145210	-1.423820	-1.095883
C129	C	1.004466	-1.183203	-1.008086
C130	C	0.894848	-1.155224	-0.979951
C131	C	0.802284	-1.204749	-1.051593
C132	C	0.819339	-1.282252	-1.151369
C133	C	0.928961	-1.310235	-1.179508
C134	C	1.021525	-1.260710	-1.107866
H135	H	0.882219	-1.097848	-0.906087
H136	H	0.721135	-1.184034	-1.030763
H137	H	0.750817	-1.318913	-1.204403
H138	H	0.941590	-1.367611	-1.253373
H139	H	1.102675	-1.281426	-1.128697
C140	C	1.377994	-0.596673	-1.178060
C141	C	1.361201	-0.513799	-1.084279
C142	C	1.454337	-0.454020	-1.023974
C143	C	1.564266	-0.477116	-1.057450
C144	C	1.581064	-0.559994	-1.151235
C145	C	1.487928	-0.619773	-1.211540
H146	H	1.279821	-0.496699	-1.059495
H147	H	1.441901	-0.392668	-0.954548
H148	H	1.633211	-0.432864	-1.012808
H149	H	1.662444	-0.577094	-1.176020
H150	H	1.500363	-0.681124	-1.280966
H151	H	1.066239	-1.000330	-0.960160
