data_functionalizedCrystal
_audit_creation_method	'MofGen! by Chris Wilmer'
_symmetry_space_group_name_H-M	'P1'
_symmetry_Int_Tables_number	1
_symmetry_cell_setting	triclinic
loop_
_symmetry_equiv_pos_as_xyz
  x,y,z
_cell_length_a	17.639181
_cell_length_b	17.640280
_cell_length_c	18.215399
_cell_angle_alpha	101.224603
_cell_angle_beta	78.794169
_cell_angle_gamma	70.392638
loop_
_atom_site_label
_atom_site_type_symbol
_atom_site_fract_x
_atom_site_fract_y
_atom_site_fract_z
Zn1	Zn	1.326088	-0.582493	0.056512
Zn2	Zn	1.353873	-0.720282	-0.097698
Zn3	Zn	1.188300	-0.554690	-0.035327
Zn4	Zn	1.216134	-0.692419	0.056543
O5	O	1.271099	-0.637471	-0.004993
O6	O	1.445083	-0.624068	0.009940
O7	O	1.331888	-0.698341	-0.192409
O8	O	1.183301	-0.443073	0.002945
O9	O	1.465496	-0.725301	-0.103357
O10	O	1.284533	-0.463500	0.070418
O11	O	1.210242	-0.576681	-0.146586
O12	O	1.076683	-0.549663	0.002975
O13	O	1.230740	-0.677812	0.159524
O14	O	1.097133	-0.650852	0.070471
O15	O	1.311523	-0.597050	0.159501
O16	O	1.358878	-0.831892	-0.103327
O17	O	1.257682	-0.811421	0.009993
C18	C	1.057010	-0.594218	0.043495
C19	C	0.965425	-0.575733	0.064251
C20	C	0.717305	-0.778076	-0.162707
C21	C	0.631246	-0.760697	-0.143195
C22	C	0.610023	-0.655453	-0.025117
C23	C	0.696082	-0.672821	-0.044621
C24	C	0.749717	-0.734134	-0.113417
C25	C	0.728493	-0.628879	0.004669
C26	C	0.814545	-0.646249	-0.014833
C27	C	0.868186	-0.707561	-0.083624
C28	C	0.835769	-0.751504	-0.132918
C29	C	0.674857	-0.567570	0.073467
C30	C	0.707269	-0.523628	0.122757
C31	C	0.793321	-0.540993	0.103253
C32	C	0.846962	-0.602306	0.034462
C33	C	0.825738	-0.497050	0.152548
C34	C	0.911790	-0.514420	0.133047
C35	C	0.933014	-0.619676	0.014961
C36	C	1.314338	-0.851558	-0.053421
C37	C	1.332912	-0.943160	-0.074131
C38	C	1.130336	-1.191231	0.152531
C39	C	1.147790	-1.277306	0.133047
C40	C	1.253231	-1.298570	0.015127
C41	C	1.235789	-1.212496	0.034603
C42	C	1.174340	-1.158832	0.103306
C43	C	1.279792	-1.180097	-0.014622
C44	C	1.262348	-1.094030	0.004851
C45	C	1.200900	-1.040361	0.073549
C46	C	1.156895	-1.072765	0.122779
C47	C	1.341237	-1.233761	-0.083327
C48	C	1.385240	-1.201363	-0.132552
C49	C	1.367800	-1.115295	-0.113077
C50	C	1.306353	-1.061626	-0.044378
C51	C	1.411805	-1.082891	-0.162306
C52	C	1.394361	-0.996824	-0.142833
C53	C	1.288908	-0.975559	-0.024906
C54	C	1.486024	-0.680894	-0.053669
C55	C	1.577612	-0.699398	-0.074412
C56	C	1.271137	-0.637425	0.186962
C57	C	1.271154	-0.637405	0.268761
C58	C	1.227713	-0.422553	0.043635
C59	C	1.209224	-0.330968	0.064358
C60	C	1.271095	-0.637468	-0.196198
C61	C	1.271192	-0.637288	-0.277981
C62	C	1.313226	-0.595306	0.456951
C63	C	1.313231	-0.595284	0.533813
C64	C	1.229114	-0.679387	0.533825
C65	C	1.229104	-0.679404	0.456966
C66	C	1.271166	-0.637365	0.418530
C67	C	1.271180	-0.637327	0.572251
C68	C	1.271185	-0.637303	0.655588
C69	C	1.271159	-0.637388	0.335188
H70	H	0.879441	-0.801427	-0.188942
Br71	Br	0.790105	-0.861291	-0.256072
H72	H	0.604862	-0.796486	-0.183337
H73	H	0.938253	-0.721696	-0.099505
H74	H	1.194847	-0.713651	0.425684
H75	H	0.938179	-0.478636	0.173182
H76	H	1.347473	-0.561073	0.425660
H77	H	0.604789	-0.553432	0.089344
Br78	Br	1.454069	-0.952847	-0.209646
Br79	Br	1.205522	-0.902724	0.068342
H80	H	0.566342	-0.605534	0.030898
Br81	Br	1.073510	-0.999930	0.216026
Br82	Br	1.046950	-1.118396	0.245778
Br83	Br	0.634473	-0.440426	0.216123
Br84	Br	1.495189	-1.155727	-0.255546
Br85	Br	1.088051	-1.321269	0.199852
Br86	Br	1.005813	-0.702890	-0.078404
Br87	Br	1.336624	-1.371405	-0.078108
Br88	Br	0.752942	-0.413856	0.245918
H89	H	1.186692	-0.970279	0.089399
Br90	Br	1.468633	-1.274198	-0.225787
H91	H	1.355440	-1.303843	-0.099178
H92	H	1.194871	-0.713615	0.565128
H93	H	1.347480	-0.561034	0.565093
