data_functionalizedCrystal
_audit_creation_method	'MofGen! by Chris Wilmer'
_symmetry_space_group_name_H-M	'P1'
_symmetry_Int_Tables_number	1
_symmetry_cell_setting	triclinic
loop_
_symmetry_equiv_pos_as_xyz
  x,y,z
_cell_length_a	14.971507
_cell_length_b	15.500346
_cell_length_c	14.971486
_cell_angle_alpha	93.167011
_cell_angle_beta	96.381605
_cell_angle_gamma	86.820176
loop_
_atom_site_label
_atom_site_type_symbol
_atom_site_fract_x
_atom_site_fract_y
_atom_site_fract_z
O1	O	-1.190648	0.071966	0.120349
O2	O	-0.690648	0.571966	0.620349
O3	O	-0.930250	0.071963	0.134288
O4	O	-0.430250	0.571963	0.634288
O5	O	-1.067428	0.071958	-0.002882
O6	O	-0.567428	0.571958	0.497118
O7	O	-1.053470	0.071970	0.257518
O8	O	-0.553470	0.571970	0.757518
O9	O	-1.059989	-0.071928	-0.010278
O10	O	-0.559989	0.428072	0.489722
O11	O	-0.922811	-0.071924	0.126892
O12	O	-0.422811	0.428076	0.626892
O13	O	-1.183209	-0.071921	0.112953
O14	O	-0.683209	0.428079	0.612953
Cu15	Cu	-1.052331	-0.085060	0.119247
Cu16	Cu	-0.552331	0.414940	0.619247
Cu17	Cu	-1.061128	0.085102	0.127993
Cu18	Cu	-0.561128	0.585102	0.627993
O19	O	-1.046031	-0.071916	0.250122
O20	O	-0.546031	0.428084	0.750122
C21	C	-0.893206	0.000019	0.129963
C22	C	-0.393206	0.500019	0.629963
C23	C	-0.793910	0.000018	0.128085
C24	C	-0.293910	0.500018	0.628085
C25	C	-0.355628	0.000024	0.201502
C26	C	0.144372	0.500024	0.701502
C27	C	-0.448928	0.000029	0.203260
C28	C	0.051072	0.500029	0.703260
C29	C	-0.506148	0.000022	0.122668
C30	C	-0.006148	0.500022	0.622668
C31	C	-0.470063	0.000019	0.040312
C32	C	0.029937	0.500019	0.540312
C33	C	-0.376765	0.000020	0.038555
C34	C	0.123235	0.500020	0.538555
C35	C	-0.664526	0.000015	0.043979
C36	C	-0.164526	0.500015	0.543979
C37	C	-0.757831	0.000012	0.045736
C38	C	-0.257831	0.500012	0.545736
C39	C	-0.736690	0.000024	0.208684
C40	C	-0.236690	0.500024	0.708684
C41	C	-0.643391	0.000025	0.206927
C42	C	-0.143391	0.500025	0.706927
C43	C	-0.607313	0.000020	0.124571
C44	C	-0.107313	0.500020	0.624571
C45	C	-0.220253	0.000022	0.117277
C46	C	0.279747	0.500022	0.617277
C47	C	-0.319549	0.000018	0.119153
C48	C	0.180451	0.500018	0.619153
N49	N	-1.046150	-0.204744	0.113095
N50	N	-0.546150	0.295256	0.613095
C51	C	-1.063084	0.000015	-0.039904
C52	C	-0.563084	0.500015	0.460096
C53	C	-1.061214	0.000016	-0.139202
C54	C	-0.561214	0.500016	0.360798
C55	C	-1.015352	-0.749924	0.082139
C56	C	-0.515352	-0.249924	0.582139
C57	C	-1.020021	-0.659352	0.086827
C58	C	-0.520021	-0.159352	0.586827
C59	C	-1.076650	-0.614073	0.143519
C60	C	-0.576650	-0.114073	0.643519
C61	C	-1.128621	-0.659370	0.195521
C62	C	-0.628621	-0.159370	0.695521
C63	C	-1.123956	-0.749940	0.190828
C64	C	-0.623956	-0.249940	0.690828
C65	C	-1.093456	-0.340611	0.160403
C66	C	-0.593456	0.159389	0.660403
C67	C	-1.098114	-0.250034	0.165094
C68	C	-0.598114	0.249966	0.665094
C69	C	-0.989515	-0.250023	0.056398
C70	C	-0.489515	0.249977	0.556398
C71	C	-0.984851	-0.340594	0.051714
C72	C	-0.484851	0.159406	0.551714
C73	C	-1.036825	-0.385883	0.103712
C74	C	-0.536825	0.114117	0.603712
C75	C	-1.081422	-0.521494	0.148314
C76	C	-0.581422	-0.021494	0.648314
C77	C	-1.032058	-0.478460	0.098912
C78	C	-0.532058	0.021540	0.598912
N79	N	-1.067317	0.204786	0.134139
N80	N	-0.567317	0.704786	0.634139
C81	C	-1.141802	0.000016	-0.196421
C82	C	-0.641802	0.500016	0.303579
C83	C	-1.140039	0.000025	-0.289720
C84	C	-0.640039	0.500025	0.210280
C85	C	-1.057687	0.000027	-0.325798
C86	C	-0.557687	0.500027	0.174202
C87	C	-0.977093	0.000029	-0.268572
C88	C	-0.477093	0.500029	0.231428
C89	C	-0.978856	0.000027	-0.175274
C90	C	-0.478856	0.500027	0.324726
C91	C	-0.973422	0.000033	-0.463034
C92	C	-0.473422	0.500033	0.036966
C93	C	-0.971657	0.000033	-0.556338
C94	C	-0.471657	0.500033	-0.056338
C95	C	-1.134605	0.000031	-0.577480
C96	C	-0.634605	0.500031	-0.077480
C97	C	-1.136369	0.000028	-0.484183
C98	C	-0.636369	0.500028	0.015817
C99	C	-1.055774	0.000029	-0.426962
C100	C	-0.555774	0.500029	0.073038
C101	C	-1.050375	0.000029	0.287145
C102	C	-0.550375	0.500029	0.787145
C103	C	-1.052246	0.000034	0.386442
C104	C	-0.552246	0.500034	0.886442
H105	H	-0.635155	0.000015	-0.023083
H106	H	-0.135155	0.500015	0.476917
F107	F	-1.158410	-0.201847	0.225417
F108	F	-0.658410	0.298153	0.725417
F109	F	-0.934206	-0.201816	0.001060
F110	F	-0.434206	0.298184	0.501060
F111	F	-1.220381	0.000034	-0.638379
F112	F	-0.720381	0.500034	-0.138379
F113	F	-0.884009	0.000035	-0.594734
F114	F	-0.384009	0.500035	-0.094734
F115	F	-1.225813	0.000024	-0.350614
F116	F	-0.725813	0.500024	0.149386
F117	F	-1.179268	-0.798141	0.246170
F118	F	-0.679268	-0.298141	0.746170
H119	H	-0.804418	0.000013	-0.019890
H120	H	-0.304418	0.500013	0.480110
H121	H	-0.516659	0.000019	-0.025307
H122	H	-0.016659	0.500019	0.474693
F123	F	-1.188895	-0.611178	0.255853
F124	F	-0.688895	-0.111178	0.755853
F125	F	-0.887643	0.000035	-0.402138
F126	F	-0.387643	0.500035	0.097862
F127	F	-1.141688	-0.473297	0.208651
F128	F	-0.641688	0.026703	0.708651
H129	H	-0.910040	0.000037	-0.297954
H130	H	-0.410040	0.500037	0.202046
H131	H	-1.135776	-0.377474	0.202745
H132	H	-0.635776	0.122526	0.702745
H133	H	-0.985953	-0.515331	0.052750
H134	H	-0.485953	-0.015331	0.552750
H135	H	-0.913233	0.000027	-0.128686
H136	H	-0.413233	0.500027	0.371314
H137	H	-1.203427	0.000020	-0.454811
H138	H	-0.703427	0.500020	0.045189
H139	H	-0.309045	0.000023	0.267130
H140	H	0.190955	0.500023	0.767130
F141	F	-0.487322	0.000040	0.290908
F142	F	0.012678	0.500040	0.790908
H143	H	-0.347392	0.000017	-0.028502
H144	H	0.152608	0.500017	0.471498
H145	H	-0.977708	-0.622480	0.044480
H146	H	-0.477708	-0.122480	0.544480
H147	H	-0.596804	0.000025	0.272553
H148	H	-0.096804	0.500025	0.772553
H149	H	-1.208863	0.000009	-0.167054
H150	H	-0.708863	0.500009	0.332946
H151	H	-0.766069	0.000027	0.275741
H152	H	-0.266069	0.500027	0.775741
H153	H	-0.969233	-0.786783	0.035979
H154	H	-0.469233	-0.286783	0.535979
H155	H	-0.938739	-0.377454	0.005548
H156	H	-0.438739	0.122546	0.505548
