data_functionalizedCrystal
_audit_creation_method	'MofGen! by Chris Wilmer'
_symmetry_space_group_name_H-M	'P1'
_symmetry_Int_Tables_number	1
_symmetry_cell_setting	triclinic
loop_
_symmetry_equiv_pos_as_xyz
  x,y,z
_cell_length_a	16.120530
_cell_length_b	13.034570
_cell_length_c	13.033454
_cell_angle_alpha	90.866531
_cell_angle_beta	93.913305
_cell_angle_gamma	80.336380
loop_
_atom_site_label
_atom_site_type_symbol
_atom_site_fract_x
_atom_site_fract_y
_atom_site_fract_z
Zn1	Zn	1.242422	-0.403361	-0.721071
Zn2	Zn	1.277118	-0.599065	-0.573418
Zn3	Zn	1.122828	-0.418713	-0.540698
Zn4	Zn	1.118387	-0.568473	-0.734146
O5	O	1.190189	-0.497403	-0.642333
O6	O	1.363504	-0.435700	-0.709707
O7	O	1.273030	-0.594368	-0.426326
O8	O	1.126031	-0.272099	-0.545460
O9	O	1.388995	-0.579482	-0.601227
O10	O	1.213896	-0.260820	-0.677979
O11	O	1.159674	-0.461865	-0.402287
O12	O	1.005759	-0.432201	-0.558137
O13	O	1.118462	-0.527343	-0.875163
O14	O	1.002497	-0.542229	-0.700262
O15	O	1.209590	-0.406036	-0.865557
O16	O	1.268724	-0.739584	-0.613905
O17	O	1.152105	-0.717108	-0.731990
C18	C	1.213718	-0.765832	-0.677940
C19	C	1.223856	-0.880666	-0.693213
C20	C	0.973926	-0.485562	-0.627069
C21	C	0.881407	-0.480518	-0.620566
C22	C	1.195430	-1.056220	-0.650186
C23	C	1.184951	-0.937532	-0.634407
C24	C	0.712011	-0.471283	-0.608699
C25	C	0.669205	-0.523589	-0.676052
C26	C	0.574948	-0.518451	-0.669450
C27	C	0.806277	-0.476420	-0.615300
C28	C	1.407296	-0.509291	-0.657658
C29	C	1.499814	-0.514357	-0.664189
C30	C	1.159660	-0.461564	-0.908409
C31	C	1.146651	-0.446292	-1.021795
C32	C	1.166588	-0.227924	-0.606611
C33	C	1.156531	-0.113088	-0.591388
C34	C	1.196937	-0.505044	-1.084240
C35	C	1.183492	-0.489260	-1.201430
C36	C	1.220640	-0.533030	-0.377286
C37	C	1.233785	-0.548020	-0.263874
H38	H	1.236495	-1.095403	-0.712203
H39	H	0.703348	-0.572226	-0.738676
Br40	Br	0.655107	-0.390219	-0.504330
Br41	Br	1.285296	-0.608347	-1.028752
H42	H	1.093648	-0.384304	-1.055092
Br43	Br	1.095145	-0.385933	-1.256911
Br44	Br	1.116516	-0.872244	-0.531018
H45	H	1.286798	-0.610004	-1.230582
Br46	Br	1.088099	-1.047796	-0.488004
H47	H	1.264923	-0.919843	-0.755235
