data_functionalizedCrystal
_audit_creation_method	'MofGen! by Chris Wilmer'
_symmetry_space_group_name_H-M	'P1'
_symmetry_Int_Tables_number	1
_symmetry_cell_setting	triclinic
loop_
_symmetry_equiv_pos_as_xyz
  x,y,z
_cell_length_a	19.077105
_cell_length_b	19.077068
_cell_length_c	17.077396
_cell_angle_alpha	87.732878
_cell_angle_beta	92.316751
_cell_angle_gamma	90.115316
loop_
_atom_site_label
_atom_site_type_symbol
_atom_site_fract_x
_atom_site_fract_y
_atom_site_fract_z
Zn1	Zn	1.062992	-0.322976	0.505864
Zn2	Zn	1.058179	-0.440486	0.379639
Zn3	Zn	0.945484	-0.318272	0.369142
Zn4	Zn	0.940727	-0.435717	0.505393
O5	O	1.001846	-0.379363	0.440009
O6	O	1.160685	-0.342528	0.493710
O7	O	1.043206	-0.424301	0.268400
O8	O	0.965077	-0.220566	0.383083
O9	O	1.157149	-0.428862	0.400973
O10	O	1.051410	-0.224022	0.483532
O11	O	0.960409	-0.334510	0.260688
O12	O	0.846522	-0.329887	0.382626
O13	O	0.956970	-0.420735	0.615302
O14	O	0.843027	-0.416174	0.482729
O15	O	1.046798	-0.337904	0.615648
O16	O	1.038593	-0.538183	0.400516
O17	O	0.952302	-0.534680	0.492906
C18	C	0.819278	-0.372003	0.431488
C19	C	0.741174	-0.368871	0.427861
C20	C	0.702677	-0.412393	0.478200
C21	C	0.629290	-0.409441	0.474796
C22	C	0.594402	-0.362970	0.421049
C23	C	0.632905	-0.319444	0.370709
C24	C	0.706290	-0.322393	0.374117
C25	C	0.375117	-0.349323	0.405279
C26	C	0.301726	-0.346379	0.401873
C27	C	0.298117	-0.436375	0.505961
C28	C	0.371504	-0.439323	0.509361
C29	C	0.410000	-0.395794	0.459024
N30	N	0.519389	-0.359954	0.417567
N31	N	0.485012	-0.398808	0.462510
C32	C	0.994428	-0.561928	0.447817
C33	C	0.991320	-0.640033	0.451186
C34	C	1.034821	-0.678529	0.404709
C35	C	1.031901	-0.751917	0.407883
C36	C	0.985476	-0.786807	0.457530
C37	C	0.941973	-0.748306	0.504012
C38	C	0.944896	-0.674920	0.500842
C39	C	0.971913	-1.006096	0.472169
C40	C	0.968991	-1.079487	0.475334
C41	C	1.058921	-1.083093	0.379206
C42	C	1.061837	-1.009705	0.376037
C43	C	1.018337	-0.971210	0.422521
N44	N	0.982489	-0.861821	0.460774
N45	N	1.021328	-0.896198	0.419282
C46	C	1.185126	-0.386752	0.448565
C47	C	1.263229	-0.389901	0.452211
C48	C	1.001890	-0.379313	0.644754
C49	C	1.001909	-0.379291	0.732003
C50	C	1.009311	-0.196085	0.432190
C51	C	1.012492	-0.117983	0.428857
C52	C	1.001844	-0.379363	0.236062
C53	C	1.001969	-0.379192	0.148810
C54	C	1.048684	-0.336158	0.773175
C55	C	1.048694	-0.336135	0.855155
C56	C	1.001931	-0.379249	0.895962
C57	C	0.955151	-0.422385	0.854784
C58	C	0.955139	-0.422404	0.772806
C59	C	0.955181	-0.422344	1.025654
C60	C	0.955194	-0.422326	1.107638
C61	C	1.048736	-0.336075	1.108003
C62	C	1.048724	-0.336093	1.026025
C63	C	1.001944	-0.379230	0.984853
H64	H	0.731077	-0.450236	0.521963
H65	H	0.604493	-0.281604	0.326950
Br66	Br	1.112194	-0.277586	0.970644
Br67	Br	0.418847	-0.502396	0.582302
H68	H	0.597949	-0.444881	0.515786
H69	H	0.737634	-0.286949	0.333130
H70	H	1.086766	-0.301051	0.739956
Br71	Br	0.427353	-0.290244	0.336967
Br72	Br	1.097823	-0.631184	0.337320
H73	H	1.067324	-0.783257	0.370036
H74	H	1.094337	-1.114443	0.341362
H75	H	1.099641	-0.981299	0.335610
H76	H	0.936492	-0.974759	0.510017
Br77	Br	0.891692	-0.480884	0.969778
Br78	Br	0.905969	-1.126838	0.542703
Br79	Br	0.878972	-0.795657	0.571398
Br80	Br	1.112225	-0.277535	1.163878
Br81	Br	0.885861	-0.622674	0.563925
H82	H	0.917073	-0.457487	0.888016
H83	H	0.266766	-0.471813	0.546944
H84	H	1.086784	-0.301013	0.888674
Br85	Br	0.254378	-0.283316	0.328918
Br86	Br	0.891723	-0.480832	1.163019
H87	H	0.917043	-0.457520	0.739284
