data_functionalizedCrystal
_audit_creation_method	'MofGen! by Chris Wilmer'
_symmetry_space_group_name_H-M	'P1'
_symmetry_Int_Tables_number	1
_symmetry_cell_setting	triclinic
loop_
_symmetry_equiv_pos_as_xyz
  x,y,z
_cell_length_a	12.645331
_cell_length_b	12.645330
_cell_length_c	11.169409
_cell_angle_alpha	89.965587
_cell_angle_beta	89.976637
_cell_angle_gamma	90.011625
loop_
_atom_site_label
_atom_site_type_symbol
_atom_site_fract_x
_atom_site_fract_y
_atom_site_fract_z
Zn1	Zn	1.620776	-0.421982	-0.678639
Zn2	Zn	1.620671	-0.599293	-0.477948
Zn3	Zn	1.443488	-0.422041	-0.477961
Zn4	Zn	1.443488	-0.599201	-0.678581
O5	O	1.532106	-0.510629	-0.578282
O6	O	1.769109	-0.445517	-0.652036
O7	O	1.597123	-0.575843	-0.310000
O8	O	1.467050	-0.273686	-0.504610
O9	O	1.769032	-0.575787	-0.504589
O10	O	1.597302	-0.273643	-0.652048
O11	O	1.466948	-0.445617	-0.310009
O12	O	1.295141	-0.445528	-0.504554
O13	O	1.467049	-0.575629	-0.846538
O14	O	1.295140	-0.575686	-0.651949
O15	O	1.597302	-0.445428	-0.846581
O16	O	1.597123	-0.747628	-0.504533
O17	O	1.466947	-0.747561	-0.651937
C18	C	1.256676	-0.510604	-0.578247
C19	C	1.138846	-0.510619	-0.578261
C20	C	1.532052	-0.786059	-0.578254
C21	C	1.532127	-0.903889	-0.578282
C22	C	0.971247	-0.428359	-0.486047
C23	C	1.093806	-0.428572	-0.485640
C24	C	1.094335	-0.622297	-0.543709
C25	C	0.971736	-0.621848	-0.543080
C26	C	0.971695	-0.482263	-0.705383
C27	C	1.094301	-0.479769	-0.704677
C28	C	1.613889	-1.071452	-0.485362
C29	C	1.614155	-0.948891	-0.485589
C30	C	1.562428	-0.948257	-0.704793
C31	C	1.563077	-1.070855	-0.704299
C32	C	1.420031	-1.071218	-0.545938
C33	C	1.420568	-0.948614	-0.543101
C34	C	1.808611	-0.510655	-0.578318
C35	C	1.926441	-0.510667	-0.578333
C36	C	1.532187	-0.510512	-0.891325
C37	C	1.532222	-0.510462	-1.024725
C38	C	1.532188	-0.234124	-0.578337
C39	C	1.532223	-0.116294	-0.578360
C40	C	1.532085	-0.510670	-0.266457
C41	C	1.532256	-0.510422	-0.133058
H42	H	0.941775	-0.345297	-0.507471
C43	C	1.486233	-1.110932	-0.801117
C44	C	1.471160	-1.230556	-0.820424
C45	C	1.394331	-1.270627	-0.917252
C46	C	1.332575	-1.191073	-0.994772
C47	C	1.347646	-1.071440	-0.975466
C48	C	1.424475	-1.031370	-0.878639
H49	H	1.516878	-1.289454	-0.763038
H50	H	1.383175	-1.359187	-0.931543
H51	H	1.275701	-1.220735	-1.066450
H52	H	1.301928	-1.012543	-1.032853
H53	H	1.435631	-0.942810	-0.864348
C54	C	1.133750	-0.707367	-0.631653
C55	C	1.206987	-0.676343	-0.736116
C56	C	1.246404	-0.761411	-0.824061
C57	C	1.212584	-0.877504	-0.807543
C58	C	1.139344	-0.908533	-0.703075
C59	C	1.099927	-0.823465	-0.615130
H60	H	1.232025	-0.590400	-0.748348
H61	H	1.300621	-0.738441	-0.901395
H62	H	1.241763	-0.940477	-0.872645
H63	H	1.114305	-0.994477	-0.690843
H64	H	1.045709	-0.846436	-0.537796
C65	C	0.929573	-0.453427	-0.359602
C66	C	0.855107	-0.548227	-0.339865
C67	C	0.813433	-0.573299	-0.213421
C68	C	0.846225	-0.503572	-0.106715
C69	C	0.920695	-0.408767	-0.126449
C70	C	0.962369	-0.383694	-0.252892
H71	H	0.830829	-0.599848	-0.418858
H72	H	0.758306	-0.643480	-0.198814
H73	H	0.815376	-0.522132	-0.013114
H74	H	0.944973	-0.357145	-0.047456
H75	H	1.017497	-0.313513	-0.267500
C76	C	0.932553	-0.563242	-0.798283
C77	C	0.966064	-0.552772	-0.930323
C78	C	0.926916	-0.633753	-1.023210
C79	C	0.854255	-0.725203	-0.984057
C80	C	0.820740	-0.735676	-0.852011
C81	C	0.859889	-0.654695	-0.759124
H82	H	1.019856	-0.485072	-0.959311
H83	H	0.951726	-0.626000	-1.120959
H84	H	0.825275	-0.785150	-1.052818
H85	H	0.766948	-0.803376	-0.823022
H86	H	0.835078	-0.662448	-0.661374
H87	H	1.504757	-0.919102	-0.775940
H88	H	1.696539	-1.102181	-0.506567
H89	H	1.643509	-0.917468	-0.732714
H90	H	1.124991	-0.646796	-0.451826
C91	C	1.673863	-1.109380	-0.741388
C92	C	1.771200	-1.078211	-0.666483
C93	C	1.881990	-1.116730	-0.703569
C94	C	1.895443	-1.186417	-0.815560
C95	C	1.798102	-1.217589	-0.890473
C96	C	1.687312	-1.179071	-0.853386
H97	H	1.761245	-1.026622	-0.583573
H98	H	1.954048	-1.093653	-0.648113
H99	H	1.977456	-1.214930	-0.843014
H100	H	1.808058	-1.269179	-0.973382
H101	H	1.615255	-1.202148	-0.908842
C102	C	1.389696	-0.909464	-0.417325
C103	C	1.465394	-0.837223	-0.346858
C104	C	1.434528	-0.798072	-0.221079
C105	C	1.327964	-0.831161	-0.165767
C106	C	1.252260	-0.903406	-0.236234
C107	C	1.283126	-0.942557	-0.362013
H108	H	1.544285	-0.812725	-0.387802
H109	H	1.490570	-0.744591	-0.168914
H110	H	1.305115	-0.802178	-0.072658
H111	H	1.173369	-0.927904	-0.195289
H112	H	1.227083	-0.996038	-0.414178
C113	C	1.337821	-1.110398	-0.637428
C114	C	1.318272	-1.229783	-0.653195
C115	C	1.236071	-1.268969	-0.744688
C116	C	1.173419	-1.188770	-0.820415
C117	C	1.192967	-1.069378	-0.804650
C118	C	1.275167	-1.030192	-0.713157
H119	H	1.364652	-1.289157	-0.597136
H120	H	1.221601	-1.357351	-0.756358
H121	H	1.112570	-1.217778	-0.888143
H122	H	1.146586	-1.010004	-0.860709
H123	H	1.289637	-0.941810	-0.701488
H124	H	1.124964	-0.535343	-0.777115
C125	C	1.588591	-0.908388	-0.358844
C126	C	1.668867	-0.838591	-0.291794
C127	C	1.643329	-0.798106	-0.165032
C128	C	1.537515	-0.827419	-0.105319
C129	C	1.457232	-0.897220	-0.172370
C130	C	1.482770	-0.937705	-0.299132
H131	H	1.747203	-0.816888	-0.335996
H132	H	1.702760	-0.746434	-0.115397
H133	H	1.518610	-0.797450	-0.011482
H134	H	1.378895	-0.918923	-0.128168
H135	H	1.423338	-0.989377	-0.348767
C136	C	1.588621	-1.111407	-0.358264
C137	C	1.493525	-1.185243	-0.337359
C138	C	1.468257	-1.225209	-0.210257
C139	C	1.538084	-1.191337	-0.104061
C140	C	1.633186	-1.117497	-0.124963
C141	C	1.658455	-1.077532	-0.252064
H142	H	1.441829	-1.210321	-0.415974
H143	H	1.397856	-1.279870	-0.194785
H144	H	1.519379	-1.220922	-0.009973
H145	H	1.684882	-1.092420	-0.046347
H146	H	1.728856	-1.022870	-0.267536
H147	H	1.356438	-0.917992	-0.605869
H148	H	1.697251	-0.919482	-0.507035
C149	C	1.133371	-0.453950	-0.358457
C150	C	1.053412	-0.474092	-0.256945
C151	C	1.092976	-0.499478	-0.129757
C152	C	1.212499	-0.504722	-0.104080
C153	C	1.292466	-0.484580	-0.205594
C154	C	1.252902	-0.459194	-0.332783
H155	H	0.964927	-0.470210	-0.275950
H156	H	1.033778	-0.514388	-0.054609
H157	H	1.241787	-0.523514	-0.009928
H158	H	1.380951	-0.488461	-0.186590
H159	H	1.312099	-0.444283	-0.407930
H160	H	1.392477	-1.102237	-0.455293
H161	H	0.943092	-0.645933	-0.450200
C162	C	1.134470	-0.316696	-0.514880
C163	C	1.055388	-0.226535	-0.538767
C164	C	1.096046	-0.114652	-0.568001
C165	C	1.215785	-0.092931	-0.573349
C166	C	1.294875	-0.183094	-0.549462
C167	C	1.254217	-0.294977	-0.520228
H168	H	0.966743	-0.242612	-0.534808
H169	H	1.037498	-0.047908	-0.585683
H170	H	1.245882	-0.010108	-0.594989
H171	H	1.383519	-0.167017	-0.553420
H172	H	1.312765	-0.361721	-0.502545
H173	H	0.942098	-0.685250	-0.607366
H174	H	1.123398	-0.397586	-0.730731
H175	H	0.940792	-0.402249	-0.736805
