data_functionalizedCrystal
_audit_creation_method	'MofGen! by Chris Wilmer'
_symmetry_space_group_name_H-M	'P1'
_symmetry_Int_Tables_number	1
_symmetry_cell_setting	triclinic
loop_
_symmetry_equiv_pos_as_xyz
  x,y,z
_cell_length_a	18.215407
_cell_length_b	16.625545
_cell_length_c	18.215399
_cell_angle_alpha	90.026887
_cell_angle_beta	90.019833
_cell_angle_gamma	90.026006
loop_
_atom_site_label
_atom_site_type_symbol
_atom_site_fract_x
_atom_site_fract_y
_atom_site_fract_z
Zn1	Zn	1.125069	-0.321000	0.416121
Zn2	Zn	1.625069	0.179000	0.916121
Zn3	Zn	1.124975	-0.455841	0.293057
Zn4	Zn	1.624975	0.044159	0.793057
Zn5	Zn	1.002001	-0.321027	0.293069
Zn6	Zn	1.502001	0.178973	0.793069
Zn7	Zn	1.001966	-0.455796	0.416082
Zn8	Zn	1.501966	0.044204	0.916082
O9	O	1.063503	-0.388416	0.354582
O10	O	1.563503	0.111584	0.854582
O11	O	1.228040	-0.338895	0.399808
O12	O	1.728040	0.161105	0.899808
O13	O	1.108639	-0.437987	0.190074
O14	O	1.608639	0.062013	0.690074
O15	O	1.018380	-0.208191	0.309413
O16	O	1.518380	0.291809	0.809413
O17	O	1.227972	-0.437961	0.309394
O18	O	1.727972	0.062039	0.809394
O19	O	1.108797	-0.208171	0.399819
O20	O	1.608797	0.291829	0.899819
O21	O	1.018290	-0.338940	0.190083
O22	O	1.518290	0.161060	0.690083
O23	O	0.899012	-0.338896	0.309375
O24	O	1.399012	0.161104	0.809375
O25	O	1.018319	-0.437885	0.519072
O26	O	1.518319	0.062115	1.019072
O27	O	0.898986	-0.437910	0.399753
O28	O	1.398986	0.062090	0.899753
O29	O	1.108763	-0.338851	0.519100
O30	O	1.608763	0.161149	1.019100
O31	O	1.108604	-0.568667	0.309356
O32	O	1.608604	-0.068667	0.809356
O33	O	1.018229	-0.568634	0.399742
O34	O	1.518229	-0.068634	0.899742
C35	C	0.872296	-0.388402	0.354561
C36	C	1.372296	0.111598	0.854561
C37	C	0.790497	-0.388415	0.354570
C38	C	1.290497	0.111585	0.854570
C39	C	0.602309	-0.440053	0.401570
C40	C	1.102309	0.059947	0.901570
C41	C	0.525450	-0.440056	0.401579
C42	C	1.025450	0.059944	0.901579
C43	C	0.525448	-0.336793	0.307611
C44	C	1.025448	0.163207	0.807611
C45	C	0.602305	-0.336787	0.307606
C46	C	1.102305	0.163213	0.807606
C47	C	0.640734	-0.388422	0.354584
C48	C	1.140734	0.111578	0.854584
C49	C	0.487018	-0.388430	0.354598
C50	C	0.987018	0.111570	0.854598
C51	C	0.403684	-0.388433	0.354608
C52	C	0.903684	0.111567	0.854608
C53	C	0.724073	-0.388418	0.354576
C54	C	1.224073	0.111582	0.854576
C55	C	1.063423	-0.597907	0.354559
C56	C	1.563423	-0.097907	0.854559
C57	C	1.063456	-0.687528	0.354574
C58	C	1.563456	-0.187528	0.854574
C59	C	1.063484	-0.760310	0.354589
C60	C	1.563484	-0.260310	0.854589
C61	C	1.063527	-0.851619	0.354605
C62	C	1.563527	-0.351619	0.854605
C63	C	1.063565	-0.924395	0.354614
C64	C	1.563565	-0.424395	0.854614
C65	C	1.063608	-1.015709	0.354629
C66	C	1.563608	-0.515709	0.854629
C67	C	1.255456	-0.388430	0.354604
C68	C	1.755456	0.111570	0.854604
C69	C	1.337254	-0.388436	0.354613
C70	C	1.837254	0.111564	0.854613
C71	C	1.063547	-0.388360	0.546535
C72	C	1.563547	0.111640	1.046535
C73	C	1.063567	-0.388336	0.628334
C74	C	1.563567	0.111664	1.128334
C75	C	1.063603	-0.178107	0.354622
C76	C	1.563603	0.321893	0.854622
C77	C	1.063646	-0.088486	0.354639
C78	C	1.563646	0.411514	0.854639
C79	C	1.063500	-0.388413	0.163376
C80	C	1.563500	0.111587	0.663376
C81	C	1.063624	-0.388210	0.081578
C82	C	1.563624	0.111790	0.581578
C83	C	1.110677	-0.336721	0.816544
C84	C	1.610677	0.163279	1.316544
C85	C	1.110686	-0.336698	0.893403
C86	C	1.610686	0.163302	1.393403
C87	C	1.016508	-0.439827	0.893362
C88	C	1.516508	0.060173	1.393362
C89	C	1.016496	-0.439846	0.816505
C90	C	1.516496	0.060154	1.316505
C91	C	1.063585	-0.388294	0.778098
C92	C	1.563585	0.111706	1.278098
C93	C	1.063606	-0.388252	0.931814
C94	C	1.563606	0.111748	1.431814
C95	C	1.063615	-0.388227	1.015148
C96	C	1.563615	0.111773	1.515148
C97	C	1.063575	-0.388318	0.694759
C98	C	1.563575	0.111682	1.194759
H99	H	0.494168	-0.482098	0.439841
H100	H	0.994168	0.017902	0.939841
H101	H	0.633592	-0.294737	0.269344
H102	H	1.133592	0.205263	0.769344
H103	H	1.149018	-0.294743	0.785276
H104	H	1.649018	0.205257	1.285276
H105	H	0.633595	-0.482096	0.439825
H106	H	1.133595	0.017904	0.939825
H107	H	0.494150	-0.294755	0.269361
H108	H	0.994150	0.205245	0.769361
C109	C	0.964691	-0.496580	0.774207
C110	C	1.464691	0.003420	1.274207
C111	C	0.912902	-0.553292	0.816450
C112	C	1.412902	-0.053292	1.316450
C113	C	0.861098	-0.610021	0.774152
C114	C	1.361098	-0.110021	1.274152
C115	C	0.861083	-0.610038	0.689612
C116	C	1.361083	-0.110038	1.189612
C117	C	0.912875	-0.553324	0.647365
C118	C	1.412875	-0.053324	1.147365
C119	C	0.964679	-0.496595	0.689663
C120	C	1.464679	0.003405	1.189663
H121	H	0.912911	-0.553282	0.879036
H122	H	1.412911	-0.053282	1.379036
H123	H	0.822758	-0.652005	0.805427
H124	H	1.322758	-0.152005	1.305427
H125	H	0.822735	-0.652032	0.658301
H126	H	1.322735	-0.152032	1.158301
H127	H	0.912866	-0.553335	0.584779
H128	H	1.412866	-0.053335	1.084779
H129	H	1.003018	-0.454612	0.658388
H130	H	1.503018	0.045388	1.158388
C131	C	1.162491	-0.279969	0.935694
C132	C	1.662491	0.220031	1.435694
C133	C	1.220260	-0.314896	0.988538
C134	C	1.720260	0.185104	1.488538
C135	C	1.272067	-0.258163	1.030827
C136	C	1.772067	0.241837	1.530827
C137	C	1.266106	-0.166504	1.020273
C138	C	1.766106	0.333496	1.520273
C139	C	1.208335	-0.131572	0.967427
C140	C	1.708335	0.368428	1.467427
C141	C	1.156528	-0.188305	0.925137
C142	C	1.656528	0.311695	1.425137
H143	H	1.224675	-0.382752	0.996353
H144	H	1.724675	0.117248	1.496353
H145	H	1.314833	-0.284022	1.069948
H146	H	1.814833	0.215978	1.569948
H147	H	1.304456	-0.124507	1.051579
H148	H	1.804456	0.375493	1.551579
H149	H	1.203920	-0.063716	0.959612
H150	H	1.703920	0.436284	1.459612
H151	H	1.113762	-0.162446	0.886017
H152	H	1.613762	0.337554	1.386017
C153	C	0.964723	-0.496538	0.935618
C154	C	1.464723	0.003462	1.435618
C155	C	0.996604	-0.559826	0.988444
C156	C	1.496604	-0.059826	1.488444
C157	C	0.944823	-0.616541	1.030700
C158	C	1.444823	-0.116541	1.530700
C159	C	0.861160	-0.609968	1.020130
C160	C	1.361160	-0.109968	1.520130
C161	C	0.829275	-0.546677	0.967302
C162	C	1.329275	-0.046677	1.467302
C163	C	0.881056	-0.489962	0.925046
C164	C	1.381056	0.010038	1.425046
H165	H	1.058540	-0.564694	0.996270
H166	H	1.558540	-0.064694	1.496270
H167	H	0.968427	-0.663392	1.069807
H168	H	1.468427	-0.163392	1.569807
H169	H	0.822828	-0.651951	1.051411
H170	H	1.322828	-0.151951	1.551411
H171	H	0.767339	-0.541809	0.959476
H172	H	1.267339	-0.041809	1.459476
H173	H	0.857452	-0.443111	0.885939
H174	H	1.357452	0.056889	1.385939
