data_functionalizedCrystal
_audit_creation_method	'MofGen! by Chris Wilmer'
_symmetry_space_group_name_H-M	'P1'
_symmetry_Int_Tables_number	1
_symmetry_cell_setting	triclinic
loop_
_symmetry_equiv_pos_as_xyz
  x,y,z
_cell_length_a	10.489741
_cell_length_b	16.098524
_cell_length_c	17.019294
_cell_angle_alpha	83.057853
_cell_angle_beta	96.034439
_cell_angle_gamma	93.036829
loop_
_atom_site_label
_atom_site_type_symbol
_atom_site_fract_x
_atom_site_fract_y
_atom_site_fract_z
O1	O	1.697885	0.077440	-0.114845
O2	O	1.326571	0.078204	-0.125327
O3	O	1.521981	0.069560	-0.004933
O4	O	1.502475	0.086085	-0.235239
O5	O	1.511759	-0.069411	0.001447
O6	O	1.316349	-0.060766	-0.118947
O7	O	1.687663	-0.061531	-0.108466
Zn8	Zn	1.500383	-0.083213	-0.112694
Zn9	Zn	1.513851	0.099887	-0.121099
O10	O	1.492253	-0.052886	-0.228860
C11	C	1.273938	0.008664	-0.121345
C12	C	1.132335	0.008499	-0.118977
C13	C	1.065064	0.002995	-0.042374
C14	C	0.977566	0.074109	-0.081706
C15	C	0.967522	-0.062904	-0.075435
C16	C	1.046707	0.079672	-0.158343
C17	C	1.036668	-0.057403	-0.152058
C18	C	0.949198	0.013732	-0.191447
N19	N	1.491201	-0.208174	-0.106957
C20	C	1.565511	-0.248424	-0.153422
C21	C	1.559105	-0.335902	-0.149403
C22	C	1.478382	-0.383127	-0.098924
C23	C	1.404070	-0.342871	-0.052454
C24	C	1.410483	-0.255396	-0.056468
C25	C	1.455145	-0.647421	-0.084374
C26	C	1.448734	-0.734903	-0.080365
C27	C	1.603771	-0.727927	-0.177313
C28	C	1.610172	-0.640450	-0.181327
C29	C	1.535865	-0.600202	-0.134854
C30	C	1.471829	-0.472543	-0.094817
C31	C	1.542426	-0.510788	-0.138957
C32	C	1.740297	0.008011	-0.112447
C33	C	1.881899	0.008182	-0.114815
C34	C	1.515929	-0.002040	0.027747
C35	C	1.513110	-0.008340	0.115620
N36	N	1.523043	0.224847	-0.126829
C37	C	1.498305	0.018715	-0.261540
C38	C	1.501125	0.025020	-0.349413
C39	C	1.517360	0.064453	0.153421
C40	C	1.514702	0.058532	0.235987
C41	C	1.507803	-0.020184	0.280750
C42	C	1.503549	-0.092982	0.242944
C43	C	1.506198	-0.087059	0.160379
C44	C	1.499519	-0.041855	0.530216
C45	C	1.496875	-0.047773	0.612786
C46	C	1.508026	0.103742	0.605823
C47	C	1.510681	0.109657	0.523258
C48	C	1.506420	0.036859	0.485458
C49	C	1.505091	-0.026238	0.365146
C50	C	1.509124	0.042915	0.401063
H51	H	0.932652	-0.123157	-0.040349
Br52	Br	1.309649	-0.200770	0.006605
Br53	Br	1.104575	0.180204	-0.216763
Br54	Br	1.518490	0.149739	0.340312
Br55	Br	1.493710	-0.140654	0.478924
Br56	Br	1.080704	-0.150086	-0.201607
Br57	Br	1.651983	-0.446696	-0.207458
Br58	Br	1.339172	-0.798994	-0.011853
Br59	Br	1.513809	0.202534	0.657127
H60	H	1.499478	-0.090329	0.401602
H61	H	1.675909	-0.602005	-0.222430
Br62	Br	1.354246	-0.592807	-0.021335
Br63	Br	0.865627	0.021328	-0.296517
H64	H	1.502719	-0.146335	0.129601
H65	H	1.406103	-0.511003	-0.053717
Br66	Br	1.675064	-0.184341	-0.221936
H67	H	1.115475	-0.001438	0.020594
Br68	Br	0.933593	0.166788	-0.032121
H69	H	1.522984	0.128552	0.116981
H70	H	1.619618	-0.368669	-0.187239
Br71	Br	1.487525	-0.154608	0.673538
H72	H	1.497924	-0.157074	0.279396
Br73	Br	1.704610	-0.782554	-0.240381
Br74	Br	1.294521	-0.406962	0.016058
H75	H	1.518168	0.117808	0.266761
H76	H	1.516301	0.173756	0.486817
