data_functionalizedCrystal
_audit_creation_method	'MofGen! by Chris Wilmer'
_symmetry_space_group_name_H-M	'P1'
_symmetry_Int_Tables_number	1
_symmetry_cell_setting	triclinic
loop_
_symmetry_equiv_pos_as_xyz
  x,y,z
_cell_length_a	10.685980
_cell_length_b	13.897447
_cell_length_c	13.897441
_cell_angle_alpha	90.028354
_cell_angle_beta	94.393822
_cell_angle_gamma	94.386237
loop_
_atom_site_label
_atom_site_type_symbol
_atom_site_fract_x
_atom_site_fract_y
_atom_site_fract_z
Zn1	Zn	1.929196	-0.270991	0.658612
Zn2	Zn	1.929059	-0.432318	0.497309
Zn3	Zn	1.718174	-0.283391	0.484946
Zn4	Zn	1.718135	-0.444609	0.646183
O5	O	1.823641	-0.357827	0.571762
O6	O	2.105764	-0.282058	0.647590
O7	O	1.901043	-0.412608	0.360685
O8	O	1.746240	-0.146760	0.508011
O9	O	2.105663	-0.400584	0.529082
O10	O	1.901277	-0.137650	0.635602
O11	O	1.746107	-0.303192	0.351601
O12	O	1.541583	-0.315110	0.495958
O13	O	1.746174	-0.421532	0.782815
O14	O	1.541554	-0.433556	0.614418
O15	O	1.901240	-0.293976	0.791947
O16	O	1.901006	-0.568934	0.517030
O17	O	1.746041	-0.577964	0.626406
C18	C	1.495782	-0.377013	0.552499
C19	C	1.355522	-0.385244	0.544280
C20	C	1.823538	-0.608448	0.571734
C21	C	1.823610	-0.715657	0.571761
C22	C	1.823671	-0.802723	0.571786
C23	C	1.823759	-0.911951	0.571816
C24	C	2.152781	-0.338567	0.591102
C25	C	2.293040	-0.330360	0.599343
C26	C	1.823718	-0.357742	0.823360
C27	C	1.823751	-0.357705	0.930576
C28	C	1.823778	-0.106226	0.571814
C29	C	1.823837	0.000991	0.571836
C30	C	1.823637	-0.357838	0.321148
C31	C	1.823848	-0.357589	0.213947
C32	C	1.823777	-0.357676	1.017647
C33	C	1.823813	-0.357631	1.126882
H34	H	1.301706	-0.438533	0.490844
Cl35	Cl	1.376114	-0.248079	0.681835
