data_functionalizedCrystal
_audit_creation_method	'MofGen! by Chris Wilmer'
_symmetry_space_group_name_H-M	'P1'
_symmetry_Int_Tables_number	1
_symmetry_cell_setting	triclinic
loop_
_symmetry_equiv_pos_as_xyz
  x,y,z
_cell_length_a	12.645330
_cell_length_b	12.759401
_cell_length_c	12.759393
_cell_angle_alpha	89.979062
_cell_angle_beta	89.971026
_cell_angle_gamma	90.019217
loop_
_atom_site_label
_atom_site_type_symbol
_atom_site_fract_x
_atom_site_fract_y
_atom_site_fract_z
Zn1	Zn	-0.421945	1.606245	-0.594031
Zn2	Zn	-0.599246	1.606126	-0.418356
Zn3	Zn	-0.422001	1.430543	-0.418366
Zn4	Zn	-0.599172	1.430526	-0.593993
O5	O	-0.510591	1.518360	-0.506187
O6	O	-0.445472	1.753250	-0.570739
O7	O	-0.575788	1.582793	-0.271336
O8	O	-0.273647	1.453907	-0.441689
O9	O	-0.575734	1.753163	-0.441671
O10	O	-0.273605	1.582994	-0.570749
O11	O	-0.445568	1.453793	-0.271344
O12	O	-0.445496	1.283520	-0.441652
O13	O	-0.575607	1.453878	-0.741019
O14	O	-0.575662	1.283507	-0.570684
O15	O	-0.445400	1.582977	-0.741047
O16	O	-0.747583	1.582776	-0.441634
O17	O	-0.747529	1.453763	-0.570674
C18	C	-0.510578	1.245393	-0.506166
C19	C	-0.510598	1.128616	-0.506182
C20	C	-0.786021	1.518283	-0.506172
C21	C	-0.903851	1.518347	-0.506201
C22	C	-0.578479	1.073775	-0.573263
C23	C	-0.578483	0.964051	-0.573284
C24	C	-0.442722	0.964019	-0.439133
C25	C	-0.442714	1.073741	-0.439118
C26	C	-0.616521	0.814153	-0.697146
C27	C	-0.684418	0.759308	-0.764218
C28	C	-0.787874	0.794901	-0.780168
C29	C	-0.823454	0.885336	-0.729031
C30	C	-0.755562	0.940175	-0.661951
C31	C	-0.652092	0.904584	-0.646021
C32	C	-0.404686	1.223641	-0.315255
C33	C	-0.336799	1.278482	-0.248169
C34	C	-0.233342	1.242892	-0.232208
C35	C	-0.197766	1.152453	-0.283327
C36	C	-0.265653	1.097612	-0.350413
C37	C	-0.369109	1.133209	-0.366376
C38	C	-1.071424	1.437519	-0.587630
C39	C	-0.948865	1.437106	-0.587368
C40	C	-0.948453	1.488371	-0.395479
C41	C	-1.071052	1.487878	-0.395973
C42	C	-1.070935	1.629644	-0.534596
C43	C	-0.948328	1.628962	-0.537017
C44	C	-0.234086	1.518466	-0.506224
C45	C	-0.116255	1.518511	-0.506241
C46	C	-0.510489	1.518439	-0.780220
C47	C	-0.510446	1.518472	-0.896997
C48	C	-0.510605	1.792393	-0.506208
C49	C	-0.510610	1.909170	-0.506217
C50	C	-0.442636	1.585699	-0.951875
C51	C	-0.442590	1.585717	-1.061599
C52	C	-0.578173	1.451278	-1.061557
C53	C	-0.578213	1.451255	-0.951835
C54	C	-0.317515	1.623336	-1.211574
C55	C	-0.249715	1.690579	-1.266456
C56	C	-0.233459	1.793093	-1.230864
C57	C	-0.285019	1.828384	-1.140392
C58	C	-0.352827	1.761146	-1.085516
C59	C	-0.369063	1.658618	-1.121106
C60	C	-0.703289	1.413648	-0.801858
C61	C	-0.771104	1.346414	-0.746980
C62	C	-0.787370	1.243899	-0.782570
C63	C	-0.735829	1.208612	-0.873045
C64	C	-0.668014	1.275845	-0.927924
C65	C	-0.651746	1.378359	-0.892326
C66	C	-0.510616	1.518342	-0.233219
C67	C	-0.510360	1.518512	-0.116443
H68	H	-0.784531	1.013805	-0.620316
H69	H	-0.907702	0.914302	-0.742015
H70	H	-0.813081	1.375158	-0.673317
H71	H	-0.394811	1.789881	-1.011858
H72	H	-1.099747	1.406639	-0.371952
H73	H	-0.178253	1.847843	-1.275557
H74	H	-0.655439	0.685676	-0.805854
H75	H	-1.100830	1.456102	-0.669999
H76	H	-1.102329	1.355645	-0.569085
O77	O	-0.335036	1.512760	-1.249960
H78	H	-0.309956	1.456515	-1.188429
O79	O	-0.909843	1.564024	-0.312945
H80	H	-0.822146	1.562010	-0.309934
O81	O	-0.651266	1.378782	-1.120702
H82	H	-0.639853	1.390096	-1.206220
H83	H	-0.236675	1.023976	-0.392043
O84	O	-0.086176	1.114057	-0.266124
H85	H	-0.044943	1.167391	-0.210898
O86	O	-0.861109	0.735756	-0.852514
H87	H	-0.818988	0.666899	-0.885395
H88	H	-0.918705	1.455861	-0.669468
H89	H	-0.532276	0.785172	-0.684175
O90	O	-0.369541	0.904834	-0.366767
H91	H	-0.380967	0.819323	-0.378028
O92	O	-0.160114	1.302039	-0.159851
H93	H	-0.202227	1.370907	-0.126982
H94	H	-1.099926	1.689984	-0.475316
O95	O	-0.612406	1.237788	-1.025502
H96	H	-0.635100	1.155203	-1.041030
O97	O	-0.375163	1.376030	-0.193030
H98	H	-0.458505	1.391578	-0.215410
H99	H	-0.488927	1.252634	-0.328255
O100	O	-0.910129	1.327982	-0.562458
H101	H	-0.978964	1.275302	-0.550544
H102	H	-1.101772	1.656988	-0.613962
O103	O	-0.909703	1.658912	-0.644951
H104	H	-0.941485	1.737172	-0.666154
O105	O	-1.110355	1.562605	-0.312897
H106	H	-1.041792	1.598929	-0.272542
O107	O	-0.907926	1.381880	-0.363076
H108	H	-0.856031	1.350131	-0.425645
O109	O	-0.907781	1.713105	-0.464186
H110	H	-0.855060	1.677238	-0.404621
O111	O	-0.369540	1.658185	-0.892723
H112	H	-0.322374	1.704928	-0.949322
O113	O	-0.267503	1.938963	-1.102011
H114	H	-0.211686	1.979787	-1.155366
O115	O	-0.860513	1.171383	-0.723374
H116	H	-0.863161	1.094169	-0.763327
H117	H	-0.207734	1.661836	-1.340119
O118	O	-0.753359	1.098038	-0.911439
H119	H	-0.809162	1.057210	-0.858072
O120	O	-0.685744	1.524226	-0.763477
H121	H	-0.732992	1.537473	-0.691356
H122	H	-0.633752	1.118451	-0.627873
