data_functionalizedCrystal
_audit_creation_method	'MofGen! by Chris Wilmer'
_symmetry_space_group_name_H-M	'P1'
_symmetry_Int_Tables_number	1
_symmetry_cell_setting	triclinic
loop_
_symmetry_equiv_pos_as_xyz
  x,y,z
_cell_length_a	13.262402
_cell_length_b	16.109301
_cell_length_c	14.586319
_cell_angle_alpha	89.998390
_cell_angle_beta	74.087538
_cell_angle_gamma	96.030018
loop_
_atom_site_label
_atom_site_type_symbol
_atom_site_fract_x
_atom_site_fract_y
_atom_site_fract_z
O1	O	1.392594	-0.112030	-0.271032
O2	O	1.087015	-0.124195	-0.194827
O3	O	1.248199	0.002888	-0.235032
O4	O	1.231410	-0.239112	-0.230827
O5	O	1.248179	0.002880	-0.387508
O6	O	1.086996	-0.124202	-0.347303
O7	O	1.392574	-0.112037	-0.423508
Cu8	Cu	1.239783	-0.118120	-0.399328
Cu9	Cu	1.239806	-0.118112	-0.219007
O10	O	1.231390	-0.239120	-0.383303
C11	C	1.047903	-0.123515	-0.261313
C12	C	0.931389	-0.121467	-0.232258
C13	C	0.876661	-0.120500	-0.135490
C14	C	0.767190	-0.118584	-0.108192
C15	C	0.712437	-0.117629	-0.177659
C16	C	0.767166	-0.118590	-0.274429
C17	C	0.876647	-0.120513	-0.301729
C18	C	0.712423	-0.117642	-0.343898
C19	C	0.767152	-0.118603	-0.440668
C20	C	0.876623	-0.120525	-0.467964
C21	C	0.931376	-0.121480	-0.398497
C22	C	0.602942	-0.115719	-0.316597
C23	C	0.602928	-0.115732	-0.482837
C24	C	0.712399	-0.117648	-0.510135
C25	C	1.247509	0.033861	-0.311101
C26	C	1.245470	0.126164	-0.310594
C27	C	1.431686	-0.112717	-0.357019
C28	C	1.548200	-0.114765	-0.386069
C29	C	1.232080	-0.270093	-0.307232
C30	C	1.234119	-0.362396	-0.307733
C31	C	1.336373	0.348099	-0.333249
C32	C	1.334449	0.434827	-0.332761
C33	C	1.143210	0.415662	-0.285074
C34	C	1.145135	0.328936	-0.285555
C35	C	1.241719	0.295157	-0.309648
C36	C	1.237870	0.468611	-0.308679
C37	C	1.235783	0.562644	-0.308151
C38	C	1.243807	0.201118	-0.310175
N39	N	1.239774	-0.118126	-0.526157
C40	C	1.303428	-0.168791	-0.777033
C41	C	1.303439	-0.168785	-0.873017
C42	C	1.176167	-0.067429	-0.841296
C43	C	1.176163	-0.067431	-0.745315
C44	C	1.239791	-0.118116	-0.713186
C45	C	1.239807	-0.118109	-0.905151
C46	C	1.239818	-0.118102	-1.009221
C47	C	1.239781	-0.118122	-0.609110
N48	N	1.239823	-0.118099	-0.092180
H49	H	0.623300	-0.116069	-0.155426
H50	H	1.068052	0.285828	-0.266332
H51	H	1.411525	0.477929	-0.351978
C52	C	0.936826	-0.121590	-0.574406
H53	H	1.009865	-0.122879	-0.580714
H54	H	0.926901	-0.072854	-0.606091
H55	H	0.910861	-0.169709	-0.602075
C56	C	1.106156	-0.011688	-0.675078
H57	H	1.068250	0.018490	-0.707955
H58	H	1.149176	0.026404	-0.648359
H59	H	1.057838	-0.045577	-0.625594
C60	C	1.106155	-0.011697	-0.876632
H61	H	1.068256	0.018484	-0.824858
H62	H	1.057848	-0.045589	-0.902025
H63	H	1.149170	0.026406	-0.924802
H64	H	1.355260	-0.210048	-0.924999
C65	C	0.936883	-0.121558	-0.059085
H66	H	0.888612	-0.120714	0.002457
H67	H	0.987614	-0.073887	-0.068283
H68	H	0.971563	-0.170742	-0.064281
C69	C	0.542748	-0.114658	-0.210161
H70	H	0.469706	-0.113383	-0.203846
H71	H	0.568714	-0.066547	-0.182487
H72	H	0.552676	-0.163402	-0.178483
H73	H	0.722637	-0.117802	-0.029402
H74	H	1.020517	-0.123034	-0.420719
C75	C	0.772606	-0.118694	-0.616577
H76	H	0.724327	-0.117839	-0.654045
H77	H	0.807305	-0.167862	-0.628690
H78	H	0.823321	-0.071006	-0.632668
C79	C	1.036973	0.452818	-0.258576
H80	H	0.980876	0.408864	-0.244579
H81	H	1.032237	0.486254	-0.310567
H82	H	1.032256	0.486248	-0.204218
C83	C	0.542716	-0.114681	-0.559259
H84	H	0.590987	-0.115542	-0.620800
H85	H	0.508027	-0.065508	-0.554071
H86	H	0.491992	-0.162363	-0.550055
C87	C	1.442608	0.310940	-0.359742
H88	H	1.430201	0.251707	-0.356658
H89	H	1.481585	0.329088	-0.316287
H90	H	1.481572	0.329094	-0.422638
C91	C	1.373430	-0.224532	-0.741697
H92	H	1.411340	-0.254703	-0.793474
H93	H	1.330415	-0.262630	-0.693530
H94	H	1.421744	-0.190641	-0.716302
