data_functionalizedCrystal
_audit_creation_method	'MofGen! by Chris Wilmer'
_symmetry_space_group_name_H-M	'P1'
_symmetry_Int_Tables_number	1
_symmetry_cell_setting	triclinic
loop_
_symmetry_equiv_pos_as_xyz
  x,y,z
_cell_length_a	17.077404
_cell_length_b	16.625545
_cell_length_c	17.077396
_cell_angle_alpha	89.970470
_cell_angle_beta	89.982940
_cell_angle_gamma	90.025783
loop_
_atom_site_label
_atom_site_type_symbol
_atom_site_fract_x
_atom_site_fract_y
_atom_site_fract_z
Zn1	Zn	1.200021	-0.320984	-0.443846
Zn2	Zn	1.700021	0.179016	0.056154
Zn3	Zn	1.199928	-0.455831	-0.312581
Zn4	Zn	1.699928	0.044169	0.187419
Zn5	Zn	1.068759	-0.321016	-0.312594
Zn6	Zn	1.568759	0.178984	0.187406
Zn7	Zn	1.068715	-0.455779	-0.443805
Zn8	Zn	1.568715	0.044221	0.056195
O9	O	1.134356	-0.388402	-0.378206
O10	O	1.634356	0.111598	0.121794
O11	O	1.309856	-0.338880	-0.426445
O12	O	1.809856	0.161120	0.073555
O13	O	1.182507	-0.437982	-0.202736
O14	O	1.682507	0.062018	0.297264
O15	O	1.086228	-0.208179	-0.330027
O16	O	1.586228	0.291821	0.169973
O17	O	1.309787	-0.437951	-0.330005
O18	O	1.809787	0.062049	0.169995
O19	O	1.182666	-0.208156	-0.426457
O20	O	1.682666	0.291844	0.073543
O21	O	1.086138	-0.338935	-0.202745
O22	O	1.586138	0.161065	0.297255
O23	O	0.958906	-0.338884	-0.329987
O24	O	1.458906	0.161116	0.170013
O25	O	1.086154	-0.437863	-0.553657
O26	O	1.586154	0.062137	-0.053657
O27	O	0.958874	-0.437894	-0.426387
O28	O	1.458874	0.062106	0.073613
O29	O	1.182624	-0.338830	-0.553687
O30	O	1.682624	0.161170	-0.053687
O31	O	1.182465	-0.568656	-0.329966
O32	O	1.682465	-0.068656	0.170034
O33	O	1.086063	-0.568618	-0.426375
O34	O	1.586063	-0.068618	0.073625
C35	C	0.930408	-0.388388	-0.378185
C36	C	1.430408	0.111612	0.121815
C37	C	0.843158	-0.388401	-0.378194
C38	C	1.343158	0.111599	0.121806
C39	C	0.802172	-0.440033	-0.428309
C40	C	1.302172	0.059967	0.071691
C41	C	0.720191	-0.440035	-0.428322
C42	C	1.220191	0.059965	0.071678
C43	C	0.679198	-0.388408	-0.378214
C44	C	1.179198	0.111592	0.121786
C45	C	0.720191	-0.336770	-0.328097
C46	C	1.220191	0.163230	0.171903
C47	C	0.802170	-0.336765	-0.328089
C48	C	1.302170	0.163235	0.171911
C49	C	0.549321	-0.336786	-0.328116
C50	C	1.049321	0.163214	0.171884
C51	C	0.467336	-0.336792	-0.328123
C52	C	0.967336	0.163208	0.171877
C53	C	0.467342	-0.440056	-0.428348
C54	C	0.967342	0.059944	0.071652
C55	C	0.549321	-0.440051	-0.428340
C56	C	1.049321	0.059949	0.071660
C57	C	0.590307	-0.388414	-0.378222
C58	C	1.090307	0.111586	0.121778
C59	C	1.134270	-0.597893	-0.378182
C60	C	1.634270	-0.097893	0.121818
C61	C	1.134306	-0.687514	-0.378197
C62	C	1.634306	-0.187514	0.121803
C63	C	1.134336	-0.760297	-0.378213
C64	C	1.634336	-0.260297	0.121787
C65	C	1.134382	-0.851605	-0.378230
C66	C	1.634382	-0.351605	0.121770
C67	C	1.134423	-0.924382	-0.378240
C68	C	1.634423	-0.424382	0.121760
C69	C	1.134467	-1.015696	-0.378256
C70	C	1.634467	-0.515696	0.121744
C71	C	1.339100	-0.388418	-0.378228
C72	C	1.839100	0.111582	0.121772
C73	C	1.426350	-0.388424	-0.378238
C74	C	1.926350	0.111576	0.121762
C75	C	1.134394	-0.388337	-0.582951
C76	C	1.634394	0.111663	-0.082951
C77	C	1.134411	-0.388309	-0.670200
C78	C	1.634411	0.111691	-0.170200
C79	C	1.134463	-0.178093	-0.378248
C80	C	1.634463	0.321907	0.121752
C81	C	1.134508	-0.088472	-0.378266
C82	C	1.634508	0.411528	0.121734
C83	C	1.184662	-0.439789	-1.046013
C84	C	1.684662	0.060211	-0.546013
C85	C	1.184642	-0.439813	-0.964032
C86	C	1.684642	0.060187	-0.464032
C87	C	1.134461	-0.388252	-0.923050
C88	C	1.634461	0.111748	-0.423050
C89	C	1.084292	-0.336671	-0.964052
C90	C	1.584292	0.163329	-0.464052
C91	C	1.084308	-0.336652	-1.046031
C92	C	1.584308	0.163348	-0.546031
C93	C	1.084262	-0.336712	-0.793182
C94	C	1.584262	0.163288	-0.293182
C95	C	1.084247	-0.336730	-0.711197
C96	C	1.584247	0.163270	-0.211197
C97	C	1.184596	-0.439873	-0.711183
C98	C	1.684596	0.060127	-0.211183
C99	C	1.184613	-0.439855	-0.793162
C100	C	1.684613	0.060145	-0.293162
C101	C	1.134444	-0.388272	-0.834158
C102	C	1.634444	0.111728	-0.334158
C103	C	1.134362	-0.388409	-0.174258
C104	C	1.634362	0.111591	0.325742
C105	C	1.134498	-0.388210	-0.087009
C106	C	1.634498	0.111790	0.412991
H107	H	0.582695	-0.482094	-0.469138
H108	H	1.082695	0.017906	0.030862
H109	H	1.043430	-0.294693	-0.930677
H110	H	1.543430	0.205307	-0.430677
H111	H	1.225445	-0.481874	-0.677800
H112	H	1.725445	0.018126	-0.177800
H113	H	1.225528	-0.481772	-1.079375
H114	H	1.725528	0.018228	-0.579375
N115	N	0.593530	-0.281089	-0.274065
N116	N	1.093530	0.218911	0.225935
H117	H	0.555123	-0.248386	-0.242321
H118	H	1.055123	0.251614	0.257679
H119	H	0.627517	-0.313863	-0.237679
H120	H	1.127517	0.186137	0.262321
H121	H	0.433967	-0.482098	-0.469159
H122	H	0.933967	0.017902	0.030841
H123	H	1.225481	-0.481824	-0.930656
H124	H	1.725481	0.018176	-0.430656
H125	H	1.225478	-0.481836	-0.826528
H126	H	1.725478	0.018164	-0.326528
H127	H	1.043388	-0.294742	-0.677831
H128	H	1.543388	0.205258	-0.177831
H129	H	1.043410	-0.294708	-0.826558
H130	H	1.543410	0.205292	-0.326558
N131	N	1.030200	-0.281024	-1.090252
N132	N	1.530200	0.218976	-0.590252
H133	H	0.998408	-0.248362	-1.051852
H134	H	1.498408	0.251638	-0.551852
H135	H	1.062177	-0.243705	-1.124282
H136	H	1.562177	0.256295	-0.624282
N137	N	0.423119	-0.281110	-0.274081
N138	N	0.923119	0.218890	0.225919
H139	H	0.461522	-0.248393	-0.242334
H140	H	0.961522	0.251607	0.257666
H141	H	0.389130	-0.243846	-0.306107
H142	H	0.889130	0.256154	0.193893
H143	H	0.835542	-0.482076	-0.469109
H144	H	1.335542	0.017924	0.030891
H145	H	0.686824	-0.482080	-0.469129
H146	H	1.186824	0.017920	0.030871
N147	N	0.675984	-0.281091	-0.274044
N148	N	1.175984	0.218909	0.225956
H149	H	0.690236	-0.293548	-0.217940
H150	H	1.190236	0.206452	0.282060
H151	H	0.690295	-0.223516	-0.286396
H152	H	1.190295	0.276484	0.213604
N153	N	0.846380	-0.281071	-0.274043
N154	N	1.346380	0.218929	0.225957
H155	H	0.807974	-0.248366	-0.242301
H156	H	1.307974	0.251634	0.257699
H157	H	0.880371	-0.313838	-0.237655
H158	H	1.380371	0.186162	0.262345
