data_functionalizedCrystal
_audit_creation_method	'MofGen! by Chris Wilmer'
_symmetry_space_group_name_H-M	'P1'
_symmetry_Int_Tables_number	1
_symmetry_cell_setting	triclinic
loop_
_symmetry_equiv_pos_as_xyz
  x,y,z
_cell_length_a	18.101398
_cell_length_b	13.897448
_cell_length_c	13.897441
_cell_angle_alpha	89.969401
_cell_angle_beta	90.027689
_cell_angle_gamma	89.984577
loop_
_atom_site_label
_atom_site_type_symbol
_atom_site_fract_x
_atom_site_fract_y
_atom_site_fract_z
Zn1	Zn	1.132211	0.384042	0.545560
Zn2	Zn	1.632211	0.884042	1.045560
Zn3	Zn	1.132130	0.545364	0.384262
Zn4	Zn	1.632130	1.045364	0.884262
Zn5	Zn	1.008364	0.384078	0.384259
Zn6	Zn	1.508364	0.884078	0.884259
Zn7	Zn	1.008350	0.545291	0.545495
Zn8	Zn	1.508350	1.045291	1.045495
O9	O	1.070264	0.464694	0.464894
O10	O	1.570264	0.964694	0.964894
O11	O	1.235833	0.405458	0.524192
O12	O	1.735833	0.905458	1.024192
O13	O	1.115684	0.524015	0.249279
O14	O	1.615684	1.024015	0.749279
O15	O	1.024832	0.249092	0.405682
O16	O	1.524832	0.749092	0.905682
O17	O	1.235773	0.523980	0.405687
O18	O	1.735773	1.023980	0.905687
O19	O	1.115823	0.249066	0.524190
O20	O	1.615823	0.749066	1.024190
O21	O	1.024754	0.405519	0.249278
O22	O	1.524754	0.905519	0.749278
O23	O	0.904729	0.405448	0.405619
O24	O	1.404729	0.905448	0.905619
O25	O	1.024809	0.523855	0.680485
O26	O	1.524809	1.023855	1.180485
O27	O	0.904719	0.523890	0.524078
O28	O	1.404719	1.023890	1.024078
O29	O	1.115809	0.405387	0.680533
O30	O	1.615809	0.905387	1.180533
O31	O	1.115670	0.680336	0.405623
O32	O	1.615670	1.180336	0.905623
O33	O	1.024730	0.680282	0.524080
O34	O	1.524730	1.180282	1.024080
C35	C	0.877853	0.464666	0.464841
C36	C	1.377853	0.964666	0.964841
C37	C	0.795539	0.464677	0.464842
C38	C	1.295539	0.964677	0.964842
C39	C	1.070210	0.715308	0.464866
C40	C	1.570210	1.215308	0.964866
C41	C	1.070254	0.822522	0.464886
C42	C	1.570254	1.322522	0.964886
C43	C	1.070316	0.464609	0.716487
C44	C	1.570316	0.964609	1.216487
C45	C	1.070339	0.464572	0.823701
C46	C	1.570339	0.964572	1.323701
C47	C	0.644831	0.464696	0.464885
C48	C	1.144831	0.964696	0.964885
C49	C	0.613459	0.390069	0.390478
C50	C	1.113459	0.890069	0.890478
C51	C	0.527840	0.389788	0.390722
C52	C	1.027840	0.889788	0.890722
C53	C	0.496448	0.464716	0.464926
C54	C	0.996448	0.964716	0.964926
C55	C	0.527587	0.437574	0.566697
C56	C	1.027587	0.937574	1.066697
C57	C	0.613232	0.437022	0.566242
C58	C	1.113232	0.937022	1.066242
C59	C	0.613244	0.566658	0.438420
C60	C	1.113244	1.066658	0.938420
C61	C	0.527593	0.566121	0.436202
C62	C	1.027593	1.066121	0.936202
C63	C	0.412589	0.464728	0.464956
C64	C	0.912589	0.964728	0.964956
C65	C	0.728690	0.464681	0.464863
C66	C	1.228690	0.964681	0.964863
C67	C	1.263426	0.464723	0.464947
C68	C	1.763426	0.964723	0.964947
C69	C	1.345740	0.464736	0.464970
C70	C	1.845740	0.964736	0.964970
C71	C	1.070338	0.213101	0.464943
C72	C	1.570338	0.713101	0.964943
C73	C	1.070370	0.105887	0.464964
C74	C	1.570370	0.605887	0.964964
C75	C	1.070332	1.018817	0.464947
C76	C	1.570332	1.518817	0.964947
C77	C	1.070287	0.909585	0.464916
C78	C	1.570287	1.409585	0.964916
C79	C	1.070254	0.464709	0.214279
C80	C	1.570254	0.964709	0.714279
C81	C	1.070375	0.464474	0.107066
C82	C	1.570375	0.964474	0.607066
C83	C	1.070359	0.464507	1.019996
C84	C	1.570359	0.964507	1.519996
C85	C	1.070345	0.464546	0.910764
C86	C	1.570345	0.964546	1.410764
H87	H	0.506783	0.406723	0.315274
H88	H	1.006783	0.906723	0.815274
H89	H	0.634000	0.406810	0.314778
H90	H	1.134000	0.906810	0.814778
Cl91	Cl	0.494499	0.323796	0.601848
Cl92	Cl	0.994499	0.823796	1.101848
H93	H	0.506217	0.624672	0.486409
H94	H	1.006217	1.124672	0.986409
H95	H	0.507258	0.490273	0.623671
H96	H	1.007258	0.990273	1.123671
Cl97	Cl	0.496164	0.597737	0.320566
Cl98	Cl	0.996164	1.097737	0.820566
Cl99	Cl	0.646703	0.274080	0.417255
Cl100	Cl	1.146703	0.774080	0.917255
Cl101	Cl	0.644589	0.652502	0.522066
Cl102	Cl	1.144589	1.152502	1.022066
H103	H	0.634807	0.591442	0.365448
H104	H	1.134807	1.091442	0.865448
H105	H	0.507365	0.314241	0.408293
H106	H	1.007365	0.814241	0.908293
H107	H	0.633990	0.489036	0.623601
H108	H	1.133990	0.989036	1.123601
Cl109	Cl	0.644102	0.321971	0.600780
Cl110	Cl	1.144102	0.821971	1.100780
