data_functionalizedCrystal
_audit_creation_method	'MofGen! by Chris Wilmer'
_symmetry_space_group_name_H-M	'P1'
_symmetry_Int_Tables_number	1
_symmetry_cell_setting	triclinic
loop_
_symmetry_equiv_pos_as_xyz
  x,y,z
_cell_length_a	16.992694
_cell_length_b	15.995350
_cell_length_c	16.053802
_cell_angle_alpha	92.567808
_cell_angle_beta	87.249047
_cell_angle_gamma	87.080299
loop_
_atom_site_label
_atom_site_type_symbol
_atom_site_fract_x
_atom_site_fract_y
_atom_site_fract_z
O1	O	1.043694	0.174244	-0.069318
O2	O	0.815410	0.172295	-0.069342
O3	O	0.935792	0.051799	-0.069329
O4	O	0.923312	0.294739	-0.069332
O5	O	0.929166	0.058403	0.069530
O6	O	0.808784	0.178898	0.069516
O7	O	1.037068	0.180847	0.069540
Zn8	Zn	0.921874	0.180921	0.091575
Zn9	Zn	0.930604	0.172221	-0.091377
O10	O	0.916685	0.301343	0.069527
C11	C	0.782884	0.173091	0.000083
C12	C	0.695841	0.165614	0.000074
C13	C	0.931963	0.023872	0.000099
C14	C	0.930417	-0.069182	0.000094
C15	C	0.645600	0.237749	0.000074
C16	C	0.563813	0.230720	0.000085
C17	C	0.532268	0.151555	0.000091
C18	C	0.582515	0.079414	0.000094
C19	C	0.664300	0.086444	0.000088
C20	C	0.288669	0.122417	0.000114
C21	C	0.206878	0.115392	0.000117
C22	C	0.188181	0.266699	0.000110
C23	C	0.269969	0.273722	0.000099
C24	C	0.320209	0.201582	0.000106
N25	N	0.448669	0.144368	0.000100
N26	N	0.403806	0.208770	0.000103
C27	C	0.924861	-0.407302	0.000096
C28	C	0.839142	-0.365620	-0.000225
C29	C	0.840674	-0.268811	0.000089
C30	C	0.927617	-0.239557	0.000095
C31	C	0.966120	-0.274034	0.079392
C32	C	0.963963	-0.370810	0.079459
C33	C	0.973269	-0.378559	-0.078449
C34	C	0.973299	-0.281665	-0.079497
C35	C	0.929179	-0.144755	0.000096
C36	C	0.923302	-0.502103	0.000100
C37	C	1.069593	0.180051	0.000113
C38	C	1.156637	0.187528	0.000117
C39	C	0.920515	0.329270	0.000097
C40	C	0.922061	0.422324	0.000097
N41	N	0.915921	0.186859	0.216434
N42	N	0.936563	0.166277	-0.216236
C43	C	0.967163	0.135608	0.260134
C44	C	0.963006	0.139770	0.347541
C45	C	0.907611	0.195187	0.391245
C46	C	0.856364	0.246439	0.347539
C47	C	0.860518	0.242273	0.260135
C48	C	0.889469	0.213363	0.652653
C49	C	0.885321	0.217528	0.740064
C50	C	0.991962	0.110857	0.740059
C51	C	0.996114	0.106699	0.652652
C52	C	0.944864	0.157948	0.608954
N53	N	0.903363	0.199444	0.480589
N54	N	0.949109	0.153686	0.519612
H55	H	0.671277	0.302214	0.000068
C56	C	1.052213	-0.248965	0.083393
C57	C	1.077549	-0.195370	0.158565
C58	C	1.163638	-0.170289	0.162565
C59	C	1.224391	-0.198802	0.091393
C60	C	1.199056	-0.252400	0.016215
C61	C	1.112967	-0.277481	0.012215
H62	H	1.032575	-0.174260	0.211256
H63	H	1.182392	-0.130612	0.218217
H64	H	1.288119	-0.180236	0.094353
H65	H	1.244030	-0.273510	-0.036476
H66	H	1.094213	-0.317158	-0.043436
H67	H	0.933934	-0.244811	0.138399
C68	C	0.795428	0.307400	0.395610
C69	C	0.790893	0.312032	0.491752
C70	C	0.729957	0.372997	0.539820
C71	C	0.673556	0.429329	0.491746
C72	C	0.678090	0.424699	0.395599
C73	C	0.739026	0.363734	0.347531
H74	H	0.832645	0.270330	0.527344
H75	H	0.726601	0.376424	0.610995
H76	H	0.628448	0.474459	0.527329
H77	H	0.636337	0.466401	0.360007
H78	H	0.742381	0.360307	0.276356
C79	C	0.796513	-0.397409	-0.077047
C80	C	0.719482	-0.443204	-0.065401
C81	C	0.676857	-0.475002	-0.142228
C82	C	0.711263	-0.461005	-0.230701
C83	C	0.788298	-0.415207	-0.242351
C84	C	0.830924	-0.383409	-0.165524
H85	H	0.694009	-0.453568	0.000095
H86	H	0.619830	-0.508905	-0.133604
H87	H	0.679709	-0.484543	-0.287573
H88	H	0.813771	-0.404843	-0.307847
H89	H	0.887951	-0.349507	-0.174148
H90	H	1.012274	0.090486	0.224555
H91	H	0.802329	-0.384808	0.056318
H92	H	0.705206	0.027704	0.000088
H93	H	0.147268	0.325432	0.000106
H94	H	0.804493	-0.240478	0.057023
H95	H	0.329565	0.063675	0.000120
H96	H	0.948107	-0.403833	-0.138552
H97	H	0.945181	-0.259275	-0.138159
C98	C	0.918478	-0.394521	0.159525
C99	C	0.907101	-0.487312	0.176158
C100	C	0.861613	-0.511018	0.256225
C101	C	0.827502	-0.441933	0.319658
C102	C	0.838879	-0.349136	0.303027
C103	C	0.884367	-0.325430	0.222960
H104	H	0.932352	-0.538459	0.129199
H105	H	0.853192	-0.579713	0.268536
H106	H	0.793830	-0.459481	0.378929
H107	H	0.813627	-0.297989	0.349986
H108	H	0.892788	-0.256735	0.210649
C109	C	1.057045	0.045737	0.604574
C110	C	1.113413	-0.010644	0.652635
C111	C	1.174346	-0.071603	0.604553
C112	C	1.178909	-0.076180	0.508412
C113	C	1.122539	-0.019796	0.460346
C114	C	1.061607	0.041163	0.508427
H115	H	1.110036	-0.007258	0.723809
H116	H	1.216075	-0.113342	0.640135
H117	H	1.224015	-0.121305	0.472819
H118	H	1.125916	-0.023182	0.389171
H119	H	1.019877	0.082901	0.472845
C120	C	0.547819	-0.007670	0.000099
C121	C	0.457859	-0.015408	0.000099
C122	C	0.423165	-0.102494	0.000100
C123	C	0.478431	-0.181842	0.000102
C124	C	0.568396	-0.174107	0.000102
C125	C	0.603090	-0.087021	0.000100
H126	H	0.416943	0.043333	0.000098
H127	H	0.356567	-0.108220	0.000100
H128	H	0.452748	-0.246309	0.000103
H129	H	0.609312	-0.232847	0.000103
H130	H	0.669688	-0.081295	0.000100
C131	C	1.048329	0.054478	0.788127
C132	C	1.014840	-0.008765	0.848225
C133	C	1.071208	-0.065149	0.896292
C134	C	1.161063	-0.058290	0.884261
C135	C	1.194556	0.004956	0.824161
C136	C	1.138189	0.061340	0.776094
H137	H	0.948320	-0.013845	0.857133
H138	H	1.046413	-0.111968	0.940782
H139	H	1.202790	-0.100029	0.919843
H140	H	1.261077	0.010036	0.815252
H141	H	1.162983	0.108159	0.731603
H142	H	0.181198	0.050923	0.000121
H143	H	0.840209	0.262658	0.775644
H144	H	0.818790	0.284005	0.224555
H145	H	0.522910	0.289461	0.000084
H146	H	0.295647	0.338187	0.000085
H147	H	1.036930	-0.262288	-0.084280
H148	H	1.036506	-0.406115	-0.078977
H149	H	1.026736	-0.398675	0.083061
H150	H	1.004731	0.098037	0.383120
H151	H	0.810146	-0.245316	-0.056756
H152	H	0.847741	0.255094	0.617081
