data_functionalizedCrystal
_audit_creation_method	'MofGen! by Chris Wilmer'
_symmetry_space_group_name_H-M	'P1'
_symmetry_Int_Tables_number	1
_symmetry_cell_setting	triclinic
loop_
_symmetry_equiv_pos_as_xyz
  x,y,z
_cell_length_a	14.908571
_cell_length_b	16.625545
_cell_length_c	14.908308
_cell_angle_alpha	93.266139
_cell_angle_beta	89.824947
_cell_angle_gamma	93.279815
loop_
_atom_site_label
_atom_site_type_symbol
_atom_site_fract_x
_atom_site_fract_y
_atom_site_fract_z
Zn1	Zn	1.345266	0.420778	0.587574
Zn2	Zn	1.845266	0.920778	1.087574
Zn3	Zn	1.353838	0.548312	0.437211
Zn4	Zn	1.853838	1.048312	0.937211
Zn5	Zn	1.203583	0.405291	0.428572
Zn6	Zn	1.703583	0.905291	0.928572
Zn7	Zn	1.194866	0.547354	0.578863
Zn8	Zn	1.694866	1.047354	1.078863
O9	O	1.274388	0.480434	0.508055
O10	O	1.774388	0.980434	1.008055
O11	O	1.472229	0.444578	0.574889
O12	O	1.972229	0.944578	1.074889
O13	O	1.341141	0.523260	0.310241
O14	O	1.841141	1.023260	0.810241
O15	O	1.222438	0.294518	0.449693
O16	O	1.722438	0.794518	0.949693
O17	O	1.478526	0.538277	0.464418
O18	O	1.978526	1.038277	0.964418
O19	O	1.326533	0.305896	0.566511
O20	O	1.826533	0.805896	1.066511
O21	O	1.230750	0.418183	0.303893
O22	O	1.730750	0.918183	0.803893
O23	O	1.076601	0.417254	0.441247
O24	O	1.576601	0.917254	0.941247
O25	O	1.207581	0.536644	0.705843
O26	O	1.707581	1.036644	1.205843
O27	O	1.070196	0.521627	0.551665
O28	O	1.570196	1.021627	1.051665
O29	O	1.318080	0.443649	0.712243
O30	O	1.818080	0.943649	1.212243
O31	O	1.332689	0.661013	0.455972
O32	O	1.832689	1.161013	0.955972
O33	O	1.215893	0.660309	0.560043
O34	O	1.715893	1.160309	1.060043
C35	C	1.040773	0.467657	0.494574
C36	C	1.540773	0.967657	0.994574
C37	C	0.940831	0.462211	0.488828
C38	C	1.440831	0.962211	0.988828
C39	C	0.746416	0.560814	0.592855
C40	C	1.246416	1.060814	1.092855
C41	C	0.652511	0.555700	0.587460
C42	C	1.152511	1.055700	1.087460
C43	C	0.659113	0.446865	0.472647
C44	C	1.159113	0.946865	0.972647
C45	C	0.753018	0.451979	0.478042
C46	C	1.253018	0.951979	0.978042
C47	C	0.796667	0.508957	0.538148
C48	C	1.296667	1.008957	1.038148
C49	C	0.890574	0.514074	0.543538
C50	C	1.390574	1.014074	1.043538
C51	C	0.897174	0.405236	0.428730
C52	C	1.397174	0.905236	0.928730
C53	C	0.803269	0.400122	0.423334
C54	C	1.303269	0.900122	0.923334
C55	C	1.274298	0.689918	0.508021
C56	C	1.774298	1.189918	1.008021
C57	C	1.274340	0.779543	0.508041
C58	C	1.774340	1.279543	1.008041
C59	C	1.274481	1.107732	0.508157
C60	C	1.774481	1.607732	1.008157
C61	C	1.274439	1.016419	0.508127
C62	C	1.774439	1.516419	1.008127
C63	C	1.274410	0.943640	0.508099
C64	C	1.774410	1.443640	1.008099
C65	C	1.274369	0.852322	0.508070
C66	C	1.774369	1.352322	1.008070
C67	C	1.508915	0.493262	0.521589
C68	C	2.008915	0.993262	1.021589
C69	C	1.608856	0.498728	0.527356
C70	C	2.108856	0.998728	1.027356
C71	C	1.260902	0.491767	0.742580
C72	C	1.760902	0.991767	1.242580
C73	C	1.255155	0.496597	0.842521
C74	C	1.755155	0.996597	1.342521
C75	C	1.274493	1.270134	0.508120
C76	C	1.774493	1.770134	1.008120
C77	C	1.274517	1.180517	0.508174
C78	C	1.774517	1.680517	1.008174
C79	C	1.287873	0.469089	0.274445
C80	C	1.787873	0.969089	0.774445
C81	C	1.293794	0.464042	0.174515
C82	C	1.793794	0.964042	0.674515
C83	C	1.359416	0.408817	1.036985
C84	C	1.859416	0.908817	1.536985
C85	C	1.354019	0.413353	1.130888
C86	C	1.854019	0.913353	1.630888
C87	C	1.238961	0.510198	1.124232
C88	C	1.738961	1.010198	1.624232
C89	C	1.244358	0.505663	1.030329
C90	C	1.744358	1.005663	1.530329
C91	C	1.304588	0.454972	0.986709
C92	C	1.804588	0.954972	1.486709
C93	C	1.309989	0.450441	0.892804
C94	C	1.809989	0.950441	1.392804
C95	C	1.194927	0.547282	0.886149
C96	C	1.694927	1.047282	1.386149
C97	C	1.189530	0.551817	0.980052
C98	C	1.689530	1.051817	1.480052
H99	H	0.767717	0.353730	0.374401
H100	H	1.267717	0.853730	0.874401
H101	H	1.359033	0.409167	0.857290
H102	H	1.859033	0.909167	1.357290
H103	H	1.408463	0.367547	1.001469
H104	H	1.908463	0.867547	1.501469
H105	H	1.189924	0.551468	1.159764
H106	H	1.689924	1.051468	1.659764
H107	H	0.623558	0.400472	0.423717
H108	H	1.123558	0.900472	0.923717
H109	H	0.781956	0.607211	0.641791
H110	H	1.281956	1.107211	1.141791
H111	H	0.926111	0.560469	0.592478
H112	H	1.426111	1.060469	1.092478
H113	H	1.398663	0.375767	1.171820
H114	H	1.898663	0.875767	1.671820
H115	H	1.140490	0.593086	1.015580
H116	H	1.640490	1.093086	1.515580
H117	H	1.150284	0.584866	0.845204
H118	H	1.650284	1.084866	1.345204
H119	H	0.938098	0.363011	0.384181
H120	H	1.438098	0.863011	0.884181
Br121	Br	0.584316	0.626078	0.661713
Br122	Br	1.084316	1.126078	1.161713
