data_functionalizedCrystal
_audit_creation_method	'MofGen! by Chris Wilmer'
_symmetry_space_group_name_H-M	'P1'
_symmetry_Int_Tables_number	1
_symmetry_cell_setting	triclinic
loop_
_symmetry_equiv_pos_as_xyz
  x,y,z
_cell_length_a	23.096457
_cell_length_b	14.560432
_cell_length_c	23.096457
_cell_angle_alpha	120.001059
_cell_angle_beta	90.002696
_cell_angle_gamma	59.999119
loop_
_atom_site_label
_atom_site_type_symbol
_atom_site_fract_x
_atom_site_fract_y
_atom_site_fract_z
Zr1	Zr	0.557763	1.005296	0.075989
O2	O	0.465313	1.196901	0.168434
O3	O	0.586104	0.813694	0.047651
O4	O	0.586103	1.005304	0.168441
O5	O	0.465315	1.005284	-0.047640
O6	O	0.681383	1.005306	0.168445
O7	O	0.465314	1.005291	0.047644
O8	O	0.681385	0.662551	-0.047627
O9	O	0.465313	1.348039	0.168432
O10	O	0.669297	0.892503	0.035566
O11	O	0.598191	0.892496	-0.035546
O12	O	0.598190	1.118092	0.106669
O13	O	0.527083	1.118084	0.035557
Zr14	Zr	0.709725	1.005288	-0.075972
Zr15	Zr	0.709724	1.005300	0.075994
Zr16	Zr	0.557764	1.005284	-0.075978
Zr17	Zr	0.557762	1.246343	0.075985
Zr18	Zr	0.709725	0.764240	-0.075969
O19	O	0.681384	1.196890	-0.047635
O20	O	0.681383	1.196907	0.168442
O21	O	0.465315	1.196884	-0.047643
O22	O	0.802174	0.813682	-0.168417
O23	O	0.802173	0.813699	0.047659
O24	O	0.586105	0.813677	-0.168425
O25	O	0.802173	1.005300	0.047656
O26	O	0.681385	1.005280	-0.168425
O27	O	0.586105	1.005277	-0.168428
O28	O	0.802173	1.005293	-0.047627
O29	O	0.586102	1.348043	0.168436
O30	O	0.681385	0.662541	-0.168420
O31	O	0.802174	0.662544	-0.168415
O32	O	0.802174	0.662554	-0.047622
O33	O	0.465314	1.348030	0.047639
O34	O	0.586103	1.348033	0.047643
O35	O	0.669298	0.892492	-0.106652
O36	O	0.740404	0.892499	-0.035541
O37	O	0.669297	1.118088	0.035562
O38	O	0.598190	1.118081	-0.035549
C39	C	0.633744	0.703778	0.000013
C40	C	0.633744	0.601447	0.000014
C41	C	0.707973	0.601449	0.074263
C42	C	0.745084	0.553378	0.111388
C43	C	0.745082	0.457229	0.111386
C44	C	0.707967	0.409145	0.074254
C45	C	0.670856	0.457216	0.037129
C46	C	0.670860	0.553370	0.037136
C47	C	0.596632	0.457207	-0.037123
C48	C	0.596629	0.553363	-0.037118
C49	C	0.559517	0.409124	-0.074255
C50	C	0.522401	0.457201	-0.111377
C51	C	0.522404	0.553357	-0.111373
C52	C	0.559518	0.601434	-0.074243
C53	C	0.443663	1.005287	0.000001
C54	C	0.379152	1.005285	-0.000001
C55	C	0.385964	0.887534	-0.037109
C56	C	0.325348	0.887532	-0.037112
C57	C	0.257921	1.005288	0.000007
C58	C	0.251112	1.123055	0.037117
C59	C	0.311727	1.123054	0.037113
N60	N	0.135125	1.092943	0.060418
N61	N	0.077546	1.092937	0.060420
C62	C	0.075289	1.005300	0.000019
N63	N	0.132792	0.917650	-0.060383
N64	N	0.190378	0.917653	-0.060384
C65	C	0.192190	1.005303	0.000015
C66	C	0.016377	0.887538	-0.037096
C67	C	-0.044241	0.887541	-0.037101
C68	C	-0.118477	1.123068	0.037135
C69	C	-0.057859	1.123062	0.037133
C70	C	0.009565	1.005293	0.000019
C71	C	0.823824	1.005297	0.000015
C72	C	0.888336	1.005299	0.000018
C73	C	0.633743	1.005307	0.190095
C74	C	0.633742	1.005312	0.254609
C75	C	0.633743	1.306806	0.000004
C76	C	0.633743	1.409137	0.000002
C77	C	0.596643	1.123041	0.752227
C78	C	0.596636	1.123048	0.691613
C79	C	0.633753	1.005294	0.624185
C80	C	0.670865	0.887524	0.617373
C81	C	0.670865	0.887521	0.677987
N82	N	0.694159	0.917647	0.501389
N83	N	0.694157	0.917658	0.443811
C84	C	0.633755	1.005296	0.441557
N85	N	0.573355	1.092943	0.499063
N86	N	0.573357	1.092936	0.556647
C87	C	0.633757	1.005284	0.558456
C88	C	0.596634	1.123066	0.382649
C89	C	0.596625	1.123067	0.322033
C90	C	0.670862	0.887540	0.247793
C91	C	0.670863	0.887542	0.308409
C92	C	0.633751	1.005308	0.375835
C93	C	0.633747	1.005281	0.809923
C94	C	0.633753	1.005288	0.745413
C95	C	0.823825	0.703783	0.000020
C96	C	0.888336	0.601454	0.000024
C97	C	0.633745	0.703763	-0.190074
C98	C	0.633746	0.601427	-0.254586
C99	C	0.823826	0.703768	-0.190067
C100	C	0.888338	0.601434	-0.254577
C101	C	0.443662	1.306816	0.190083
C102	C	0.379150	1.409150	0.254593
C103	C	0.443663	1.306801	-0.000003
C104	C	0.379151	1.409130	-0.000007
C105	C	0.633742	1.306821	0.190090
C106	C	0.633742	1.409157	0.254603
C107	C	0.881514	0.553401	0.037149
C108	C	0.942124	0.457265	0.037166
C109	C	1.009555	0.409177	0.000055
C110	C	1.016375	0.457240	-0.037071
C111	C	0.955766	0.553380	-0.037085
C112	C	0.670863	0.553367	-0.322005
C113	C	0.670861	0.457225	-0.382627
C114	C	0.633745	0.409138	-0.375828
C115	C	0.596623	0.457207	-0.308402
C116	C	0.596622	0.553354	-0.247782
C117	C	0.955756	0.553380	-0.247752
C118	C	1.016378	0.457240	-0.308360
C119	C	1.009580	0.409148	-0.375792
C120	C	0.942154	0.457210	-0.382616
C121	C	0.881534	0.553356	-0.322008
C122	C	0.311731	1.457215	0.247768
C123	C	0.251109	1.553386	0.308376
C124	C	0.257908	1.601483	0.375809
C125	C	0.325334	1.553414	0.382632
C126	C	0.385954	1.457251	0.322025
C127	C	0.385973	1.457193	-0.037126
C128	C	0.325363	1.553356	-0.037127
C129	C	0.257933	1.601447	-0.000013
C130	C	0.251112	1.553380	0.037110
C131	C	0.311721	1.457225	0.037115
C132	C	0.670865	1.457213	0.247781
C133	C	0.670878	1.553356	0.308392
C134	C	0.633764	1.601447	0.375822
C135	C	0.596640	1.553381	0.382642
C136	C	0.596631	1.457234	0.322033
H137	H	0.707971	0.679750	0.074275
N138	N	1.074919	0.305475	0.000072
H139	H	1.104096	0.225677	-0.050196
H140	H	1.104042	0.339040	0.021231
N141	N	0.808819	0.605175	-0.329375
H142	H	0.813717	0.560110	-0.381291
H143	H	0.782055	0.588428	-0.305850
H144	H	1.071286	0.418072	-0.067286
N145	N	0.556619	1.250061	0.698957
H146	H	0.562254	1.232190	0.650327
H147	H	0.504709	1.301504	0.725761
H148	H	0.196202	1.592550	0.067327
H149	H	0.961331	0.592493	-0.067320
H150	H	0.566411	1.218958	0.437551
H151	H	0.701108	1.592481	0.302825
H152	H	0.306157	1.418095	0.067340
H153	H	0.306182	1.418060	0.192867
N154	N	0.633762	0.305424	-0.441219
H155	H	0.654891	0.225632	-0.441251
H156	H	0.583480	0.338981	-0.441223
H157	H	0.936557	0.418144	0.067399
H158	H	0.440873	1.418044	-0.067353
H159	H	0.701088	0.592509	-0.327554
N160	N	0.710904	0.405386	-0.455344
H161	H	0.734421	0.450433	-0.450446
H162	H	0.748218	0.308865	-0.482111
H163	H	0.633776	1.679737	0.425169
N164	N	1.089094	0.405389	-0.300988
H165	H	1.126470	0.337183	-0.349610
H166	H	1.094707	0.478823	-0.274172
N167	N	0.556598	0.405329	-0.301075
H168	H	0.562240	0.337123	-0.349712
H169	H	0.576094	0.365497	-0.274277
H170	H	0.208541	1.679784	0.425153
N171	N	0.934827	0.405333	-0.455348
H172	H	0.983463	0.337130	-0.492701
H173	H	0.908030	0.365496	-0.460968
H174	H	0.701088	1.418072	0.192881
N175	N	0.559509	0.305429	-0.074252
H176	H	0.530366	0.282266	-0.103406
H177	H	0.609798	0.225713	-0.095350
H178	H	0.566399	0.592472	-0.192889
H179	H	1.058946	0.330860	-0.425137
H180	H	0.961305	0.592523	-0.192850
N181	N	0.178392	1.605217	0.301007
H182	H	0.183290	1.560140	0.249092
H183	H	0.151621	1.588496	0.324543
H184	H	0.566422	1.592552	0.437552
N185	N	0.332729	1.605185	-0.077169
H186	H	0.384644	1.560114	-0.100684
H187	H	0.309195	1.588457	-0.114486
H188	H	0.330861	1.592587	0.437543
N189	N	0.458669	1.405409	0.329391
H190	H	0.453770	1.450474	0.381308
H191	H	0.485432	1.308892	0.305869
H192	H	0.566398	1.418117	0.327597
H193	H	0.566401	1.218960	0.327588
H194	H	0.208586	1.679742	-0.000023
N195	N	0.710903	0.760535	0.301064
H196	H	0.748253	0.755297	0.324562
H197	H	0.676814	0.755359	0.324548
H198	H	-0.038689	0.791650	-0.067324
N199	N	0.178393	1.250069	0.077158
H200	H	0.172712	1.301545	0.057683
H201	H	0.141068	1.232101	0.071521
N202	N	0.785108	0.605247	0.151443
H203	H	0.822463	0.588525	0.117411
H204	H	0.751009	0.701750	0.188791
N205	N	0.785112	0.405367	0.151422
H206	H	0.808626	0.450410	0.174944
H207	H	0.751025	0.422101	0.188732
H208	H	0.492189	0.418038	-0.141610
N209	N	0.707974	0.305425	0.074240
H210	H	0.737119	0.282263	0.103389
H211	H	0.657684	0.338956	0.095339
H212	H	0.492185	0.592489	-0.141606
H213	H	0.440860	0.791637	-0.067326
N214	N	0.559517	0.705145	-0.074235
H215	H	0.588660	0.728307	-0.045080
H216	H	0.580631	0.671602	-0.124524
H217	H	0.306176	1.218944	0.067329
N218	N	0.332678	0.760532	-0.077131
H219	H	0.359451	0.709029	-0.129059
H220	H	0.359432	0.709164	-0.057598
N221	N	0.089099	0.760521	-0.077128
H222	H	0.094777	0.709038	-0.129053
H223	H	0.126422	0.778492	-0.071440
N224	N	-0.191197	1.250075	0.077168
H225	H	-0.196875	1.301564	0.129093
H226	H	-0.196830	1.301447	0.057637
H227	H	-0.063409	1.218948	0.067356
H228	H	0.566421	1.218936	0.807124
N229	N	0.710902	0.760516	0.544651
H230	H	0.705275	0.778385	0.507286
H231	H	0.762808	0.709096	0.539044
N232	N	0.710903	0.760511	0.670640
H233	H	0.691436	0.709021	0.643863
H234	H	0.762817	0.709140	0.643883
N235	N	0.710901	0.760527	0.175076
H236	H	0.691429	0.709047	0.169397
H237	H	0.705260	0.778497	0.137753
N238	N	0.808791	0.605249	0.077178
H239	H	0.781984	0.701770	0.114525
H240	H	0.782050	0.588411	0.043083
