data_functionalizedCrystal
_audit_creation_method	'MofGen! by Chris Wilmer'
_symmetry_space_group_name_H-M	'P1'
_symmetry_Int_Tables_number	1
_symmetry_cell_setting	triclinic
loop_
_symmetry_equiv_pos_as_xyz
  x,y,z
_cell_length_a	12.759401
_cell_length_b	17.077402
_cell_length_c	12.759401
_cell_angle_alpha	89.986096
_cell_angle_beta	90.005232
_cell_angle_gamma	89.975592
loop_
_atom_site_label
_atom_site_type_symbol
_atom_site_fract_x
_atom_site_fract_y
_atom_site_fract_z
Zn1	Zn	1.606044	0.312599	0.593989
Zn2	Zn	1.605958	0.443838	0.418296
Zn3	Zn	1.430391	0.312593	0.418324
Zn4	Zn	1.430309	0.443831	0.593933
O5	O	1.518175	0.378215	0.506136
O6	O	1.753053	0.330014	0.570695
O7	O	1.582667	0.426428	0.271279
O8	O	1.453761	0.202747	0.441662
O9	O	1.752990	0.426434	0.441614
O10	O	1.582813	0.202752	0.570722
O11	O	1.453678	0.330004	0.271300
O12	O	1.283359	0.329997	0.441608
O13	O	1.453623	0.426422	0.740962
O14	O	1.283299	0.426416	0.570627
O15	O	1.582734	0.330007	0.741003
O16	O	1.582588	0.553684	0.441560
O17	O	1.453539	0.553678	0.570600
C18	C	1.518074	0.582163	0.506094
C19	C	1.518127	0.669413	0.506111
C20	C	1.245208	0.378206	0.506115
C21	C	1.128431	0.378220	0.506131
C22	C	1.518179	0.378214	0.780169
C23	C	1.518180	0.378214	0.896946
C24	C	1.073566	0.428502	0.573206
C25	C	0.963842	0.428505	0.573226
C26	C	0.963858	0.327942	0.439089
C27	C	1.073581	0.327936	0.439074
C28	C	0.813906	0.456705	0.697084
C29	C	0.759037	0.507000	0.764149
C30	C	0.794616	0.583610	0.780090
C31	C	0.885062	0.609942	0.728949
C32	C	0.939926	0.559652	0.661876
C33	C	0.904349	0.483030	0.645956
C34	C	1.223518	0.299744	0.315215
C35	C	1.278383	0.249457	0.248136
C36	C	1.242807	0.172846	0.232185
C37	C	1.152357	0.146517	0.283307
C38	C	1.097492	0.196803	0.350386
C39	C	1.133076	0.273414	0.366339
C40	C	1.792209	0.378225	0.506157
C41	C	1.908985	0.378230	0.506167
C42	C	1.518306	0.173471	0.506201
C43	C	1.518361	0.086221	0.506229
C44	C	1.585391	0.710380	0.438992
C45	C	1.585442	0.792360	0.439019
C46	C	1.518223	0.833372	0.506160
C47	C	1.450956	0.792400	0.573286
C48	C	1.450911	0.710421	0.573264
C49	C	1.451054	0.963270	0.573326
C50	C	1.451097	1.045254	0.573348
C51	C	1.585585	1.045209	0.439081
C52	C	1.585539	0.963230	0.439059
C53	C	1.518271	0.922263	0.506184
C54	C	1.585391	0.328019	1.061562
C55	C	1.585401	0.328018	0.951838
C56	C	1.450954	0.428418	0.951783
C57	C	1.450951	0.428422	1.061506
C58	C	1.709328	0.299973	0.801913
C59	C	1.776542	0.249762	0.747079
C60	C	1.792722	0.173170	0.782721
C61	C	1.741672	0.146774	0.873195
C62	C	1.674451	0.196981	0.928023
C63	C	1.658291	0.273583	0.892383
C64	C	1.327022	0.456459	1.211432
C65	C	1.259794	0.506662	1.266263
C66	C	1.243604	0.583255	1.230623
C67	C	1.294635	0.609649	1.140145
C68	C	1.361863	0.559445	1.085315
C69	C	1.378055	0.482853	1.120962
C70	C	1.518165	0.378230	1.233168
C71	C	1.518168	0.378217	1.116392
H72	H	1.118222	0.469445	0.627810
O73	O	1.657897	0.273881	1.120766
H74	H	1.704651	0.238982	1.064200
O75	O	1.759104	0.064158	0.911637
H76	H	1.843511	0.055506	0.929240
O77	O	0.999931	0.168419	0.405535
H78	H	1.019805	0.117463	0.455773
O79	O	1.113977	0.063883	0.266115
H80	H	1.167329	0.033336	0.210893
H81	H	0.685396	0.485553	0.805789
H82	H	1.396280	0.929917	0.627991
H83	H	1.396139	0.677066	0.627920
O84	O	1.378445	0.836636	0.645691
H85	H	1.425439	0.873949	0.699189
H86	H	1.396382	1.078644	0.628039
O87	O	1.619395	0.168526	1.025605
H88	H	1.641939	0.106829	1.041183
O89	O	1.658142	1.089389	0.366680
H90	H	1.740575	1.073587	0.384757
H91	H	1.640214	0.825712	0.384363
H92	H	1.847450	0.132288	0.738067
O93	O	0.904682	0.273736	0.366742
H94	H	0.854700	0.233861	0.413851
H95	H	0.784937	0.394320	0.684122
H96	H	1.818107	0.271261	0.673415
H97	H	1.013565	0.581091	0.620238
H98	H	1.696172	0.362343	0.772891
O99	O	1.378445	0.482556	0.892587
H100	H	1.389729	0.474115	0.807078
H101	H	1.340205	0.394091	1.240463
O102	O	1.204751	0.478201	1.363854
H103	H	1.227315	0.416510	1.379439
H104	H	0.914016	0.672329	0.741925
H105	H	0.749934	0.624559	0.834697
H106	H	1.403416	0.580942	1.011644
H107	H	1.287484	0.131906	0.177554
O108	O	1.375943	0.277850	0.192993
H109	H	1.391478	0.339568	0.215364
H110	H	1.281454	0.672018	1.111127
H111	H	1.188890	0.624140	1.275298
H112	H	1.640123	0.676993	0.384314
O113	O	1.658041	0.918990	0.366649
H114	H	1.704834	0.961248	0.319985
H115	H	1.252500	0.362126	0.328207
