data_functionalizedCrystal
_audit_creation_method	'MofGen! by Chris Wilmer'
_symmetry_space_group_name_H-M	'P1'
_symmetry_Int_Tables_number	1
_symmetry_cell_setting	triclinic
loop_
_symmetry_equiv_pos_as_xyz
  x,y,z
_cell_length_a	19.288864
_cell_length_b	14.750779
_cell_length_c	19.288865
_cell_angle_alpha	102.602845
_cell_angle_beta	83.136245
_cell_angle_gamma	77.416117
loop_
_atom_site_label
_atom_site_type_symbol
_atom_site_fract_x
_atom_site_fract_y
_atom_site_fract_z
O1	O	0.906164	0.080142	0.101825
O2	O	0.703915	0.080078	0.113501
O3	O	0.810887	0.080092	0.006529
O4	O	0.799192	0.080127	0.208796
O5	O	0.841126	-0.079554	-0.023707
O6	O	0.734155	-0.079569	0.083265
O7	O	0.936403	-0.079504	0.071588
Zn8	Zn	0.840080	-0.104884	0.072626
Zn9	Zn	0.800238	0.105457	0.112464
O10	O	0.829431	-0.079519	0.178560
C11	C	0.693160	0.000246	0.098005
C12	C	0.616061	0.000221	0.096871
N13	N	0.867276	-0.248436	0.045437
C14	C	0.571360	0.000246	0.159644
C15	C	0.498911	0.000257	0.158586
C16	C	0.471163	0.000261	0.094754
C17	C	0.515875	0.000230	0.031972
C18	C	0.588324	0.000210	0.033031
C19	C	0.352302	0.056216	0.055173
C20	C	0.279853	0.056242	0.054118
C21	C	0.247706	0.000318	0.091485
C22	C	0.288014	-0.055619	0.129922
C23	C	0.360464	-0.055639	0.130981
C24	C	0.392605	0.000282	0.093599
C25	C	0.124447	0.000354	0.153114
C26	C	0.051998	0.000359	0.152052
C27	C	0.068962	0.000341	0.025438
C28	C	0.141411	0.000327	0.026501
C29	C	0.169148	0.000338	0.090342
C30	C	0.697092	-0.600278	0.215550
C31	C	0.716155	-0.700774	0.196502
C32	C	0.810898	-0.700723	0.101814
C33	C	0.791841	-0.600225	0.120851
C34	C	0.734938	-0.550010	0.177720
C35	C	0.829687	-0.549957	0.083021
C36	C	0.810634	-0.449468	0.102059
C37	C	0.753735	-0.399246	0.158928
C38	C	0.715885	-0.449520	0.196758
C39	C	0.886593	-0.600174	0.026155
C40	C	0.924438	-0.549907	-0.011675
C41	C	0.905382	-0.449415	0.007360
C42	C	0.848483	-0.399193	0.064229
C43	C	0.943232	-0.399140	-0.030470
C44	C	0.924179	-0.298651	-0.011432
C45	C	0.829430	-0.298703	0.083267
C46	C	0.947158	0.000329	0.087084
C47	C	1.024255	0.000361	0.088219
C48	C	0.825631	0.000266	-0.034466
C49	C	0.824504	0.000258	-0.111571
N50	N	0.773047	0.249009	0.139647
C51	C	0.887269	0.000273	-0.156265
C52	C	0.886205	0.000288	-0.228709
C53	C	0.822377	0.000268	-0.256460
C54	C	0.759603	0.000258	-0.211756
C55	C	0.760666	0.000253	-0.139311
C56	C	0.782793	-0.055668	-0.375342
C57	C	0.781733	-0.055669	-0.447786
C58	C	0.819093	0.000289	-0.479902
C59	C	0.857528	0.056234	-0.439568
C60	C	0.858591	0.056229	-0.367123
C61	C	0.821217	0.000274	-0.335013
C62	C	0.880709	0.000321	-0.603148
C63	C	0.879642	0.000342	-0.675592
C64	C	0.753039	0.000303	-0.658639
C65	C	0.754107	0.000292	-0.586195
C66	C	0.817944	0.000296	-0.558455
C67	C	0.814687	0.000309	0.219556
C68	C	0.815813	0.000324	0.296662
H69	H	0.593938	0.000257	0.211629
H70	H	0.147035	0.000349	0.205094
H71	H	0.887950	0.101801	-0.465714
Cl72	Cl	0.757886	-0.235572	0.154755
Cl73	Cl	0.411135	-0.125960	0.179295
H74	H	0.954998	-0.257722	-0.042237
H75	H	0.902105	-0.681999	0.010659
H76	H	0.177807	0.000311	-0.024615
Cl77	Cl	-0.004198	0.000386	0.230973
H78	H	0.685332	-0.741697	0.227314
H79	H	0.709554	0.000240	-0.102921
Cl80	Cl	0.229184	0.126571	0.005806
H81	H	0.932689	0.000329	-0.580560
Cl82	Cl	0.995973	-0.613041	-0.083164
Cl83	Cl	0.480993	0.000229	-0.048274
Cl84	Cl	0.672796	0.000284	-0.693518
Cl85	Cl	0.965116	0.000308	-0.284905
H86	H	0.624720	0.000189	-0.018088
Cl87	Cl	0.735823	-0.126025	-0.334977
Cl88	Cl	0.729785	-0.272914	0.182865
Cl89	Cl	0.644341	-0.386389	0.268246
H90	H	0.989567	-0.440039	-0.076769
H91	H	0.462509	0.000275	0.209704
H92	H	0.378468	0.101761	0.024743
Cl93	Cl	0.882432	-0.763858	0.030324
Cl94	Cl	0.733420	-0.126004	-0.498485
H95	H	0.046359	0.000404	-0.026523
Cl96	Cl	0.247611	-0.125927	0.176903
H97	H	0.650752	-0.559391	0.261854
Cl98	Cl	0.967517	0.000306	-0.121390
H99	H	0.707633	0.000244	-0.234355
H100	H	0.889884	0.101784	-0.334286
Cl101	Cl	0.675198	0.000268	-0.530006
H102	H	0.930754	0.000360	-0.711980
