data_functionalizedCrystal
_audit_creation_method	'MofGen! by Chris Wilmer'
_symmetry_space_group_name_H-M	'P1'
_symmetry_Int_Tables_number	1
_symmetry_cell_setting	triclinic
loop_
_symmetry_equiv_pos_as_xyz
  x,y,z
_cell_length_a	11.026607
_cell_length_b	11.026607
_cell_length_c	10.065875
_cell_angle_alpha	100.731764
_cell_angle_beta	79.302338
_cell_angle_gamma	108.586017
loop_
_atom_site_label
_atom_site_type_symbol
_atom_site_fract_x
_atom_site_fract_y
_atom_site_fract_z
O1	O	1.741286	0.518966	-0.113490
O2	O	2.241286	1.018966	0.386510
O3	O	1.374706	0.458202	-0.113493
O4	O	1.874706	0.958202	0.386507
O5	O	1.527614	0.305294	-0.113487
O6	O	2.027614	0.805294	0.386513
O7	O	1.588379	0.671873	-0.113496
O8	O	2.088379	1.171873	0.386504
O9	O	1.498489	0.334601	0.113501
O10	O	1.998489	0.834601	0.613501
O11	O	1.345582	0.487509	0.113495
O12	O	1.845582	0.987509	0.613495
O13	O	1.712161	0.548273	0.113497
O14	O	2.212161	1.048273	0.613497
Zn15	Zn	1.524247	0.522544	0.149535
Zn16	Zn	2.024247	1.022544	0.649535
Zn17	Zn	1.562620	0.483931	-0.149531
Zn18	Zn	2.062620	0.983931	0.350469
O19	O	1.559254	0.701180	0.113491
O20	O	2.059254	1.201180	0.613491
C21	C	1.312485	0.461645	0.000001
C22	C	1.812485	0.961645	0.500001
C23	C	1.170471	0.428228	0.000000
C24	C	1.670471	0.928228	0.500000
C25	C	1.501842	0.272288	0.000005
C26	C	2.001842	0.772288	0.500005
C27	C	1.468426	0.130273	0.000000
C28	C	1.968426	0.630273	0.500000
C29	C	1.116822	0.520498	-0.000003
C30	C	1.616822	1.020498	0.499997
C31	C	0.970043	0.485962	-0.000004
C32	C	1.470043	0.985962	0.499996
C33	C	1.560695	0.076624	-0.000001
C34	C	2.060695	0.576624	0.499999
C35	C	1.526160	-0.070155	-0.000006
C36	C	2.026160	0.429845	0.499994
C37	C	1.774384	0.544829	0.000001
C38	C	2.274384	1.044829	0.500001
C39	C	1.916399	0.578244	-0.000007
C40	C	2.416399	1.078244	0.499993
C41	C	1.585026	0.734186	-0.000004
C42	C	2.085026	1.234186	0.499996
C43	C	1.618444	0.876199	-0.000008
C44	C	2.118444	1.376199	0.499992
N45	N	1.498068	0.548898	0.353640
N46	N	1.998068	1.048898	0.853640
N47	N	1.588808	0.457569	-0.353635
N48	N	2.088808	0.957569	0.146365
C49	C	1.553502	0.493090	0.421421
C50	C	2.053502	0.993090	0.921421
C51	C	1.533366	0.513385	0.578587
C52	C	2.033366	1.013385	1.078587
H53	H	1.179554	0.625061	0.000002
H54	H	1.679554	1.125061	0.500002
H55	H	1.665257	0.139358	0.000008
H56	H	2.165257	0.639358	0.500008
H57	H	1.107742	0.323661	-0.000032
H58	H	1.607742	0.823661	0.499968
Cl59	Cl	1.437061	0.610348	0.668620
Cl60	Cl	1.937061	1.110348	1.168620
H61	H	1.421592	-0.132886	-0.000016
H62	H	1.921592	0.367114	0.499984
H63	H	1.615864	0.430280	0.363099
H64	H	2.115864	0.930280	0.863099
Cl65	Cl	1.779895	-0.026964	-0.000013
Cl66	Cl	2.279895	0.473036	0.499987
H67	H	1.363864	0.067539	-0.000009
H68	H	1.863864	0.567539	0.499991
Cl69	Cl	1.685436	0.360928	0.556336
Cl70	Cl	2.185436	0.860928	1.056336
Cl71	Cl	0.873201	0.324514	0.000010
Cl72	Cl	1.373201	0.824514	0.500010
H73	H	1.435696	0.611696	0.411964
H74	H	1.935696	1.111696	0.911964
H75	H	0.979125	0.682816	-0.000001
H76	H	1.479125	1.182816	0.499999
