data_functionalizedCrystal
_audit_creation_method	'MofGen! by Chris Wilmer'
_symmetry_space_group_name_H-M	'P1'
_symmetry_Int_Tables_number	1
_symmetry_cell_setting	triclinic
loop_
_symmetry_equiv_pos_as_xyz
  x,y,z
_cell_length_a	10.685969
_cell_length_b	10.686496
_cell_length_c	10.686551
_cell_angle_alpha	90.362041
_cell_angle_beta	90.351934
_cell_angle_gamma	80.973096
loop_
_atom_site_label
_atom_site_type_symbol
_atom_site_fract_x
_atom_site_fract_y
_atom_site_fract_z
Zn1	Zn	-2.022274	0.610713	-0.605045
Zn2	Zn	-2.024576	0.836782	-0.411226
Zn3	Zn	-1.796206	0.608332	-0.411240
Zn4	Zn	-1.828367	0.804500	-0.634767
O5	O	-1.917856	0.715082	-0.515569
O6	O	-2.199304	0.655209	-0.566890
O7	O	-1.981786	0.818991	-0.236567
O8	O	-1.811771	0.431940	-0.424516
O9	O	-2.200995	0.821301	-0.424492
O10	O	-1.977862	0.433690	-0.566904
O11	O	-1.814003	0.651150	-0.236577
O12	O	-1.623748	0.619847	-0.453335
O13	O	-1.866586	0.766280	-0.805485
O14	O	-1.647377	0.763971	-0.617559
O15	O	-2.009048	0.623906	-0.783648
O16	O	-2.012972	1.009208	-0.453312
O17	O	-1.868818	0.985490	-0.617546
C18	C	-1.589739	0.688148	-0.538675
C19	C	-1.449375	0.676655	-0.548591
C20	C	-1.944671	1.043168	-0.538678
C21	C	-1.956261	1.183531	-0.548597
C22	C	-1.247251	0.742110	-0.492360
C23	C	-1.387615	0.753599	-0.482430
C24	C	-1.890921	1.385712	-0.492391
C25	C	-1.879312	1.245345	-0.482503
C26	C	-1.941148	0.691758	-0.841120
C27	C	-1.951073	0.681818	-0.979851
C28	C	-1.894720	0.738230	-0.191273
C29	C	-1.885010	0.747834	-0.052501
H30	H	-1.442131	0.828282	-0.418201
H31	H	-2.015237	0.617697	-1.023790
C32	C	-1.778332	1.171781	-0.395812
C33	C	-1.766490	1.026714	-0.385684
C34	C	-1.665508	0.953141	-0.298991
C35	C	-1.576369	1.024634	-0.222426
C36	C	-1.588209	1.169708	-0.232552
C37	C	-1.689190	1.243281	-0.319245
H38	H	-1.832479	0.973784	-0.442363
H39	H	-1.656744	0.845747	-0.291495
H40	H	-1.501616	0.970170	-0.158251
H41	H	-1.522220	1.222638	-0.175873
H42	H	-1.697954	1.350675	-0.326741
C43	C	-1.375747	0.575773	-0.635369
C44	C	-1.296559	0.616290	-0.743471
C45	C	-1.222922	0.515407	-0.830250
C46	C	-1.228473	0.374008	-0.808928
C47	C	-1.307664	0.333485	-0.700822
C48	C	-1.381301	0.434367	-0.614042
H49	H	-1.292447	0.720968	-0.759259
H50	H	-1.164299	0.545406	-0.910278
H51	H	-1.173962	0.299328	-0.873168
H52	H	-1.311776	0.228806	-0.685034
H53	H	-1.439923	0.404369	-0.534015
C54	C	-1.798336	0.834462	-0.993160
C55	C	-1.688381	0.777953	-0.906630
C56	C	-1.601706	0.864583	-0.847280
C57	C	-1.624987	1.007722	-0.874459
C58	C	-1.734948	1.064238	-0.960993
C59	C	-1.821622	0.977608	-1.020343
H60	H	-1.671142	0.671987	-0.886507
H61	H	-1.520306	0.822745	-0.783221
H62	H	-1.560825	1.071850	-0.830524
H63	H	-1.752186	1.170204	-0.981116
H64	H	-1.903023	1.019446	-1.084401
H65	H	-2.031015	1.238000	-0.612765
