data_functionalizedCrystal
_audit_creation_method	'MofGen! by Chris Wilmer'
_symmetry_space_group_name_H-M	'P1'
_symmetry_Int_Tables_number	1
_symmetry_cell_setting	triclinic
loop_
_symmetry_equiv_pos_as_xyz
  x,y,z
_cell_length_a	13.596369
_cell_length_b	10.723024
_cell_length_c	10.723024
_cell_angle_alpha	84.467869
_cell_angle_beta	89.995193
_cell_angle_gamma	89.994992
loop_
_atom_site_label
_atom_site_type_symbol
_atom_site_fract_x
_atom_site_fract_y
_atom_site_fract_z
O1	O	0.081782	-1.657190	-0.175029
O2	O	0.081785	-1.294037	-0.191783
O3	O	0.081780	-1.483990	-0.001830
O4	O	0.081788	-1.467237	-0.364982
O5	O	-0.081803	-1.483971	-0.001820
O6	O	-0.081797	-1.294018	-0.191772
O7	O	-0.081801	-1.657171	-0.175019
Zn8	Zn	-0.107771	-1.475591	-0.183394
Zn9	Zn	0.107756	-1.475617	-0.183408
O10	O	-0.081795	-1.467218	-0.364972
C11	C	-0.000006	-1.247528	-0.190558
C12	C	-0.000004	-1.108974	-0.186911
N13	N	-0.254863	-1.475583	-0.183384
C14	C	-0.000010	-1.482762	0.044675
C15	C	-0.000007	-1.479114	0.183229
C16	C	-0.656154	-1.475615	-0.183409
C17	C	-0.544503	-1.475602	-0.183406
C18	C	-0.455512	-1.475600	-0.183398
C19	C	-0.343854	-1.475586	-0.183393
N20	N	0.254848	-1.475635	-0.183408
C21	C	-0.000007	-1.703680	-0.176243
C22	C	-0.000002	-1.842234	-0.179891
C23	C	-0.000002	-1.033991	-0.293198
C24	C	-0.000000	-0.890788	-0.289431
C25	C	-0.000003	-1.468447	-0.411477
C26	C	0.000000	-1.472094	-0.550031
C27	C	-0.000006	-1.585401	0.258212
C28	C	-0.000003	-1.581634	0.401415
H29	H	-0.000005	-1.075814	-0.386984
O30	O	-0.000004	-1.702167	0.486758
H31	H	-0.066684	-1.757291	0.468522
O32	O	-0.000004	-0.927564	-0.059350
H33	H	-0.066677	-0.909299	-0.004205
O34	O	-0.000009	-1.053584	-0.062676
H35	H	-0.066689	-1.085156	-0.008850
H36	H	-0.000013	-1.679187	0.216390
O37	O	-0.000007	-1.351549	0.364645
H38	H	0.066668	-1.347751	0.304665
O39	O	-0.000006	-0.805455	-0.409970
H40	H	-0.000015	-0.706369	-0.388095
O41	O	-0.000010	-1.354879	0.238620
H42	H	0.066666	-1.301057	0.207035
