data_functionalizedCrystal
_audit_creation_method	'MofGen! by Chris Wilmer'
_symmetry_space_group_name_H-M	'P1'
_symmetry_Int_Tables_number	1
_symmetry_cell_setting	triclinic
loop_
_symmetry_equiv_pos_as_xyz
  x,y,z
_cell_length_a	14.971491
_cell_length_b	10.654550
_cell_length_c	13.448316
_cell_angle_alpha	89.994587
_cell_angle_beta	89.991393
_cell_angle_gamma	84.050569
loop_
_atom_site_label
_atom_site_type_symbol
_atom_site_fract_x
_atom_site_fract_y
_atom_site_fract_z
O1	O	1.187835	0.163690	-0.082732
O2	O	0.927542	0.183282	-0.082724
O3	O	1.063673	-0.009317	-0.082725
O4	O	1.051704	0.356289	-0.082732
O5	O	1.063656	-0.009329	0.082659
O6	O	0.927525	0.183270	0.082660
O7	O	1.187818	0.163678	0.082652
Cu8	Cu	1.057670	0.173473	0.097757
Cu9	Cu	1.057690	0.173487	-0.097829
O10	O	1.051687	0.356277	0.082652
C11	C	0.894204	0.182399	-0.000031
C12	C	0.794893	0.179769	-0.000028
C13	C	0.367135	0.168431	-0.090202
C14	C	0.460449	0.170898	-0.090198
C15	C	0.507092	0.172133	-0.000044
C16	C	0.460418	0.170888	0.090112
C17	C	0.367107	0.168413	0.090107
C18	C	0.654908	0.176051	0.090116
C19	C	0.748225	0.178529	0.090121
C20	C	0.748250	0.178536	-0.090190
C21	C	0.654939	0.176060	-0.090195
C22	C	0.608271	0.174818	-0.000038
C23	C	1.062786	-0.056112	-0.000034
C24	C	1.060157	-0.195527	-0.000037
C25	C	1.140308	-0.275870	-0.000037
C26	C	1.137832	-0.406865	-0.000043
C27	C	0.975046	-0.377159	-0.000047
C28	C	0.977523	-0.246168	-0.000048
C29	C	1.222942	-0.225230	-0.000026
C30	C	1.303101	-0.305575	-0.000024
C31	C	1.300625	-0.436569	-0.000031
C32	C	1.217990	-0.487219	-0.000040
C33	C	1.221156	0.164561	-0.000043
C34	C	1.320467	0.167191	-0.000053
C35	C	1.052574	0.403072	-0.000041
C36	C	1.055204	0.542487	-0.000044
N37	N	1.057662	0.173462	0.235321
N38	N	1.057705	0.173488	-0.235393
C39	C	1.117960	0.088215	0.287361
C40	C	1.117966	0.088213	0.391464
C41	C	1.057677	0.173467	0.443525
C42	C	0.997372	0.258719	0.391478
C43	C	0.997363	0.258713	0.287377
C44	C	0.997397	0.258728	0.608458
C45	C	0.997407	0.258736	0.712567
C46	C	1.118000	0.088228	0.712546
C47	C	1.117990	0.088222	0.608444
C48	C	1.057687	0.173476	0.556404
H49	H	0.498443	0.171900	-0.163607
Br50	Br	0.811582	0.180243	-0.212546
H51	H	0.616912	0.175055	0.163531
Br52	Br	1.199818	-0.027468	0.537786
H53	H	0.912256	-0.180749	-0.000047
H54	H	0.948261	0.328129	0.245006
H55	H	1.215981	-0.593884	-0.000056
H56	H	1.224968	-0.118570	-0.000017
H57	H	0.498403	0.171886	0.163517
H58	H	1.167064	0.018798	0.433835
Br59	Br	1.415241	-0.236840	-0.000031
H60	H	0.329109	0.167416	0.163516
H61	H	1.167100	0.018812	0.754923
H62	H	0.907769	-0.418409	-0.000053
H63	H	0.616964	0.175063	-0.163606
Br64	Br	1.199792	-0.027485	0.216718
Br65	Br	1.409408	-0.545606	-0.000043
Br66	Br	0.915583	0.374442	0.783214
Br67	Br	0.915551	0.374426	0.537835
Br68	Br	0.915543	0.374415	0.462128
H69	H	0.329164	0.167434	-0.163616
H70	H	0.786199	0.179541	0.163532
