data_functionalizedCrystal
_audit_creation_method	'MofGen! by Chris Wilmer'
_symmetry_space_group_name_H-M	'P1'
_symmetry_Int_Tables_number	1
_symmetry_cell_setting	triclinic
loop_
_symmetry_equiv_pos_as_xyz
  x,y,z
_cell_length_a	16.974885
_cell_length_b	22.610064
_cell_length_c	16.992695
_cell_angle_alpha	90.004006
_cell_angle_beta	87.023153
_cell_angle_gamma	86.363258
loop_
_atom_site_label
_atom_site_type_symbol
_atom_site_fract_x
_atom_site_fract_y
_atom_site_fract_z
O1	O	1.055447	-0.001288	0.099901
O2	O	0.826050	0.009684	0.112635
O3	O	0.939829	0.004237	-0.007874
O4	O	0.941668	0.004159	0.220410
O5	O	0.939793	-0.094130	-0.007874
O6	O	0.826015	-0.088684	0.112635
O7	O	1.055411	-0.099655	0.099901
Zn8	Zn	0.940707	-0.109788	0.106268
Zn9	Zn	0.940754	0.019816	0.106268
O10	O	0.941633	-0.094209	0.220409
C11	C	0.796544	-0.038090	0.112152
C12	C	0.708678	-0.033888	0.110702
C13	C	0.214089	-0.004437	0.102515
C14	C	0.296649	-0.008393	0.103877
C15	C	0.337901	-0.063992	0.104564
C16	C	0.296589	-0.115638	0.103881
C17	C	0.214032	-0.111681	0.102513
C18	C	0.584809	-0.081576	0.108650
C19	C	0.667372	-0.085530	0.110021
C20	C	0.667426	0.021716	0.110016
C21	C	0.584867	0.025668	0.108653
C22	C	0.543563	-0.025978	0.107965
N23	N	0.422290	-0.068038	0.105959
N24	N	0.459176	-0.021932	0.106564
N25	N	0.940681	-0.198239	0.106267
C26	C	0.991710	-0.609319	0.153787
C27	C	0.991720	-0.671239	0.153785
O28	O	1.035074	-0.705330	0.194183
N29	N	0.940769	-0.699780	0.106259
C30	C	0.889811	-0.666398	0.058726
O31	O	0.846474	-0.696360	0.018300
C32	C	0.889805	-0.604479	0.058724
C33	C	0.940754	-0.575941	0.106259
C34	C	1.042655	-0.580781	0.201318
C35	C	1.042644	-0.518864	0.201321
C36	C	0.991688	-0.485486	0.153793
C37	C	0.940743	-0.514025	0.106262
C38	C	0.838852	-0.571097	0.011187
C39	C	0.838851	-0.509174	0.011189
C40	C	0.889800	-0.480637	0.058724
C41	C	0.889776	-0.418730	0.058737
N42	N	0.940726	-0.390189	0.106263
C43	C	0.991682	-0.423567	0.153791
C44	C	0.889826	-0.796432	0.058732
C45	C	0.889827	-0.858350	0.058737
C46	C	0.991737	-0.863187	0.153796
C47	C	0.991732	-0.801268	0.153794
C48	C	0.940777	-0.767891	0.106258
C49	C	0.991655	-0.293539	0.153794
C50	C	0.991637	-0.231617	0.153795
C51	C	0.889730	-0.226785	0.058734
C52	C	0.889745	-0.288701	0.058735
C53	C	0.940713	-0.322077	0.106268
O54	O	0.846445	-0.384602	0.018357
O55	O	1.035019	-0.393598	0.194202
C56	C	1.084917	-0.051881	0.100384
C57	C	1.172783	-0.056079	0.101834
C58	C	0.937445	-0.044833	-0.037084
C59	C	0.930386	-0.044496	-0.124120
N60	N	0.940786	0.108267	0.106262
C61	C	0.998499	-0.047754	-0.174436
C62	C	0.991862	-0.047431	-0.256215
C63	C	0.917109	-0.043854	-0.287677
C64	C	0.848991	-0.040593	-0.237355
C65	C	0.855629	-0.040912	-0.155577
C66	C	0.889595	-0.042530	-0.531244
C67	C	0.882962	-0.042213	-0.613029
C68	C	1.025834	-0.049049	-0.631883
C69	C	1.032466	-0.049371	-0.550103
C70	C	0.964347	-0.046108	-0.499788
N71	N	0.910323	-0.043525	-0.371268
N72	N	0.971134	-0.046432	-0.416198
C73	C	0.944016	-0.045137	0.249619
C74	C	0.951076	-0.045471	0.336656
H75	H	1.033159	-0.320706	0.192499
H76	H	1.059371	-0.050670	-0.148826
H77	H	0.800163	-0.038259	-0.114610
N78	N	0.341207	0.047302	0.104621
H79	H	0.378803	0.047889	0.056608
H80	H	0.302500	0.083096	0.104014
N81	N	0.169594	0.055529	0.101774
H82	H	0.180632	0.078449	0.150588
H83	H	0.187336	0.078070	0.053398
N84	N	0.834855	-0.760432	0.007469
H85	H	0.866846	-0.736267	-0.030930
H86	H	0.802592	-0.787950	-0.022582
H87	H	0.797365	-0.594322	-0.027523
N88	N	0.540376	0.085635	0.107902
H89	H	0.551413	0.108556	0.156715
H90	H	0.558122	0.108173	0.059524
H91	H	0.701065	0.063763	0.110575
H92	H	0.788125	-0.037677	-0.262978
H93	H	1.081292	-0.051705	-0.672858
N94	N	0.169479	-0.167381	0.101773
H95	H	0.208176	-0.203203	0.101859
H96	H	0.132280	-0.168115	0.150069
N97	N	1.113087	-0.053214	-0.516160
H98	H	1.119015	-0.089961	-0.482650
H99	H	1.155189	-0.055201	-0.560481
H100	H	0.797357	-0.482002	-0.027522
H101	H	0.551190	-0.123630	0.108079
N102	N	0.711866	-0.145501	0.110758
H103	H	0.770433	-0.140168	0.111735
H104	H	0.694077	-0.168061	0.159100
N105	N	0.341078	-0.175607	0.104619
H106	H	0.399646	-0.170278	0.105593
H107	H	0.323288	-0.198165	0.152963
H108	H	0.834128	-0.039872	-0.490287
H109	H	1.033125	-0.208384	0.192508
N110	N	0.802333	-0.038353	-0.646965
H111	H	0.760186	-0.036333	-0.602682
H112	H	0.796488	-0.001607	-0.680484
N113	N	1.097604	-0.488089	0.252582
H114	H	1.129886	-0.518637	0.282682
H115	H	1.134093	-0.464140	0.218370
H116	H	1.084153	-0.607951	0.240021
H117	H	1.033218	-0.778037	0.192502
N118	N	1.046699	-0.899194	0.205060
H119	H	1.038970	-0.942748	0.197842
H120	H	1.103221	-0.891062	0.189538
H121	H	0.848331	-0.881579	0.020038
N122	N	0.834780	-0.319486	0.007483
H123	H	0.802494	-0.288942	-0.022620
H124	H	0.866831	-0.346700	-0.030870
H125	H	0.848241	-0.199597	0.020040
N126	N	1.065327	-0.050949	-0.310485
H127	H	1.113689	-0.053268	-0.278145
H128	H	1.065664	-0.087431	-0.344828
