data_functionalizedCrystal
_audit_creation_method	'MofGen! by Chris Wilmer'
_symmetry_space_group_name_H-M	'P1'
_symmetry_Int_Tables_number	1
_symmetry_cell_setting	triclinic
loop_
_symmetry_equiv_pos_as_xyz
  x,y,z
_cell_length_a	18.215407
_cell_length_b	25.639240
_cell_length_c	18.215399
_cell_angle_alpha	90.032103
_cell_angle_beta	89.982632
_cell_angle_gamma	89.959394
loop_
_atom_site_label
_atom_site_type_symbol
_atom_site_fract_x
_atom_site_fract_y
_atom_site_fract_z
Zn1	Zn	1.124978	0.208192	-0.416046
Zn2	Zn	1.124848	0.295628	-0.292971
Zn3	Zn	1.001911	0.208204	-0.292999
Zn4	Zn	1.001838	0.295594	-0.416001
O5	O	1.063394	0.251905	-0.354504
O6	O	1.227945	0.219799	-0.399727
O7	O	1.108516	0.284050	-0.189990
O8	O	1.018322	0.135037	-0.309352
O9	O	1.227849	0.284038	-0.309304
O10	O	1.108739	0.135028	-0.399754
O11	O	1.018195	0.219821	-0.190011
O12	O	0.898917	0.219788	-0.309308
O13	O	1.018197	0.283981	-0.518991
O14	O	0.898863	0.283993	-0.399677
O15	O	1.108668	0.219767	-0.519025
O16	O	1.108445	0.368789	-0.309261
O17	O	1.018070	0.368764	-0.399650
C18	C	0.872187	0.251888	-0.354491
C19	C	0.790389	0.251894	-0.354503
C20	C	0.602244	0.218514	-0.401661
C21	C	0.525385	0.218518	-0.401663
C22	C	0.525296	0.285310	-0.307361
C23	C	0.602153	0.285302	-0.307355
C24	C	0.640625	0.251905	-0.354509
C25	C	0.486909	0.251917	-0.354517
C26	C	0.403575	0.251922	-0.354520
C27	C	0.723964	0.251899	-0.354506
C28	C	1.063255	0.387747	-0.354464
C29	C	1.063263	0.445861	-0.354471
C30	C	1.110514	0.806225	-0.307490
C31	C	1.110536	0.860829	-0.307497
O32	O	1.150613	0.889066	-0.267530
N33	N	1.063453	0.888144	-0.354521
C34	C	1.016350	0.860851	-0.401545
O35	O	0.976304	0.889099	-0.441543
C36	C	1.016331	0.806248	-0.401541
C37	C	1.063412	0.778936	-0.354510
C38	C	1.157591	0.778913	-0.260463
C39	C	1.157568	0.724312	-0.260455
C40	C	1.110466	0.697023	-0.307475
C41	C	1.063389	0.724335	-0.354502
C42	C	0.969232	0.778957	-0.448569
C43	C	0.969218	0.724350	-0.448562
C44	C	1.016299	0.697038	-0.401530
C45	C	1.016264	0.642446	-0.401513
N46	N	1.063347	0.615132	-0.354490
C47	C	1.110448	0.642420	-0.307471
C48	C	1.016392	0.975522	-0.401551
C49	C	1.016406	1.030124	-0.401552
C50	C	1.110594	1.030098	-0.307504
C51	C	1.110576	0.975495	-0.307501
C52	C	1.063476	0.948207	-0.354527
C53	C	1.110394	0.527755	-0.307457
C54	C	1.110364	0.473150	-0.307452
C55	C	1.016180	0.473181	-0.401501
C56	C	1.016207	0.527781	-0.401504
C57	C	1.063320	0.555067	-0.354480
O58	O	0.976210	0.614175	-0.441463
O59	O	1.150494	0.614166	-0.267486
C60	C	1.255347	0.251921	-0.354518
C61	C	1.337145	0.251928	-0.354523
C62	C	1.063525	1.115532	-0.354548
C63	C	1.063511	1.057417	-0.354535
C64	C	1.063439	0.251869	-0.546457
C65	C	1.063458	0.251853	-0.628256
C66	C	1.110583	0.218386	-0.816469
C67	C	1.110592	0.218370	-0.893327
C68	C	1.016385	0.285240	-0.893282
C69	C	1.016373	0.285252	-0.816424
C70	C	1.063476	0.251826	-0.778020
C71	C	1.063497	0.251798	-0.931736
C72	C	1.063506	0.251782	-1.015070
C73	C	1.063466	0.251841	-0.694681
C74	C	1.063391	0.251903	-0.163298
C75	C	1.063515	0.251771	-0.081500
H76	H	1.148703	0.450914	-0.269150
H77	H	0.493962	0.312501	-0.268970
N78	N	0.643557	0.321315	-0.256491
H79	H	0.607524	0.342475	-0.226623
H80	H	0.675440	0.345534	-0.286381
N81	N	1.161208	0.557180	-0.256740
H82	H	1.191024	0.531586	-0.226951
H83	H	1.131282	0.579872	-0.222657
N84	N	0.965624	1.059577	-0.452277
H85	H	0.972780	1.098310	-0.445153
H86	H	0.913068	1.050073	-0.440775
H87	H	1.195907	0.702078	-0.222160
N88	N	1.161398	0.182296	-0.934789
H89	H	1.213969	0.190421	-0.921420
H90	H	1.154198	0.187370	-0.989294
H91	H	0.978036	0.312456	-0.924560
N92	N	1.208399	0.808340	-0.209746
H93	H	1.238215	0.782745	-0.179959
H94	H	1.178470	0.831028	-0.175661
H95	H	1.148914	0.953260	-0.269204
H96	H	0.930890	0.801185	-0.486864
H97	H	0.978007	0.312483	-0.785118
H98	H	1.148949	1.052326	-0.269221
H99	H	0.978031	0.953307	-0.439844
N100	N	0.918416	0.694915	-0.499281
H101	H	0.929821	0.704386	-0.551874
H102	H	0.865865	0.704472	-0.487745
N103	N	0.643740	0.182494	-0.452516
H104	H	0.607760	0.161341	-0.482386
H105	H	0.675638	0.158269	-0.422620
H106	H	0.494138	0.191327	-0.440058
N107	N	0.965420	0.557243	-0.452221
H108	H	0.935577	0.531668	-0.482004
H109	H	0.995368	0.579858	-0.486311
H110	H	1.148935	0.191166	-0.785202
N111	N	0.965374	0.443743	-0.452208
H112	H	0.972509	0.405008	-0.445064
H113	H	0.976803	0.453252	-0.504780
