data_functionalizedCrystal
_audit_creation_method	'MofGen! by Chris Wilmer'
_symmetry_space_group_name_H-M	'P1'
_symmetry_Int_Tables_number	1
_symmetry_cell_setting	triclinic
loop_
_symmetry_equiv_pos_as_xyz
  x,y,z
_cell_length_a	13.339070
_cell_length_b	10.654550
_cell_length_c	9.130313
_cell_angle_alpha	90.004369
_cell_angle_beta	90.003801
_cell_angle_gamma	100.057112
loop_
_atom_site_label
_atom_site_type_symbol
_atom_site_fract_x
_atom_site_fract_y
_atom_site_fract_z
O1	O	-1.346709	-0.631121	-0.121851
O2	O	-1.051601	-0.548283	-0.121843
O3	O	-1.205940	-0.409254	-0.121838
O4	O	-1.192370	-0.770150	-0.121856
O5	O	-1.205930	-0.409244	0.121761
O6	O	-1.051590	-0.548273	0.121756
O7	O	-1.346699	-0.631112	0.121748
Cu8	Cu	-1.199143	-0.589692	0.143994
Cu9	Cu	-1.199156	-0.589703	-0.144089
O10	O	-1.192359	-0.770141	0.121743
C11	C	-1.013808	-0.534285	-0.000042
C12	C	-0.901214	-0.492575	-0.000039
C13	C	-1.204938	-0.362115	-0.000039
C14	C	-1.201957	-0.221665	-0.000041
C15	C	-1.384491	-0.645110	-0.000056
C16	C	-1.497086	-0.686819	-0.000069
C17	C	-0.538696	-0.816889	-0.000078
C18	C	-0.644484	-0.856082	-0.000086
C19	C	-0.708672	-0.765208	-0.000074
C20	C	-0.667061	-0.635136	-0.000054
C21	C	-0.561263	-0.595939	-0.000058
C22	C	-0.731238	-0.544259	-0.000054
C23	C	-0.689628	-0.414186	-0.000034
C24	C	-0.583840	-0.374996	-0.000037
C25	C	-0.519653	-0.465870	-0.000049
C26	C	-0.837036	-0.583455	-0.000050
C27	C	-0.859603	-0.362505	-0.000030
C28	C	-0.753816	-0.323313	-0.000022
C29	C	-1.193361	-0.817280	-0.000059
C30	C	-1.196342	-0.957730	-0.000066
N31	N	-1.199142	-0.589686	0.346617
C32	C	-1.292830	-0.172863	-0.000045
C33	C	-1.290023	-0.040894	-0.000062
C34	C	-1.105463	-0.006540	-0.000068
C35	C	-1.108271	-0.138506	-0.000060
N36	N	-1.199166	-0.589701	-0.346712
C37	C	-1.267507	-0.528168	0.423271
C38	C	-1.267516	-0.528171	0.576608
C39	C	-1.130793	-0.651221	0.576623
C40	C	-1.130780	-0.651209	0.423289
H41	H	-0.870905	-0.689361	-0.000060
H42	H	-0.719921	-0.217405	-0.000019
Br43	Br	-0.946706	-0.239168	-0.000032
Br44	Br	-1.037985	-0.734691	0.319247
Br45	Br	-1.360296	-0.444671	0.680636
Br46	Br	-1.360282	-0.444669	0.319221
H47	H	-1.034267	-0.178239	-0.000062
H48	H	-0.486426	-0.890864	-0.000101
Br49	Br	-1.038021	-0.734717	0.680683
H50	H	-0.549965	-0.269083	-0.000038
Br51	Br	-0.852243	-0.818400	-0.000082
H52	H	-0.678355	-0.961987	-0.000113
H53	H	-1.369115	-0.240568	-0.000032
Br54	Br	-0.376077	-0.412683	-0.000030
Br55	Br	-1.413355	0.025332	-0.000075
H56	H	-1.029186	0.061184	-0.000080
