data_functionalizedCrystal
_audit_creation_method	'MofGen! by Chris Wilmer'
_symmetry_space_group_name_H-M	'P1'
_symmetry_Int_Tables_number	1
_symmetry_cell_setting	triclinic
loop_
_symmetry_equiv_pos_as_xyz
  x,y,z
_cell_length_a	14.519709
_cell_length_b	8.559649
_cell_length_c	7.088929
_cell_angle_alpha	95.325015
_cell_angle_beta	96.243584
_cell_angle_gamma	103.270595
loop_
_atom_site_label
_atom_site_type_symbol
_atom_site_fract_x
_atom_site_fract_y
_atom_site_fract_z
O1	O	0.020642	2.103670	-0.158950
O2	O	-0.026977	1.638600	-0.158976
O3	O	0.131960	1.883471	-0.158909
O4	O	-0.138295	1.858799	-0.159017
O5	O	0.153243	1.916196	0.159075
O6	O	-0.005694	1.671324	0.159009
O7	O	0.041926	2.136395	0.159034
Cu8	Cu	0.020059	1.906847	0.188056
Cu9	Cu	-0.005111	1.868147	-0.187997
O10	O	-0.117011	1.891523	0.158967
C11	C	0.176879	1.898685	0.000093
C12	C	0.279015	1.895244	0.000122
C13	C	-0.019944	1.595442	0.000014
C14	C	-0.030686	1.418092	0.000007
C15	C	0.653004	1.882570	0.000173
C16	C	0.548948	1.886090	0.000159
C17	C	0.466013	1.888907	0.000149
C18	C	0.361950	1.892427	0.000132
C19	C	0.838073	1.876316	0.000029
C20	C	0.735950	1.879777	0.000191
C21	C	0.034893	2.179552	0.000040
C22	C	0.045634	2.356901	0.000035
N23	N	0.037764	1.934079	0.452551
N24	N	-0.022807	1.840928	-0.452493
H25	H	0.119192	1.440189	0.000055
H26	H	-0.104251	1.334792	-0.000033
N27	N	0.120907	2.061982	0.560735
H28	H	0.159298	2.121027	0.467106
H29	H	0.096160	2.141283	0.643750
N30	N	-0.105955	1.713045	0.439339
H31	H	-0.104699	1.714963	0.297390
H32	H	-0.101068	1.603218	0.474250
