data_functionalizedCrystal
_audit_creation_method	'MofGen! by Chris Wilmer'
_symmetry_space_group_name_H-M	'P1'
_symmetry_Int_Tables_number	1
_symmetry_cell_setting	triclinic
loop_
_symmetry_equiv_pos_as_xyz
  x,y,z
_cell_length_a	25.639243
_cell_length_b	29.839132
_cell_length_c	25.639234
_cell_angle_alpha	90.027958
_cell_angle_beta	89.976852
_cell_angle_gamma	89.952013
loop_
_atom_site_label
_atom_site_type_symbol
_atom_site_fract_x
_atom_site_fract_y
_atom_site_fract_z
Zn1	Zn	0.799238	0.178848	-0.295645
Zn2	Zn	1.049238	0.428848	-0.045645
Zn3	Zn	1.299238	0.678848	0.204355
Zn4	Zn	1.549238	0.928848	0.454355
Zn5	Zn	0.799141	0.253971	-0.208204
Zn6	Zn	1.049141	0.503971	0.041796
Zn7	Zn	1.299141	0.753971	0.291796
Zn8	Zn	1.549141	1.003971	0.541796
Zn9	Zn	0.711804	0.178859	-0.208218
Zn10	Zn	0.961804	0.428859	0.041782
Zn11	Zn	1.211804	0.678859	0.291782
Zn12	Zn	1.461804	0.928859	0.541782
Zn13	Zn	0.711750	0.253955	-0.295604
Zn14	Zn	0.961750	0.503955	-0.045604
Zn15	Zn	1.211750	0.753955	0.204396
Zn16	Zn	1.461750	1.003955	0.454396
O17	O	0.755483	0.216408	-0.251918
O18	O	1.005483	0.466408	-0.001918
O19	O	1.255483	0.716408	0.248082
O20	O	1.505483	0.966408	0.498082
O21	O	0.872391	0.188815	-0.284057
O22	O	1.122391	0.438815	-0.034057
O23	O	1.372391	0.688815	0.215943
O24	O	1.622391	0.938815	0.465943
O25	O	0.787537	0.244018	-0.135041
O26	O	1.037537	0.494018	0.114959
O27	O	1.287537	0.744018	0.364959
O28	O	1.537537	0.994018	0.614959
O29	O	0.723465	0.115990	-0.219838
O30	O	0.973465	0.365990	0.030162
O31	O	1.223465	0.615990	0.280162
O32	O	1.473465	0.865990	0.530162
O33	O	0.872319	0.244007	-0.219815
O34	O	1.122319	0.494007	0.030185
O35	O	1.372319	0.744007	0.280185
O36	O	1.622319	0.994007	0.530185
O37	O	0.787703	0.115982	-0.284070
O38	O	1.037703	0.365982	-0.034070
O39	O	1.287703	0.615982	0.215930
O40	O	1.537703	0.865982	0.465930
O41	O	0.723371	0.188834	-0.135051
O42	O	0.973371	0.438834	0.114949
O43	O	1.223371	0.688834	0.364949
O44	O	1.473371	0.938834	0.614949
O45	O	0.638631	0.188819	-0.219799
O46	O	0.888631	0.438819	0.030201
O47	O	1.138631	0.688819	0.280201
O48	O	1.388631	0.938819	0.530201
O49	O	0.723373	0.243981	-0.368774
O50	O	0.973373	0.493981	-0.118774
O51	O	1.223373	0.743981	0.131226
O52	O	1.473373	0.993981	0.381226
O53	O	0.638592	0.243992	-0.284000
O54	O	0.888592	0.493992	-0.034000
O55	O	1.138592	0.743992	0.216000
O56	O	1.388592	0.993992	0.466000
O57	O	0.787651	0.188800	-0.368804
O58	O	1.037651	0.438800	-0.118804
O59	O	1.287651	0.688800	0.131196
O60	O	1.537651	0.938800	0.381196
O61	O	0.787485	0.316836	-0.219775
O62	O	1.037485	0.566836	0.030225
O63	O	1.287485	0.816836	0.280225
O64	O	1.537485	1.066836	0.530225
O65	O	0.723279	0.316824	-0.283987
O66	O	0.973279	0.566824	-0.033987
O67	O	1.223279	0.816824	0.216013
O68	O	1.473279	1.066824	0.466013
C69	C	0.619641	0.216405	-0.251897
C70	C	0.869641	0.466405	-0.001897
C71	C	1.119641	0.716405	0.248103
C72	C	1.369641	0.966405	0.498103
C73	C	0.561526	0.216415	-0.251900
C74	C	0.811526	0.466415	-0.001900
C75	C	1.061526	0.716415	0.248100
C76	C	1.311526	0.966415	0.498100
C77	C	0.201195	0.187715	-0.285424
C78	C	0.451195	0.437715	-0.035424
C79	C	0.701195	0.687715	0.214576
C80	C	0.951195	0.937715	0.464576
C81	C	0.146591	0.187714	-0.285428
C82	C	0.396591	0.437714	-0.035428
C83	C	0.646591	0.687714	0.214572
C84	C	0.896591	0.937714	0.464572
O85	O	0.118381	0.163304	-0.313905
O86	O	0.368381	0.413304	-0.063905
O87	O	0.618381	0.663304	0.186095
O88	O	0.868381	0.913304	0.436095
N89	N	0.119244	0.216407	-0.251932
N90	N	0.369244	0.466407	-0.001932
N91	N	0.619244	0.716407	0.248068
N92	N	0.869244	0.966407	0.498068
C93	C	0.146504	0.245098	-0.218427
C94	C	0.396504	0.495098	0.031573
C95	C	0.646504	0.745098	0.281573
C96	C	0.896504	0.995098	0.531573
O97	O	0.118230	0.269503	-0.189937
O98	O	0.368230	0.519503	0.060063
O99	O	0.618230	0.769503	0.310063
O100	O	0.868230	1.019503	0.560063
C101	C	0.201108	0.245096	-0.218422
C102	C	0.451108	0.495096	0.031578
C103	C	0.701108	0.745096	0.281578
C104	C	0.951108	0.995096	0.531578
C105	C	0.228452	0.216405	-0.251923
C106	C	0.478452	0.466405	-0.001923
C107	C	0.728452	0.716405	0.248077
C108	C	0.978452	0.966405	0.498077
C109	C	0.228539	0.159026	-0.318923
C110	C	0.478539	0.409026	-0.068923
C111	C	0.728539	0.659026	0.181077
C112	C	0.978539	0.909026	0.431077
C113	C	0.283140	0.159027	-0.318920
C114	C	0.533140	0.409027	-0.068920
C115	C	0.783140	0.659027	0.181080
C116	C	1.033140	0.909027	0.431080
C117	C	0.310396	0.187717	-0.285419
C118	C	0.560396	0.437717	-0.035419
C119	C	0.810396	0.687717	0.214581
C120	C	1.060396	0.937717	0.464581
C121	C	0.283052	0.216406	-0.251921
C122	C	0.533052	0.466406	-0.001921
C123	C	0.783052	0.716406	0.248079
C124	C	1.033052	0.966406	0.498079
C125	C	0.228367	0.273785	-0.184915
C126	C	0.478367	0.523785	0.065085
C127	C	0.728367	0.773785	0.315085
C128	C	0.978367	1.023785	0.565085
C129	C	0.282974	0.273780	-0.184912
C130	C	0.532974	0.523780	0.065088
C131	C	0.782974	0.773780	0.315088
C132	C	1.032974	1.023780	0.565088
C133	C	0.310318	0.245089	-0.218414
C134	C	0.560318	0.495089	0.031586
C135	C	0.810318	0.745089	0.281586
C136	C	1.060318	0.995089	0.531586
C137	C	0.364909	0.245098	-0.218417
C138	C	0.614909	0.495098	0.031583
C139	C	0.864909	0.745098	0.281583
C140	C	1.114909	0.995098	0.531583
N141	N	0.392256	0.216405	-0.251912
N142	N	0.642256	0.466405	-0.001912
N143	N	0.892256	0.716405	0.248088
N144	N	1.142256	0.966405	0.498088
C145	C	0.365000	0.187715	-0.285413
C146	C	0.615000	0.437715	-0.035413
C147	C	0.865000	0.687715	0.214587
C148	C	1.115000	0.937715	0.464587
C149	C	0.031834	0.245100	-0.218441
C150	C	0.281834	0.495100	0.031559
C151	C	0.531834	0.745100	0.281559
C152	C	0.781834	0.995100	0.531559
C153	C	-0.022769	0.245105	-0.218449
C154	C	0.227231	0.495105	0.031551
C155	C	0.477231	0.745105	0.281551
C156	C	0.727231	0.995105	0.531551
C157	C	-0.022678	0.187720	-0.285448
C158	C	0.227322	0.437720	-0.035448
C159	C	0.477322	0.687720	0.214552
C160	C	0.727322	0.937720	0.464552
C161	C	0.031925	0.187718	-0.285443
C162	C	0.281925	0.437718	-0.035443
C163	C	0.531925	0.687718	0.214557
C164	C	0.781925	0.937718	0.464557
C165	C	0.059181	0.216408	-0.251936
C166	C	0.309181	0.466408	-0.001936
C167	C	0.559181	0.716408	0.248064
C168	C	0.809181	0.966408	0.498064
C169	C	0.479665	0.187719	-0.285406
C170	C	0.729665	0.437719	-0.035406
C171	C	0.979665	0.687719	0.214594
C172	C	1.229665	0.937719	0.464594
C173	C	0.534270	0.187724	-0.285401
C174	C	0.784270	0.437724	-0.035401
C175	C	1.034270	0.687724	0.214599
C176	C	1.284270	0.937724	0.464599
C177	C	0.534175	0.245107	-0.218400
C178	C	0.784175	0.495107	0.031600
C179	C	1.034175	0.745107	0.281600
C180	C	1.284175	0.995107	0.531600
C181	C	0.479574	0.245104	-0.218406
C182	C	0.729574	0.495104	0.031594
C183	C	0.979574	0.745104	0.281594
C184	C	1.229574	0.995104	0.531594
C185	C	0.452321	0.216407	-0.251910
C186	C	0.702321	0.466407	-0.001910
C187	C	0.952321	0.716407	0.248090
C188	C	1.202321	0.966407	0.498090
O189	O	0.393154	0.269494	-0.189953
O190	O	0.643154	0.519494	0.060047
O191	O	0.893154	0.769494	0.310047
O192	O	1.143154	1.019494	0.560047
O193	O	0.393281	0.163310	-0.313894
O194	O	0.643281	0.413310	-0.063894
O195	O	0.893281	0.663310	0.186106
O196	O	1.143281	0.913310	0.436106
C197	C	0.755380	0.333131	-0.251887
C198	C	1.005380	0.583131	-0.001887
C199	C	1.255380	0.833131	0.248113
C200	C	1.505380	1.083131	0.498113
C201	C	0.755383	0.383065	-0.251891
C202	C	1.005383	0.633065	-0.001891
C203	C	1.255383	0.883065	0.248109
C204	C	1.505383	1.133065	0.498109
C205	C	0.788939	0.692702	-0.218510
C206	C	1.038939	0.942702	0.031490
C207	C	1.288939	1.192702	0.281490
C208	C	1.538939	1.442702	0.531490
C209	C	0.788989	0.880375	-0.218522
C210	C	1.038989	1.130375	0.031478
C211	C	1.288989	1.380375	0.281478
C212	C	1.538989	1.630375	0.531478
O213	O	0.817462	0.904634	-0.190131
O214	O	1.067462	1.154634	0.059869
O215	O	1.317462	1.404634	0.309869
O216	O	1.567462	1.654634	0.559869
N217	N	0.755538	0.903850	-0.251926
N218	N	1.005538	1.153850	-0.001926
N219	N	1.255538	1.403850	0.248074
N220	N	1.505538	1.653850	0.498074
C221	C	0.722075	0.880405	-0.285332
C222	C	0.972075	1.130405	-0.035332
C223	C	1.222075	1.380405	0.214668
C224	C	1.472075	1.630405	0.464668
O225	O	0.693628	0.904678	-0.313749
O226	O	0.943628	1.154678	-0.063749
O227	O	1.193628	1.404678	0.186251
O228	O	1.443628	1.654678	0.436251
C229	C	0.722028	0.692732	-0.285323
C230	C	0.972028	0.942732	-0.035323
C231	C	1.222028	1.192732	0.214677
C232	C	1.472028	1.442732	0.464677
C233	C	0.755477	0.669259	-0.251913
C234	C	1.005477	0.919259	-0.001913
C235	C	1.255477	1.169259	0.248087
C236	C	1.505477	1.419259	0.498087
C237	C	0.822386	0.669229	-0.185103
C238	C	1.072386	0.919229	0.064897
C239	C	1.322386	1.169229	0.314897
C240	C	1.572386	1.419229	0.564897
C241	C	0.822371	0.622313	-0.185098
C242	C	1.072371	0.872313	0.064902
C243	C	1.322371	1.122313	0.314902
C244	C	1.572371	1.372313	0.564902
C245	C	0.788909	0.598871	-0.218501
C246	C	1.038909	0.848871	0.031499
C247	C	1.288909	1.098871	0.281499
C248	C	1.538909	1.348871	0.531499
C249	C	0.755462	0.622344	-0.251908
C250	C	1.005462	0.872344	-0.001908
C251	C	1.255462	1.122344	0.248092
C252	C	1.505462	1.372344	0.498092
C253	C	0.688568	0.669288	-0.318731
C254	C	0.938568	0.919288	-0.068731
C255	C	1.188568	1.169288	0.181269
C256	C	1.438568	1.419288	0.431269
C257	C	0.688560	0.622367	-0.318727
C258	C	0.938560	0.872367	-0.068727
C259	C	1.188560	1.122367	0.181273
C260	C	1.438560	1.372367	0.431273
C261	C	0.722009	0.598894	-0.285317
C262	C	0.972009	0.848894	-0.035317
C263	C	1.222009	1.098894	0.214683
C264	C	1.472009	1.348894	0.464683
C265	C	0.721986	0.551986	-0.285306
C266	C	0.971986	0.801986	-0.035306
C267	C	1.221986	1.051986	0.214694
C268	C	1.471986	1.301986	0.464694
N269	N	0.755436	0.528511	-0.251901
N270	N	1.005436	0.778511	-0.001901
N271	N	1.255436	1.028511	0.248099
N272	N	1.505436	1.278511	0.498099
C273	C	0.788898	0.551953	-0.218499
C274	C	1.038898	0.801953	0.031501
C275	C	1.288898	1.051953	0.281501
C276	C	1.538898	1.301953	0.531501
C277	C	0.722101	0.978935	-0.285334
C278	C	0.972101	1.228935	-0.035334
C279	C	1.222101	1.478935	0.214666
C280	C	1.472101	1.728935	0.464666
C281	C	0.722112	1.025853	-0.285336
C282	C	0.972112	1.275853	-0.035336
C283	C	1.222112	1.525853	0.214664
C284	C	1.472112	1.775853	0.464664
C285	C	0.789027	1.025820	-0.218526
C286	C	1.039027	1.275820	0.031474
C287	C	1.289027	1.525820	0.281474
C288	C	1.539027	1.775820	0.531474
C289	C	0.789013	0.978901	-0.218522
C290	C	1.039013	1.228901	0.031478
C291	C	1.289013	1.478901	0.281478
C292	C	1.539013	1.728901	0.531478
C293	C	0.755552	0.955460	-0.251930
C294	C	1.005552	1.205460	-0.001930
C295	C	1.255552	1.455460	0.248070
C296	C	1.505552	1.705460	0.498070
C297	C	0.788864	0.453427	-0.218491
C298	C	1.038864	0.703427	0.031509
C299	C	1.288864	0.953427	0.281509
C300	C	1.538864	1.203427	0.531509
C301	C	0.788845	0.406508	-0.218488
C302	C	1.038845	0.656508	0.031512
C303	C	1.288845	0.906508	0.281512
C304	C	1.538845	1.156508	0.531512
C305	C	0.721932	0.406545	-0.285300
C306	C	0.971932	0.656545	-0.035300
C307	C	1.221932	0.906545	0.214700
C308	C	1.471932	1.156545	0.464700
C309	C	0.721949	0.453460	-0.285301
C310	C	0.971949	0.703460	-0.035301
C311	C	1.221949	0.953460	0.214699
C312	C	1.471949	1.203460	0.464699
C313	C	0.755420	0.476900	-0.251895
C314	C	1.005420	0.726900	-0.001895
C315	C	1.255420	0.976900	0.248105
C316	C	1.505420	1.226900	0.498105
O317	O	0.693531	0.527698	-0.313686
O318	O	0.943531	0.777698	-0.063686
O319	O	1.193531	1.027698	0.186314
O320	O	1.443531	1.277698	0.436314
O321	O	0.817349	0.527671	-0.190095
O322	O	1.067349	0.777671	0.059905
O323	O	1.317349	1.027671	0.309905
O324	O	1.567349	1.277671	0.559905
C325	C	0.788953	0.739617	-0.218515
C326	C	1.038953	0.989617	0.031485
C327	C	1.288953	1.239617	0.281485
C328	C	1.538953	1.489617	0.531485
C329	C	0.755507	0.763090	-0.251922
C330	C	1.005507	1.013090	-0.001922
C331	C	1.255507	1.263090	0.248078
C332	C	1.505507	1.513090	0.498078
C333	C	0.722045	0.739648	-0.285324
C334	C	0.972045	0.989648	-0.035324
C335	C	1.222045	1.239648	0.214676
C336	C	1.472045	1.489648	0.464676
C337	C	0.755518	0.810008	-0.251924
C338	C	1.005518	1.060008	-0.001924
C339	C	1.255518	1.310008	0.248076
C340	C	1.505518	1.560008	0.498076
C341	C	0.788979	0.833451	-0.218521
C342	C	1.038979	1.083451	0.031479
C343	C	1.288979	1.333451	0.281479
C344	C	1.538979	1.583451	0.531479
C345	C	0.822430	0.809975	-0.185117
C346	C	1.072430	1.059975	0.064883
C347	C	1.322430	1.309975	0.314883
C348	C	1.572430	1.559975	0.564883
C349	C	0.822415	0.763060	-0.185112
C350	C	1.072415	1.013060	0.064888
C351	C	1.322415	1.263060	0.314888
C352	C	1.572415	1.513060	0.564888
C353	C	0.688594	0.763123	-0.318729
C354	C	0.938594	1.013123	-0.068729
C355	C	1.188594	1.263123	0.181271
C356	C	1.438594	1.513123	0.431271
C357	C	0.688611	0.810039	-0.318730
C358	C	0.938611	1.060039	-0.068730
C359	C	1.188611	1.310039	0.181270
C360	C	1.438611	1.560039	0.431270
C361	C	0.722073	0.833481	-0.285328
C362	C	0.972073	1.083481	-0.035328
C363	C	1.222073	1.333481	0.214672
C364	C	1.472073	1.583481	0.464672
C365	C	0.891856	0.216412	-0.251939
C366	C	1.141856	0.466412	-0.001939
C367	C	1.391856	0.716412	0.248061
C368	C	1.641856	0.966412	0.498061
C369	C	0.949970	0.216413	-0.251948
C370	C	1.199970	0.466413	-0.001948
C371	C	1.449970	0.716413	0.248052
C372	C	1.699970	0.966413	0.498052
C373	C	0.755582	1.099230	-0.251949
C374	C	1.005582	1.349230	-0.001949
C375	C	1.255582	1.599230	0.248051
C376	C	1.505582	1.849230	0.498051
C377	C	0.755574	1.049295	-0.251934
C378	C	1.005574	1.299295	-0.001934
C379	C	1.255574	1.549295	0.248066
C380	C	1.505574	1.799295	0.498066
C381	C	0.755517	0.216388	-0.388291
C382	C	1.005517	0.466388	-0.138291
C383	C	1.255517	0.716388	0.111709
C384	C	1.505517	0.966388	0.361709
C385	C	0.755532	0.216379	-0.446405
C386	C	1.005532	0.466379	-0.196405
C387	C	1.255532	0.716379	0.053595
C388	C	1.505532	0.966379	0.303595
C389	C	0.722135	0.187591	-0.806779
C390	C	0.972135	0.437591	-0.556779
C391	C	1.222135	0.687591	-0.306779
C392	C	1.472135	0.937591	-0.056779
C393	C	0.722138	0.187583	-0.861383
C394	C	0.972138	0.437583	-0.611383
C395	C	1.222138	0.687583	-0.361383
C396	C	1.472138	0.937583	-0.111383
O397	O	0.693716	0.163156	-0.889629
O398	O	0.943716	0.413156	-0.639629
O399	O	1.193716	0.663156	-0.389629
O400	O	1.443716	0.913156	-0.139629
N401	N	0.755549	0.216309	-0.888688
N402	N	1.005549	0.466309	-0.638688
N403	N	1.255549	0.716309	-0.388688
N404	N	1.505549	0.966309	-0.138688
C405	C	0.788956	0.245047	-0.861385
C406	C	1.038956	0.495047	-0.611385
C407	C	1.288956	0.745047	-0.361385
C408	C	1.538956	0.995047	-0.111385
O409	O	0.817375	0.269480	-0.889623
O410	O	1.067375	0.519480	-0.639623
O411	O	1.317375	0.769480	-0.389623
O412	O	1.567375	1.019480	-0.139623
C413	C	0.788950	0.245057	-0.806781
C414	C	1.038950	0.495057	-0.556781
C415	C	1.288950	0.745057	-0.306781
C416	C	1.538950	0.995057	-0.056781
C417	C	0.755540	0.216327	-0.779480
C418	C	1.005540	0.466327	-0.529480
C419	C	1.255540	0.716327	-0.279480
C420	C	1.505540	0.966327	-0.029480
C421	C	0.688728	0.158863	-0.779477
C422	C	0.938728	0.408863	-0.529477
C423	C	1.188728	0.658863	-0.279477
C424	C	1.438728	0.908863	-0.029477
C425	C	0.688726	0.158871	-0.724877
C426	C	0.938726	0.408871	-0.474877
C427	C	1.188726	0.658871	-0.224877
C428	C	1.438726	0.908871	0.025123
C429	C	0.722131	0.187606	-0.697578
C430	C	0.972131	0.437606	-0.447578
C431	C	1.222131	0.687606	-0.197578
C432	C	1.472131	0.937606	0.052422
C433	C	0.755538	0.216334	-0.724879
C434	C	1.005538	0.466334	-0.474879
C435	C	1.255538	0.716334	-0.224879
C436	C	1.505538	0.966334	0.025121
C437	C	0.822354	0.273798	-0.779479
C438	C	1.072354	0.523798	-0.529479
C439	C	1.322354	0.773798	-0.279479
C440	C	1.572354	1.023798	-0.029479
C441	C	0.822345	0.273806	-0.724872
C442	C	1.072345	0.523806	-0.474872
C443	C	1.322345	0.773806	-0.224872
C444	C	1.572345	1.023806	0.025128
C445	C	0.788935	0.245075	-0.697571
C446	C	1.038935	0.495075	-0.447571
C447	C	1.288935	0.745075	-0.197571
C448	C	1.538935	0.995075	0.052429
C449	C	0.788942	0.245078	-0.642980
C450	C	1.038942	0.495078	-0.392980
C451	C	1.288942	0.745078	-0.142980
C452	C	1.538942	0.995078	0.107020
N453	N	0.755530	0.216352	-0.615675
N454	N	1.005530	0.466352	-0.365675
N455	N	1.255530	0.716352	-0.115675
N456	N	1.505530	0.966352	0.134325
C457	C	0.722125	0.187616	-0.642974
C458	C	0.972125	0.437616	-0.392974
C459	C	1.222125	0.687616	-0.142974
C460	C	1.472125	0.937616	0.107026
C461	C	0.788965	0.245025	-0.976055
C462	C	1.038965	0.495025	-0.726055
C463	C	1.288965	0.745025	-0.476055
C464	C	1.538965	0.995025	-0.226055
C465	C	0.788974	0.245013	-1.030658
C466	C	1.038974	0.495013	-0.780658
C467	C	1.288974	0.745013	-0.530658
C468	C	1.538974	0.995013	-0.280658
C469	C	0.722155	0.187549	-1.030652
C470	C	0.972155	0.437549	-0.780652
C471	C	1.222155	0.687549	-0.530652
C472	C	1.472155	0.937549	-0.280652
C473	C	0.722149	0.187559	-0.976049
C474	C	0.972149	0.437559	-0.726049
C475	C	1.222149	0.687559	-0.476049
C476	C	1.472149	0.937559	-0.226049
C477	C	0.755554	0.216299	-0.948751
C478	C	1.005554	0.466299	-0.698751
C479	C	1.255554	0.716299	-0.448751
C480	C	1.505554	0.966299	-0.198751
C481	C	0.722124	0.187634	-0.528309
C482	C	0.972124	0.437634	-0.278309
C483	C	1.222124	0.687634	-0.028309
C484	C	1.472124	0.937634	0.221691
C485	C	0.722126	0.187643	-0.473704
C486	C	0.972126	0.437643	-0.223704
C487	C	1.222126	0.687643	0.026296
C488	C	1.472126	0.937643	0.276296
C489	C	0.788943	0.245109	-0.473714
C490	C	1.038943	0.495109	-0.223714
C491	C	1.288943	0.745109	0.026286
C492	C	1.538943	0.995109	0.276286
C493	C	0.788943	0.245098	-0.528314
C494	C	1.038943	0.495098	-0.278314
C495	C	1.288943	0.745098	-0.028314
C496	C	1.538943	0.995098	0.221686
C497	C	0.755529	0.216360	-0.555611
C498	C	1.005529	0.466360	-0.305611
C499	C	1.255529	0.716360	-0.055611
C500	C	1.505529	0.966360	0.194389
O501	O	0.817347	0.269494	-0.614699
O502	O	1.067347	0.519494	-0.364699
O503	O	1.317347	0.769494	-0.114699
O504	O	1.567347	1.019494	0.135301
O505	O	0.693706	0.163192	-0.614729
O506	O	0.943706	0.413192	-0.364729
O507	O	1.193706	0.663192	-0.114729
O508	O	1.443706	0.913192	0.135271
C509	C	0.755479	0.216396	-0.116075
C510	C	1.005479	0.466396	0.133925
C511	C	1.255479	0.716396	0.383925
C512	C	1.505479	0.966396	0.633925
C513	C	0.755566	0.216278	-0.057961
C514	C	1.005566	0.466278	0.192039
C515	C	1.255566	0.716278	0.442039
C516	C	1.505566	0.966278	0.692039
H517	H	-0.045028	0.268474	-0.191174
H518	H	0.204972	0.518474	0.058826
H519	H	0.454972	0.768474	0.308826
H520	H	0.704972	1.018474	0.558826
H521	H	-0.044881	0.164358	-0.312725
H522	H	0.205119	0.414358	-0.062725
H523	H	0.455119	0.664358	0.187275
H524	H	0.705119	0.914358	0.437275
H525	H	0.849609	0.603204	-0.157894
H526	H	1.099609	0.853204	0.092106
H527	H	1.349609	1.103204	0.342106
H528	H	1.599609	1.353204	0.592106
H529	H	0.661312	0.603283	-0.345933
H530	H	0.911312	0.853283	-0.095933
H531	H	1.161312	1.103283	0.154067
H532	H	1.411312	1.353283	0.404067
Br533	Br	0.834295	0.284081	-0.565368
Br534	Br	1.084295	0.534081	-0.315368
Br535	Br	1.334295	0.784081	-0.065368
Br536	Br	1.584295	1.034081	0.184632
Br537	Br	0.834280	0.284102	-0.436655
Br538	Br	1.084280	0.534102	-0.186655
Br539	Br	1.334280	0.784102	0.063345
Br540	Br	1.584280	1.034102	0.313345
H541	H	0.457310	0.268472	-0.191133
H542	H	0.707310	0.518472	0.058867
H543	H	0.957310	0.768472	0.308867
H544	H	1.207310	1.018472	0.558867
Br545	Br	0.676806	0.148566	-0.939003
Br546	Br	0.926806	0.398566	-0.689003
Br547	Br	1.176806	0.648566	-0.439003
Br548	Br	1.426806	0.898566	-0.189003
Br549	Br	0.867814	0.731211	-0.139768
Br550	Br	1.117814	0.981211	0.110232
Br551	Br	1.367814	1.231211	0.360232
Br552	Br	1.617814	1.481211	0.610232
Br553	Br	0.834308	0.284030	-0.939013
Br554	Br	1.084308	0.534030	-0.689013
Br555	Br	1.334308	0.784030	-0.439013
Br556	Br	1.584308	1.034030	-0.189013
H557	H	0.694869	1.044961	-0.312537
H558	H	0.944869	1.294961	-0.062537
H559	H	1.194869	1.544961	0.187463
H560	H	1.444869	1.794961	0.437463
H561	H	0.054022	0.268467	-0.191157
H562	H	0.304022	0.518467	0.058843
H563	H	0.554022	0.768467	0.308843
H564	H	0.804022	1.018467	0.558843
H565	H	0.694954	0.164151	-1.052889
H566	H	0.944954	0.414151	-0.802889
H567	H	1.194954	0.664151	-0.552889
H568	H	1.444954	0.914151	-0.302889
Br569	Br	0.643379	0.119879	-0.687833
Br570	Br	0.893379	0.369879	-0.437833
Br571	Br	1.143379	0.619879	-0.187833
Br572	Br	1.393379	0.869879	0.062167
Br573	Br	0.442686	0.148772	-0.330876
Br574	Br	0.692686	0.398772	-0.080876
Br575	Br	0.942686	0.648772	0.169124
Br576	Br	1.192686	0.898772	0.419124
H577	H	0.849637	0.688311	-0.157902
H578	H	1.099637	0.938311	0.092098
H579	H	1.349637	1.188311	0.342098
H580	H	1.599637	1.438311	0.592098
H581	H	0.694915	0.164232	-0.550527
H582	H	0.944915	0.414232	-0.300527
H583	H	1.194915	0.664232	-0.050527
H584	H	1.444915	0.914232	0.199473
Br585	Br	0.676541	0.485318	-0.330631
Br586	Br	0.926541	0.735318	-0.080631
Br587	Br	1.176541	0.985318	0.169369
Br588	Br	1.426541	1.235318	0.419369
Br589	Br	0.643210	0.841889	-0.364076
Br590	Br	0.893210	1.091889	-0.114076
Br591	Br	1.143210	1.341889	0.135924
Br592	Br	1.393210	1.591889	0.385924
H593	H	0.556531	0.164360	-0.312684
H594	H	0.806531	0.414360	-0.062684
H595	H	1.056531	0.664360	0.187316
H596	H	1.306531	0.914360	0.437316
H597	H	0.206113	0.297148	-0.157634
H598	H	0.456113	0.547148	0.092366
H599	H	0.706113	0.797148	0.342366
H600	H	0.956113	1.047148	0.592366
H601	H	0.694686	0.387451	-0.312494
H602	H	0.944686	0.637451	-0.062494
H603	H	1.194686	0.887451	0.187506
H604	H	1.444686	1.137451	0.437506
Br605	Br	0.571176	0.284043	-0.172938
Br606	Br	0.821176	0.534043	0.077062
Br607	Br	1.071176	0.784043	0.327062
Br608	Br	1.321176	1.034043	0.577062
H609	H	0.661346	0.744040	-0.345930
H610	H	0.911346	0.994040	-0.095930
H611	H	1.161346	1.244040	0.154070
H612	H	1.411346	1.494040	0.404070
H613	H	0.305398	0.135663	-0.346199
H614	H	0.555398	0.385663	-0.096199
H615	H	0.805398	0.635663	0.153801
H616	H	1.055398	0.885663	0.403801
Br617	Br	0.319961	0.312719	-0.139437
Br618	Br	0.569961	0.562719	0.110563
Br619	Br	0.819961	0.812719	0.360563
Br620	Br	1.069961	1.062719	0.610563
H621	H	0.816083	0.387397	-0.191280
H622	H	1.066083	0.637397	0.058720
H623	H	1.316083	0.887397	0.308720
H624	H	1.566083	1.137397	0.558720
Br625	Br	0.867840	0.841799	-0.139783
Br626	Br	1.117840	1.091799	0.110217
Br627	Br	1.367840	1.341799	0.360217
Br628	Br	1.617840	1.591799	0.610217
Br629	Br	0.834325	0.283999	-1.067703
Br630	Br	1.084325	0.533999	-0.817703
Br631	Br	1.334325	0.783999	-0.567703
Br632	Br	1.584325	1.033999	-0.317703
H633	H	0.816120	0.472507	-0.191290
H634	H	1.066120	0.722507	0.058710
H635	H	1.316120	0.972507	0.308710
H636	H	1.566120	1.222507	0.558710
Br637	Br	0.676784	0.148647	-0.436655
Br638	Br	0.926784	0.398647	-0.186655
Br639	Br	1.176784	0.648647	0.063345
Br640	Br	1.426784	0.898647	0.313345
H641	H	0.849559	0.297194	-0.801699
H642	H	1.099559	0.547194	-0.551699
H643	H	1.349559	0.797194	-0.301699
H644	H	1.599559	1.047194	-0.051699
H645	H	0.206353	0.135660	-0.346203
H646	H	0.456353	0.385660	-0.096203
H647	H	0.706353	0.635660	0.153797
H648	H	0.956353	0.885660	0.403797
Br649	Br	0.069029	0.148779	-0.330910
Br650	Br	0.319029	0.398779	-0.080910
Br651	Br	0.569029	0.648779	0.169090
Br652	Br	0.819029	0.898779	0.419090
Br653	Br	0.834409	0.947050	-0.173178
Br654	Br	1.084409	1.197050	0.076822
Br655	Br	1.334409	1.447050	0.326822
Br656	Br	1.584409	1.697050	0.576822
H657	H	0.661522	0.135463	-0.801698
H658	H	0.911522	0.385463	-0.551698
H659	H	1.161522	0.635463	-0.301698
H660	H	1.411522	0.885463	-0.051698
H661	H	0.816273	1.044915	-0.191329
H662	H	1.066273	1.294915	0.058671
H663	H	1.316273	1.544915	0.308671
H664	H	1.566273	1.794915	0.558671
Br665	Br	0.867680	0.312815	-0.687828
Br666	Br	1.117680	0.562815	-0.437828
Br667	Br	1.367680	0.812815	-0.187828
Br668	Br	1.617680	1.062815	0.062172
H669	H	0.661327	0.688391	-0.345935
H670	H	0.911327	0.938391	-0.095935
H671	H	1.161327	1.188391	0.154065
H672	H	1.411327	1.438391	0.404065
Br673	Br	0.676685	0.947128	-0.330678
Br674	Br	0.926685	1.197128	-0.080678
Br675	Br	1.176685	1.447128	0.169322
Br676	Br	1.426685	1.697128	0.419322
