data_functionalizedCrystal
_audit_creation_method	'MofGen! by Chris Wilmer'
_symmetry_space_group_name_H-M	'P1'
_symmetry_Int_Tables_number	1
_symmetry_cell_setting	triclinic
loop_
_symmetry_equiv_pos_as_xyz
  x,y,z
_cell_length_a	10.654549
_cell_length_b	10.654550
_cell_length_c	9.130313
_cell_angle_alpha	90.000276
_cell_angle_beta	90.003537
_cell_angle_gamma	84.484854
loop_
_atom_site_label
_atom_site_type_symbol
_atom_site_fract_x
_atom_site_fract_y
_atom_site_fract_z
O1	O	-0.176399	-1.667839	-0.121687
O2	O	-0.193205	-1.302361	-0.121713
O3	O	-0.002063	-1.493503	-0.121693
O4	O	-0.367541	-1.476697	-0.121707
O5	O	-0.002057	-1.493490	0.121906
O6	O	-0.193199	-1.302348	0.121886
O7	O	-0.176393	-1.667826	0.121912
Cu8	Cu	-0.184796	-1.485086	0.144141
Cu9	Cu	-0.184802	-1.485101	-0.143942
O10	O	-0.367536	-1.476683	0.121892
C11	C	-0.191968	-1.255556	0.000083
C12	C	-0.188276	-1.116113	0.000073
C13	C	0.044738	-1.492263	0.000105
C14	C	0.184181	-1.488571	0.000100
C15	C	-0.414336	-1.477924	0.000091
C16	C	-0.553780	-1.481616	0.000086
C17	C	-0.177630	-1.714631	0.000113
C18	C	-0.181322	-1.854074	0.000113
C19	C	0.394696	-1.597634	0.000098
C20	C	0.263676	-1.601113	0.000109
C21	C	0.235714	-1.372543	0.000093
C22	C	0.366732	-1.369066	0.000092
C23	C	-0.300818	-1.036627	0.000073
C24	C	-0.297341	-0.905606	0.000098
C25	C	-0.068772	-0.933570	0.000118
C26	C	-0.072250	-1.064588	0.000103
N27	N	-0.184790	-1.485084	0.346764
N28	N	-0.184798	-1.485113	-0.346565
C29	C	-0.100188	-1.569751	0.423425
C30	C	-0.100189	-1.569763	0.576762
C31	C	-0.269404	-1.400437	0.576764
C32	C	-0.269396	-1.400420	0.423429
H33	H	0.221732	-1.695586	0.000121
H34	H	0.019401	-1.129309	0.000107
C35	C	0.127117	-0.917062	-0.125090
C36	C	0.058762	-0.876930	0.000132
H37	H	0.205855	-0.882102	-0.125078
H38	H	0.080729	-0.889836	-0.210022
H39	H	0.141143	-1.006469	-0.125079
H40	H	0.044727	-0.787523	0.000115
H41	H	0.105160	-0.904150	0.085086
H42	H	-0.031297	-1.638704	0.639175
C43	C	-0.426022	-0.742031	-0.125122
C44	C	-0.421050	-0.818233	0.000089
H45	H	-0.502395	-0.688087	-0.125120
H46	H	-0.422627	-0.793716	-0.210061
H47	H	-0.356423	-0.692596	-0.125087
H48	H	-0.490644	-0.867676	0.000048
H49	H	-0.424457	-0.766542	0.085050
H50	H	0.170979	-1.280910	0.000094
H51	H	0.408682	-1.274584	0.000089
C52	C	-0.437325	-1.167767	0.125260
C53	C	-0.428349	-1.093271	0.000050
H54	H	-0.516057	-1.202739	0.125240
H55	H	-0.431225	-1.117243	0.210200
H56	H	-0.370790	-1.233854	0.125240
H57	H	-0.494879	-1.027178	0.000076
H58	H	-0.434461	-1.143797	-0.084912
H59	H	0.459413	-1.689280	0.000093
C60	C	0.067083	-1.737110	0.438830
C61	C	-0.007179	-1.662799	0.339153
H62	H	0.124511	-1.794548	0.386804
H63	H	0.014381	-1.782743	0.498615
H64	H	0.112737	-1.684434	0.498655
H65	H	-0.052840	-1.715475	0.279334
H66	H	0.045529	-1.617164	0.279342
C67	C	-0.341117	-1.183668	0.624015
C68	C	-0.362400	-1.307383	0.661046
H69	H	-0.398527	-1.126222	0.676055
H70	H	-0.353228	-1.171545	0.521737
H71	H	-0.257164	-1.169330	0.649164
H72	H	-0.446351	-1.321724	0.635886
H73	H	-0.350300	-1.319511	0.763347
H74	H	-0.338290	-1.331468	0.361008
