data_functionalizedCrystal
_audit_creation_method	'MofGen! by Chris Wilmer'
_symmetry_space_group_name_H-M	'P1'
_symmetry_Int_Tables_number	1
_symmetry_cell_setting	triclinic
loop_
_symmetry_equiv_pos_as_xyz
  x,y,z
_cell_length_a	19.121112
_cell_length_b	19.121063
_cell_length_c	21.395355
_cell_angle_alpha	87.579260
_cell_angle_beta	92.462121
_cell_angle_gamma	90.126867
loop_
_atom_site_label
_atom_site_type_symbol
_atom_site_fract_x
_atom_site_fract_y
_atom_site_fract_z
Zn1	Zn	1.059885	-0.324994	0.406891
Zn2	Zn	1.393219	0.008339	0.740224
Zn3	Zn	1.726552	0.341672	1.073558
Zn4	Zn	1.054782	-0.442210	0.306376
Zn5	Zn	1.388116	-0.108877	0.639709
Zn6	Zn	1.721449	0.224456	0.973043
Zn7	Zn	0.942638	-0.319984	0.297482
Zn8	Zn	1.275971	0.013350	0.630815
Zn9	Zn	1.609305	0.346683	0.964149
Zn10	Zn	0.937610	-0.437185	0.406473
Zn11	Zn	1.270944	-0.103851	0.739806
Zn12	Zn	1.604277	0.229482	1.073140
O13	O	0.998729	-0.381093	0.354306
O14	O	1.332062	-0.047760	0.687639
O15	O	1.665396	0.285573	1.020972
O16	O	1.157314	-0.344744	0.397455
O17	O	1.490647	-0.011410	0.730788
O18	O	1.823981	0.321923	1.064121
O19	O	1.039875	-0.426003	0.217517
O20	O	1.373208	-0.092670	0.550851
O21	O	1.706541	0.240664	0.884184
O22	O	0.962431	-0.222544	0.308448
O23	O	1.295764	0.110789	0.641781
O24	O	1.629098	0.444122	0.975115
O25	O	1.153565	-0.430862	0.323607
O26	O	1.486898	-0.097528	0.656940
O27	O	1.820231	0.235805	0.990273
O28	O	1.048572	-0.226226	0.388830
O29	O	1.381905	0.107108	0.722164
O30	O	1.715239	0.440441	1.055497
O31	O	0.957483	-0.336204	0.210983
O32	O	1.290816	-0.002870	0.544316
O33	O	1.624149	0.330463	0.877650
O34	O	0.843866	-0.331330	0.308043
O35	O	1.177199	0.002003	0.641376
O36	O	1.510533	0.335336	0.974709
O37	O	0.953862	-0.422296	0.494207
O38	O	1.287195	-0.088963	0.827541
O39	O	1.620529	0.244371	1.160874
O40	O	0.840172	-0.417437	0.388118
O41	O	1.173505	-0.084104	0.721451
O42	O	1.506839	0.249229	1.054785
O43	O	1.043697	-0.339870	0.494514
O44	O	1.377030	-0.006537	0.827848
O45	O	1.710364	0.326796	1.161181
O46	O	1.035000	-0.539648	0.323201
O47	O	1.368333	-0.206315	0.656535
O48	O	1.701666	0.127019	0.989868
O49	O	0.948914	-0.535956	0.396742
O50	O	1.282247	-0.202622	0.730075
O51	O	1.615581	0.130711	1.063409
C52	C	0.816581	-0.373295	0.347070
C53	C	1.149915	-0.039962	0.680404
C54	C	1.483248	0.293371	1.013737
C55	C	0.738657	-0.369976	0.343990
C56	C	1.071990	-0.036643	0.677324
C57	C	1.405324	0.296690	1.010657
C58	C	0.298030	-0.348919	0.324482
C59	C	0.631363	-0.015585	0.657816
C60	C	0.964696	0.317748	0.991149
C61	C	0.371248	-0.352041	0.327380
C62	C	0.704581	-0.018708	0.660713
C63	C	1.037914	0.314625	0.994046
C64	C	0.405946	-0.398508	0.370457
C65	C	0.739280	-0.065174	0.703790
C66	C	1.072613	0.268159	1.037124
C67	C	0.367423	-0.441849	0.410644
C68	C	0.700757	-0.108516	0.743977
C69	C	1.034090	0.224818	1.077310
C70	C	0.294207	-0.438723	0.407749
C71	C	0.627540	-0.105389	0.741082
C72	C	0.960873	0.227944	1.074416
C73	C	0.626918	-0.410191	0.381282
C74	C	0.960251	-0.076858	0.714616
C75	C	1.293584	0.256476	1.047949
C76	C	0.700139	-0.413316	0.384173
C77	C	1.033473	-0.079983	0.717506
C78	C	1.366806	0.253351	1.050840
C79	C	0.703958	-0.323507	0.300909
C80	C	1.037292	0.009827	0.634243
C81	C	1.370625	0.343160	0.967576
C82	C	0.630740	-0.320387	0.298016
C83	C	0.964074	0.012946	0.631349
C84	C	1.297407	0.346279	0.964683
C85	C	0.592224	-0.363726	0.338205
C86	C	0.925557	-0.030393	0.671538
C87	C	1.258890	0.302941	1.004872
C88	C	0.480787	-0.401702	0.373418
C89	C	0.814120	-0.068369	0.706751
C90	C	1.147453	0.264965	1.040085
C91	C	0.517385	-0.360528	0.335246
C92	C	0.850718	-0.027194	0.668580
C93	C	1.184051	0.306139	1.001913
C94	C	0.990877	-0.563240	0.360906
C95	C	1.324210	-0.229907	0.694239
C96	C	1.657543	0.103427	1.027573
C97	C	0.987581	-0.641166	0.363753
C98	C	1.320915	-0.307832	0.697086
C99	C	1.654248	0.025501	1.030420
C100	C	1.030888	-0.679676	0.326837
C101	C	1.364222	-0.346343	0.660170
C102	C	1.697555	-0.013009	0.993503
C103	C	1.027793	-0.752896	0.329518
C104	C	1.361127	-0.419562	0.662852
C105	C	1.694460	-0.086229	0.996185
C106	C	0.981387	-0.787603	0.369113
C107	C	1.314721	-0.454270	0.702447
C108	C	1.648054	-0.120937	1.035780
C109	C	0.938078	-0.749088	0.406034
C110	C	1.271412	-0.415755	0.739367
C111	C	1.604745	-0.082421	1.072701
C112	C	0.941178	-0.675870	0.403355
C113	C	1.274511	-0.342536	0.736689
C114	C	1.607844	-0.009203	1.070022
C115	C	0.969789	-1.008580	0.379118
C116	C	1.303123	-0.675247	0.712452
C117	C	1.636456	-0.341913	1.045785
C118	C	0.966692	-1.081803	0.381793
C119	C	1.300025	-0.748470	0.715126
C120	C	1.633359	-0.415137	1.048459
C121	C	1.056408	-1.085606	0.305277
C122	C	1.389741	-0.752273	0.638611
C123	C	1.723075	-0.418939	0.971944
C124	C	1.059500	-1.012386	0.302599
C125	C	1.392833	-0.679053	0.635933
C126	C	1.726167	-0.345719	0.969266
C127	C	1.016194	-0.973877	0.339523
C128	C	1.349527	-0.640544	0.672856
C129	C	1.682861	-0.307210	1.006189
C130	C	0.978221	-0.862446	0.371854
C131	C	1.311554	-0.529112	0.705187
C132	C	1.644888	-0.195779	1.038521
C133	C	1.019364	-0.899036	0.336785
C134	C	1.352698	-0.565703	0.670118
C135	C	1.686031	-0.232370	1.003452
C136	C	1.181588	-0.388922	0.361569
C137	C	1.514921	-0.055589	0.694903
C138	C	1.848255	0.277744	1.028236
C139	C	1.259512	-0.392258	0.364665
C140	C	1.592845	-0.058925	0.697998
C141	C	1.926178	0.274408	1.031332
C142	C	0.998788	-0.381082	0.517731
C143	C	1.332121	-0.047748	0.851064
C144	C	1.665455	0.285585	1.184397
C145	C	0.998813	-0.381077	0.587373
C146	C	1.332146	-0.047743	0.920706
C147	C	1.665480	0.285590	1.254039
C148	C	1.006632	-0.198236	0.347694
C149	C	1.339965	0.135097	0.681027
C150	C	1.673298	0.468430	1.014360
C151	C	1.009999	-0.120314	0.344876
C152	C	1.343332	0.213020	0.678210
C153	C	1.676666	0.546353	1.011543
C154	C	0.998713	-0.381056	0.191516
C155	C	1.332046	-0.047723	0.524849
C156	C	1.665380	0.285611	0.858183
C157	C	0.998832	-0.380869	0.121872
C158	C	1.332166	-0.047536	0.455206
C159	C	1.665499	0.285797	0.788539
C160	C	1.045588	-0.338156	0.620247
C161	C	1.378922	-0.004822	0.953580
C162	C	1.712255	0.328511	1.286913
C163	C	1.045589	-0.338125	0.685681
C164	C	1.378922	-0.004792	1.019014
C165	C	1.712255	0.328541	1.352348
C166	C	0.998820	-0.381029	0.718240
C167	C	1.332154	-0.047696	1.051573
C168	C	1.665487	0.285638	1.384906
C169	C	0.952036	-0.423953	0.685358
C170	C	1.285370	-0.090620	1.018691
C171	C	1.618703	0.242714	1.352024
C172	C	0.952033	-0.423977	0.619924
C173	C	1.285366	-0.090643	0.953257
C174	C	1.618699	0.242690	1.286591
C175	C	0.990563	-0.443917	0.823982
C176	C	1.323897	-0.110583	1.157316
C177	C	1.657230	0.222750	1.490649
C178	C	0.990572	-0.443894	0.889415
C179	C	1.323905	-0.110561	1.222748
C180	C	1.657239	0.222772	1.556081
C181	C	0.998828	-0.380955	0.920058
C182	C	1.332161	-0.047622	1.253391
C183	C	1.665495	0.285711	1.586725
C184	C	1.007090	-0.318037	0.885261
C185	C	1.340423	0.015296	1.218594
C186	C	1.673757	0.348630	1.551928
C187	C	1.007086	-0.318061	0.819828
C188	C	1.340420	0.015273	1.153161
C189	C	1.673753	0.348606	1.486494
C190	C	0.998819	-0.381008	0.789191
C191	C	1.332152	-0.047674	1.122524
C192	C	1.665486	0.285659	1.455858
C193	C	1.045606	-0.337998	1.023883
C194	C	1.378939	-0.004664	1.357216
C195	C	1.712273	0.328669	1.690550
C196	C	1.045602	-0.337966	1.089318
C197	C	1.378935	-0.004633	1.422652
C198	C	1.712268	0.328700	1.755985
C199	C	0.952053	-0.423800	1.088994
C200	C	1.285386	-0.090467	1.422327
C201	C	1.618720	0.242867	1.755661
C202	C	0.952054	-0.423825	1.023560
C203	C	1.285387	-0.090492	1.356893
C204	C	1.618721	0.242841	1.690226
C205	C	0.998834	-0.380925	0.991008
C206	C	1.332168	-0.047592	1.324342
C207	C	1.665501	0.285741	1.657675
H208	H	0.735326	-0.288222	0.268191
H209	H	1.068660	0.045111	0.601524
H210	H	1.401993	0.378445	0.934857
H211	H	0.983849	-0.495126	0.917742
H212	H	1.317182	-0.161793	1.251075
H213	H	1.650515	0.171540	1.584408
H214	H	0.489130	-0.322692	0.300176
H215	H	0.822463	0.010641	0.633509
H216	H	1.155797	0.343974	0.966842
H217	H	0.395681	-0.479680	0.445720
H218	H	0.729014	-0.146347	0.779054
H219	H	1.062348	0.186987	1.112387
N220	N	0.888022	-0.786521	0.448736
N221	N	1.221355	-0.453188	0.782069
N222	N	1.554688	-0.119854	1.115403
H223	H	0.861057	-0.751013	0.471717
H224	H	1.194391	-0.417679	0.805050
H225	H	1.527724	-0.084346	1.138383
H226	H	0.915257	-0.818081	0.479995
H227	H	1.248590	-0.484748	0.813328
H228	H	1.581923	-0.151414	1.146662
H229	H	1.013814	-0.266786	0.910209
H230	H	1.347147	0.066547	1.243542
H231	H	1.680481	0.399881	1.576876
H232	H	0.983653	-0.495148	0.799031
H233	H	1.316987	-0.161815	1.132364
H234	H	1.650320	0.171518	1.465697
H235	H	0.940436	-0.890713	0.404091
H236	H	1.273769	-0.557379	0.737425
H237	H	1.607102	-0.224046	1.070758
N238	N	1.080938	-0.642244	0.284128
N239	N	1.414272	-0.308910	0.617461
N240	N	1.747605	0.024423	0.950794
H241	H	1.107905	-0.677753	0.261150
H242	H	1.441238	-0.344420	0.594483
H243	H	1.774571	-0.011086	0.927817
H244	H	1.114655	-0.613210	0.309832
H245	H	1.447989	-0.279877	0.643165
H246	H	1.781322	0.053457	0.976498
H247	H	1.083677	-0.303170	0.712452
H248	H	1.417010	0.030163	1.045785
H249	H	1.750344	0.363497	1.379119
N250	N	0.252655	-0.485467	0.451085
N251	N	0.585989	-0.152134	0.784419
N252	N	0.919322	0.181200	1.117752
H253	H	0.265890	-0.475202	0.495982
H254	H	0.599223	-0.141868	0.829315
H255	H	0.932557	0.191465	1.162648
H256	H	0.263247	-0.536067	0.443543
H257	H	0.596580	-0.202733	0.776877
H258	H	0.929914	0.130600	1.110210
H259	H	0.509047	-0.439537	0.408490
H260	H	0.842380	-0.106204	0.741823
H261	H	1.175713	0.227130	1.075157
N262	N	1.109563	-0.974956	0.259902
N263	N	1.442897	-0.641622	0.593235
N264	N	1.776230	-0.308289	0.926569
H265	H	1.098168	-0.987267	0.215162
H266	H	1.431501	-0.653934	0.548495
H267	H	1.764834	-0.320601	0.881828
H268	H	1.159088	-0.989813	0.272185
H269	H	1.492421	-0.656479	0.605519
H270	H	1.825755	-0.323146	0.938852
H271	H	1.091666	-1.116968	0.275218
H272	H	1.425000	-0.783634	0.608551
H273	H	1.758333	-0.450301	0.941884
H274	H	0.728389	-0.451155	0.419255
H275	H	1.061722	-0.117821	0.752588
H276	H	1.395055	0.215512	1.085921
N277	N	1.096040	-0.291886	0.585138
N278	N	1.429374	0.041448	0.918471
N279	N	1.762707	0.374781	1.251804
H280	H	1.125672	-0.264690	0.615896
H281	H	1.459006	0.068643	0.949230
H282	H	1.792339	0.401977	1.282563
H283	H	1.068905	-0.258228	0.555668
H284	H	1.402238	0.075105	0.889002
H285	H	1.735572	0.408438	1.222335
N286	N	0.585379	-0.456946	0.424615
N287	N	0.918713	-0.123613	0.757949
N288	N	1.252046	0.209720	1.091282
H289	H	0.618473	-0.486862	0.452337
H290	H	0.951806	-0.153529	0.785670
H291	H	1.285139	0.179805	1.119003
H292	H	0.553596	-0.488044	0.399025
H293	H	0.886929	-0.154711	0.732358
H294	H	1.220262	0.178622	1.065692
H295	H	0.402606	-0.316753	0.294656
H296	H	0.735939	0.016581	0.627990
H297	H	1.069272	0.349914	0.961323
H298	H	1.083694	-0.303062	0.997378
H299	H	1.417027	0.030271	1.330711
H300	H	1.750360	0.363605	1.664045
H301	H	0.602493	-0.282554	0.262934
H302	H	0.935827	0.050779	0.596267
H303	H	1.269160	0.384112	0.929600
N304	N	1.015999	-0.250206	0.782296
N305	N	1.349332	0.083127	1.115629
N306	N	1.682666	0.416460	1.448962
H307	H	1.021232	-0.210328	0.811632
H308	H	1.354565	0.123005	1.144965
H309	H	1.687899	0.456339	1.478299
H310	H	0.973564	-0.241878	0.753201
H311	H	1.306897	0.091456	1.086535
H312	H	1.640231	0.424789	1.419868
H313	H	0.913940	-0.458927	0.593158
H314	H	1.247273	-0.125594	0.926492
H315	H	1.580606	0.207740	1.259825
N316	N	1.096058	-0.291665	1.124769
N317	N	1.429391	0.041668	1.458102
N318	N	1.762725	0.375001	1.791436
H319	H	1.127315	-0.321535	1.154256
H320	H	1.460648	0.011798	1.487589
H321	H	1.793982	0.345132	1.820922
H322	H	1.068927	-0.257947	1.149555
H323	H	1.402260	0.075386	1.482888
H324	H	1.735594	0.408719	1.816222
H325	H	1.063058	-0.784248	0.299456
H326	H	1.396391	-0.450914	0.632790
H327	H	1.729725	-0.117581	0.966123
H328	H	0.928911	-1.110060	0.414047
H329	H	1.262244	-0.776727	0.747381
H330	H	1.595578	-0.443394	1.080714
H331	H	0.934526	-0.977231	0.409181
H332	H	1.267860	-0.643898	0.742515
H333	H	1.601193	-0.310565	1.075848
H334	H	0.913956	-0.458883	0.711871
H335	H	1.247289	-0.125550	1.045204
H336	H	1.580622	0.207784	1.378537
N337	N	0.901603	-0.470070	1.124101
N338	N	1.234937	-0.136737	1.457434
N339	N	1.568270	0.196597	1.790767
H340	H	0.908701	-0.463541	1.170541
H341	H	1.242034	-0.130208	1.503875
H342	H	1.575367	0.203126	1.837208
H343	H	0.910349	-0.520611	1.114923
H344	H	1.243682	-0.187278	1.448256
H345	H	1.577015	0.146056	1.781589
N346	N	0.901593	-0.470107	0.988097
N347	N	1.234926	-0.136774	1.321430
N348	N	1.568259	0.196559	1.654764
H349	H	0.871960	-0.497278	1.018649
H350	H	1.205293	-0.163945	1.351983
H351	H	1.538627	0.169388	1.685316
H352	H	0.928712	-0.503787	0.963262
H353	H	1.262045	-0.170453	1.296595
H354	H	1.595379	0.162880	1.629928
H355	H	0.269783	-0.311082	0.289404
H356	H	0.603117	0.022252	0.622737
H357	H	0.936450	0.355585	0.956070
H358	H	1.057151	-0.870775	0.304549
H359	H	1.390484	-0.537442	0.637882
H360	H	1.723817	-0.204109	0.971216
N361	N	0.894471	-0.634330	0.443174
N362	N	1.227804	-0.300997	0.776508
N363	N	1.561137	0.032337	1.109841
H364	H	0.864601	-0.667426	0.468664
H365	H	1.197935	-0.334093	0.801997
H366	H	1.531268	-0.000759	1.135330
H367	H	0.863325	-0.602605	0.415250
H368	H	1.196658	-0.269271	0.748583
H369	H	1.529992	0.064062	1.081917
