data_functionalizedCrystal
_audit_creation_method	'MofGen! by Chris Wilmer'
_symmetry_space_group_name_H-M	'P1'
_symmetry_Int_Tables_number	1
_symmetry_cell_setting	triclinic
loop_
_symmetry_equiv_pos_as_xyz
  x,y,z
_cell_length_a	10.654556
_cell_length_b	14.044220
_cell_length_c	9.130313
_cell_angle_alpha	89.997493
_cell_angle_beta	89.999332
_cell_angle_gamma	88.838143
loop_
_atom_site_label
_atom_site_type_symbol
_atom_site_fract_x
_atom_site_fract_y
_atom_site_fract_z
O1	O	1.681220	0.133255	-0.121819
O2	O	1.317018	0.145943	-0.121819
O3	O	1.493652	0.001578	-0.121804
O4	O	1.504586	0.277620	-0.121833
O5	O	1.493650	0.001582	0.121794
O6	O	1.317016	0.145947	0.121780
O7	O	1.681218	0.133259	0.121780
Cu8	Cu	1.499117	0.139603	0.144022
Cu9	Cu	1.499119	0.139599	-0.144061
O10	O	1.504584	0.277623	0.121765
C11	C	1.270125	0.145012	-0.000019
C12	C	1.130402	0.142221	-0.000019
C13	C	0.933478	0.138292	-0.132816
C14	C	1.064763	0.140908	-0.132810
C15	C	1.064749	0.140907	0.132775
C16	C	0.933467	0.138284	0.132767
C17	C	0.933487	0.138296	-0.286150
C18	C	1.064773	0.140913	-0.286144
C19	C	1.488866	-0.033766	-0.000004
C20	C	1.474590	-0.139086	-0.000003
C21	C	1.448491	-0.331919	-0.000024
C22	C	1.549739	-0.388885	-0.000028
C23	C	1.535218	-0.496184	-0.000040
C24	C	1.463011	-0.224610	-0.000012
C25	C	1.728111	0.134190	-0.000023
C26	C	1.867834	0.136981	-0.000033
C27	C	1.509371	0.312967	-0.000038
C28	C	1.523646	0.418287	-0.000049
N29	N	1.499124	0.139606	0.346645
N30	N	1.499121	0.139588	-0.346684
C31	C	1.577362	0.075703	0.423303
C32	C	1.577358	0.075692	0.576640
C33	C	1.420874	0.203494	0.576647
C34	C	1.420873	0.203500	0.423313
C35	C	1.667711	0.001920	0.423301
C36	C	1.667706	0.001909	0.576638
H37	H	1.109690	0.073354	-0.333716
C38	C	1.681579	-0.345917	-0.000006
C39	C	1.721792	-0.280753	0.126507
C40	C	1.853626	-0.237781	0.126536
C41	C	1.945247	-0.259973	0.000052
C42	C	1.905036	-0.325140	-0.126471
C43	C	1.773202	-0.368112	-0.126500
H44	H	1.653966	-0.264322	0.220146
H45	H	1.883392	-0.189540	0.220196
H46	H	2.042839	-0.228162	0.000073
H47	H	1.972861	-0.341571	-0.220110
H48	H	1.743435	-0.416353	-0.220161
C49	C	1.334802	0.273786	0.338982
C50	C	1.248800	0.344115	0.423310
C51	C	1.162725	0.414402	0.338977
C52	C	1.162652	0.414360	0.170315
C53	C	1.248658	0.344028	0.085978
C54	C	1.334733	0.273741	0.170311
H55	H	1.248851	0.344149	0.548172
H56	H	1.099058	0.466467	0.401410
H57	H	1.098935	0.466391	0.107887
H58	H	1.248607	0.343994	-0.038884
H59	H	1.398400	0.221676	0.107878
H60	H	1.357163	0.255514	0.639086
C61	C	1.107448	0.231394	-0.365649
C62	C	1.071527	0.248070	-0.527128
C63	C	1.114212	0.338548	-0.606619
C64	C	1.192818	0.412351	-0.524631
C65	C	1.228743	0.395677	-0.363143
C66	C	1.186058	0.305199	-0.283652
H67	H	1.013335	0.193436	-0.587828
H68	H	1.087617	0.350891	-0.726164
H69	H	1.224416	0.479328	-0.583476
H70	H	1.286935	0.450312	-0.302443
H71	H	1.212652	0.292856	-0.164108
C72	C	1.628837	-0.096570	0.367069
C73	C	1.597491	-0.175976	0.476659
C74	C	1.558615	-0.274462	0.420427
C75	C	1.551086	-0.293542	0.254604
C76	C	1.582433	-0.214134	0.145004
C77	C	1.621309	-0.115648	0.201236
H78	H	1.603063	-0.161853	0.599420
H79	H	1.535410	-0.333245	0.501561
H80	H	1.522308	-0.366447	0.212978
H81	H	1.576861	-0.228256	0.022242
H82	H	1.644514	-0.056865	0.120101
C83	C	0.872795	0.229552	-0.350440
C84	C	0.728848	0.239909	-0.359649
C85	C	0.668154	0.331165	-0.423936
C86	C	0.751406	0.412065	-0.479015
C87	C	0.895362	0.401710	-0.469808
C88	C	0.956056	0.310454	-0.405521
H89	H	0.667211	0.180020	-0.318875
H90	H	0.561588	0.338830	-0.430751
H91	H	0.706477	0.479618	-0.526604
H92	H	0.956998	0.461599	-0.510582
H93	H	1.062622	0.302790	-0.398705
H94	H	1.765851	0.018163	0.618252
C95	C	1.136952	0.142349	0.278846
C96	C	1.222157	0.226375	0.315361
C97	C	1.294358	0.227819	0.461435
C98	C	1.281354	0.145236	0.570994
C99	C	1.196145	0.061203	0.534481
C100	C	1.123944	0.059759	0.388408
H101	H	1.231786	0.287514	0.234256
H102	H	1.357435	0.290026	0.488463
H103	H	1.334801	0.146305	0.679126
H104	H	1.186515	0.000065	0.615586
H105	H	1.060867	-0.002448	0.361380
H106	H	1.350912	-0.363731	-0.000027
C107	C	1.617164	-0.091180	0.640878
C108	C	1.701287	-0.153764	0.740511
C109	C	1.650754	-0.246855	0.804745
C110	C	1.516097	-0.277363	0.769346
C111	C	1.431965	-0.214779	0.669709
C112	C	1.482498	-0.121687	0.605474
H113	H	1.800976	-0.131181	0.766719
H114	H	1.713034	-0.293184	0.878503
H115	H	1.478689	-0.346275	0.816896
H116	H	1.332276	-0.237362	0.643500
H117	H	1.420218	-0.075358	0.531716
H118	H	0.880025	0.137197	0.240892
H119	H	0.901933	0.071321	-0.345022
H120	H	1.761216	0.025025	0.375740
