data_functionalizedCrystal
_audit_creation_method	'MofGen! by Chris Wilmer'
_symmetry_space_group_name_H-M	'P1'
_symmetry_Int_Tables_number	1
_symmetry_cell_setting	triclinic
loop_
_symmetry_equiv_pos_as_xyz
  x,y,z
_cell_length_a	16.109301
_cell_length_b	9.798715
_cell_length_c	16.109301
_cell_angle_alpha	90.004570
_cell_angle_beta	83.461481
_cell_angle_gamma	90.000966
loop_
_atom_site_label
_atom_site_type_symbol
_atom_site_fract_x
_atom_site_fract_y
_atom_site_fract_z
O1	O	1.103131	0.113409	0.106865
O2	O	0.861069	0.113431	0.120165
O3	O	0.988750	0.113406	-0.007516
O4	O	0.975450	0.113435	0.234546
O5	O	0.988740	-0.113577	-0.007516
O6	O	0.861060	-0.113551	0.120164
O7	O	1.103122	-0.113573	0.106865
Zn8	Zn	0.982089	-0.149600	0.113515
Zn9	Zn	0.982102	0.149458	0.113515
O10	O	0.975441	-0.113547	0.234546
C11	C	0.830090	-0.000057	0.119626
C12	C	0.737794	-0.000049	0.118011
N13	N	0.982087	-0.353700	0.113514
C14	C	0.515522	-0.000056	0.190018
C15	C	0.428801	-0.000065	0.188494
C16	C	0.448676	-0.000078	0.037006
C17	C	0.535394	-0.000078	0.038530
C18	C	0.568815	-0.000061	0.115039
C19	C	0.395376	-0.000069	0.111990
C20	C	0.301350	-0.000079	0.110337
C21	C	0.662847	-0.000054	0.116693
C22	C	1.035698	-0.421488	0.059670
C23	C	1.035712	-0.578650	0.059667
C24	C	1.134101	-0.000082	0.107404
C25	C	1.226397	-0.000081	0.109019
C26	C	0.988206	-0.000086	-0.038491
C27	C	0.986591	-0.000088	-0.130786
N28	N	0.982111	0.353558	0.113509
C29	C	1.058599	-0.000073	-0.353059
C30	C	1.057075	-0.000061	-0.439779
C31	C	0.905586	-0.000053	-0.419905
C32	C	0.907111	-0.000055	-0.333186
C33	C	0.983620	-0.000071	-0.299766
C34	C	0.980571	-0.000058	-0.473205
C35	C	0.978918	-0.000046	-0.567231
C36	C	0.985273	-0.000081	-0.205734
C37	C	0.975984	-0.000053	0.265521
C38	C	0.977600	-0.000042	0.357816
H39	H	0.542730	-0.000052	0.252317
O40	O	0.834195	-0.000115	-0.281530
C41	C	0.766339	-0.000077	-0.329621
H42	H	0.787451	-0.043052	-0.394352
H43	H	0.713805	-0.065970	-0.297614
H44	H	0.742891	0.108820	-0.335783
O45	O	1.132864	0.000107	-0.320494
C46	C	1.138286	0.117680	-0.270937
H47	H	1.072752	0.156869	-0.249316
H48	H	1.171417	0.091242	-0.214164
H49	H	1.175075	0.200000	-0.309258
H50	H	0.385413	-0.000064	0.249550
H51	H	0.578788	-0.000086	-0.022530
H52	H	1.118130	-0.000060	-0.483168
H53	H	0.936194	-0.412015	0.159607
O54	O	0.927431	-0.576978	0.168624
C55	C	0.941122	-0.611812	0.250887
H56	H	1.007686	-0.651165	0.251149
H57	H	0.931707	-0.517780	0.292572
H58	H	0.895046	-0.694655	0.275459
O59	O	0.416168	0.000160	-0.037290
C60	C	0.366587	0.117701	-0.042690
H61	H	0.387085	0.199867	0.000754
H62	H	0.374392	0.157159	-0.109697
H63	H	0.298195	0.091128	-0.023497
H64	H	1.081585	-0.363174	0.013571
O65	O	1.090435	-0.648037	0.004555
C66	C	1.076711	-0.613260	-0.077708
H67	H	1.044709	-0.509486	-0.077584
H68	H	1.139121	-0.608509	-0.118801
H69	H	1.035209	-0.693662	-0.103258
O70	O	0.831342	-0.000110	-0.452510
C71	C	0.846072	-0.000079	-0.540478
H72	H	0.910958	-0.043052	-0.560864
H73	H	0.797118	-0.065980	-0.567092
H74	H	0.842049	0.108815	-0.564612
