data_functionalizedCrystal
_audit_creation_method	'MofGen! by Chris Wilmer'
_symmetry_space_group_name_H-M	'P1'
_symmetry_Int_Tables_number	1
_symmetry_cell_setting	triclinic
loop_
_symmetry_equiv_pos_as_xyz
  x,y,z
_cell_length_a	16.959454
_cell_length_b	12.759401
_cell_length_c	12.759393
_cell_angle_alpha	89.981504
_cell_angle_beta	90.030714
_cell_angle_gamma	89.979764
loop_
_atom_site_label
_atom_site_type_symbol
_atom_site_fract_x
_atom_site_fract_y
_atom_site_fract_z
Zn1	Zn	-0.314632	-1.606216	0.593988
Zn2	Zn	-0.446833	-1.606094	0.418310
Zn3	Zn	-0.314673	-1.430518	0.418327
Zn4	Zn	-0.446772	-1.430490	0.593952
O5	O	-0.380727	-1.518330	0.506144
O6	O	-0.332177	-1.753221	0.570692
O7	O	-0.429345	-1.582764	0.271291
O8	O	-0.204057	-1.453888	0.441651
O9	O	-0.429304	-1.753131	0.441622
O10	O	-0.204026	-1.582972	0.570708
O11	O	-0.332247	-1.453769	0.271304
O12	O	-0.332188	-1.283493	0.441616
O13	O	-0.429201	-1.453840	0.740978
O14	O	-0.429241	-1.283473	0.570647
O15	O	-0.332118	-1.582945	0.741004
O16	O	-0.557436	-1.582737	0.441588
O17	O	-0.557391	-1.453722	0.570631
C18	C	-0.380713	-1.245362	0.506130
C19	C	-0.380726	-1.128586	0.506149
C20	C	-0.586094	-1.518242	0.506126
C21	C	-0.673950	-1.518300	0.506154
C22	C	-0.380648	-1.518403	0.780178
C23	C	-0.380614	-1.518435	0.896954
C24	C	-1.045433	-1.451249	0.573330
C25	C	-1.045419	-1.585703	0.439066
C26	C	-0.962873	-1.585666	0.439056
C27	C	-0.921603	-1.518419	0.506183
C28	C	-0.962879	-1.451208	0.573320
C29	C	-0.921591	-1.652869	0.371913
C30	C	-0.839040	-1.652834	0.371900
C31	C	-0.797769	-1.585591	0.439033
C32	C	-0.839050	-1.518378	0.506173
C33	C	-0.797780	-1.451130	0.573300
C34	C	-0.839059	-1.383922	0.640447
C35	C	-0.921607	-1.383965	0.640453
C36	C	-0.715220	-1.585548	0.439027
C37	C	-0.715226	-1.451089	0.573291
C38	C	-0.174559	-1.518447	0.506185
C39	C	-0.086703	-1.518496	0.506203
C40	C	-0.380743	-1.792363	0.506159
C41	C	-0.380749	-1.909140	0.506165
C42	C	-0.431342	-1.073740	0.573224
C43	C	-0.431352	-0.964016	0.573235
C44	C	-0.330127	-0.963992	0.439087
C45	C	-0.330114	-1.073714	0.439082
C46	C	-0.481954	-1.128612	0.640291
C47	C	-0.532575	-1.073766	0.707370
C48	C	-0.532585	-0.964042	0.707382
C49	C	-0.481974	-0.909164	0.640313
C50	C	-0.380750	-1.518317	0.233177
C51	C	-0.380561	-1.518489	0.116401
C52	C	-0.330058	-1.585669	0.951832
C53	C	-0.330029	-1.585694	1.061556
C54	C	-0.431119	-1.451247	1.061516
C55	C	-0.431143	-1.451218	0.951793
C56	C	-0.279528	-1.652886	0.896993
C57	C	-0.228968	-1.720126	0.951870
C58	C	-0.228940	-1.720151	1.061594
C59	C	-0.279471	-1.652935	1.116441
H60	H	-0.681629	-1.396332	0.627958
H61	H	-0.481953	-1.217954	0.640287
F62	F	-1.089364	-1.379729	0.644792
H63	H	-0.187766	-1.774894	1.106273
F64	F	-0.279428	-1.652953	1.233221
H65	H	-0.279547	-1.652875	0.807650
F66	F	-0.586431	-1.132173	0.778751
H67	H	-0.472259	-1.396523	1.106180
H68	H	-0.681615	-1.640263	0.384352
F69	F	-0.276242	-1.132088	0.367693
H70	H	-0.805447	-1.329164	0.695097
F71	F	-0.175183	-1.791644	0.893498
F72	F	-0.481981	-0.792384	0.640337
F73	F	-0.965545	-1.312442	0.711907
F74	F	-0.276269	-0.905583	0.367712
H75	H	-0.472299	-1.396454	0.907111
H76	H	-1.079026	-1.640447	0.384408
H77	H	-0.955199	-1.707610	0.317254
F78	F	-0.795115	-1.724368	0.300444
H79	H	-0.573797	-0.919390	0.762009
