data_functionalizedCrystal
_audit_creation_method	'MofGen! by Chris Wilmer'
_symmetry_space_group_name_H-M	'P1'
_symmetry_Int_Tables_number	1
_symmetry_cell_setting	triclinic
loop_
_symmetry_equiv_pos_as_xyz
  x,y,z
_cell_length_a	19.805407
_cell_length_b	16.120484
_cell_length_c	19.805399
_cell_angle_alpha	92.871043
_cell_angle_beta	89.980427
_cell_angle_gamma	92.925608
loop_
_atom_site_label
_atom_site_type_symbol
_atom_site_fract_x
_atom_site_fract_y
_atom_site_fract_z
Zn1	Zn	1.021075	-0.331927	-0.396377
Zn2	Zn	1.015252	-0.471346	-0.288925
Zn3	Zn	0.907889	-0.331950	-0.283203
Zn4	Zn	0.902117	-0.471302	-0.402070
O5	O	0.961584	-0.401631	-0.342644
O6	O	1.115019	-0.350431	-0.382136
O7	O	1.000989	-0.452883	-0.193451
O8	O	0.927756	-0.215281	-0.293438
O9	O	1.110741	-0.452861	-0.303191
O10	O	1.010913	-0.215264	-0.376587
O11	O	0.922109	-0.350470	-0.189246
O12	O	0.812407	-0.350427	-0.298958
O13	O	0.917919	-0.452785	-0.496030
O14	O	0.808167	-0.452807	-0.386290
O15	O	1.005317	-0.350388	-0.491848
O16	O	0.995392	-0.588006	-0.308712
O17	O	0.912273	-0.587974	-0.391839
C18	C	0.785728	-0.401615	-0.342621
C19	C	0.710496	-0.401629	-0.342628
C20	C	0.672958	-0.455019	-0.388035
C21	C	0.602269	-0.455020	-0.388045
C22	C	0.569120	-0.401635	-0.342644
C23	C	0.606663	-0.348239	-0.297235
C24	C	0.677350	-0.348234	-0.297229
C25	C	0.321589	-0.348258	-0.297258
C26	C	0.250896	-0.348269	-0.297266
C27	C	0.246508	-0.455043	-0.388074
C28	C	0.317195	-0.455038	-0.388068
C29	C	0.354732	-0.401640	-0.342662
C30	C	0.431381	-0.401638	-0.342653
C31	C	0.492472	-0.401641	-0.342649
C32	C	0.952593	-0.618240	-0.351529
C33	C	0.948809	-0.710906	-0.355353
C34	C	0.941903	-0.880568	-0.362347
C35	C	0.981385	-0.921854	-0.322951
C36	C	0.977543	-1.016260	-0.326843
C37	C	0.945745	-0.786154	-0.358456
C38	C	1.138126	-0.401648	-0.342667
C39	C	1.213357	-0.401655	-0.342677
C40	C	0.961624	-0.401579	-0.519184
C41	C	0.961641	-0.401556	-0.594416
C42	C	0.970628	-0.184177	-0.333739
C43	C	0.974482	-0.091511	-0.329944
C44	C	1.007150	-0.348235	-0.627583
C45	C	1.007158	-0.348211	-0.698270
C46	C	0.961659	-0.401513	-0.735789
C47	C	0.916145	-0.454836	-0.702617
C48	C	0.916135	-0.454856	-0.631931
C49	C	0.916187	-0.454759	-0.987688
C50	C	0.916202	-0.454737	-1.058379
C51	C	1.007210	-0.348114	-1.054027
C52	C	1.007199	-0.348133	-0.983340
C53	C	0.961683	-0.401453	-0.950174
C54	C	0.961674	-0.401478	-0.873527
C55	C	0.961671	-0.401493	-0.812436
C56	C	0.961585	-0.401623	-0.166787
C57	C	0.961709	-0.401411	-0.091547
H58	H	0.215937	-0.498520	-0.425048
H59	H	0.352142	-0.304784	-0.260281
H60	H	0.707913	-0.304754	-0.260258
H61	H	0.579667	-0.304769	-0.260272
O62	O	1.025245	-0.879480	-0.279295
C63	C	1.091855	-0.900607	-0.294985
H64	H	1.094292	-0.924560	-0.350028
H65	H	1.127582	-0.843259	-0.286863
H66	H	1.107553	-0.951083	-0.260752
O67	O	0.349369	-0.506807	-0.432265
C68	C	0.332861	-0.488707	-0.499006
H69	H	0.316192	-0.422112	-0.499779
H70	H	0.379062	-0.495936	-0.532729
H71	H	0.289983	-0.533437	-0.518478
H72	H	0.699943	-0.498494	-0.425004
H73	H	0.571709	-0.498496	-0.425019
O74	O	0.898151	-0.923106	-0.406008
C75	C	0.904016	-1.009260	-0.400224
H76	H	0.925751	-1.021062	-0.348489
H77	H	0.851989	-1.042481	-0.406101
H78	H	0.939049	-1.033902	-0.441404
H79	H	0.879134	-0.498187	-0.960693
O80	O	1.051373	-0.296379	-0.591241
C81	C	1.091552	-0.249325	-0.635677
H82	H	1.063955	-0.246424	-0.685941
H83	H	1.101501	-0.183644	-0.612567
H84	H	1.141689	-0.279857	-0.644456
H85	H	1.044217	-0.304794	-0.725272
O86	O	1.051421	-0.296277	-0.946997
C87	C	1.091602	-0.249222	-0.991430
H88	H	1.064008	-0.246319	-1.041695
H89	H	1.101549	-0.183541	-0.968318
H90	H	1.141740	-0.279752	-1.000206
H91	H	0.879149	-0.498143	-1.088925
H92	H	0.223908	-0.304791	-0.260295
O93	O	1.051355	-0.296336	-1.086351
C94	C	1.041621	-0.307756	-1.156786
H95	H	0.988252	-0.335050	-1.167549
H96	H	1.048815	-0.245299	-1.181092
H97	H	1.079924	-0.352150	-1.178674
H98	H	0.879097	-0.498232	-0.733171
O99	O	0.871911	-0.506741	-0.599818
C100	C	0.831747	-0.553774	-0.648089
H101	H	0.859355	-0.556640	-0.698602
H102	H	0.821802	-0.619469	-0.630356
H103	H	0.781607	-0.523247	-0.654342
