data_functionalizedCrystal
_audit_creation_method	'MofGen! by Chris Wilmer'
_symmetry_space_group_name_H-M	'P1'
_symmetry_Int_Tables_number	1
_symmetry_cell_setting	triclinic
loop_
_symmetry_equiv_pos_as_xyz
  x,y,z
_cell_length_a	14.908571
_cell_length_b	16.120484
_cell_length_c	14.908308
_cell_angle_alpha	95.986071
_cell_angle_beta	90.175053
_cell_angle_gamma	89.787312
loop_
_atom_site_label
_atom_site_type_symbol
_atom_site_fract_x
_atom_site_fract_y
_atom_site_fract_z
Zn1	Zn	1.320097	-0.434923	-0.609960
Zn2	Zn	1.820097	0.065077	-0.109960
Zn3	Zn	1.321040	-0.566744	-0.466383
Zn4	Zn	1.821040	-0.066744	0.033617
Zn5	Zn	1.179340	-0.418915	-0.450134
Zn6	Zn	1.679340	0.081085	0.049866
Zn7	Zn	1.162126	-0.565754	-0.607984
Zn8	Zn	1.662126	-0.065754	-0.107984
O9	O	1.245651	-0.496584	-0.533615
O10	O	1.745651	0.003416	-0.033615
O11	O	1.445636	-0.459523	-0.598542
O12	O	1.945636	0.040477	-0.098542
O13	O	1.309843	-0.540849	-0.338080
O14	O	1.809843	-0.040849	0.161920
O15	O	1.204822	-0.304418	-0.465363
O16	O	1.704822	0.195582	0.034637
O17	O	1.446329	-0.556371	-0.493056
O18	O	1.946329	-0.056371	0.006944
O19	O	1.308235	-0.316179	-0.582786
O20	O	1.808235	0.183821	-0.082786
O21	O	1.205736	-0.432240	-0.326142
O22	O	1.705736	0.067760	0.173858
O23	O	1.051643	-0.431280	-0.463446
O24	O	1.551643	0.068720	0.036554
O25	O	1.175482	-0.554684	-0.734394
O26	O	1.675482	-0.054684	-0.234394
O27	O	1.038995	-0.539162	-0.579418
O28	O	1.538995	-0.039162	-0.079418
O29	O	1.291543	-0.458562	-0.735846
O30	O	1.791543	0.041438	-0.235846
O31	O	1.293150	-0.683233	-0.491140
O32	O	1.793150	-0.183233	0.008860
O33	O	1.176396	-0.682506	-0.595173
O34	O	1.676396	-0.182506	-0.095173
C35	C	1.012801	-0.483377	-0.519455
C36	C	1.512801	0.016623	-0.019455
C37	C	0.913184	-0.477748	-0.513419
C38	C	1.413184	0.022252	-0.013419
C39	C	1.233031	-0.713110	-0.544726
C40	C	1.733031	-0.213110	-0.044726
C41	C	1.227712	-0.805747	-0.549515
C42	C	1.727712	-0.305747	-0.049515
C43	C	0.712871	-0.579666	-0.622692
C44	C	1.212871	-0.079666	-0.122692
C45	C	0.619272	-0.574380	-0.617025
C46	C	1.119272	-0.074380	-0.117025
C47	C	0.632384	-0.461887	-0.496421
C48	C	1.132384	0.038113	0.003579
C49	C	0.725983	-0.467173	-0.502089
C50	C	1.225983	0.032827	-0.002089
C51	C	0.766223	-0.526065	-0.565226
C52	C	1.266223	-0.026065	-0.065226
C53	C	0.859824	-0.531355	-0.570888
C54	C	1.359824	-0.031355	-0.070888
C55	C	0.872935	-0.418858	-0.450290
C56	C	1.372935	0.081142	0.049710
C57	C	0.779335	-0.413572	-0.444622
C58	C	1.279335	0.086428	0.055378
C59	C	1.218005	-0.975358	-0.558276
C60	C	1.718005	-0.475358	-0.058276
C61	C	1.273456	-1.016980	-0.508979
C62	C	1.773456	-0.516980	-0.008979
C63	C	1.268055	-1.111356	-0.513854
C64	C	1.768055	-0.611356	-0.013854
C65	C	1.223405	-0.880972	-0.553403
C66	C	1.723405	-0.380972	-0.053403
C67	C	1.479410	-0.509843	-0.547832
C68	C	1.979410	-0.009843	-0.047832
C69	C	1.579025	-0.515493	-0.553890
C70	C	2.079025	-0.015493	-0.053890
C71	C	1.231487	-0.508298	-0.768743
C72	C	1.731487	-0.008298	-0.268743
C73	C	1.225451	-0.513290	-0.868941
C74	C	1.725451	-0.013290	-0.368941
C75	C	1.258344	-0.279214	-0.522482
C76	C	1.758344	0.220786	-0.022482
C77	C	1.263752	-0.186584	-0.517738
C78	C	1.763752	0.313416	-0.017738
C79	C	1.334963	-0.422560	-1.058735
C80	C	1.834963	0.077440	-0.558735
C81	C	1.329294	-0.427248	-1.152880
C82	C	1.829294	0.072752	-0.652880
C83	C	1.208443	-0.527348	-1.151376
C84	C	1.708443	-0.027348	-0.651376
C85	C	1.214111	-0.522661	-1.057231
C86	C	1.714111	-0.022661	-0.557231
C87	C	1.277374	-0.470266	-1.010914
C88	C	1.777374	0.029734	-0.510914
C89	C	1.283046	-0.465583	-0.916769
C90	C	1.783046	0.034417	-0.416769
C91	C	1.162191	-0.565679	-0.915266
C92	C	1.662191	-0.065679	-0.415266
C93	C	1.156523	-0.570366	-1.009410
C94	C	1.656523	-0.070366	-0.509410
C95	C	1.259815	-0.484858	-0.299402
C96	C	1.759815	0.015142	0.200598
C97	C	1.266038	-0.479641	-0.199204
C98	C	1.766038	0.020359	0.300796
H99	H	0.892586	-0.579309	-0.622296
H100	H	1.392586	-0.079309	-0.122296
C101	C	1.341909	-0.321119	-1.253754
C102	C	1.841909	0.178881	-0.753754
C103	C	1.392597	-0.374806	-1.205443
C104	C	1.892597	0.125194	-0.705443
H105	H	1.380992	-0.288739	-1.286198
H106	H	1.880992	0.211261	-0.786198
H107	H	1.303435	-0.352994	-1.294814
H108	H	1.803435	0.147006	-0.794814
H109	H	1.306933	-0.285206	-1.213009
H110	H	1.806933	0.214794	-0.713009
H111	H	1.427569	-0.410724	-1.246188
H112	H	1.927569	0.089276	-0.746188
H113	H	1.431086	-0.342929	-1.164379
H114	H	1.931086	0.157071	-0.664379
C115	C	1.360338	-0.305902	-0.947863
C116	C	1.860338	0.194098	-0.447863
C117	C	1.404502	-0.364977	-1.007814
C118	C	1.904502	0.135023	-0.507814
H119	H	1.403273	-0.270357	-0.916424
H120	H	1.903273	0.229643	-0.416424
H121	H	1.320954	-0.273636	-0.980583
H122	H	1.820954	0.226364	-0.480583
H123	H	1.326849	-0.333650	-0.905915
H124	H	1.826849	0.166350	-0.405915
H125	H	1.437986	-0.337229	-1.049767
H126	H	1.937986	0.162771	-0.549767
H127	H	1.443902	-0.397247	-0.975092
H128	H	1.943902	0.102753	-0.475092
H129	H	0.745635	-0.627623	-0.674096
H130	H	1.245635	-0.127623	-0.174096
H131	H	0.599604	-0.413934	-0.445024
H132	H	1.099604	0.086066	0.054976
H133	H	1.115300	-0.604527	-0.876320
H134	H	1.615300	-0.104527	-0.376320
C135	C	1.393244	-1.026196	-0.402414
C136	C	1.893244	-0.526196	0.097586
C137	C	1.343017	-0.969406	-0.447055
C138	C	1.843017	-0.469406	0.052945
H139	H	1.436188	-0.996822	-0.364190
H140	H	1.936188	-0.496822	0.135810
H141	H	1.354393	-1.056267	-0.367255
H142	H	1.854393	-0.556267	0.132745
H143	H	1.423226	-1.064004	-0.445526
H144	H	1.923226	-0.564004	0.054474
H145	H	1.313030	-0.931602	-0.403943
H146	H	1.813030	-0.431602	0.096057
H147	H	1.381873	-0.939321	-0.482217
H148	H	1.881873	-0.439321	0.017783
C149	C	1.163508	-1.007462	-0.709589
C150	C	1.663508	-0.507462	-0.209589
C151	C	1.148443	-1.022933	-0.620187
C152	C	1.648443	-0.522933	-0.120187
H153	H	1.120565	-1.036846	-0.747806
H154	H	1.620565	-0.536846	-0.247806
H155	H	1.158048	-0.949369	-0.714394
H156	H	1.658048	-0.449369	-0.214394
H157	H	1.222124	-1.025694	-0.727202
H158	H	1.722124	-0.525694	-0.227202
H159	H	1.089829	-1.004695	-0.602571
H160	H	1.589829	-0.504695	-0.102571
H161	H	1.153895	-1.081038	-0.615378
H162	H	1.653895	-0.581038	-0.115378
H163	H	0.575836	-0.618026	-0.663822
H164	H	1.075836	-0.118026	-0.163822
C165	C	1.131161	-0.687033	-1.120273
C166	C	1.631161	-0.187033	-0.620273
C167	C	1.086989	-0.627959	-1.060327
C168	C	1.586989	-0.127959	-0.560327
H169	H	1.088232	-0.722592	-1.151700
H170	H	1.588232	-0.222592	-0.651700
H171	H	1.164636	-0.659289	-1.162224
H172	H	1.664636	-0.159289	-0.662224
H173	H	1.170560	-0.719290	-1.087545
H174	H	1.670560	-0.219290	-0.587545
H175	H	1.047594	-0.595698	-1.093056
H176	H	1.547594	-0.095698	-0.593056
H177	H	1.053498	-0.655706	-1.018370
H178	H	1.553498	-0.155706	-0.518370
H179	H	0.746559	-0.365621	-0.393220
H180	H	1.246559	0.134379	0.106780
H181	H	1.156937	-0.570005	-1.189103
H182	H	1.656937	-0.070005	-0.689103
C183	C	1.022236	-0.377009	-0.405420
C184	C	1.522236	0.122991	0.094580
C185	C	0.931582	-0.359934	-0.387117
C186	C	1.431582	0.140066	0.112883
H187	H	1.058441	-0.340631	-0.366421
H188	H	1.558441	0.159369	0.133579
H189	H	1.035111	-0.433184	-0.395932
H190	H	1.535111	0.066816	0.104068
H191	H	1.034639	-0.368778	-0.466318
H192	H	1.534639	0.131222	0.033682
H193	H	0.919177	-0.368171	-0.326220
H194	H	1.419177	0.131829	0.173780
H195	H	0.918702	-0.303746	-0.396597
H196	H	1.418702	0.196254	0.103403
C197	C	1.308403	-0.348916	-0.805906
C198	C	1.808403	0.151084	-0.305906
C199	C	1.352578	-0.407987	-0.865853
C200	C	1.852578	0.092013	-0.365853
H201	H	1.351330	-0.313360	-0.774472
H202	H	1.851330	0.186640	-0.274472
H203	H	1.269008	-0.316662	-0.838628
H204	H	1.769008	0.183338	-0.338628
H205	H	1.274923	-0.376668	-0.763953
H206	H	1.774923	0.123332	-0.263953
H207	H	1.386052	-0.380236	-0.907811
H208	H	1.886052	0.119764	-0.407811
H209	H	1.391988	-0.440245	-0.833129
H210	H	1.891988	0.059755	-0.333129
