data_functionalizedCrystal
_audit_creation_method	'MofGen! by Chris Wilmer'
_symmetry_space_group_name_H-M	'P1'
_symmetry_Int_Tables_number	1
_symmetry_cell_setting	triclinic
loop_
_symmetry_equiv_pos_as_xyz
  x,y,z
_cell_length_a	19.188905
_cell_length_b	19.188930
_cell_length_c	9.730223
_cell_angle_alpha	89.993564
_cell_angle_beta	89.992681
_cell_angle_gamma	83.139668
loop_
_atom_site_label
_atom_site_type_symbol
_atom_site_fract_x
_atom_site_fract_y
_atom_site_fract_z
O1	O	0.926152	0.087081	-0.114532
O2	O	0.722838	0.098834	-0.114487
O3	O	0.830362	-0.008699	-0.114484
O4	O	0.818628	0.194614	-0.114535
O5	O	0.830361	-0.008696	0.114096
O6	O	0.722837	0.098837	0.114093
O7	O	0.926151	0.087084	0.114048
Zn8	Zn	0.824494	0.092961	0.150363
Zn9	Zn	0.824495	0.092957	-0.150801
O10	O	0.818627	0.194617	0.114045
C11	C	0.696826	0.098458	-0.000191
C12	C	0.619321	0.097324	-0.000172
C13	C	0.582930	0.096778	-0.124775
C14	C	0.510106	0.095705	-0.124792
C15	C	0.473678	0.095164	-0.000199
C16	C	0.510078	0.095714	0.124420
C17	C	0.582899	0.096794	0.124433
N18	N	0.364657	0.053736	0.092534
N19	N	0.295480	0.052709	0.092513
C20	C	0.254272	0.091911	-0.000231
N21	N	0.284854	0.132171	-0.092974
N22	N	0.354038	0.133196	-0.092957
C23	C	0.394716	0.093993	-0.000199
C24	C	0.138917	0.090203	-0.124861
C25	C	0.066091	0.089134	-0.124872
C26	C	0.066065	0.089136	0.124343
C27	C	0.138888	0.090212	0.124351
C28	C	0.175310	0.090742	-0.000255
C29	C	0.829982	-0.034708	-0.000190
C30	C	0.828841	-0.112213	-0.000178
C31	C	0.891933	-0.157142	-0.000185
C32	C	0.890861	-0.229966	-0.000207
C33	C	0.826694	-0.257857	-0.000194
C34	C	0.763594	-0.212917	-0.000194
C35	C	0.764668	-0.140095	-0.000186
N36	N	0.777646	-0.365856	0.077607
N37	N	0.776630	-0.435035	0.077603
C38	C	0.823456	-0.477265	-0.000221
N39	N	0.871346	-0.447705	-0.078022
N40	N	0.872363	-0.378520	-0.078011
C41	C	0.825523	-0.336819	-0.000203
C42	C	0.885390	-0.601159	-0.000254
C43	C	0.884315	-0.673984	-0.000284
C44	C	0.757047	-0.656933	-0.000257
C45	C	0.758123	-0.584110	-0.000241
C46	C	0.822296	-0.556228	-0.000232
C47	C	0.952163	0.087460	-0.000251
C48	C	1.029668	0.088594	-0.000278
C49	C	0.819007	0.220626	-0.000252
C50	C	0.820148	0.298131	-0.000273
N51	N	0.824498	0.092963	0.355899
N52	N	0.824497	0.092950	-0.356338
C53	C	0.872121	0.045363	0.427827
C54	C	0.872119	0.045355	0.571709
C55	C	0.776868	0.140551	0.571725
C56	C	0.776867	0.140556	0.427845
C57	C	0.919752	-0.002230	0.355881
C58	C	0.967380	-0.049833	0.427809
C59	C	0.967378	-0.049841	0.571692
C60	C	0.919748	-0.002247	0.643647
H61	H	0.036462	0.088694	-0.226343
H62	H	0.612528	0.097239	0.225903
H63	H	0.704801	-0.679641	-0.000253
H64	H	0.738090	0.179301	0.630320
C65	C	0.955978	-0.570484	-0.000263
C66	C	0.974217	-0.522751	-0.118950
C67	C	1.044806	-0.492079	-0.118961
C68	C	1.097156	-0.509140	-0.000284
C69	C	1.078919	-0.556876	0.118412
C70	C	1.008330	-0.587548	0.118423
H71	H	0.935463	-0.510118	-0.206810
H72	H	1.058307	-0.456742	-0.206828
H73	H	1.149411	-0.486435	-0.000292
H74	H	1.117673	-0.569508	0.206272
H75	H	0.994829	-0.622885	0.206290
C76	C	0.962523	-0.126475	-0.000201
C77	C	1.014874	-0.143531	0.118476
C78	C	1.085466	-0.112864	0.118451
C79	C	1.103706	-0.065140	-0.000250
C80	C	1.051353	-0.048081	-0.118936
C81	C	0.980762	-0.078748	-0.118912
H82	H	1.001373	-0.178862	0.206354
H83	H	1.124220	-0.125492	0.206311
H84	H	1.155962	-0.042438	-0.000269
H85	H	1.064854	-0.012750	-0.206814
H86	H	0.942007	-0.066120	-0.206772
H87	H	0.935694	-0.710565	-0.000297
C88	C	0.695262	-0.090668	-0.000167
C89	C	0.678501	-0.038247	-0.118849
C90	C	0.609095	0.011182	-0.118826
C91	C	0.556450	0.008189	-0.000121
C92	C	0.573211	-0.044234	0.118569
C93	C	0.642617	-0.093662	0.118546
H94	H	0.717472	-0.036030	-0.206729
H95	H	0.596688	0.049989	-0.206689
H96	H	0.505072	0.044780	-0.000105
H97	H	0.534239	-0.046450	0.206449
H98	H	0.655023	-0.132469	0.206409
H99	H	0.612580	0.097209	-0.226239
C100	C	0.178985	0.090794	-0.261920
C101	C	0.138950	0.090205	-0.398988
C102	C	0.179017	0.090797	-0.536047
C103	C	0.259118	0.091979	-0.536040
C104	C	0.299158	0.092568	-0.398967
C105	C	0.259091	0.091976	-0.261907
H106	H	0.079650	0.089331	-0.398998
H107	H	0.149376	0.090361	-0.637517
H108	H	0.288778	0.092417	-0.637500
H109	H	0.358458	0.093442	-0.398957
H110	H	0.288732	0.092412	-0.160437
H111	H	0.036406	0.088700	0.225789
H112	H	0.706747	-0.547527	-0.000227
C113	C	0.960265	-0.279400	-0.000201
C114	C	1.030852	-0.248731	-0.000189
C115	C	1.100256	-0.298163	-0.000178
C116	C	1.099073	-0.378264	-0.000180
C117	C	1.028484	-0.408938	-0.000192
C118	C	0.959080	-0.359506	-0.000202
H119	H	1.031730	-0.189432	-0.000188
H120	H	1.152511	-0.275456	-0.000169
H121	H	1.150450	-0.414857	-0.000172
H122	H	1.027606	-0.468237	-0.000193
H123	H	0.906825	-0.382213	-0.000211
C124	C	0.724482	0.192918	0.348717
C125	C	0.672124	0.245300	0.427853
C126	C	0.619736	0.297661	0.348727
C127	C	0.619705	0.297639	0.190464
C128	C	0.672065	0.245254	0.111319
C129	C	0.724453	0.192894	0.190445
H130	H	0.672145	0.245318	0.545017
H131	H	0.580975	0.336439	0.407316
H132	H	0.580924	0.336399	0.131890
H133	H	0.672044	0.245237	-0.005845
H134	H	0.763214	0.154116	0.131856
H135	H	0.480470	0.095261	-0.226261
H136	H	1.006155	-0.088586	0.369215
C137	C	0.693009	-0.243593	-0.000181
C138	C	0.691825	-0.323694	-0.000184
C139	C	0.621238	-0.354369	-0.000181
C140	C	0.551834	-0.304943	-0.000175
C141	C	0.553016	-0.224837	-0.000172
C142	C	0.623604	-0.194162	-0.000175
H143	H	0.743204	-0.360287	-0.000188
H144	H	0.620363	-0.413669	-0.000183
H145	H	0.499581	-0.327651	-0.000173
H146	H	0.501637	-0.188245	-0.000168
H147	H	0.624478	-0.134863	-0.000173
H148	H	0.168519	0.090652	0.225816
H149	H	0.919746	-0.002262	0.760806
H150	H	0.919759	-0.002226	0.238724
H151	H	0.480413	0.095275	0.225864
H152	H	1.006154	-0.088606	0.630254
