data_functionalizedCrystal
_audit_creation_method	'MofGen! by Chris Wilmer'
_symmetry_space_group_name_H-M	'P1'
_symmetry_Int_Tables_number	1
_symmetry_cell_setting	triclinic
loop_
_symmetry_equiv_pos_as_xyz
  x,y,z
_cell_length_a	18.050591
_cell_length_b	12.759400
_cell_length_c	12.759393
_cell_angle_alpha	89.968436
_cell_angle_beta	90.029518
_cell_angle_gamma	89.991882
loop_
_atom_site_label
_atom_site_type_symbol
_atom_site_fract_x
_atom_site_fract_y
_atom_site_fract_z
Zn1	Zn	-1.135412	-0.418388	-0.594290
Zn2	Zn	-0.635412	0.081612	-0.094290
Zn3	Zn	-1.135337	-0.594107	-0.418610
Zn4	Zn	-0.635337	-0.094107	0.081390
Zn5	Zn	-1.011217	-0.418423	-0.418596
Zn6	Zn	-0.511217	0.081577	0.081404
Zn7	Zn	-1.011209	-0.594006	-0.594218
Zn8	Zn	-0.511209	-0.094006	-0.094218
O9	O	-1.073294	-0.506231	-0.506429
O10	O	-0.573294	-0.006231	-0.006429
O11	O	-1.239327	-0.441726	-0.571022
O12	O	-0.739327	0.058274	-0.071022
O13	O	-1.118845	-0.570859	-0.271587
O14	O	-0.618845	-0.070859	0.228413
O15	O	-1.027726	-0.271397	-0.441926
O16	O	-0.527726	0.228603	0.058074
O17	O	-1.239272	-0.570826	-0.441951
O18	O	-0.739272	-0.070826	0.058049
O19	O	-1.118972	-0.271372	-0.571008
O20	O	-0.618972	0.228628	-0.071008
O21	O	-1.027654	-0.441784	-0.271577
O22	O	-0.527654	0.058216	0.228423
O23	O	-0.907291	-0.441686	-0.441856
O24	O	-0.407291	0.058314	0.058144
O25	O	-1.027712	-0.570653	-0.741249
O26	O	-0.527712	-0.070653	-0.241249
O27	O	-0.907285	-0.570686	-0.570885
O28	O	-0.407285	-0.070686	-0.070885
O29	O	-1.118964	-0.441627	-0.741302
O30	O	-0.618964	0.058373	-0.241302
O31	O	-1.118837	-0.741115	-0.441881
O32	O	-0.618837	-0.241115	0.058119
O33	O	-1.027640	-0.741040	-0.570899
O34	O	-0.527640	-0.241040	-0.070899
C35	C	-0.880342	-0.506180	-0.506362
C36	C	-0.380342	-0.006180	-0.006362
C37	C	-0.797796	-0.506183	-0.506358
C38	C	-0.297796	-0.006183	-0.006358
C39	C	-0.548952	-0.435942	-0.436340
C40	C	-0.048952	0.064058	0.063660
C41	C	-0.598388	-0.410345	-0.532224
C42	C	-0.098388	0.089655	-0.032224
C43	C	-0.500675	-0.506214	-0.506422
C44	C	-0.000675	-0.006214	-0.006422
C45	C	-0.598321	-0.531746	-0.410512
C46	C	-0.098321	-0.031746	0.089488
C47	C	-0.646660	-0.506196	-0.506386
C48	C	-0.146660	-0.006196	-0.006386
C49	C	-0.549024	-0.480569	-0.602358
C50	C	-0.049024	0.019431	-0.102358
C51	C	-0.548953	-0.602014	-0.480581
C52	C	-0.048953	-0.102014	0.019419
C53	C	-0.598367	-0.576454	-0.576531
C54	C	-0.098367	-0.076454	-0.076531
C55	C	-0.416577	-0.506222	-0.506442
C56	C	0.083423	-0.006222	-0.006442
C57	C	-0.730757	-0.506189	-0.506377
C58	C	-0.230757	-0.006189	-0.006377
C59	C	-1.073250	-0.779198	-0.506407
C60	C	-0.573250	-0.279198	-0.006407
C61	C	-1.073299	-0.895975	-0.506432
C62	C	-0.573299	-0.395975	-0.006432
C63	C	-1.120838	-0.950841	-0.439327
C64	C	-0.620838	-0.450841	0.060673
C65	C	-1.120883	-1.060565	-0.439359
C66	C	-0.620883	-0.560565	0.060641
C67	C	-1.025845	-1.060547	-0.573606
C68	C	-0.525845	-0.560547	-0.073606
C69	C	-1.025803	-0.950825	-0.573578
C70	C	-0.525803	-0.450825	-0.073578
C71	C	-1.175705	-0.950852	-0.361818
C72	C	-0.675705	-0.450852	0.138182
C73	C	-1.175751	-1.060576	-0.361850
C74	C	-0.675751	-0.560576	0.138150
C75	C	-0.266999	-0.506265	-0.506478
C76	C	0.233001	-0.006265	-0.006478
C77	C	-0.349545	-0.506231	-0.506451
C78	C	0.150455	-0.006231	-0.006451
C79	C	-1.073346	-0.506125	-0.780462
C80	C	-0.573346	-0.006125	-0.280462
C81	C	-1.073368	-0.506080	-0.897239
C82	C	-0.573368	-0.006080	-0.397239
C83	C	-1.073358	-0.232198	-0.506474
C84	C	-0.573358	0.267802	-0.006474
C85	C	-1.073386	-0.115421	-0.506493
C86	C	-0.573386	0.384579	-0.006493
C87	C	-1.120889	-0.438890	-0.952130
C88	C	-0.620889	0.061110	-0.452130
C89	C	-1.120907	-0.438852	-1.061854
C90	C	-0.620907	0.061148	-0.561854
C91	C	-1.025880	-0.573203	-1.061786
C92	C	-0.525880	-0.073203	-0.561786
C93	C	-1.025859	-0.573235	-0.952064
C94	C	-0.525859	-0.073235	-0.452064
C95	C	-1.175755	-0.361327	-0.952170
C96	C	-0.675755	0.138673	-0.452170
C97	C	-1.175772	-0.361289	-1.061895
C98	C	-0.675772	0.138711	-0.561895
C99	C	-1.073285	-0.506261	-0.233461
C100	C	-0.573285	-0.006261	0.266539
C101	C	-1.073406	-0.506010	-0.116685
C102	C	-0.573406	-0.006010	0.383315
H103	H	-0.620088	-0.329319	-0.554085
H104	H	-0.120088	0.170681	-0.054085
H105	H	-1.155193	-0.283976	-1.095937
H106	H	-0.655193	0.216024	-0.595937
N107	N	-1.251951	-0.390187	-1.101381
N108	N	-0.751951	0.109813	-0.601381
H109	H	-1.272319	-0.330994	-1.145386
H110	H	-0.772319	0.169006	-0.645386
H111	H	-1.285882	-0.403134	-1.039808
H112	H	-0.785882	0.096866	-0.539808
N113	N	-1.155381	-0.253551	-0.912737
N114	N	-0.655381	0.246449	-0.412737
H115	H	-1.146298	-0.205433	-0.974281
H116	H	-0.646298	0.294567	-0.474281
H117	H	-1.108986	-0.258296	-0.868711
H118	H	-0.608986	0.241704	-0.368711
H119	H	-0.527223	-0.683013	-0.458704
H120	H	-0.027223	-0.183013	0.041296
N121	N	-1.155405	-1.100137	-0.254050
N122	N	-0.655405	-0.600137	0.245950
H123	H	-1.155437	-1.179294	-0.254028
H124	H	-0.655437	-0.679294	0.245972
H125	H	-1.192719	-1.073699	-0.201364
H126	H	-0.692719	-0.573699	0.298636
H127	H	-0.987198	-0.627876	-1.106438
H128	H	-0.487198	-0.127876	-0.606438
H129	H	-0.527459	-0.458872	-0.683476
H130	H	-0.027459	0.041128	-0.183476
N131	N	-0.520200	-0.357186	-0.357954
N132	N	-0.020200	0.142814	0.142046
H133	H	-0.538904	-0.375736	-0.285698
H134	H	-0.038904	0.124264	0.214302
H135	H	-0.538189	-0.284862	-0.377692
H136	H	-0.038189	0.215138	0.122308
N137	N	-1.251861	-0.911305	-0.390805
N138	N	-0.751861	-0.411305	0.109195
H139	H	-1.251861	-0.832148	-0.390796
H140	H	-0.751861	-0.332148	0.109204
H141	H	-1.289178	-0.937747	-0.338103
H142	H	-0.789178	-0.437747	0.161897
N143	N	-0.974615	-1.119702	-0.646022
N144	N	-0.474615	-0.619702	-0.146022
H145	H	-1.004795	-1.165156	-0.694766
H146	H	-0.504795	-0.665156	-0.194766
H147	H	-0.940241	-1.165234	-0.603214
H148	H	-0.440241	-0.665234	-0.103214
H149	H	-0.619926	-0.635874	-0.635850
H150	H	-0.119926	-0.135874	-0.135850
H151	H	-0.619978	-0.553347	-0.329417
H152	H	-0.119978	-0.053347	0.170583
H153	H	-0.987100	-0.906154	-0.628230
H154	H	-0.487100	-0.406154	-0.128230
H155	H	-1.155118	-0.916901	-0.284486
H156	H	-0.655118	-0.416901	0.215514
N157	N	-1.248084	-0.400178	-0.907211
N158	N	-0.748084	0.099822	-0.407211
H159	H	-1.289842	-0.353465	-0.931654
H160	H	-0.789842	0.146535	-0.431654
H161	H	-1.245422	-0.398905	-0.828155
H162	H	-0.745422	0.101095	-0.328155
N163	N	-1.248141	-1.105565	-0.400512
N164	N	-0.748141	-0.605565	0.099488
H165	H	-1.283084	-1.046600	-0.419175
H166	H	-0.783084	-0.546600	0.080825
H167	H	-1.270964	-1.150148	-0.343628
H168	H	-0.770964	-0.650148	0.156372
H169	H	-0.987160	-0.627943	-0.907376
H170	H	-0.487160	-0.127943	-0.407376
