data_functionalizedCrystal
_audit_creation_method	'MofGen! by Chris Wilmer'
_symmetry_space_group_name_H-M	'P1'
_symmetry_Int_Tables_number	1
_symmetry_cell_setting	triclinic
loop_
_symmetry_equiv_pos_as_xyz
  x,y,z
_cell_length_a	18.050590
_cell_length_b	12.759400
_cell_length_c	12.759393
_cell_angle_alpha	90.031564
_cell_angle_beta	90.006011
_cell_angle_gamma	90.003850
loop_
_atom_site_label
_atom_site_type_symbol
_atom_site_fract_x
_atom_site_fract_y
_atom_site_fract_z
Zn1	Zn	1.135412	-0.418508	0.593631
Zn2	Zn	1.635412	0.081492	1.093631
Zn3	Zn	1.135337	-0.594227	0.417951
Zn4	Zn	1.635337	-0.094227	0.917951
Zn5	Zn	1.011217	-0.418530	0.418009
Zn6	Zn	1.511217	0.081470	0.918009
Zn7	Zn	1.011209	-0.594113	0.593631
Zn8	Zn	1.511209	-0.094113	1.093631
O9	O	1.073294	-0.506344	0.505806
O10	O	1.573294	-0.006344	1.005806
O11	O	1.239327	-0.441857	0.570303
O12	O	1.739327	0.058143	1.070303
O13	O	1.118845	-0.570977	0.270938
O14	O	1.618845	-0.070977	0.770938
O15	O	1.027726	-0.271506	0.441330
O16	O	1.527726	0.228494	0.941330
O17	O	1.239272	-0.570957	0.441232
O18	O	1.739272	-0.070957	0.941232
O19	O	1.118972	-0.271490	0.570359
O20	O	1.618972	0.228510	1.070359
O21	O	1.027654	-0.441893	0.270980
O22	O	1.527654	0.058107	0.770980
O23	O	0.907291	-0.441782	0.441330
O24	O	1.407291	0.058218	0.941330
O25	O	1.027712	-0.570761	0.740652
O26	O	1.527712	-0.070761	1.240652
O27	O	0.907285	-0.570782	0.570358
O28	O	1.407285	-0.070782	1.070358
O29	O	1.118964	-0.441746	0.740652
O30	O	1.618964	0.058254	1.240652
O31	O	1.118837	-0.741233	0.441231
O32	O	1.618837	-0.241233	0.941231
O33	O	1.027640	-0.741149	0.570303
O34	O	1.527640	-0.241149	1.070303
C35	C	0.880341	-0.506273	0.505851
C36	C	1.380341	-0.006273	1.005851
C37	C	0.797796	-0.506267	0.505895
C38	C	1.297796	-0.006267	1.005895
C39	C	1.073250	-0.779312	0.505784
C40	C	1.573250	-0.279312	1.005784
C41	C	1.073299	-0.896088	0.505809
C42	C	1.573299	-0.396088	1.005809
C43	C	1.120838	-0.950959	0.438676
C44	C	1.620838	-0.450959	0.938676
C45	C	1.120883	-1.060683	0.438709
C46	C	1.620883	-0.560683	0.938709
C47	C	1.025845	-1.060656	0.573010
C48	C	1.525845	-0.560656	1.073010
C49	C	1.025803	-0.950934	0.572982
C50	C	1.525803	-0.450934	1.072982
C51	C	1.175705	-0.950976	0.361135
C52	C	1.675705	-0.450976	0.861135
C53	C	1.175751	-1.060700	0.361168
C54	C	1.675751	-0.560700	0.861168
C55	C	0.598363	-0.576618	0.575894
C56	C	1.098363	-0.076618	1.075894
C57	C	0.548956	-0.480817	0.601742
C58	C	1.048956	0.019183	1.101742
C59	C	0.646665	-0.506326	0.505844
C60	C	1.146665	-0.006326	1.005844
C61	C	0.548991	-0.602182	0.479995
C62	C	1.048991	-0.102182	0.979995
C63	C	0.500680	-0.506391	0.505796
C64	C	1.000680	-0.006391	1.005796
C65	C	0.598346	-0.410474	0.531742
C66	C	1.098346	0.089526	1.031742
C67	C	0.598384	-0.531903	0.409950
C68	C	1.098384	-0.031903	0.909950
C69	C	0.548999	-0.436036	0.435761
C70	C	1.048999	0.063964	0.935761
C71	C	0.730764	-0.506290	0.505874
C72	C	1.230764	-0.006290	1.005874
C73	C	0.416584	-0.506416	0.505766
C74	C	0.916584	-0.006416	1.005766
C75	C	1.266999	-0.506417	0.505761
C76	C	1.766999	-0.006417	1.005761
C77	C	1.349545	-0.506448	0.505742
C78	C	1.849545	-0.006448	1.005742
C79	C	1.073346	-0.506238	0.779839
C80	C	1.573346	-0.006238	1.279839
C81	C	1.073368	-0.506193	0.896616
C82	C	1.573368	-0.006193	1.396616
C83	C	1.073358	-0.232311	0.505851
C84	C	1.573358	0.267689	1.005851
C85	C	1.073386	-0.115534	0.505870
C86	C	1.573386	0.384466	1.005870
C87	C	1.073285	-0.506374	0.232838
C88	C	1.573285	-0.006374	0.732838
C89	C	1.073406	-0.506123	0.116062
C90	C	1.573406	-0.006123	0.616062
C91	C	1.120889	-0.439008	0.951480
C92	C	1.620889	0.060992	1.451480
C93	C	1.120907	-0.438970	1.061204
C94	C	1.620907	0.061030	1.561204
C95	C	1.025880	-0.573311	1.061191
C96	C	1.525880	-0.073311	1.561191
C97	C	1.025859	-0.573343	0.951468
C98	C	1.525859	-0.073343	1.451468
C99	C	1.175755	-0.361451	0.951488
C100	C	1.675755	0.138549	1.451488
C101	C	1.175772	-0.361413	1.061212
C102	C	1.675772	0.138587	1.561212
H103	H	0.987100	-0.906259	0.627657
H104	H	1.487100	-0.406259	1.127657
Cl105	Cl	1.143903	-0.898547	0.241772
Cl106	Cl	1.643903	-0.398547	0.741772
Cl107	Cl	1.264575	-0.395068	1.107168
Cl108	Cl	1.764575	0.104932	1.607168
H109	H	0.527307	-0.683218	0.458154
H110	H	1.027307	-0.183218	0.958154
Cl111	Cl	1.260085	-0.406502	0.898904
Cl112	Cl	1.760085	0.093498	1.398904
Cl113	Cl	0.515742	-0.344201	0.344268
Cl114	Cl	1.015742	0.155799	0.844268
H115	H	0.620112	-0.553544	0.328898
H116	H	1.120112	-0.053544	0.828898
Cl117	Cl	1.260108	-1.113140	0.406260
Cl118	Cl	1.760108	-0.613140	0.906260
H119	H	0.620040	-0.635958	0.635200
H120	H	1.120040	-0.135958	1.135200
H121	H	1.233204	-0.921134	0.382969
H122	H	1.733204	-0.421134	0.882969
Cl123	Cl	0.966140	-1.129612	0.657452
Cl124	Cl	1.466140	-0.629612	1.157452
Cl125	Cl	1.152029	-1.106807	0.235535
Cl126	Cl	1.652029	-0.606807	0.735535
Cl127	Cl	0.515435	-0.447447	0.726914
Cl128	Cl	1.015435	0.052553	1.226914
Cl129	Cl	0.966103	-0.657790	0.882500
Cl130	Cl	1.466103	-0.157790	1.382500
Cl131	Cl	0.966158	-0.657724	1.130156
Cl132	Cl	1.466158	-0.157724	1.630156
Cl133	Cl	0.631673	-0.285321	0.565611
Cl134	Cl	1.131673	0.214679	1.065611
Cl135	Cl	1.151997	-0.235829	0.905546
Cl136	Cl	1.651997	0.264171	1.405546
Cl137	Cl	1.143893	-0.242107	1.113799
Cl138	Cl	1.643893	0.257893	1.613799
