data_functionalizedCrystal
_audit_creation_method	'MofGen! by Chris Wilmer'
_symmetry_space_group_name_H-M	'P1'
_symmetry_Int_Tables_number	1
_symmetry_cell_setting	triclinic
loop_
_symmetry_equiv_pos_as_xyz
  x,y,z
_cell_length_a	12.811438
_cell_length_b	12.837942
_cell_length_c	10.065875
_cell_angle_alpha	99.723749
_cell_angle_beta	86.561760
_cell_angle_gamma	89.413151
loop_
_atom_site_label
_atom_site_type_symbol
_atom_site_fract_x
_atom_site_fract_y
_atom_site_fract_z
O1	O	1.399348	0.147691	0.059729
O2	O	1.099808	0.157917	0.022647
O3	O	1.242935	0.001763	0.040374
O4	O	1.256221	0.303845	0.042002
O5	O	1.215654	0.031661	0.263984
O6	O	1.072527	0.187815	0.246257
O7	O	1.372068	0.177589	0.283339
Zn8	Zn	1.217966	0.187449	0.300301
Zn9	Zn	1.253909	0.148057	0.005685
O10	O	1.228940	0.333743	0.265612
C11	C	1.047561	0.171375	0.129673
C12	C	0.932526	0.166920	0.115432
C13	C	1.224807	-0.022003	0.151623
C14	C	1.211424	-0.137360	0.149964
C15	C	0.785255	0.144346	-0.026514
C16	C	0.893342	0.148529	-0.013145
C17	C	0.863614	0.181126	0.230649
C18	C	0.755527	0.176943	0.217279
C19	C	0.716352	0.158554	0.088694
C20	C	0.608262	0.154378	0.075326
C21	C	0.578537	0.186967	0.319118
C22	C	0.686624	0.191151	0.332487
C23	C	1.372326	-0.374952	0.169854
C24	C	1.359756	-0.483342	0.168296
C25	C	1.173715	-0.462532	0.145279
C26	C	1.186285	-0.354143	0.146837
C27	C	1.285594	-0.310357	0.159128
C28	C	1.298162	-0.201964	0.160696
C29	C	1.112123	-0.181158	0.137669
C30	C	1.099552	-0.289547	0.136110
C31	C	1.424314	0.164130	0.176310
C32	C	1.539350	0.168584	0.190542
C33	C	1.247068	0.357508	0.154360
C34	C	1.260453	0.472865	0.156011
N35	N	1.193443	0.214333	0.501369
N36	N	1.278439	0.121165	-0.195382
C37	C	1.245370	0.157404	0.575579
C38	C	1.226505	0.178102	0.730410
H39	H	0.576368	0.139410	-0.029375
H40	H	0.895531	0.196086	0.335337
N41	N	1.322762	0.072538	0.507942
H42	H	1.300428	0.001863	0.529993
H43	H	1.325247	0.069860	0.406944
N44	N	1.116055	0.299194	0.569033
H45	H	1.083993	0.334341	0.498237
H46	H	1.059225	0.266342	0.621295
N47	N	1.355833	0.036302	0.736956
H48	H	1.427504	0.052883	0.770603
H49	H	1.333417	-0.034343	0.759013
N50	N	1.066614	-0.509773	0.132018
H51	H	1.013571	-0.452406	0.125456
H52	H	1.067467	-0.565365	0.047969
N53	N	0.967654	0.133199	-0.137411
H54	H	0.953288	0.189521	-0.193287
H55	H	1.042043	0.138611	-0.109330
N56	N	0.742991	0.124529	-0.165192
H57	H	0.803044	0.116168	-0.236150
H58	H	0.700846	0.057905	-0.175800
H59	H	0.522423	0.198541	0.412929
N60	N	0.728880	0.210984	0.471170
H61	H	0.807809	0.211479	0.462160
H62	H	0.701443	0.281551	0.521796
H63	H	1.430384	-0.535933	0.177027
N64	N	1.405266	-0.154731	0.173959
H65	H	1.458303	-0.212104	0.180514
H66	H	1.424643	-0.121291	0.092213
H67	H	1.018699	-0.325214	0.126099
H68	H	1.168075	0.242166	0.781494
H69	H	1.453186	-0.339299	0.179875
N70	N	1.018566	-0.111486	0.126105
H71	H	1.041594	-0.036176	0.128960
H72	H	0.985858	-0.136965	0.037912
