data_functionalizedCrystal
_audit_creation_method	'MofGen! by Chris Wilmer'
_symmetry_space_group_name_H-M	'P1'
_symmetry_Int_Tables_number	1
_symmetry_cell_setting	triclinic
loop_
_symmetry_equiv_pos_as_xyz
  x,y,z
_cell_length_a	15.944551
_cell_length_b	12.503572
_cell_length_c	14.044220
_cell_angle_alpha	93.843168
_cell_angle_beta	88.343808
_cell_angle_gamma	86.485927
loop_
_atom_site_label
_atom_site_type_symbol
_atom_site_fract_x
_atom_site_fract_y
_atom_site_fract_z
O1	O	1.128105	-0.089210	0.116774
O2	O	1.628105	0.410790	0.616774
O3	O	0.884686	-0.089237	0.131845
O4	O	1.384686	0.410763	0.631845
O5	O	1.002741	-0.089213	-0.013675
O6	O	1.502741	0.410787	0.486325
O7	O	1.010050	-0.089234	0.262294
O8	O	1.510050	0.410766	0.762294
O9	O	0.993864	0.089427	-0.002713
O10	O	1.493864	0.589427	0.497287
O11	O	0.875808	0.089403	0.142807
O12	O	1.375808	0.589403	0.642807
O13	O	1.119228	0.089430	0.127736
O14	O	1.619228	0.589430	0.627736
Cu15	Cu	0.996708	0.105728	0.136272
Cu16	Cu	1.496708	0.605728	0.636272
Cu17	Cu	1.007206	-0.105535	0.123309
Cu18	Cu	1.507206	0.394465	0.623309
O19	O	1.001173	0.089406	0.273256
O20	O	1.501173	0.589406	0.773256
C21	C	0.848906	0.000080	0.136700
C22	C	1.348906	0.500080	0.636700
C23	C	0.755520	0.000070	0.134823
C24	C	1.255520	0.500070	0.634823
N25	N	0.989330	0.254319	0.145390
N26	N	1.489330	0.754319	0.645390
N27	N	1.014590	-0.254126	0.114183
N28	N	1.514590	0.245874	0.614183
C29	C	0.533573	0.000097	0.040141
C30	C	1.033573	0.500097	0.540141
C31	C	0.480222	-0.087985	0.078704
C32	C	0.980222	0.412015	0.578704
C33	C	0.584540	0.000083	0.131431
C34	C	1.084540	0.500083	0.631431
C35	C	0.471493	0.088140	0.089533
C36	C	0.971493	0.588140	0.589533
C37	C	0.419380	0.000100	0.128147
C38	C	0.919380	0.500100	0.628147
C39	C	0.532423	-0.088073	0.170014
C40	C	1.032423	0.411927	0.670014
C41	C	0.523696	0.088132	0.180836
C42	C	1.023696	0.588132	0.680836
C43	C	0.470368	0.000028	0.219464
C44	C	0.970368	0.500028	0.719464
C45	C	0.679684	0.000072	0.133320
C46	C	1.179684	0.500072	0.633320
C47	C	0.324238	0.000103	0.126264
C48	C	0.824238	0.500103	0.626264
C49	C	1.155007	0.000111	0.122881
C50	C	1.655007	0.500111	0.622881
C51	C	1.248394	0.000114	0.124757
C52	C	1.748394	0.500114	0.624757
C53	C	0.995104	0.000107	-0.043508
C54	C	1.495104	0.500107	0.456492
C55	C	0.985563	0.000107	-0.148735
C56	C	1.485563	0.500107	0.351265
C57	C	0.978477	0.473432	0.158810
C58	C	1.478477	0.973432	0.658810
C59	C	1.025440	0.526768	0.100766
C60	C	1.525440	1.026768	0.600766
C61	C	1.019401	0.648690	0.108234
C62	C	1.519401	1.148690	0.608234
C63	C	0.984515	0.351499	0.151344
C64	C	1.484515	0.851499	0.651344
C65	C	0.968120	0.000090	-0.341398
C66	C	1.468120	0.500090	0.158602
C67	C	1.035790	0.000094	-0.399027
C68	C	1.535790	0.500094	0.100973
C69	C	1.026085	0.000084	-0.506232
C70	C	1.526085	0.500084	-0.006232
C71	C	0.977824	0.000099	-0.234184
C72	C	1.477824	0.500099	0.265816
C73	C	1.008810	0.000084	0.303089
C74	C	1.508810	0.500084	0.803089
C75	C	1.018352	0.000076	0.408315
C76	C	1.518352	0.500076	0.908315
H77	H	0.561238	-0.000006	-0.035630
H78	H	1.061238	0.499994	0.464370
N79	N	0.881725	0.000094	-0.382679
N80	N	1.381725	0.500094	0.117321
H81	H	0.853454	-0.066125	-0.364652
H82	H	1.353454	0.433875	0.135348
H83	H	0.887018	0.000135	-0.454512
H84	H	1.387018	0.500135	0.045488
N85	N	0.454645	-0.186619	0.021517
N86	N	0.954645	0.313381	0.521517
H87	H	0.506576	-0.231052	-0.003713
H88	H	1.006576	0.268948	0.496287
H89	H	0.420069	-0.164059	-0.033708
H90	H	0.920069	0.335941	0.466292
N91	N	0.567622	-0.186823	0.215063
N92	N	1.067622	0.313177	0.715063
H93	H	0.630907	-0.186237	0.216022
H94	H	1.130907	0.313763	0.716022
H95	H	0.551410	-0.253211	0.176738
H96	H	1.051410	0.246789	0.676738
N97	N	0.433963	-0.000037	0.319916
N98	N	0.933963	0.499963	0.819916
H99	H	0.456312	-0.066598	0.350179
H100	H	0.956312	0.433402	0.850179
H101	H	0.370659	0.000637	0.318066
H102	H	0.870659	0.500637	0.818066
N103	N	1.122187	0.000130	-0.357737
N104	N	1.622187	0.500130	0.142263
H105	H	1.165997	0.000137	-0.411135
H106	H	1.665997	0.500137	0.088865
H107	H	1.132447	-0.066086	-0.321245
H108	H	1.632447	0.433914	0.178755
N109	N	0.549263	0.186780	0.237996
N110	N	1.049263	0.686780	0.737996
H111	H	0.584692	0.230157	0.196131
H112	H	1.084692	0.730157	0.696131
H113	H	0.582849	0.164272	0.293994
H114	H	1.082849	0.664272	0.793994
H115	H	0.444815	0.162604	0.055473
H116	H	0.944815	0.662604	0.555473
N117	N	1.084706	0.465967	0.027517
N118	N	1.584706	0.965967	0.527517
H119	H	1.126939	0.419307	0.060879
H120	H	1.626939	0.919307	0.560879
H121	H	1.115151	0.518617	-0.010160
H122	H	1.615151	1.018617	0.489840
N123	N	0.919215	0.534224	0.232059
N124	N	1.419215	1.034224	0.732059
H125	H	0.923250	0.613965	0.227077
H126	H	1.423250	1.113965	0.727077
H127	H	0.935015	0.514633	0.298097
H128	H	1.435015	1.014633	0.798097
