data_functionalizedCrystal
_audit_creation_method	'MofGen! by Chris Wilmer'
_symmetry_space_group_name_H-M	'P1'
_symmetry_Int_Tables_number	1
_symmetry_cell_setting	triclinic
loop_
_symmetry_equiv_pos_as_xyz
  x,y,z
_cell_length_a	15.944545
_cell_length_b	15.944499
_cell_length_c	14.421503
_cell_angle_alpha	89.995085
_cell_angle_beta	90.003292
_cell_angle_gamma	96.513109
loop_
_atom_site_label
_atom_site_type_symbol
_atom_site_fract_x
_atom_site_fract_y
_atom_site_fract_z
O1	O	1.114509	-0.108314	0.077045
O2	O	0.869956	-0.121676	0.077059
O3	O	0.998933	0.007283	0.077053
O4	O	0.985532	-0.237273	0.077051
O5	O	0.998919	0.007295	-0.077170
O6	O	0.869942	-0.121664	-0.077164
O7	O	1.114495	-0.108302	-0.077179
Cu8	Cu	0.992217	-0.114982	-0.091253
Cu9	Cu	0.992234	-0.114996	0.091134
O10	O	0.985517	-0.237261	-0.077173
C11	C	0.838655	-0.121116	-0.000051
C12	C	0.745409	-0.119456	-0.000045
C13	C	0.474792	-0.034560	-0.000054
C14	C	0.525359	-0.075484	-0.076097
C15	C	0.409766	-0.113535	-0.000061
C16	C	0.525354	-0.075517	0.075955
C17	C	0.574679	-0.116440	-0.000052
C18	C	0.459105	-0.154438	-0.076167
C19	C	0.459096	-0.154459	0.075954
C20	C	0.509630	-0.195441	-0.000107
C21	C	0.314764	-0.111859	-0.000067
C22	C	0.669678	-0.118121	-0.000052
C23	C	0.998377	0.038584	-0.000056
C24	C	0.996733	0.131832	-0.000049
C25	C	1.145796	-0.108861	-0.000067
C26	C	1.239042	-0.110522	-0.000066
C27	C	0.986073	-0.268561	-0.000061
C28	C	0.987718	-0.361810	-0.000062
C29	C	1.071665	0.423370	-0.000059
C30	C	1.032706	0.362350	-0.076100
C31	C	0.990756	0.467469	-0.000060
C32	C	1.032698	0.362344	0.075952
C33	C	0.993697	0.302560	-0.000053
C34	C	0.951775	0.407677	-0.076164
C35	C	0.951779	0.407677	0.075957
C36	C	0.912761	0.346675	-0.000103
C37	C	0.989065	0.562469	-0.000064
C38	C	0.995382	0.207561	-0.000055
N39	N	0.992246	-0.114999	0.219415
N40	N	0.992211	-0.114971	-0.219535
C41	C	1.052002	-0.055454	0.530841
C42	C	0.976162	-0.038996	0.469009
C43	C	0.992221	-0.114980	0.591304
C44	C	1.068071	-0.131408	0.469042
C45	C	0.992238	-0.114987	0.408583
C46	C	0.916343	-0.098485	0.530833
C47	C	1.008302	-0.190930	0.530871
C48	C	0.932407	-0.174504	0.469067
C49	C	0.992213	-0.114974	0.696565
C50	C	0.992237	-0.114994	0.303324
H51	H	0.525110	-0.263508	-0.000153
H52	H	1.132209	-0.145301	0.441899
N53	N	1.155888	0.465207	-0.000142
N54	N	1.180650	0.513300	0.065170
H55	H	1.240130	0.542850	0.065108
H56	H	0.554290	-0.042126	-0.140384
N57	N	0.561662	-0.033669	0.156592
N58	N	0.615727	0.029050	0.148142
H59	H	0.641371	0.058610	0.205087
N60	N	1.075633	0.337130	0.156597
N61	N	1.083243	0.260889	0.169850
H62	H	1.113568	0.243081	0.226803
H63	H	0.962562	0.025229	0.441836
N64	N	0.422759	-0.196275	0.156591
N65	N	0.369608	-0.259742	0.148175
H66	H	0.343942	-0.289270	0.205131
N67	N	1.075635	0.337161	-0.156749
N68	N	1.151126	0.364958	-0.170302
H69	H	1.181450	0.347173	-0.227258
H70	H	0.459151	0.033454	-0.000127
N71	N	1.025381	-0.271481	0.564979
N72	N	1.038222	-0.328814	0.509409
H73	H	1.050292	-0.385705	0.533498
H74	H	0.430284	-0.187761	-0.140524
H75	H	0.917576	0.427663	-0.140518
N76	N	0.828459	0.305037	-0.000350
N77	N	0.804203	0.256183	-0.065189
H78	H	0.744666	0.226774	-0.065438
H79	H	0.852190	-0.084520	0.557862
H80	H	0.881804	-0.224849	0.442115
N81	N	0.908895	0.432897	0.156617
N82	N	0.936477	0.418620	0.235513
H83	H	0.906196	0.436432	0.292487
H84	H	1.102492	-0.005079	0.557965
