data_functionalizedCrystal
_audit_creation_method	'MofGen! by Chris Wilmer'
_symmetry_space_group_name_H-M	'P1'
_symmetry_Int_Tables_number	1
_symmetry_cell_setting	triclinic
loop_
_symmetry_equiv_pos_as_xyz
  x,y,z
_cell_length_a	10.685901
_cell_length_b	12.759400
_cell_length_c	10.686551
_cell_angle_alpha	94.404840
_cell_angle_beta	90.348291
_cell_angle_gamma	85.649576
loop_
_atom_site_label
_atom_site_type_symbol
_atom_site_fract_x
_atom_site_fract_y
_atom_site_fract_z
Zn1	Zn	1.972240	-0.508040	0.561884
Zn2	Zn	1.956018	-0.696127	0.352133
Zn3	Zn	1.746366	-0.506066	0.368260
Zn4	Zn	1.762454	-0.669275	0.577960
O5	O	1.859270	-0.594877	0.465059
O6	O	2.145624	-0.545054	0.520583
O7	O	1.914686	-0.681327	0.178730
O8	O	1.776384	-0.359309	0.393966
O9	O	2.133706	-0.683241	0.366479
O10	O	1.942333	-0.360759	0.536220
O11	O	1.760655	-0.541690	0.190579
O12	O	1.572964	-0.515653	0.409554
O13	O	1.803804	-0.637475	0.751369
O14	O	1.584784	-0.635562	0.563620
O15	O	1.957933	-0.519016	0.739558
O16	O	1.930286	-0.839584	0.382068
O17	O	1.788075	-0.819856	0.547982
C18	C	1.533359	-0.572480	0.490082
C19	C	1.393935	-0.562922	0.500817
C20	C	1.859202	-0.867841	0.465044
C21	C	1.859291	-0.984622	0.465071
C22	C	1.945666	-1.040152	0.539212
C23	C	1.945726	-1.149879	0.539238
C24	C	1.773034	-1.148534	0.390972
C25	C	1.772969	-1.038809	0.390954
C26	C	2.031988	-0.985965	0.613330
C27	C	2.118371	-1.041496	0.687475
C28	C	2.118431	-1.151222	0.687501
C29	C	2.032110	-1.205417	0.613382
C30	C	2.186453	-0.617363	0.439939
C31	C	2.325879	-0.626945	0.429234
C32	C	1.884473	-0.575471	0.792252
C33	C	1.895213	-0.567201	0.931683
C34	C	1.859373	-0.320848	0.465099
C35	C	1.859418	-0.204073	0.465116
C36	C	1.834237	-0.614137	0.139133
C37	C	1.823740	-0.622128	-0.000315
H38	H	2.188644	-0.997364	0.747829
H39	H	1.702756	-1.192669	0.330627
C40	C	1.731355	-0.693456	0.935142
C41	C	1.761076	-0.797421	0.964788
C42	C	1.676013	-0.863162	0.905330
H43	H	1.648656	-0.671178	0.962970
H44	H	1.736210	-0.689817	0.846859
H45	H	1.756210	-0.801055	1.053052
H46	H	1.843761	-0.819730	0.936957
H47	H	1.680867	-0.859524	0.817047
H48	H	1.593319	-0.840875	0.933163
H49	H	1.696174	-0.933711	0.925427
C50	C	1.390224	-0.709724	0.336375
C51	C	1.348842	-0.691908	0.214728
C52	C	1.408085	-0.768152	0.129156
H53	H	1.478506	-0.705432	0.341063
H54	H	1.370179	-0.777827	0.356148
H55	H	1.368896	-0.623822	0.194960
H56	H	1.260569	-0.696209	0.209999
H57	H	1.388040	-0.836255	0.148929
H58	H	1.496364	-0.763854	0.133855
H59	H	1.380007	-0.756081	0.046610
H60	H	1.964630	-0.513851	0.980137
H61	H	2.188759	-1.196431	0.747885
H62	H	1.702634	-0.993595	0.330583
H63	H	1.345533	-0.500799	0.570322
C64	C	2.031812	-0.866811	0.613553
C65	C	2.008874	-0.821203	0.735409
C66	C	2.008686	-0.711441	0.735658
H67	H	2.111060	-0.848653	0.585780
H68	H	1.967973	-0.841448	0.558846
H69	H	2.072708	-0.846556	0.790098
H70	H	1.929627	-0.839331	0.763207
H71	H	1.944847	-0.686078	0.680950
H72	H	2.087936	-0.693294	0.707880
H73	H	1.993111	-0.680482	0.818333
C74	C	2.032401	-1.324556	0.613547
C75	C	2.126531	-1.361594	0.694329
C76	C	2.126847	-1.471336	0.694502
H77	H	1.953190	-1.342699	0.641439
H78	H	2.047999	-1.355735	0.530969
H79	H	2.110925	-1.330426	0.776890
H80	H	2.205756	-1.343479	0.666457
H81	H	2.142445	-1.502515	0.611924
H82	H	2.047631	-1.489468	0.722392
H83	H	2.190720	-1.496481	0.749303
