data_functionalizedCrystal
_audit_creation_method	'MofGen! by Chris Wilmer'
_symmetry_space_group_name_H-M	'P1'
_symmetry_Int_Tables_number	1
_symmetry_cell_setting	triclinic
loop_
_symmetry_equiv_pos_as_xyz
  x,y,z
_cell_length_a	10.685980
_cell_length_b	14.908178
_cell_length_c	10.686551
_cell_angle_alpha	82.564310
_cell_angle_beta	81.591741
_cell_angle_gamma	97.409567
loop_
_atom_site_label
_atom_site_type_symbol
_atom_site_fract_x
_atom_site_fract_y
_atom_site_fract_z
Zn1	Zn	1.977920	-0.204185	-0.848828
Zn2	Zn	1.947056	-0.369216	-0.622116
Zn3	Zn	1.747128	-0.229539	-0.618072
Zn4	Zn	1.751187	-0.369127	-0.818034
O5	O	1.855823	-0.293017	-0.726762
O6	O	2.152385	-0.215502	-0.833333
O7	O	1.905919	-0.361335	-0.443015
O8	O	1.788962	-0.098691	-0.659878
O9	O	2.129709	-0.336750	-0.666769
O10	O	1.958523	-0.080063	-0.829413
O11	O	1.759034	-0.258716	-0.440044
O12	O	1.569108	-0.258630	-0.630018
O13	O	1.795879	-0.336599	-1.000683
O14	O	1.572090	-0.361185	-0.776929
O15	O	1.962459	-0.215417	-1.023307
O16	O	1.909855	-0.496688	-0.636909
O17	O	1.765951	-0.496623	-0.780850
C18	C	1.524301	-0.312649	-0.699694
C19	C	1.382474	-0.321069	-0.688142
C20	C	1.835031	-0.529708	-0.706007
C21	C	1.826257	-0.630955	-0.697181
C22	C	1.986224	-0.801661	-0.857296
C23	C	1.977984	-0.896792	-0.849007
C24	C	1.801533	-0.916350	-0.672321
C25	C	1.809772	-0.821219	-0.680610
C26	C	1.902122	-0.763877	-0.773099
C27	C	1.910367	-0.668745	-0.781381
C28	C	1.733911	-0.688304	-0.604702
C29	C	1.725671	-0.783435	-0.596413
C30	C	2.188639	-0.273308	-0.753937
C31	C	2.330466	-0.264909	-0.765517
C32	C	1.883065	-0.273170	-1.059589
C33	C	1.894673	-0.264712	-1.201420
C34	C	1.876733	-0.055398	-0.747629
C35	C	1.885643	0.045861	-0.756521
C36	C	1.828766	-0.312716	-0.395242
C37	C	1.817427	-0.320903	-0.253454
H38	H	1.985566	-0.622058	-0.856687
C39	C	1.594118	-0.380524	-1.190660
C40	C	1.716157	-0.394590	-1.167132
H41	H	1.531602	-0.426022	-1.137368
H42	H	1.579068	-0.321714	-1.172718
H43	H	1.588916	-0.384310	-1.277849
H44	H	1.721363	-0.390797	-1.079944
H45	H	1.731212	-0.453414	-1.185065
H46	H	1.394441	-0.210383	-0.840597
C47	C	2.159808	-0.791879	-1.031113
C48	C	2.087726	-0.738625	-0.958959
H49	H	2.222465	-0.752963	-1.093883
H50	H	2.200908	-0.829381	-0.976319
H51	H	2.104934	-0.829401	-1.072090
H52	H	2.142599	-0.701108	-0.917975
H53	H	2.046624	-0.701108	-1.013762
H54	H	1.318492	-0.375593	-0.613050
C55	C	2.000345	-0.992430	-1.012784
C56	C	2.070429	-0.938326	-0.941557
H57	H	2.057421	-1.018066	-1.069928
H58	H	1.944184	-1.040191	-0.956516
H59	H	1.951916	-0.955719	-1.060229
H60	H	2.118851	-0.975039	-0.894104
H61	H	2.126613	-0.890558	-0.997832
C62	C	1.710572	-1.070866	-0.581167
C63	C	1.700036	-0.979390	-0.570657
H64	H	1.647918	-1.109783	-0.518395
H65	H	1.697478	-1.082436	-0.663987
H66	H	1.793462	-1.082421	-0.568225
H67	H	1.617148	-0.967833	-0.583608
H68	H	1.713120	-0.967816	-0.487817
C69	C	1.988233	-0.196621	-1.416263
C70	C	1.995947	-0.191024	-1.287757
H71	H	2.050748	-0.151124	-1.469561
H72	H	2.003294	-0.255432	-1.434186
H73	H	1.905429	-0.187085	-1.432197
H74	H	2.078748	-0.200566	-1.271821
H75	H	1.980895	-0.132198	-1.269828
H76	H	1.650480	-0.830135	-0.521114
H77	H	1.665433	-0.657531	-0.536139
