data_functionalizedCrystal
_audit_creation_method	'MofGen! by Chris Wilmer'
_symmetry_space_group_name_H-M	'P1'
_symmetry_Int_Tables_number	1
_symmetry_cell_setting	triclinic
loop_
_symmetry_equiv_pos_as_xyz
  x,y,z
_cell_length_a	10.654550
_cell_length_b	14.044190
_cell_length_c	9.730223
_cell_angle_alpha	89.993542
_cell_angle_beta	89.996251
_cell_angle_gamma	88.838339
loop_
_atom_site_label
_atom_site_type_symbol
_atom_site_fract_x
_atom_site_fract_y
_atom_site_fract_z
O1	O	1.681227	0.133228	-0.114421
O2	O	1.317024	0.145921	-0.114401
O3	O	1.493654	0.001554	-0.114384
O4	O	1.504597	0.277595	-0.114438
O5	O	1.493652	0.001557	0.114196
O6	O	1.317022	0.145925	0.114179
O7	O	1.681225	0.133231	0.114159
Zn8	Zn	1.499123	0.139579	0.150461
Zn9	Zn	1.499126	0.139574	-0.150703
O10	O	1.504595	0.277599	0.114142
C11	C	1.270131	0.144991	-0.000108
C12	C	1.130408	0.142203	-0.000099
C13	C	1.059467	0.227204	-0.000136
C14	C	0.928182	0.224578	-0.000159
C15	C	0.938791	0.051942	-0.000114
C16	C	1.070074	0.054569	-0.000081
C17	C	1.053340	0.326874	-0.000168
C18	C	0.922056	0.324248	-0.000191
C19	C	1.488866	-0.033790	-0.000089
C20	C	1.474587	-0.139110	-0.000077
C21	C	1.549752	-0.388903	-0.000135
C22	C	1.448502	-0.331939	-0.000119
C23	C	1.463019	-0.224639	-0.000096
C24	C	1.535237	-0.496212	-0.000159
C25	C	1.728117	0.134161	-0.000137
C26	C	1.867841	0.136950	-0.000155
C27	C	1.509383	0.312943	-0.000156
C28	C	1.523662	0.418263	-0.000178
N29	N	1.499131	0.139581	0.355997
N30	N	1.499127	0.139564	-0.356239
C31	C	1.577366	0.075677	0.427931
C32	C	1.577362	0.075666	0.571814
C33	C	1.420883	0.203471	0.571817
C34	C	1.420881	0.203477	0.427937
C35	C	1.667713	0.001893	0.427930
C36	C	1.667708	0.001881	0.571813
H37	H	1.092187	0.358609	-0.098861
O38	O	1.629652	-0.094684	0.376174
H39	H	1.543457	-0.086809	0.312786
O40	O	1.319236	-0.374079	-0.000101
H41	H	1.267460	-0.350082	-0.093256
H42	H	1.647330	-0.357088	-0.000126
O43	O	1.336493	0.272396	0.350344
H44	H	1.282094	0.316829	0.424543
O45	O	1.791574	0.032473	0.368783
H46	H	1.857244	0.048679	0.453783
H47	H	1.357173	0.255492	0.630405
O48	O	1.618176	-0.089396	0.630954
H49	H	1.591917	-0.137780	0.545951
O50	O	0.873708	-0.042571	-0.000101
H51	H	0.901421	-0.083447	0.093088
O52	O	1.146595	-0.037109	-0.000017
H53	H	1.082582	-0.098484	-0.000019
O54	O	1.097350	0.378449	0.126607
H55	H	1.058029	0.452243	0.126576
O56	O	0.865549	0.364150	0.130508
H57	H	0.941760	0.387433	0.199819
O58	O	0.871758	0.373992	-0.126910
H59	H	0.951251	0.400417	-0.188940
H60	H	1.765854	0.018134	0.610855
