data_functionalizedCrystal
_audit_creation_method	'MofGen! by Chris Wilmer'
_symmetry_space_group_name_H-M	'P1'
_symmetry_Int_Tables_number	1
_symmetry_cell_setting	triclinic
loop_
_symmetry_equiv_pos_as_xyz
  x,y,z
_cell_length_a	6.817900
_cell_length_b	11.102250
_cell_length_c	9.582880
_cell_angle_alpha	90.974561
_cell_angle_beta	111.207034
_cell_angle_gamma	108.605052
loop_
_atom_site_label
_atom_site_type_symbol
_atom_site_fract_x
_atom_site_fract_y
_atom_site_fract_z
V1	V	-4.142616	-0.175304	-0.466608
O2	O	-4.101056	0.008976	-0.457719
O3	O	-4.119180	-0.348128	-0.463423
O4	O	-4.132954	-0.172365	-0.670109
O5	O	-4.087187	-0.168004	-0.249602
V6	V	-4.617989	-0.153290	-0.440651
O7	O	-4.421751	-0.223592	-0.523545
O8	O	-4.789051	-0.105002	-0.383714
O9	O	-4.418218	0.019534	-0.443836
O10	O	-4.776945	-0.337570	-0.449540
O11	O	-4.790814	-0.160590	-0.657657
O12	O	-4.404444	-0.156229	-0.237151
C13	C	-3.969001	-0.390267	-0.456064
C14	C	-4.031385	-0.531552	-0.454816
C15	C	-4.049997	-0.712681	-0.315992
C16	C	-3.991383	-0.579930	-0.317175
C17	C	-4.129987	-0.615932	-0.591283
C18	C	-4.188584	-0.748679	-0.590098
C19	C	-3.969983	-0.691894	-0.157737
C20	C	-3.911370	-0.559144	-0.158920
C21	C	-3.986569	-0.166062	-0.719710
C22	C	-4.060118	-0.164802	-0.886073
C23	C	-4.231739	0.061666	-0.451191
C24	C	-4.148596	0.202950	-0.452449
C25	C	-4.214170	-0.162536	-0.187541
C26	C	-4.119859	-0.163789	-0.021177
H27	H	-3.722204	-0.506397	-0.104255
H28	H	-4.006387	-0.520100	-0.104208
H29	H	-4.162534	-0.576531	-0.703353
H30	H	-4.109484	-0.731745	-0.114185
C31	C	-3.663781	-0.659190	0.081286
C32	C	-3.758754	-0.723058	-0.067543
H33	H	-3.533374	-0.678425	0.136960
H34	H	-3.769487	-0.686706	0.127373
H35	H	-3.624037	-0.569119	0.080457
H36	H	-3.798513	-0.813130	-0.066715
H37	H	-3.653026	-0.695549	-0.113642
C38	C	-4.319671	-0.770924	-0.861157
C39	C	-4.296945	-0.841419	-0.740095
H40	H	-4.386580	-0.828182	-0.953761
H41	H	-4.175898	-0.714261	-0.851129
H42	H	-4.411984	-0.722537	-0.860697
H43	H	-4.204617	-0.889799	-0.740549
H44	H	-4.440741	-0.898105	-0.750127
