data_functionalizedCrystal
_audit_creation_method	'MofGen! by Chris Wilmer'
_symmetry_space_group_name_H-M	'P1'
_symmetry_Int_Tables_number	1
_symmetry_cell_setting	triclinic
loop_
_symmetry_equiv_pos_as_xyz
  x,y,z
_cell_length_a	11.792241
_cell_length_b	10.723024
_cell_length_c	9.198806
_cell_angle_alpha	90.002012
_cell_angle_beta	89.999745
_cell_angle_gamma	84.330643
loop_
_atom_site_label
_atom_site_type_symbol
_atom_site_fract_x
_atom_site_fract_y
_atom_site_fract_z
O1	O	-1.507283	-0.171036	-0.120747
O2	O	-1.007283	0.328964	0.379253
O3	O	-1.176980	-0.188663	-0.120781
O4	O	-0.676980	0.311337	0.379219
O5	O	-1.349750	0.001747	-0.120758
O6	O	-0.849750	0.501747	0.379242
O7	O	-1.334512	-0.361446	-0.120770
O8	O	-0.834512	0.138554	0.379230
O9	O	-1.349736	0.001747	0.121027
O10	O	-0.849736	0.501747	0.621027
O11	O	-1.176966	-0.188663	0.121004
O12	O	-0.676966	0.311337	0.621004
O13	O	-1.507269	-0.171035	0.121038
O14	O	-1.007269	0.328965	0.621038
Cu15	Cu	-1.342116	-0.179849	0.143098
Cu16	Cu	-0.842116	0.320151	0.643098
Cu17	Cu	-1.342133	-0.179850	-0.142841
Cu18	Cu	-0.842133	0.320150	0.357159
O19	O	-1.334499	-0.361445	0.121015
O20	O	-0.834499	0.138555	0.621015
C21	C	-1.134680	-0.187556	0.000108
C22	C	-0.634680	0.312444	0.500108
C23	C	-1.008659	-0.184242	0.000095
C24	C	-0.508659	0.315758	0.500095
C25	C	-1.348634	0.048244	0.000133
C26	C	-0.848634	0.548244	0.500133
C27	C	-1.345317	0.186789	0.000127
C28	C	-0.845317	0.686789	0.500127
C29	C	-1.549569	-0.172143	0.000146
C30	C	-1.049569	0.327857	0.500146
C31	C	-1.675590	-0.175457	0.000150
C32	C	-1.175590	0.324543	0.500150
C33	C	-0.777933	-0.178147	0.000137
C34	C	-0.277933	0.321853	0.500137
C35	C	-0.906326	-0.181533	0.000114
C36	C	-0.406326	0.318467	0.500114
C37	C	-1.335614	-0.407942	0.000121
C38	C	-0.835614	0.092058	0.500121
C39	C	-1.338932	-0.546488	0.000117
C40	C	-0.838932	-0.046488	0.500117
N41	N	-1.342113	-0.179848	0.344212
N42	N	-0.842113	0.320152	0.844212
C43	C	-1.441990	0.262028	0.000135
C44	C	-0.941990	0.762028	0.500135
C45	C	-1.438563	0.405222	0.000130
C46	C	-0.938563	0.905222	0.500130
N47	N	-1.342145	-0.179841	-0.343955
N48	N	-0.842145	0.320159	0.156045
C49	C	-1.414654	-0.099549	0.416419
C50	C	-0.914654	0.400451	0.916419
C51	C	-1.414672	-0.099544	0.583831
C52	C	-0.914672	0.400456	1.083831
H53	H	-1.527292	0.220431	0.000153
H54	H	-1.027292	0.720431	0.500153
F55	F	-1.230750	0.369019	0.000119
F56	F	-0.730750	0.869019	0.500119
F57	F	-1.495856	-0.009689	0.664989
F58	F	-0.995856	0.490311	1.164989
H59	H	-1.280040	-0.248597	0.593960
H60	H	-0.780040	0.251403	1.093960
F61	F	-1.233816	0.241152	0.000103
F62	F	-0.733816	0.741152	0.500103
F63	F	-1.260946	-0.269699	0.425401
F64	F	-0.760946	0.230301	0.925401
F65	F	-1.546740	0.489722	0.000149
F66	F	-1.046740	0.989722	0.500149
F67	F	-1.495612	-0.009470	0.335229
F68	F	-0.995612	0.490530	0.835229
