data_functionalizedCrystal
_audit_creation_method	'MofGen! by Chris Wilmer'
_symmetry_space_group_name_H-M	'P1'
_symmetry_Int_Tables_number	1
_symmetry_cell_setting	triclinic
loop_
_symmetry_equiv_pos_as_xyz
  x,y,z
_cell_length_a	42.784910
_cell_length_b	42.784822
_cell_length_c	42.784893
_cell_angle_alpha	59.997561
_cell_angle_beta	90.002260
_cell_angle_gamma	119.999982
loop_
_atom_site_label
_atom_site_type_symbol
_atom_site_fract_x
_atom_site_fract_y
_atom_site_fract_z
O1	O	-0.214412	0.275695	-0.009300
O2	O	-0.168961	0.211692	0.009252
O3	O	-0.168961	0.275693	-0.054750
O4	O	-0.214412	0.211694	0.054703
O5	O	-0.220945	0.223708	-0.054749
O6	O	-0.220945	0.159707	0.009253
O7	O	-0.266396	0.223710	-0.009299
Zn8	Zn	-0.251924	0.183455	-0.000023
Zn9	Zn	-0.183433	0.251947	-0.000024
O10	O	-0.266396	0.159709	0.054703
C11	C	-0.356211	0.440759	-0.028194
C12	C	-0.393826	0.422041	-0.028459
C13	C	-0.356212	0.384158	-0.028190
C14	C	-0.393828	0.365526	-0.028455
C15	C	-0.412810	0.384160	-0.028193
C16	C	-0.337315	0.422039	-0.028456
C17	C	-0.264531	0.567001	-0.017951
C18	C	-0.246590	0.602757	-0.015055
C19	C	-0.265929	0.620693	-0.013602
C20	C	-0.246481	0.659457	-0.010456
C21	C	-0.303209	0.602874	-0.015049
C22	C	-0.321145	0.567125	-0.017950
C23	C	-0.301804	0.549189	-0.019401
C24	C	-0.549295	0.339354	-0.017950
C25	C	-0.587946	0.318643	-0.015053
C26	C	-0.607338	0.279913	-0.013596
C27	C	-0.649247	0.257450	-0.010450
C28	C	-0.588073	0.261897	-0.015040
C29	C	-0.549422	0.282611	-0.017943
C30	C	-0.530035	0.321342	-0.019396
C31	C	-0.264536	0.339345	-0.017937
C32	C	-0.246598	0.318628	-0.015032
C33	C	-0.265939	0.279898	-0.013577
C34	C	-0.246492	0.257433	-0.010426
C35	C	-0.303217	0.261884	-0.015022
C36	C	-0.321153	0.282600	-0.017924
C37	C	-0.301808	0.321334	-0.019385
C38	C	-0.321257	0.510422	-0.022543
C39	C	-0.336761	0.479522	-0.025049
C40	C	-0.336764	0.361696	-0.025041
C41	C	-0.321261	0.343792	-0.022532
C42	C	-0.454719	0.361700	-0.025047
C43	C	-0.488124	0.343798	-0.022540
O44	O	-0.663067	0.223724	-0.009318
O45	O	-0.772518	0.159725	0.009228
O46	O	-0.708520	0.223724	-0.054772
O47	O	-0.727066	0.159725	0.054682
O48	O	-0.708519	0.275711	-0.054775
O49	O	-0.772517	0.211712	0.009224
O50	O	-0.663066	0.275710	-0.009321
Zn51	Zn	-0.717792	0.251965	-0.000049
Zn52	Zn	-0.717793	0.183471	-0.000045
O53	O	-0.727065	0.211711	0.054679
C54	C	-0.079140	0.384391	-0.361608
C55	C	-0.041525	0.422271	-0.380505
C56	C	-0.079140	0.384391	-0.305009
C57	C	-0.041525	0.422271	-0.323992
C58	C	-0.022542	0.440990	-0.361608
C59	C	-0.098037	0.365759	-0.323992
C60	C	-0.170819	0.282465	-0.396169
C61	C	-0.188759	0.261628	-0.413983
C62	C	-0.169419	0.279513	-0.451258
C63	C	-0.188866	0.256917	-0.470573
C64	C	-0.132139	0.318239	-0.470718
C65	C	-0.114204	0.339077	-0.452906
C66	C	-0.133545	0.321188	-0.415629
C67	C	0.113944	0.567230	-0.453286
C68	C	0.152595	0.602985	-0.471226
C69	C	0.171987	0.620920	-0.451887
C70	C	0.213896	0.659682	-0.471333
C71	C	0.152721	0.603100	-0.414607
C72	C	0.114070	0.567352	-0.396671
C73	C	0.094683	0.549417	-0.416014
C74	C	-0.170819	0.282465	-0.168522
C75	C	-0.188757	0.261625	-0.129869
C76	C	-0.169417	0.279510	-0.110479
C77	C	-0.188864	0.256914	-0.068568
C78	C	-0.132139	0.318233	-0.129743
C79	C	-0.114202	0.339071	-0.168395
C80	C	-0.133547	0.321185	-0.187783
C81	C	-0.114093	0.343784	-0.396316
C82	C	-0.098589	0.361795	-0.380921
C83	C	-0.098589	0.361795	-0.263100
C84	C	-0.114093	0.343784	-0.229694
C85	C	0.019367	0.479752	-0.381057
C86	C	0.052773	0.510651	-0.396560
C87	C	-0.022778	0.051021	0.028112
C88	C	-0.041761	0.013141	0.028376
C89	C	-0.079378	0.051018	0.028116
C90	C	-0.098275	0.013139	0.028379
C91	C	-0.079377	-0.005578	0.028113
C92	C	-0.041762	0.069652	0.028379
C93	C	0.113709	0.152949	0.017862
C94	C	0.152361	0.173788	0.014963
C95	C	0.171751	0.155904	0.013507
C96	C	0.213662	0.178501	0.010357
C97	C	0.152486	0.117178	0.014952
C98	C	0.113836	0.096340	0.017856
C99	C	0.094447	0.114227	0.019311
C100	C	-0.113937	-0.131814	0.017861
C101	C	-0.131751	-0.167568	0.014962
C102	C	-0.169025	-0.185504	0.013508
C103	C	-0.188341	-0.224266	0.010360
C104	C	-0.188486	-0.167686	0.014956
C105	C	-0.170675	-0.131939	0.017861
C106	C	-0.133396	-0.114003	0.019311
C107	C	-0.113943	0.152939	0.017877
C108	C	-0.131757	0.173778	0.014977
C109	C	-0.169032	0.155892	0.013524
C110	C	-0.188348	0.178486	0.010377
C111	C	-0.188491	0.117169	0.014967
C112	C	-0.170675	0.096333	0.017865
C113	C	-0.133401	0.114220	0.019323
C114	C	0.052537	0.091630	0.022456
C115	C	0.019131	0.073618	0.024964
C116	C	-0.098693	0.073612	0.024971
C117	C	-0.114088	0.091622	0.022466
C118	C	-0.098690	-0.044340	0.024965
C119	C	-0.114085	-0.075238	0.022457
O120	O	-0.220937	0.763043	0.009232
O121	O	-0.266387	0.672144	-0.009323
O122	O	-0.266384	0.672136	0.054681
O123	O	-0.220940	0.763051	-0.054771
O124	O	-0.214398	0.672140	0.054675
O125	O	-0.214401	0.672149	-0.009329
O126	O	-0.168951	0.763047	0.009226
Zn127	Zn	-0.183422	0.717599	-0.000052
Zn128	Zn	-0.251916	0.717593	-0.000044
O129	O	-0.168953	0.763056	-0.054777
O130	O	0.337166	0.763276	-0.496877
O131	O	0.227715	0.672371	-0.451427
O132	O	0.291713	0.672369	-0.451423
O133	O	0.273168	0.763278	-0.496881
O134	O	0.291714	0.672370	-0.503408
O135	O	0.227716	0.672372	-0.503412
O136	O	0.337167	0.763277	-0.548861
Zn137	Zn	0.282442	0.717825	-0.534390
Zn138	Zn	0.282440	0.717823	-0.465898
O139	O	0.273169	0.763279	-0.548866
O140	O	-0.214416	0.211689	-0.548617
O141	O	-0.168962	0.275692	-0.503168
O142	O	-0.168963	0.211689	-0.503163
O143	O	-0.214415	0.275692	-0.548622
O144	O	-0.220947	0.159706	-0.451179
O145	O	-0.220945	0.223708	-0.451183
O146	O	-0.266400	0.159706	-0.496633
Zn147	Zn	-0.251926	0.183454	-0.465654
Zn148	Zn	-0.183436	0.251944	-0.534146
O149	O	-0.266398	0.223708	-0.496637
C150	C	-0.412572	-0.005346	0.361561
C151	C	-0.393590	0.013373	0.380458
C152	C	-0.355974	0.051253	0.304962
C153	C	-0.337077	0.069886	0.323946
C154	C	-0.355975	0.051253	0.361561
C155	C	-0.393589	0.013373	0.323945
C156	C	-0.549058	-0.131585	0.396120
C157	C	-0.587710	-0.167340	0.413934
C158	C	-0.607099	-0.185275	0.451209
C159	C	-0.649010	-0.224038	0.470523
C160	C	-0.587834	-0.167456	0.470670
C161	C	-0.549184	-0.131708	0.452857
C162	C	-0.529796	-0.113773	0.415581
C163	C	-0.321414	0.096060	0.453240
C164	C	-0.303600	0.116772	0.471180
C165	C	-0.266327	0.155501	0.451842
C166	C	-0.247010	0.177965	0.471288
C167	C	-0.246866	0.173516	0.414562
C168	C	-0.264677	0.152801	0.396626
C169	C	-0.301955	0.114072	0.415969
C170	C	-0.321412	0.096063	0.168475
C171	C	-0.303599	0.116778	0.129821
C172	C	-0.266324	0.155508	0.110432
C173	C	-0.247008	0.177972	0.068521
C174	C	-0.246865	0.173522	0.129696
C175	C	-0.264680	0.152807	0.168348
C176	C	-0.301953	0.114074	0.187736
C177	C	-0.487887	-0.075007	0.396268
C178	C	-0.454481	-0.044108	0.380873
C179	C	-0.336660	0.073714	0.263053
C180	C	-0.321265	0.091616	0.229647
C181	C	-0.336661	0.073713	0.381010
C182	C	-0.321267	0.091615	0.396514
C183	C	-0.689677	0.440743	-0.361630
C184	C	-0.689417	0.422021	-0.380525
C185	C	-0.689672	0.384147	-0.305030
C186	C	-0.689411	0.365511	-0.324011
C187	C	-0.689680	0.384141	-0.361626
C188	C	-0.689408	0.422027	-0.324015
C189	C	-0.699922	0.566987	-0.396198
C190	C	-0.702820	0.602742	-0.414013
C191	C	-0.704279	0.620675	-0.451288
C192	C	-0.707428	0.659438	-0.470604
C193	C	-0.702837	0.602852	-0.470746
C194	C	-0.699934	0.567104	-0.452932
C195	C	-0.698477	0.549171	-0.415656
C196	C	-0.699943	0.339321	-0.453296
C197	C	-0.702844	0.318606	-0.471234
C198	C	-0.704299	0.279876	-0.451894
C199	C	-0.707450	0.257409	-0.471337
C200	C	-0.702848	0.261864	-0.414614
C201	C	-0.699941	0.282582	-0.396680
C202	C	-0.698491	0.321312	-0.416025
C203	C	-0.699901	0.339349	-0.168547
C204	C	-0.702799	0.318637	-0.129894
C205	C	-0.704252	0.279907	-0.110502
C206	C	-0.707396	0.257446	-0.068592
C207	C	-0.702812	0.261890	-0.129764
C208	C	-0.699916	0.282602	-0.168416
C209	C	-0.698457	0.321335	-0.187805
C210	C	-0.695333	0.510405	-0.396341
C211	C	-0.692825	0.479506	-0.380945
C212	C	-0.692814	0.361689	-0.263121
C213	C	-0.695317	0.343789	-0.229716
C214	C	-0.692831	0.361677	-0.381072
C215	C	-0.695341	0.343773	-0.396574
C216	C	-0.745907	0.051049	0.361533
C217	C	-0.746168	0.013170	0.380431
C218	C	-0.745913	0.051044	0.304937
C219	C	-0.746175	0.013165	0.323921
C220	C	-0.745906	-0.005550	0.361536
C221	C	-0.746176	0.069679	0.323918
C222	C	-0.735657	0.152980	0.396087
C223	C	-0.732758	0.173820	0.413899
C224	C	-0.731299	0.155937	0.451174
C225	C	-0.728149	0.178535	0.470487
C226	C	-0.732743	0.117212	0.470636
C227	C	-0.735647	0.096372	0.452825
C228	C	-0.737104	0.114258	0.415549
C229	C	-0.735646	-0.131784	0.453217
C230	C	-0.732746	-0.167538	0.471158
C231	C	-0.731292	-0.185475	0.451821
C232	C	-0.728142	-0.224236	0.471268
C233	C	-0.732742	-0.167658	0.414542
C234	C	-0.735649	-0.131911	0.396604
C235	C	-0.737098	-0.113974	0.415946
C236	C	-0.735683	0.152961	0.168450
C237	C	-0.732785	0.173799	0.129797
C238	C	-0.731333	0.155912	0.110409
C239	C	-0.728189	0.178505	0.068498
C240	C	-0.732774	0.117190	0.129674
C241	C	-0.735670	0.096355	0.168326
C242	C	-0.737128	0.114243	0.187712
C243	C	-0.740249	0.091660	0.396238
C244	C	-0.742758	0.073647	0.380844
C245	C	-0.742771	0.073637	0.263028
C246	C	-0.740268	0.091646	0.229622
C247	C	-0.742756	-0.044312	0.380986
C248	C	-0.740246	-0.075210	0.396491
C249	C	-0.356186	0.384133	0.361532
C250	C	-0.393802	0.365497	0.380431
C251	C	-0.356191	0.440734	0.304936
C252	C	-0.393806	0.422012	0.323921
C253	C	-0.412787	0.384129	0.361537
C254	C	-0.337292	0.422016	0.323916
C255	C	-0.264502	0.339329	0.396082
C256	C	-0.246560	0.318618	0.413893
C257	C	-0.265898	0.279885	0.451168
C258	C	-0.246448	0.257422	0.470480
C259	C	-0.303177	0.261867	0.470631
C260	C	-0.321114	0.282582	0.452821
C261	C	-0.301775	0.321315	0.415545
C262	C	-0.549270	0.282191	0.453221
C263	C	-0.587922	0.261350	0.471163
C264	C	-0.607315	0.279233	0.451828
C265	C	-0.649224	0.256637	0.471276
C266	C	-0.588052	0.317962	0.414548
C267	C	-0.549400	0.338806	0.396609
C268	C	-0.530012	0.320913	0.415950
C269	C	-0.264519	0.566988	0.168447
C270	C	-0.246582	0.602743	0.129794
C271	C	-0.265924	0.620678	0.110407
C272	C	-0.246479	0.659444	0.068496
C273	C	-0.303202	0.602855	0.129673
C274	C	-0.321137	0.567100	0.168325
C275	C	-0.301790	0.549172	0.187710
C276	C	-0.321230	0.343771	0.396234
C277	C	-0.336735	0.361673	0.380842
C278	C	-0.336744	0.479500	0.263027
C279	C	-0.321242	0.510402	0.229621
C280	C	-0.454696	0.361530	0.380988
C281	C	-0.488101	0.343516	0.396494
O282	O	-0.727148	0.159669	-0.496870
O283	O	-0.708579	0.223684	-0.451430
O284	O	-0.772587	0.159680	-0.451417
O285	O	-0.663140	0.223673	-0.496883
O286	O	-0.772592	0.211662	-0.503402
O287	O	-0.708584	0.275666	-0.503415
O288	O	-0.727153	0.211651	-0.548855
Zn289	Zn	-0.717869	0.251912	-0.534389
Zn290	Zn	-0.717863	0.183423	-0.465896
O291	O	-0.663145	0.275655	-0.548868
C292	C	-0.022798	1.051063	-0.361633
C293	C	-0.041783	1.069695	-0.380527
C294	C	-0.079394	0.994458	-0.305033
C295	C	-0.098293	1.013176	-0.324013
C296	C	-0.079398	1.051059	-0.361628
C297	C	-0.041778	1.013180	-0.324018
C298	C	0.113690	1.095882	-0.396205
C299	C	0.152342	1.116597	-0.414022
C300	C	0.171729	1.155329	-0.451296
C301	C	0.213640	1.177797	-0.470614
C302	C	0.152461	1.173344	-0.470754
C303	C	0.113811	1.152625	-0.452939
C304	C	0.094426	1.113893	-0.415663
C305	C	-0.113969	1.152985	-0.453297
C306	C	-0.131786	1.173822	-0.471233
C307	C	-0.169059	1.155936	-0.451892
C308	C	-0.188378	1.178528	-0.471335
C309	C	-0.188517	1.117207	-0.414613
C310	C	-0.170704	1.096367	-0.396679
C311	C	-0.133425	1.114263	-0.416025
C312	C	-0.113945	0.868207	-0.168549
C313	C	-0.131756	0.832453	-0.129896
C314	C	-0.169031	0.814514	-0.110503
C315	C	-0.188343	0.775748	-0.068593
C316	C	-0.188492	0.832333	-0.129765
C317	C	-0.170680	0.868088	-0.168416
C318	C	-0.133407	0.886020	-0.187807
C319	C	0.052517	1.091432	-0.396346
C320	C	0.019111	1.073527	-0.380949
C321	C	-0.098704	0.955691	-0.263123
C322	C	-0.114097	0.924789	-0.229717
C323	C	-0.098714	1.073654	-0.381073
C324	C	-0.114111	1.091664	-0.396575
H325	H	-0.533512	0.370891	-0.019135
C326	C	-0.303880	0.667147	-0.044429
C327	C	-0.324464	0.622591	-0.013454
H328	H	-0.317004	0.679318	-0.043442
H329	H	-0.301565	0.669471	-0.067701
H330	H	-0.279114	0.682869	-0.043148
H331	H	-0.349230	0.606867	-0.014736
H332	H	-0.326784	0.620263	0.009824
C333	C	-0.061568	0.396148	-0.227590
C334	C	-0.073228	0.381636	-0.189570
H335	H	-0.036271	0.422425	-0.240661
H336	H	-0.078398	0.401938	-0.239814
H337	H	-0.062122	0.373924	-0.228078
H338	H	-0.072677	0.403859	-0.189082
H339	H	-0.056394	0.375849	-0.177343
C340	C	-0.671069	0.227793	-0.126411
C341	C	-0.704408	0.219317	-0.108454
H342	H	-0.672056	0.201510	-0.113257
H343	H	-0.649401	0.250058	-0.125968
H344	H	-0.669142	0.237552	-0.152187
H345	H	-0.706333	0.209562	-0.082679
H346	H	-0.726081	0.197045	-0.108893
H347	H	-0.248751	0.370867	0.365730
H348	H	-0.218868	1.102640	-0.398867
C349	C	-0.735375	0.042487	0.164325
C350	C	-0.737259	0.053790	0.189502
H351	H	-0.736359	0.016208	0.177400
H352	H	-0.712103	0.065795	0.143385
H353	H	-0.756391	0.037787	0.155120
H354	H	-0.716242	0.058493	0.198705
H355	H	-0.760534	0.030477	0.210449
C356	C	-0.239803	0.141774	0.355610
C357	C	-0.243288	0.172600	0.355651
H358	H	-0.226596	0.153999	0.330314
H359	H	-0.264549	0.115749	0.364560
H360	H	-0.225892	0.134674	0.371924
H361	H	-0.257201	0.179698	0.339339
H362	H	-0.218537	0.198632	0.346696
C363	C	0.117842	0.042481	0.017547
C364	C	0.092662	0.053778	0.019440
H365	H	0.104771	0.016208	0.018521
H366	H	0.127047	0.037776	0.038560
H367	H	0.138783	0.065798	-0.005729
H368	H	0.071723	0.030463	0.042718
H369	H	0.083451	0.058481	-0.001575
H370	H	-0.218838	-0.182295	0.013777
C371	C	-0.204812	0.339974	0.018494
C372	C	-0.205623	0.338429	-0.013443
H373	H	-0.179515	0.352201	0.019472
H374	H	-0.221640	0.310919	0.041112
H375	H	-0.212727	0.357856	0.016551
H376	H	-0.197712	0.320544	-0.011499
H377	H	-0.188790	0.367488	-0.036067
C378	C	-0.671099	0.637956	-0.536586
C379	C	-0.704439	0.622565	-0.511717
H380	H	-0.672088	0.650127	-0.561881
H381	H	-0.669167	0.614114	-0.528761
H382	H	-0.649430	0.660069	-0.535987
H383	H	-0.726107	0.600449	-0.512313
H384	H	-0.706374	0.646409	-0.519544
H385	H	-0.026541	1.100183	-0.411432
H386	H	-0.731564	-0.182040	0.501509
H387	H	-0.698758	0.552597	-0.468778
H388	H	-0.248833	0.167476	0.184031
H389	H	-0.218843	0.102606	0.013784
C390	C	-0.361464	0.058605	0.133828
C391	C	-0.324987	0.096976	0.108648
H392	H	-0.374666	0.046378	0.120757
H393	H	-0.375372	0.065709	0.143033
H394	H	-0.359089	0.037703	0.154770
H395	H	-0.327362	0.117880	0.087707
H396	H	-0.311076	0.089873	0.099437
H397	H	0.168276	0.102619	0.013768
H398	H	-0.186571	0.267897	-0.184305
H399	H	-0.736824	0.064842	0.468673
H400	H	-0.351489	0.552592	0.184009
H401	H	-0.746594	0.100166	0.308675
H402	H	-0.698735	0.552391	-0.365847
H403	H	-0.216513	0.205059	0.113907
C404	C	0.015882	0.016386	0.029197
C405	C	-0.021207	-0.008044	0.029004
H406	H	0.028564	0.003297	0.029600
H407	H	0.014565	0.016570	0.051260
H408	H	0.029670	0.045858	0.006860
H409	H	-0.034997	-0.037516	0.051343
H410	H	-0.019892	-0.008233	0.006939
C411	C	-0.706268	-0.067778	0.331589
C412	C	-0.737242	-0.112327	0.355630
H413	H	-0.707253	-0.055687	0.306293
H414	H	-0.682997	-0.065448	0.331624
H415	H	-0.707553	-0.051986	0.340544
H416	H	-0.735956	-0.128120	0.346676
H417	H	-0.760519	-0.114660	0.355593
C418	C	-0.266888	0.396300	-0.022395
C419	C	-0.243274	0.381918	-0.019539
H420	H	-0.253762	0.422583	-0.023386
H421	H	-0.289594	0.374034	-0.000727
H422	H	-0.273316	0.402041	-0.045015
H423	H	-0.236848	0.376173	0.003083
H424	H	-0.220560	0.404189	-0.041209
H425	H	-0.603603	0.229817	0.501515
H426	H	-0.083585	-0.117215	0.019043
H427	H	-0.688982	0.437696	-0.308777
H428	H	-0.603862	0.230363	-0.013856
H429	H	-0.409068	0.335042	-0.028878
H430	H	-0.248778	0.552401	-0.019133
H431	H	-0.703974	0.333309	-0.114212
H432	H	-0.186523	0.064802	0.019046
H433	H	-0.115903	-0.182071	0.013782
H434	H	-0.698745	0.267928	-0.184096
H435	H	-0.026534	0.997516	-0.308781
C436	C	-0.327849	0.185007	0.511572
C437	C	-0.324435	0.219293	0.511600
H438	H	-0.340977	0.158722	0.536865
H439	H	-0.303084	0.192772	0.502534
H440	H	-0.341808	0.180272	0.495301
H441	H	-0.310473	0.224031	0.527869
H442	H	-0.349205	0.211527	0.520643
C443	C	-0.647358	0.311152	0.416908
C444	C	-0.609365	0.337623	0.393292
H445	H	-0.660516	0.323288	0.403783
H446	H	-0.647798	0.310112	0.439615
H447	H	-0.659528	0.282104	0.423335
H448	H	-0.597194	0.366670	0.386866
H449	H	-0.608922	0.338668	0.370577
C450	C	-0.072995	0.884487	-0.220737
C451	C	-0.072973	0.887921	-0.189861
H452	H	-0.047700	0.896657	-0.233892
H453	H	-0.082033	0.900215	-0.237738
H454	H	-0.089261	0.854258	-0.211518
H455	H	-0.056708	0.918151	-0.199080
H456	H	-0.063929	0.872194	-0.172857
C457	C	-0.740095	-0.076928	0.450860
C458	C	-0.737244	-0.112071	0.474477
H459	H	-0.741078	-0.064756	0.463983
H460	H	-0.762712	-0.087374	0.444432
H461	H	-0.718424	-0.054818	0.428150
H462	H	-0.758916	-0.134183	0.497186
H463	H	-0.714624	-0.101627	0.480910
C464	C	-0.702558	0.376767	-0.525395
C465	C	-0.704443	0.338401	-0.512206
H466	H	-0.703548	0.388985	-0.550689
H467	H	-0.679282	0.397674	-0.525367
H468	H	-0.723569	0.369658	-0.509076
H469	H	-0.683430	0.345510	-0.528523
H470	H	-0.727722	0.317489	-0.512237
C471	C	-0.779633	-0.051424	0.445320
C472	C	-0.746734	-0.007967	0.422152
H473	H	-0.779981	-0.064468	0.471075
H474	H	-0.779516	-0.068008	0.436742
H475	H	-0.801713	-0.051266	0.443859
H476	H	-0.724653	-0.008126	0.423610
H477	H	-0.746847	0.008621	0.430732
H478	H	-0.129201	0.997501	-0.308770
C479	C	-0.072992	0.141702	0.053787
C480	C	-0.072970	0.172601	0.019476
H481	H	-0.047697	0.153841	0.054774
H482	H	-0.082031	0.115663	0.055061
H483	H	-0.089258	0.134654	0.074797
H484	H	-0.056706	0.179646	-0.001534
H485	H	-0.063926	0.198648	0.018198
C486	C	-0.746923	0.016458	0.266254
C487	C	-0.746749	-0.007986	0.303350
H488	H	-0.747279	0.003398	0.253557
H489	H	-0.724606	0.045935	0.252488
H490	H	-0.769006	0.016610	0.267560
H491	H	-0.724664	-0.008135	0.302044
H492	H	-0.769069	-0.037471	0.317120
C493	C	-0.171555	-0.067805	-0.011527
C494	C	-0.192064	-0.112353	0.019450
H495	H	-0.184759	-0.055713	-0.010545
H496	H	-0.169191	-0.065476	-0.034797
H497	H	-0.146808	-0.052012	-0.010241
H498	H	-0.216811	-0.128146	0.018163
H499	H	-0.194433	-0.114685	0.042727
H500	H	-0.731564	-0.182268	0.398799
C501	C	-0.394083	0.486614	0.292812
C502	C	-0.414386	0.443160	0.303362
H503	H	-0.406791	0.499668	0.280125
H504	H	-0.368925	0.503194	0.276105
H505	H	-0.392771	0.486449	0.315053
H506	H	-0.415695	0.443325	0.281120
H507	H	-0.439550	0.426576	0.320069
C508	C	0.118074	0.571054	-0.342506
C509	C	0.092895	0.547766	-0.355695
H510	H	0.105002	0.558959	-0.317208
H511	H	0.127279	0.601272	-0.358817
H512	H	0.139015	0.568719	-0.342543
H513	H	0.071955	0.550103	-0.355661
H514	H	0.083685	0.517540	-0.339380
C515	C	-0.282703	0.123513	0.266278
C516	C	-0.295355	0.111032	0.303374
H517	H	-0.256946	0.148912	0.253581
H518	H	-0.298413	0.130123	0.252512
H519	H	-0.284165	0.099970	0.267585
H520	H	-0.293896	0.134575	0.302068
H521	H	-0.279640	0.104425	0.317144
C522	C	-0.706287	0.183038	0.331140
C523	C	-0.737262	0.172641	0.355115
H524	H	-0.707276	0.195177	0.305845
H525	H	-0.707563	0.156997	0.340179
H526	H	-0.683013	0.203998	0.331131
H527	H	-0.760535	0.151678	0.355126
H528	H	-0.735989	0.198686	0.346073
H529	H	-0.115906	0.817948	-0.114215
H530	H	-0.704028	0.230332	-0.398869
H531	H	-0.409039	0.335013	0.411337
C532	C	-0.451241	-0.045075	0.434847
C533	C	-0.414150	-0.007798	0.422191
H534	H	-0.463929	-0.058149	0.460613
H535	H	-0.449929	-0.065831	0.433361
H536	H	-0.465022	-0.036523	0.419153
H537	H	-0.400368	-0.016350	0.437885
H538	H	-0.415461	0.012962	0.423680
C539	C	-0.583941	0.376811	-0.015352
C540	C	-0.609120	0.338444	-0.013464
H541	H	-0.597014	0.389034	-0.014369
H542	H	-0.563003	0.397715	-0.038626
H543	H	-0.574734	0.369702	0.005663
H544	H	-0.618325	0.345554	-0.034481
H545	H	-0.630065	0.317536	0.009812
H546	H	-0.216208	0.333290	0.398044
H547	H	-0.351759	0.064521	0.184260
C548	C	0.110659	1.215254	-0.483800
C549	C	0.092633	1.172425	-0.474322
H550	H	0.097583	1.227477	-0.496998
H551	H	0.136448	1.233132	-0.499747
H552	H	0.110167	1.214197	-0.461081
H553	H	0.093128	1.173483	-0.497041
H554	H	0.066838	1.154542	-0.458375
C555	C	0.117454	1.041869	-0.341918
C556	C	0.092383	1.053306	-0.355233
H557	H	0.104298	1.015584	-0.316625
H558	H	0.138398	1.065132	-0.341908
H559	H	0.126665	1.037127	-0.358191
H560	H	0.083175	1.058051	-0.338962
H561	H	0.071433	1.030038	-0.355241
C562	C	-0.228568	1.042498	-0.342512
C563	C	-0.192090	1.053800	-0.355704
H564	H	-0.241769	1.016221	-0.317214
H565	H	-0.242476	1.037796	-0.358822
H566	H	-0.226197	1.065810	-0.342547
H567	H	-0.194461	1.030489	-0.355671
H568	H	-0.178178	1.058499	-0.339390
H569	H	-0.603624	-0.182064	0.501020
C570	C	-0.282914	0.418729	0.327954
C571	C	-0.295568	0.443173	0.303340
H572	H	-0.257155	0.431794	0.315252
H573	H	-0.298621	0.389254	0.335107
H574	H	-0.284378	0.418568	0.350194
H575	H	-0.294106	0.443332	0.281101
H576	H	-0.279856	0.472656	0.296182
C577	C	-0.700239	0.224415	-0.342514
C578	C	-0.698348	0.262784	-0.355705
H579	H	-0.699259	0.212191	-0.317216
H580	H	-0.679228	0.231519	-0.358825
H581	H	-0.723516	0.203510	-0.342549
H582	H	-0.675070	0.283691	-0.355673
H583	H	-0.719361	0.255681	-0.339390
C584	C	-0.553188	-0.135415	0.510727
C585	C	-0.528009	-0.112125	0.474248
H586	H	-0.540115	-0.123323	0.523931
H587	H	-0.562394	-0.165633	0.524633
H588	H	-0.574128	-0.133078	0.508354
H589	H	-0.507071	-0.114465	0.476621
H590	H	-0.518797	-0.081899	0.460339
H591	H	0.168278	0.617489	-0.501577
H592	H	-0.129181	-0.002526	0.028805
C593	C	-0.688653	0.311890	-0.266344
C594	C	-0.688831	0.324366	-0.303439
H595	H	-0.688291	0.286493	-0.253647
H596	H	-0.710972	0.305279	-0.252576
H597	H	-0.666572	0.335436	-0.267653
H598	H	-0.710914	0.300821	-0.302130
H599	H	-0.666510	0.330976	-0.317210
H600	H	-0.408831	-0.002295	0.308706
C601	C	-0.514148	-0.067322	0.331170
C602	C	-0.527736	-0.111880	0.355154
H603	H	-0.500983	-0.055159	0.305882
H604	H	-0.497153	-0.051599	0.340215
H605	H	-0.535094	-0.064991	0.331145
H606	H	-0.506789	-0.114211	0.355181
H607	H	-0.544733	-0.127607	0.346107
H608	H	-0.186528	0.882593	-0.184096
C609	C	-0.134476	0.311407	-0.070428
C610	C	-0.110867	0.337879	-0.108425
H611	H	-0.121341	0.323532	-0.057267
H612	H	-0.140920	0.282357	-0.058266
H613	H	-0.157178	0.310386	-0.069983
H614	H	-0.088167	0.338897	-0.108870
H615	H	-0.104419	0.366937	-0.120590
C616	C	-0.700182	0.393361	-0.164791
C617	C	-0.698301	0.381923	-0.189860
H618	H	-0.699197	0.419642	-0.177950
H619	H	-0.679170	0.398107	-0.155580
H620	H	-0.723458	0.370094	-0.143845
H621	H	-0.675023	0.405189	-0.210805
H622	H	-0.719315	0.377180	-0.199076
C623	C	0.204388	1.127629	-0.389150
C624	C	0.173521	1.096801	-0.392634
H625	H	0.217464	1.115408	-0.375948
H626	H	0.195175	1.134726	-0.375240
H627	H	0.221461	1.153658	-0.413901
H628	H	0.156447	1.070773	-0.367882
H629	H	0.182734	1.089698	-0.406543
H630	H	-0.731606	0.205331	0.114112
H631	H	-0.533486	0.267622	0.468972
C632	C	0.211765	1.230300	-0.523253
C633	C	0.173771	1.215917	-0.511724
H634	H	0.224921	1.256586	-0.548546
H635	H	0.212208	1.208037	-0.522660
H636	H	0.223937	1.236039	-0.506374
H637	H	0.161599	1.210175	-0.528601
H638	H	0.173327	1.238185	-0.512319
H639	H	-0.731582	0.205350	0.398051
C640	C	-0.702518	0.599038	-0.356146
C641	C	-0.704409	0.622328	-0.392625
H642	H	-0.703501	0.611129	-0.342941
H643	H	-0.679244	0.601375	-0.358516
H644	H	-0.723532	0.568816	-0.342238
H645	H	-0.683393	0.652550	-0.406533
H646	H	-0.727685	0.619996	-0.390255
H647	H	-0.731591	0.102626	0.113886
C648	C	0.015904	0.123275	0.029132
C649	C	-0.021193	0.110794	0.028961
H650	H	0.028599	0.148670	0.029496
H651	H	0.029670	0.129890	0.006810
H652	H	0.014598	0.099729	0.051212
H653	H	-0.019887	0.134339	0.006880
H654	H	-0.034963	0.104181	0.051285
H655	H	-0.026284	0.437932	-0.308748
H656	H	-0.603392	-0.181844	0.398086
C657	C	-0.133907	1.230903	-0.523863
C658	C	-0.110397	1.216393	-0.512206
H659	H	-0.120702	1.257184	-0.549159
H660	H	-0.140342	1.236687	-0.507029
H661	H	-0.156618	1.208682	-0.523312
H662	H	-0.087688	1.238613	-0.512755
H663	H	-0.103957	1.210611	-0.529045
H664	H	-0.318965	0.230345	-0.013835
H665	H	-0.351766	0.064525	0.468993
C666	C	-0.362168	0.293631	-0.053829
C667	C	-0.362127	0.262803	-0.019517
H668	H	-0.387464	0.281409	-0.054811
H669	H	-0.345857	0.300730	-0.074837
H670	H	-0.353215	0.319659	-0.055106
H671	H	-0.371077	0.236777	-0.018242
H672	H	-0.378443	0.255698	0.001496
C673	C	-0.240994	0.777467	-0.070459
C674	C	-0.229467	0.812614	-0.108451
H675	H	-0.266290	0.765293	-0.057303
H676	H	-0.224122	0.787908	-0.058284
H677	H	-0.240393	0.755359	-0.070024
H678	H	-0.230065	0.834724	-0.108886
H679	H	-0.246343	0.802174	-0.120629
H680	H	-0.216515	0.205048	0.398819
C681	C	-0.389779	0.480468	-0.029225
C682	C	-0.414396	0.443197	-0.029048
H683	H	-0.402478	0.493529	-0.029591
H684	H	-0.367542	0.501237	-0.051300
H685	H	-0.382626	0.471913	-0.006899
H686	H	-0.421547	0.451753	-0.051376
H687	H	-0.436640	0.422425	-0.006971
H688	H	-0.688991	0.437690	-0.411432
H689	H	-0.306409	0.437704	-0.028879
C690	C	-0.664029	0.416184	-0.477976
C691	C	-0.698341	0.381896	-0.474562
H692	H	-0.663041	0.442466	-0.491101
H693	H	-0.643023	0.420924	-0.491934
H694	H	-0.662756	0.408416	-0.453206
H695	H	-0.699613	0.389661	-0.499331
H696	H	-0.719353	0.377155	-0.460604
C697	C	-0.735395	0.211017	0.164686
C698	C	-0.737278	0.172627	0.189758
H699	H	-0.736377	0.223158	0.177842
H700	H	-0.756408	0.203962	0.155477
H701	H	-0.712120	0.231970	0.143739
H702	H	-0.760555	0.151673	0.210704
H703	H	-0.716263	0.179680	0.198973
C704	C	-0.019013	0.412808	-0.424379
C705	C	-0.020944	0.443430	-0.422228
H706	H	-0.006304	0.425875	-0.450136
H707	H	-0.044175	0.387528	-0.415802
H708	H	-0.005246	0.404259	-0.408662
H709	H	-0.034714	0.451976	-0.437943
H710	H	0.004222	0.468718	-0.430810
C711	C	-0.553409	0.392671	0.342448
C712	C	-0.528228	0.381372	0.355634
H713	H	-0.540338	0.418948	0.317150
H714	H	-0.562613	0.397370	0.358760
H715	H	-0.574350	0.369357	0.342484
H716	H	-0.507288	0.404684	0.355600
H717	H	-0.519018	0.376675	0.339317
C718	C	-0.192432	0.599041	-0.015341
C719	C	-0.205618	0.622336	-0.013458
H720	H	-0.167138	0.611127	-0.014352
H721	H	-0.192462	0.601379	-0.038616
H722	H	-0.208751	0.568819	0.005673
H723	H	-0.189300	0.652558	-0.034474
H724	H	-0.205585	0.620003	0.009819
C725	C	-0.728276	0.124031	0.523127
C726	C	-0.731133	0.097560	0.511603
H727	H	-0.727278	0.111900	0.548418
H728	H	-0.749948	0.125064	0.522536
H729	H	-0.705661	0.153081	0.506243
H730	H	-0.753750	0.068511	0.528485
H731	H	-0.709459	0.096523	0.512196
C732	C	-0.386157	0.502991	0.011436
C733	C	-0.362119	0.547539	-0.019540
H734	H	-0.411453	0.490899	0.010453
H735	H	-0.386122	0.500663	0.034707
H736	H	-0.377202	0.487198	0.010153
H737	H	-0.371073	0.563333	-0.018255
H738	H	-0.362156	0.549871	-0.042817
C739	C	-0.361474	0.058613	0.525337
C740	C	-0.324994	0.096977	0.512152
H741	H	-0.374682	0.046395	0.550630
H742	H	-0.359106	0.037704	0.525311
H743	H	-0.375375	0.065724	0.509016
H744	H	-0.311091	0.089865	0.528472
H745	H	-0.327360	0.117890	0.512181
C746	C	-0.192414	0.599048	0.133797
C747	C	-0.205606	0.622335	0.108618
H748	H	-0.167115	0.611147	0.120724
H749	H	-0.208721	0.568831	0.143000
H750	H	-0.192454	0.601380	0.154740
H751	H	-0.205569	0.620000	0.087677
H752	H	-0.189295	0.652560	0.099409
C753	C	-0.553428	0.224439	-0.017637
C754	C	-0.528248	0.262809	-0.019529
H755	H	-0.540356	0.212212	-0.018612
H756	H	-0.562632	0.231545	-0.038650
H757	H	-0.574369	0.203536	0.005639
H758	H	-0.507308	0.283713	-0.042806
H759	H	-0.519038	0.255704	0.001487
C760	C	-0.239838	0.550712	0.220631
C761	C	-0.243255	0.547277	0.189755
H762	H	-0.226711	0.538543	0.233785
H763	H	-0.264603	0.534983	0.237633
H764	H	-0.225877	0.580940	0.211412
H765	H	-0.257219	0.517048	0.198975
H766	H	-0.218486	0.563005	0.172750
H767	H	-0.083618	1.167557	-0.469052
H768	H	-0.351467	0.267910	0.468670
C769	C	-0.100890	0.207789	0.046742
C770	C	-0.110370	0.216339	0.013392
H771	H	-0.087689	0.234063	0.045766
H772	H	-0.084945	0.197944	0.048673
H773	H	-0.123607	0.185564	0.068405
H774	H	-0.087652	0.238562	-0.008271
H775	H	-0.126315	0.226190	0.011457
H776	H	0.097926	0.167517	0.019048
H777	H	-0.318951	0.617460	0.113886
H778	H	-0.128940	0.335270	-0.308749
H779	H	-0.116397	0.332800	-0.501068
C780	C	-0.242918	0.207760	-0.133873
C781	C	-0.229730	0.219057	-0.108693
H782	H	-0.268214	0.181481	-0.120800
H783	H	-0.226606	0.203063	-0.143081
H784	H	-0.242885	0.231072	-0.154813
H785	H	-0.229761	0.195746	-0.087755
H786	H	-0.246047	0.223752	-0.099480
H787	H	0.168043	0.205318	0.013786
H788	H	-0.219111	0.230097	-0.398135
C789	C	-0.225553	0.261279	-0.354327
C790	C	-0.192081	0.262804	-0.355197
H791	H	-0.238676	0.249144	-0.329033
H792	H	-0.241567	0.243328	-0.362150
H793	H	-0.219114	0.290332	-0.371204
H794	H	-0.198520	0.233749	-0.338322
H795	H	-0.176064	0.280754	-0.347369
C796	C	-0.060039	0.392939	-0.510772
C797	C	-0.073229	0.381640	-0.474295
H798	H	-0.034741	0.419214	-0.523975
H799	H	-0.076349	0.397643	-0.524681
H800	H	-0.060078	0.369625	-0.508399
H801	H	-0.073193	0.404954	-0.476668
H802	H	-0.056915	0.376939	-0.460383
H803	H	0.168509	0.617708	-0.398863
C804	C	0.117700	0.570719	-0.511060
C805	C	0.092632	0.547526	-0.474551
H806	H	0.104540	0.558555	-0.524187
H807	H	0.138641	0.568384	-0.508741
H808	H	0.126915	0.600946	-0.525013
H809	H	0.083419	0.517299	-0.460597
H810	H	0.071684	0.549856	-0.476868
