data_functionalizedCrystal
_audit_creation_method	'MofGen! by Chris Wilmer'
_symmetry_space_group_name_H-M	'P1'
_symmetry_Int_Tables_number	1
_symmetry_cell_setting	triclinic
loop_
_symmetry_equiv_pos_as_xyz
  x,y,z
_cell_length_a	8.559649
_cell_length_b	10.489741
_cell_length_c	7.088929
_cell_angle_alpha	83.712943
_cell_angle_beta	95.325015
_cell_angle_gamma	77.158919
loop_
_atom_site_label
_atom_site_type_symbol
_atom_site_fract_x
_atom_site_fract_y
_atom_site_fract_z
O1	O	2.103400	-0.028523	-0.158957
O2	O	1.638952	0.037276	-0.158967
O3	O	1.881746	-0.182335	-0.158950
O4	O	1.860607	0.191088	-0.158973
O5	O	1.914192	-0.211743	0.159027
O6	O	1.671399	0.007868	0.159010
O7	O	2.135846	-0.057931	0.159021
Cu8	Cu	1.906585	-0.027717	0.188049
Cu9	Cu	1.868214	0.007062	-0.187996
O10	O	1.893053	0.161680	0.159004
C11	C	1.595703	0.027558	0.000020
C12	C	1.418493	0.042401	0.000017
C13	C	1.896372	-0.244403	0.000037
C14	C	1.891596	-0.385529	0.000034
C15	C	1.737113	-0.437401	0.000016
C16	C	1.826086	-0.551707	0.156797
C17	C	1.794133	-0.522692	-0.156703
C18	C	1.980646	-0.497989	0.156944
C19	C	1.948657	-0.468948	-0.156697
C20	C	2.037747	-0.583242	0.000122
C21	C	2.179096	-0.048213	0.000029
C22	C	2.356304	-0.063054	0.000020
C23	C	1.878426	0.223748	0.000012
C24	C	1.883201	0.364876	0.000003
N25	N	1.933585	-0.052180	0.452539
N26	N	1.841226	0.031513	-0.452486
H27	H	1.610115	-0.374390	0.000171
O28	O	2.047700	-0.155804	0.549739
C29	C	2.015113	-0.274850	0.501017
H30	H	1.938847	-0.255280	0.355643
H31	H	1.946557	-0.316736	0.613653
C32	C	2.268821	-0.398782	0.670571
C33	C	2.175160	-0.374747	0.492011
H34	H	2.367544	-0.460406	0.665024
H35	H	2.290774	-0.318579	0.703403
H36	H	2.211672	-0.433680	0.764415
H37	H	2.232301	-0.339834	0.398176
H38	H	2.153220	-0.454946	0.459163
H39	H	1.745507	0.118244	0.465862
O40	O	2.189363	-0.658181	-0.000153
C41	C	2.195972	-0.721618	-0.165591
H42	H	2.095501	-0.664274	-0.280699
H43	H	2.179867	-0.826190	-0.129656
C44	C	2.484067	-0.797544	-0.097979
C45	C	2.360675	-0.727108	-0.239362
H46	H	2.585665	-0.800937	-0.143481
H47	H	2.479615	-0.754810	0.013484
H48	H	2.470625	-0.884681	-0.068046
H49	H	2.374107	-0.639969	-0.269275
H50	H	2.365134	-0.769827	-0.350832
O51	O	1.699791	-0.536623	-0.314779
C52	C	1.541396	-0.461331	-0.314153
H53	H	1.544142	-0.378974	-0.222365
H54	H	1.464076	-0.527514	-0.252969
C55	C	1.465737	-0.502083	-0.632848
C56	C	1.469112	-0.400924	-0.520125
H57	H	1.421144	-0.464826	-0.759901
H58	H	1.572448	-0.552814	-0.633269
H59	H	1.401306	-0.557228	-0.581839
H60	H	1.533558	-0.345792	-0.571121
H61	H	1.362408	-0.350183	-0.519718
O62	O	1.764521	-0.595257	0.315057
C63	C	1.880472	-0.700557	0.424348
H64	H	2.006145	-0.694464	0.389321
H65	H	1.855738	-0.798248	0.389180
C66	C	1.716426	-0.699329	0.681572
C67	C	1.870782	-0.691839	0.638563
H68	H	1.710446	-0.693957	0.813710
H69	H	1.638304	-0.628390	0.607939
H70	H	1.695832	-0.780739	0.652251
H71	H	1.891365	-0.610423	0.667861
H72	H	1.948907	-0.762765	0.712206
H73	H	1.438631	-0.164693	0.000017
H74	H	1.336155	0.144049	-0.000000
H75	H	2.059494	-0.486305	0.289639
H76	H	2.000441	-0.432522	-0.289249
