data_functionalizedCrystal
_audit_creation_method	'MofGen! by Chris Wilmer'
_symmetry_space_group_name_H-M	'P1'
_symmetry_Int_Tables_number	1
_symmetry_cell_setting	triclinic
loop_
_symmetry_equiv_pos_as_xyz
  x,y,z
_cell_length_a	10.654550
_cell_length_b	10.723024
_cell_length_c	9.730223
_cell_angle_alpha	89.996766
_cell_angle_beta	89.999957
_cell_angle_gamma	84.476400
loop_
_atom_site_label
_atom_site_type_symbol
_atom_site_fract_x
_atom_site_fract_y
_atom_site_fract_z
O1	O	1.667813	0.175275	-0.114183
O2	O	1.302332	0.191974	-0.114208
O3	O	1.493503	0.002049	-0.114190
O4	O	1.476642	0.365199	-0.114202
O5	O	1.493490	0.002044	0.114390
O6	O	1.302319	0.191968	0.114372
O7	O	1.667800	0.175269	0.114396
Zn8	Zn	1.485058	0.183618	0.150676
Zn9	Zn	1.485074	0.183625	-0.150488
O10	O	1.476629	0.365194	0.114378
C11	C	1.255528	0.190745	0.000078
C12	C	1.116085	0.187077	0.000069
C13	C	1.036583	0.298901	0.000069
C14	C	0.905562	0.295447	0.000093
C15	C	0.933560	0.068334	0.000111
C16	C	1.064577	0.071789	0.000097
C17	C	1.492269	-0.044453	0.000098
C18	C	1.488598	-0.183008	0.000093
C19	C	1.595567	-0.257975	0.000098
C20	C	1.591776	-0.401179	0.000093
C21	C	1.714604	0.176498	0.000107
C22	C	1.854047	0.180167	0.000107
C23	C	1.477863	0.411696	0.000087
C24	C	1.481534	0.550251	0.000083
N25	N	1.485056	0.183613	0.356212
N26	N	1.485086	0.183621	-0.356024
C27	C	1.569735	0.099550	0.428146
C28	C	1.569748	0.099550	0.572029
C29	C	1.400397	0.267687	0.572032
C30	C	1.400380	0.267680	0.428151
H31	H	1.129312	-0.019278	0.000100
H32	H	1.683350	-0.465598	0.000104
N33	N	1.720601	-0.202572	0.000120
H34	H	1.769984	-0.231250	0.084860
H35	H	1.769904	-0.231248	-0.084665
H36	H	0.891606	-0.025530	0.000142
H37	H	1.331417	0.336134	0.369579
H38	H	1.389955	-0.385337	0.000088
N39	N	1.661028	0.008862	0.350537
H40	H	1.717037	0.057050	0.290818
H41	H	1.714587	-0.044383	0.418020
H42	H	1.394211	-0.224844	0.000078
H43	H	1.638700	0.031098	0.630594
N44	N	1.309091	0.358371	0.649628
H45	H	1.255443	0.411623	0.582221
H46	H	1.253170	0.310089	0.709345
N47	N	1.092141	0.423240	0.000038
H48	H	1.021890	0.493555	0.000043
H49	H	1.145901	0.429624	0.084767
N50	N	0.819812	0.416057	0.000171
H51	H	0.872327	0.489610	0.000176
H52	H	0.764798	0.419614	-0.084534
