data_functionalizedCrystal
_audit_creation_method	'MofGen! by Chris Wilmer'
_symmetry_space_group_name_H-M	'P1'
_symmetry_Int_Tables_number	1
_symmetry_cell_setting	triclinic
loop_
_symmetry_equiv_pos_as_xyz
  x,y,z
_cell_length_a	14.971486
_cell_length_b	15.944551
_cell_length_c	13.448316
_cell_angle_alpha	89.992444
_cell_angle_beta	89.998199
_cell_angle_gamma	83.556434
loop_
_atom_site_label
_atom_site_type_symbol
_atom_site_fract_x
_atom_site_fract_y
_atom_site_fract_z
O1	O	1.186829	0.109463	-0.082580
O2	O	0.926415	0.122572	-0.082607
O3	O	1.063733	-0.006250	-0.082584
O4	O	1.049511	0.238286	-0.082603
O5	O	1.063716	-0.006258	0.082800
O6	O	0.926398	0.122564	0.082777
O7	O	1.186812	0.109456	0.082804
Cu8	Cu	1.056603	0.116009	0.097891
Cu9	Cu	1.056624	0.116018	-0.097694
O10	O	1.049494	0.238278	0.082781
C11	C	0.893082	0.121982	0.000081
C12	C	0.793787	0.120225	0.000071
C13	C	0.736480	0.195904	0.000067
C14	C	0.643182	0.194249	0.000082
C15	C	0.607194	0.116913	0.000094
C16	C	0.664508	0.041227	0.000102
C17	C	0.757804	0.042884	0.000094
C18	C	0.470049	0.037780	0.000116
C19	C	0.376747	0.036123	0.000122
C20	C	0.355428	0.189145	0.000104
C21	C	0.448724	0.190801	0.000096
C22	C	0.506032	0.115116	0.000101
C23	C	1.063134	-0.037549	0.000108
C24	C	1.061364	-0.130797	0.000109
C25	C	0.972017	-0.345738	0.000086
C26	C	1.013498	-0.406720	0.081634
C27	C	1.058162	-0.301526	0.000101
C28	C	1.013536	-0.406696	-0.081421
C29	C	1.055062	-0.466441	0.000089
C30	C	1.099667	-0.361279	0.081717
C31	C	1.099692	-0.361248	-0.081412
C32	C	1.141236	-0.422212	0.000156
C33	C	1.059945	-0.206522	0.000109
C34	C	1.053286	-0.561444	0.000088
C35	C	1.220145	0.110046	0.000113
C36	C	1.319440	0.111802	0.000117
C37	C	1.050093	0.269576	0.000087
C38	C	1.051863	0.362824	0.000080
N39	N	1.056595	0.116002	0.235456
N40	N	1.056639	0.116019	-0.235258
C41	C	1.117419	0.058983	0.287506
C42	C	1.117425	0.058982	0.391610
C43	C	1.056610	0.116005	0.443660
C44	C	0.995780	0.173027	0.391602
C45	C	0.995771	0.173023	0.287501
C46	C	0.995805	0.173033	0.608582
C47	C	0.995815	0.173038	0.712691
C48	C	1.117459	0.058992	0.712691
C49	C	1.117449	0.058988	0.608590
C50	C	1.056620	0.116011	0.556539
H51	H	0.765774	0.258881	0.000056
H52	H	0.977055	-0.426866	0.150570
H53	H	0.946269	0.219464	0.566206
H54	H	0.596526	0.255875	0.000077
Br55	Br	0.913238	0.250411	0.462238
Br56	Br	1.260518	-0.477368	0.000239
Br57	Br	1.199964	-0.018404	0.216877
Br58	Br	1.199990	-0.018393	0.537946
Br59	Br	1.160384	-0.327631	-0.196316
Br60	Br	1.160339	-0.327916	0.196751
H61	H	0.478022	0.253775	0.000076
H62	H	0.308763	0.250771	0.000103
H63	H	0.900512	-0.312499	0.000160
Br64	Br	0.835579	-0.059828	0.000109
H65	H	0.347448	-0.026851	0.000133
H66	H	1.166987	0.012562	0.755077
H67	H	0.516708	-0.023852	0.000122
H68	H	0.635199	-0.021741	0.000126
H69	H	0.977096	-0.426804	-0.150369
H70	H	1.166951	0.012552	0.433989
H71	H	0.946293	0.219471	0.755065
Br72	Br	0.913215	0.250404	0.216860
