data_functionalizedCrystal
_audit_creation_method	'MofGen! by Chris Wilmer'
_symmetry_space_group_name_H-M	'P1'
_symmetry_Int_Tables_number	1
_symmetry_cell_setting	triclinic
loop_
_symmetry_equiv_pos_as_xyz
  x,y,z
_cell_length_a	18.050591
_cell_length_b	21.295417
_cell_length_c	21.295420
_cell_angle_alpha	90.017552
_cell_angle_beta	90.021462
_cell_angle_gamma	90.026512
loop_
_atom_site_label
_atom_site_type_symbol
_atom_site_fract_x
_atom_site_fract_y
_atom_site_fract_z
Zn1	Zn	1.135285	-0.250773	0.356012
Zn2	Zn	1.135189	-0.356018	0.250737
Zn3	Zn	1.011103	-0.250759	0.250746
Zn4	Zn	1.011047	-0.356001	0.355958
O5	O	1.073156	-0.303388	0.303363
O6	O	1.239197	-0.264747	0.342066
O7	O	1.118712	-0.342056	0.162649
O8	O	1.027639	-0.162672	0.264736
O9	O	1.239126	-0.342070	0.264721
O10	O	1.118875	-0.162682	0.342074
O11	O	1.027546	-0.264723	0.162655
O12	O	0.907171	-0.264707	0.264684
O13	O	1.027544	-0.342042	0.444054
O14	O	0.907130	-0.342028	0.341982
O15	O	1.118821	-0.264731	0.444094
O16	O	1.118658	-0.444105	0.264669
O17	O	1.027451	-0.444093	0.341974
C18	C	0.880204	-0.303364	0.303328
C19	C	0.797658	-0.303370	0.303328
C20	C	0.598208	-0.261274	0.261390
C21	C	0.548785	-0.318686	0.245895
C22	C	0.646528	-0.303389	0.303357
C23	C	0.548868	-0.245996	0.318851
C24	C	0.500542	-0.303402	0.303383
C25	C	0.598192	-0.360831	0.287831
C26	C	0.598280	-0.288103	0.360814
C27	C	0.548879	-0.345555	0.345341
C28	C	0.730626	-0.303380	0.303340
C29	C	0.416446	-0.303417	0.303400
C30	C	1.073058	-0.466940	0.303328
C31	C	1.073085	-0.536908	0.303335
C32	C	1.120618	-0.569760	0.263123
C33	C	1.120653	-0.635502	0.263137
C34	C	1.073141	-0.668390	0.303356
C35	C	1.025604	-0.635530	0.343576
C36	C	1.025576	-0.569789	0.343565
N37	N	1.008174	-0.771653	0.308143
N38	N	1.008203	-0.834105	0.308150
C39	C	1.073224	-0.866465	0.303392
N40	N	1.138217	-0.834014	0.298615
N41	N	1.138187	-0.771557	0.298605
C42	C	1.073167	-0.739675	0.303373
C43	C	1.120800	-0.970602	0.263194
C44	C	1.120836	-1.036346	0.263213
C45	C	1.025780	-1.036373	0.343648
C46	C	1.025751	-0.970630	0.343632
C47	C	1.073259	-0.937749	0.303402
C48	C	1.266861	-0.303412	0.303399
C49	C	1.349407	-0.303422	0.303414
C50	C	1.073187	-0.303386	0.467553
C51	C	1.073200	-0.303386	0.537522
C52	C	1.073274	-0.139198	0.303412
C53	C	1.073324	-0.069229	0.303433
C54	C	1.025737	-0.263121	0.570382
C55	C	1.025724	-0.263125	0.636124
C56	C	1.073186	-0.303386	0.669004
C57	C	1.120652	-0.343658	0.636136
C58	C	1.120659	-0.343658	0.570395
N59	N	1.138179	-0.308221	0.772248
N60	N	1.138171	-0.308217	0.834699
C61	C	1.073167	-0.303389	0.867079
N62	N	1.008171	-0.298553	0.834647
N63	N	1.008181	-0.298553	0.772190
C64	C	1.073184	-0.303391	0.740289
C65	C	1.025685	-0.263126	0.971224
C66	C	1.025671	-0.263134	1.036968
C67	C	1.120606	-0.343664	1.036979
C68	C	1.120614	-0.343660	0.971236
C69	C	1.073155	-0.303387	0.938363
C70	C	1.073126	-0.303402	1.139812
C71	C	1.073133	-0.303396	1.069844
H72	H	1.159305	-0.542990	0.230367
F73	F	0.974982	-0.534824	0.386365
F74	F	1.171162	-0.386509	0.671130
H75	H	1.159312	-0.376445	0.543641
H76	H	0.987041	-0.943880	0.376374
H77	H	0.987098	-1.063150	0.376398
F78	F	0.520369	-0.335599	0.182399
F79	F	0.626391	-0.424297	0.270643
F80	F	0.520745	-0.392166	0.391744
H81	H	1.159487	-0.943829	0.230438
H82	H	0.987015	-0.230348	1.063722
H83	H	1.159548	-1.063093	0.230469
H84	H	0.987089	-0.230331	0.543620
F85	F	1.171116	-0.386517	1.071968
H86	H	0.987075	-0.230333	0.662884
F87	F	0.975173	-0.220269	0.936236
H88	H	0.527163	-0.197461	0.331923
H89	H	1.159265	-0.376446	0.944481
H90	H	0.620036	-0.275146	0.409379
H91	H	1.159363	-0.662255	0.230392
F92	F	0.975041	-0.670533	0.386382
H93	H	0.619867	-0.225697	0.225862
