data_functionalizedCrystal
_audit_creation_method	'MofGen! by Chris Wilmer'
_symmetry_space_group_name_H-M	'P1'
_symmetry_Int_Tables_number	1
_symmetry_cell_setting	triclinic
loop_
_symmetry_equiv_pos_as_xyz
  x,y,z
_cell_length_a	19.805407
_cell_length_b	18.050590
_cell_length_c	19.805399
_cell_angle_alpha	90.027426
_cell_angle_beta	90.019573
_cell_angle_gamma	90.018553
loop_
_atom_site_label
_atom_site_type_symbol
_atom_site_fract_x
_atom_site_fract_y
_atom_site_fract_z
Zn1	Zn	1.034773	-0.295677	0.382720
Zn2	Zn	1.368106	0.037657	0.716054
Zn3	Zn	1.701439	0.370990	1.049387
Zn4	Zn	1.034703	-0.419869	0.269532
Zn5	Zn	1.368036	-0.086535	0.602866
Zn6	Zn	1.701370	0.246798	0.936199
Zn7	Zn	0.921587	-0.295697	0.269545
Zn8	Zn	1.254921	0.037636	0.602878
Zn9	Zn	1.588254	0.370970	0.936212
Zn10	Zn	0.921566	-0.419829	0.382679
Zn11	Zn	1.254900	-0.086496	0.716013
Zn12	Zn	1.588233	0.246837	1.049346
O13	O	0.978157	-0.357768	0.326119
O14	O	1.311491	-0.024435	0.659453
O15	O	1.644824	0.308899	0.992786
O16	O	1.129480	-0.312159	0.367718
O17	O	1.462813	0.021174	0.701051
O18	O	1.796147	0.354508	1.034384
O19	O	1.019678	-0.403422	0.174817
O20	O	1.353011	-0.070089	0.508151
O21	O	1.686344	0.263244	0.841484
O22	O	0.936639	-0.191770	0.284580
O23	O	1.269973	0.141564	0.617914
O24	O	1.603306	0.474897	0.951247
O25	O	1.129429	-0.403402	0.284559
O26	O	1.462762	-0.070069	0.617892
O27	O	1.796095	0.263264	0.951226
O28	O	1.019796	-0.191755	0.367730
O29	O	1.353130	0.141579	0.701063
O30	O	1.686463	0.474912	1.034397
O31	O	0.936572	-0.312194	0.174827
O32	O	1.269905	0.021139	0.508160
O33	O	1.603239	0.354473	0.841493
O34	O	0.826868	-0.312156	0.284540
O35	O	1.160201	0.021178	0.617874
O36	O	1.493535	0.354511	0.951207
O37	O	0.936604	-0.403335	0.477401
O38	O	1.269937	-0.070002	0.810735
O39	O	1.603270	0.263332	1.144068
O40	O	0.826853	-0.403355	0.367660
O41	O	1.160186	-0.070022	0.700993
O42	O	1.493519	0.263312	1.034326
O43	O	1.019776	-0.312121	0.477432
O44	O	1.353109	0.021213	0.810765
O45	O	1.686443	0.354546	1.144098
O46	O	1.019657	-0.523788	0.284519
O47	O	1.352991	-0.190455	0.617852
O48	O	1.686324	0.142879	0.951186
O49	O	0.936536	-0.523759	0.367648
O50	O	1.269870	-0.190426	0.700981
O51	O	1.603203	0.142908	1.034314
C52	C	0.802301	-0.357754	0.326097
C53	C	1.135635	-0.024420	0.659431
C54	C	1.468968	0.308913	0.992764
C55	C	0.727069	-0.357766	0.326104
C56	C	1.060403	-0.024432	0.659437
C57	C	1.393736	0.308901	0.992771
C58	C	0.691735	-0.405325	0.369314
C59	C	1.025068	-0.071991	0.702648
C60	C	1.358402	0.261342	1.035981
C61	C	0.621046	-0.405326	0.369324
C62	C	0.954380	-0.071993	0.702657
C63	C	1.287713	0.261341	1.035990
C64	C	0.585694	-0.357771	0.326119
C65	C	0.919027	-0.024438	0.659453
C66	C	1.252360	0.308895	0.992786
C67	C	0.621033	-0.310207	0.282907
C68	C	0.954366	0.023126	0.616241
C69	C	1.287700	0.356460	0.949574
C70	C	0.691720	-0.310203	0.282902
C71	C	1.025054	0.023131	0.616235
C72	C	1.358387	0.356464	0.949568
C73	C	0.335960	-0.310224	0.282930
C74	C	0.669293	0.023110	0.616263
C75	C	1.002627	0.356443	0.949596
C76	C	0.265268	-0.310233	0.282937
C77	C	0.598601	0.023100	0.616270
C78	C	0.931934	0.356433	0.949604
C79	C	0.265286	-0.405347	0.369352
C80	C	0.598619	-0.072013	0.702685
C81	C	0.931953	0.261320	1.036018
C82	C	0.335973	-0.405342	0.369346
C83	C	0.669306	-0.072009	0.702679
C84	C	1.002640	0.261324	1.036013
C85	C	0.371306	-0.357776	0.326137
C86	C	0.704640	-0.024442	0.659470
C87	C	1.037973	0.308891	0.992804
C88	C	0.447955	-0.357774	0.326128
C89	C	0.781288	-0.024440	0.659461
C90	C	1.114621	0.308893	0.992795
C91	C	0.509047	-0.357776	0.326124
C92	C	0.842380	-0.024443	0.659458
C93	C	1.175713	0.308890	0.992791
C94	C	0.978105	-0.550720	0.326092
C95	C	1.311439	-0.217387	0.659426
C96	C	1.644772	0.115947	0.992759
C97	C	0.978145	-0.633266	0.326103
C98	C	1.311478	-0.299933	0.659437
C99	C	1.644812	0.033401	0.992770
C100	C	1.023440	-0.832705	0.280961
C101	C	1.356774	-0.499372	0.614295
C102	C	1.690107	-0.166039	0.947628
C103	C	1.039973	-0.882039	0.342736
C104	C	1.373306	-0.548706	0.676069
C105	C	1.706639	-0.215372	1.009403
C106	C	0.978183	-0.784396	0.326130
C107	C	1.311517	-0.451063	0.659464
C108	C	1.644850	-0.117730	0.992797
C109	C	0.961720	-0.882144	0.264383
C110	C	1.295053	-0.548811	0.597717
C111	C	1.628386	-0.215477	0.931050
C112	C	0.978222	-0.930381	0.326151
C113	C	1.311555	-0.597048	0.659484
C114	C	1.644888	-0.263715	0.992818
C115	C	0.994748	-0.832643	0.387938
C116	C	1.328081	-0.499309	0.721271
C117	C	1.661414	-0.165976	1.054604
C118	C	0.916466	-0.832743	0.309543
C119	C	1.249799	-0.499410	0.642876
C120	C	1.583132	-0.166077	0.976210
C121	C	0.932975	-0.882055	0.371361
C122	C	1.266308	-0.548722	0.704694
C123	C	1.599642	-0.215388	1.038027
C124	C	0.978163	-0.700298	0.326118
C125	C	1.311496	-0.366965	0.659451
C126	C	1.644830	-0.033631	0.992784
C127	C	0.978242	-1.014478	0.326171
C128	C	1.311575	-0.681144	0.659504
C129	C	1.644909	-0.347811	0.992837
C130	C	1.154700	-0.357783	0.326142
C131	C	1.488033	-0.024449	0.659475
C132	C	1.821367	0.308884	0.992808
C133	C	1.229932	-0.357789	0.326151
C134	C	1.563265	-0.024456	0.659484
C135	C	1.896599	0.308878	0.992818
C136	C	0.978195	-0.357721	0.502662
C137	C	1.311529	-0.024388	0.835995
C138	C	1.644862	0.308945	1.169329
C139	C	0.978211	-0.357701	0.577894
C140	C	1.311545	-0.024368	0.911227
C141	C	1.644878	0.308965	1.244561
C142	C	0.978228	-0.164062	0.326161
C143	C	1.311561	0.169271	0.659494
C144	C	1.644895	0.502604	0.992828
C145	C	0.978258	-0.081517	0.326179
C146	C	1.311591	0.251817	0.659512
C147	C	1.644925	0.585150	0.992846
C148	C	0.978158	-0.357761	0.150263
C149	C	1.311492	-0.024428	0.483597
C150	C	1.644825	0.308906	0.816930
C151	C	0.978273	-0.357572	0.075032
C152	C	1.311607	-0.024238	0.408365
C153	C	1.644940	0.309095	0.741698
C154	C	1.021520	-0.310204	0.613255
C155	C	1.354854	0.023130	0.946588
C156	C	1.688187	0.356463	1.279922
C157	C	1.021527	-0.310182	0.683944
C158	C	1.354860	0.023151	1.017277
C159	C	1.688194	0.356485	1.350610
C160	C	0.978228	-0.357662	0.719270
C161	C	1.311562	-0.024329	1.052603
C162	C	1.644895	0.309004	1.385936
C163	C	0.934915	-0.405162	0.683904
C164	C	1.268248	-0.071829	1.017237
C165	C	1.601581	0.261504	1.350570
C166	C	0.934905	-0.405180	0.613217
C167	C	1.268238	-0.071846	0.946550
C168	C	1.601572	0.261487	1.279883
C169	C	0.934953	-0.405093	0.968977
C170	C	1.268286	-0.071760	1.302311
C171	C	1.601620	0.261574	1.635644
C172	C	0.934968	-0.405074	1.039669
C173	C	1.268301	-0.071740	1.373003
C174	C	1.601634	0.261593	1.706336
C175	C	1.021575	-0.310096	1.039704
C176	C	1.354909	0.023238	1.373038
C177	C	1.688242	0.356571	1.706371
C178	C	1.021565	-0.310113	0.969017
C179	C	1.354899	0.023221	1.302350
C180	C	1.688232	0.356554	1.635684
C181	C	0.978250	-0.357609	0.933657
C182	C	1.311583	-0.024276	1.266991
C183	C	1.644916	0.309057	1.600324
C184	C	0.978242	-0.357631	0.857009
C185	C	1.311575	-0.024298	1.190342
C186	C	1.644908	0.309035	1.523675
C187	C	0.978239	-0.357645	0.795917
C188	C	1.311572	-0.024312	1.129250
C189	C	1.644906	0.309022	1.462584
H190	H	0.364720	-0.271497	0.247741
H191	H	0.698053	0.061836	0.581074
H192	H	1.031386	0.395169	0.914408
H193	H	0.236486	-0.271504	0.247755
H194	H	0.569819	0.061829	0.581088
H195	H	0.903152	0.395163	0.914421
H196	H	0.864271	-0.811072	0.295482
H197	H	1.197604	-0.477739	0.628815
H198	H	1.530938	-0.144405	0.962149
O199	O	1.068276	-0.258849	1.077850
O200	O	1.401609	0.074485	1.411184
O201	O	1.734943	0.407818	1.744517
H202	H	1.102700	-0.292074	1.110067
H203	H	1.436033	0.041259	1.443401
H204	H	1.769367	0.374592	1.776734
H205	H	0.947779	-0.903887	0.212156
H206	H	1.281112	-0.570554	0.545489
H207	H	1.614445	-0.237220	0.878823
O208	O	0.729837	-0.258907	0.236297
O209	O	1.063170	0.074426	0.569630
O210	O	1.396503	0.407759	0.902964
H211	H	0.762024	-0.292096	0.201810
H212	H	1.095358	0.041238	0.535143
H213	H	1.428691	0.374571	0.868476
H214	H	1.056781	-0.271542	0.584498
H215	H	1.390115	0.061792	0.917831
H216	H	1.723448	0.395125	1.251164
H217	H	0.592243	-0.271484	0.247732
H218	H	0.925577	0.061849	0.581066
H219	H	1.258910	0.395182	0.914399
O220	O	1.074146	-0.803990	0.230415
O221	O	1.407480	-0.470657	0.563749
O222	O	1.740813	-0.137323	0.897082
H223	H	1.125354	-0.823731	0.244359
H224	H	1.458688	-0.490398	0.577692
H225	H	1.792021	-0.157064	0.911025
H226	H	1.056795	-0.271506	0.712731
H227	H	1.390128	0.061827	1.046065
H228	H	1.723462	0.395160	1.379398
H229	H	1.056826	-0.271452	0.940258
H230	H	1.390159	0.061882	1.273591
H231	H	1.723493	0.395215	1.606925
O232	O	1.109127	-0.910727	0.361346
O233	O	1.442460	-0.577393	0.694679
O234	O	1.775794	-0.244060	1.028012
H235	H	1.146591	-0.890966	0.323773
H236	H	1.479924	-0.557633	0.657106
H237	H	1.813257	-0.224300	0.990439
H238	H	0.899705	-0.443739	1.068430
H239	H	1.233039	-0.110406	1.401763
H240	H	1.566372	0.222927	1.735097
H241	H	0.899693	-0.443779	0.940196
H242	H	1.233026	-0.110445	1.273529
H243	H	1.566359	0.222888	1.606862
H244	H	1.008637	-0.810992	0.440210
H245	H	1.341970	-0.477658	0.773543
H246	H	1.675303	-0.144325	1.106877
O247	O	0.882297	-0.910583	0.422021
O248	O	1.215630	-0.577249	0.755354
O249	O	1.548963	-0.243916	1.088688
H250	H	0.896138	-0.890647	0.473213
H251	H	1.229471	-0.557314	0.806546
H252	H	1.562805	-0.223980	1.139879
O253	O	0.888207	-0.456371	0.722000
O254	O	1.221541	-0.123038	1.055334
O255	O	1.554874	0.210295	1.388667
H256	H	0.895493	-0.448385	0.777095
H257	H	1.228826	-0.115051	1.110428
H258	H	1.562159	0.218282	1.443762
H259	H	0.899632	-0.443850	0.584427
H260	H	1.232965	-0.110516	0.917760
H261	H	1.566298	0.222817	1.251093
O262	O	0.227172	-0.456697	0.415916
O263	O	0.560506	-0.123363	0.749249
O264	O	0.893839	0.209970	1.082582
H265	H	0.263632	-0.489787	0.445933
H266	H	0.596965	-0.156454	0.779267
H267	H	0.930299	0.176879	1.112600
O268	O	0.729868	-0.456607	0.415919
O269	O	1.063202	-0.123273	0.749253
O270	O	1.396535	0.210060	1.082586
H271	H	0.716284	-0.514880	0.404228
H272	H	1.049617	-0.181547	0.737562
H273	H	1.382950	0.151786	1.070895
O274	O	0.582933	-0.456763	0.415798
O275	O	0.916266	-0.123430	0.749132
O276	O	1.249600	0.209904	1.082465
H277	H	0.619391	-0.489888	0.445786
H278	H	0.952725	-0.156554	0.779120
H279	H	1.286058	0.176779	1.112453
H280	H	0.364754	-0.444069	0.404525
H281	H	0.698087	-0.110735	0.737859
H282	H	1.031420	0.222598	1.071192
