data_functionalizedCrystal
_audit_creation_method	'MofGen! by Chris Wilmer'
_symmetry_space_group_name_H-M	'P1'
_symmetry_Int_Tables_number	1
_symmetry_cell_setting	triclinic
loop_
_symmetry_equiv_pos_as_xyz
  x,y,z
_cell_length_a	14.519709
_cell_length_b	14.519709
_cell_length_c	8.140239
_cell_angle_alpha	90.006277
_cell_angle_beta	89.994791
_cell_angle_gamma	83.680145
loop_
_atom_site_label
_atom_site_type_symbol
_atom_site_fract_x
_atom_site_fract_y
_atom_site_fract_z
O1	O	1.223862	0.120893	0.136403
O2	O	1.473862	0.370893	0.386403
O3	O	1.723862	0.620893	0.636403
O4	O	1.973862	0.870893	0.886403
O5	O	0.955385	0.135129	0.136454
O6	O	1.205385	0.385129	0.386454
O7	O	1.455385	0.635129	0.636454
O8	O	1.705385	0.885129	0.886454
O9	O	1.096742	-0.006228	0.136412
O10	O	1.346742	0.243772	0.386412
O11	O	1.596742	0.493772	0.636412
O12	O	1.846742	0.743772	0.886412
O13	O	1.082505	0.262249	0.136445
O14	O	1.332505	0.512249	0.386445
O15	O	1.582505	0.762249	0.636445
O16	O	1.832505	1.012249	0.886445
O17	O	1.096741	-0.006235	-0.136815
O18	O	1.346741	0.243765	0.113185
O19	O	1.596741	0.493765	0.363185
O20	O	1.846741	0.743765	0.613185
O21	O	0.955384	0.135122	-0.136773
O22	O	1.205384	0.385122	0.113227
O23	O	1.455384	0.635122	0.363227
O24	O	1.705384	0.885122	0.613227
O25	O	1.223861	0.120885	-0.136824
O26	O	1.473861	0.370885	0.113176
O27	O	1.723861	0.620885	0.363176
O28	O	1.973861	0.870885	0.613176
Zn29	Zn	1.089622	0.128003	-0.180179
Zn30	Zn	1.339622	0.378003	0.069821
Zn31	Zn	1.589622	0.628003	0.319821
Zn32	Zn	1.839622	0.878003	0.569821
Zn33	Zn	1.089624	0.128012	0.179809
Zn34	Zn	1.339624	0.378012	0.429809
Zn35	Zn	1.589624	0.628012	0.679809
Zn36	Zn	1.839624	0.878012	0.929809
O37	O	1.082504	0.262242	-0.136783
O38	O	1.332504	0.512242	0.113217
O39	O	1.582504	0.762242	0.363217
O40	O	1.832504	1.012242	0.613217
C41	C	0.921025	0.134462	-0.000153
C42	C	1.171025	0.384462	0.249847
C43	C	1.421025	0.634462	0.499847
C44	C	1.671025	0.884462	0.749847
C45	C	0.818643	0.132474	-0.000135
C46	C	1.068643	0.382474	0.249865
C47	C	1.318643	0.632474	0.499865
C48	C	1.568643	0.882474	0.749865
C49	C	0.443748	0.125154	-0.000210
C50	C	0.693748	0.375154	0.249790
C51	C	0.943748	0.625154	0.499790
C52	C	1.193748	0.875154	0.749790
C53	C	0.548056	0.127187	-0.000189
C54	C	0.798056	0.377187	0.249811
C55	C	1.048056	0.627187	0.499811
C56	C	1.298056	0.877187	0.749811
C57	C	0.631192	0.128814	-0.000171
C58	C	0.881192	0.378814	0.249829
C59	C	1.131192	0.628814	0.499829
C60	C	1.381192	0.878814	0.749829
C61	C	0.735507	0.130847	-0.000152
C62	C	0.985507	0.380847	0.249848
C63	C	1.235507	0.630847	0.499848
C64	C	1.485507	0.880847	0.749848
C65	C	1.096078	-0.040591	-0.000201
C66	C	1.346078	0.209409	0.249799
C67	C	1.596078	0.459409	0.499799
C68	C	1.846078	0.709409	0.749799
C69	C	1.094090	-0.142972	-0.000202
C70	C	1.344090	0.107028	0.249798
C71	C	1.594090	0.357028	0.499798
C72	C	1.844090	0.607028	0.749798
C73	C	1.258221	0.121553	-0.000213
C74	C	1.508221	0.371553	0.249787
C75	C	1.758221	0.621553	0.499787
C76	C	2.008221	0.871553	0.749787
C77	C	1.360602	0.123541	-0.000221
C78	C	1.610602	0.373541	0.249779
C79	C	1.860602	0.623541	0.499779
C80	C	2.110602	0.873541	0.749779
C81	C	1.086770	-0.517868	-0.000158
C82	C	1.336770	-0.267868	0.249842
C83	C	1.586770	-0.017868	0.499842
C84	C	1.836770	0.232132	0.749842
C85	C	1.088803	-0.413560	-0.000171
C86	C	1.338803	-0.163560	0.249829
C87	C	1.588803	0.086440	0.499829
C88	C	1.838803	0.336440	0.749829
C89	C	1.090430	-0.330423	-0.000181
C90	C	1.340430	-0.080423	0.249819
C91	C	1.590430	0.169577	0.499819
C92	C	1.840430	0.419577	0.749819
C93	C	1.092463	-0.226109	-0.000191
C94	C	1.342463	0.023891	0.249809
C95	C	1.592463	0.273891	0.499809
C96	C	1.842463	0.523891	0.749809
C97	C	1.083168	0.296605	-0.000165
C98	C	1.333168	0.546605	0.249835
C99	C	1.583168	0.796605	0.499835
C100	C	1.833168	1.046605	0.749835
C101	C	1.085156	0.398987	-0.000154
C102	C	1.335156	0.648987	0.249846
C103	C	1.585156	0.898987	0.499846
C104	C	1.835156	1.148987	0.749846
N105	N	1.089625	0.128012	0.425492
N106	N	1.339625	0.378012	0.675492
N107	N	1.589625	0.628012	0.925492
N108	N	1.839625	0.878012	1.175492
N109	N	1.089628	0.127996	-0.425862
N110	N	1.339628	0.377996	-0.175862
N111	N	1.589628	0.627996	0.074138
N112	N	1.839628	0.877996	0.324138
