data_functionalizedCrystal
_audit_creation_method	'MofGen! by Chris Wilmer'
_symmetry_space_group_name_H-M	'P1'
_symmetry_Int_Tables_number	1
_symmetry_cell_setting	triclinic
loop_
_symmetry_equiv_pos_as_xyz
  x,y,z
_cell_length_a	21.295418
_cell_length_b	21.395362
_cell_length_c	21.395356
_cell_angle_alpha	89.972991
_cell_angle_beta	89.964318
_cell_angle_gamma	90.044194
loop_
_atom_site_label
_atom_site_type_symbol
_atom_site_fract_x
_atom_site_fract_y
_atom_site_fract_z
Zn1	Zn	0.962315	-0.249187	-0.354587
Zn2	Zn	0.962236	-0.353964	-0.249812
Zn3	Zn	0.857053	-0.249234	-0.249789
Zn4	Zn	0.857012	-0.353959	-0.354517
O5	O	0.909654	-0.301586	-0.302176
O6	O	1.050394	-0.263068	-0.340728
O7	O	0.948268	-0.340093	-0.162131
O8	O	0.871067	-0.161549	-0.263711
O9	O	1.050336	-0.340048	-0.263750
O10	O	0.948402	-0.161515	-0.340705
O11	O	0.870990	-0.263148	-0.162114
O12	O	0.768958	-0.263143	-0.263642
O13	O	0.870996	-0.340040	-0.442204
O14	O	0.768928	-0.340085	-0.340586
O15	O	0.948362	-0.263064	-0.442256
O16	O	0.948228	-0.441642	-0.263682
O17	O	0.870919	-0.441638	-0.340608
C18	C	0.746102	-0.301619	-0.302104
C19	C	0.676134	-0.301648	-0.302088
C20	C	0.909577	-0.464374	-0.302153
C21	C	0.909602	-0.534015	-0.302165
C22	C	0.950001	-1.035740	-0.342348
C23	C	0.949982	-0.970305	-0.342338
C24	C	0.909740	-0.937653	-0.302216
C25	C	0.869524	-0.970442	-0.262089
C26	C	0.869548	-1.035876	-0.262095
C27	C	0.852990	-0.834053	-0.297187
C28	C	0.852965	-0.768620	-0.297184
C29	C	0.909666	-0.735832	-0.302192
C30	C	0.966393	-0.768486	-0.307215
C31	C	0.966417	-0.833920	-0.307221
C32	C	0.909709	-0.866701	-0.302204
C33	C	0.949862	-0.632099	-0.342303
C34	C	0.949845	-0.566662	-0.342288
C35	C	0.869380	-0.566801	-0.262042
C36	C	0.869404	-0.632236	-0.262053
C37	C	0.909644	-0.664881	-0.302187
C38	C	0.643268	-0.341765	-0.342093
C39	C	0.577526	-0.341749	-0.342121
C40	C	0.544652	-0.301624	-0.302133
C41	C	0.577526	-0.261500	-0.262126
C42	C	0.643267	-0.261512	-0.262104
N43	N	0.441383	-0.296729	-0.247333
N44	N	0.378932	-0.296721	-0.247356
C45	C	0.346577	-0.301584	-0.302200
N46	N	0.379033	-0.306467	-0.357021
N47	N	0.441490	-0.306478	-0.356997
C48	C	0.473366	-0.301606	-0.302154
C49	C	0.242425	-0.341686	-0.342238
C50	C	0.176682	-0.341666	-0.342267
C51	C	0.176683	-0.261420	-0.262267
C52	C	0.242425	-0.261436	-0.262243
C53	C	0.275293	-0.301573	-0.302228
C54	C	1.073844	-0.301553	-0.302249
C55	C	1.143812	-0.301539	-0.302280
C56	C	0.909683	-0.301546	-0.465600
C57	C	0.909696	-0.301529	-0.535241
C58	C	0.909748	-0.138163	-0.302213
C59	C	0.909788	-0.068521	-0.302229
C60	C	0.950039	-0.261347	-1.037065
C61	C	0.950034	-0.261362	-0.971630
C62	C	0.909750	-0.301445	-0.938880
C63	C	0.869478	-0.341527	-0.971570
C64	C	0.869489	-0.341515	-1.037004
C65	C	0.853016	-0.306423	-0.835185
C66	C	0.853004	-0.306430	-0.769752
C67	C	0.909717	-0.301485	-0.737059
C68	C	0.966444	-0.296520	-0.769807
C69	C	0.966454	-0.296508	-0.835241
C70	C	0.909734	-0.301463	-0.867927
C71	C	0.949984	-0.261425	-0.633424
C72	C	0.949980	-0.261445	-0.567987
C73	C	0.869418	-0.341606	-0.567928
C74	C	0.869428	-0.341590	-0.633364
C75	C	0.909710	-0.301496	-0.666107
C76	C	0.909661	-0.301581	-0.139389
C77	C	0.909771	-0.301422	-0.069748
H78	H	0.982773	-1.062316	-0.375023
H79	H	0.982826	-0.228727	-0.945015
H80	H	0.550761	-0.374417	-0.374700
H81	H	0.836634	-0.374220	-0.659974
H82	H	0.982624	-0.658680	-0.374986
H83	H	0.806830	-0.310450	-0.861798
H84	H	0.670025	-0.374446	-0.374652
C85	C	0.541363	-0.217361	-0.218140
N86	N	0.514125	-0.184114	-0.185009
C87	C	0.790604	-0.311888	-0.733735
N88	N	0.743602	-0.315998	-0.706609
H89	H	0.836696	-0.374150	-1.063614
H90	H	0.670026	-0.228842	-0.229527
C91	C	0.994280	-0.217356	-0.532036
N92	N	1.027645	-0.184146	-0.504957
C93	C	0.994092	-0.530603	-0.386418
N94	N	1.027422	-0.503442	-0.419656
C95	C	0.994355	-0.217248	-1.073080
N96	N	1.027736	-0.184033	-1.100207
C97	C	0.825163	-0.385617	-0.935544
N98	N	0.791784	-0.418827	-0.908408
C99	C	0.790611	-0.870113	-0.291680
N100	N	0.743628	-0.897272	-0.287533
H101	H	0.982730	-0.943609	-0.375009
H102	H	1.012643	-0.292467	-0.861902
C103	C	1.028817	-0.869836	-0.312736
N104	N	1.075817	-0.896888	-0.316886
H105	H	0.982783	-0.228778	-0.660085
H106	H	0.836620	-0.374245	-0.541264
C107	C	1.028834	-0.291084	-0.733849
N108	N	1.075825	-0.286989	-0.706764
H109	H	0.269187	-0.374364	-0.374799
H110	H	0.149923	-0.374333	-0.374848
C111	C	0.825255	-0.934524	-0.217955
N112	N	0.791912	-0.907471	-0.184711
H113	H	0.836617	-0.540216	-0.229371
C114	C	0.140526	-0.217280	-0.218280
N115	N	0.113288	-0.184033	-0.185149
C116	C	0.278580	-0.217310	-0.218229
N117	N	0.305810	-0.184071	-0.185076
C118	C	1.028769	-0.732424	-0.312721
N119	N	1.075749	-0.705260	-0.316869
H120	H	0.836800	-1.062567	-0.229424
C121	C	0.790562	-0.732708	-0.291685
N122	N	0.743558	-0.705660	-0.287550
C123	C	0.825159	-0.668297	-0.217924
N124	N	0.791832	-0.695458	-0.184684
