data_functionalizedCrystal
_audit_creation_method	'MofGen! by Chris Wilmer'
_symmetry_space_group_name_H-M	'P1'
_symmetry_Int_Tables_number	1
_symmetry_cell_setting	triclinic
loop_
_symmetry_equiv_pos_as_xyz
  x,y,z
_cell_length_a	21.395362
_cell_length_b	12.759399
_cell_length_c	21.395355
_cell_angle_alpha	90.013791
_cell_angle_beta	90.043940
_cell_angle_gamma	90.032096
loop_
_atom_site_label
_atom_site_type_symbol
_atom_site_fract_x
_atom_site_fract_y
_atom_site_fract_z
Zn1	Zn	0.957923	-0.417943	0.354606
Zn2	Zn	1.457923	0.082057	0.854606
Zn3	Zn	0.957852	-0.593607	0.249837
Zn4	Zn	1.457852	-0.093607	0.749837
Zn5	Zn	0.853137	-0.417992	0.249807
Zn6	Zn	1.353137	0.082008	0.749807
Zn7	Zn	0.853133	-0.593629	0.354542
Zn8	Zn	1.353133	-0.093629	0.854542
O9	O	0.905511	-0.505793	0.302198
O10	O	1.405511	-0.005793	0.802198
O11	O	1.045591	-0.441215	0.340748
O12	O	1.545591	0.058785	0.840748
O13	O	0.943933	-0.570323	0.162155
O14	O	1.443933	-0.070323	0.662155
O15	O	0.867069	-0.270964	0.263724
O16	O	1.367069	0.229036	0.763724
O17	O	1.045539	-0.570275	0.263775
O18	O	1.545539	-0.070275	0.763775
O19	O	0.944054	-0.270928	0.340719
O20	O	1.444054	0.229072	0.840719
O21	O	0.867000	-0.441299	0.162134
O22	O	1.367000	0.058701	0.662134
O23	O	0.765459	-0.441320	0.263661
O24	O	1.265459	0.058680	0.763661
O25	O	0.867062	-0.570312	0.442229
O26	O	1.367062	-0.070312	0.942229
O27	O	0.765456	-0.570360	0.340609
O28	O	1.265456	-0.070360	0.840609
O29	O	0.944050	-0.441236	0.442276
O30	O	1.444050	0.058764	0.942276
O31	O	0.943929	-0.740631	0.263712
O32	O	1.443929	-0.240631	0.763712
O33	O	0.866993	-0.740647	0.340638
O34	O	1.366993	-0.240647	0.840638
C35	C	0.742724	-0.505848	0.302126
C36	C	1.242724	-0.005848	0.802126
C37	C	0.673082	-0.505897	0.302109
C38	C	1.173082	-0.005897	0.802109
C39	C	0.640384	-0.573177	0.342116
C40	C	1.140384	-0.073177	0.842116
C41	C	0.574948	-0.573152	0.342144
C42	C	1.074948	-0.073152	0.842144
C43	C	0.542214	-0.505857	0.302154
C44	C	1.042214	-0.005857	0.802154
C45	C	0.574920	-0.438564	0.262144
C46	C	1.074920	0.061436	0.762144
C47	C	0.640354	-0.438584	0.262122
C48	C	1.140354	0.061416	0.762122
C49	C	0.438488	-0.497393	0.245748
C50	C	0.938488	0.002607	0.745748
C51	C	0.373055	-0.497380	0.245770
C52	C	0.873055	0.002620	0.745770
C53	C	0.340393	-0.505788	0.302223
C54	C	0.840393	-0.005788	0.802223
C55	C	0.373173	-0.514231	0.358657
C56	C	0.873173	-0.014231	0.858657
C57	C	0.438607	-0.514251	0.358635
C58	C	0.938607	-0.014251	0.858635
C59	C	0.471262	-0.505827	0.302174
C60	C	0.971262	-0.005827	0.802174
C61	C	0.236742	-0.573044	0.342264
C62	C	0.736742	-0.073044	0.842264
C63	C	0.171306	-0.573011	0.342293
C64	C	0.671306	-0.073011	0.842293
C65	C	0.171279	-0.438428	0.262287
C66	C	0.671279	0.061572	0.762287
C67	C	0.236714	-0.438456	0.262264
C68	C	0.736714	0.061544	0.762264
C69	C	0.269442	-0.505769	0.302251
C70	C	0.769442	-0.005769	0.802251
C71	C	0.905470	-0.778760	0.302185
C72	C	1.405470	-0.278760	0.802185
C73	C	0.905509	-0.895537	0.302201
C74	C	1.405509	-0.395537	0.802201
C75	C	0.865480	-0.950510	0.262092
C76	C	1.365480	-0.450510	0.762092
C77	C	0.865524	-1.060234	0.262108
C78	C	1.365524	-0.560234	0.762108
C79	C	0.945628	-1.060001	0.342347
C80	C	1.445628	-0.560001	0.842347
C81	C	0.945587	-0.950279	0.342328
C82	C	1.445587	-0.450279	0.842328
C83	C	0.843230	-1.210296	0.188214
C84	C	1.343230	-0.710296	0.688214
C85	C	0.803192	-1.265274	0.148111
C86	C	1.303192	-0.765274	0.648111
C87	C	0.742047	-1.229794	0.138408
C88	C	1.242047	-0.729794	0.638408
C89	C	0.720929	-1.139339	0.168819
C90	C	1.220929	-0.639339	0.668819
C91	C	0.760964	-1.084367	0.208927
C92	C	1.260964	-0.584367	0.708927
C93	C	0.822117	-1.119845	0.218617
C94	C	1.322117	-0.619845	0.718617
C95	C	0.967875	-0.800215	0.416222
C96	C	1.467875	-0.300215	0.916222
C97	C	1.007907	-0.745242	0.456334
C98	C	1.507907	-0.245242	0.956334
C99	C	1.069053	-0.780719	0.466042
C100	C	1.569053	-0.280719	0.966042
C101	C	1.090169	-0.871178	0.435643
C102	C	1.590169	-0.371178	0.935643
C103	C	1.050136	-0.926152	0.395531
C104	C	1.550136	-0.426152	0.895531
C105	C	0.988991	-0.890667	0.385822
C106	C	1.488991	-0.390667	0.885822
C107	C	1.068935	-0.505738	0.302272
C108	C	1.568935	-0.005738	0.802272
C109	C	1.138576	-0.505714	0.302303
C110	C	1.638576	-0.005714	0.802303
C111	C	0.905563	-0.505771	0.465622
C112	C	1.405563	-0.005771	0.965622
C113	C	0.905585	-0.505762	0.535263
C114	C	1.405585	-0.005762	1.035263
C115	C	0.905570	-0.231759	0.302225
C116	C	1.405570	0.268241	0.802225
C117	C	0.905595	-0.114983	0.302236
C118	C	1.405595	0.385017	0.802236
C119	C	0.905495	-0.505738	0.139411
C120	C	1.405495	-0.005738	0.639411
C121	C	0.905595	-0.505451	0.069770
C122	C	1.405595	-0.005451	0.569770
C123	C	0.945671	-0.438550	0.568002
C124	C	1.445671	0.061450	1.068002
C125	C	0.945671	-0.438504	0.633437
C126	C	1.445671	0.061496	1.133437
C127	C	0.905590	-0.505691	0.666131
C128	C	1.405590	-0.005691	1.166131
C129	C	0.865496	-0.572908	0.633385
C130	C	1.365496	-0.072908	1.133385
C131	C	0.865494	-0.572944	0.567951
C132	C	1.365494	-0.072944	1.067951
C133	C	0.900629	-0.600292	0.769800
C134	C	1.400629	-0.100292	1.269800
C135	C	0.900635	-0.600258	0.835233
C136	C	1.400635	-0.100258	1.335233
C137	C	0.905594	-0.505580	0.867952
C138	C	1.405594	-0.005580	1.367952
C139	C	0.910559	-0.410932	0.835230
C140	C	1.410559	0.089068	1.335230
C141	C	0.910557	-0.410968	0.769796
C142	C	1.410557	0.089032	1.269796
C143	C	0.905588	-0.505659	0.737084
C144	C	1.405588	-0.005659	1.237084
C145	C	0.945681	-0.438312	0.971643
C146	C	1.445681	0.061688	1.471643
C147	C	0.945676	-0.438265	1.037080
C148	C	1.445676	0.061735	1.537080
C149	C	0.865505	-0.572678	1.037027
C150	C	1.365505	-0.072678	1.537027
C151	C	0.865507	-0.572716	0.971591
C152	C	1.365507	-0.072716	1.471591
C153	C	0.905599	-0.505534	0.938904
C154	C	1.405599	-0.005534	1.438904
H155	H	0.144684	-0.627797	0.374875
H156	H	0.644684	-0.127797	0.874875
O157	O	0.822273	-0.645146	1.072279
O158	O	1.322273	-0.145146	1.572279
H159	H	0.829010	-0.633834	1.123280
H160	H	1.329010	-0.133834	1.623280
O161	O	0.895272	-0.702414	0.734511
O162	O	1.395272	-0.202414	1.234511
H163	H	0.891827	-0.768219	0.768255
H164	H	1.391827	-0.268219	1.268255
O165	O	0.473710	-0.488327	0.184853
O166	O	0.973710	0.011673	0.684853
H167	H	0.503550	-0.417160	0.185904
H168	H	1.003550	0.082840	0.685904
H169	H	0.548320	-0.627939	0.374725
H170	H	1.048320	-0.127939	0.874725
H171	H	0.978257	-1.104586	0.375018
H172	H	1.478257	-0.604586	0.875018
O173	O	0.822275	-0.645206	0.936266
O174	O	1.322275	-0.145206	1.436266
H175	H	0.790411	-0.598188	0.906436
H176	H	1.290411	-0.098188	1.406436
H177	H	0.548264	-0.383770	0.229585
H178	H	1.048264	0.116230	0.729585
O179	O	0.738194	-0.986804	0.241719
O180	O	1.238194	-0.486804	0.741719
H181	H	0.741146	-0.998287	0.293059
H182	H	1.241146	-0.498287	0.793059
H183	H	0.832861	-0.627608	0.660009
H184	H	1.332861	-0.127608	1.160009
H185	H	0.666977	-0.383793	0.229543
H186	H	1.166977	0.116207	0.729543
O187	O	0.988907	-0.366083	0.532747
O188	O	1.488907	0.133917	1.032747
H189	H	1.020775	-0.413114	0.502965
H190	H	1.520775	0.086886	1.002965
H191	H	0.832847	-0.905942	0.229417
H192	H	1.332847	-0.405942	0.729417
H193	H	0.820392	-1.338923	0.123351
H194	H	1.320392	-0.838923	0.623351
O195	O	0.988920	-0.365852	0.936385
O196	O	1.488920	0.134148	1.436385
H197	H	0.982192	-0.377181	0.885384
H198	H	1.482192	0.122819	1.385384
O199	O	0.473959	-0.523338	0.419501
O200	O	0.973959	-0.023338	0.919501
H201	H	0.503736	-0.594519	0.418430
H202	H	1.003736	-0.094519	0.918430
O203	O	0.135975	-0.365850	0.219155
O204	O	0.635975	0.134150	0.719155
H205	H	0.148577	-0.283422	0.229983
H206	H	0.648577	0.216578	0.729983
O207	O	0.271988	-0.365917	0.219097
O208	O	0.771988	0.134083	0.719097
H209	H	0.238235	-0.319129	0.191286
H210	H	0.738235	0.180871	0.691286
O211	O	0.337957	-0.523292	0.419554
O212	O	0.837957	-0.023292	0.919554
H213	H	0.286949	-0.521845	0.410093
H214	H	0.786949	-0.021845	0.910093
O215	O	0.337701	-0.488269	0.184906
O216	O	0.837701	0.011731	0.684906
H217	H	0.371404	-0.482402	0.145648
H218	H	0.871404	0.017598	0.645648
H219	H	0.832848	-0.627675	0.541295
H220	H	1.332848	-0.127675	1.041295
H221	H	0.918090	-0.771304	0.408306
H222	H	1.418090	-0.271304	0.908306
O223	O	0.654977	-1.101069	0.158356
O224	O	1.154977	-0.601069	0.658356
H225	H	0.630688	-1.154484	0.125353
H226	H	1.130688	-0.654484	0.625353
H227	H	0.978312	-0.383766	0.660098
H228	H	1.478312	0.116234	1.160098
H229	H	0.263391	-0.627849	0.374827
H230	H	0.763391	-0.127849	0.874827
O231	O	0.698862	-1.289077	0.095148
O232	O	1.198862	-0.789077	0.595148
H233	H	0.723820	-1.357928	0.075629
H234	H	1.223820	-0.857928	0.575629
H235	H	0.893021	-1.239185	0.196103
H236	H	1.393021	-0.739185	0.696103
H237	H	1.067333	-0.999812	0.370782
H238	H	1.567333	-0.499812	0.870782
O239	O	1.156121	-0.909452	0.446106
O240	O	1.656121	-0.409452	0.946106
H241	H	1.180413	-0.856022	0.479100
H242	H	1.680413	-0.356022	0.979100
O243	O	1.112231	-0.721426	0.509308
O244	O	1.612231	-0.221426	1.009308
H245	H	1.153865	-0.694570	0.482846
H246	H	1.653865	-0.194570	0.982846
O247	O	0.985137	-0.647672	0.489124
O248	O	1.485137	-0.147672	0.989124
H249	H	0.935895	-0.632224	0.475628
H250	H	1.435895	-0.132224	0.975628
O251	O	0.915908	-0.308895	0.734501
O252	O	1.415908	0.191105	1.234501
H253	H	0.919355	-0.243048	0.768240
H254	H	1.419355	0.256952	1.268240
H255	H	0.914598	-0.333836	0.861869
H256	H	1.414598	0.166164	1.361869
H257	H	0.978318	-0.383527	1.063735
H258	H	1.478318	0.116473	1.563735
O259	O	0.895274	-0.702338	0.870519
O260	O	1.395274	-0.202338	1.370519
H261	H	0.935093	-0.753932	0.857987
H262	H	1.435093	-0.253932	1.357987
H263	H	0.667027	-0.627988	0.374678
H264	H	1.167027	-0.127988	0.874678
