data_functionalizedCrystal
_audit_creation_method	'MofGen! by Chris Wilmer'
_symmetry_space_group_name_H-M	'P1'
_symmetry_Int_Tables_number	1
_symmetry_cell_setting	triclinic
loop_
_symmetry_equiv_pos_as_xyz
  x,y,z
_cell_length_a	21.395364
_cell_length_b	21.395361
_cell_length_c	21.395355
_cell_angle_alpha	89.980951
_cell_angle_beta	89.974400
_cell_angle_gamma	90.028035
loop_
_atom_site_label
_atom_site_type_symbol
_atom_site_fract_x
_atom_site_fract_y
_atom_site_fract_z
Zn1	Zn	-0.957860	0.249553	0.354277
Zn2	Zn	-0.957763	0.354313	0.249498
Zn3	Zn	-0.853075	0.249548	0.249511
Zn4	Zn	-0.853044	0.354292	0.354236
O5	O	-0.905435	0.301927	0.301881
O6	O	-1.045525	0.263460	0.340389
O7	O	-0.943848	0.340422	0.161822
O8	O	-0.867028	0.161871	0.263431
O9	O	-1.045453	0.340427	0.263408
O10	O	-0.944013	0.161874	0.340402
O11	O	-0.866934	0.263452	0.161832
O12	O	-0.765393	0.263432	0.263392
O13	O	-0.866976	0.340391	0.441920
O14	O	-0.765370	0.340387	0.340333
O15	O	-0.943984	0.263440	0.441949
O16	O	-0.943818	0.441988	0.263370
O17	O	-0.866882	0.441973	0.340320
C18	C	-0.742648	0.301907	0.301860
C19	C	-0.673006	0.301914	0.301866
C20	C	-0.171215	0.342060	0.341894
C21	C	-0.236650	0.342061	0.341888
C22	C	-0.269368	0.301931	0.301891
C23	C	-0.236645	0.261809	0.261884
C24	C	-0.171211	0.261813	0.261887
C25	C	-0.373057	0.245467	0.297042
C26	C	-0.438490	0.245462	0.297044
C27	C	-0.471189	0.301917	0.301880
C28	C	-0.438447	0.358380	0.306728
C29	C	-0.373013	0.358385	0.306730
C30	C	-0.340321	0.301922	0.301884
C31	C	-0.574857	0.342041	0.341875
C32	C	-0.640293	0.342044	0.341865
C33	C	-0.640287	0.261786	0.261864
C34	C	-0.574851	0.261790	0.261871
C35	C	-0.542140	0.301916	0.301880
C36	C	-0.905353	0.464714	0.301853
C37	C	-0.905375	0.534355	0.301862
C38	C	-0.068859	0.301942	0.301898
C39	C	-0.138500	0.301940	0.301895
C40	C	-0.945472	0.567056	0.261836
C41	C	-0.945501	0.632491	0.261853
C42	C	-0.905423	0.665224	0.301889
C43	C	-0.865324	0.632516	0.341922
C44	C	-0.865300	0.567081	0.341909
C45	C	-0.849008	0.768936	0.306802
C46	C	-0.849031	0.834369	0.306811
C47	C	-0.905496	0.867044	0.301934
C48	C	-0.961941	0.834278	0.297035
C49	C	-0.961917	0.768844	0.297021
C50	C	-0.905444	0.736176	0.301908
C51	C	-0.945628	0.970697	0.261925
C52	C	-0.945658	1.036134	0.261946
C53	C	-0.865476	1.036157	0.342012
C54	C	-0.865451	0.970722	0.341994
C55	C	-0.905526	0.937996	0.301947
C56	C	-0.905487	0.301914	0.465304
C57	C	-0.905510	0.301908	0.534945
C58	C	-0.905536	1.138503	0.301933
C59	C	-0.905580	1.068862	0.301983
C60	C	-0.905420	0.301894	0.139093
C61	C	-0.905519	0.301723	0.069452
C62	C	-0.945606	0.261838	0.567675
C63	C	-0.945605	0.261811	0.633110
C64	C	-0.905514	0.301866	0.665814
C65	C	-0.865411	0.341939	0.633076
C66	C	-0.865408	0.341960	0.567642
C67	C	-0.900539	0.358281	0.769479
C68	C	-0.900545	0.358261	0.834912
C69	C	-0.905518	0.301800	0.867635
C70	C	-0.910497	0.245357	0.834916
C71	C	-0.910495	0.245378	0.769482
C72	C	-0.905512	0.301847	0.736766
C73	C	-0.945616	0.261697	0.971317
C74	C	-0.945610	0.261669	1.036753
C75	C	-0.865419	0.341802	1.036718
C76	C	-0.865421	0.341824	0.971283
C77	C	-0.905523	0.301773	0.938586
H78	H	-0.144586	0.374736	0.374470
H79	H	-0.832693	0.659171	0.374521
H80	H	-0.978254	0.229178	0.659764
H81	H	-0.832774	0.374458	0.944634
Br82	Br	-0.811030	0.926339	0.396317
H83	H	-0.346357	0.404359	0.310675
H84	H	-0.548222	0.374716	0.374451
Br85	Br	-0.917252	0.168726	0.879317
H86	H	-0.803071	0.861042	0.310795
Br87	Br	-0.684682	0.207331	0.207573
H88	H	-0.978265	0.229081	0.944693
Br89	Br	-1.000012	0.926279	0.207574
Br90	Br	-0.893808	0.434915	0.725076
H91	H	-0.465143	0.199486	0.293104
Br92	Br	-0.281060	0.396513	0.396175
Br93	Br	-0.772370	0.724598	0.313424
H94	H	-0.832648	0.540456	0.374504
H95	H	-0.896495	0.404219	0.861546
Br96	Br	-1.000026	0.207480	0.523303
Br97	Br	-0.810987	0.396345	0.523220
Br98	Br	-0.482816	0.435005	0.313291
H99	H	-0.832767	0.374549	0.659708
H100	H	-0.666929	0.374718	0.374435
Br101	Br	-0.811002	0.396155	1.081094
H102	H	-0.914547	0.199421	0.742846
H103	H	-0.548214	0.229118	0.229302
H104	H	-0.978154	0.659121	0.229259
H105	H	-0.346439	0.199492	0.293093
Br106	Br	-0.281046	0.207351	0.207597
H107	H	-0.978105	0.540412	0.229229
Br108	Br	-0.126808	0.207361	0.207599
H109	H	-1.007875	0.742168	0.293034
Br110	Br	-1.038577	0.878614	0.290406
H111	H	-0.978313	1.062757	0.229353
Br112	Br	-0.811089	1.080573	0.396355
H113	H	-0.978260	0.229035	1.063401
