data_functionalizedCrystal
_audit_creation_method	'MofGen! by Chris Wilmer'
_symmetry_space_group_name_H-M	'P1'
_symmetry_Int_Tables_number	1
_symmetry_cell_setting	triclinic
loop_
_symmetry_equiv_pos_as_xyz
  x,y,z
_cell_length_a	14.519709
_cell_length_b	17.699083
_cell_length_c	13.596369
_cell_angle_alpha	89.998715
_cell_angle_beta	89.999684
_cell_angle_gamma	83.481580
loop_
_atom_site_label
_atom_site_type_symbol
_atom_site_fract_x
_atom_site_fract_y
_atom_site_fract_z
O1	O	-1.223448	-0.099209	0.081665
O2	O	-0.954922	-0.110892	0.081696
O3	O	-1.096772	0.005117	0.081671
O4	O	-1.081599	-0.215218	0.081690
O5	O	-1.096754	0.005111	-0.081912
O6	O	-0.954904	-0.110899	-0.081887
O7	O	-1.223431	-0.099215	-0.081918
Zn8	Zn	-1.089165	-0.105058	-0.107875
Zn9	Zn	-1.089188	-0.105049	0.107653
O10	O	-1.081581	-0.215224	-0.081893
C11	C	-0.920556	-0.110351	-0.000092
C12	C	-0.818181	-0.108719	-0.000081
C13	C	-1.257797	-0.099756	-0.000128
C14	C	-1.360171	-0.101388	-0.000133
C15	C	-1.096219	0.033312	-0.000121
C16	C	-1.094588	0.117335	-0.000121
C17	C	-0.443311	-0.102712	-0.000126
C18	C	-0.547612	-0.104380	-0.000113
C19	C	-0.630743	-0.105716	-0.000102
C20	C	-0.735050	-0.107384	-0.000091
C21	C	-1.082134	-0.243420	-0.000099
C22	C	-1.083765	-0.327442	-0.000093
N23	N	-1.089156	-0.105063	-0.254967
C24	C	-1.177851	0.165718	-0.000132
C25	C	-1.176313	0.244665	-0.000123
C26	C	-1.091511	0.275229	-0.000110
C27	C	-1.008242	0.226840	-0.000096
C28	C	-1.009781	0.147894	-0.000098
C29	C	-1.002033	0.545221	-0.000088
C30	C	-1.000501	0.624173	-0.000089
C31	C	-1.168566	0.641992	-0.000112
C32	C	-1.170105	0.563046	-0.000114
C33	C	-1.086836	0.514664	-0.000095
C34	C	-1.088505	0.429060	-0.000103
C35	C	-1.089841	0.360831	-0.000109
C36	C	-1.089161	-0.105065	-0.343964
C37	C	-1.089170	-0.105060	-0.455616
C38	C	-1.089182	-0.105051	-0.544606
C39	C	-1.089192	-0.105047	-0.656265
N40	N	-1.089204	-0.105038	0.254745
H41	H	-1.244114	0.284056	-0.000134
H42	H	-0.939195	0.251731	-0.000080
C43	C	-1.263388	0.529427	-0.000123
C44	C	-1.354978	0.582647	-0.000125
C45	C	-1.448263	0.549029	-0.000128
C46	C	-1.449958	0.462192	-0.000127
C47	C	-1.358364	0.408967	-0.000125
C48	C	-1.265079	0.442584	-0.000122
H49	H	-1.353727	0.646934	-0.000125
H50	H	-1.516067	0.588430	-0.000129
H51	H	-1.519013	0.437306	-0.000129
H52	H	-1.359615	0.344680	-0.000124
H53	H	-1.197275	0.403183	-0.000120
H54	H	-1.236367	0.681395	-0.000123
C55	C	-0.907213	0.657794	-0.000066
C56	C	-0.838076	0.639589	-0.084993
C57	C	-0.744794	0.673211	-0.084972
C58	C	-0.720648	0.725038	-0.000024
C59	C	-0.789786	0.743246	0.084908
C60	C	-0.883068	0.709625	0.084887
H61	H	-0.855949	0.601220	-0.147881
H62	H	-0.693613	0.659731	-0.147845
H63	H	-0.651595	0.749927	-0.000009
H64	H	-0.771913	0.781615	0.147797
H65	H	-0.934249	0.723104	0.147760
H66	H	-0.934231	0.505837	-0.000073
C67	C	-0.918191	0.094669	-0.000088
C68	C	-0.848663	0.098172	0.084866
C69	C	-0.757070	0.044947	0.084883
C70	C	-0.735006	-0.011780	-0.000055
C71	C	-0.804535	-0.015285	-0.085016
C72	C	-0.896128	0.037940	-0.085032
H73	H	-0.864995	0.140167	0.147748
H74	H	-0.705600	0.047542	0.147776
H75	H	-0.667203	-0.051180	-0.000043
H76	H	-0.788203	-0.057280	-0.147898
H77	H	-0.947598	0.035345	-0.147926
H78	H	-1.246907	0.140840	-0.000148
