data_functionalizedCrystal
_audit_creation_method	'MofGen! by Chris Wilmer'
_symmetry_space_group_name_H-M	'P1'
_symmetry_Int_Tables_number	1
_symmetry_cell_setting	triclinic
loop_
_symmetry_equiv_pos_as_xyz
  x,y,z
_cell_length_a	17.699097
_cell_length_b	17.699092
_cell_length_c	9.730223
_cell_angle_alpha	89.997288
_cell_angle_beta	89.993116
_cell_angle_gamma	83.287399
loop_
_atom_site_label
_atom_site_type_symbol
_atom_site_fract_x
_atom_site_fract_y
_atom_site_fract_z
O1	O	1.004071	0.095758	-0.114399
O2	O	0.783694	0.108200	-0.114376
O3	O	0.900106	-0.008209	-0.114385
O4	O	0.887660	0.212168	-0.114390
O5	O	0.900098	-0.008212	0.114195
O6	O	0.783687	0.108197	0.114204
O7	O	1.004064	0.095755	0.114181
Zn8	Zn	0.893874	0.101976	0.150485
Zn9	Zn	0.893884	0.101980	-0.150679
O10	O	0.887652	0.212165	0.114190
C11	C	0.755494	0.107751	-0.000083
C12	C	0.671476	0.106409	-0.000074
C13	C	0.155762	0.098181	-0.124729
C14	C	0.234706	0.099437	-0.124722
C15	C	0.274168	0.100065	-0.000117
C16	C	0.234683	0.099429	0.124489
C17	C	0.155741	0.098167	0.124480
C18	C	0.553047	0.104516	0.124525
C19	C	0.631994	0.105780	0.124523
C20	C	0.632012	0.105786	-0.124678
C21	C	0.553070	0.104525	-0.124686
C22	C	0.513592	0.103884	-0.000081
C23	C	0.427992	0.102521	-0.000090
C24	C	0.359766	0.101434	-0.000107
C25	C	0.899655	-0.036408	-0.000097
C26	C	0.898314	-0.120425	-0.000103
C27	C	0.897690	-0.159891	-0.124704
C28	C	0.896425	-0.238834	-0.124705
C29	C	0.895789	-0.278311	-0.000105
C30	C	0.896411	-0.238839	0.124505
C31	C	0.897671	-0.159897	0.124505
C32	C	0.891331	-0.557204	0.124508
C33	C	0.890074	-0.636153	0.124498
C34	C	0.890085	-0.636142	-0.124703
C35	C	0.891344	-0.557199	-0.124703
C36	C	0.891962	-0.517734	-0.000094
C37	C	0.893332	-0.432135	-0.000093
C38	C	0.894425	-0.363909	-0.000103
C39	C	1.032264	0.096204	-0.000115
C40	C	1.116282	0.097547	-0.000132
C41	C	0.888103	0.240363	-0.000101
C42	C	0.889444	0.324381	-0.000104
N43	N	0.893873	0.101972	0.356021
N44	N	0.893891	0.101977	-0.356216
C45	C	0.945437	0.050448	0.427943
C46	C	0.945445	0.050448	0.571826
C47	C	0.842321	0.153504	0.571852
C48	C	0.842311	0.153500	0.427972
H49	H	0.266819	0.099935	0.225944
H50	H	0.520944	0.104017	-0.226152
H51	H	0.889555	-0.668292	0.225969
H52	H	0.664165	0.106305	-0.226137
H53	H	0.987432	0.008491	0.630381
H54	H	0.889578	-0.668283	-0.226166
H55	H	0.891849	-0.525083	0.225972
H56	H	0.800317	0.195458	0.369409
H57	H	0.895920	-0.270964	-0.226167
H58	H	0.123596	0.097658	0.225939
H59	H	0.891865	-0.525062	-0.226165
H60	H	0.664122	0.106291	0.225997
H61	H	0.800342	0.195458	0.630449
H62	H	0.895890	-0.270987	0.225957
H63	H	0.266848	0.099949	-0.226181
H64	H	0.123637	0.097675	-0.226196
H65	H	0.898211	-0.127756	-0.226168
H66	H	0.520915	0.103983	0.225986
H67	H	0.898169	-0.127763	0.225968
H68	H	0.987421	0.008490	0.369364
