data_functionalizedCrystal
_audit_creation_method	'MofGen! by Chris Wilmer'
_symmetry_space_group_name_H-M	'P1'
_symmetry_Int_Tables_number	1
_symmetry_cell_setting	triclinic
loop_
_symmetry_equiv_pos_as_xyz
  x,y,z
_cell_length_a	21.395362
_cell_length_b	19.077068
_cell_length_c	21.395356
_cell_angle_alpha	92.271626
_cell_angle_beta	89.964230
_cell_angle_gamma	92.343691
loop_
_atom_site_label
_atom_site_type_symbol
_atom_site_fract_x
_atom_site_fract_y
_atom_site_fract_z
Zn1	Zn	0.947810	-0.279939	-0.364584
Zn2	Zn	1.197810	-0.029939	-0.114584
Zn3	Zn	1.447810	0.220061	0.135416
Zn4	Zn	1.697810	0.470061	0.385416
Zn5	Zn	0.943524	-0.397635	-0.264011
Zn6	Zn	1.193524	-0.147635	-0.014011
Zn7	Zn	1.443524	0.102365	0.235989
Zn8	Zn	1.693524	0.352365	0.485989
Zn9	Zn	0.843039	-0.279987	-0.259787
Zn10	Zn	1.093039	-0.029987	-0.009787
Zn11	Zn	1.343039	0.220013	0.240213
Zn12	Zn	1.593039	0.470013	0.490213
Zn13	Zn	0.838791	-0.397635	-0.368715
Zn14	Zn	1.088791	-0.147635	-0.118715
Zn15	Zn	1.338791	0.102365	0.131285
Zn16	Zn	1.588791	0.352365	0.381285
O17	O	0.893291	-0.338799	-0.314274
O18	O	1.143291	-0.088799	-0.064274
O19	O	1.393291	0.161201	0.185726
O20	O	1.643291	0.411201	0.435726
O21	O	1.034921	-0.295532	-0.351282
O22	O	1.284921	-0.045532	-0.101282
O23	O	1.534921	0.204468	0.148718
O24	O	1.784921	0.454468	0.398718
O25	O	0.930178	-0.382049	-0.175773
O26	O	1.180178	-0.132049	0.074227
O27	O	1.430178	0.117951	0.324227
O28	O	1.680178	0.367951	0.574227
O29	O	0.860508	-0.181488	-0.270193
O30	O	1.110508	0.068512	-0.020193
O31	O	1.360508	0.318512	0.229807
O32	O	1.610508	0.568512	0.479807
O33	O	1.031771	-0.382003	-0.277391
O34	O	1.281771	-0.132003	-0.027391
O35	O	1.531771	0.117997	0.222609
O36	O	1.781771	0.367997	0.472609
O37	O	0.937484	-0.181453	-0.347186
O38	O	1.187484	0.068547	-0.097186
O39	O	1.437484	0.318547	0.152814
O40	O	1.687484	0.568547	0.402814
O41	O	0.856352	-0.295613	-0.172670
O42	O	1.106352	-0.045613	0.077330
O43	O	1.356352	0.204387	0.327330
O44	O	1.606352	0.454387	0.577330
O45	O	0.754797	-0.295613	-0.274198
O46	O	1.004797	-0.045613	-0.024198
O47	O	1.254797	0.204387	0.225802
O48	O	1.504797	0.454387	0.475802
O49	O	0.853269	-0.382003	-0.455845
O50	O	1.103269	-0.132003	-0.205845
O51	O	1.353269	0.117997	0.044155
O52	O	1.603269	0.367997	0.294155
O53	O	0.751676	-0.382048	-0.354227
O54	O	1.001676	-0.132048	-0.104227
O55	O	1.251676	0.117952	0.145773
O56	O	1.501676	0.367952	0.395773
O57	O	0.933365	-0.295532	-0.452810
O58	O	1.183365	-0.045532	-0.202810
O59	O	1.433365	0.204468	0.047190
O60	O	1.683365	0.454468	0.297190
O61	O	0.926060	-0.496128	-0.281396
O62	O	1.176060	-0.246128	-0.031396
O63	O	1.426060	0.003872	0.218604
O64	O	1.676060	0.253872	0.468604
O65	O	0.849113	-0.496128	-0.358323
O66	O	1.099113	-0.246128	-0.108323
O67	O	1.349113	0.003872	0.141677
O68	O	1.599113	0.253872	0.391677
C69	C	0.730502	-0.338836	-0.314203
C70	C	0.980502	-0.088836	-0.064203
C71	C	1.230502	0.161164	0.185797
C72	C	1.480502	0.411164	0.435797
C73	C	0.660860	-0.338869	-0.314188
C74	C	0.910860	-0.088869	-0.064188
C75	C	1.160860	0.161131	0.185812
C76	C	1.410860	0.411131	0.435812
C77	C	0.626536	-0.383936	-0.355801
C78	C	0.876536	-0.133936	-0.105801
C79	C	1.126536	0.116064	0.144199
C80	C	1.376536	0.366064	0.394199
C81	C	0.561101	-0.383919	-0.355829
C82	C	0.811101	-0.133919	-0.105829
C83	C	1.061101	0.116081	0.144171
C84	C	1.311101	0.366081	0.394171
C85	C	0.529992	-0.338842	-0.314232
C86	C	0.779992	-0.088842	-0.064232
C87	C	1.029992	0.161158	0.185768
C88	C	1.279992	0.411158	0.435768
C89	C	0.564324	-0.293766	-0.272615
C90	C	0.814324	-0.043766	-0.022615
C91	C	1.064324	0.206234	0.227385
C92	C	1.314324	0.456234	0.477385
C93	C	0.629758	-0.293780	-0.272594
C94	C	0.879758	-0.043780	-0.022594
C95	C	1.129758	0.206220	0.227406
C96	C	1.379758	0.456220	0.477406
C97	C	0.426478	-0.333180	-0.257624
C98	C	0.676478	-0.083180	-0.007624
C99	C	0.926478	0.166820	0.242376
C100	C	1.176478	0.416820	0.492376
C101	C	0.361045	-0.333171	-0.257645
C102	C	0.611045	-0.083171	-0.007645
C103	C	0.861045	0.166829	0.242355
C104	C	1.111045	0.416829	0.492355
C105	C	0.328173	-0.338796	-0.314299
C106	C	0.578173	-0.088796	-0.064299
C107	C	0.828173	0.161204	0.185701
C108	C	1.078173	0.411204	0.435701
C109	C	0.360741	-0.344444	-0.370935
C110	C	0.610741	-0.094444	-0.120935
C111	C	0.860741	0.155556	0.129065
C112	C	1.110741	0.405556	0.379065
C113	C	0.426175	-0.344458	-0.370913
C114	C	0.676175	-0.094458	-0.120913
C115	C	0.926175	0.155542	0.129087
C116	C	1.176175	0.405542	0.379087
C117	C	0.459041	-0.338822	-0.314251
C118	C	0.709041	-0.088822	-0.064251
C119	C	0.959041	0.161178	0.185749
C120	C	1.209041	0.411178	0.435749
C121	C	0.222897	-0.383847	-0.355946
C122	C	0.472897	-0.133847	-0.105946
C123	C	0.722897	0.116153	0.144054
C124	C	0.972897	0.366153	0.394054
C125	C	0.157462	-0.383824	-0.355974
C126	C	0.407462	-0.133824	-0.105974
C127	C	0.657462	0.116176	0.144026
C128	C	0.907462	0.366176	0.394026
C129	C	0.160686	-0.293676	-0.272755
C130	C	0.410686	-0.043676	-0.022755
C131	C	0.660686	0.206324	0.227245
C132	C	0.910686	0.456324	0.477245
C133	C	0.226121	-0.293694	-0.272732
C134	C	0.476121	-0.043694	-0.022732
C135	C	0.726121	0.206306	0.227268
C136	C	0.976121	0.456306	0.477268
C137	C	0.257222	-0.338783	-0.314327
C138	C	0.507222	-0.088783	-0.064327
C139	C	0.757222	0.161217	0.185673
C140	C	1.007222	0.411217	0.435673
C141	C	0.886677	-0.521666	-0.320780
C142	C	1.136677	-0.271666	-0.070780
C143	C	1.386677	-0.021666	0.179220
C144	C	1.636677	0.228334	0.429220
C145	C	0.883905	-0.599897	-0.323584
C146	C	1.133905	-0.349897	-0.073584
C147	C	1.383905	-0.099897	0.176416
C148	C	1.633905	0.150103	0.426416
C149	C	0.922696	-0.636626	-0.284883
C150	C	1.172696	-0.386626	-0.034883
C151	C	1.422696	-0.136626	0.215117
C152	C	1.672696	0.113374	0.465117
C153	C	0.920092	-0.710133	-0.287524
C154	C	1.170092	-0.460133	-0.037524
C155	C	1.420092	-0.210133	0.212476
C156	C	1.670092	0.039867	0.462476
C157	C	0.878694	-0.746908	-0.328863
C158	C	1.128694	-0.496908	-0.078863
C159	C	1.378694	-0.246908	0.171137
C160	C	1.628694	0.003092	0.421137
C161	C	0.839901	-0.710173	-0.367568
C162	C	1.089901	-0.460173	-0.117568
C163	C	1.339901	-0.210173	0.132432
C164	C	1.589901	0.039827	0.382432
C165	C	0.842509	-0.636668	-0.364930
C166	C	1.092509	-0.386668	-0.114930
C167	C	1.342509	-0.136668	0.135070
C168	C	1.592509	0.113332	0.385070
C169	C	0.866600	-0.966747	-0.341047
C170	C	1.116600	-0.716747	-0.091047
C171	C	1.366600	-0.466747	0.158953
C172	C	1.616600	-0.216747	0.408953
C173	C	0.863994	-1.040257	-0.343681
C174	C	1.113994	-0.790257	-0.093681
C175	C	1.363994	-0.540257	0.156319
C176	C	1.613994	-0.290257	0.406319
C177	C	0.944186	-1.040212	-0.263638
C178	C	1.194186	-0.790212	-0.013638
C179	C	1.444186	-0.540212	0.236362
C180	C	1.694186	-0.290212	0.486362
C181	C	0.946787	-0.966706	-0.261001
C182	C	1.196787	-0.716706	-0.011001
C183	C	1.446787	-0.466706	0.238999
C184	C	1.696787	-0.216706	0.488999
C185	C	0.907997	-0.929977	-0.299708
C186	C	1.157997	-0.679977	-0.049708
C187	C	1.407997	-0.429977	0.200292
C188	C	1.657997	-0.179977	0.450292
N189	N	0.876030	-0.822043	-0.331562
N190	N	1.126030	-0.572043	-0.081562
N191	N	1.376030	-0.322043	0.168438
N192	N	1.626030	-0.072043	0.418438
N193	N	0.910664	-0.854843	-0.297012
N194	N	1.160664	-0.604843	-0.047012
N195	N	1.410664	-0.354843	0.202988
N196	N	1.660664	-0.104843	0.452988
C197	C	1.056716	-0.338762	-0.314347
C198	C	1.306716	-0.088762	-0.064347
C199	C	1.556716	0.161238	0.185653
C200	C	1.806716	0.411238	0.435653
C201	C	1.126358	-0.338746	-0.314377
C202	C	1.376358	-0.088746	-0.064377
C203	C	1.626358	0.161254	0.185623
C204	C	1.876358	0.411254	0.435623
C205	C	0.893321	-0.338762	-0.477697
C206	C	1.143321	-0.088762	-0.227697
C207	C	1.393321	0.161238	0.022303
C208	C	1.643321	0.411238	0.272303
C209	C	0.893334	-0.338746	-0.547337
C210	C	1.143334	-0.088746	-0.297337
C211	C	1.393334	0.161254	-0.047337
C212	C	1.643334	0.411254	0.202663
C213	C	0.899948	-0.155218	-0.307758
C214	C	1.149948	0.094782	-0.057758
C215	C	1.399948	0.344782	0.192242
C216	C	1.649948	0.594782	0.442242
C217	C	0.902785	-0.076987	-0.304980
C218	C	1.152785	0.173013	-0.054980
C219	C	1.402785	0.423013	0.195020
C220	C	1.652785	0.673013	0.445020
C221	C	0.931851	-0.383606	-1.050745
C222	C	1.181851	-0.133606	-0.800745
C223	C	1.431851	0.116394	-0.550745
C224	C	1.681851	0.366394	-0.300745
C225	C	0.931839	-0.383628	-0.985310
C226	C	1.181839	-0.133628	-0.735310
C227	C	1.431839	0.116372	-0.485310
C228	C	1.681839	0.366372	-0.235310
C229	C	0.893398	-0.338635	-0.950972
C230	C	1.143398	-0.088635	-0.700972
C231	C	1.393398	0.161365	-0.450972
C232	C	1.643398	0.411365	-0.200972
C233	C	0.854954	-0.293628	-0.982074
C234	C	1.104954	-0.043628	-0.732074
C235	C	1.354954	0.206372	-0.482074
C236	C	1.604954	0.456372	-0.232074
C237	C	0.854962	-0.293612	-1.047508
C238	C	1.104962	-0.043612	-0.797508
C239	C	1.354962	0.206388	-0.547508
C240	C	1.604962	0.456388	-0.297508
C241	C	0.890736	-0.275249	-0.845051
C242	C	1.140736	-0.025249	-0.595051
C243	C	1.390736	0.224751	-0.345051
C244	C	1.640736	0.474751	-0.095051
C245	C	0.890732	-0.275264	-0.779618
C246	C	1.140732	-0.025264	-0.529618
C247	C	1.390732	0.224736	-0.279618
C248	C	1.640732	0.474736	-0.029618
C249	C	0.893368	-0.338685	-0.749153
C250	C	1.143368	-0.088685	-0.499153
C251	C	1.393368	0.161315	-0.249153
C252	C	1.643368	0.411315	0.000847
C253	C	0.896021	-0.402092	-0.784128
C254	C	1.146021	-0.152092	-0.534128
C255	C	1.396021	0.097908	-0.284128
C256	C	1.646021	0.347908	-0.034128
C257	C	0.896029	-0.402076	-0.849561
C258	C	1.146029	-0.152076	-0.599561
C259	C	1.396029	0.097924	-0.349561
C260	C	1.646029	0.347924	-0.099561
C261	C	0.893384	-0.338647	-0.880020
C262	C	1.143384	-0.088647	-0.630020
C263	C	1.393384	0.161353	-0.380020
C264	C	1.643384	0.411353	-0.130020
C265	C	0.931793	-0.383716	-0.647107
C266	C	1.181793	-0.133716	-0.397107
C267	C	1.431793	0.116284	-0.147107
C268	C	1.681793	0.366284	0.102893
C269	C	0.931776	-0.383739	-0.581671
C270	C	1.181776	-0.133739	-0.331671
C271	C	1.431776	0.116261	-0.081671
C272	C	1.681776	0.366261	0.168329
C273	C	0.854895	-0.293733	-0.578436
C274	C	1.104895	-0.043733	-0.328436
C275	C	1.354895	0.206267	-0.078436
C276	C	1.604895	0.456267	0.171564
C277	C	0.854908	-0.293716	-0.643871
C278	C	1.104908	-0.043716	-0.393871
C279	C	1.354908	0.206284	-0.143871
C280	C	1.604908	0.456284	0.106129
C281	C	0.893360	-0.338706	-0.678202
C282	C	1.143360	-0.088706	-0.428202
C283	C	1.393360	0.161294	-0.178202
C284	C	1.643360	0.411294	0.071798
C285	C	0.893299	-0.338785	-0.151486
C286	C	1.143299	-0.088785	0.098514
C287	C	1.393299	0.161215	0.348514
C288	C	1.643299	0.411215	0.598514
C289	C	0.893415	-0.338602	-0.081839
C290	C	1.143415	-0.088602	0.168161
C291	C	1.393415	0.161398	0.418161
C292	C	1.643415	0.411398	0.668161
H293	H	0.248222	-0.420557	-0.389817
H294	H	0.498222	-0.170557	-0.139817
H295	H	0.748222	0.079443	0.110183
H296	H	0.998222	0.329443	0.360183
Br297	Br	0.996830	-1.090061	-0.211113
Br298	Br	1.246830	-0.840061	0.038887
Br299	Br	1.496830	-0.590061	0.288887
Br300	Br	1.746830	-0.340061	0.538887
H301	H	0.830290	-1.070198	-0.377355
H302	H	1.080290	-0.820198	-0.127355
H303	H	1.330290	-0.570198	0.122645
H304	H	1.580290	-0.320198	0.372645
H305	H	0.135358	-0.256970	-0.238889
H306	H	0.385358	-0.006970	0.011111
H307	H	0.635358	0.243030	0.261111
H308	H	0.885358	0.493030	0.511111
H309	H	0.835014	-0.936849	-0.372563
H310	H	1.085014	-0.686849	-0.122563
H311	H	1.335014	-0.436849	0.127437
H312	H	1.585014	-0.186849	0.377437
H313	H	0.651855	-0.420650	-0.389672
H314	H	0.901855	-0.170650	-0.139672
H315	H	1.151855	0.079350	0.110328
H316	H	1.401855	0.329350	0.360328
H317	H	0.980496	-0.936765	-0.227339
H318	H	1.230496	-0.686765	0.022661
H319	H	1.480496	-0.436765	0.272661
H320	H	1.730496	-0.186765	0.522661
H321	H	0.533149	-0.420617	-0.389717
H322	H	0.783149	-0.170617	-0.139717
H323	H	1.033149	0.079383	0.110283
H324	H	1.283149	0.329383	0.360283
Br325	Br	0.802729	-0.232649	-0.686074
Br326	Br	1.052729	0.017351	-0.436074
Br327	Br	1.302729	0.267351	-0.186074
Br328	Br	1.552729	0.517351	0.063926
Br329	Br	0.899603	-0.488169	-0.742790
Br330	Br	1.149603	-0.238169	-0.492790
Br331	Br	1.399603	0.011831	-0.242790
Br332	Br	1.649603	0.261831	0.007210
Br333	Br	0.783723	-0.760082	-0.423677
Br334	Br	1.033723	-0.510082	-0.173677
Br335	Br	1.283723	-0.260082	0.076323
Br336	Br	1.533723	-0.010082	0.326323
Br337	Br	0.887140	-0.189212	-0.732159
Br338	Br	1.137140	0.060788	-0.482159
Br339	Br	1.387140	0.310788	-0.232159
Br340	Br	1.637140	0.560788	0.017841
Br341	Br	0.316138	-0.352077	-0.447828
Br342	Br	0.566138	-0.102077	-0.197828
Br343	Br	0.816138	0.147923	0.052172
Br344	Br	1.066138	0.397923	0.302172
Br345	Br	0.983940	-0.444826	-0.539470
Br346	Br	1.233940	-0.194826	-0.289470
Br347	Br	1.483940	0.055174	-0.039470
Br348	Br	1.733940	0.305174	0.210530
H349	H	0.129516	-0.420522	-0.389864
H350	H	0.379516	-0.170522	-0.139864
H351	H	0.629516	0.079478	0.110136
H352	H	0.879516	0.329478	0.360136
H353	H	0.963160	-0.420243	-1.078693
H354	H	1.213160	-0.170243	-0.828693
H355	H	1.463160	0.079757	-0.578693
H356	H	1.713160	0.329757	-0.328693
H357	H	0.254068	-0.257000	-0.238843
H358	H	0.504068	-0.007000	0.011157
H359	H	0.754068	0.243000	0.261157
H360	H	1.004068	0.493000	0.511157
H361	H	0.453237	-0.328596	-0.211487
H362	H	0.703237	-0.078596	0.038513
H363	H	0.953237	0.171404	0.288513
H364	H	1.203237	0.421404	0.538513
H365	H	0.810922	-0.606763	-0.396445
H366	H	1.060922	-0.356763	-0.146445
H367	H	1.310922	-0.106763	0.103555
H368	H	1.560922	0.143237	0.353555
H369	H	0.334533	-0.328576	-0.211529
H370	H	0.584533	-0.078576	0.038471
H371	H	0.834533	0.171424	0.288471
H372	H	1.084533	0.421424	0.538471
H373	H	0.963148	-0.420267	-0.959988
H374	H	1.213148	-0.170267	-0.709988
H375	H	1.463148	0.079733	-0.459988
H376	H	1.713148	0.329733	-0.209988
Br377	Br	0.522108	-0.232585	-0.216167
Br378	Br	0.772108	0.017415	0.033833
Br379	Br	1.022108	0.267415	0.283833
Br380	Br	1.272108	0.517415	0.533833
H381	H	0.657704	-0.257079	-0.238707
H382	H	0.907704	-0.007079	0.011293
H383	H	1.157704	0.242921	0.261293
H384	H	1.407704	0.492921	0.511293
Br385	Br	0.887507	-0.189137	-0.886389
Br386	Br	1.137507	0.060863	-0.636389
Br387	Br	1.387507	0.310863	-0.386389
Br388	Br	1.637507	0.560863	-0.136389
H389	H	0.898188	-0.453705	-0.878035
H390	H	1.148188	-0.203705	-0.628035
H391	H	1.398188	0.046295	-0.378035
H392	H	1.648188	0.296295	-0.128035
H393	H	0.956404	-0.606689	-0.251218
H394	H	1.206404	-0.356689	-0.001218
H395	H	1.456404	-0.106689	0.248782
H396	H	1.706404	0.143311	0.498782
H397	H	0.951679	-0.740035	-0.256009
H398	H	1.201679	-0.490035	-0.006009
H399	H	1.451679	-0.240035	0.243991
H400	H	1.701679	0.009965	0.493991
H401	H	0.823594	-0.257100	-0.550479
H402	H	1.073594	-0.007100	-0.300479
H403	H	1.323594	0.242900	-0.050479
H404	H	1.573594	0.492900	0.199521
Br405	Br	0.983977	-0.444772	-0.693703
Br406	Br	1.233977	-0.194772	-0.443703
Br407	Br	1.483977	0.055228	-0.193703
Br408	Br	1.733977	0.305228	0.056297
Br409	Br	0.802789	-0.232537	-1.089711
Br410	Br	1.052789	0.017463	-0.839711
Br411	Br	1.302789	0.267463	-0.589711
Br412	Br	1.552789	0.517463	-0.339711
Br413	Br	0.470373	-0.352120	-0.447771
Br414	Br	0.720373	-0.102120	-0.197771
Br415	Br	0.970373	0.147880	0.052229
Br416	Br	1.220373	0.397880	0.302229
Br417	Br	0.802783	-0.232565	-0.935474
Br418	Br	1.052783	0.017435	-0.685474
Br419	Br	1.302783	0.267435	-0.435474
Br420	Br	1.552783	0.517435	-0.185474
