data_functionalizedCrystal
_audit_creation_method	'MofGen! by Chris Wilmer'
_symmetry_space_group_name_H-M	'P1'
_symmetry_Int_Tables_number	1
_symmetry_cell_setting	triclinic
loop_
_symmetry_equiv_pos_as_xyz
  x,y,z
_cell_length_a	15.698487
_cell_length_b	14.809374
_cell_length_c	15.698487
_cell_angle_alpha	52.846929
_cell_angle_beta	90.001001
_cell_angle_gamma	67.426642
loop_
_atom_site_label
_atom_site_type_symbol
_atom_site_fract_x
_atom_site_fract_y
_atom_site_fract_z
Zr1	Zr	0.924466	1.000605	-0.215669
O2	O	0.808242	1.191311	-0.371481
O3	O	0.946369	0.809899	-0.154176
O4	O	0.966158	1.000610	-0.351688
O5	O	0.788457	1.000597	-0.033785
O6	O	1.106340	1.000613	-0.351690
O7	O	0.788452	1.000600	-0.173969
O8	O	1.070940	0.659467	0.001621
O9	O	0.823856	1.341743	-0.387096
O10	O	1.076910	0.888342	-0.144538
O11	O	0.972297	0.888336	-0.039918
O12	O	0.995596	1.112874	-0.272462
O13	O	0.890984	1.112868	-0.167841
Zr14	Zr	1.148046	1.000605	0.007906
Zr15	Zr	1.148040	1.000611	-0.215673
Zr16	Zr	0.924473	1.000599	0.007910
Zr17	Zr	0.949369	1.240527	-0.240574
Zr18	Zr	1.123143	0.760683	0.032811
O19	O	1.126144	1.191311	-0.053586
O20	O	1.126134	1.191319	-0.371486
O21	O	0.808251	1.191303	-0.053581
O22	O	1.264271	0.809899	0.163718
O23	O	1.264261	0.809907	-0.154182
O24	O	0.946378	0.809891	0.163724
O25	O	1.284056	1.000613	-0.173978
O26	O	1.106355	1.000600	0.143925
O27	O	0.966173	1.000597	0.143927
O28	O	1.284060	1.000610	-0.033794
O29	O	1.001567	1.341748	-0.387099
O30	O	1.070945	0.659462	0.179337
O31	O	1.248656	0.659467	0.179333
O32	O	1.248651	0.659471	0.001618
O33	O	0.823862	1.341739	-0.209381
O34	O	1.001573	1.341743	-0.209384
O35	O	1.076916	0.888336	0.064699
O36	O	1.181529	0.888342	-0.039921
O37	O	1.100216	1.112874	-0.167845
O38	O	0.995603	1.112868	-0.063225
C39	C	1.005106	0.700499	-0.072729
C40	C	0.994534	0.598646	-0.062156
C41	C	1.041716	0.553239	-0.109341
C42	C	1.030790	0.447968	-0.098415
C43	C	0.756600	1.000598	-0.103876
C44	C	0.661687	1.000595	-0.103875
C45	C	0.487904	1.000618	-0.103887
C46	C	0.584608	1.000611	-0.103883
C47	C	1.315912	1.000612	-0.103887
C48	C	1.410825	1.000615	-0.103888
C49	C	1.036248	1.000612	-0.383544
C50	C	1.036245	1.000615	-0.478459
C51	C	1.067406	1.300711	-0.135034
C52	C	1.077978	1.402564	-0.145607
C53	C	1.036266	1.000592	-0.652221
C54	C	1.036257	1.000599	-0.555525
C55	C	1.036265	1.000598	0.175781
C56	C	1.036268	1.000595	0.270696
C57	C	1.284762	0.700506	-0.072734
C58	C	1.369103	0.598655	-0.062163
C59	C	1.005115	0.700492	0.206934
C60	C	0.994546	0.598636	0.312421
C61	C	1.284771	0.700499	0.206929
C62	C	1.369114	0.598646	0.312415
C63	C	0.787742	1.300711	-0.414692
C64	C	0.703398	1.402564	-0.520178
C65	C	0.787750	1.300704	-0.135029
C66	C	0.703410	1.402555	-0.145600
C67	C	1.067398	1.300718	-0.414697
C68	C	1.077967	1.402574	-0.520184
C69	C	1.354100	0.550825	-0.111817
C70	C	1.433340	0.455139	-0.101907
C71	C	1.527581	0.407278	-0.042335
C72	C	1.542583	0.455118	0.007319
C73	C	1.463345	0.550809	-0.002598
C74	C	1.044192	0.550804	0.416578
C75	C	1.034259	0.455113	0.515702
C76	C	0.974684	0.407250	0.510668
C77	C	0.925031	0.455092	0.406500
C78	C	0.934960	0.550787	0.307378
C79	C	1.463339	0.550817	0.307341
C80	C	1.542599	0.455129	0.406447
C81	C	1.527631	0.407264	0.510625
C82	C	1.433397	0.455102	0.515695
C83	C	1.354140	0.550795	0.416590
C84	C	0.609175	1.450404	-0.515105
C85	C	0.529918	1.546123	-0.614214
C86	C	0.544887	1.593993	-0.718393
C87	C	0.639120	1.546148	-0.723463
C88	C	0.718375	1.450438	-0.624356
C89	C	0.718413	1.450395	-0.095956
C90	C	0.639176	1.546108	-0.105894
C91	C	0.544935	1.593972	-0.165469
C92	C	0.529933	1.546128	-0.215119
C93	C	0.609170	1.450423	-0.205187
C94	C	1.137550	1.450407	-0.515114
C95	C	1.147500	1.546098	-0.614221
C96	C	1.097861	1.593962	-0.718398
C97	C	1.038275	1.546119	-0.723466
C98	C	1.028332	1.450423	-0.624359
H99	H	1.126469	0.441615	-0.194091
Cl100	Cl	1.414458	0.395012	-0.164331
H101	H	1.196018	1.585041	-0.610073
H102	H	0.596940	1.411474	-0.245611
Cl103	Cl	0.590332	1.390244	-0.384151
H104	H	0.795094	1.411488	-0.628498
Cl105	Cl	1.110369	1.714272	-0.842981
Cl106	Cl	1.096690	0.394984	0.646641
H107	H	0.876525	0.416107	0.402418
H108	H	1.619321	0.416189	0.402299
H109	H	0.894533	0.589720	0.222574
Cl110	Cl	0.953412	1.390314	-0.630754
Cl111	Cl	1.414596	0.394913	0.646672
H112	H	1.475573	0.589740	0.037844
H113	H	0.982307	0.408909	-0.049923
Cl114	Cl	1.661064	0.394930	0.082212
H115	H	0.651297	1.585137	-0.808297
Cl116	Cl	0.919684	0.538340	0.012713
Cl117	Cl	1.199965	1.390254	-0.384161
H118	H	0.651410	1.585046	-0.065457
Cl119	Cl	1.482182	0.610979	0.176386
Cl120	Cl	1.235635	0.610979	-0.186719
Cl121	Cl	0.975868	1.606317	-0.854442
Cl122	Cl	0.836880	1.390249	-0.021062
H123	H	0.480424	1.671901	-0.173547
H124	H	1.092704	0.589763	0.420698
Cl125	Cl	0.962214	0.286943	0.635292
Cl126	Cl	1.235687	0.610903	0.422989
Cl127	Cl	1.627186	0.286976	-0.029875
H128	H	0.453192	1.585114	-0.263625
Cl129	Cl	0.411464	1.606245	-0.607814
Cl130	Cl	1.116575	0.613535	-0.184200
Cl131	Cl	1.627279	0.286959	0.635206
Cl132	Cl	0.445240	1.714313	-0.842976
