data_functionalizedCrystal
_audit_creation_method	'MofGen! by Chris Wilmer'
_symmetry_space_group_name_H-M	'P1'
_symmetry_Int_Tables_number	1
_symmetry_cell_setting	triclinic
loop_
_symmetry_equiv_pos_as_xyz
  x,y,z
_cell_length_a	6.817900
_cell_length_b	14.125469
_cell_length_c	16.305550
_cell_angle_alpha	95.884114
_cell_angle_beta	103.455250
_cell_angle_gamma	100.398878
loop_
_atom_site_label
_atom_site_type_symbol
_atom_site_fract_x
_atom_site_fract_y
_atom_site_fract_z
V1	V	-4.010572	-0.133925	-0.262704
O2	O	-4.014497	0.005600	-0.258038
O3	O	-3.946712	-0.264747	-0.260584
O4	O	-3.962176	-0.132231	-0.377425
O5	O	-3.998925	-0.127833	-0.140389
V6	V	-4.496202	-0.117193	-0.248113
O7	O	-4.267207	-0.170628	-0.294709
O8	O	-4.689764	-0.080489	-0.216107
O9	O	-4.336856	0.013629	-0.250232
O10	O	-4.609674	-0.256718	-0.252778
O11	O	-4.625245	-0.123285	-0.370428
O12	O	-4.321392	-0.118886	-0.133392
C13	C	-3.787951	-0.296627	-0.256357
C14	C	-3.817025	-0.403578	-0.255389
C15	C	-3.807677	-0.127589	-0.405397
C16	C	-3.849289	-0.127070	-0.499180
C17	C	-3.870323	-0.599398	-0.253629
C18	C	-4.055817	-0.651731	-0.257190
C19	C	-4.085475	-0.760692	-0.256211
C20	C	-3.840658	-0.490427	-0.254608
C21	C	-4.000611	-0.125059	-0.839931
C22	C	-3.765262	-0.119090	-0.799017
C23	C	-3.721959	-0.120028	-0.701520
C24	C	-3.925537	-0.126056	-0.670880
C25	C	-4.081450	-0.221074	-0.721274
C26	C	-4.123376	-0.220536	-0.818825
C27	C	-4.065699	-0.036771	-0.794304
C28	C	-4.017858	-0.036019	-0.696463
C29	C	-3.883121	-0.126623	-0.575341
C30	C	-4.043036	-0.124499	-0.935471
C31	C	-4.158957	0.045504	-0.254457
C32	C	-4.109122	0.152455	-0.255431
C33	C	-4.139232	-0.123532	-0.105415
C34	C	-4.076859	-0.124046	-0.011631
H35	H	-4.192349	-0.614702	-0.260973
C36	C	-3.995988	-0.311393	-0.698347
N37	N	-3.931604	-0.379419	-0.681081
H38	H	-3.733802	-0.636425	-0.249844
C39	C	-4.356902	-0.231801	-0.856616
N40	N	-4.532793	-0.240296	-0.885078
C41	C	-3.953595	0.060490	-0.812597
N42	N	-3.869137	0.133743	-0.826376
C43	C	-3.561832	-0.027744	-0.654429
N44	N	-3.441206	0.041762	-0.618964
C45	C	-3.622079	-0.206712	-0.679292
N46	N	-3.546854	-0.272008	-0.662553
C47	C	-3.632689	-0.026454	-0.816086
N48	N	-3.532824	0.043289	-0.828997
C49	C	-4.063958	-0.310824	-0.859649
N50	N	-4.019190	-0.378828	-0.890393
C51	C	-3.865440	0.058928	-0.650255
N52	N	-3.750634	0.130442	-0.615445
C53	C	-4.216880	-0.034350	-0.667529
N54	N	-4.366748	-0.033077	-0.645705
H55	H	-3.712748	-0.182521	-0.830374
H56	H	-4.233687	-0.228922	-0.702342
C57	C	-4.297588	-0.041531	-0.830526
N58	N	-4.472243	-0.045122	-0.857814
