data_functionalizedCrystal
_audit_creation_method	'MofGen! by Chris Wilmer'
_symmetry_space_group_name_H-M	'P1'
_symmetry_Int_Tables_number	1
_symmetry_cell_setting	triclinic
loop_
_symmetry_equiv_pos_as_xyz
  x,y,z
_cell_length_a	10.967926
_cell_length_b	11.026607
_cell_length_c	15.186229
_cell_angle_alpha	89.998222
_cell_angle_beta	102.125883
_cell_angle_gamma	96.380754
loop_
_atom_site_label
_atom_site_type_symbol
_atom_site_fract_x
_atom_site_fract_y
_atom_site_fract_z
O1	O	1.693960	0.170510	0.183837
O2	O	1.334337	0.186834	0.129262
O3	O	1.484344	0.001771	0.152029
O4	O	1.543954	0.355573	0.161069
O5	O	1.484330	0.001768	0.298485
O6	O	1.334324	0.186831	0.275717
O7	O	1.693947	0.170507	0.330292
Zn8	Zn	1.514133	0.178668	0.326257
Zn9	Zn	1.514151	0.178672	0.133296
O10	O	1.543941	0.355570	0.307524
C11	C	1.287576	0.185645	0.195394
C12	C	1.148257	0.182092	0.174251
C13	C	1.086137	0.180506	0.240693
C14	C	0.942144	0.176834	0.218843
C15	C	1.473340	-0.043533	0.223587
C16	C	1.440557	-0.178520	0.218609
C17	C	1.531076	-0.251572	0.232344
C18	C	1.497195	-0.391089	0.227200
C19	C	1.740709	0.171696	0.264158
C20	C	1.880027	0.175249	0.285295
C21	C	1.554944	0.400874	0.235965
C22	C	1.587727	0.535860	0.240937
N23	N	1.514130	0.178665	0.457950
N24	N	1.514162	0.178666	0.001605
C25	C	1.580588	0.096747	0.693759
C26	C	1.580591	0.096745	0.785950
C27	C	1.447696	0.260587	0.765788
C28	C	1.447686	0.260583	0.673598
C29	C	1.514139	0.178665	0.637588
C30	C	1.514153	0.178666	0.821967
C31	C	1.514156	0.178664	0.921924
C32	C	1.514135	0.178665	0.537625
H33	H	1.094837	0.180727	0.101192
Br34	Br	1.175159	0.182767	0.362469
Br35	Br	1.758713	-0.396252	0.266878
H36	H	0.888729	0.175470	0.145778
H37	H	1.393569	0.327291	0.627859
Br38	Br	1.269580	-0.246416	0.192649
H39	H	1.633654	-0.210828	0.247917
H40	H	0.933440	0.176606	0.358360
H41	H	1.634697	0.030043	0.664442
H42	H	1.394610	-0.431828	0.211626
H43	H	1.634698	0.030039	0.831683
Br44	Br	1.357515	0.371761	0.814664
