data_functionalizedCrystal
_audit_creation_method	'MofGen! by Chris Wilmer'
_symmetry_space_group_name_H-M	'P1'
_symmetry_Int_Tables_number	1
_symmetry_cell_setting	triclinic
loop_
_symmetry_equiv_pos_as_xyz
  x,y,z
_cell_length_a	19.851628
_cell_length_b	23.196402
_cell_length_c	23.196401
_cell_angle_alpha	59.999265
_cell_angle_beta	90.009271
_cell_angle_gamma	59.998845
loop_
_atom_site_label
_atom_site_type_symbol
_atom_site_fract_x
_atom_site_fract_y
_atom_site_fract_z
Zr1	Zr	0.648981	0.630946	-0.075566
O2	O	0.541398	0.751237	-0.167631
O3	O	0.681958	0.510672	-0.047347
O4	O	0.681936	0.630958	-0.167621
O5	O	0.541441	0.630935	0.047523
O6	O	0.792798	0.630947	-0.167610
O7	O	0.541420	0.630952	-0.047356
O8	O	0.792837	0.415777	0.047540
O9	O	0.541401	0.846105	-0.167627
O10	O	0.778761	0.560127	-0.035298
O11	O	0.696041	0.560123	0.035500
O12	O	0.696015	0.701744	-0.106108
O13	O	0.613296	0.701741	-0.035310
Zr14	Zr	0.825825	0.630902	0.075773
Zr15	Zr	0.825793	0.630928	-0.075547
Zr16	Zr	0.649014	0.630920	0.075755
Zr17	Zr	0.648986	0.782248	-0.075559
Zr18	Zr	0.825821	0.479599	0.075767
O19	O	0.792848	0.751175	0.047554
O20	O	0.792802	0.751212	-0.167604
O21	O	0.541445	0.751200	0.047528
O22	O	0.933408	0.510610	0.167838
O23	O	0.933362	0.510647	-0.047320
O24	O	0.682005	0.510635	0.167812
O25	O	0.933366	0.630912	-0.047315
O26	O	0.792870	0.630889	0.167829
O27	O	0.682009	0.630900	0.167817
O28	O	0.933386	0.630896	0.047564
O29	O	0.681943	0.846091	-0.167612
O30	O	0.792863	0.415757	0.167820
O31	O	0.933405	0.415743	0.167834
O32	O	0.933379	0.415763	0.047554
O33	O	0.541427	0.846084	-0.047347
O34	O	0.681969	0.846070	-0.047332
O35	O	0.778791	0.560103	0.106316
O36	O	0.861511	0.560107	0.035517
O37	O	0.778765	0.701724	-0.035292
O38	O	0.696046	0.701720	0.035506
C39	C	0.737397	0.441667	0.000096
C40	C	0.737395	0.377436	0.000093
C41	C	0.516239	0.630946	0.000081
C42	C	0.441177	0.630953	0.000073
C43	C	0.780568	0.347267	-0.036866
C44	C	0.780576	0.286906	-0.036860
C45	C	0.737395	0.256727	0.000095
C46	C	0.694220	0.286900	0.037062
C47	C	0.694220	0.347254	0.037061
C48	C	0.665055	0.194706	-0.005188
C49	C	0.665052	0.134357	-0.005192
C50	C	0.737396	0.070573	0.000102
C51	C	0.809741	0.067153	0.005385
C52	C	0.809741	0.127507	0.005384
C53	C	0.737390	0.191283	0.000100
C54	C	0.780582	-0.025047	-0.036852
C55	C	0.780592	-0.085413	-0.036841
C56	C	0.694228	-0.085412	0.037075
C57	C	0.694225	-0.025053	0.037069
C58	C	0.737400	0.005128	0.000102
C59	C	0.214716	0.708151	-0.038512
C60	C	0.192347	0.669561	-0.066491
C61	C	0.303771	0.630932	0.000093
C62	C	0.192399	0.669527	0.028059
C63	C	0.171039	0.630918	0.000112
C64	C	0.282391	0.592342	-0.027925
C65	C	0.282440	0.592319	0.066662
C66	C	0.260124	0.553673	0.038700
C67	C	0.380233	0.630943	0.000081
C68	C	0.094582	0.630901	0.000124
C69	C	0.958568	0.630901	0.000127
C70	C	1.033629	0.630894	0.000135
C71	C	0.737362	0.630956	-0.189175
C72	C	0.737348	0.630967	-0.253415
C73	C	0.737409	0.820180	0.000112
C74	C	0.737411	0.884412	0.000115
C75	C	0.798425	0.630963	-0.283572
C76	C	0.798443	0.630946	-0.343918
C77	C	0.737372	0.630951	-0.374114
C78	C	0.676290	0.630951	-0.343948
C79	C	0.676278	0.630959	-0.283598
C80	C	0.662840	0.678453	-0.493502
C81	C	0.662851	0.678450	-0.553853
C82	C	0.737409	0.630922	-0.560250
C83	C	0.811960	0.583407	-0.506295
C84	C	0.811948	0.583416	-0.445946
C85	C	0.737379	0.630941	-0.439553
C86	C	0.798510	0.630898	-0.655841
C87	C	0.798529	0.630877	-0.716187
C88	C	0.676369	0.630890	-0.716219
C89	C	0.676357	0.630903	-0.655871
C90	C	0.737427	0.630911	-0.625687
C91	C	0.737444	0.630891	0.189383
C92	C	0.737458	0.630880	0.253623
C93	C	0.958562	0.441645	0.000119
C94	C	1.033621	0.377406	0.000124
C95	C	0.737438	0.441635	0.189375
C96	C	0.737450	0.377392	0.253612
C97	C	0.958603	0.441613	0.189398
C98	C	1.033676	0.377362	0.253643
C99	C	0.516204	0.820235	-0.189190
C100	C	0.441131	0.884485	-0.253435
C101	C	0.516245	0.820202	0.000089
C102	C	0.441186	0.884442	0.000084
C103	C	0.737368	0.820212	-0.189167
C104	C	0.737357	0.884455	-0.253404
C105	C	1.025675	0.347249	-0.036845
C106	C	1.096194	0.286898	-0.036855
C107	C	1.174659	0.256700	0.000109
C108	C	1.182603	0.286863	0.037080
C109	C	1.112085	0.347217	0.037084
C110	C	0.780650	0.347212	0.320749
C111	C	0.780658	0.286858	0.381113
C112	C	0.737470	0.256680	0.374336
C113	C	0.694265	0.286866	0.307192
C114	C	0.694252	0.347223	0.246830
C115	C	1.112117	0.347192	0.246857
C116	C	1.182663	0.286830	0.307215
C117	C	1.174766	0.256636	0.374360
C118	C	1.096316	0.286812	0.381144
C119	C	1.025772	0.347177	0.320786
C120	C	0.362690	0.914663	-0.246649
C121	C	0.292144	0.975044	-0.307008
C122	C	0.300041	1.005241	-0.374152
C123	C	0.378490	0.975060	-0.380937
C124	C	0.449035	0.914685	-0.320579
C125	C	0.449132	0.914605	0.037047
C126	C	0.378612	0.974973	0.037039
C127	C	0.300148	1.005172	0.000073
C128	C	0.292203	0.975007	-0.036894
C129	C	0.362722	0.914644	-0.036891
C130	C	0.780553	0.914614	-0.246605
C131	C	0.780558	0.974969	-0.306957
C132	C	0.737361	1.005168	-0.374107
C133	C	0.694164	0.975004	-0.380904
C134	C	0.694164	0.914646	-0.320553
H135	H	0.815726	0.371837	-0.066965
C136	C	0.586522	0.464386	0.136050
C137	C	0.646772	0.380385	0.173033
H138	H	0.557206	0.484853	0.090494
H139	H	0.612238	0.490995	0.131440
H140	H	0.549253	0.474275	0.161133
H141	H	0.684044	0.370495	0.147953
H142	H	0.621055	0.353767	0.177640
H143	H	0.737487	0.207533	0.423493
C144	C	0.819001	0.439730	0.261056
C145	C	0.828124	0.380378	0.328209
H146	H	0.848313	0.460201	0.265668
H147	H	0.762186	0.483060	0.235975
H148	H	0.840332	0.416176	0.235988
H149	H	0.806788	0.403934	0.353276
H150	H	0.884951	0.337041	0.353301
H151	H	0.815734	0.262338	-0.066957
H152	H	0.659066	-0.000487	0.067162
H153	H	0.626542	0.630963	-0.259044
C154	C	0.888277	0.797421	-0.135834
C155	C	0.828043	0.881423	-0.172798
H156	H	0.917595	0.776931	-0.090269
H157	H	0.925539	0.787535	-0.160915
H158	H	0.862542	0.770826	-0.131240
H159	H	0.853779	0.908019	-0.177397
H160	H	0.790776	0.891315	-0.147711
C161	C	0.152081	1.091678	-0.040187
C162	C	0.222636	1.071530	0.000068
H163	H	0.104233	1.132648	-0.040192
H164	H	0.152075	1.044598	-0.020398
H165	H	0.152081	1.111463	-0.087275
H166	H	0.222640	1.051738	0.047158
H167	H	0.222642	1.118619	-0.019719
C168	C	0.563044	0.317545	0.262788
C169	C	0.646805	0.253676	0.299758
H170	H	0.533750	0.297046	0.258207
H171	H	0.556846	0.357802	0.217230
H172	H	0.541726	0.341091	0.287864
H173	H	0.668124	0.230134	0.274679
H174	H	0.653007	0.213405	0.345324
H175	H	0.278736	0.488328	0.071347
H176	H	0.626620	0.630912	-0.631318
C177	C	0.866076	0.292906	0.448105
C178	C	0.828162	0.253678	0.454912
H179	H	0.895407	0.272418	0.493665
H180	H	0.825208	0.349886	0.423023
H181	H	0.903337	0.283005	0.423019
H182	H	0.790896	0.263584	0.479993
H183	H	0.869036	0.196685	0.480005
C184	C	0.295999	0.521204	-0.079600
C185	C	0.334610	0.548329	-0.059935
H186	H	0.328240	0.494031	-0.099359
H187	H	0.242826	0.566561	-0.113573
H188	H	0.290757	0.484614	-0.039199
H189	H	0.339846	0.584925	-0.100337
H190	H	0.387797	0.502966	-0.025960
C191	C	1.260913	0.292904	0.228064
C192	C	1.268888	0.253660	0.299746
H193	H	1.314143	0.272422	0.223453
H194	H	1.231605	0.349882	0.206058
H195	H	1.231592	0.283009	0.206069
H196	H	1.298203	0.263560	0.321740
H197	H	1.298208	0.196669	0.321761
H198	H	1.232073	0.207555	0.000100
H199	H	0.242593	1.054402	-0.423294
C200	C	0.143584	0.836550	-0.152338
C201	C	0.189815	0.796287	-0.082642
H202	H	0.128219	0.890958	-0.179582
H203	H	0.095390	0.837152	-0.152970
H204	H	0.175797	0.808852	-0.171732
H205	H	0.157600	0.823982	-0.063246
H206	H	0.238016	0.795690	-0.082007
H207	H	1.118566	0.371763	0.067193
C208	C	0.773076	0.092126	-0.129041
C209	C	0.828046	0.008126	-0.077480
H210	H	0.802380	0.112601	-0.154125
H211	H	0.747366	0.118732	-0.107033
H212	H	0.732208	0.102011	-0.160940
H213	H	0.868910	-0.001759	-0.045578
H214	H	0.853769	-0.018489	-0.099489
C215	C	0.952765	0.055015	0.015851
C216	C	0.889261	0.123743	0.011203
H217	H	1.001859	0.052690	0.019450
H218	H	0.937582	0.058492	-0.025182
H219	H	0.961930	0.007252	0.056447
H220	H	0.880092	0.171507	-0.029397
H221	H	0.904447	0.120273	0.052240
H222	H	0.384911	0.999655	-0.435613
C223	C	0.911804	-0.153275	-0.050560
C224	C	0.828054	-0.118574	-0.077470
H225	H	0.941103	-0.173742	-0.075647
H226	H	0.933141	-0.196608	-0.001939
H227	H	0.917968	-0.113000	-0.055855
H228	H	0.821890	-0.158851	-0.072171
H229	H	0.806711	-0.075236	-0.126103
H230	H	0.321259	0.559704	0.122939
H231	H	1.118563	0.371767	0.192190
C232	C	0.070074	0.712488	-0.141595
C233	C	0.139943	0.713616	-0.142476
H234	H	0.037727	0.739684	-0.188505
H235	H	0.038328	0.739386	-0.121480
H236	H	0.086785	0.657627	-0.114209
H237	H	0.123232	0.768478	-0.169857
H238	H	0.171693	0.686720	-0.162600
H239	H	1.089709	0.262346	-0.066960
C240	C	0.132874	0.659454	0.119867
C241	C	0.140031	0.713588	0.059984
H242	H	0.100540	0.686662	0.139568
H243	H	0.186195	0.614429	0.153742
H244	H	0.107021	0.640569	0.106898
H245	H	0.165890	0.732469	0.072954
H246	H	0.086701	0.758627	0.026102
H247	H	0.659061	0.371817	0.067157
C248	C	0.655878	-0.177925	0.069895
C249	C	0.646761	-0.118578	0.077697
H250	H	0.626570	-0.198398	0.094973
H251	H	0.712692	-0.221253	0.088153
H252	H	0.634539	-0.154365	0.021266
H253	H	0.668105	-0.142139	0.126327
H254	H	0.589934	-0.075242	0.059442
C255	C	0.608751	0.920773	-0.399720
C256	C	0.646666	0.881509	-0.328034
H257	H	0.579422	0.900320	-0.404340
H258	H	0.649618	0.910868	-0.421712
H259	H	0.571487	0.977759	-0.421720
H260	H	0.683935	0.824523	-0.306034
H261	H	0.605794	0.891408	-0.306032
H262	H	0.815733	0.999523	-0.301409
H263	H	0.868653	0.015212	0.009705
C264	C	0.919176	0.630947	-0.289606
C265	C	0.865560	0.630959	-0.250389
H266	H	0.960625	0.630938	-0.269114
H267	H	0.889009	0.678234	-0.336794
H268	H	0.944266	0.583651	-0.289494
H269	H	0.840465	0.678258	-0.250505
H270	H	0.895731	0.583666	-0.203188
C271	C	0.595519	0.822164	-0.260893
C272	C	0.535258	0.881528	-0.328044
H273	H	0.648747	0.801706	-0.265507
H274	H	0.589353	0.778827	-0.235823
H275	H	0.589332	0.845703	-0.235811
H276	H	0.541441	0.857986	-0.353124
H277	H	0.541427	0.924871	-0.353124
C278	C	0.162711	0.993642	-0.332001
C279	C	0.205917	1.008206	-0.299542
H280	H	0.109479	1.014119	-0.327394
H281	H	0.192023	0.936664	-0.310000
H282	H	0.157319	1.020279	-0.380628
H283	H	0.211315	0.981565	-0.250913
H284	H	0.176598	1.065195	-0.321541
H285	H	0.513015	0.890021	0.067154
H286	H	0.356240	0.890087	-0.066988
H287	H	1.232214	0.207483	0.423502
H288	H	1.089898	0.262219	0.435821
C289	C	0.196845	0.944324	-0.050602
C290	C	0.205950	1.008200	-0.077518
H291	H	0.143596	0.964815	-0.075681
H292	H	0.203056	0.920775	-0.001979
H293	H	0.237703	0.904067	-0.055902
H294	H	0.165096	1.048454	-0.072213
H295	H	0.199731	1.031761	-0.126152
C296	C	0.349451	0.993524	0.129230
C297	C	0.387359	1.008112	0.077687
H298	H	0.354849	1.013985	0.154322
H299	H	0.375162	0.936545	0.161119
H300	H	0.292627	1.020164	0.107201
H301	H	0.444184	0.981467	0.099716
H302	H	0.361650	1.065102	0.045793
H303	H	0.848181	0.630942	-0.368477
C304	C	0.879200	0.439781	-0.069678
C305	C	0.939431	0.380437	-0.077483
H306	H	0.825959	0.460265	-0.094767
H307	H	0.885385	0.483104	-0.087924
H308	H	0.885401	0.416216	-0.021050
H309	H	0.933234	0.404004	-0.126111
H310	H	0.933243	0.337107	-0.059241
C311	C	0.531438	0.700669	-0.397418
C312	C	0.609159	0.630954	-0.377133
H313	H	0.489996	0.700662	-0.417898
H314	H	0.528904	0.747949	-0.430955
H315	H	0.522703	0.700664	-0.357154
H316	H	0.617897	0.630961	-0.417399
H317	H	0.611695	0.583661	-0.343594
C318	C	0.947527	0.341067	0.399936
C319	C	0.939549	0.380327	0.328253
H320	H	0.894296	0.361527	0.404548
H321	H	0.976829	0.350965	0.421936
H322	H	0.976854	0.284081	0.421936
H323	H	0.910228	0.437312	0.306254
H324	H	0.910235	0.370435	0.306244
H325	H	0.606144	0.137150	-0.009497
C326	C	0.522021	0.255096	-0.015676
C327	C	0.585522	0.264828	-0.011023
H328	H	0.472922	0.298390	-0.019286
H329	H	0.537199	0.204549	0.025360
H330	H	0.512868	0.255762	-0.056268
H331	H	0.594679	0.264156	0.029571
H332	H	0.570342	0.315389	-0.052064
H333	H	0.872649	0.544726	-0.402016
H334	H	0.602148	0.717143	-0.597782
C335	C	1.329065	0.194309	0.069904
C336	C	1.268857	0.253657	0.077716
H337	H	1.382315	0.173803	0.094998
H338	H	1.322863	0.217873	0.021282
H339	H	1.322858	0.150995	0.088146
H340	H	1.275061	0.296974	0.059469
H341	H	1.275062	0.230093	0.126348
C342	C	0.582153	0.787001	-0.479919
C343	C	0.580883	0.730701	-0.486470
H344	H	0.531561	0.819250	-0.475572
H345	H	0.589198	0.821243	-0.520585
H346	H	0.626555	0.758689	-0.439148
H347	H	0.536485	0.759013	-0.527244
H348	H	0.573828	0.696455	-0.445799
C349	C	0.270239	0.920748	-0.179653
C350	C	0.353994	0.881490	-0.172848
H351	H	0.264868	0.900277	-0.134092
H352	H	0.244518	0.910858	-0.204728
H353	H	0.244534	0.977732	-0.204745
H354	H	0.379697	0.824506	-0.147761
H355	H	0.379726	0.891374	-0.147763
H356	H	0.872671	0.544705	-0.511500
H357	H	0.659062	0.262324	0.067151
H358	H	0.737367	1.054316	-0.423242
C359	C	0.701632	0.993633	-0.491677
C360	C	0.646678	1.008213	-0.454721
H361	H	0.672311	1.014144	-0.537251
H362	H	0.742484	0.936650	-0.466603
H363	H	0.727361	1.020229	-0.496250
H364	H	0.620954	0.981612	-0.450143
H365	H	0.605812	1.065206	-0.479801
C366	C	0.919266	0.630874	-0.661864
C367	C	0.865644	0.630894	-0.622653
H368	H	0.960714	0.630865	-0.641371
H369	H	0.889103	0.678158	-0.709054
H370	H	0.944357	0.583575	-0.661747
H371	H	0.840548	0.678196	-0.622774
H372	H	0.895811	0.583605	-0.575450
H373	H	0.848269	0.630868	-0.740738
H374	H	0.626647	0.630889	-0.740801
