data_functionalizedCrystal
_audit_creation_method	'MofGen! by Chris Wilmer'
_symmetry_space_group_name_H-M	'P1'
_symmetry_Int_Tables_number	1
_symmetry_cell_setting	triclinic
loop_
_symmetry_equiv_pos_as_xyz
  x,y,z
_cell_length_a	19.121063
_cell_length_b	21.395362
_cell_length_c	21.395355
_cell_angle_alpha	89.956060
_cell_angle_beta	87.579260
_cell_angle_gamma	87.514319
loop_
_atom_site_label
_atom_site_type_symbol
_atom_site_fract_x
_atom_site_fract_y
_atom_site_fract_z
Zn1	Zn	-0.279403	-0.947241	0.365205
Zn2	Zn	0.053930	-0.613907	0.698538
Zn3	Zn	0.387263	-0.280574	1.031871
Zn4	Zn	-0.396839	-0.942680	0.264891
Zn5	Zn	-0.063505	-0.609347	0.598224
Zn6	Zn	0.269828	-0.276013	0.931557
Zn7	Zn	-0.279436	-0.842454	0.260407
Zn8	Zn	0.053897	-0.509121	0.593741
Zn9	Zn	0.387231	-0.175788	0.927074
Zn10	Zn	-0.396853	-0.837961	0.369596
Zn11	Zn	-0.063520	-0.504628	0.702929
Zn12	Zn	0.269814	-0.171295	1.036263
O13	O	-0.338133	-0.892584	0.315025
O14	O	-0.004799	-0.559251	0.648358
O15	O	0.328534	-0.225917	0.981691
O16	O	-0.294962	-1.034314	0.351936
O17	O	0.038372	-0.700981	0.685270
O18	O	0.371705	-0.367648	1.018603
O19	O	-0.381273	-0.929357	0.176618
O20	O	-0.047939	-0.596023	0.509952
O21	O	0.285394	-0.262690	0.843285
O22	O	-0.181145	-0.860144	0.270595
O23	O	0.152188	-0.526810	0.603928
O24	O	0.485522	-0.193477	0.937262
O25	O	-0.381241	-1.030964	0.278236
O26	O	-0.047908	-0.697630	0.611569
O27	O	0.285426	-0.364297	0.944903
O28	O	-0.181121	-0.937130	0.347589
O29	O	0.152212	-0.603796	0.680923
O30	O	0.485546	-0.270463	1.014256
O31	O	-0.295017	-0.855721	0.173324
O32	O	0.038316	-0.522388	0.506658
O33	O	0.371649	-0.189055	0.839991
O34	O	-0.295031	-0.754180	0.274853
O35	O	0.038302	-0.420846	0.608186
O36	O	0.371635	-0.087513	0.941519
O37	O	-0.381266	-0.852486	0.456691
O38	O	-0.047932	-0.519152	0.790024
O39	O	0.285401	-0.185819	1.123358
O40	O	-0.381297	-0.750879	0.355073
O41	O	-0.047964	-0.417545	0.688407
O42	O	0.285369	-0.084212	1.021740
O43	O	-0.294976	-0.932773	0.453465
O44	O	0.038358	-0.599439	0.786798
O45	O	0.371691	-0.266106	1.120132
O46	O	-0.495127	-0.925000	0.282494
O47	O	-0.161794	-0.591666	0.615827
O48	O	0.171539	-0.258333	0.949161
O49	O	-0.495138	-0.848063	0.359420
O50	O	-0.161804	-0.514730	0.692754
O51	O	0.171529	-0.181397	1.026087
C52	C	-0.338170	-0.729795	0.314953
C53	C	-0.004837	-0.396462	0.648287
C54	C	0.328497	-0.063128	0.981620
C55	C	-0.338203	-0.660152	0.314938
C56	C	-0.004869	-0.326819	0.648272
C57	C	0.328464	0.006514	0.981605
C58	C	-0.520617	-0.885566	0.321934
C59	C	-0.187284	-0.552233	0.655267
C60	C	0.146050	-0.218899	0.988601
C61	C	-0.598685	-0.882621	0.324911
C62	C	-0.265351	-0.549288	0.658244
C63	C	0.067982	-0.215954	0.991577
C64	C	-0.338119	-0.892637	0.478447
C65	C	-0.004785	-0.559303	0.811781
C66	C	0.328548	-0.225970	1.145114
C67	C	-0.338112	-0.892659	0.548089
C68	C	-0.004779	-0.559326	0.881422
C69	C	0.328554	-0.225992	1.214755
C70	C	-0.635332	-0.921325	0.286291
C71	C	-0.301999	-0.587992	0.619624
C72	C	0.031335	-0.254659	0.952958
C73	C	-0.708685	-0.918559	0.289094
C74	C	-0.375352	-0.585226	0.622428
C75	C	-0.042018	-0.251893	0.955761
C76	C	-0.745389	-0.877085	0.330515
C77	C	-0.412056	-0.543752	0.663848
C78	C	-0.078722	-0.210419	0.997181
C79	C	-0.708736	-0.838379	0.369139
C80	C	-0.375403	-0.505046	0.702472
C81	C	-0.042070	-0.171713	1.035805
C82	C	-0.635385	-0.841149	0.366338
C83	C	-0.302052	-0.507816	0.699671
C84	C	0.031282	-0.174482	1.033005
C85	C	-0.966864	-0.866720	0.340976
C86	C	-0.633531	-0.533387	0.674309
C87	C	-0.300198	-0.200053	1.007642
C88	C	-1.040221	-0.863952	0.343772
C89	C	-0.706887	-0.530619	0.677105
C90	C	-0.373554	-0.197285	1.010439
C91	C	-1.040164	-0.944133	0.263728
C92	C	-0.706831	-0.610800	0.597061
C93	C	-0.373498	-0.277466	0.930395
C94	C	-0.966812	-0.946896	0.260928
C95	C	-0.633478	-0.613563	0.594262
C96	C	-0.300145	-0.280230	0.927595
C97	C	-0.930165	-0.908193	0.299555
C98	C	-0.596832	-0.574859	0.632888
C99	C	-0.263499	-0.241526	0.966221
C100	C	-0.820367	-0.874256	0.333380
C101	C	-0.487034	-0.540922	0.666713
C102	C	-0.153701	-0.207589	1.000046
C103	C	-0.855188	-0.911026	0.296692
C104	C	-0.521855	-0.577693	0.630026
C105	C	-0.188522	-0.244359	0.963359
C106	C	-0.154936	-0.899647	0.308102
C107	C	0.178397	-0.566313	0.641435
C108	C	0.511731	-0.232980	0.974769
C109	C	-0.076868	-0.902656	0.305152
C110	C	0.256465	-0.569323	0.638486
C111	C	0.589798	-0.235990	0.971819
C112	C	-0.338096	-1.056009	0.315097
C113	C	-0.004763	-0.722676	0.648430
C114	C	0.328571	-0.389342	0.981763
C115	C	-0.338080	-1.125651	0.315127
C116	C	-0.004747	-0.792317	0.648461
C117	C	0.328586	-0.458984	0.981794
C118	C	-0.383181	-0.625735	0.356651
C119	C	-0.049848	-0.292401	0.689985
C120	C	0.283486	0.040932	1.023318
C121	C	-0.383164	-0.560300	0.356679
C122	C	-0.049830	-0.226967	0.690012
C123	C	0.283503	0.106367	1.023345
C124	C	-0.338176	-0.529285	0.314982
C125	C	-0.004842	-0.195952	0.648315
C126	C	0.328491	0.137381	0.981649
C127	C	-0.293189	-0.563711	0.273266
C128	C	0.040145	-0.230378	0.606599
C129	C	0.373478	0.102955	0.939933
C130	C	-0.293202	-0.629145	0.273244
C131	C	0.040131	-0.295812	0.606577
C132	C	0.373464	0.037522	0.939911
C133	C	-0.332517	-0.425776	0.258362
C134	C	0.000816	-0.092442	0.591695
C135	C	0.334149	0.240891	0.925028
C136	C	-0.332509	-0.360343	0.258383
C137	C	0.000824	-0.027010	0.591716
C138	C	0.334158	0.306324	0.925049
C139	C	-0.338130	-0.327466	0.315049
C140	C	-0.004797	0.005867	0.648383
C141	C	0.328537	0.339200	0.981716
C142	C	-0.343774	-0.360030	0.371698
C143	C	-0.010441	-0.026696	0.705031
C144	C	0.322892	0.306637	1.038364
C145	C	-0.343788	-0.425463	0.371676
C146	C	-0.010454	-0.092130	0.705009
C147	C	0.322879	0.241203	1.038342
C148	C	-0.338156	-0.458334	0.315001
C149	C	-0.004822	-0.125000	0.648335
C150	C	0.328511	0.208333	0.981668
C151	C	-0.383092	-0.222096	0.356795
C152	C	-0.049758	0.111237	0.690129
C153	C	0.283575	0.444570	1.023462
C154	C	-0.383070	-0.156661	0.356824
C155	C	-0.049736	0.176673	0.690157
C156	C	0.283597	0.510006	1.023490
C157	C	-0.293098	-0.160073	0.273405
C158	C	0.040235	0.173260	0.606739
C159	C	0.373568	0.506593	0.940072
C160	C	-0.293117	-0.225508	0.273383
C161	C	0.040216	0.107825	0.606716
C162	C	0.373550	0.441159	0.940049
C163	C	-0.338117	-0.256516	0.315077
C164	C	-0.004784	0.076818	0.648410
C165	C	0.328549	0.410151	0.981744
C166	C	-0.338096	-0.892570	0.152236
C167	C	-0.004763	-0.559236	0.485569
C168	C	0.328570	-0.225903	0.818902
C169	C	-0.337904	-0.892676	0.082588
C170	C	-0.004571	-0.559343	0.415921
C171	C	0.328762	-0.226010	0.749254
C172	C	-0.293179	-0.934463	0.579123
C173	C	0.040154	-0.601130	0.912456
C174	C	0.373487	-0.267796	1.245789
C175	C	-0.293149	-0.934463	0.644557
C176	C	0.040184	-0.601130	0.977890
C177	C	0.373517	-0.267797	1.311224
C178	C	-0.338065	-0.892666	0.678955
C179	C	-0.004731	-0.559332	1.012288
C180	C	0.328602	-0.225999	1.345622
C181	C	-0.383001	-0.850854	0.647913
C182	C	-0.049667	-0.517521	0.981246
C183	C	0.283666	-0.184187	1.314580
C184	C	-0.383025	-0.850851	0.582480
C185	C	-0.049691	-0.517517	0.915813
C186	C	0.283642	-0.184184	1.249146
C187	C	-0.401308	-0.885286	0.785023
C188	C	-0.067974	-0.551953	1.118356
C189	C	0.265359	-0.218620	1.451689
C190	C	-0.401285	-0.885294	0.850455
C191	C	-0.067951	-0.551961	1.183788
C192	C	0.265382	-0.218627	1.517121
C193	C	-0.337990	-0.892672	0.880773
C194	C	-0.004657	-0.559339	1.214106
C195	C	0.328676	-0.226006	1.547440
C196	C	-0.274717	-0.900056	0.845651
C197	C	0.058616	-0.566723	1.178985
C198	C	0.391950	-0.233390	1.512318
C199	C	-0.274741	-0.900053	0.780218
C200	C	0.058593	-0.566720	1.113551
C201	C	0.391926	-0.233386	1.446885
C202	C	-0.338043	-0.892664	0.749907
C203	C	-0.004710	-0.559331	1.083240
C204	C	0.328623	-0.225998	1.416573
C205	C	-0.293021	-0.934479	0.982759
C206	C	0.040313	-0.601146	1.316092
C207	C	0.373646	-0.267812	1.649425
C208	C	-0.292989	-0.934475	1.048194
C209	C	0.040344	-0.601142	1.381527
C210	C	0.373677	-0.267808	1.714861
C211	C	-0.382847	-0.850869	1.051549
C212	C	-0.049514	-0.517535	1.384882
C213	C	0.283819	-0.184202	1.718216
C214	C	-0.382872	-0.850870	0.986115
C215	C	-0.049539	-0.517536	1.319448
C216	C	0.283794	-0.184203	1.652781
C217	C	-0.337960	-0.892678	0.951723
C218	C	-0.004627	-0.559345	1.285057
C219	C	0.328707	-0.226011	1.618390
H220	H	-0.605453	-0.955095	0.252559
H221	H	-0.272119	-0.621762	0.585893
H222	H	0.061214	-0.288428	0.919226
F223	F	-0.816124	-0.955167	0.252614
F224	F	-0.482791	-0.621834	0.585947
F225	F	-0.149457	-0.288500	0.919281
F226	F	-0.430801	-0.806368	0.684523
F227	F	-0.097467	-0.473035	1.017856
F228	F	0.235866	-0.139702	1.351189
H229	H	-0.419466	-0.816832	0.960847
H230	H	-0.086133	-0.483499	1.294180
H231	H	0.247201	-0.150165	1.627513
F232	F	-0.468626	-0.877441	0.887828
F233	F	-0.135292	-0.544107	1.221161
F234	F	0.198041	-0.210774	1.554495
F235	F	-0.245219	-0.978972	0.946154
F236	F	0.088114	-0.645639	1.279488
F237	F	0.421447	-0.312305	1.612821
H238	H	-1.070103	-0.830186	0.377512
H239	H	-0.736770	-0.496853	0.710846
H240	H	-0.403436	-0.163520	1.044179
H241	H	-0.419823	-0.650977	0.390603
H242	H	-0.086489	-0.317643	0.723936
H243	H	0.246844	0.015690	1.057270
F244	F	-0.430981	-0.255099	0.401172
F245	F	-0.097648	0.078234	0.734506
F246	F	0.235686	0.411567	1.067839
H247	H	-0.256494	-0.253531	0.239412
H248	H	0.076839	0.079802	0.572746
H249	H	0.410172	0.413135	0.906079
F250	F	-0.927872	-0.825527	0.382085
F251	F	-0.594539	-0.492194	0.715418
F252	F	-0.261205	-0.158861	1.048752
H253	H	-1.070010	-0.975644	0.232282
H254	H	-0.736676	-0.642311	0.565615
H255	H	-0.403343	-0.308977	0.898948
H256	H	-0.327917	-0.333835	0.212256
H257	H	0.005416	-0.000501	0.545590
H258	H	0.338749	0.332832	0.878923
H259	H	-0.327937	-0.452538	0.212214
H260	H	0.005396	-0.119205	0.545547
H261	H	0.338729	0.214128	0.878880
F262	F	-0.747685	-0.959756	0.247991
F263	F	-0.414351	-0.626422	0.581325
F264	F	-0.081018	-0.293089	0.914658
H265	H	-0.605547	-0.809633	0.397787
H266	H	-0.272214	-0.476299	0.731121
H267	H	0.061120	-0.142966	1.064454
F268	F	-0.927754	-0.991046	0.216850
F269	F	-0.594420	-0.657712	0.550183
F270	F	-0.261087	-0.324379	0.883517
F271	F	-0.747801	-0.794243	0.413225
F272	F	-0.414468	-0.460910	0.746559
F273	F	-0.081135	-0.127576	1.079892
F274	F	-0.349792	-0.460118	0.431963
F275	F	-0.016458	-0.126784	0.765296
F276	F	0.316875	0.206549	1.098630
F277	F	-0.859437	-0.830117	0.377461
F278	F	-0.526103	-0.496783	0.710794
F279	F	-0.192770	-0.163450	1.044127
F280	F	-0.245215	-0.127070	0.229031
F281	F	0.088119	0.206263	0.562365
F282	F	0.421452	0.539597	0.895698
F283	F	-0.431037	-0.523662	0.401077
F284	F	-0.097704	-0.190329	0.734411
F285	F	0.235629	0.143004	1.067744
F286	F	-0.349754	-0.325046	0.432012
F287	F	-0.016420	0.008288	0.765345
F288	F	0.316913	0.341621	1.098678
H289	H	-0.419695	-0.128639	0.390795
H290	H	-0.086362	0.204695	0.724129
H291	H	0.246972	0.538028	1.057462
H292	H	-0.256558	-0.538455	0.239317
H293	H	0.076775	-0.205122	0.572651
H294	H	0.410109	0.128211	0.905984
F295	F	-0.245328	-0.665776	0.228846
F296	F	0.088005	-0.332443	0.562179
F297	F	0.421339	0.000890	0.895512
H298	H	-0.223177	-0.906066	0.870335
H299	H	0.110157	-0.572732	1.203668
H300	H	0.443490	-0.239399	1.537002
F301	F	-0.245377	-0.978957	0.542525
F302	F	0.087957	-0.645624	0.875858
F303	F	0.421290	-0.312290	1.209191
F304	F	-0.468680	-0.877447	0.752762
F305	F	-0.135347	-0.544114	1.086096
F306	F	0.197987	-0.210780	1.419429
F307	F	-0.245312	-0.978949	0.677592
F308	F	0.088021	-0.645615	1.010926
F309	F	0.421355	-0.312282	1.344259
H310	H	-0.223221	-0.906064	0.751624
H311	H	0.110112	-0.572730	1.084958
H312	H	0.443445	-0.239397	1.418291
F313	F	-0.245171	-0.978978	1.081223
F314	F	0.088162	-0.645644	1.414556
F315	F	0.421496	-0.312311	1.747890
F316	F	-0.430645	-0.806380	1.088153
F317	F	-0.097311	-0.473046	1.421487
F318	F	0.236022	-0.139713	1.754820
F319	F	-0.430851	-0.806355	0.549450
F320	F	-0.097517	-0.473022	0.882783
F321	F	0.235816	-0.139688	1.216117
