data_functionalizedCrystal
_audit_creation_method	'MofGen! by Chris Wilmer'
_symmetry_space_group_name_H-M	'P1'
_symmetry_Int_Tables_number	1
_symmetry_cell_setting	triclinic
loop_
_symmetry_equiv_pos_as_xyz
  x,y,z
_cell_length_a	17.639617
_cell_length_b	17.637651
_cell_length_c	17.640968
_cell_angle_alpha	70.334811
_cell_angle_beta	70.333968
_cell_angle_gamma	109.613464
loop_
_atom_site_label
_atom_site_type_symbol
_atom_site_fract_x
_atom_site_fract_y
_atom_site_fract_z
Zn1	Zn	1.383906	0.116517	-0.750807
Zn2	Zn	1.309151	-0.068152	-0.566109
Zn3	Zn	1.199281	0.041863	-0.566137
Zn4	Zn	1.199262	-0.068067	-0.676014
O5	O	1.272900	0.005540	-0.639767
O6	O	1.497244	0.123228	-0.757597
O7	O	1.263299	-0.084838	-0.442832
O8	O	1.255065	0.175057	-0.621947
O9	O	1.442322	-0.012448	-0.621900
O10	O	1.390708	0.229905	-0.757623
O11	O	1.182579	-0.004010	-0.442852
O12	O	1.076024	-0.003926	-0.549422
O13	O	1.255032	-0.012302	-0.809216
O14	O	1.076010	-0.084691	-0.630148
O15	O	1.390689	0.123311	-0.864166
O16	O	1.263280	-0.191432	-0.549375
O17	O	1.182546	-0.191369	-0.630122
C18	C	1.044058	-0.052401	-0.581672
C19	C	0.946159	-0.077204	-0.556835
C20	C	0.767107	0.194044	-0.828677
C21	C	0.675105	0.170711	-0.805315
C22	C	0.617943	0.029577	-0.663899
C23	C	0.709941	0.052896	-0.687251
C24	C	0.784517	0.135131	-0.769641
C25	C	0.727352	-0.006017	-0.628215
C26	C	0.819343	0.017303	-0.651564
C27	C	0.893923	0.099536	-0.733948
C28	C	0.876508	0.158451	-0.792990
C29	C	0.652775	-0.088248	-0.545823
C30	C	0.670185	-0.147161	-0.486787
C31	C	0.762177	-0.123844	-0.510138
C32	C	0.836757	-0.041612	-0.592523
C33	C	0.779592	-0.182760	-0.451097
C34	C	0.871583	-0.159440	-0.474445
C35	C	0.928748	-0.018292	-0.615871
C36	C	1.214828	-0.223357	-0.581655
C37	C	1.190072	-0.321253	-0.556844
C38	C	1.461607	-0.500127	-0.828674
C39	C	1.438314	-0.592126	-0.805338
C40	C	1.297116	-0.649355	-0.663968
C41	C	1.320400	-0.557360	-0.687290
C42	C	1.402646	-0.482752	-0.769644
C43	C	1.261439	-0.539984	-0.628260
C44	C	1.284719	-0.447996	-0.651583
C45	C	1.366960	-0.373384	-0.733935
C46	C	1.425926	-0.390764	-0.792967
C47	C	1.179190	-0.614594	-0.545909
C48	C	1.120230	-0.597218	-0.486880
C49	C	1.143512	-0.505229	-0.510199
C50	C	1.225753	-0.430616	-0.592551
C51	C	1.084546	-0.487849	-0.451167
C52	C	1.107826	-0.395861	-0.474489
C53	C	1.249033	-0.338629	-0.615873
C54	C	1.502635	0.063707	-0.698088
C55	C	1.600535	0.088495	-0.722941
C56	C	1.331197	0.063841	-0.869550
C57	C	1.356040	0.088686	-0.967470
C58	C	1.331228	0.235343	-0.698131
C59	C	1.356084	0.333271	-0.723003
C60	C	1.084631	-0.182635	-1.146474
C61	C	1.107996	-0.159274	-1.238493
C62	C	1.249243	-0.018072	-1.295697
C63	C	1.225888	-0.041419	-1.203682
C64	C	1.143581	-0.123702	-1.129077
C65	C	1.284838	0.017514	-1.186285
C66	C	1.261486	-0.005834	-1.094277
C67	C	1.179185	-0.088115	-1.019667
C68	C	1.120229	-0.147050	-1.037069
C69	C	1.367148	0.099793	-1.260891
C70	C	1.426098	0.158726	-1.243494
C71	C	1.402743	0.135382	-1.151485
C72	C	1.320442	0.053101	-1.076875
C73	C	1.461699	0.194317	-1.134083
C74	C	1.438347	0.170969	-1.042076
C75	C	1.297090	0.029753	-0.984868
C76	C	1.214896	-0.052457	-0.410906
C77	C	1.190287	-0.077010	-0.313093
H78	H	0.885757	-0.207412	-0.426372
H79	H	1.493114	0.225719	-1.304249
C80	C	1.503173	-0.611240	-0.870273
H81	H	1.477527	-0.676709	-0.844595
H82	H	1.562932	-0.584397	-0.876294
H83	H	1.509056	-0.584416	-0.929994
C84	C	1.392574	-0.272196	-0.759597
H85	H	1.449996	-0.230254	-0.817101
H86	H	1.398698	-0.261942	-0.711915
H87	H	1.344832	-0.261964	-0.765625
C88	C	1.552231	0.284820	-1.216152
H89	H	1.557694	0.290285	-1.273440
H90	H	1.604310	0.283085	-1.212815
H91	H	1.550533	0.336930	-1.212840
C92	C	1.503183	0.235799	-1.022934
H93	H	1.555540	0.288153	-1.080543
H94	H	1.523898	0.202710	-0.988220
H95	H	1.470111	0.256545	-0.988241
H96	H	0.989474	0.048670	-0.682963
C97	C	0.588150	-0.237615	-0.396167
H98	H	0.530869	-0.243071	-0.390718
H99	H	0.591496	-0.235833	-0.344113
H100	H	0.591469	-0.289755	-0.397773
H101	H	1.017577	-0.548607	-0.384118
H102	H	1.230150	-0.710113	-0.596916
C103	C	1.043143	-0.224104	-1.257625
H104	H	0.990779	-0.276448	-1.200014
H105	H	1.076202	-0.244852	-1.292320
H106	H	1.022425	-0.191008	-1.292335
C107	C	1.206550	-0.060752	-0.902794
H108	H	1.201087	-0.066210	-0.845508
H109	H	1.208233	-0.112864	-0.906104
H110	H	1.154471	-0.059005	-0.906129
H111	H	1.160176	-0.107126	-0.944750
H112	H	0.557212	-0.037377	-0.596815
C113	C	1.042976	-0.376739	-0.409562
H114	H	1.068617	-0.311268	-0.435253
H115	H	1.037082	-0.403560	-0.349840
H116	H	0.983217	-0.403580	-0.403551
C117	C	1.029716	-0.237585	-0.954998
H118	H	0.997958	-0.269352	-0.978534
H119	H	0.990764	-0.222745	-0.917895
H120	H	1.044604	-0.276526	-0.917941
C121	C	1.516399	-0.308687	-0.883550
H122	H	1.521819	-0.251416	-0.888979
H123	H	1.514672	-0.312008	-0.935632
H124	H	1.568526	-0.311996	-0.881910
C125	C	0.551585	-0.113903	-0.520134
H126	H	0.509664	-0.171309	-0.462605
H127	H	0.541310	-0.120085	-0.567786
H128	H	0.541349	-0.066144	-0.514144
C129	C	0.994118	-0.273170	-1.064403
H130	H	0.962359	-0.304937	-1.087939
H131	H	0.955166	-0.258330	-1.027300
H132	H	1.009005	-0.312111	-1.027346
C133	C	0.958546	0.248904	-0.883622
H134	H	0.935005	0.280655	-0.915441
H135	H	0.995603	0.233964	-0.922485
H136	H	0.995635	0.287905	-0.868844
C137	C	1.339771	0.072436	-1.377765
H138	H	1.345233	0.077906	-1.435054
H139	H	1.391854	0.070709	-1.374433
H140	H	1.338064	0.124540	-1.374444
C141	C	0.995114	0.125195	-0.759638
H142	H	1.037032	0.182611	-0.817157
H143	H	1.005356	0.077443	-0.765628
H144	H	1.005384	0.131378	-0.711980
H145	H	1.386159	0.118798	-1.335808
H146	H	0.718860	-0.249710	-0.384011
H147	H	1.316011	-0.277878	-0.682930
C148	C	1.552064	-0.418054	-0.919276
H149	H	1.583843	-0.441574	-0.951101
H150	H	1.591022	-0.380952	-0.904481
H151	H	1.537118	-0.381010	-0.958153
C152	C	1.029768	-0.679288	-0.396293
H153	H	1.024350	-0.736562	-0.390852
H154	H	0.977639	-0.675982	-0.397914
H155	H	1.031519	-0.675958	-0.344218
C156	C	0.655958	0.235514	-0.870267
H157	H	0.713550	0.287823	-0.922681
H158	H	0.621274	0.256318	-0.837282
H159	H	0.621249	0.202377	-0.890923
C160	C	0.849145	0.284497	-0.919309
H161	H	0.825604	0.316248	-0.951128
H162	H	0.886202	0.269556	-0.958173
H163	H	0.886234	0.323498	-0.904532
H164	H	1.160233	-0.689494	-0.526929
