data_functionalizedCrystal
_audit_creation_method	'MofGen! by Chris Wilmer'
_symmetry_space_group_name_H-M	'P1'
_symmetry_Int_Tables_number	1
_symmetry_cell_setting	triclinic
loop_
_symmetry_equiv_pos_as_xyz
  x,y,z
_cell_length_a	14.519731
_cell_length_b	14.519709
_cell_length_c	7.540329
_cell_angle_alpha	89.995860
_cell_angle_beta	89.998301
_cell_angle_gamma	83.684499
loop_
_atom_site_label
_atom_site_type_symbol
_atom_site_fract_x
_atom_site_fract_y
_atom_site_fract_z
O1	O	1.223852	0.120983	-0.147490
O2	O	0.955377	0.135199	-0.147493
O3	O	1.096733	-0.006147	-0.147476
O4	O	1.082496	0.262329	-0.147508
O5	O	1.096728	-0.006148	0.147489
O6	O	0.955373	0.135198	0.147472
O7	O	1.223847	0.120982	0.147475
Cu8	Cu	1.089609	0.128090	0.174406
Cu9	Cu	1.089615	0.128091	-0.174424
O10	O	1.082492	0.262328	0.147457
C11	C	0.921016	0.134532	-0.000011
C12	C	0.818635	0.132536	-0.000012
C13	C	0.735491	0.130915	-0.000019
C14	C	0.631182	0.128888	-0.000019
C15	C	0.548043	0.127280	-0.000019
C16	C	0.443728	0.125253	-0.000023
C17	C	1.096067	-0.040507	0.000007
C18	C	1.094079	-0.142889	0.000008
C19	C	1.086759	-0.517785	-0.000038
C20	C	1.088792	-0.413477	-0.000025
C21	C	1.090419	-0.330340	-0.000013
C22	C	1.092452	-0.226025	-0.000003
C23	C	1.258209	0.121649	-0.000011
C24	C	1.360589	0.123645	-0.000022
C25	C	1.083157	0.296688	-0.000029
C26	C	1.085146	0.399070	-0.000042
N27	N	1.089612	0.128089	0.419754
N28	N	1.089620	0.128085	-0.419773
