data_functionalizedCrystal
_audit_creation_method	'MofGen! by Chris Wilmer'
_symmetry_space_group_name_H-M	'P1'
_symmetry_Int_Tables_number	1
_symmetry_cell_setting	triclinic
loop_
_symmetry_equiv_pos_as_xyz
  x,y,z
_cell_length_a	16.959455
_cell_length_b	16.625546
_cell_length_c	16.959447
_cell_angle_alpha	89.967784
_cell_angle_beta	89.985678
_cell_angle_gamma	90.019415
loop_
_atom_site_label
_atom_site_type_symbol
_atom_site_fract_x
_atom_site_fract_y
_atom_site_fract_z
Zn1	Zn	1.208371	-0.321051	-0.446898
Zn2	Zn	1.708371	0.178949	0.053102
Zn3	Zn	1.208288	-0.455899	-0.314715
Zn4	Zn	1.708288	0.044101	0.185285
Zn5	Zn	1.076199	-0.321077	-0.314736
Zn6	Zn	1.576199	0.178923	0.185264
Zn7	Zn	1.076158	-0.455839	-0.446854
Zn8	Zn	1.576158	0.044161	0.053146
O9	O	1.142254	-0.388466	-0.380801
O10	O	1.642254	0.111534	0.119199
O11	O	1.318970	-0.338954	-0.429374
O12	O	1.818970	0.161046	0.070626
O13	O	1.190748	-0.438050	-0.204107
O14	O	1.690748	0.061950	0.295893
O15	O	1.093784	-0.208241	-0.332295
O16	O	1.593784	0.291759	0.167705
O17	O	1.318909	-0.438026	-0.332260
O18	O	1.818909	0.061974	0.167740
O19	O	1.190890	-0.208222	-0.429394
O20	O	1.690890	0.291778	0.070606
O21	O	1.093703	-0.338997	-0.204122
O22	O	1.593703	0.161003	0.295878
O23	O	0.965583	-0.338939	-0.332252
O24	O	1.465583	0.161061	0.167748
O25	O	1.093714	-0.437923	-0.557471
O26	O	1.593714	0.062077	-0.057471
O27	O	0.965553	-0.437947	-0.429318
O28	O	1.465553	0.062053	0.070682
O29	O	1.190850	-0.338895	-0.557503
O30	O	1.690850	0.161105	-0.057503
O31	O	1.190709	-0.568723	-0.332217
O32	O	1.690709	-0.068723	0.167783
O33	O	1.093634	-0.568679	-0.429298
O34	O	1.593634	-0.068679	0.070702
C35	C	0.936888	-0.388440	-0.380783
C36	C	1.436888	0.111560	0.119217
C37	C	0.849031	-0.388448	-0.380794
C38	C	1.349031	0.111552	0.119206
C39	C	0.477547	-0.336870	-0.330364
C40	C	0.977547	0.163130	0.169636
C41	C	0.477564	-0.440129	-0.431283
C42	C	0.977564	0.059871	0.068717
C43	C	0.560110	-0.440117	-0.431278
C44	C	1.060110	0.059883	0.068722
C45	C	0.601378	-0.388482	-0.380815
C46	C	1.101378	0.111518	0.119185
C47	C	0.560100	-0.336859	-0.330356
C48	C	1.060100	0.163141	0.169644
C49	C	0.601394	-0.491746	-0.481731
C50	C	1.101394	0.008254	0.018269
C51	C	0.683945	-0.491737	-0.481727
C52	C	1.183945	0.008263	0.018273
C53	C	0.725215	-0.440097	-0.431267
C54	C	1.225215	0.059903	0.068733
C55	C	0.683932	-0.388471	-0.380807
C56	C	1.183932	0.111529	0.119193
C57	C	0.725200	-0.336836	-0.330343
C58	C	1.225200	0.163164	0.169657
C59	C	0.683918	-0.285205	-0.279886
C60	C	1.183918	0.214795	0.220114
C61	C	0.601370	-0.285219	-0.279895
C62	C	1.101370	0.214781	0.220105
C63	C	0.807763	-0.440083	-0.431257
C64	C	1.307763	0.059917	0.068743
C65	C	0.807753	-0.336824	-0.330335
C66	C	1.307753	0.163176	0.169665
C67	C	1.142179	-0.597957	-0.380768
C68	C	1.642179	-0.097957	0.119232
C69	C	1.142219	-0.687578	-0.380780
C70	C	1.642219	-0.187578	0.119220
C71	C	1.142357	-1.015754	-0.380862
C72	C	1.642357	-0.515754	0.119138
C73	C	1.142316	-0.924445	-0.380842
C74	C	1.642316	-0.424445	0.119158
C75	C	1.142288	-0.851669	-0.380821
C76	C	1.642288	-0.351669	0.119179
C77	C	1.142248	-0.760355	-0.380801
C78	C	1.642248	-0.260355	0.119199
C79	C	1.348422	-0.388494	-0.380819
C80	C	1.848422	0.111506	0.119181
C81	C	1.436279	-0.388505	-0.380827
C82	C	1.936279	0.111495	0.119173
C83	C	1.142287	-0.388400	-0.586969
C84	C	1.642287	0.111600	-0.086969
C85	C	1.142301	-0.388371	-0.674826
C86	C	1.642301	0.111629	-0.174826
C87	C	1.142351	-0.178157	-0.380851
C88	C	1.642351	0.321843	0.119149
C89	C	1.142392	-0.088536	-0.380873
C90	C	1.642392	0.411464	0.119127
C91	C	1.091821	-0.439845	-1.046287
C92	C	1.591821	0.060155	-0.546287
C93	C	1.192969	-0.336727	-1.046316
C94	C	1.692969	0.163273	-0.546316
C95	C	1.192948	-0.336744	-0.963770
C96	C	1.692948	0.163256	-0.463770
C97	C	1.142364	-0.388313	-0.922479
C98	C	1.642364	0.111687	-0.422479
C99	C	1.091800	-0.439866	-0.963734
C100	C	1.591800	0.060134	-0.463734
C101	C	1.243517	-0.285199	-0.922509
C102	C	1.743517	0.214801	-0.422509
C103	C	1.243498	-0.285214	-0.839958
C104	C	1.743498	0.214786	-0.339958
C105	C	1.192909	-0.336780	-0.798666
C106	C	1.692909	0.163220	-0.298666
C107	C	1.142343	-0.388334	-0.839925
C108	C	1.642343	0.111666	-0.339925
C109	C	1.091758	-0.439903	-0.798634
C110	C	1.591758	0.060097	-0.298634
C111	C	1.041187	-0.491453	-0.839892
C112	C	1.541187	0.008547	-0.339892
C113	C	1.041211	-0.491431	-0.922441
C114	C	1.541211	0.008569	-0.422441
C115	C	1.192886	-0.336802	-0.716117
C116	C	1.692886	0.163198	-0.216117
C117	C	1.091737	-0.439923	-0.716080
C118	C	1.591737	0.060077	-0.216080
C119	C	1.142267	-0.388475	-0.175435
C120	C	1.642267	0.111525	0.324565
C121	C	1.142406	-0.388276	-0.087578
C122	C	1.642406	0.111724	0.412422
H123	H	0.841371	-0.482122	-0.472336
H124	H	1.341371	0.017878	0.027664
H125	H	1.284705	-0.243219	-0.956135
H126	H	1.784705	0.256781	-0.456135
C127	C	0.852698	-0.280792	-0.275629
C128	C	1.352698	0.219208	0.224371
C129	C	0.933827	-0.291818	-0.286430
C130	C	1.433827	0.208182	0.213570
C131	C	0.975254	-0.240209	-0.236057
C132	C	1.475254	0.259791	0.263943
H133	H	0.839241	-0.292474	-0.222469
H134	H	1.339241	0.207526	0.277531
H135	H	0.839232	-0.226616	-0.287304
H136	H	1.339232	0.273384	0.212696
H137	H	0.947287	-0.345982	-0.274749
H138	H	1.447287	0.154018	0.225251
H139	H	0.947308	-0.280131	-0.339579
H140	H	1.447308	0.219869	0.160421
H141	H	0.961788	-0.186032	-0.247732
H142	H	1.461788	0.313968	0.252268
H143	H	0.961791	-0.251895	-0.182900
H144	H	1.461791	0.248105	0.317100
H145	H	1.030304	-0.247677	-0.243383
H146	H	1.530304	0.252323	0.256617
C147	C	1.247687	-0.280707	-0.671363
C148	C	1.747687	0.219293	-0.171363
C149	C	1.230512	-0.200920	-0.691454
C150	C	1.730512	0.299080	-0.191454
C151	C	1.280973	-0.149220	-0.650235
C152	C	1.780973	0.350780	-0.150235
H153	H	1.300822	-0.292409	-0.684851
H154	H	1.800822	0.207591	-0.184851
H155	H	1.240422	-0.288049	-0.616279
H156	H	1.740422	0.211951	-0.116279
H157	H	1.237784	-0.193582	-0.746526
H158	H	1.737784	0.306418	-0.246526
H159	H	1.177386	-0.189194	-0.677964
H160	H	1.677386	0.310806	-0.177964
H161	H	1.273708	-0.156562	-0.595151
H162	H	1.773708	0.343438	-0.095151
H163	H	1.334105	-0.160929	-0.663726
H164	H	1.834105	0.339071	-0.163726
H165	H	1.269322	-0.095079	-0.663855
H166	H	1.769322	0.404921	-0.163855
H167	H	1.000041	-0.533403	-0.956041
H168	H	1.500041	-0.033403	-0.456041
C169	C	1.298297	-0.229100	-0.795218
C170	C	1.798297	0.270900	-0.295218
C171	C	1.281104	-0.149322	-0.815324
C172	C	1.781104	0.350678	-0.315324
C173	C	1.331558	-0.097601	-0.774120
C174	C	1.831558	0.402399	-0.274120
H175	H	1.351433	-0.240793	-0.808708
H176	H	1.851433	0.259207	-0.308708
H177	H	1.291038	-0.236432	-0.740132
H178	H	1.791038	0.263568	-0.240132
H179	H	1.288370	-0.141994	-0.870398
H180	H	1.788370	0.358006	-0.370398
H181	H	1.227977	-0.137603	-0.801832
H182	H	1.727977	0.362397	-0.301832
H183	H	1.324299	-0.104933	-0.719034
H184	H	1.824299	0.395067	-0.219034
H185	H	1.384691	-0.109302	-0.787613
H186	H	1.884691	0.390698	-0.287613
H187	H	1.319895	-0.043466	-0.787751
H188	H	1.819895	0.456534	-0.287751
C189	C	1.036790	-0.496009	-0.671395
C190	C	1.536790	0.003991	-0.171395
C191	C	0.992528	-0.541161	-0.725198
C192	C	1.492528	-0.041161	-0.225198
C193	C	0.941913	-0.592845	-0.684063
C194	C	1.441913	-0.092845	-0.184063
H195	H	1.002286	-0.465265	-0.639194
H196	H	1.502286	0.034735	-0.139194
H197	H	1.066991	-0.531197	-0.639205
H198	H	1.566991	-0.031197	-0.139205
H199	H	0.962329	-0.505978	-0.757375
H200	H	1.462329	-0.005978	-0.257375
H201	H	1.027011	-0.571922	-0.757401
H202	H	1.527011	-0.071922	-0.257401
H203	H	0.972114	-0.628033	-0.651873
H204	H	1.472114	-0.128033	-0.151873
H205	H	0.907414	-0.562095	-0.651863
H206	H	1.407414	-0.062095	-0.151863
H207	H	0.911880	-0.623493	-0.720562
H208	H	1.411880	-0.123493	-0.220562
C209	C	1.037004	-0.495782	-1.091219
C210	C	1.537004	0.004218	-0.591219
C211	C	1.047856	-0.484743	-1.172350
C212	C	1.547856	0.015257	-0.672350
C213	C	0.997380	-0.536265	-1.213766
C214	C	1.497380	-0.036265	-0.713766
H215	H	0.983866	-0.484029	-1.077785
H216	H	1.483866	0.015971	-0.577785
H217	H	1.048552	-0.549980	-1.077720
H218	H	1.548552	-0.049980	-0.577720
H219	H	1.036302	-0.430557	-1.185844
H220	H	1.536302	0.069443	-0.685844
H221	H	1.100983	-0.496502	-1.185807
H222	H	1.600983	0.003498	-0.685807
H223	H	1.008928	-0.590463	-1.200266
H224	H	1.508928	-0.090463	-0.700266
H225	H	0.944245	-0.524508	-1.200326
H226	H	1.444245	-0.024508	-0.700326
H227	H	1.004741	-0.528788	-1.268817
H228	H	1.504741	-0.028788	-0.768817
H229	H	1.234158	-0.294746	-1.079940
H230	H	1.734158	0.205254	-0.579940
H231	H	0.717529	-0.243167	-0.238795
H232	H	1.217529	0.256833	0.261205
C233	C	0.728619	-0.547816	-0.536598
C234	C	1.228619	-0.047816	-0.036598
C235	C	0.674808	-0.593023	-0.580806
C236	C	1.174808	-0.093023	-0.080806
C237	C	0.715934	-0.644682	-0.631370
C238	C	1.215934	-0.144682	-0.131370
H239	H	0.760810	-0.582977	-0.506388
H240	H	1.260810	-0.082977	-0.006388
H241	H	0.760818	-0.517026	-0.571133
H242	H	1.260818	-0.017026	-0.071133
H243	H	0.642622	-0.623811	-0.546275
H244	H	1.142622	-0.123811	-0.046275
H245	H	0.642615	-0.557884	-0.611031
H246	H	1.142615	-0.057884	-0.111031
H247	H	0.748133	-0.613892	-0.665905
H248	H	1.248133	-0.113892	-0.165905
H249	H	0.748124	-0.679837	-0.601154
H250	H	1.248124	-0.179837	-0.101154
H251	H	0.679430	-0.675356	-0.661376
H252	H	1.179430	-0.175356	-0.161376
H253	H	0.567751	-0.243185	-0.238815
H254	H	1.067751	0.256815	0.261185
H255	H	0.443932	-0.294831	-0.289285
H256	H	0.943932	0.205169	0.210715
H257	H	1.000005	-0.533444	-0.806262
H258	H	1.500005	-0.033444	-0.306262
C259	C	0.432619	-0.496101	-0.486038
C260	C	0.932619	0.003899	0.013962
C261	C	0.351491	-0.485050	-0.475257
C262	C	0.851491	0.014950	0.024743
C263	C	0.310061	-0.536591	-0.525695
C264	C	0.810061	-0.036591	-0.025695
H265	H	0.446039	-0.550293	-0.474427
H266	H	0.946039	-0.050293	0.025573
H267	H	0.446120	-0.484355	-0.539184
H268	H	0.946120	0.015645	-0.039184
H269	H	0.337996	-0.496801	-0.422123
H270	H	0.837996	0.003199	0.077877
H271	H	0.338048	-0.430869	-0.486875
H272	H	0.838048	0.069131	0.013125
H273	H	0.323561	-0.524845	-0.578840
H274	H	0.823561	-0.024845	-0.078840
H275	H	0.323487	-0.590780	-0.514078
H276	H	0.823487	-0.090780	-0.014078
H277	H	0.255011	-0.529095	-0.518392
H278	H	0.755011	-0.029095	-0.018392
H279	H	0.567788	-0.533790	-0.522810
H280	H	1.067788	-0.033790	-0.022810
