data_functionalizedCrystal
_audit_creation_method	'MofGen! by Chris Wilmer'
_symmetry_space_group_name_H-M	'P1'
_symmetry_Int_Tables_number	1
_symmetry_cell_setting	triclinic
loop_
_symmetry_equiv_pos_as_xyz
  x,y,z
_cell_length_a	10.685980
_cell_length_b	16.959453
_cell_length_c	10.686551
_cell_angle_alpha	85.591100
_cell_angle_beta	81.591741
_cell_angle_gamma	94.386467
loop_
_atom_site_label
_atom_site_type_symbol
_atom_site_fract_x
_atom_site_fract_y
_atom_site_fract_z
Zn1	Zn	1.995762	-0.177169	-0.866685
Zn2	Zn	2.495762	0.322831	-0.366685
Zn3	Zn	1.979318	-0.320365	-0.654406
Zn4	Zn	2.479318	0.179635	-0.154406
Zn5	Zn	1.767185	-0.199169	-0.638147
Zn6	Zn	2.267185	0.300831	-0.138147
Zn7	Zn	1.783441	-0.320288	-0.850316
Zn8	Zn	2.283441	0.179712	-0.350316
O9	O	1.881427	-0.254248	-0.752389
O10	O	2.381427	0.245752	-0.252389
O11	O	2.171215	-0.186989	-0.852180
O12	O	2.671215	0.313011	-0.352180
O13	O	1.937493	-0.313527	-0.474616
O14	O	2.437493	0.186473	0.025384
O15	O	1.797585	-0.085633	-0.668509
O16	O	2.297585	0.414367	-0.168509
O17	O	2.159134	-0.292195	-0.696220
O18	O	2.659134	0.207805	-0.196220
O19	O	1.965519	-0.069470	-0.836415
O20	O	2.465519	0.430530	-0.336415
O21	O	1.781640	-0.224485	-0.462671
O22	O	2.281640	0.275515	0.037329
O23	O	1.591707	-0.224410	-0.652637
O24	O	2.091707	0.275590	-0.152637
O25	O	1.825291	-0.292064	-1.030121
O26	O	2.325291	0.207936	-0.530121
O27	O	1.603650	-0.313396	-0.808517
O28	O	2.103650	0.186604	-0.308517
O29	O	1.981282	-0.186915	-1.042147
O30	O	2.481282	0.313085	-0.542147
O31	O	1.953256	-0.430971	-0.680348
O32	O	2.453256	0.069029	-0.180348
O33	O	1.809346	-0.430915	-0.824283
O34	O	2.309346	0.069085	-0.324283
C35	C	1.551620	-0.271283	-0.727037
C36	C	2.051620	0.228717	-0.227037
C37	C	1.410529	-0.278588	-0.716222
C38	C	1.910529	0.221412	-0.216222
C39	C	1.881317	-0.459622	-0.752334
C40	C	2.381317	0.040378	-0.252334
C41	C	1.881390	-0.547473	-0.752362
C42	C	2.381390	-0.047473	-0.252362
C43	C	1.968986	-0.910458	-0.839978
C44	C	2.468986	-0.410458	-0.339978
C45	C	1.794237	-0.927406	-0.665015
C46	C	2.294237	-0.427406	-0.165015
C47	C	1.794187	-0.844864	-0.664982
C48	C	2.294187	-0.344864	-0.164982
C49	C	1.881537	-0.795115	-0.752450
C50	C	2.381537	-0.295115	-0.252450
C51	C	1.968936	-0.827908	-0.839951
C52	C	2.468936	-0.327908	-0.339951
C53	C	1.706781	-0.812065	-0.577491
C54	C	2.206781	-0.312065	-0.077491
C55	C	1.706728	-0.729518	-0.577456
C56	C	2.206728	-0.229518	-0.077456
C57	C	1.794085	-0.679767	-0.664919
C58	C	2.294085	-0.179767	-0.164919
C59	C	1.881488	-0.712565	-0.752422
C60	C	2.381488	-0.212565	-0.252422
C61	C	1.968838	-0.662816	-0.839890
C62	C	2.468838	-0.162816	-0.339890
C63	C	2.056249	-0.695613	-0.927389
C64	C	2.556249	-0.195613	-0.427389
C65	C	2.056293	-0.778158	-0.927414
C66	C	2.556293	-0.278158	-0.427414
C67	C	1.794040	-0.597222	-0.664894
C68	C	2.294040	-0.097222	-0.164894
C69	C	1.968789	-0.580267	-0.839863
C70	C	2.468789	-0.080267	-0.339863
C71	C	2.212521	-0.237146	-0.777840
C72	C	2.712521	0.262854	-0.277840
C73	C	2.353614	-0.229859	-0.788686
C74	C	2.853614	0.270141	-0.288686
C75	C	1.906934	-0.237027	-1.083480
C76	C	2.406934	0.262973	-0.583480
C77	C	1.917804	-0.229688	-1.224571
C78	C	2.417804	0.270312	-0.724571
C79	C	1.881573	-0.048068	-0.752474
C80	C	2.381573	0.451932	-0.252474
C81	C	1.881636	0.039793	-0.752510
C82	C	2.381636	0.539793	-0.252510
C83	C	1.856091	-0.271341	-0.422591
C84	C	2.356091	0.228659	0.077409
C85	C	1.845467	-0.278444	-0.281519
C86	C	2.345467	0.221556	0.218481
H87	H	1.351312	-0.325899	-0.645898
H88	H	1.851312	0.174101	-0.145898
F89	F	2.061767	-0.527326	-0.932955
F90	F	2.561767	-0.027326	-0.432955
F91	F	1.431004	-0.168017	-0.880591
F92	F	1.931004	0.331983	-0.380591
H93	H	1.775225	-0.325802	-1.222336
H94	H	2.275225	0.174198	-0.722336
H95	H	2.127364	-0.655097	-0.998612
H96	H	2.627364	-0.155097	-0.498612
F97	F	2.149310	-0.813068	-1.020531
F98	F	2.649310	-0.313068	-0.520531
F99	F	2.062013	-0.945362	-0.933092
F100	F	2.562013	-0.445362	-0.433092
H101	H	1.723115	-0.967916	-0.593807
H102	H	2.223115	-0.467916	-0.093807
F103	F	1.613805	-0.865014	-0.484427
F104	F	2.113805	-0.365014	0.015573
F105	F	2.009636	-0.167790	-1.301932
F106	F	2.509636	0.332210	-0.801932
H107	H	1.635555	-0.702821	-0.506209
H108	H	2.135555	-0.202821	-0.006209
H109	H	1.722866	-0.570523	-0.593659
H110	H	2.222866	-0.070523	-0.093659
