data_functionalizedCrystal
_audit_creation_method	'MofGen! by Chris Wilmer'
_symmetry_space_group_name_H-M	'P1'
_symmetry_Int_Tables_number	1
_symmetry_cell_setting	triclinic
loop_
_symmetry_equiv_pos_as_xyz
  x,y,z
_cell_length_a	14.560438
_cell_length_b	27.440280
_cell_length_c	14.560438
_cell_angle_alpha	89.997191
_cell_angle_beta	60.000905
_cell_angle_gamma	59.995104
loop_
_atom_site_label
_atom_site_type_symbol
_atom_site_fract_x
_atom_site_fract_y
_atom_site_fract_z
Zr1	Zr	1.005210	0.469491	-0.120532
O2	O	1.196824	0.391672	-0.267173
O3	O	0.813605	0.493347	-0.075581
O4	O	1.005209	0.493344	-0.267182
O5	O	1.005218	0.391676	0.075568
O6	O	1.005198	0.573545	-0.267186
O7	O	1.005220	0.391674	-0.075572
O8	O	0.662453	0.573550	0.075552
O9	O	1.347962	0.391672	-0.267170
O10	O	0.892403	0.563374	-0.056411
O11	O	0.892410	0.503522	0.056387
O12	O	1.117999	0.503520	-0.169198
O13	O	1.118005	0.443668	-0.056400
Zr14	Zr	1.005188	0.597406	0.120513
Zr15	Zr	1.005192	0.597403	-0.120539
Zr16	Zr	1.005206	0.469494	0.120520
Zr17	Zr	1.246258	0.469491	-0.120528
Zr18	Zr	0.764140	0.597406	0.120509
O19	O	1.196793	0.573550	0.075562
O20	O	1.196798	0.573546	-0.267183
O21	O	1.196818	0.391677	0.075572
O22	O	0.813573	0.675225	0.267154
O23	O	0.813579	0.675220	-0.075591
O24	O	0.813599	0.493351	0.267164
O25	O	1.005180	0.675221	-0.075587
O26	O	1.005189	0.573553	0.267163
O27	O	1.005200	0.493351	0.267167
O28	O	1.005177	0.675223	0.075553
O29	O	1.347948	0.493345	-0.267176
O30	O	0.662450	0.573552	0.267157
O31	O	0.662436	0.675225	0.267151
O32	O	0.662439	0.675222	0.075547
O33	O	1.347959	0.391675	-0.075566
O34	O	1.347945	0.493347	-0.075571
O35	O	0.892399	0.563377	0.169179
O36	O	0.892393	0.623229	0.056381
O37	O	1.117988	0.563374	-0.056406
O38	O	1.117995	0.503523	0.056392
C39	C	0.703685	0.533448	-0.000015
C40	C	0.601354	0.533448	-0.000017
C41	C	0.553275	0.564689	-0.058897
C42	C	0.457115	0.564691	-0.058886
C43	C	0.457127	0.502207	0.058885
C44	C	0.553278	0.502209	0.058880
C45	C	1.005222	0.373451	-0.000001
C46	C	1.005229	0.319149	0.000002
C47	C	1.005180	0.084463	0.083279
C48	C	1.005183	0.135483	0.083281
O49	O	1.005139	0.161884	0.154116
N50	N	1.005194	0.160995	0.000011
C51	C	1.005189	0.135488	-0.083260
O52	O	1.005198	0.161873	-0.154087
C53	C	1.005177	0.084472	-0.083257
C54	C	1.005179	0.058959	0.000012
C55	C	1.005180	0.058950	0.166542
C56	C	1.005180	0.007934	0.166538
C57	C	1.005178	-0.017570	0.083271
C58	C	1.005178	0.007942	0.000008
C59	C	1.005162	0.058968	-0.166523
C60	C	1.005148	0.007949	-0.166512
C61	C	1.005150	-0.017564	-0.083243
C62	C	1.005176	-0.068578	-0.083262
N63	N	1.005164	-0.094090	0.000008
C64	C	1.005166	-0.068586	0.083275
C65	C	1.005213	0.242626	-0.083260
C66	C	1.005235	0.293638	-0.083269
C67	C	1.005226	0.293630	0.083274
C68	C	1.005214	0.242614	0.083277
C69	C	1.005202	0.217114	0.000010
C70	C	1.005165	-0.175725	0.083260
C71	C	1.005170	-0.226748	0.083246
C72	C	1.005171	-0.226733	-0.083293
C73	C	1.005174	-0.175717	-0.083283
C74	C	1.005166	-0.150213	0.000003
O75	O	1.005215	-0.095011	-0.154059
O76	O	1.005140	-0.094973	0.154098
C77	C	1.306713	0.533449	-0.000004
C78	C	1.409044	0.533449	-0.000002
C79	C	1.005204	0.533444	-0.301529
C80	C	1.005206	0.533443	-0.403862
C81	C	1.005176	0.693446	-0.000018
C82	C	1.005168	0.747748	-0.000021
C83	C	1.122962	0.502200	-0.510812
C84	C	1.122956	0.502207	-0.606961
C85	C	0.887427	0.564701	-0.489196
C86	C	0.887434	0.564697	-0.393049
C87	C	1.005194	0.533452	0.301510
C88	C	1.005192	0.533454	0.403843
C89	C	0.703662	0.693446	-0.000024
C90	C	0.601324	0.747748	-0.000029
C91	C	0.703680	0.533452	0.301504
C92	C	0.601347	0.533453	0.403835
C93	C	0.703657	0.693450	0.301496
C94	C	0.601317	0.747753	0.403824
C95	C	1.306741	0.373447	-0.301515
C96	C	1.409081	0.319144	-0.403843
C97	C	1.306735	0.373451	0.000005
C98	C	1.409074	0.319149	0.000009
C99	C	1.306718	0.533445	-0.301523
C100	C	1.409050	0.533443	-0.403854
C101	C	0.553270	0.742005	-0.058917
C102	C	0.457125	0.793022	-0.058944
C103	C	0.409029	0.849782	-0.000075
C104	C	0.457093	0.855523	0.058815
C105	C	0.553242	0.804507	0.058835
C106	C	0.553253	0.804502	0.392999
C107	C	0.457107	0.855530	0.489138
C108	C	0.409019	0.849809	0.596101
C109	C	0.457092	0.793054	0.606923
C110	C	0.553243	0.742027	0.510786
C111	C	1.457156	0.262395	-0.393018
C112	C	1.553333	0.211367	-0.489157
C113	C	1.601425	0.217088	-0.596120
C114	C	1.553346	0.273843	-0.606943
C115	C	1.457178	0.324870	-0.510805
C116	C	1.457138	0.324892	0.058888
C117	C	1.553310	0.273875	0.058888
C118	C	1.601409	0.217115	0.000016
C119	C	1.553341	0.211373	-0.058869
C120	C	1.457178	0.262390	-0.058876
C121	C	0.553264	0.564697	0.510787
C122	C	0.457120	0.564691	0.606934
C123	C	0.457149	0.502198	0.489164
C124	C	0.553297	0.502200	0.393020
H125	H	0.417973	0.476773	0.106836
F126	F	0.604444	0.468960	0.121558
F127	F	0.405889	0.915936	0.121466
H128	H	1.005175	-0.247520	0.151054
F129	F	0.405952	0.597940	-0.121556
F130	F	0.762093	0.597957	-0.477700
H131	H	0.417977	0.590132	0.694015
H132	H	0.592388	0.590143	0.519599
F133	F	0.604480	0.468942	0.279184
H134	H	0.592355	0.809191	0.106795
H135	H	1.592462	0.165160	-0.480323
H136	H	0.417975	0.901737	0.480306
F137	F	1.604540	0.279923	-0.720790
F138	F	0.604433	0.597938	-0.121576
F139	F	1.005157	-0.148590	0.171902
H140	H	1.592430	0.278562	0.106844
H141	H	0.592392	0.809172	0.305913
F142	F	1.703776	0.162775	-0.698430
H143	H	1.418036	0.371076	-0.519632
F144	F	1.005173	-0.019212	0.255168
F145	F	0.604380	0.681632	0.522324
F146	F	0.306684	0.904122	0.698411
F147	F	0.762095	0.597950	-0.279215
H148	H	1.418047	0.257706	-0.106818
F149	F	1.005214	0.215467	0.171904
H150	H	1.005177	0.079713	0.234353
F151	F	0.405901	0.786974	0.720771
F152	F	1.248289	0.468955	-0.720785
F153	F	1.405987	0.256292	-0.279189
F154	F	0.604443	0.681602	-0.121581
F155	F	1.405968	0.385295	0.121549
H156	H	1.679711	0.175579	0.000031
F157	F	0.405999	0.468939	0.477665
F158	F	1.005192	-0.148571	-0.171919
F159	F	1.604542	0.150961	-0.121518
H160	H	1.005225	0.314406	0.151076
H161	H	1.005254	0.314402	-0.151084
H162	H	1.005159	0.079734	-0.234327
F163	F	1.005131	-0.019186	-0.255137
F164	F	1.005213	0.215487	-0.171897
H165	H	1.218859	0.476752	-0.519622
F166	F	1.005174	-0.253885	-0.171910
H167	H	0.418003	0.788335	-0.106899
H168	H	0.330737	0.891318	-0.000100
