data_functionalizedCrystal
_audit_creation_method	'MofGen! by Chris Wilmer'
_symmetry_space_group_name_H-M	'P1'
_symmetry_Int_Tables_number	1
_symmetry_cell_setting	triclinic
loop_
_symmetry_equiv_pos_as_xyz
  x,y,z
_cell_length_a	12.759401
_cell_length_b	12.759399
_cell_length_c	12.759393
_cell_angle_alpha	89.971637
_cell_angle_beta	89.981504
_cell_angle_gamma	90.015692
loop_
_atom_site_label
_atom_site_type_symbol
_atom_site_fract_x
_atom_site_fract_y
_atom_site_fract_z
Zn1	Zn	-1.606249	0.418200	0.594005
Zn2	Zn	-1.606141	0.593919	0.418335
Zn3	Zn	-1.430551	0.418255	0.418344
Zn4	Zn	-1.430537	0.593838	0.593976
O5	O	-1.518370	0.506053	0.506165
O6	O	-1.753256	0.441520	0.570710
O7	O	-1.582809	0.570673	0.271315
O8	O	-1.453909	0.271226	0.441662
O9	O	-1.753176	0.570620	0.441646
O10	O	-1.582994	0.271186	0.570719
O11	O	-1.453804	0.441614	0.271322
O12	O	-1.283528	0.441535	0.441634
O13	O	-1.453885	0.570482	0.741001
O14	O	-1.283518	0.570536	0.570670
O15	O	-1.582980	0.441442	0.741022
O16	O	-1.582796	0.740929	0.441618
O17	O	-1.453780	0.740870	0.570661
C18	C	-1.245402	0.506033	0.506151
C19	C	-1.128626	0.506050	0.506169
C20	C	-1.518303	0.779020	0.506158
C21	C	-1.518371	0.895797	0.506191
C22	C	-1.518443	0.505947	0.780198
C23	C	-1.518475	0.505902	0.896975
C24	C	-1.792403	0.506073	0.506180
C25	C	-1.909180	0.506082	0.506186
C26	C	-1.073786	0.573328	0.573247
C27	C	-0.964062	0.573342	0.573259
C28	C	-0.964027	0.438796	0.439105
C29	C	-1.073749	0.438778	0.439100
C30	C	-1.128662	0.640600	0.640317
C31	C	-1.073823	0.707885	0.707399
C32	C	-0.964098	0.707898	0.707411
C33	C	-0.909214	0.640627	0.640340
C34	C	-1.585623	0.950655	0.439075
C35	C	-1.585686	1.060379	0.439114
C36	C	-1.451236	1.060377	0.573386
C37	C	-1.451179	0.950655	0.573352
C38	C	-1.652815	0.895797	0.371914
C39	C	-1.720072	0.950655	0.304792
C40	C	-1.720135	1.060379	0.304831
C41	C	-1.652941	1.115245	0.371991
C42	C	-1.518461	1.232019	0.506209
C43	C	-1.518491	1.115243	0.506263
C44	C	-1.518357	0.506083	0.233198
C45	C	-1.518529	0.505832	0.116421
C46	C	-1.585704	0.438704	0.951850
C47	C	-1.585729	0.438666	1.061574
C48	C	-1.451293	0.573033	1.061539
C49	C	-1.451263	0.573064	0.951817
C50	C	-1.652915	0.371541	0.897008
C51	C	-1.720150	0.304339	0.951883
C52	C	-1.720175	0.304301	1.061607
C53	C	-1.652965	0.371465	1.116456
H54	H	-1.218005	0.640599	0.640313
C55	C	-1.377316	0.646979	0.891446
H56	H	-1.386918	0.637369	0.818245
H57	H	-1.392665	0.717568	0.909410
H58	H	-1.306733	0.631582	0.909426
C59	C	-1.652984	0.371421	1.237150
H60	H	-1.603327	0.421042	1.261954
H61	H	-1.720780	0.389583	1.261980
H62	H	-1.634837	0.303608	1.261976
C63	C	-1.377380	0.646917	1.121871
H64	H	-1.387035	0.637281	1.195077
H65	H	-1.306788	0.631547	1.103893
H66	H	-1.392738	0.717516	1.103873
C67	C	-1.794113	1.120720	0.231003
H68	H	-1.834113	1.072331	0.190997
H69	H	-1.839895	1.163454	0.271240
H70	H	-1.753960	1.163591	0.185205
H71	H	-1.774864	0.249649	0.907217
H72	H	-1.774785	0.905977	0.250118
C73	C	-1.377209	0.890307	0.647182
H74	H	-1.337191	0.938692	0.687177
H75	H	-1.417361	0.847439	0.692974
H76	H	-1.331425	0.847570	0.606939
C77	C	-1.134190	0.781879	0.781168
H78	H	-1.207391	0.772246	0.771548
H79	H	-1.116243	0.766598	0.851788
H80	H	-1.116187	0.852455	0.765661
C81	C	-1.653016	1.235939	0.372037
H82	H	-1.702691	1.260755	0.322445
H83	H	-1.671159	1.260688	0.439860
H84	H	-1.585237	1.260832	0.353812
C85	C	-0.788520	0.640619	0.640377
H86	H	-0.763717	0.690318	0.689937
H87	H	-0.763737	0.572839	0.658664
H88	H	-0.763648	0.658712	0.572553
H89	H	-0.919451	0.762676	0.762040
C90	C	-1.794132	0.230391	1.121972
H91	H	-1.784522	0.239983	1.195173
H92	H	-1.864709	0.245790	1.103988
H93	H	-1.778782	0.159797	1.104004
H94	H	-0.919332	0.384028	0.384498
H95	H	-1.118401	0.383987	0.384487
C96	C	-1.652753	0.775104	0.371872
H97	H	-1.702405	0.750288	0.322268
H98	H	-1.584949	0.750353	0.353646
H99	H	-1.670884	0.750215	0.439681
H100	H	-1.396529	1.105058	0.628064
H101	H	-1.652904	0.371567	0.807665
