data_functionalizedCrystal
_audit_creation_method	'MofGen! by Chris Wilmer'
_symmetry_space_group_name_H-M	'P1'
_symmetry_Int_Tables_number	1
_symmetry_cell_setting	triclinic
loop_
_symmetry_equiv_pos_as_xyz
  x,y,z
_cell_length_a	16.109318
_cell_length_b	16.109301
_cell_length_c	14.048226
_cell_angle_alpha	89.992144
_cell_angle_beta	89.997121
_cell_angle_gamma	83.465022
loop_
_atom_site_label
_atom_site_type_symbol
_atom_site_fract_x
_atom_site_fract_y
_atom_site_fract_z
O1	O	1.103125	0.106938	-0.079084
O2	O	1.436458	0.440271	0.254249
O3	O	1.769792	0.773604	0.587582
O4	O	0.861065	0.120222	-0.079104
O5	O	1.194398	0.453555	0.254229
O6	O	1.527732	0.786888	0.587563
O7	O	0.988745	-0.007451	-0.079084
O8	O	1.322078	0.325882	0.254249
O9	O	1.655411	0.659216	0.587583
O10	O	0.975445	0.234610	-0.079105
O11	O	1.308779	0.567944	0.254229
O12	O	1.642112	0.901277	0.587562
O13	O	0.988729	-0.007458	0.079237
O14	O	1.322063	0.325875	0.412571
O15	O	1.655396	0.659208	0.745904
O16	O	0.861050	0.120214	0.079217
O17	O	1.194383	0.453548	0.412551
O18	O	1.527716	0.786881	0.745884
O19	O	1.103110	0.106930	0.079237
O20	O	1.436443	0.440263	0.412570
O21	O	1.769776	0.773597	0.745904
Zn22	Zn	0.982077	0.113571	0.104364
Zn23	Zn	1.315411	0.446904	0.437697
Zn24	Zn	1.648744	0.780238	0.771031
Zn25	Zn	0.982097	0.113581	-0.104231
Zn26	Zn	1.315431	0.446914	0.229102
Zn27	Zn	1.648764	0.780248	0.562435
O28	O	0.975430	0.234603	0.079217
O29	O	1.308763	0.567936	0.412550
O30	O	1.642097	0.901269	0.745883
C31	C	0.830083	0.119677	0.000054
C32	C	1.163416	0.453011	0.333387
C33	C	1.496749	0.786344	0.666721
C34	C	0.737788	0.118057	0.000047
C35	C	1.071122	0.451390	0.333380
C36	C	1.404455	0.784723	0.666714
C37	C	0.438723	0.112826	-0.086237
C38	C	0.772056	0.446159	0.247097
C39	C	1.105389	0.779492	0.580430
C40	C	0.525444	0.114343	-0.086243
C41	C	0.858777	0.447676	0.247091
C42	C	1.192111	0.781010	0.580424
C43	C	0.525446	0.114324	0.086368
C44	C	0.858779	0.447657	0.419701
C45	C	1.192113	0.780990	0.753035
C46	C	0.438727	0.112800	0.086373
C47	C	0.772061	0.446133	0.419706
C48	C	1.105394	0.779467	0.753039
C49	C	0.395367	0.112056	0.000068
C50	C	0.728701	0.445389	0.333401
C51	C	1.062034	0.778722	0.666734
C52	C	0.568807	0.115096	0.000057
C53	C	0.902141	0.448430	0.333390
C54	C	1.235474	0.781763	0.666723
C55	C	0.662835	0.116742	0.000051
C56	C	0.996168	0.450075	0.333384
C57	C	1.329501	0.783408	0.666718
C58	C	0.301334	0.110409	0.000073
C59	C	0.634668	0.443742	0.333406
C60	C	0.968001	0.777075	0.666740
C61	C	0.988198	-0.038430	0.000077
C62	C	1.321532	0.294904	0.333410
C63	C	1.654865	0.628237	0.666744
C64	C	0.986583	-0.130725	0.000078
C65	C	1.319916	0.202608	0.333412
C66	C	1.653250	0.535942	0.666745
C67	C	1.058590	-0.352993	0.000069
C68	C	1.391924	-0.019660	0.333402
C69	C	1.725257	0.313674	0.666736
C70	C	1.057066	-0.439713	0.000061
C71	C	1.390400	-0.106380	0.333394
C72	C	1.723733	0.226953	0.666728
C73	C	0.905579	-0.419848	0.000053
C74	C	1.238912	-0.086515	0.333386
C75	C	1.572245	0.246818	0.666719
C76	C	0.907104	-0.333130	0.000054
C77	C	1.240437	0.000204	0.333387
C78	C	1.573770	0.333537	0.666720
C79	C	0.983612	-0.299704	0.000067
C80	C	1.316945	0.033629	0.333400
C81	C	1.650279	0.366962	0.666733
C82	C	0.980563	-0.473144	0.000058
C83	C	1.313896	-0.139810	0.333391
C84	C	1.647230	0.193523	0.666724
C85	C	0.978910	-0.567170	0.000049
C86	C	1.312243	-0.233837	0.333382
C87	C	1.645577	0.099497	0.666716
C88	C	0.985265	-0.205672	0.000074
C89	C	1.318599	0.127661	0.333407
C90	C	1.651932	0.460994	0.666740
C91	C	1.134092	0.107474	0.000077
C92	C	1.467425	0.440808	0.333410
C93	C	1.800759	0.774141	0.666743
C94	C	1.226387	0.109095	0.000077
C95	C	1.559720	0.442429	0.333411
C96	C	1.893053	0.775762	0.666744
C97	C	0.975976	0.265581	0.000054
C98	C	1.309310	0.598915	0.333387
C99	C	1.642643	0.932248	0.666720
C100	C	0.977592	0.357877	0.000046
C101	C	1.310925	0.691210	0.333379
C102	C	1.644258	1.024543	0.666713
N103	N	0.982070	0.113564	0.246725
N104	N	1.315403	0.446897	0.580058
N105	N	1.648736	0.780230	0.913391
N106	N	0.982112	0.113582	-0.246592
N107	N	1.315445	0.446915	0.086741
N108	N	1.648778	0.780248	0.420075
C109	C	1.038624	0.057054	0.296552
C110	C	1.371957	0.390387	0.629885
C111	C	1.705290	0.723720	0.963218
C112	C	1.038629	0.057053	0.396209
C113	C	1.371963	0.390386	0.729543
C114	C	1.705296	0.723720	1.062876
C115	C	0.982084	0.113567	0.446038
C116	C	1.315417	0.446901	0.779371
C117	C	1.648751	0.780234	1.112705
C118	C	0.925524	0.170080	0.396204
C119	C	1.258857	0.503414	0.729538
C120	C	1.592190	0.836747	1.062871
C121	C	0.925515	0.170076	0.296548
C122	C	1.258848	0.503409	0.629882
C123	C	1.592182	0.836743	0.963215
C124	C	0.925548	0.170086	0.603918
C125	C	1.258881	0.503420	0.937252
C126	C	1.592214	0.836753	1.270585
C127	C	0.925558	0.170092	0.703581
C128	C	1.258891	0.503425	1.036915
C129	C	1.592224	0.836758	1.370248
C130	C	1.038662	0.057063	0.703579
C131	C	1.371996	0.390397	1.036913
C132	C	1.705329	0.723730	1.370246
C133	C	1.038653	0.057059	0.603923
C134	C	1.371987	0.390392	0.937257
C135	C	1.705320	0.723726	1.270590
C136	C	0.982094	0.113573	0.554096
C137	C	1.315427	0.446907	0.887430
C138	C	1.648761	0.780240	1.220763
H139	H	1.120888	-0.325781	0.000078
H140	H	1.454221	0.007552	0.333411
H141	H	1.787555	0.340885	0.666744
H142	H	1.118121	-0.483098	0.000061
H143	H	1.451455	-0.149765	0.333394
H144	H	1.784788	0.183569	0.666728
H145	H	0.843288	-0.447074	0.000044
H146	H	1.176622	-0.113741	0.333377
H147	H	1.509955	0.219592	0.666710
N148	N	0.864533	0.231029	0.449951
N149	N	1.197866	0.564363	0.783284
N150	N	1.531200	0.897696	1.116617
H151	H	0.896294	0.267857	0.491282
H152	H	1.229627	0.601190	0.824615
H153	H	1.562960	0.934524	1.157949
H154	H	0.828716	0.266771	0.403204
H155	H	1.162049	0.600104	0.736537
H156	H	1.495382	0.933438	1.069871
H157	H	0.846043	-0.289740	0.000049
H158	H	1.179377	0.043594	0.333382
H159	H	1.512710	0.376927	0.666716
H160	H	0.403422	0.112218	-0.156512
H161	H	0.736755	0.445552	0.176821
H162	H	1.070088	0.778885	0.510155
H163	H	0.560740	0.114969	-0.156521
H164	H	0.894074	0.448302	0.176813
H165	H	1.227407	0.781636	0.510146
H166	H	1.084673	0.011037	0.255987
H167	H	1.418006	0.344370	0.589321
H168	H	1.751340	0.677703	0.922654
H169	H	0.560760	0.114932	0.156634
H170	H	0.894094	0.448265	0.489968
H171	H	1.227427	0.781598	0.823301
N172	N	0.391959	0.111963	0.179463
N173	N	0.725292	0.445296	0.512796
N174	N	1.058626	0.778629	0.846130
H175	H	0.432657	0.112100	0.234134
H176	H	0.765991	0.445434	0.567467
H177	H	1.099324	0.778767	0.900801
H178	H	0.349612	0.163129	0.183507
H179	H	0.682945	0.496462	0.516840
H180	H	1.016278	0.829795	0.850174
H181	H	1.084680	0.011038	0.436778
H182	H	1.418013	0.344371	0.770111
H183	H	1.751346	0.677704	1.103445
H184	H	1.084701	0.011045	0.563353
H185	H	1.418034	0.344378	0.896686
H186	H	1.751367	0.677712	1.230020
H187	H	1.084715	0.011048	0.744154
H188	H	1.418048	0.344381	1.077488
H189	H	1.751381	0.677714	1.410821
N190	N	0.864579	0.231052	0.757329
N191	N	1.197912	0.564385	1.090662
N192	N	1.531246	0.897719	1.423996
H193	H	0.828746	0.266851	0.710644
H194	H	1.162079	0.600185	1.043977
H195	H	1.495412	0.933518	1.377311
H196	H	0.827844	0.199212	0.798699
H197	H	1.161177	0.532546	1.132032
H198	H	1.494511	0.865879	1.465366
N199	N	0.864550	0.231042	0.550171
N200	N	1.197883	0.564375	0.883504
N201	N	1.531217	0.897708	1.216837
H202	H	0.827746	0.199255	0.508838
H203	H	1.161080	0.532589	0.842171
H204	H	1.494413	0.865922	1.175504
H205	H	0.828788	0.266833	0.596915
H206	H	1.162121	0.600166	0.930249
H207	H	1.495455	0.933500	1.263582
H208	H	0.879462	0.216091	0.255980
H209	H	1.212795	0.549425	0.589314
H210	H	1.546128	0.882758	0.922647
