data_functionalizedCrystal
_audit_creation_method	'MofGen! by Chris Wilmer'
_symmetry_space_group_name_H-M	'P1'
_symmetry_Int_Tables_number	1
_symmetry_cell_setting	triclinic
loop_
_symmetry_equiv_pos_as_xyz
  x,y,z
_cell_length_a	10.685661
_cell_length_b	21.295417
_cell_length_c	10.686551
_cell_angle_alpha	94.411227
_cell_angle_beta	99.072622
_cell_angle_gamma	85.650573
loop_
_atom_site_label
_atom_site_type_symbol
_atom_site_fract_x
_atom_site_fract_y
_atom_site_fract_z
Zn1	Zn	1.995561	-0.293819	0.866096
Zn2	Zn	1.979078	-0.406599	0.653807
Zn3	Zn	1.766996	-0.293848	0.637621
Zn4	Zn	1.783217	-0.391549	0.849773
O5	O	1.881213	-0.346454	0.751824
O6	O	2.170999	-0.315066	0.851540
O7	O	1.937259	-0.397953	0.474029
O8	O	1.797425	-0.205756	0.667986
O9	O	2.158889	-0.397926	0.695572
O10	O	1.965351	-0.205735	0.835846
O11	O	1.781443	-0.315115	0.462138
O12	O	1.591524	-0.300521	0.652158
O13	O	1.825071	-0.372274	1.029568
O14	O	1.603441	-0.372302	0.808025
O15	O	1.981080	-0.300472	1.041561
O16	O	1.952987	-0.492690	0.679744
O17	O	1.809089	-0.481633	0.823720
C18	C	1.551427	-0.334782	0.726565
C19	C	1.410345	-0.329803	0.715789
C20	C	1.881046	-0.510002	0.751747
C21	C	1.881094	-0.579971	0.751766
C22	C	1.968491	-0.612766	0.839225
C23	C	1.968539	-0.678509	0.839260
C24	C	1.881200	-0.711456	0.751814
C25	C	1.793787	-0.678653	0.664348
C26	C	1.793734	-0.612910	0.664324
N27	N	1.863079	-0.818312	0.639993
N28	N	1.863137	-0.880765	0.640020
C29	C	1.881353	-0.909534	0.751883
N30	N	1.899534	-0.873491	0.863722
N31	N	1.899482	-0.811033	0.863694
C32	C	1.881248	-0.782742	0.751831
C33	C	1.968806	-1.013615	0.839386
C34	C	1.968844	-1.079358	0.839423
C35	C	1.794099	-1.079502	0.664500
C36	C	1.794055	-1.013758	0.664475
C37	C	1.881415	-0.980819	0.751917
C38	C	2.212287	-0.358172	0.777183
C39	C	2.353371	-0.363165	0.787989
C40	C	1.906724	-0.334691	1.082910
C41	C	1.917595	-0.329679	1.223999
C42	C	1.881417	-0.182267	0.751931
C43	C	1.881504	-0.112301	0.751977
C44	C	1.855875	-0.358128	0.422032
C45	C	1.845250	-0.362972	0.280963
H46	H	1.412526	-0.395533	0.858054
H47	H	1.351184	-0.297427	0.645731
N48	N	2.058144	-1.112859	0.928748
N49	N	2.135653	-1.153962	0.890353
H50	H	2.198727	-1.177623	0.953438
H51	H	1.722564	-0.586208	0.593103
N52	N	1.704791	-0.980246	0.575142
N53	N	1.704747	-0.921547	0.575140
H54	H	1.641693	-0.897878	0.512053
H55	H	2.039622	-0.585949	0.910428
N56	N	2.005752	-0.289108	1.298201
N57	N	2.121750	-0.297944	1.292453
H58	H	2.184012	-0.269291	1.344857
N59	N	2.057824	-0.712008	0.928610
N60	N	2.135812	-0.682590	1.006675
H61	H	2.198873	-0.706246	1.069779
H62	H	1.774999	-0.395312	1.221795
N63	N	1.704574	-0.712313	0.575040
N64	N	1.704633	-0.771011	0.575072
H65	H	1.641620	-0.794784	0.512000
N66	N	2.058045	-0.979973	0.928710
N67	N	2.136068	-1.009265	1.006803
H68	H	2.199096	-0.985508	1.069889
H69	H	1.722979	-1.106326	0.593307
