data_functionalizedCrystal
_audit_creation_method	'MofGen! by Chris Wilmer'
_symmetry_space_group_name_H-M	'P1'
_symmetry_Int_Tables_number	1
_symmetry_cell_setting	triclinic
loop_
_symmetry_equiv_pos_as_xyz
  x,y,z
_cell_length_a	14.044220
_cell_length_b	14.044220
_cell_length_c	12.503572
_cell_angle_alpha	93.835250
_cell_angle_beta	93.843168
_cell_angle_gamma	86.811122
loop_
_atom_site_label
_atom_site_type_symbol
_atom_site_fract_x
_atom_site_fract_y
_atom_site_fract_z
O1	O	0.225116	-1.282200	-0.089210
O2	O	0.216809	-1.005530	-0.089237
O3	O	0.082627	-1.139712	-0.089213
O4	O	0.359298	-1.148019	-0.089234
O5	O	0.092737	-1.129622	0.089427
O6	O	0.226918	-0.995440	0.089403
O7	O	0.235226	-1.272110	0.089430
Cu8	Cu	0.231995	-1.132854	0.105728
Cu9	Cu	0.220040	-1.144786	-0.105535
O10	O	0.369407	-1.137929	0.089406
C11	C	0.218228	-0.964864	0.000080
C12	C	0.207383	-0.858721	0.000070
C13	C	0.052060	-1.131031	0.000107
C14	C	-0.054082	-1.120187	0.000107
C15	C	0.233807	-1.312777	0.000111
C16	C	0.244651	-1.418920	0.000114
C17	C	-0.248421	-1.100361	0.000090
C18	C	-0.299551	-1.177275	0.000094
C19	C	-0.407687	-1.166244	0.000084
C20	C	-0.140274	-1.111391	0.000099
C21	C	0.399974	-1.146609	0.000084
C22	C	0.506117	-1.157454	0.000077
N23	N	0.240404	-1.124469	0.254319
C24	C	0.187558	-0.664382	0.000092
C25	C	0.264472	-0.613253	0.000091
C26	C	0.253441	-0.505116	0.000104
C27	C	0.198587	-0.772529	0.000080
N28	N	0.211624	-1.153179	-0.254126
C29	C	0.252782	-1.112134	0.473432
C30	C	0.199249	-1.165511	0.526768
C31	C	0.206136	-1.158648	0.648690
C32	C	0.245896	-1.118996	0.351499
H33	H	-0.262115	-1.251413	0.000029
C34	C	0.320665	-1.044175	0.534576
C35	C	0.295834	-0.950524	0.507349
C36	C	0.358337	-0.887898	0.563679
H37	H	0.384257	-1.060929	0.516257
H38	H	0.316301	-1.048455	0.609583
H39	H	0.300206	-0.946249	0.432358
H40	H	0.232252	-0.933741	0.525671
H41	H	0.353974	-0.892177	0.638687
H42	H	0.421926	-0.904660	0.545356
H43	H	0.341493	-0.824348	0.545222
C44	C	-0.298297	-1.001506	-0.000138
C45	C	-0.276906	-0.957238	-0.092057
C46	C	-0.322858	-0.866179	-0.092307
H47	H	-0.276878	-0.964175	0.062085
H48	H	-0.365406	-1.007101	-0.000199
H49	H	-0.209811	-0.951638	-0.091986
H50	H	-0.298327	-0.994541	-0.154295
H51	H	-0.389967	-0.871774	-0.092368
H52	H	-0.301435	-0.828856	-0.030079
H53	H	-0.308358	-0.836135	-0.154677
C54	C	0.363236	-0.663348	-0.000010
C55	C	0.354685	-0.762203	-0.000061
C56	C	0.445640	-0.808387	-0.000184
H57	H	0.400566	-0.642019	0.062256
H58	H	0.393402	-0.648959	-0.062343
H59	H	0.324534	-0.776585	0.062266
H60	H	0.317372	-0.783560	-0.062323
H61	H	0.475805	-0.793999	-0.062517
H62	H	0.482963	-0.787050	0.062084
H63	H	0.439850	-0.875465	-0.000228
H64	H	0.113431	-0.626945	0.000104
H65	H	0.148245	-1.216364	0.480864
