data_functionalizedCrystal
_audit_creation_method	'MofGen! by Chris Wilmer'
_symmetry_space_group_name_H-M	'P1'
_symmetry_Int_Tables_number	1
_symmetry_cell_setting	triclinic
loop_
_symmetry_equiv_pos_as_xyz
  x,y,z
_cell_length_a	12.759401
_cell_length_b	12.594516
_cell_length_c	12.759393
_cell_angle_alpha	89.970274
_cell_angle_beta	89.980324
_cell_angle_gamma	90.012242
loop_
_atom_site_label
_atom_site_type_symbol
_atom_site_fract_x
_atom_site_fract_y
_atom_site_fract_z
Zn1	Zn	1.606287	-0.423678	-0.593990
Zn2	Zn	2.106287	0.076322	-0.093990
Zn3	Zn	1.606187	-0.601694	-0.418313
Zn4	Zn	2.106187	-0.101694	0.081687
Zn5	Zn	1.430586	-0.423732	-0.418329
Zn6	Zn	1.930586	0.076268	0.081671
Zn7	Zn	1.430587	-0.601617	-0.593954
Zn8	Zn	1.930587	-0.101617	-0.093954
O9	O	1.518412	-0.512680	-0.506147
O10	O	2.018412	-0.012680	-0.006147
O11	O	1.753295	-0.447303	-0.570695
O12	O	2.253295	0.052697	-0.070695
O13	O	1.582851	-0.578142	-0.271294
O14	O	2.082851	-0.078142	0.228706
O15	O	1.453935	-0.274779	-0.441653
O16	O	1.953935	0.225221	0.058347
O17	O	1.753222	-0.578091	-0.441625
O18	O	2.253222	-0.078091	0.058375
O19	O	1.583022	-0.274740	-0.570711
O20	O	2.083022	0.225260	-0.070711
O21	O	1.453838	-0.447394	-0.271306
O22	O	1.953838	0.052606	0.228694
O23	O	1.283565	-0.447318	-0.441618
O24	O	1.783565	0.052682	0.058382
O25	O	1.453936	-0.577958	-0.740980
O26	O	1.953936	-0.077958	-0.240980
O27	O	1.283566	-0.578010	-0.570649
O28	O	1.783566	-0.078010	-0.070649
O29	O	1.583023	-0.447228	-0.741007
O30	O	2.083023	0.052772	-0.241007
O31	O	1.582852	-0.750630	-0.441590
O32	O	2.082852	-0.250630	0.058410
O33	O	1.453839	-0.750573	-0.570633
O34	O	1.953839	-0.250573	-0.070633
C35	C	1.245445	-0.512662	-0.506132
C36	C	1.745445	-0.012662	-0.006132
C37	C	1.128668	-0.512680	-0.506150
C38	C	1.628668	-0.012680	-0.006150
C39	C	1.073845	-0.444702	-0.573460
C40	C	1.573845	0.055298	-0.073460
C41	C	0.964121	-0.444713	-0.573467
C42	C	1.464121	0.055287	-0.073467
C43	C	0.964053	-0.580689	-0.438851
C44	C	1.464053	-0.080689	0.061149
C45	C	1.073775	-0.580672	-0.438840
C46	C	1.573775	-0.080672	0.061160
C47	C	1.518363	-0.789221	-0.506128
C48	C	2.018363	-0.289221	-0.006128
C49	C	1.518439	-0.907527	-0.506156
C50	C	2.018439	-0.407527	-0.006156
C51	C	1.588690	-0.976772	-0.436044
C52	C	2.088690	-0.476772	0.063956
C53	C	1.614368	-1.047465	-0.531937
C54	C	2.114368	-0.547465	-0.031937
C55	C	1.492893	-1.047632	-0.410324
C56	C	1.992893	-0.547632	0.089676
C57	C	1.544165	-0.976662	-0.602098
C58	C	2.044165	-0.476662	-0.102098
C59	C	1.422645	-0.976822	-0.480421
C60	C	1.922645	-0.476822	0.019579
C61	C	1.448286	-1.047484	-0.576380
C62	C	1.948286	-0.547484	-0.076380
C63	C	1.792445	-0.512700	-0.506162
C64	C	2.292445	-0.012700	-0.006162
C65	C	1.909222	-0.512708	-0.506169
C66	C	2.409222	-0.012708	-0.006169
C67	C	1.518491	-0.512578	-0.780180
C68	C	2.018491	-0.012578	-0.280180
C69	C	1.518524	-0.512535	-0.896957
C70	C	2.018524	-0.012535	-0.396957
C71	C	1.518489	-0.235059	-0.506188
C72	C	2.018489	0.264941	-0.006188
C73	C	1.518522	-0.116754	-0.506206
C74	C	2.018522	0.383246	-0.006206
C75	C	1.585744	-0.444452	-0.951834
C76	C	2.085744	0.055548	-0.451834
C77	C	1.585762	-0.444407	-1.061559
C78	C	2.085762	0.055593	-0.561559
C79	C	1.451336	-0.580534	-1.061518
C80	C	1.951336	-0.080534	-0.561518
C81	C	1.451314	-0.580574	-0.951796
C82	C	1.951314	-0.080574	-0.451796
C83	C	1.518394	-0.512705	-0.233179
C84	C	2.018394	-0.012705	0.266821
C85	C	1.518564	-0.512449	-0.116403
C86	C	2.018564	-0.012449	0.383597
H87	H	1.648109	-0.945723	-0.376807
H88	H	2.148109	-0.445723	0.123193
H89	H	1.396568	-0.636014	-0.907113
H90	H	1.896568	-0.136014	-0.407113
H91	H	0.919489	-0.389356	-0.628276
H92	H	1.419489	0.110644	-0.128276
H93	H	0.919345	-0.636046	-0.384050
H94	H	1.419345	-0.136046	0.115950
H95	H	1.118536	-0.389335	-0.628266
H96	H	1.618536	0.110665	-0.128266
F97	F	1.720303	-1.088009	-0.560439
F98	F	2.220303	-0.588009	-0.060439
F99	F	1.572587	-0.936093	-0.708084
F100	F	2.072587	-0.436093	-0.208084
F101	F	1.132125	-0.653018	-0.367186
F102	F	1.632125	-0.153018	0.132814
F103	F	1.370680	-1.087814	-0.653992
F104	F	1.870680	-0.587814	-0.153992
H105	H	1.341623	-0.945766	-0.458598
H106	H	1.841623	-0.445766	0.041402
F107	F	1.464605	-1.088379	-0.304369
F108	F	1.964605	-0.588379	0.195631
F109	F	1.657272	-0.372036	-0.893474
F110	F	2.157272	0.127964	-0.393474
F111	F	1.657314	-0.371951	-1.119959
F112	F	2.157314	0.128049	-0.619959
H113	H	1.396619	-0.635932	-1.106181
H114	H	1.896619	-0.135932	-0.606181
