data_functionalizedCrystal
_audit_creation_method	'MofGen! by Chris Wilmer'
_symmetry_space_group_name_H-M	'P1'
_symmetry_Int_Tables_number	1
_symmetry_cell_setting	triclinic
loop_
_symmetry_equiv_pos_as_xyz
  x,y,z
_cell_length_a	10.654550
_cell_length_b	18.266242
_cell_length_c	10.654550
_cell_angle_alpha	90.006150
_cell_angle_beta	84.484931
_cell_angle_gamma	90.005777
loop_
_atom_site_label
_atom_site_type_symbol
_atom_site_fract_x
_atom_site_fract_y
_atom_site_fract_z
O1	O	1.667849	0.060826	0.176401
O2	O	1.302371	0.060840	0.193207
O3	O	1.493513	0.060828	0.002065
O4	O	1.476707	0.060838	0.367543
O5	O	1.493480	-0.060934	0.002055
O6	O	1.302338	-0.060922	0.193197
O7	O	1.667816	-0.060936	0.176391
Zn8	Zn	1.485072	-0.080262	0.184792
Zn9	Zn	1.485115	0.080165	0.184806
O10	O	1.476674	-0.060924	0.367533
C11	C	1.255556	-0.000040	0.191968
C12	C	1.116113	-0.000035	0.188276
N13	N	1.485052	-0.189748	0.184782
C14	C	1.036628	-0.000034	0.300818
C15	C	0.905607	-0.000047	0.297341
C16	C	0.933570	-0.000058	0.068772
C17	C	1.064588	-0.000051	0.072250
C18	C	1.569718	-0.228062	0.100187
C19	C	1.569726	-0.304707	0.100181
C20	C	1.485080	-0.343035	0.184793
C21	C	1.400398	-0.304712	0.269395
C22	C	1.400384	-0.228069	0.269389
N23	N	1.470062	-0.463364	0.295783
N24	N	1.470083	-0.536172	0.295784
C25	C	1.485115	-0.573958	0.184811
N26	N	1.500151	-0.536184	0.073834
N27	N	1.500136	-0.463370	0.073834
C28	C	1.485085	-0.426142	0.184807
C29	C	1.569795	-0.695379	0.100202
C30	C	1.569794	-0.772025	0.100195
C31	C	1.400472	-0.772028	0.269419
C32	C	1.400466	-0.695384	0.269416
C33	C	1.485134	-0.657063	0.184809
C34	C	1.714631	-0.000055	0.177630
C35	C	1.854074	-0.000055	0.181322
C36	C	1.492263	-0.000053	-0.044738
C37	C	1.488571	-0.000051	-0.184181
N38	N	1.485145	0.189652	0.184806
C39	C	1.601112	-0.000055	-0.263667
C40	C	1.597636	-0.000046	-0.394688
C41	C	1.369066	-0.000032	-0.366725
C42	C	1.372544	-0.000036	-0.235706
C43	C	1.477925	-0.000042	0.414336
C44	C	1.481616	-0.000039	0.553779
H45	H	1.078574	-0.000026	0.395294
Br46	Br	1.172472	-0.000061	-0.080497
H47	H	1.695588	-0.000066	-0.221720
Br48	Br	1.285580	-0.824039	0.384237
H49	H	1.638733	-0.664177	0.031306
Br50	Br	1.285469	-0.176066	0.384205
H51	H	1.638673	-0.335908	0.031290
H52	H	0.891602	-0.000076	-0.025693
Br53	Br	1.684617	-0.176056	-0.014638
H54	H	1.331475	-0.335923	0.338285
Br55	Br	1.750378	-0.000047	-0.502558
H56	H	0.840894	-0.000047	0.388984
Br57	Br	1.684696	-0.824027	-0.014634
Br58	Br	1.211609	-0.000010	-0.436660
H59	H	1.331528	-0.664186	0.338307
H60	H	1.280893	-0.000031	-0.170985
