data_functionalizedCrystal
_audit_creation_method	'MofGen! by Chris Wilmer'
_symmetry_space_group_name_H-M	'P1'
_symmetry_Int_Tables_number	1
_symmetry_cell_setting	triclinic
loop_
_symmetry_equiv_pos_as_xyz
  x,y,z
_cell_length_a	19.188933
_cell_length_b	19.188930
_cell_length_c	14.750779
_cell_angle_alpha	77.396187
_cell_angle_beta	102.599826
_cell_angle_gamma	83.145175
loop_
_atom_site_label
_atom_site_type_symbol
_atom_site_fract_x
_atom_site_fract_y
_atom_site_fract_z
O1	O	0.910945	0.102365	-0.079807
O2	O	0.707632	0.114100	-0.079818
O3	O	0.815159	0.006573	-0.079793
O4	O	0.803418	0.209892	-0.079832
O5	O	0.845556	-0.023820	0.079864
O6	O	0.738029	0.083707	0.079840
O7	O	0.941342	0.071972	0.079850
Zn8	Zn	0.844511	0.073014	0.105194
Zn9	Zn	0.804462	0.113058	-0.105161
O10	O	0.833814	0.179498	0.079826
C11	C	0.696819	0.098523	0.000010
C12	C	0.619314	0.097383	0.000007
C13	C	0.049492	0.105802	-0.087011
C14	C	0.122315	0.106871	-0.087014
C15	C	0.175301	0.090841	0.000014
C16	C	0.155462	0.073723	0.087053
C17	C	0.082640	0.072648	0.087055
N18	N	0.296653	0.119930	0.064786
N19	N	0.365829	0.120954	0.064779
C20	C	0.394710	0.094079	0.000015
N21	N	0.351798	0.066153	-0.064755
N22	N	0.282614	0.065132	-0.064751
C23	C	0.254266	0.092005	0.000022
C24	C	0.493506	0.112350	-0.087023
C25	C	0.566333	0.113414	-0.087023
C26	C	0.599477	0.080272	0.087047
C27	C	0.526653	0.079202	0.087045
C28	C	0.473671	0.095245	0.000008
C29	C	0.829978	-0.034635	0.000038
C30	C	0.828839	-0.112141	0.000046
C31	C	0.891931	-0.157066	0.000054
C32	C	0.890857	-0.229887	0.000038
C33	C	0.826690	-0.257783	0.000035
C34	C	0.763588	-0.212847	0.000021
C35	C	0.764663	-0.140026	0.000027
N36	N	0.787987	-0.376131	0.054366
N37	N	0.786971	-0.445309	0.054363
C38	C	0.823448	-0.477188	0.000015
N39	N	0.860993	-0.437279	-0.054317
N40	N	0.862012	-0.368096	-0.054310
C41	C	0.825517	-0.336744	0.000028
C42	C	0.885379	-0.601074	0.000005
C43	C	0.884301	-0.673895	-0.000017
C44	C	0.757032	-0.656856	-0.000024
C45	C	0.758111	-0.584035	-0.000013
C46	C	0.822287	-0.556149	0.000006
C47	C	0.952154	0.087549	0.000020
C48	C	1.029658	0.088691	0.000017
C49	C	0.818995	0.220707	-0.000008
C50	C	0.820133	0.298214	-0.000022
N51	N	0.871849	0.045684	0.248756
N52	N	0.777131	0.140382	-0.248723
C53	C	0.700781	0.216679	0.600535
C54	C	0.719942	0.197533	0.701039
C55	C	0.815177	0.102353	0.701023
C56	C	0.796022	0.121489	0.600517
C57	C	0.738823	0.178653	0.550281
C58	C	0.834064	0.083463	0.550264
C59	C	0.814912	0.102600	0.449767
C60	C	0.757718	0.159763	0.399524
C61	C	0.719672	0.197790	0.449785
C62	C	0.891265	0.026302	0.600501
C63	C	0.929308	-0.011724	0.550247
C64	C	0.910153	0.007410	0.449749
C65	C	0.852958	0.064573	0.399506
C66	C	0.948199	-0.030617	0.399488
C67	C	0.929047	-0.011480	0.298991
C68	C	0.833806	0.083710	0.299009
H69	H	0.006357	0.118863	-0.157884
H70	H	0.582478	0.127344	-0.157894
H71	H	0.642618	0.067218	0.157908
F72	F	0.953681	-0.571395	0.000029
H73	H	0.673090	0.244334	0.408881
H74	H	0.198608	0.060670	0.157913
F75	F	0.505543	0.060998	0.179673
H76	H	0.975881	-0.058266	0.591161
F77	F	0.679447	0.238013	0.754516
H78	H	0.450366	0.125411	-0.157894
H79	H	0.960026	-0.042445	0.258074
F80	F	0.960230	-0.127389	0.000053
H81	H	0.994775	-0.077156	0.440403
F82	F	0.958010	-0.277708	0.000045
H83	H	0.711343	-0.235565	0.000016
H84	H	0.713284	-0.103448	0.000021
H85	H	0.138467	0.120810	-0.157885
H86	H	0.935679	-0.710472	-0.000016
H87	H	0.706735	-0.547456	-0.000013
H88	H	0.654200	0.263223	0.559631
H89	H	0.066494	0.058716	0.157925
F90	F	0.772922	0.144545	0.245542
F91	F	0.737338	0.180133	0.292565
H92	H	0.704786	-0.679567	-0.000032
H93	H	0.861751	0.055811	0.741936
H94	H	0.906859	0.010725	0.682332
