data_functionalizedCrystal
_audit_creation_method	'MofGen! by Chris Wilmer'
_symmetry_space_group_name_H-M	'P1'
_symmetry_Int_Tables_number	1
_symmetry_cell_setting	triclinic
loop_
_symmetry_equiv_pos_as_xyz
  x,y,z
_cell_length_a	12.759401
_cell_length_b	25.639240
_cell_length_c	12.759393
_cell_angle_alpha	90.044235
_cell_angle_beta	90.018496
_cell_angle_gamma	90.032919
loop_
_atom_site_label
_atom_site_type_symbol
_atom_site_fract_x
_atom_site_fract_y
_atom_site_fract_z
Zn1	Zn	1.606124	-0.208118	0.593889
Zn2	Zn	1.605962	-0.295564	0.418170
Zn3	Zn	1.430425	-0.208145	0.418228
Zn4	Zn	1.430359	-0.295524	0.593812
O5	O	1.518218	-0.251838	0.506025
O6	O	1.753123	-0.219723	0.570587
O7	O	1.582638	-0.283996	0.271157
O8	O	1.453828	-0.134976	0.441587
O9	O	1.753005	-0.283970	0.441488
O10	O	1.582912	-0.134956	0.570644
O11	O	1.453671	-0.219770	0.271199
O12	O	1.283396	-0.219731	0.441512
O13	O	1.453714	-0.283901	0.740843
O14	O	1.283347	-0.283928	0.570512
O15	O	1.582847	-0.219684	0.740900
O16	O	1.582573	-0.368724	0.441413
O17	O	1.453558	-0.368695	0.570456
C18	C	1.245250	-0.251828	0.506010
C19	C	1.128474	-0.251837	0.506029
C20	C	1.073614	-0.285318	0.573089
C21	C	0.963889	-0.285324	0.573100
C22	C	0.963895	-0.218368	0.438984
C23	C	1.073617	-0.218359	0.438978
C24	C	1.128470	-0.318796	0.640139
C25	C	1.073610	-0.352280	0.707203
C26	C	0.963886	-0.352286	0.707215
C27	C	0.909022	-0.318809	0.640162
C28	C	1.518069	-0.387680	0.505942
C29	C	1.518102	-0.445795	0.505942
C30	C	1.585465	-0.806109	0.573346
C31	C	1.585496	-0.860713	0.573367
O32	O	1.642595	-0.888908	0.630592
N33	N	1.518363	-0.888077	0.506126
C34	C	1.451188	-0.860834	0.438867
O35	O	1.394088	-0.889123	0.381676
C36	C	1.451152	-0.806230	0.438852
C37	C	1.518297	-0.778869	0.506090
C38	C	1.652604	-0.778747	0.640579
C39	C	1.652574	-0.724147	0.640556
C40	C	1.585406	-0.696907	0.573300
C41	C	1.518267	-0.724269	0.506067
C42	C	1.383972	-0.778988	0.371598
C43	C	1.383941	-0.724381	0.371590
C44	C	1.451086	-0.697020	0.438828
C45	C	1.451069	-0.642429	0.438787
N46	N	1.518202	-0.615065	0.506028
C47	C	1.585370	-0.642304	0.573285
C48	C	1.451266	-0.975504	0.438905
C49	C	1.451306	-1.030107	0.438915
C50	C	1.585614	-1.029982	0.573417
C51	C	1.585578	-0.975379	0.573401
C52	C	1.518399	-0.948140	0.506146
C53	C	1.585303	-0.527639	0.573231
C54	C	1.585270	-0.473034	0.573199
C55	C	1.450959	-0.473163	0.438701
C56	C	1.450995	-0.527764	0.438729
C57	C	1.518171	-0.555000	0.506002
O58	O	1.393996	-0.614199	0.381595
O59	O	1.642450	-0.614008	0.630476
C60	C	1.792251	-0.251848	0.506040
C61	C	1.909027	-0.251852	0.506046
C62	C	1.518291	-0.251785	0.780058
C63	C	1.518323	-0.251763	0.896835
C64	C	1.518395	-0.115465	0.506130
C65	C	1.518471	-0.057351	0.506175
C66	C	1.518205	-0.251853	0.233057
C67	C	1.518377	-0.251728	0.116281
C68	C	1.585572	-0.218322	0.951728
C69	C	1.585597	-0.218303	1.061452
C70	C	1.451120	-0.285170	1.061380
C71	C	1.451091	-0.285186	0.951658
C72	C	1.652803	-0.184898	0.896905
C73	C	1.720059	-0.151455	0.951798
C74	C	1.720084	-0.151436	1.061523
C75	C	1.652853	-0.184860	1.116353
H76	H	0.919216	-0.191112	0.384392
H77	H	1.118287	-0.379532	0.761802
C78	C	1.377142	-0.557862	0.364759
C79	C	1.294645	-0.595409	0.410226
C80	C	1.220782	-0.625501	0.336262
C81	C	1.229417	-0.618047	0.216830
C82	C	1.311917	-0.580498	0.171357
C83	C	1.385780	-0.550406	0.245321
H84	H	1.288250	-0.600929	0.498642
H85	H	1.159710	-0.653297	0.369925
H86	H	1.174739	-0.640323	0.162078
H87	H	1.318312	-0.574979	0.082941
H88	H	1.446853	-0.522610	0.211658
C89	C	0.903537	-0.389115	0.780985
C90	C	0.963882	-0.425937	0.854736
C91	C	0.903536	-0.462769	0.928506
C92	C	0.782846	-0.462779	0.928524
C93	C	0.722495	-0.425955	0.854770
C94	C	0.782841	-0.389124	0.781001
H95	H	1.053230	-0.425931	0.854725
H96	H	0.948212	-0.490028	0.983103
H97	H	0.738174	-0.490044	0.983132
H98	H	0.633147	-0.425961	0.854781
H99	H	0.738164	-0.361865	0.726403
H100	H	1.396641	-1.052380	0.384151
H101	H	1.329295	-0.801257	0.316846
C102	C	1.133978	-0.181531	0.365216
C103	C	1.209459	-0.140507	0.410912
C104	C	1.269823	-0.103677	0.337154
C105	C	1.254706	-0.107871	0.217700
C106	C	1.179222	-0.148897	0.171997
C107	C	1.118857	-0.185727	0.245755
H108	H	1.220653	-0.137401	0.499345
H109	H	1.325702	-0.073307	0.370987
H110	H	1.299391	-0.080608	0.163100
H111	H	1.168028	-0.152004	0.083564
H112	H	1.062979	-0.216097	0.211922
H113	H	1.396384	-0.312383	1.106032
C114	C	1.377074	-0.443193	0.364724
C115	C	1.303213	-0.473283	0.290762
C116	C	1.229321	-0.443312	0.216791
C117	C	1.229289	-0.383251	0.216782
C118	C	1.303152	-0.353157	0.290747
C119	C	1.377045	-0.383128	0.364718
H120	H	1.303234	-0.517748	0.290767
H121	H	1.174643	-0.465590	0.162038
H122	H	1.174590	-0.361064	0.162024
H123	H	1.303131	-0.308693	0.290742
H124	H	1.431723	-0.360851	0.419471
C125	C	1.377130	-0.321973	0.891256
C126	C	1.257700	-0.317704	0.906321
C127	C	1.183738	-0.354489	0.845912
C128	C	1.229206	-0.395544	0.770439
C129	C	1.348642	-0.399814	0.755370
C130	C	1.422603	-0.363029	0.815779
H131	H	1.224037	-0.287312	0.962194
H132	H	1.095324	-0.351328	0.857067
H133	H	1.174455	-0.422774	0.725721
H134	H	1.382305	-0.430207	0.699497
H135	H	1.511018	-0.366190	0.804624
H136	H	0.819677	-0.318813	0.640186
H137	H	1.639951	-0.450758	0.627952
H138	H	1.640304	-1.052170	0.628182
C139	C	1.794007	-0.114688	0.891490
C140	C	1.793987	-0.114707	0.770800
C141	C	1.867936	-0.077940	0.710495
C142	C	1.941906	-0.041153	0.770879
C143	C	1.941928	-0.041132	0.891576
C144	C	1.867979	-0.077900	0.951882
H145	H	1.739228	-0.141941	0.726094
H146	H	1.867919	-0.077955	0.621147
H147	H	1.996647	-0.013935	0.726238
H148	H	1.996687	-0.013899	0.936283
H149	H	1.867996	-0.077884	1.041230
H150	H	1.774838	-0.124201	1.106214
H151	H	1.652867	-0.184836	1.205698
H152	H	1.639996	-0.549809	0.628018
H153	H	1.217813	-0.318795	0.640136
H154	H	1.707246	-0.701872	0.695310
H155	H	1.707300	-0.800920	0.695354
H156	H	1.640253	-0.953104	0.628153
C157	C	1.377375	-0.945545	0.364905
C158	C	1.386030	-0.953110	0.245481
C159	C	1.312140	-0.923154	0.171483
C160	C	1.229595	-0.885633	0.216909
C161	C	1.220936	-0.878066	0.336339
C162	C	1.294827	-0.908022	0.410337
H163	H	1.447139	-0.980887	0.211849
H164	H	1.318550	-0.928756	0.083073
H165	H	1.174897	-0.863458	0.162131
H166	H	1.159828	-0.850290	0.369971
H167	H	1.288417	-0.902421	0.498747
H168	H	1.329233	-0.702207	0.316824
H169	H	1.652793	-0.184911	0.807562
