data_functionalizedCrystal
_audit_creation_method	'MofGen! by Chris Wilmer'
_symmetry_space_group_name_H-M	'P1'
_symmetry_Int_Tables_number	1
_symmetry_cell_setting	triclinic
loop_
_symmetry_equiv_pos_as_xyz
  x,y,z
_cell_length_a	14.908571
_cell_length_b	16.994746
_cell_length_c	14.908308
_cell_angle_alpha	86.704843
_cell_angle_beta	89.824947
_cell_angle_gamma	86.707907
loop_
_atom_site_label
_atom_site_type_symbol
_atom_site_fract_x
_atom_site_fract_y
_atom_site_fract_z
Zn1	Zn	1.345367	-0.411654	0.587812
Zn2	Zn	1.353969	-0.536423	0.437522
Zn3	Zn	1.203680	-0.396503	0.428801
Zn4	Zn	1.194997	-0.535486	0.579173
O5	O	1.274503	-0.470016	0.508327
O6	O	1.472335	-0.434938	0.575140
O7	O	1.341267	-0.511914	0.310537
O8	O	1.222509	-0.288131	0.449860
O9	O	1.478655	-0.526605	0.464723
O10	O	1.326606	-0.299263	0.566684
O11	O	1.230850	-0.409115	0.304130
O12	O	1.076701	-0.408206	0.441483
O13	O	1.207710	-0.525008	0.706147
O14	O	1.070321	-0.510316	0.551961
O15	O	1.318186	-0.434029	0.712494
O16	O	1.332847	-0.646680	0.456346
O17	O	1.216051	-0.645991	0.560417
C18	C	1.040885	-0.457516	0.494839
C19	C	0.940941	-0.452188	0.489090
C20	C	1.274451	-0.674957	0.508388
C21	C	1.274459	-0.764279	0.508396
Zn22	Zn	1.203836	-1.027568	0.428655
Zn23	Zn	1.354104	-0.903674	0.437630
Zn24	Zn	1.345279	-1.042740	0.587884
Zn25	Zn	1.194913	-0.902883	0.579036
O26	O	1.274533	-0.969216	0.508301
O27	O	1.231198	-1.005115	0.304029
O28	O	1.478749	-0.928803	0.465020
O29	O	1.326557	-1.151108	0.566709
O30	O	1.341598	-0.914091	0.310623
O31	O	1.222640	-1.139961	0.449724
O32	O	1.472265	-1.030974	0.575411
O33	O	1.317904	-1.030206	0.712527
O34	O	1.070281	-0.912741	0.551628
O35	O	1.207431	-0.927453	0.706026
O36	O	1.076837	-1.004347	0.441144
O37	O	1.332946	-0.793189	0.456441
O38	O	1.215989	-0.792607	0.560331
C39	C	0.746551	-0.548654	0.593173
C40	C	0.652644	-0.543650	0.587774
C41	C	0.659220	-0.437175	0.472899
C42	C	0.753127	-0.442179	0.478298
C43	C	0.796789	-0.497920	0.538436
C44	C	0.890697	-0.502927	0.543829
C45	C	0.897271	-0.396449	0.428959
C46	C	0.803364	-0.391445	0.423561
C47	C	1.509033	-0.482566	0.521868
C48	C	1.608976	-0.487914	0.527639
C49	C	1.261020	-0.481104	0.742858
C50	C	1.255274	-0.485829	0.842802
C51	C	1.274560	-0.264276	0.508260
C52	C	1.274588	-0.174954	0.508232
C53	C	1.287986	-0.458918	0.274711
C54	C	1.293906	-0.453980	0.174778
C55	C	1.359514	-0.399953	1.037216
C56	C	1.354118	-0.404390	1.131122
C57	C	1.239083	-0.499135	1.124521
C58	C	1.244479	-0.494698	1.030615
C59	C	1.304697	-0.445106	0.986966
C60	C	1.310097	-0.440674	0.893059
C61	C	1.195058	-0.535414	0.886459
C62	C	1.189662	-0.539851	0.980364
C63	C	1.260741	-0.980390	0.741899
C64	C	1.254820	-0.985150	0.841832
C65	C	1.040024	-0.956763	0.494398
C66	C	0.940090	-0.951457	0.488474
C67	C	1.288378	-0.957999	0.273791
C68	C	1.294278	-0.953218	0.173857
C69	C	1.508133	-0.981674	0.522099
C70	C	1.608076	-0.987193	0.527852
C71	C	1.194605	-0.933812	0.885362
C72	C	1.189024	-0.938283	0.979259
C73	C	1.243662	-0.994089	1.029624
C74	C	1.303879	-1.045432	0.986088
C75	C	1.309456	-1.040964	0.892193
C76	C	0.896569	-0.996665	0.428168
C77	C	0.802671	-0.991695	0.422601
C78	C	0.752296	-0.941512	0.477337
C79	C	0.795823	-0.896302	0.537649
C80	C	0.889720	-0.901277	0.543220
C81	C	1.354566	-1.004477	0.130306
C82	C	1.360110	-1.000002	0.036407
C83	C	1.305369	-0.944263	-0.013939
C84	C	1.245073	-0.893002	0.029617
C85	C	1.239526	-0.897482	0.123514
C86	C	1.651870	-0.941719	0.587679
C87	C	1.745776	-0.946905	0.593103
C88	C	1.795888	-0.997561	0.538693
C89	C	1.752088	-1.043040	0.478863
C90	C	1.658182	-1.037858	0.473445
H91	H	0.926245	-0.548316	0.592795
H92	H	0.611744	-0.584961	0.632348
O93	O	1.141426	-0.879581	0.836582
C94	C	1.026933	-0.773764	0.839748
C95	C	1.087102	-0.835153	0.895092
H96	H	0.983010	-0.737816	0.887031
H97	H	0.982419	-0.805288	0.793001
H98	H	1.070879	-0.732703	0.798234
H99	H	1.043225	-0.876232	0.936659
H100	H	1.131621	-0.803578	0.941782
H101	H	0.767244	-1.028510	0.373486
H102	H	1.872351	-1.001770	0.543110
O103	O	1.418738	-1.049684	-0.005987
C104	C	1.546436	-1.061682	-0.104746
C105	C	1.480087	-1.005330	-0.056808
H106	H	1.596064	-1.025845	-0.145831
H107	H	1.507832	-1.098635	-0.151223
H108	H	1.584569	-1.102296	-0.052612
H109	H	1.441936	-0.964667	-0.108878
H110	H	1.518741	-0.968432	-0.010314
O111	O	0.946207	-0.347200	0.375875
C112	C	1.093791	-0.307759	0.333229
C113	C	1.038480	-0.363562	0.393415
H114	H	1.168405	-0.320979	0.347375
H115	H	1.074491	-0.243928	0.348047
H116	H	1.079418	-0.317095	0.259652
H117	H	1.052824	-0.354297	0.467012
H118	H	1.057789	-0.427373	0.378520
H119	H	1.140632	-0.580226	1.015916
O120	O	1.141842	-0.579201	0.837507
C121	C	1.099219	-0.614402	0.689918
C122	C	1.159516	-0.564756	0.745244
H123	H	1.113500	-0.602754	0.615314
H124	H	1.025639	-0.597544	0.704120
H125	H	1.113922	-0.679715	0.709374
H126	H	1.144891	-0.499430	0.725821
H127	H	1.233076	-0.581681	0.731037
O128	O	0.945447	-1.045535	0.375092
C129	C	0.976761	-1.179149	0.333074
C130	C	0.921370	-1.123887	0.393247
H131	H	0.957301	-1.242505	0.347717
H132	H	1.051360	-1.175017	0.347411
H133	H	0.962582	-1.160819	0.259493
H134	H	0.935472	-1.142179	0.466848
H135	H	0.846788	-1.128026	0.378834
H136	H	1.309894	-0.940625	-0.090396
O137	O	1.418030	-0.351720	0.994951
C138	C	1.531609	-0.258259	1.011409
C139	C	1.465363	-0.312836	1.059385
H140	H	1.569908	-0.226819	1.063483
H141	H	1.492908	-0.212678	0.965075
H142	H	1.581101	-0.294923	0.970144
H143	H	1.415856	-0.276236	1.100699
H144	H	1.504122	-0.358419	1.105666
O145	O	1.238170	-0.998543	1.120830
C146	C	1.207026	-1.079304	1.254198
C147	C	1.213192	-1.074370	1.150907
H148	H	1.186850	-1.140610	1.278548
H149	H	1.154573	-1.033067	1.276703
H150	H	1.275163	-1.067897	1.283817
H151	H	1.145097	-1.085795	1.121214
H152	H	1.265689	-1.120596	1.128466
H153	H	1.611081	-0.900465	0.631985
O154	O	1.407874	-1.058591	0.179110
C155	C	1.559124	-1.106365	0.216922
C156	C	1.498860	-1.045039	0.161595
H157	H	1.632698	-1.095419	0.202795
H158	H	1.544513	-1.168260	0.197480
H159	H	1.544767	-1.100782	0.291510
H160	H	1.513183	-1.050549	0.086993
H161	H	1.513482	-0.983169	0.181112
O162	O	0.661085	-0.936535	0.471914
C163	C	0.527668	-0.852684	0.440784
C164	C	0.630962	-0.858203	0.446919
H165	H	0.503282	-0.789361	0.420556
H166	H	0.498011	-0.870976	0.508885
H167	H	0.505242	-0.893651	0.388301
H168	H	0.653466	-0.817237	0.499361
H169	H	0.660559	-0.839941	0.378781
H170	H	1.781424	-0.909866	0.641822
H171	H	1.348362	-1.090869	1.027109
H172	H	1.139989	-0.896469	1.014692
H173	H	0.623654	-0.391789	0.423944
O174	O	0.932132	-0.857432	0.601776
C175	C	1.073741	-0.822758	0.661310
C176	C	1.025830	-0.872473	0.594968
H177	H	1.149503	-0.834888	0.655816
H178	H	1.051067	-0.839101	0.732731
H179	H	1.056114	-0.757430	0.644453
H180	H	1.043434	-0.937814	0.611743
H181	H	1.048506	-0.856064	0.523567
H182	H	1.358495	-1.082768	0.856759
O183	O	0.747017	-0.847540	0.590906
C184	C	0.750110	-0.753401	0.705556
C185	C	0.805494	-0.808608	0.645316
H186	H	0.797366	-0.721897	0.749548
H187	H	0.703409	-0.789500	0.750002
H188	H	0.708547	-0.707891	0.661661
H189	H	0.847110	-0.854128	0.689142
H190	H	0.852138	-0.772457	0.600864
H191	H	1.792903	-1.084283	0.434565
H192	H	1.398753	-0.367619	1.172033
H193	H	1.622534	-1.074888	0.424722
O194	O	1.191810	-0.838835	-0.019162
C195	C	1.077171	-0.733138	-0.016012
C196	C	1.137420	-0.794458	0.039340
H197	H	1.033195	-0.697231	0.031264
H198	H	1.032712	-0.764719	-0.062755
H199	H	1.121058	-0.692029	-0.057531
H200	H	1.093602	-0.835584	0.080912
H201	H	1.181885	-0.762825	0.086027
H202	H	1.190435	-0.855735	0.158965
H203	H	0.782101	-0.594045	0.642134
H204	H	0.767802	-0.346060	0.374601
O205	O	1.368609	-0.392435	0.850796
C206	C	1.482171	-0.298960	0.867262
C207	C	1.415931	-0.353547	0.915234
H208	H	1.520462	-0.267516	0.919339
H209	H	1.443465	-0.253382	0.820928
H210	H	1.531670	-0.335617	0.825997
H211	H	1.366416	-0.316954	0.956547
H212	H	1.454696	-0.399127	0.961514
O213	O	1.180655	-0.547277	1.167072
C214	C	1.121295	-0.596028	1.308816
C215	C	1.187526	-0.541495	1.260742
H216	H	1.126814	-0.591359	1.384555
H217	H	1.138110	-0.659631	1.291369
H218	H	1.049874	-0.577422	1.286100
H219	H	1.258969	-0.560030	1.283431
H220	H	1.170633	-0.477904	1.278189
