data_functionalizedCrystal
_audit_creation_method	'MofGen! by Chris Wilmer'
_symmetry_space_group_name_H-M	'P1'
_symmetry_Int_Tables_number	1
_symmetry_cell_setting	triclinic
loop_
_symmetry_equiv_pos_as_xyz
  x,y,z
_cell_length_a	17.699083
_cell_length_b	17.699083
_cell_length_c	16.176319
_cell_angle_alpha	90.007696
_cell_angle_beta	90.001389
_cell_angle_gamma	83.283015
loop_
_atom_site_label
_atom_site_type_symbol
_atom_site_fract_x
_atom_site_fract_y
_atom_site_fract_z
O1	O	-1.004079	-0.095713	-0.068632
O2	O	-0.783700	-0.108166	-0.068660
O3	O	-0.900116	0.008250	-0.068638
O4	O	-0.887663	-0.212129	-0.068654
O5	O	-0.900100	0.008257	0.068855
O6	O	-0.783684	-0.108158	0.068834
O7	O	-1.004063	-0.095706	0.068861
Cu8	Cu	-0.893872	-0.101931	0.081401
Cu9	Cu	-0.893891	-0.101940	-0.081200
O10	O	-0.887647	-0.212121	0.068839
C11	C	-0.755495	-0.107716	0.000084
C12	C	-0.671477	-0.106377	0.000073
C13	C	-0.899662	0.036451	0.000109
C14	C	-0.898323	0.120469	0.000109
C15	C	-1.032268	-0.096156	0.000116
C16	C	-1.116286	-0.097494	0.000121
C17	C	-0.888102	-0.240322	0.000091
C18	C	-0.889440	-0.324340	0.000085
C19	C	-0.622856	-0.174710	0.000069
C20	C	-0.543913	-0.173448	0.000079
C21	C	-0.513592	-0.103852	0.000089
C22	C	-0.562219	-0.035513	0.000096
C23	C	-0.641161	-0.036776	0.000091
C24	C	-0.243856	-0.030418	0.000117
C25	C	-0.164908	-0.029160	0.000120
C26	C	-0.146608	-0.167090	0.000105
C27	C	-0.225550	-0.168353	0.000100
C28	C	-0.274170	-0.100015	0.000112
C29	C	-0.359769	-0.101384	0.000102
C30	C	-0.427995	-0.102481	0.000093
N31	N	-0.893864	-0.101925	0.195767
C32	C	-0.966656	0.169090	0.000119
C33	C	-0.965394	0.248033	0.000111
C34	C	-0.895798	0.278354	0.000100
C35	C	-0.827459	0.229727	0.000088
C36	C	-0.828722	0.150785	0.000089
C37	C	-0.822364	0.548090	0.000080
C38	C	-0.821106	0.627038	0.000081
C39	C	-0.959036	0.645338	0.000102
C40	C	-0.960299	0.566396	0.000104
C41	C	-0.891961	0.517776	0.000087
C42	C	-0.893330	0.432177	0.000094
C43	C	-0.894427	0.363951	0.000099
N44	N	-0.893905	-0.101941	-0.195565
C45	C	-0.945429	-0.050397	0.239040
C46	C	-0.945432	-0.050396	0.325588
C47	C	-0.893875	-0.101927	0.368859
C48	C	-0.842305	-0.153457	0.325579
C49	C	-0.842299	-0.153454	0.239034
C50	C	-0.842331	-0.153472	0.674608
C51	C	-0.842344	-0.153473	0.761159
C52	C	-0.945465	-0.050414	0.761161
C53	C	-0.945458	-0.050410	0.674616
C54	C	-0.893886	-0.101937	0.631344
C55	C	-0.893882	-0.101937	0.537499
C56	C	-0.893883	-0.101932	0.462702
H57	H	-0.647537	-0.231384	0.000060
O58	O	-0.254877	-0.236025	0.000128
C59	C	-0.228391	-0.372705	0.000072
C60	C	-0.195079	-0.296119	0.000056
H61	H	-0.180061	-0.421311	-0.000004
H62	H	-0.264866	-0.376791	0.057625
H63	H	-0.264917	-0.376706	-0.057457
H64	H	-0.158519	-0.292066	0.057546
H65	H	-0.158648	-0.292066	-0.057535
H66	H	-0.107012	-0.222734	0.000100
H67	H	-0.770792	0.254420	0.000073
H68	H	-1.016971	0.541714	0.000117
O69	O	-0.753430	0.656366	0.000027
C70	C	-0.616749	0.629888	0.000040
C71	C	-0.693333	0.596572	0.000082
H72	H	-0.568141	0.581561	0.000102
H73	H	-0.612674	0.666357	-0.057514
H74	H	-0.612741	0.666421	0.057567
H75	H	-0.697393	0.560005	-0.057406
H76	H	-0.697375	0.560146	0.057675
H77	H	-0.800357	-0.195437	0.796390
H78	H	-1.014680	0.684934	0.000111
H79	H	-0.987419	-0.008438	0.360821
H80	H	-0.987444	-0.008451	0.639387
O81	O	-0.762273	0.103660	0.000117
C82	C	-0.625327	0.093834	0.000039
C83	C	-0.700526	0.147288	0.000034
H84	H	-0.575385	0.129086	-0.000045
H85	H	-0.622407	0.056436	0.057591
H86	H	-0.622523	0.056399	-0.057490
H87	H	-0.703380	0.184771	0.057524
H88	H	-0.703415	0.184635	-0.057556
H89	H	-0.800341	-0.195428	0.639382
O90	O	-0.792295	-0.203487	0.367739
C91	C	-0.746574	-0.249142	0.501063
C92	C	-0.803262	-0.192452	0.453423
H93	H	-0.755410	-0.240230	0.570347
H94	H	-0.756319	-0.309768	0.484093
H95	H	-0.685981	-0.239362	0.484008
H96	H	-0.863876	-0.202163	0.470453
H97	H	-0.793450	-0.131846	0.470398
H98	H	-0.987456	-0.008455	0.796403
H99	H	-0.140225	0.027517	0.000128
O100	O	-0.756001	0.500839	-0.000077
C101	C	-0.677392	0.401060	-0.071296
C102	C	-0.752572	0.454543	-0.071231
H103	H	-0.674601	0.363605	-0.128809
H104	H	-0.627408	0.436259	-0.071354
H105	H	-0.674532	0.363683	-0.013731
H106	H	-0.755506	0.491930	-0.128786
H107	H	-0.802520	0.419297	-0.071130
H108	H	-0.800309	-0.195412	0.203801
O109	O	-1.034282	0.139675	-0.000019
C110	C	-1.152586	0.131197	-0.071216
C111	C	-1.076018	0.164542	-0.071168
H112	H	-1.186357	0.151302	-0.128725
H113	H	-1.141797	0.066420	-0.071269
H114	H	-1.186311	0.151226	-0.013646
H115	H	-1.042253	0.144572	-0.128728
H116	H	-1.086860	0.229316	-0.071072
H117	H	-0.283434	0.025228	0.000127
H118	H	-0.504328	-0.229092	0.000075
O119	O	-1.031703	0.295371	0.000081
C120	C	-1.090893	0.425097	0.000122
C121	C	-1.015739	0.371574	0.000142
H122	H	-1.078012	0.486718	0.000189
H123	H	-1.125166	0.414133	-0.057426
H124	H	-1.125145	0.414055	0.057655
H125	H	-0.981425	0.382584	-0.057352
H126	H	-0.981523	0.382548	0.057729
O127	O	-0.532642	0.032027	0.000070
C128	C	-0.419142	0.095106	0.000131
C129	C	-0.452534	0.018562	0.000144
H130	H	-0.354370	0.084245	0.000207
H131	H	-0.439122	0.128876	-0.057420
H132	H	-0.439223	0.128868	0.057661
H133	H	-0.432468	-0.015262	-0.057348
H134	H	-0.432558	-0.015151	0.057733
O135	O	-0.995541	-0.000266	0.197138
C136	C	-1.097856	0.101931	0.206285
C137	C	-1.041133	0.045207	0.253839
H138	H	-1.134742	0.138699	0.252106
H139	H	-1.065289	0.139755	0.165801
H140	H	-1.135565	0.069288	0.165733
H141	H	-1.003409	0.077787	0.294436
H142	H	-1.073747	0.007383	0.294270
H143	H	-0.680748	0.018868	0.000095
