data_functionalizedCrystal
_audit_creation_method	'MofGen! by Chris Wilmer'
_symmetry_space_group_name_H-M	'P1'
_symmetry_Int_Tables_number	1
_symmetry_cell_setting	triclinic
loop_
_symmetry_equiv_pos_as_xyz
  x,y,z
_cell_length_a	17.699104
_cell_length_b	14.519731
_cell_length_c	16.776229
_cell_angle_alpha	89.992369
_cell_angle_beta	89.991971
_cell_angle_gamma	83.490185
loop_
_atom_site_label
_atom_site_type_symbol
_atom_site_fract_x
_atom_site_fract_y
_atom_site_fract_z
O1	O	1.004410	0.116715	-0.066306
O2	O	0.784078	0.131867	-0.066304
O3	O	0.900077	-0.009970	-0.066298
O4	O	0.888411	0.258552	-0.066312
O5	O	0.900062	-0.009979	0.066278
O6	O	0.784063	0.131859	0.066272
O7	O	1.004395	0.116706	0.066270
Zn8	Zn	0.894226	0.124281	0.087321
Zn9	Zn	0.894247	0.124292	-0.087355
O10	O	0.888395	0.258544	0.066264
C11	C	0.755872	0.131317	-0.000016
C12	C	0.671850	0.129678	-0.000015
C13	C	0.899523	-0.044332	-0.000010
C14	C	0.897885	-0.146705	-0.000009
C15	C	0.147196	0.203693	-0.000027
C16	C	0.226144	0.205227	-0.000030
C17	C	0.274518	0.121963	-0.000025
C18	C	0.243940	0.037159	-0.000026
C19	C	0.164993	0.035625	-0.000029
C20	C	0.562324	0.043340	-0.000014
C21	C	0.641276	0.044880	-0.000008
C22	C	0.623475	0.212941	-0.000014
C23	C	0.544528	0.211408	-0.000017
C24	C	0.513957	0.126605	-0.000023
C25	C	0.428352	0.124942	-0.000021
C26	C	0.360121	0.123624	-0.000020
C27	C	0.896554	-0.229844	-0.000011
C28	C	0.894891	-0.334146	-0.000017
C29	C	0.893571	-0.417279	-0.000022
C30	C	0.891908	-0.521588	-0.000027
C31	C	1.032601	0.117256	-0.000020
C32	C	1.116623	0.118895	-0.000026
C33	C	0.888950	0.292905	-0.000026
C34	C	0.890588	0.395279	-0.000032
N35	N	0.894218	0.124273	0.206532
N36	N	0.894261	0.124293	-0.206566
C37	C	0.945598	0.061492	0.248252
C38	C	0.945602	0.061492	0.331704
C39	C	0.894229	0.124276	0.373435
C40	C	0.842844	0.187059	0.331709
C41	C	0.842836	0.187055	0.248258
C42	C	0.842871	0.187077	0.668256
C43	C	0.842884	0.187079	0.751713
C44	C	0.945637	0.061514	0.751702
C45	C	0.945630	0.061510	0.668251
C46	C	0.894242	0.124289	0.626533
C47	C	0.894237	0.124288	0.536044
C48	C	0.894237	0.124282	0.463922
H49	H	0.107814	0.271496	-0.000025
H50	H	0.283332	-0.030636	-0.000027
H51	H	0.987478	0.010393	0.785678
H52	H	0.251032	0.274277	-0.000038
H53	H	0.801030	0.238196	0.634296
H54	H	0.801011	0.238176	0.365691
Br55	Br	0.123500	-0.079461	-0.000031
Br56	Br	0.664968	0.328034	-0.000010
H57	H	0.801047	0.238207	0.785689
H58	H	0.680661	-0.022928	-0.000006
H59	H	0.505145	0.279211	-0.000017
H60	H	0.987435	0.010370	0.214280
Br61	Br	1.015331	-0.023714	0.388327
H62	H	0.800996	0.238176	0.214291
Br63	Br	1.015356	-0.023695	0.611619
Br64	Br	0.520845	-0.071750	-0.000044
