data_functionalizedCrystal
_audit_creation_method	'MofGen! by Chris Wilmer'
_symmetry_space_group_name_H-M	'P1'
_symmetry_Int_Tables_number	1
_symmetry_cell_setting	triclinic
loop_
_symmetry_equiv_pos_as_xyz
  x,y,z
_cell_length_a	21.295420
_cell_length_b	14.908579
_cell_length_c	14.908308
_cell_angle_alpha	96.363296
_cell_angle_beta	93.277134
_cell_angle_gamma	93.316180
loop_
_atom_site_label
_atom_site_type_symbol
_atom_site_fract_x
_atom_site_fract_y
_atom_site_fract_z
Zn1	Zn	-0.925192	0.390017	0.532628
Zn2	Zn	-0.925118	0.532663	0.390005
Zn3	Zn	-0.826373	0.381304	0.381281
Zn4	Zn	-0.813455	0.541319	0.541309
O5	O	-0.872535	0.461326	0.461306
O6	O	-1.013270	0.408963	0.513727
O7	O	-0.917394	0.505316	0.262187
O8	O	-0.844918	0.255796	0.394073
O9	O	-1.013216	0.513764	0.408942
O10	O	-0.917521	0.262197	0.505267
O11	O	-0.844846	0.394114	0.255777
O12	O	-0.736572	0.402507	0.402491
O13	O	-0.822903	0.528517	0.666818
O14	O	-0.727081	0.520069	0.520063
O15	O	-0.904995	0.417356	0.660440
O16	O	-0.904869	0.660475	0.417360
O17	O	-0.822831	0.666835	0.528522
C18	C	-0.708986	0.461282	0.461273
C19	C	-0.639018	0.461287	0.461282
C20	C	-0.862456	0.696499	0.474850
C21	C	-0.858201	0.797108	0.480674
C22	C	-0.862516	0.474874	0.697389
C23	C	-0.858247	0.480648	0.797994
C24	C	-0.139577	0.406865	0.515959
C25	C	-0.205319	0.406861	0.515961
C26	C	-0.238175	0.461326	0.461308
C27	C	-0.205282	0.515815	0.406667
C28	C	-0.139540	0.515824	0.406674
N29	N	-0.344457	0.463585	0.382450
N30	N	-0.406909	0.463571	0.382446
C31	C	-0.436252	0.461303	0.461286
N32	N	-0.400785	0.459032	0.540131
N33	N	-0.338327	0.459041	0.540134
C34	C	-0.309462	0.461322	0.461295
C35	C	-0.540423	0.406818	0.515930
C36	C	-0.606166	0.406821	0.515934
C37	C	-0.606128	0.515769	0.406632
C38	C	-0.540386	0.515772	0.406637
C39	C	-0.507537	0.461291	0.461284
C40	C	-0.036723	0.461359	0.461331
C41	C	-0.106692	0.461344	0.461322
C42	C	-0.935710	0.979487	0.375958
C43	C	-0.931715	1.074019	0.381428
C44	C	-0.846217	1.080705	0.497087
C45	C	-0.850213	0.986173	0.491617
C46	C	-0.894960	0.935568	0.431050
C47	C	-0.898953	0.841034	0.425576
C48	C	-0.813459	0.847722	0.541239
C49	C	-0.809463	0.942254	0.546709
C50	C	-0.882664	1.225236	0.447740
C51	C	-0.886969	1.124631	0.441989
C52	C	-0.882553	0.447765	0.226137
C53	C	-0.886955	0.441736	0.125518
C54	C	-0.935707	0.375724	0.980400
C55	C	-0.931698	0.381146	1.074927
C56	C	-0.846217	0.496907	1.081576
C57	C	-0.850226	0.491486	0.987049
C58	C	-0.894973	0.430893	0.936464
C59	C	-0.898985	0.425477	0.841936
C60	C	-0.813502	0.541233	0.848587
C61	C	-0.809493	0.546655	0.943113
H62	H	-0.112835	0.362507	0.560462
Cl63	Cl	-0.246669	0.338366	0.584651
Cl64	Cl	-0.789976	1.144340	0.573233
H65	H	-0.780335	0.586158	0.812805
Cl66	Cl	-0.955239	0.349306	0.778345
H67	H	-0.773032	0.983470	0.596023
Cl68	Cl	-0.499124	0.338333	0.584632
Cl69	Cl	-0.647426	0.584247	0.337932
Cl70	Cl	-0.991965	0.299563	0.916805
H71	H	-0.513611	0.560130	0.362140
Cl72	Cl	-0.955204	0.777416	0.349433
H73	H	-0.780276	0.811953	0.586096
Cl74	Cl	-0.098198	0.584312	0.337976
H75	H	-0.964866	0.336219	1.110695
H76	H	-0.972142	0.938282	0.326636
Cl77	Cl	-0.647507	0.338335	0.584636
H78	H	-0.809786	0.546238	1.122778
H79	H	-0.964899	1.109774	0.336568
H80	H	-0.773060	0.595985	0.984312
Cl81	Cl	-0.246586	0.584288	0.337965
