data_functionalizedCrystal
_audit_creation_method	'MofGen! by Chris Wilmer'
_symmetry_space_group_name_H-M	'P1'
_symmetry_Int_Tables_number	1
_symmetry_cell_setting	triclinic
loop_
_symmetry_equiv_pos_as_xyz
  x,y,z
_cell_length_a	21.295417
_cell_length_b	16.120490
_cell_length_c	21.295411
_cell_angle_alpha	87.080431
_cell_angle_beta	89.978356
_cell_angle_gamma	87.122615
loop_
_atom_site_label
_atom_site_type_symbol
_atom_site_fract_x
_atom_site_fract_y
_atom_site_fract_z
Zn1	Zn	-0.299608	1.274548	-0.404623
Zn2	Zn	0.033725	1.607882	-0.071289
Zn3	Zn	0.367059	1.941215	0.262044
Zn4	Zn	-0.404855	1.274419	-0.299343
Zn5	Zn	-0.071521	1.607752	0.033990
Zn6	Zn	0.261812	1.941086	0.367323
Zn7	Zn	-0.294256	1.135119	-0.294039
Zn8	Zn	0.039077	1.468453	0.039294
Zn9	Zn	0.372411	1.801786	0.372628
Zn10	Zn	-0.399489	1.135079	-0.399250
Zn11	Zn	-0.066156	1.468412	-0.065916
Zn12	Zn	0.267177	1.801745	0.267417
O13	O	-0.349552	1.204791	-0.349314
O14	O	-0.016219	1.538125	-0.015980
O15	O	0.317115	1.871458	0.317353
O16	O	-0.318054	1.391197	-0.395126
O17	O	0.015279	1.724530	-0.061792
O18	O	0.348612	2.057864	0.271541
O19	O	-0.390189	1.255903	-0.210549
O20	O	-0.056856	1.589237	0.122784
O21	O	0.276477	1.922570	0.456118
O22	O	-0.206879	1.153686	-0.308737
O23	O	0.126454	1.487019	0.024596
O24	O	0.459787	1.820352	0.357930
O25	O	-0.395379	1.391102	-0.317777
O26	O	-0.062046	1.724436	0.015556
O27	O	0.271288	2.057769	0.348889
O28	O	-0.210811	1.256124	-0.389983
O29	O	0.122522	1.589457	-0.056649
O30	O	0.455855	1.922790	0.276684
O31	O	-0.308933	1.153560	-0.206652
O32	O	0.024400	1.486894	0.126681
O33	O	0.357734	1.820227	0.460015
O34	O	-0.303730	1.018448	-0.303527
O35	O	0.029603	1.351781	0.029806
O36	O	0.362937	1.685114	0.363140
O37	O	-0.386234	1.153617	-0.488053
O38	O	-0.052901	1.486950	-0.154720
O39	O	0.280433	1.820283	0.178613
O40	O	-0.381045	1.018418	-0.380825
O41	O	-0.047711	1.351751	-0.047491
O42	O	0.285622	1.685085	0.285842
O43	O	-0.312852	1.256084	-0.492001
O44	O	0.020482	1.589418	-0.158668
O45	O	0.353815	1.922751	0.174666
O46	O	-0.492230	1.255864	-0.312567
O47	O	-0.158896	1.589198	0.020766
O48	O	0.174437	1.922531	0.354099
O49	O	-0.488288	1.153491	-0.385968
O50	O	-0.154954	1.486825	-0.052635
O51	O	0.178379	1.820158	0.280699
C52	C	-0.341225	0.988183	-0.341018
C53	C	-0.007892	1.321516	-0.007684
C54	C	0.325442	1.654849	0.325649
C55	C	-0.337678	0.895517	-0.337483
C56	C	-0.004344	1.228850	-0.004150
C57	C	0.328989	1.562183	0.329183
C58	C	-0.367947	0.684574	-0.367647
C59	C	-0.034614	1.017907	-0.034314
C60	C	0.298720	1.351240	0.299019
C61	C	-0.331207	0.725860	-0.331030
C62	C	0.002126	1.059193	0.002303
C63	C	0.335460	1.392527	0.335637
C64	C	-0.334808	0.820266	-0.334622
C65	C	-0.001475	1.153599	-0.001288
C66	C	0.331858	1.486932	0.332045
C67	C	-0.364347	0.590160	-0.364056
C68	C	-0.031013	0.923493	-0.030723
C69	C	0.302320	1.256826	0.302610
C70	C	-0.513099	1.204682	-0.349275
C71	C	-0.179766	1.538015	-0.015941
C72	C	0.153567	1.871349	0.317392
C73	C	-0.583069	1.204712	-0.349282
C74	C	-0.249735	1.538045	-0.015949
C75	C	0.083598	1.871378	0.317385
C76	C	-0.617969	1.258064	-0.311105
C77	C	-0.284636	1.591398	0.022228
C78	C	0.048698	1.924731	0.355561
C79	C	-0.683713	1.258103	-0.311121
C80	C	-0.350380	1.591437	0.022212
C81	C	-0.017046	1.924770	0.355546
C82	C	-0.714554	1.204775	-0.349306
C83	C	-0.381220	1.538108	-0.015973
C84	C	-0.047887	1.871441	0.317361
C85	C	-0.679645	1.151418	-0.387490
C86	C	-0.346312	1.484751	-0.054157
C87	C	-0.012979	1.818085	0.279176
C88	C	-0.613903	1.151387	-0.387478
C89	C	-0.280570	1.484720	-0.054145
C90	C	0.052764	1.818053	0.279188
N91	N	-0.815021	1.131844	-0.351312
N92	N	-0.481687	1.465177	-0.017978
N93	N	-0.148354	1.798510	0.315355
N94	N	-0.877473	1.131876	-0.351320
N95	N	-0.544140	1.465209	-0.017986
N96	N	-0.210807	1.798543	0.315347
C97	C	-0.912632	1.204868	-0.349346
C98	C	-0.579299	1.538202	-0.016012
C99	C	-0.245965	1.871535	0.317321
N100	N	-0.882979	1.277828	-0.347351
N101	N	-0.549645	1.611161	-0.014018
N102	N	-0.216312	1.944495	0.319315
N103	N	-0.820520	1.277795	-0.347340
N104	N	-0.487187	1.611128	-0.014007
N105	N	-0.153853	1.944461	0.319326
C106	C	-0.785840	1.204804	-0.349324
C107	C	-0.452507	1.538137	-0.015990
C108	C	-0.119173	1.871470	0.317343
C109	C	-1.018819	1.258268	-0.311184
C110	C	-0.685486	1.591601	0.022149
C111	C	-0.352153	1.924935	0.355483
C112	C	-1.084565	1.258308	-0.311204
C113	C	-0.751231	1.591642	0.022129
C114	C	-0.417898	1.924975	0.355463
C115	C	-1.080496	1.151616	-0.387570
C116	C	-0.747162	1.484949	-0.054237
C117	C	-0.413829	1.818282	0.279097
C118	C	-1.014752	1.151583	-0.387554
C119	C	-0.681418	1.484916	-0.054220
C120	C	-0.348085	1.818249	0.279113
C121	C	-0.983918	1.204908	-0.349357
C122	C	-0.650584	1.538241	-0.016024
C123	C	-0.317251	1.871574	0.317310
C124	C	-0.185367	1.204924	-0.349368
C125	C	0.147967	1.538257	-0.016034
C126	C	0.481300	1.871590	0.317299
C127	C	-0.115401	1.204980	-0.349390
C128	C	0.217933	1.538314	-0.016057
C129	C	0.551266	1.871647	0.317276
C130	C	-0.349541	1.204860	-0.513507
C131	C	-0.016208	1.538194	-0.180173
C132	C	0.317125	1.871527	0.153160
C133	C	-0.349537	1.204890	-0.583476
C134	C	-0.016203	1.538223	-0.250143
C135	C	0.317130	1.871557	0.083191
C136	C	-0.357912	1.422246	-0.357643
C137	C	-0.024579	1.755579	-0.024309
C138	C	0.308755	2.088912	0.309024
C139	C	-0.361475	1.514912	-0.361192
C140	C	-0.028141	1.848245	-0.027859
C141	C	0.305192	2.181578	0.305475
C142	C	-0.311325	1.258243	-0.618399
C143	C	0.022009	1.591576	-0.285066
C144	C	0.355342	1.924909	0.048268
C145	C	-0.311297	1.258241	-0.684142
C146	C	0.022036	1.591575	-0.350808
C147	C	0.355369	1.924908	-0.017475
C148	C	-0.349494	1.204896	-0.714959
C149	C	-0.016160	1.538230	-0.381625
C150	C	0.317173	1.871563	-0.048292
C151	C	-0.387708	1.151533	-0.680027
C152	C	-0.054375	1.484867	-0.346694
C153	C	0.278958	1.818200	-0.013361
C154	C	-0.387730	1.151530	-0.614286
C155	C	-0.054396	1.484864	-0.280953
C156	C	0.278937	1.818197	0.052381
N157	N	-0.404315	1.198464	-0.817928
N158	N	-0.070981	1.531798	-0.484595
N159	N	0.262352	1.865131	-0.151262
N160	N	-0.404292	1.198472	-0.880380
N161	N	-0.070959	1.531806	-0.547047
N162	N	0.262374	1.865139	-0.213713
C163	C	-0.349430	1.204902	-0.913034
C164	C	-0.016097	1.538235	-0.579700
C165	C	0.317237	1.871568	-0.246367
N166	N	-0.294590	1.211339	-0.880877
N167	N	0.038743	1.544673	-0.547544
N168	N	0.372077	1.878006	-0.214210
N169	N	-0.294613	1.211336	-0.818420
N170	N	0.038720	1.544669	-0.485086
N171	N	0.372054	1.878002	-0.151753
C172	C	-0.349474	1.204894	-0.786244
C173	C	-0.016141	1.538227	-0.452911
C174	C	0.317192	1.871560	-0.119577
C175	C	-0.311185	1.258256	-1.019243
C176	C	0.022148	1.591589	-0.685909
C177	C	0.355482	1.924923	-0.352576
C178	C	-0.311156	1.258249	-1.084986
C179	C	0.022177	1.591582	-0.751653
C180	C	0.355510	1.924916	-0.418319
C181	C	-0.387573	1.151545	-1.080871
C182	C	-0.054240	1.484879	-0.747537
C183	C	0.279094	1.818212	-0.414204
C184	C	-0.387596	1.151548	-1.015128
C185	C	-0.054263	1.484881	-0.681795
C186	C	0.279071	1.818215	-0.348462
C187	C	-0.349403	1.204908	-0.984318
C188	C	-0.016070	1.538241	-0.650985
C189	C	0.317264	1.871574	-0.317652
C190	C	-0.349519	1.204770	-0.185761
C191	C	-0.016186	1.538104	0.147572
C192	C	0.317148	1.871437	0.480905
C193	C	-0.349352	1.204902	-0.115799
C194	C	-0.016019	1.538236	0.217535
C195	C	0.317314	1.871569	0.550868
H196	H	-0.592866	1.301487	-0.280005
H197	H	-0.259532	1.634820	0.053328
H198	H	0.073801	1.968153	0.386662
H199	H	-0.712134	1.301553	-0.280033
H200	H	-0.378801	1.634886	0.053300
H201	H	-0.045467	1.968219	0.386634
H202	H	-0.402104	0.720126	-0.401691
H203	H	-0.068770	1.053460	-0.068357
H204	H	0.264563	1.386793	0.264976
C205	C	-0.285059	0.677834	-0.285038
C206	C	0.048275	1.011168	0.048295
C207	C	0.381608	1.344501	0.381629
H208	H	-0.288663	0.619763	-0.288625
H209	H	0.044671	0.953097	0.044709
H210	H	0.378004	1.286430	0.378042
H211	H	-0.243311	0.692082	-0.294861
H212	H	0.090023	1.025416	0.038473
H213	H	0.423356	1.358749	0.371806
H214	H	-0.294742	0.692018	-0.243252
H215	H	0.038591	1.025351	0.090082
H216	H	0.371925	1.358684	0.423415
C217	C	-0.713567	1.092757	-0.429492
C218	C	-0.380234	1.426090	-0.096158
C219	C	-0.046901	1.759423	0.237175
H220	H	-0.757720	1.100410	-0.424027
H221	H	-0.424386	1.433744	-0.090693
H222	H	-0.091053	1.767077	0.242640
H223	H	-0.703231	1.104924	-0.472259
H224	H	-0.369898	1.438258	-0.138926
H225	H	-0.036564	1.771591	0.194408
H226	H	-0.700684	1.036739	-0.418093
H227	H	-0.367351	1.370072	-0.084760
H228	H	-0.034017	1.703406	0.248573
H229	H	-0.280036	1.301694	-1.113420
H230	H	0.053298	1.635027	-0.780086
H231	H	0.386631	1.968361	-0.446753
C232	C	-0.575511	1.092691	-0.429471
C233	C	-0.242178	1.426025	-0.096138
C234	C	0.091156	1.759358	0.237196
H235	H	-0.603292	1.060932	-0.452214
H236	H	-0.269958	1.394266	-0.118881
H237	H	0.063375	1.727599	0.214453
H238	H	-0.551049	1.124551	-0.458132
H239	H	-0.217715	1.457884	-0.124799
H240	H	0.115618	1.791218	0.208535
H241	H	-0.548512	1.056365	-0.403967
H242	H	-0.215179	1.389698	-0.070634
H243	H	0.118155	1.723031	0.262700
H244	H	-0.418667	1.108102	-1.105961
H245	H	-0.085333	1.441436	-0.772628
H246	H	0.248000	1.774769	-0.439294
C247	C	-0.269165	1.316934	-0.985348
C248	C	0.064169	1.650267	-0.652015
C249	C	0.397502	1.983601	-0.318682
H250	H	-0.246393	1.348699	-1.015565
H251	H	0.086940	1.682032	-0.682232
H252	H	0.420273	2.015366	-0.348899
H253	H	-0.294644	1.353243	-0.961099
H254	H	0.038690	1.686576	-0.627765
H255	H	0.372023	2.019909	-0.294432
H256	H	-0.240520	1.285052	-0.958478
H257	H	0.092813	1.618385	-0.625144
H258	H	0.426146	1.951718	-0.291811
H259	H	-0.993713	1.301691	-0.280084
H260	H	-0.660380	1.635024	0.053249
H261	H	-0.327047	1.968358	0.386583
C262	C	-0.429635	1.092866	-0.976711
C263	C	-0.096301	1.426199	-0.643378
C264	C	0.237032	1.759532	-0.310045
H265	H	-0.452383	1.061098	-1.004479
H266	H	-0.119050	1.394431	-0.671145
H267	H	0.214284	1.727765	-0.337812
H268	H	-0.404168	1.056559	-0.949668
H269	H	-0.070834	1.389893	-0.616334
H270	H	0.262499	1.723226	-0.283001
H271	H	-0.458299	1.124739	-0.952293
H272	H	-0.124966	1.458072	-0.618960
H273	H	0.208367	1.791406	-0.285626
H274	H	-1.112980	1.301760	-0.280117
H275	H	-0.779646	1.635093	0.053216
H276	H	-0.446313	1.968427	0.386549
H277	H	-1.105606	1.108198	-0.418664
H278	H	-0.772272	1.441531	-0.085331
H279	H	-0.438939	1.774865	0.248002
H280	H	-0.418806	1.108097	-0.705123
H281	H	-0.085473	1.441430	-0.371789
H282	H	0.247861	1.774764	-0.038456
C283	C	-0.269308	1.316926	-0.584508
C284	C	0.064025	1.650259	-0.251175
C285	C	0.397358	1.983592	0.082159
H286	H	-0.274795	1.309288	-0.540353
H287	H	0.058538	1.642621	-0.207019
H288	H	0.391871	1.975954	0.126314
H289	H	-0.226543	1.304760	-0.594818
H290	H	0.106790	1.638093	-0.261485
H291	H	0.440124	1.971426	0.071848
H292	H	-0.280675	1.372938	-0.597438
H293	H	0.052658	1.706271	-0.264105
H294	H	0.385991	2.039605	0.069229
C295	C	-0.429767	1.092845	-0.575866
C296	C	-0.096433	1.426178	-0.242533
C297	C	0.236900	1.759512	0.090801
H298	H	-0.424307	1.100482	-0.532300
H299	H	-0.090974	1.433815	-0.198967
H300	H	0.242360	1.767148	0.134367
H301	H	-0.472526	1.105008	-0.587108
H302	H	-0.139193	1.438342	-0.253774
H303	H	0.194141	1.771675	0.079559
H304	H	-0.418391	1.036833	-0.584481
H305	H	-0.085058	1.370167	-0.251147
H306	H	0.248276	1.703500	0.082186
H307	H	-0.986334	1.108134	-0.418638
H308	H	-0.653001	1.441467	-0.085305
H309	H	-0.319667	1.774801	0.248029
H310	H	-0.280177	1.301686	-0.712581
H311	H	0.053156	1.635019	-0.379248
H312	H	0.386490	1.968352	-0.045915
