data_functionalizedCrystal
_audit_creation_method	'MofGen! by Chris Wilmer'
_symmetry_space_group_name_H-M	'P1'
_symmetry_Int_Tables_number	1
_symmetry_cell_setting	triclinic
loop_
_symmetry_equiv_pos_as_xyz
  x,y,z
_cell_length_a	11.792254
_cell_length_b	10.540510
_cell_length_c	10.868271
_cell_angle_alpha	89.997346
_cell_angle_beta	89.995741
_cell_angle_gamma	84.355954
loop_
_atom_site_label
_atom_site_type_symbol
_atom_site_fract_x
_atom_site_fract_y
_atom_site_fract_z
O1	O	1.507336	0.174071	-0.102314
O2	O	2.007336	0.674071	0.397686
O3	O	1.177042	0.191986	-0.102316
O4	O	1.677042	0.691986	0.397684
O5	O	1.349742	-0.001705	-0.102314
O6	O	1.849742	0.498295	0.397686
O7	O	1.334636	0.367762	-0.102316
O8	O	1.834636	0.867762	0.397684
O9	O	1.349728	-0.001712	0.102330
O10	O	1.849728	0.498288	0.602330
O11	O	1.177028	0.191978	0.102329
O12	O	1.677028	0.691978	0.602329
O13	O	1.507322	0.174063	0.102331
O14	O	2.007322	0.674063	0.602331
Zn15	Zn	1.342173	0.183020	0.134821
Zn16	Zn	1.842173	0.683020	0.634821
Zn17	Zn	1.342192	0.183030	-0.134807
Zn18	Zn	1.842192	0.683030	0.365193
O19	O	1.334622	0.367754	0.102329
O20	O	1.834622	0.867754	0.602329
C21	C	1.134741	0.190854	0.000006
C22	C	1.634741	0.690854	0.500006
C23	C	1.008720	0.187476	0.000005
C24	C	1.508720	0.687476	0.500005
C25	C	0.906377	0.184731	-0.000000
C26	C	1.406377	0.684731	0.500000
C27	C	0.777981	0.181299	-0.000001
C28	C	1.277981	0.681299	0.499999
C29	C	1.348609	-0.049009	0.000005
C30	C	1.848609	0.450991	0.500005
C31	C	1.345242	-0.189948	-0.000002
C32	C	1.845242	0.310052	0.499998
C33	C	1.465216	-0.407788	0.000467
C34	C	1.965216	0.092212	0.500467
C35	C	1.468808	-0.261204	-0.000000
C36	C	1.968808	0.238796	0.500000
C37	C	1.281996	-0.234499	-0.116862
C38	C	1.781996	0.265501	0.383138
C39	C	1.279278	-0.381251	-0.116954
C40	C	1.779278	0.118749	0.383046
C41	C	1.276688	-0.381060	0.115766
C42	C	1.776688	0.118940	0.615766
C43	C	1.282549	-0.234738	0.117304
C44	C	1.782549	0.265262	0.617304
C45	C	1.549623	0.175196	0.000006
C46	C	2.049623	0.675196	0.500006
C47	C	1.675644	0.178573	-0.000001
C48	C	2.175644	0.678573	0.499999
C49	C	1.335755	0.415058	0.000007
C50	C	1.835755	0.915058	0.500007
C51	C	1.339123	0.555997	0.000006
C52	C	1.839123	1.055997	0.500006
N53	N	1.342168	0.183012	0.318835
N54	N	1.842168	0.683012	0.818835
N55	N	1.342205	0.183027	-0.318821
N56	N	1.842205	0.683027	0.181179
C57	C	1.342186	0.183027	0.569842
C58	C	1.842186	0.683027	1.069842
C59	C	1.342172	0.183022	0.430164
C60	C	1.842172	0.683022	0.930164
H61	H	1.518295	-0.232022	0.083768
H62	H	2.018295	0.267978	0.583768
H63	H	1.518594	-0.232955	-0.083914
H64	H	2.018594	0.267045	0.416086
Cl65	Cl	1.346037	-0.443557	-0.251815
Cl66	Cl	1.846037	0.056443	0.248185
H67	H	1.513350	-0.449900	0.084274
H68	H	2.013350	0.050100	0.584274
H69	H	1.186858	-0.403950	-0.122249
H70	H	1.686858	0.096050	0.377751
Cl71	Cl	1.141550	-0.160880	-0.123585
Cl72	Cl	1.641550	0.339120	0.376415
H73	H	1.192336	-0.185382	0.124360
H74	H	1.692336	0.314618	0.624360
Cl75	Cl	1.349827	-0.187082	-0.251136
Cl76	Cl	1.849827	0.312918	0.248864
H77	H	1.513084	-0.451444	-0.082864
H78	H	2.013084	0.048556	0.417136
Cl79	Cl	1.336898	-0.446880	0.252519
Cl80	Cl	1.836898	0.053120	0.752519
Cl81	Cl	1.353590	-0.190784	0.250784
Cl82	Cl	1.853590	0.309216	0.750784
Cl83	Cl	1.133453	-0.414801	0.116985
Cl84	Cl	1.633453	0.085199	0.616985
