data_functionalizedCrystal
_audit_creation_method	'MofGen! by Chris Wilmer'
_symmetry_space_group_name_H-M	'P1'
_symmetry_Int_Tables_number	1
_symmetry_cell_setting	triclinic
loop_
_symmetry_equiv_pos_as_xyz
  x,y,z
_cell_length_a	18.215407
_cell_length_b	10.686203
_cell_length_c	18.215399
_cell_angle_alpha	94.390030
_cell_angle_beta	89.985640
_cell_angle_gamma	94.368033
loop_
_atom_site_label
_atom_site_type_symbol
_atom_site_fract_x
_atom_site_fract_y
_atom_site_fract_z
Zn1	Zn	1.147607	0.502418	-0.393667
Zn2	Zn	1.480941	0.835752	-0.060333
Zn3	Zn	1.814274	1.169085	0.273000
Zn4	Zn	1.156997	0.713445	-0.261192
Zn5	Zn	1.490330	1.046778	0.072142
Zn6	Zn	1.823664	1.380111	0.405475
Zn7	Zn	1.024548	0.502457	-0.270618
Zn8	Zn	1.357882	0.835791	0.062716
Zn9	Zn	1.691215	1.169124	0.396049
Zn10	Zn	1.033976	0.713354	-0.384226
Zn11	Zn	1.367310	1.046688	-0.050893
Zn12	Zn	1.700643	1.380021	0.282441
O13	O	1.090782	0.607919	-0.327426
O14	O	1.424116	0.941252	0.005908
O15	O	1.757449	1.274585	0.339241
O16	O	1.251838	0.530433	-0.376100
O17	O	1.585171	0.863766	-0.042767
O18	O	1.918505	1.197099	0.290567
O19	O	1.139411	0.685511	-0.159455
O20	O	1.472744	1.018844	0.173878
O21	O	1.806078	1.352177	0.507211
O22	O	1.032997	0.325876	-0.294836
O23	O	1.366330	0.659209	0.038497
O24	O	1.699664	0.992543	0.371830
O25	O	1.258737	0.685473	-0.278771
O26	O	1.592070	1.018806	0.054562
O27	O	1.925403	1.352140	0.387896
O28	O	1.123408	0.325847	-0.385240
O29	O	1.456741	0.659181	-0.051907
O30	O	1.790075	0.992514	0.281427
O31	O	1.042102	0.530499	-0.166381
O32	O	1.375435	0.863833	0.166953
O33	O	1.708768	1.197166	0.500286
O34	O	0.922814	0.530412	-0.285682
O35	O	1.256147	0.863745	0.047652
O36	O	1.589480	1.197079	0.380985
O37	O	1.049066	0.685319	-0.488465
O38	O	1.382399	1.018653	-0.155132
O39	O	1.715733	1.351986	0.178202
O40	O	0.929741	0.685357	-0.369149
O41	O	1.263074	1.018690	-0.035816
O42	O	1.596407	1.352024	0.297517
O43	O	1.132550	0.530345	-0.495401
O44	O	1.465884	0.863679	-0.162068
O45	O	1.799217	1.197012	0.171266
O46	O	1.148553	0.890009	-0.269617
O47	O	1.481886	1.223342	0.063717
O48	O	1.815220	1.556676	0.397050
O49	O	1.058171	0.889943	-0.360009
O50	O	1.391504	1.223276	-0.026676
O51	O	1.724837	1.556609	0.306657
C52	C	0.899574	0.607880	-0.327414
C53	C	1.232908	0.941213	0.005919
C54	C	1.566241	1.274547	0.339252
C55	C	0.817776	0.607894	-0.327426
C56	C	1.151109	0.941227	0.005908
C57	C	1.484443	1.274560	0.339241
C58	C	0.625996	0.527331	-0.378172
C59	C	0.959330	0.860664	-0.044838
C60	C	1.292663	1.193997	0.288495
C61	C	0.549138	0.527341	-0.378174
C62	C	0.882472	0.860675	-0.044840
C63	C	1.215805	1.194008	0.288493
C64	C	0.556322	0.688542	-0.276691
C65	C	0.889655	1.021876	0.056643
C66	C	1.222988	1.355209	0.389976
C67	C	0.633178	0.688524	-0.276686
C68	C	0.966511	1.021857	0.056648
C69	C	1.299845	1.355191	0.389981
C70	C	0.668014	0.607920	-0.327430
C71	C	1.001347	0.941254	0.005903
C72	C	1.334680	1.274587	0.339236
C73	C	0.514299	0.607949	-0.327437
C74	C	0.847632	0.941282	0.005896
C75	C	1.180966	1.274616	0.339229
C76	C	0.430966	0.607961	-0.327439
C77	C	0.764299	0.941295	0.005894
C78	C	1.097632	1.274628	0.339228
C79	C	0.751352	0.607906	-0.327428
C80	C	1.084685	0.941239	0.005905
C81	C	1.418019	1.274572	0.339239
C82	C	1.105424	0.935760	-0.312782
C83	C	1.438757	1.269093	0.020552
C84	C	1.772090	1.602427	0.353885
C85	C	1.111755	1.076012	-0.306542
C86	C	1.445088	1.409345	0.026792
C87	C	1.778421	1.742679	0.360125
C88	C	1.282737	0.607959	-0.327437
C89	C	1.616070	0.941292	0.005896
C90	C	1.949404	1.274625	0.339230
C91	C	1.364537	0.607976	-0.327442
C92	C	1.697870	0.941309	0.005891
C93	C	2.031203	1.274642	0.339225
C94	C	1.090812	0.607818	-0.519383
C95	C	1.424146	0.941151	-0.186050
C96	C	1.757479	1.274485	0.147284
C97	C	1.090825	0.607775	-0.601184
C98	C	1.424159	0.941108	-0.267851
C99	C	1.757492	1.274442	0.065483
C100	C	1.076096	1.278797	-0.342150
C101	C	1.409430	1.612131	-0.008817
C102	C	1.742763	1.945464	0.324516
C103	C	1.069820	1.138545	-0.348445
C104	C	1.403153	1.471879	-0.015112
C105	C	1.736487	1.805212	0.318222
C106	C	1.040194	0.527006	-0.792987
C107	C	1.373527	0.860339	-0.459654
C108	C	1.706860	1.193673	-0.126321
C109	C	1.040205	0.526981	-0.869847
C110	C	1.373539	0.860314	-0.536514
C111	C	1.706872	1.193647	-0.203180
C112	C	1.141538	0.688393	-0.862625
C113	C	1.474872	1.021727	-0.529292
C114	C	1.808205	1.355060	-0.195959
C115	C	1.141523	0.688424	-0.785766
C116	C	1.474856	1.021758	-0.452433
C117	C	1.808189	1.355091	-0.119100
C118	C	1.090851	0.607723	-0.750950
C119	C	1.424184	0.941057	-0.417616
C120	C	1.757518	1.274390	-0.084283
C121	C	1.090878	0.607667	-0.904668
C122	C	1.424212	0.941000	-0.571335
C123	C	1.757545	1.274334	-0.238002
C124	C	1.090891	0.607640	-0.988003
C125	C	1.424225	0.940973	-0.654670
C126	C	1.757558	1.274307	-0.321337
C127	C	1.090837	0.607752	-0.667609
C128	C	1.424170	0.941085	-0.334276
C129	C	1.757504	1.274418	-0.000943
C130	C	1.090790	0.607928	-0.136219
C131	C	1.424124	0.941261	0.197114
C132	C	1.757457	1.274595	0.530448
C133	C	1.090904	0.607616	-0.054434
C134	C	1.424237	0.940949	0.278899
C135	C	1.757571	1.274282	0.612232
H136	H	0.514931	0.461715	-0.419491
H137	H	0.848264	0.795048	-0.086158
H138	H	1.181597	1.128382	0.247175
H139	H	0.998933	0.461295	-0.764642
H140	H	1.332267	0.794628	-0.431309
H141	H	1.665600	1.127961	-0.097975
H142	H	1.029075	1.084787	-0.389095
H143	H	1.362408	1.418120	-0.055762
H144	H	1.695741	1.751454	0.277571
H145	H	1.152498	1.129778	-0.265884
H146	H	1.485831	1.463111	0.067449
H147	H	1.819164	1.796445	0.400782
F148	F	1.195465	0.774274	-0.899686
F149	F	1.528798	1.107607	-0.566353
F150	F	1.862131	1.440941	-0.233020
H151	H	1.182776	0.754159	-0.751538
H152	H	1.516109	1.087492	-0.418205
H153	H	1.849443	1.420825	-0.084871
H154	H	0.998954	0.461254	-0.904071
H155	H	1.332288	0.794587	-0.570738
H156	H	1.665621	1.127920	-0.237404
F157	F	0.519241	0.774325	-0.222689
F158	F	0.852574	1.107658	0.110644
F159	F	1.185907	1.440991	0.443978
H160	H	0.667390	0.754151	-0.235362
H161	H	1.000723	1.087484	0.097971
H162	H	1.334056	1.420818	0.431305
F163	F	0.663068	0.441541	-0.432177
F164	F	0.996402	0.774874	-0.098843
F165	F	1.329735	1.108208	0.234490
