data_functionalizedCrystal
_audit_creation_method	'MofGen! by Chris Wilmer'
_symmetry_space_group_name_H-M	'P1'
_symmetry_Int_Tables_number	1
_symmetry_cell_setting	triclinic
loop_
_symmetry_equiv_pos_as_xyz
  x,y,z
_cell_length_a	18.426585
_cell_length_b	12.477989
_cell_length_c	18.426585
_cell_angle_alpha	64.370790
_cell_angle_beta	90.000127
_cell_angle_gamma	55.726983
loop_
_atom_site_label
_atom_site_type_symbol
_atom_site_fract_x
_atom_site_fract_y
_atom_site_fract_z
Zr1	Zr	0.647023	1.178127	-0.043161
O2	O	0.521221	1.402650	-0.149107
O3	O	0.692472	0.953593	-0.017568
O4	O	0.682547	1.178122	-0.159039
O5	O	0.531144	1.178129	0.111790
O6	O	0.801973	1.178129	-0.159041
O7	O	0.531146	1.178122	-0.007636
O8	O	0.819727	0.776488	0.094024
O9	O	0.513390	1.579770	-0.141276
O10	O	0.792664	1.045956	0.001663
O11	O	0.703537	1.045956	0.090792
O12	O	0.691851	1.310310	-0.075772
O13	O	0.602724	1.310310	0.013356
Zr14	Zr	0.837490	1.178150	0.147305
Zr15	Zr	0.837493	1.178139	-0.043166
Zr16	Zr	0.647020	1.178139	0.147310
Zr17	Zr	0.634533	1.460612	-0.030671
Zr18	Zr	0.849979	0.895665	0.134815
O19	O	0.792040	1.402684	0.121712
O20	O	0.792045	1.402667	-0.149113
O21	O	0.521217	1.402667	0.121718
O22	O	0.963291	0.953627	0.253251
O23	O	0.963296	0.953610	-0.017574
O24	O	0.692468	0.953610	0.253257
O25	O	0.953368	1.178148	-0.007646
O26	O	0.801965	1.178156	0.263183
O27	O	0.682540	1.178148	0.263186
O28	O	0.953366	1.178156	0.111780
O29	O	0.664789	1.579779	-0.141279
O30	O	0.819724	0.776498	0.245423
O31	O	0.971122	0.776507	0.245420
O32	O	0.971125	0.776498	0.094021
O33	O	0.513388	1.579779	0.010123
O34	O	0.664786	1.579789	0.010120
O35	O	0.792661	1.045967	0.179916
O36	O	0.881789	1.045967	0.090788
O37	O	0.780976	1.310321	0.013352
O38	O	0.691848	1.310321	0.102481
C39	C	0.757879	0.824792	0.036449
C40	C	0.763181	0.704870	0.031146
C41	C	0.504007	1.178124	0.052077
C42	C	0.423148	1.178118	0.052079
C43	C	0.127031	1.178164	0.052066
C44	C	0.209417	1.178158	0.052067
C45	C	0.275087	1.178142	0.052072
C46	C	0.357479	1.178135	0.052075
C47	C	0.980505	1.178154	0.052067
C48	C	1.061365	1.178159	0.052065
C49	C	0.742261	1.178124	-0.186178
C50	C	0.742262	1.178118	-0.267038
C51	C	0.726634	1.531485	0.067696
C52	C	0.721331	1.651407	0.072998
C53	C	0.742263	1.178113	-0.332705
C54	C	0.742262	1.178119	-0.415091
C55	C	0.742258	1.178135	-0.480759
C56	C	0.742255	1.178142	-0.563150
C57	C	0.742252	1.178154	0.290322
C58	C	0.742251	1.178159	0.371182
C59	C	0.996128	0.824807	0.036443
C60	C	1.082290	0.704890	0.031139
C61	C	0.757875	0.824807	0.274699
C62	C	0.763176	0.704890	0.350256
C63	C	0.996124	0.824822	0.274693
C64	C	1.082284	0.704910	0.350249
C65	C	0.488389	1.531455	-0.170549
C66	C	0.402229	1.651367	-0.246105
C67	C	0.488385	1.531470	0.067701
C68	C	0.402223	1.651387	0.073005
C69	C	0.726638	1.531470	-0.170555
C70	C	0.721337	1.651387	-0.246112
C71	C	1.076230	0.648570	-0.017882
C72	C	1.157180	0.535910	-0.022883
C73	C	1.244189	0.479565	0.021142
C74	C	1.250247	0.535897	0.070165
C75	C	1.169297	0.648562	0.075161
C76	C	0.812187	0.648581	0.432269
C77	C	0.817163	0.535922	0.503271
C78	C	0.773134	0.479566	0.492259
C79	C	0.724116	0.535885	0.410238
C80	C	0.719135	0.648550	0.339238
C81	C	1.169277	0.648598	0.339207
C82	C	1.250241	0.535943	0.410193
C83	C	1.244209	0.479595	0.492220
C84	C	1.157206	0.535918	0.503261
C85	C	1.076245	0.648579	0.432276
C86	C	0.315235	1.707693	-0.235062
C87	C	0.234270	1.820382	-0.306046
C88	C	0.240301	1.876737	-0.388073
C89	C	0.327304	1.820406	-0.399115
C90	C	0.408267	1.707726	-0.328131
C91	C	0.408282	1.707719	0.122019
C92	C	0.327331	1.820410	0.127000
C93	C	0.240321	1.876759	0.082972
C94	C	0.234264	1.820422	0.033953
C95	C	0.315215	1.707741	0.028967
C96	C	0.765378	1.707708	-0.235073
C97	C	0.760415	1.820368	-0.306060
C98	C	0.711406	1.876713	-0.388086
C99	C	0.667364	1.820381	-0.399125
C100	C	0.672333	1.707715	-0.328138
H101	H	1.152230	0.490059	-0.062802
H102	H	0.332204	1.866304	-0.465910
H103	H	0.479099	1.661867	-0.337133
N104	N	0.671279	0.709112	0.123020
N105	N	0.666887	0.809730	0.127393
H106	H	0.631534	0.850497	0.162718
N107	N	0.867256	0.478403	0.587039
N108	N	0.952065	0.415540	0.606906
H109	H	0.987445	0.374918	0.666065
H110	H	1.310096	0.387825	0.017068
N111	N	0.679166	0.478280	0.398994
N112	N	0.701689	0.415375	0.356593
H113	H	0.669949	0.374680	0.348653
N114	N	0.706349	1.991782	-0.460592
N115	N	0.779121	1.966600	-0.474830
H116	H	0.775553	2.047868	-0.526035
H117	H	0.479122	1.661849	0.157878
H118	H	0.332281	1.866260	0.166920
N119	N	0.857146	0.706161	0.443534
N120	N	0.810526	0.844491	0.417635
H121	H	0.842275	0.885159	0.425598
H122	H	0.803067	0.658897	-0.008747
N123	N	0.987367	0.706081	-0.062855
N124	N	0.981987	0.655764	-0.106619
H125	H	0.919230	0.696376	-0.138385
N126	N	1.339135	0.478315	0.115129
N127	N	1.411396	0.377713	0.110660
H128	H	1.474177	0.337034	0.142420
H129	H	1.174244	0.694403	0.115084
H130	H	0.310269	1.661879	-0.010943
N131	N	0.157605	1.991837	-0.460588
N132	N	0.138895	2.117592	-0.509713
H133	H	0.080489	2.198879	-0.560925
N134	N	0.617343	1.877943	-0.482930
N135	N	0.658444	1.865348	-0.536233
H136	H	0.623124	1.906014	-0.595429
H137	H	0.174414	1.968511	0.087039
H138	H	0.679228	0.694382	0.272461
N139	N	0.309043	1.650155	-0.151285
N140	N	0.231354	1.700483	-0.141452
H141	H	0.226972	1.659858	-0.082287
N142	N	0.778233	0.364484	0.564798
N143	N	0.822001	0.314229	0.638017
H144	H	0.825608	0.232950	0.689251
H145	H	0.163411	1.866318	-0.001893
H146	H	0.805285	1.661849	-0.168289
N147	N	1.175470	0.706117	0.255429
N148	N	1.253158	0.655810	0.245597
H149	H	1.257540	0.696429	0.186431
H150	H	1.321075	0.490096	0.401187
N151	N	0.805411	1.877876	-0.294758
N152	N	0.849155	1.827559	-0.221513
H153	H	0.880934	1.868171	-0.213528
H154	H	0.163437	1.866228	-0.297040
N155	N	1.326923	0.364516	0.564716
N156	N	1.404588	0.314256	0.554835
H157	H	1.463009	0.232978	0.606032
H158	H	0.636465	1.661872	-0.337138
N159	N	1.151040	0.478365	0.587047
N160	N	1.107518	0.566373	0.613629
H161	H	1.103164	0.525718	0.672805
H162	H	1.005414	0.694413	0.441279
