data_functionalizedCrystal
_audit_creation_method	'MofGen! by Chris Wilmer'
_symmetry_space_group_name_H-M	'P1'
_symmetry_Int_Tables_number	1
_symmetry_cell_setting	triclinic
loop_
_symmetry_equiv_pos_as_xyz
  x,y,z
_cell_length_a	21.395364
_cell_length_b	21.295417
_cell_length_c	21.395356
_cell_angle_alpha	89.970425
_cell_angle_beta	89.976411
_cell_angle_gamma	90.044653
loop_
_atom_site_label
_atom_site_type_symbol
_atom_site_fract_x
_atom_site_fract_y
_atom_site_fract_z
Zn1	Zn	0.957858	-0.250374	-0.354253
Zn2	Zn	1.291191	0.082959	-0.020920
Zn3	Zn	1.624524	0.416293	0.312413
Zn4	Zn	0.957764	-0.355642	-0.249472
Zn5	Zn	1.291097	-0.022309	0.083861
Zn6	Zn	1.624430	0.311024	0.417194
Zn7	Zn	0.853074	-0.250418	-0.249490
Zn8	Zn	1.186408	0.082915	0.083843
Zn9	Zn	1.519741	0.416248	0.417177
Zn10	Zn	0.853044	-0.355637	-0.354213
Zn11	Zn	1.186377	-0.022303	-0.020879
Zn12	Zn	1.519710	0.311030	0.312454
O13	O	0.905435	-0.303018	-0.301857
O14	O	1.238768	0.030315	0.031476
O15	O	1.572102	0.363649	0.364810
O16	O	1.045523	-0.264322	-0.340364
O17	O	1.378856	0.069011	-0.007030
O18	O	1.712190	0.402345	0.326303
O19	O	0.943850	-0.341705	-0.161797
O20	O	1.277183	-0.008372	0.171537
O21	O	1.610517	0.324962	0.504870
O22	O	0.867026	-0.162323	-0.263412
O23	O	1.200360	0.171010	0.069922
O24	O	1.533693	0.504344	0.403255
O25	O	1.045454	-0.341662	-0.263381
O26	O	1.378787	-0.008329	0.069952
O27	O	1.712121	0.325005	0.403285
O28	O	0.944010	-0.162291	-0.340381
O29	O	1.277343	0.171043	-0.007047
O30	O	1.610677	0.504376	0.326286
O31	O	0.866935	-0.264398	-0.161810
O32	O	1.200269	0.068936	0.171524
O33	O	1.533602	0.402269	0.504857
O34	O	0.765392	-0.264392	-0.263372
O35	O	1.098726	0.068941	0.069961
O36	O	1.432059	0.402275	0.403295
O37	O	0.866974	-0.341653	-0.441896
O38	O	1.200307	-0.008319	-0.108563
O39	O	1.533641	0.325014	0.224771
O40	O	0.765370	-0.341696	-0.340311
O41	O	1.098703	-0.008362	-0.006978
O42	O	1.432037	0.324971	0.326355
O43	O	0.943980	-0.264316	-0.441926
O44	O	1.277314	0.069017	-0.108592
O45	O	1.610647	0.402350	0.224741
O46	O	0.943820	-0.443731	-0.263342
O47	O	1.277154	-0.110398	0.069991
O48	O	1.610487	0.222936	0.403325
O49	O	0.866883	-0.443727	-0.340294
O50	O	1.200216	-0.110394	-0.006961
O51	O	1.533550	0.222940	0.326373
C52	C	0.742647	-0.303049	-0.301839
C53	C	1.075981	0.030285	0.031494
C54	C	1.409314	0.363618	0.364827
C55	C	0.673006	-0.303077	-0.301847
C56	C	1.006339	0.030257	0.031487
C57	C	1.339673	0.363590	0.364820
C58	C	0.640351	-0.262872	-0.341993
C59	C	0.973684	0.070462	-0.008660
C60	C	1.307018	0.403795	0.324673
C61	C	0.574916	-0.262855	-0.341996
C62	C	0.908249	0.070478	-0.008662
C63	C	1.241582	0.403812	0.324671
C64	C	0.542138	-0.303055	-0.301858
C65	C	0.875471	0.030279	0.031475
C66	C	1.208804	0.363612	0.364809
C67	C	0.574800	-0.343263	-0.261704
C68	C	0.908134	-0.009929	0.071629
C69	C	1.241467	0.323404	0.404963
C70	C	0.640235	-0.343274	-0.261698
C71	C	0.973568	-0.009940	0.071635
C72	C	1.306901	0.323393	0.404969
C73	C	0.438414	-0.359745	-0.296819
C74	C	0.771748	-0.026412	0.036515
C75	C	1.105081	0.306922	0.369848
C76	C	0.372981	-0.359735	-0.296829
C77	C	0.706315	-0.026401	0.036505
C78	C	1.039648	0.306932	0.369838
C79	C	0.340317	-0.303020	-0.301872
C80	C	0.673650	0.030313	0.031461
C81	C	1.006984	0.363647	0.364795
C82	C	0.373093	-0.246313	-0.306918
C83	C	0.706427	0.087020	0.026415
C84	C	1.039760	0.420353	0.359748
C85	C	0.438528	-0.246324	-0.306913
C86	C	0.771861	0.087009	0.026421
C87	C	1.105194	0.420342	0.359754
C88	C	0.471185	-0.303047	-0.301860
C89	C	0.804519	0.030287	0.031474
C90	C	1.137852	0.363620	0.364807
C91	C	0.236710	-0.262793	-0.342023
C92	C	0.570043	0.070540	-0.008690
C93	C	0.903376	0.403873	0.324643
C94	C	0.171273	-0.262775	-0.342021
C95	C	0.504606	0.070558	-0.008688
C96	C	0.837940	0.403891	0.324645
C97	C	0.171159	-0.343189	-0.261733
C98	C	0.504492	-0.009855	0.071600
C99	C	0.837826	0.323478	0.404934
C100	C	0.236594	-0.343201	-0.261732
C101	C	0.569928	-0.009867	0.071602
C102	C	0.903261	0.323466	0.404935
C103	C	0.269366	-0.303004	-0.301880
C104	C	0.602699	0.030329	0.031453
C105	C	0.936032	0.363663	0.364787
C106	C	0.905355	-0.466570	-0.301825
C107	C	1.238688	-0.133236	0.031508
C108	C	1.572022	0.200097	0.364841
C109	C	0.905378	-0.536538	-0.301833
C110	C	1.238712	-0.203204	0.031501
C111	C	1.572045	0.130129	0.364834
C112	C	0.945441	-0.569330	-0.341939
C113	C	1.278774	-0.235997	-0.008606
C114	C	1.612107	0.097337	0.324728
C115	C	0.945463	-0.635073	-0.341955
C116	C	1.278796	-0.301739	-0.008621
C117	C	1.612130	0.031594	0.324712
C118	C	0.905429	-0.668020	-0.301852
C119	C	1.238762	-0.334687	0.031481
C120	C	1.572096	-0.001353	0.364814
C121	C	0.865359	-0.635220	-0.261743
C122	C	1.198692	-0.301886	0.071590
C123	C	1.532025	0.031447	0.404924
C124	C	0.865333	-0.569478	-0.261733
C125	C	1.198667	-0.236145	0.071600
C126	C	1.532000	0.097188	0.404933
N127	N	0.900693	-0.771282	-0.247019
N128	N	1.234026	-0.437949	0.086315
N129	N	1.567359	-0.104616	0.419648
N130	N	0.900720	-0.833734	-0.247030
N131	N	1.234054	-0.500400	0.086303
N132	N	1.567387	-0.167067	0.419637
C133	C	0.905502	-0.866095	-0.301881
C134	C	1.238836	-0.532761	0.031453
C135	C	1.572169	-0.199428	0.364786
N136	N	0.910267	-0.833645	-0.356721
N137	N	1.243601	-0.500312	-0.023388
N138	N	1.576934	-0.166978	0.309945
N139	N	0.910243	-0.771188	-0.356709
N140	N	1.243576	-0.437855	-0.023376
N141	N	1.576909	-0.104521	0.309957
C142	C	0.905452	-0.739305	-0.301859
C143	C	1.238785	-0.405972	0.031474
C144	C	1.572118	-0.072639	0.364808
C145	C	0.945591	-0.970173	-0.342007
C146	C	1.278924	-0.636839	-0.008674
C147	C	1.612257	-0.303506	0.324659
C148	C	0.945609	-1.035917	-0.342024
C149	C	1.278942	-0.702583	-0.008691
C150	C	1.612275	-0.369250	0.324643
C151	C	0.865508	-1.036062	-0.261807
C152	C	1.198841	-0.702729	0.071527
C153	C	1.532174	-0.369396	0.404860
C154	C	0.865487	-0.970320	-0.261796
C155	C	1.198820	-0.636987	0.071537
C156	C	1.532153	-0.303653	0.404871
C157	C	0.905532	-0.937379	-0.301895
C158	C	1.238865	-0.604046	0.031438
C159	C	1.572198	-0.270712	0.364771
C160	C	1.068858	-0.302988	-0.301875
C161	C	1.402191	0.030346	0.031458
C162	C	1.735525	0.363679	0.364792
C163	C	1.138499	-0.302975	-0.301883
C164	C	1.471833	0.030359	0.031451
C165	C	1.805166	0.363692	0.364784
C166	C	0.905484	-0.302979	-0.465280
C167	C	1.238817	0.030354	-0.131947
C168	C	1.572151	0.363688	0.201386
C169	C	0.905505	-0.302962	-0.534922
C170	C	1.238839	0.030371	-0.201588
C171	C	1.572172	0.363704	0.131745
C172	C	0.905532	-0.138828	-0.301903
C173	C	1.238865	0.194506	0.031431
C174	C	1.572199	0.527839	0.364764
C175	C	0.905574	-0.068859	-0.301922
C176	C	1.238907	0.264474	0.031411
C177	C	1.572240	0.597807	0.364745
C178	C	0.865466	-0.262704	-0.567632
C179	C	1.198800	0.070630	-0.234298
C180	C	1.532133	0.403963	0.099035
C181	C	0.865464	-0.262692	-0.633067
C182	C	1.198798	0.070641	-0.299734
C183	C	1.532131	0.403975	0.033600
C184	C	0.905512	-0.302932	-0.665790
C185	C	1.238845	0.030401	-0.332457
C186	C	1.572179	0.363734	0.000877
C187	C	0.945554	-0.343199	-0.633072
C188	C	1.278887	-0.009865	-0.299739
C189	C	1.612220	0.323468	0.033595
C190	C	0.945550	-0.343214	-0.567638
C191	C	1.278884	-0.009880	-0.234305
C192	C	1.612217	0.323453	0.099029
C193	C	0.961964	-0.307867	-0.769476
C194	C	1.295297	0.025467	-0.436143
C195	C	1.628631	0.358800	-0.102810
C196	C	0.961969	-0.307847	-0.834909
C197	C	1.295302	0.025486	-0.501576
C198	C	1.628635	0.358819	-0.168243
C199	C	0.905522	-0.302890	-0.867611
C200	C	1.238856	0.030444	-0.534278
C201	C	1.572189	0.363777	-0.200944
C202	C	0.849070	-0.297939	-0.834872
C203	C	1.182403	0.035395	-0.501538
C204	C	1.515737	0.368728	-0.168205
C205	C	0.849066	-0.297954	-0.769437
C206	C	1.182400	0.035380	-0.436104
C207	C	1.515733	0.368713	-0.102771
C208	C	0.905520	-0.302921	-0.736742
C209	C	1.238853	0.030412	-0.403409
C210	C	1.572187	0.363746	-0.070076
C211	C	0.865478	-0.262616	-0.971274
C212	C	1.198811	0.070717	-0.637940
C213	C	1.532145	0.404050	-0.304607
C214	C	0.865475	-0.262609	-1.036710
C215	C	1.198808	0.070724	-0.703377
C216	C	1.532141	0.404057	-0.370043
C217	C	0.945570	-0.343113	-1.036714
C218	C	1.278903	-0.009779	-0.703381
C219	C	1.612236	0.323554	-0.370047
C220	C	0.945567	-0.343123	-0.971279
C221	C	1.278901	-0.009790	-0.637945
C222	C	1.612234	0.323544	-0.304612
C223	C	0.905522	-0.302872	-0.938562
C224	C	1.238856	0.030462	-0.605229
C225	C	1.572189	0.363795	-0.271896
C226	C	0.905422	-0.303011	-0.139069
C227	C	1.238755	0.030322	0.194264
C228	C	1.572089	0.363655	0.527597
C229	C	0.905522	-0.302851	-0.069429
C230	C	1.238856	0.030483	0.263905
C231	C	1.572189	0.363816	0.597238
H232	H	0.548323	-0.230112	-0.374687
H233	H	0.881656	0.103221	-0.041353
H234	H	1.214990	0.436555	0.291980
N235	N	0.986480	-0.936505	-0.382967
N236	N	1.319813	-0.603172	-0.049634
N237	N	1.653147	-0.269839	0.283700
N238	N	1.026402	-0.899785	-0.360959
N239	N	1.359735	-0.566451	-0.027625
N240	N	1.693068	-0.233118	0.305708
H241	H	1.055277	-0.876005	-0.389888
H242	H	1.388610	-0.542672	-0.056555
H243	H	1.721944	-0.209339	0.276779
N244	N	0.986383	-0.668588	-0.382922
N245	N	1.319716	-0.335255	-0.049588
N246	N	1.653049	-0.001921	0.283745
N247	N	0.964336	-0.705275	-0.422832
N248	N	1.297670	-0.371941	-0.089499
N249	N	1.631003	-0.038608	0.243835
H250	H	0.993236	-0.728944	-0.451765
H251	H	1.326569	-0.395611	-0.118431
H252	H	1.659903	-0.062278	0.214902
H253	H	0.263394	-0.230059	-0.374711
H254	H	0.596727	0.103275	-0.041377
H255	H	0.930060	0.436608	0.291956
N256	N	0.339727	-0.188381	-0.312077
N257	N	0.673061	0.144952	0.021256
N258	N	1.006394	0.478285	0.354589
N259	N	0.281305	-0.188377	-0.312081
N260	N	0.614638	0.144957	0.021252
N261	N	0.947971	0.478290	0.354586
H262	H	0.257736	-0.147464	-0.315727
H263	H	0.591070	0.185869	0.017606
H264	H	0.924403	0.519202	0.350939
H265	H	0.144472	-0.375920	-0.229052
H266	H	0.477805	-0.042587	0.104281
H267	H	0.811138	0.290747	0.437615
H268	H	0.832866	-0.229828	-1.063342
H269	H	1.166199	0.103506	-0.730008
H270	H	1.499532	0.436839	-0.396675
H271	H	0.832761	-0.662050	-0.229093
H272	H	1.166095	-0.328716	0.104240
H273	H	1.499428	0.004617	0.437574
H274	H	0.803106	-0.293897	-0.861496
H275	H	1.136440	0.039436	-0.528163
H276	H	1.469773	0.372769	-0.194829
N277	N	0.824612	-1.069719	-0.220852
N278	N	1.157945	-0.736385	0.112481
N279	N	1.491278	-0.403052	0.445814
N280	N	0.824636	-1.128416	-0.220868
N281	N	1.157969	-0.795082	0.112465
N282	N	1.491303	-0.461749	0.445798
H283	H	0.795750	-1.152189	-0.191945
H284	H	1.129083	-0.818856	0.141388
H285	H	1.462417	-0.485523	0.474721
N286	N	0.471998	-0.188400	-0.312067
N287	N	0.805332	0.144934	0.021266
N288	N	1.138665	0.478267	0.354599
N289	N	0.442833	-0.137763	-0.316572
N290	N	0.776167	0.195570	0.016761
N291	N	1.109500	0.528903	0.350094
H292	H	0.466472	-0.096852	-0.320211
H293	H	0.799805	0.236481	0.013122
H294	H	1.133138	0.569814	0.346455
H295	H	0.832870	-0.229842	-0.944634
H296	H	1.166204	0.103492	-0.611301
H297	H	1.499537	0.436825	-0.277968
N298	N	0.824555	-0.221589	-0.534224
N299	N	1.157888	0.111744	-0.200890
N300	N	1.491222	0.445078	0.132443
N301	N	0.788805	-0.185649	-0.563442
N302	N	1.122139	0.147685	-0.230109
N303	N	1.455472	0.481018	0.103224
H304	H	0.759909	-0.156612	-0.539847
H305	H	1.093243	0.176721	-0.206514
H306	H	1.426576	0.510054	0.126819
N307	N	0.471779	-0.417679	-0.291654
N308	N	0.805113	-0.084346	0.041680
N309	N	1.138446	0.248987	0.375013
N310	N	0.464418	-0.451753	-0.244631
N311	N	0.797752	-0.118420	0.088703
N312	N	1.131085	0.214914	0.422036
H313	H	0.487983	-0.492667	-0.240980
H314	H	0.821316	-0.159334	0.092353
H315	H	1.154649	0.173999	0.425686
H316	H	0.803101	-0.293923	-0.742784
H317	H	1.136434	0.039410	-0.409450
H318	H	1.469768	0.372743	-0.076117
N319	N	0.986532	-1.069406	-0.383004
N320	N	1.319865	-0.736072	-0.049671
N321	N	1.653198	-0.402739	0.283663
N322	N	1.022278	-1.039983	-0.418803
N323	N	1.355612	-0.706650	-0.085469
N324	N	1.688945	-0.373317	0.247864
H325	H	1.051181	-1.063635	-0.447747
H326	H	1.384515	-0.730302	-0.114414
H327	H	1.717848	-0.396968	0.218920
H328	H	0.263182	-0.375943	-0.229042
H329	H	0.596515	-0.042609	0.104291
H330	H	0.929849	0.290724	0.437624
H331	H	0.548108	-0.375993	-0.229023
H332	H	0.881442	-0.042660	0.104310
H333	H	1.214775	0.290674	0.437644
N334	N	0.137924	-0.221690	-0.383026
N335	N	0.471258	0.111643	-0.049693
N336	N	0.804591	0.444976	0.283640
N337	N	0.167195	-0.185802	-0.418863
N338	N	0.500529	0.147532	-0.085530
N339	N	0.833862	0.480865	0.247804
H340	H	0.143643	-0.156782	-0.447822
H341	H	0.476976	0.176551	-0.114489
H342	H	0.810310	0.509885	0.218845
N343	N	0.339514	-0.417662	-0.291683
N344	N	0.672847	-0.084329	0.041650
N345	N	1.006181	0.249004	0.374984
N346	N	0.368684	-0.468296	-0.287174
N347	N	0.702017	-0.134962	0.046160
N348	N	1.035350	0.198371	0.379493
H349	H	0.345049	-0.509209	-0.283540
H350	H	0.678382	-0.175876	0.049793
H351	H	1.011716	0.157457	0.383126
N352	N	0.673584	-0.384346	-0.220681
N353	N	1.006918	-0.051013	0.112652
N354	N	1.340251	0.282321	0.445985
N355	N	0.644315	-0.420232	-0.184842
N356	N	0.977648	-0.086899	0.148492
N357	N	1.310981	0.246434	0.481825
H358	H	0.667868	-0.449241	-0.155873
H359	H	1.001202	-0.115908	0.177461
H360	H	1.334535	0.217425	0.510794
H361	H	0.978046	-0.542512	-0.374592
H362	H	1.311379	-0.209178	-0.041259
H363	H	1.644713	0.124155	0.292075
H364	H	0.832709	-0.542778	-0.229073
H365	H	1.166042	-0.209445	0.104260
H366	H	1.499375	0.123888	0.437593
H367	H	0.832861	-0.229906	-0.659705
H368	H	1.166194	0.103428	-0.326371
H369	H	1.499528	0.436761	0.006962
N370	N	0.824560	-0.936829	-0.220823
N371	N	1.157893	-0.603496	0.112511
N372	N	1.491227	-0.270162	0.445844
N373	N	0.788815	-0.966251	-0.185021
N374	N	1.122149	-0.632918	0.148312
N375	N	1.455482	-0.299584	0.481645
H376	H	0.759907	-0.942599	-0.156083
H377	H	1.093240	-0.609266	0.177250
H378	H	1.426574	-0.275932	0.510583
H379	H	0.978179	-0.375876	-1.063356
H380	H	1.311512	-0.042542	-0.730023
H381	H	1.644846	0.290791	-0.396690
H382	H	0.978173	-0.375905	-0.944646
H383	H	1.311506	-0.042571	-0.611312
H384	H	1.644840	0.290762	-0.277979
H385	H	1.007936	-0.311876	-0.861561
H386	H	1.341269	0.021458	-0.528227
H387	H	1.674602	0.354791	-0.194894
N388	N	1.019632	-0.312935	-0.736085
N389	N	1.352966	0.020398	-0.402752
N390	N	1.686299	0.353732	-0.069419
N391	N	1.070030	-0.317349	-0.765321
N392	N	1.403363	0.015985	-0.431988
N393	N	1.736696	0.349318	-0.098655
H394	H	1.110757	-0.320929	-0.741741
H395	H	1.444090	0.012404	-0.408407
H396	H	1.777424	0.345738	-0.075074
H397	H	0.978157	-0.375996	-0.541006
H398	H	1.311491	-0.042663	-0.207672
H399	H	1.644824	0.290670	0.125661
N400	N	0.986454	-0.384303	-0.666504
N401	N	1.319787	-0.050970	-0.333171
N402	N	1.653121	0.282363	0.000162
N403	N	0.986452	-0.384285	-0.724927
N404	N	1.319786	-0.050951	-0.391594
N405	N	1.653119	0.282382	-0.058260
H406	H	1.015337	-0.413318	-0.748539
H407	H	1.348670	-0.079985	-0.415206
H408	H	1.682004	0.253348	-0.081872
H409	H	0.667030	-0.230140	-0.374685
H410	H	1.000363	0.103194	-0.041352
H411	H	1.333696	0.436527	0.291982
