data_functionalizedCrystal
_audit_creation_method	'MofGen! by Chris Wilmer'
_symmetry_space_group_name_H-M	'P1'
_symmetry_Int_Tables_number	1
_symmetry_cell_setting	triclinic
loop_
_symmetry_equiv_pos_as_xyz
  x,y,z
_cell_length_a	16.625546
_cell_length_b	12.759401
_cell_length_c	12.759393
_cell_angle_alpha	89.979062
_cell_angle_beta	89.964881
_cell_angle_gamma	90.023993
loop_
_atom_site_label
_atom_site_type_symbol
_atom_site_fract_x
_atom_site_fract_y
_atom_site_fract_z
Zn1	Zn	-0.320930	1.606210	-0.593986
Zn2	Zn	0.179070	2.106210	-0.093986
Zn3	Zn	-0.455784	1.606077	-0.418292
Zn4	Zn	0.044216	2.106077	0.081708
Zn5	Zn	-0.320973	1.430508	-0.418322
Zn6	Zn	0.179027	1.930508	0.081678
Zn7	Zn	-0.455728	1.430476	-0.593930
Zn8	Zn	0.044272	1.930476	-0.093930
O9	O	-0.388354	1.518318	-0.506132
O10	O	0.111646	2.018318	-0.006132
O11	O	-0.338824	1.753213	-0.570692
O12	O	0.161176	2.253213	-0.070692
O13	O	-0.437943	1.582745	-0.271275
O14	O	0.062057	2.082745	0.228725
O15	O	-0.208135	1.453884	-0.441660
O16	O	0.291865	1.953884	0.058340
O17	O	-0.437901	1.753116	-0.441610
O18	O	0.062099	2.253116	0.058390
O19	O	-0.208103	1.582971	-0.570720
O20	O	0.291897	2.082971	-0.070720
O21	O	-0.338897	1.453756	-0.271297
O22	O	0.161103	1.953756	0.228703
O23	O	-0.338843	1.283483	-0.441605
O24	O	0.161157	1.783483	0.058395
O25	O	-0.437805	1.453830	-0.740958
O26	O	0.062195	1.953830	-0.240958
O27	O	-0.437847	1.283460	-0.570623
O28	O	0.062153	1.783460	-0.070623
O29	O	-0.338770	1.582940	-0.741000
O30	O	0.161230	2.082940	-0.241000
O31	O	-0.568609	1.582714	-0.441555
O32	O	-0.068609	2.082714	0.058445
O33	O	-0.568568	1.453701	-0.570595
O34	O	-0.068568	1.953701	-0.070595
C35	C	-0.388344	1.245350	-0.506112
C36	C	0.111656	1.745350	-0.006112
C37	C	-0.388359	1.128574	-0.506128
C38	C	0.111641	1.628574	-0.006128
C39	C	-0.439989	1.073727	-0.573202
C40	C	0.060011	1.573727	-0.073202
C41	C	-0.439992	0.964003	-0.573223
C42	C	0.060008	1.464003	-0.073223
C43	C	-0.336733	0.963982	-0.439086
C44	C	0.163267	1.463982	0.060914
C45	C	-0.336726	1.073704	-0.439071
C46	C	0.163274	1.573704	0.060929
C47	C	-0.597844	1.518218	-0.506088
C48	C	-0.097844	2.018218	-0.006088
C49	C	-0.687466	1.518272	-0.506105
C50	C	-0.187466	2.018272	-0.006105
C51	C	-1.015641	1.518455	-0.506214
C52	C	-0.515641	2.018455	-0.006214
C53	C	-0.924333	1.518401	-0.506187
C54	C	-0.424333	2.018401	-0.006187
C55	C	-0.851556	1.518363	-0.506159
C56	C	-0.351556	2.018363	-0.006159
C57	C	-0.760242	1.518310	-0.506132
C58	C	-0.260242	2.018310	-0.006132
C59	C	-0.178045	1.518446	-0.506200
C60	C	0.321955	2.018446	-0.006200
C61	C	-0.088424	1.518501	-0.506228
C62	C	0.411576	2.018501	-0.006228
C63	C	-0.388364	1.792351	-0.506154
C64	C	0.111636	2.292351	-0.006154
C65	C	-0.388369	1.909128	-0.506163
C66	C	0.111631	2.409128	-0.006163
C67	C	-0.388276	1.518396	-0.780166
C68	C	0.111724	2.018396	-0.280166
C69	C	-0.388243	1.518430	-0.896943
C70	C	0.111757	2.018430	-0.396943
C71	C	-0.336667	1.585663	-0.951828
C72	C	0.163333	2.085663	-0.451828
C73	C	-0.336632	1.585681	-1.061552
C74	C	0.163368	2.085681	-0.561552
C75	C	-0.439757	1.451230	-1.061496
C76	C	0.060243	1.951230	-0.561496
C77	C	-0.439787	1.451208	-0.951774
C78	C	0.060213	1.951208	-0.451774
C79	C	-0.388372	1.518300	-0.233165
C80	C	0.111628	2.018300	0.266835
C81	C	-0.388178	1.518470	-0.116389
C82	C	0.111822	2.018470	0.383611
H83	H	-0.294697	0.919294	-0.384490
H84	H	0.205303	1.419294	0.115510
H85	H	-0.481785	1.396451	-0.907085
H86	H	0.018215	1.896451	-0.407085
H87	H	-0.294633	1.640427	-1.106235
H88	H	0.205367	2.140427	-0.606235
H89	H	-0.481723	1.396502	-1.106153
H90	H	0.018277	1.896502	-0.606153
H91	H	-0.482029	1.118399	-0.627806
H92	H	0.017971	1.618399	-0.127806
H93	H	-0.482033	0.919352	-0.627843
H94	H	0.017967	1.419352	-0.127843
O95	O	-0.286545	1.126827	-0.373811
O96	O	0.213455	1.626827	0.126189
C97	C	-0.240965	1.054872	-0.314641
C98	C	0.259035	1.554872	0.185359
H99	H	-0.273991	0.976640	-0.310930
H100	H	0.226009	1.476640	0.189070
H101	H	-0.179764	1.043250	-0.353262
H102	H	0.320236	1.543250	0.146738
C103	C	-0.188675	1.193736	-0.207406
C104	C	0.311325	1.693736	0.292594
C105	C	-0.229241	1.097653	-0.202840
C106	C	0.270759	1.597653	0.297160
H107	H	-0.181439	1.220126	-0.138443
H108	H	0.318561	1.720126	0.361557
H109	H	-0.219381	1.242214	-0.247272
H110	H	0.280619	1.742214	0.252728
H111	H	-0.137679	1.184037	-0.239594
H112	H	0.362321	1.684037	0.260406
H113	H	-0.280240	1.107355	-0.170664
H114	H	0.219760	1.607355	0.329336
H115	H	-0.198544	1.049177	-0.162966
H116	H	0.301456	1.549177	0.337034
H117	H	-0.294695	1.640397	-0.907188
H118	H	0.205305	2.140397	-0.407188
