data_functionalizedCrystal
_audit_creation_method	'MofGen! by Chris Wilmer'
_symmetry_space_group_name_H-M	'P1'
_symmetry_Int_Tables_number	1
_symmetry_cell_setting	triclinic
loop_
_symmetry_equiv_pos_as_xyz
  x,y,z
_cell_length_a	14.044220
_cell_length_b	10.654550
_cell_length_c	9.130313
_cell_angle_alpha	90.004369
_cell_angle_beta	89.998564
_cell_angle_gamma	88.836904
loop_
_atom_site_label
_atom_site_type_symbol
_atom_site_fract_x
_atom_site_fract_y
_atom_site_fract_z
O1	O	-1.259697	-0.302986	-0.121643
O2	O	-0.983656	-0.292053	-0.121680
O3	O	-1.128023	-0.115418	-0.121651
O4	O	-1.115330	-0.479621	-0.121672
O5	O	-1.128013	-0.115411	0.121947
O6	O	-0.983646	-0.292046	0.121919
O7	O	-1.259687	-0.302979	0.121956
Cu8	Cu	-1.121666	-0.297512	0.144180
Cu9	Cu	-1.121678	-0.297520	-0.143904
O10	O	-1.115320	-0.479614	0.121927
C11	C	-0.948305	-0.287263	0.000115
C12	C	-0.842986	-0.272988	0.000101
C13	C	-1.127086	-0.068523	0.000147
C14	C	-1.124298	0.071201	0.000144
C15	C	-1.295038	-0.307769	0.000158
C16	C	-1.400358	-0.322044	0.000162
C17	C	-0.650153	-0.246889	0.000131
C18	C	-0.593185	-0.348137	0.000132
C19	C	-0.485886	-0.333615	0.000149
C20	C	-0.757462	-0.261409	0.000114
C21	C	-1.116257	-0.526509	0.000126
C22	C	-1.119045	-0.666233	0.000119
N23	N	-1.121664	-0.297507	0.346803
C24	C	-1.209299	0.142144	0.000155
C25	C	-1.206673	0.273429	0.000137
C26	C	-1.034038	0.262814	0.000103
C27	C	-1.036665	0.131532	0.000111
N28	N	-1.121686	-0.297516	-0.346527
C29	C	-1.185612	-0.219331	0.423467
C30	C	-1.185621	-0.219332	0.576804
C31	C	-1.057732	-0.375695	0.576798
C32	C	-1.057719	-0.375687	0.423464
H33	H	-0.618342	-0.149310	0.000145
H34	H	-1.237679	-0.155670	0.361053
C35	C	-0.636154	-0.479970	0.000091
H36	H	-0.703681	-0.472565	0.000065
H37	H	-0.615662	-0.524349	0.085029
H38	H	-0.615642	-0.524316	-0.084878
C39	C	-0.937649	0.329183	0.000087
H40	H	-0.948257	0.417531	0.000100
H41	H	-0.902614	0.305482	-0.084863
H42	H	-0.902614	0.305492	0.085044
C43	C	-0.943159	0.053488	0.000103
H44	H	-0.890591	0.108220	0.000104
H45	H	-0.940601	0.002045	-0.084842
H46	H	-0.940594	0.002065	0.085066
C47	C	-1.305691	0.075784	0.000176
H48	H	-1.355937	0.136843	0.000166
H49	H	-1.310303	0.024799	0.085126
H50	H	-1.310306	0.024785	-0.084781
H51	H	-1.275890	0.331186	0.000143
C52	C	-1.255967	-0.133344	0.661129
H53	H	-1.294050	-0.086792	0.593506
H54	H	-1.221514	-0.077177	0.720958
H55	H	-1.295752	-0.183022	0.720929
H56	H	-1.005670	-0.439350	0.639231
H57	H	-1.005641	-0.439347	0.361040
