data_functionalizedCrystal
_audit_creation_method	'MofGen! by Chris Wilmer'
_symmetry_space_group_name_H-M	'P1'
_symmetry_Int_Tables_number	1
_symmetry_cell_setting	triclinic
loop_
_symmetry_equiv_pos_as_xyz
  x,y,z
_cell_length_a	13.897449
_cell_length_b	16.625539
_cell_length_c	13.897448
_cell_angle_alpha	89.972451
_cell_angle_beta	90.018972
_cell_angle_gamma	89.980569
loop_
_atom_site_label
_atom_site_type_symbol
_atom_site_fract_x
_atom_site_fract_y
_atom_site_fract_z
Zn1	Zn	1.474690	-0.455889	-0.383980
Zn2	Zn	1.474588	-0.321058	-0.545293
Zn3	Zn	1.313383	-0.321072	-0.384018
Zn4	Zn	1.313361	-0.455851	-0.545239
O5	O	1.394006	-0.388468	-0.464632
O6	O	1.609658	-0.438014	-0.405386
O7	O	1.453170	-0.208228	-0.523938
O8	O	1.334833	-0.338978	-0.249031
O9	O	1.609583	-0.338954	-0.523902
O10	O	1.453344	-0.438027	-0.249004
O11	O	1.334734	-0.208238	-0.405450
O12	O	1.178398	-0.338941	-0.405397
O13	O	1.334795	-0.568688	-0.523809
O14	O	1.178382	-0.437962	-0.523845
O15	O	1.453323	-0.568716	-0.405333
O16	O	1.453149	-0.338917	-0.680268
O17	O	1.334696	-0.437948	-0.680227
C18	C	1.143391	-0.388449	-0.464620
C19	C	1.036177	-0.388460	-0.464637
C20	C	0.839882	-0.388482	-0.464641
C21	C	0.949115	-0.388468	-0.464636
C22	C	1.394068	-0.598777	-0.464561
C23	C	1.394095	-0.688398	-0.464530
C24	C	1.394139	-1.016574	-0.464422
C25	C	1.394124	-0.925265	-0.464455
C26	C	1.394118	-0.852489	-0.464477
C27	C	1.394102	-0.761174	-0.464508
C28	C	1.645598	-0.388486	-0.464646
C29	C	1.752812	-0.388495	-0.464652
C30	C	1.393935	-0.388444	-0.715247
C31	C	1.393993	-0.388461	-0.822461
C32	C	1.393999	-0.178977	-0.464634
C33	C	1.394159	-0.089356	-0.464393
C34	C	1.394095	-0.388512	-1.018756
C35	C	1.394036	-0.388486	-0.909523
C36	C	1.394102	-0.388509	-0.213039
C37	C	1.394144	-0.388526	-0.105825
