data_functionalizedCrystal
_audit_creation_method	'MofGen! by Chris Wilmer'
_symmetry_space_group_name_H-M	'P1'
_symmetry_Int_Tables_number	1
_symmetry_cell_setting	triclinic
loop_
_symmetry_equiv_pos_as_xyz
  x,y,z
_cell_length_a	18.050591
_cell_length_b	21.295417
_cell_length_c	18.050582
_cell_angle_alpha	90.026755
_cell_angle_beta	90.020922
_cell_angle_gamma	90.026512
loop_
_atom_site_label
_atom_site_type_symbol
_atom_site_fract_x
_atom_site_fract_y
_atom_site_fract_z
Zn1	Zn	1.135281	-0.250716	0.420010
Zn2	Zn	1.635281	0.249284	0.920010
Zn3	Zn	1.135186	-0.355977	0.295811
Zn4	Zn	1.635186	0.144023	0.795811
Zn5	Zn	1.011100	-0.250719	0.295821
Zn6	Zn	1.511100	0.249281	0.795821
Zn7	Zn	1.011043	-0.355944	0.419946
Zn8	Zn	1.511043	0.144056	0.919946
O9	O	1.073153	-0.303339	0.357897
O10	O	1.573153	0.196661	0.857897
O11	O	1.239193	-0.264692	0.403557
O12	O	1.739193	0.235308	0.903557
O13	O	1.118710	-0.342030	0.191887
O14	O	1.618710	0.157970	0.691887
O15	O	1.027636	-0.162629	0.312326
O16	O	1.527636	0.337371	0.812326
O17	O	1.239124	-0.342027	0.312308
O18	O	1.739124	0.157973	0.812308
O19	O	1.118871	-0.162627	0.403567
O20	O	1.618871	0.337373	0.903567
O21	O	1.027545	-0.264697	0.191895
O22	O	1.527545	0.235303	0.691895
O23	O	0.907168	-0.264664	0.312264
O24	O	1.407168	0.235336	0.812264
O25	O	1.027539	-0.341971	0.523879
O26	O	1.527539	0.158029	1.023879
O27	O	0.907126	-0.341973	0.403458
O28	O	1.407126	0.158027	0.903458
O29	O	1.118816	-0.264660	0.523926
O30	O	1.618816	0.235340	1.023926
O31	O	1.118655	-0.444062	0.312247
O32	O	1.618655	0.055938	0.812247
O33	O	1.027448	-0.444038	0.403449
O34	O	1.527448	0.055962	0.903449
C35	C	0.880200	-0.303316	0.357856
C36	C	1.380200	0.196684	0.857856
C37	C	0.797655	-0.303321	0.357856
C38	C	1.297655	0.196679	0.857856
C39	C	0.598205	-0.261232	0.308379
C40	C	1.098205	0.238768	0.808379
C41	C	0.548783	-0.318646	0.290098
C42	C	1.048783	0.181354	0.790098
C43	C	0.646524	-0.303340	0.357889
C44	C	1.146524	0.196660	0.857889
C45	C	0.548865	-0.245945	0.376169
C46	C	1.048865	0.254055	0.876169
C47	C	0.500539	-0.303353	0.357920
C48	C	1.000539	0.196647	0.857920
C49	C	0.598189	-0.360785	0.339573
C50	C	1.098189	0.139215	0.839573
C51	C	0.598276	-0.288045	0.425676
C52	C	1.098276	0.211955	0.925676
C53	C	0.548875	-0.345499	0.407420
C54	C	1.048875	0.154501	0.907420
C55	C	0.730623	-0.303331	0.357870
C56	C	1.230623	0.196669	0.857870
C57	C	0.416443	-0.303368	0.357940
C58	C	0.916443	0.196632	0.857940
C59	C	1.073055	-0.466891	0.357856
C60	C	1.573055	0.033109	0.857856
C61	C	1.073081	-0.536859	0.357863
C62	C	1.573081	-0.036859	0.857863
C63	C	1.120615	-0.569717	0.310423
C64	C	1.620615	-0.069717	0.810423
C65	C	1.120650	-0.635460	0.310440
C66	C	1.620650	-0.135460	0.810440
C67	C	1.073138	-0.668341	0.357889
C68	C	1.573138	-0.168341	0.857889
C69	C	1.025600	-0.635475	0.405338
C70	C	1.525600	-0.135475	0.905338
C71	C	1.025572	-0.569734	0.405325
C72	C	1.525572	-0.069734	0.905325
N73	N	1.008171	-0.771604	0.363536
N74	N	1.508171	-0.271604	0.863536
N75	N	1.008200	-0.834055	0.363544
N76	N	1.508200	-0.334055	0.863544
C77	C	1.073221	-0.866416	0.357931
C78	C	1.573221	-0.366416	0.857931
N79	N	1.138214	-0.833966	0.352296
N80	N	1.638214	-0.333966	0.852296
N81	N	1.138184	-0.771509	0.352284
N82	N	1.638184	-0.271509	0.852284
C83	C	1.073163	-0.739627	0.357908
C84	C	1.573163	-0.239627	0.857908
C85	C	1.120797	-0.970560	0.310507
C86	C	1.620797	-0.470560	0.810507
C87	C	1.120833	-1.036304	0.310529
C88	C	1.620833	-0.536304	0.810529
C89	C	1.025776	-1.036318	0.405423
C90	C	1.525776	-0.536318	0.905423
C91	C	1.025747	-0.970575	0.405405
C92	C	1.525747	-0.470575	0.905405
C93	C	1.073256	-0.937700	0.357943
C94	C	1.573256	-0.437700	0.857943
C95	C	1.266858	-0.303363	0.357939
C96	C	1.766858	0.196637	0.857939
C97	C	1.349404	-0.303373	0.357956
C98	C	1.849404	0.196627	0.857956
C99	C	1.073182	-0.303311	0.551603
C100	C	1.573182	0.196689	1.051603
C101	C	1.073194	-0.303299	0.634148
C102	C	1.573194	0.196701	1.134148
C103	C	1.073270	-0.139149	0.357954
C104	C	1.573270	0.360851	0.857954
C105	C	1.073321	-0.069181	0.357979
C106	C	1.573321	0.430819	0.857979
C107	C	1.073166	-0.303322	0.164945
C108	C	1.573166	0.196678	0.664945
C109	C	1.073298	-0.303156	0.082399
C110	C	1.573298	0.196844	0.582399
C111	C	1.023596	-0.345283	0.833574
C112	C	1.523596	0.154717	1.333574
C113	C	1.091350	-0.360675	0.882971
C114	C	1.591350	0.139325	1.382971
C115	C	1.073231	-0.303251	0.785279
C116	C	1.573231	0.196749	1.285279
C117	C	1.005513	-0.287842	0.882964
C118	C	1.505513	0.212158	1.382964
C119	C	1.073260	-0.303206	0.931264
C120	C	1.573260	0.196794	1.431264
C121	C	1.141021	-0.318673	0.833589
C122	C	1.641021	0.181327	1.333589
C123	C	1.055138	-0.245814	0.833577
C124	C	1.555138	0.254186	1.333577
C125	C	1.122940	-0.261183	0.882952
C126	C	1.622940	0.238817	1.382952
C127	C	1.073213	-0.303279	0.701181
C128	C	1.573213	0.196721	1.201181
C129	C	1.073286	-0.303178	1.015361
C130	C	1.573286	0.196822	1.515361
H131	H	0.620032	-0.275080	0.482970
H132	H	1.120032	0.224920	0.982970
Br133	Br	1.185102	-0.525104	0.246021
Br134	Br	1.685102	-0.025104	0.746021
Br135	Br	0.512999	-0.404925	0.477231
Br136	Br	1.012999	0.095075	0.977231
Br137	Br	0.512743	-0.165038	0.401913
Br138	Br	1.012743	0.334962	0.901913
H139	H	0.986864	-0.542980	0.443958
H140	H	1.486864	-0.042980	0.943958
Br141	Br	0.961231	-0.925978	0.469790
Br142	Br	1.461231	-0.425978	0.969790
H143	H	0.986917	-0.662251	0.443973
H144	H	1.486917	-0.162251	0.943973
Br145	Br	1.185269	-0.925940	0.246093
Br146	Br	1.685269	-0.425940	0.746093
Br147	Br	1.029571	-0.164908	0.797385
Br148	Br	1.529571	0.335092	1.297385
H149	H	0.948233	-0.274828	0.904653
H150	H	1.448233	0.225172	1.404653
Br151	Br	1.185166	-0.680064	0.246052
Br152	Br	1.685166	-0.180064	0.746052
H153	H	0.987094	-1.063089	0.444060
H154	H	1.487094	-0.563089	0.944060
Br155	Br	1.185357	-1.080899	0.246147
Br156	Br	1.685357	-0.580899	0.746147
Br157	Br	0.953699	-0.404601	0.797435
Br158	Br	1.453699	0.095399	1.297435
Br159	Br	0.512550	-0.340228	0.194575
Br160	Br	1.012550	0.159772	0.694575
Br161	Br	0.634145	-0.441719	0.313716
Br162	Br	1.134145	0.058281	0.813716
Br163	Br	0.634308	-0.201942	0.238523
Br164	Br	1.134308	0.298058	0.738523
H165	H	1.106671	-0.409229	0.904667
H166	H	1.606671	0.090771	1.404667
Br167	Br	1.236518	-0.340462	0.797597
Br168	Br	1.736518	0.159538	1.297597
Br169	Br	1.192998	-0.201906	0.918865
Br170	Br	1.692998	0.298094	1.418865
