data_functionalizedCrystal
_audit_creation_method	'MofGen! by Chris Wilmer'
_symmetry_space_group_name_H-M	'P1'
_symmetry_Int_Tables_number	1
_symmetry_cell_setting	triclinic
loop_
_symmetry_equiv_pos_as_xyz
  x,y,z
_cell_length_a	15.625950
_cell_length_b	15.995292
_cell_length_c	14.750779
_cell_angle_alpha	77.363466
_cell_angle_beta	120.090508
_cell_angle_gamma	83.874922
loop_
_atom_site_label
_atom_site_type_symbol
_atom_site_fract_x
_atom_site_fract_y
_atom_site_fract_z
O1	O	1.286205	0.025809	0.367747
O2	O	0.999279	0.061509	0.267903
O3	O	1.150615	-0.078845	0.320563
O4	O	1.134869	0.166164	0.315087
O5	O	1.193396	-0.118518	0.495100
O6	O	1.042060	0.021836	0.442440
O7	O	1.328986	-0.013863	0.542284
Zn8	Zn	1.192315	-0.002312	0.520073
Zn9	Zn	1.135950	0.049958	0.290114
O10	O	1.177650	0.126491	0.489624
C11	C	0.983953	0.043985	0.342395
C12	C	0.874551	0.050863	0.304325
C13	C	0.631215	-0.034567	0.654690
C14	C	0.528401	-0.028076	0.618868
C15	C	0.481814	0.015170	0.428613
C16	C	0.584626	0.008687	0.464418
C17	C	0.659319	-0.016183	0.577458
C18	C	0.612730	0.027071	0.387187
C19	C	0.715533	0.020583	0.422990
C20	C	0.790233	-0.004288	0.536025
C21	C	0.762123	-0.022671	0.613261
C22	C	0.538035	0.051934	0.274148
C23	C	0.566140	0.070318	0.196916
C24	C	0.668944	0.063837	0.232719
C25	C	0.743643	0.038966	0.345754
C26	C	0.697054	0.082220	0.155483
C27	C	0.799857	0.075733	0.191286
C28	C	0.846447	0.032479	0.381557
C29	C	1.171364	-0.129827	0.407606
C30	C	1.169440	-0.222628	0.406929
C31	C	1.162379	-0.559818	0.404481
C32	C	1.271705	-0.545111	0.442881
C33	C	1.273684	-0.448507	0.443206
C34	C	1.165883	-0.392534	0.405697
C35	C	1.086844	-0.394723	0.287028
C36	C	1.085510	-0.491393	0.286491
C37	C	1.131929	-0.536191	0.484195
C38	C	1.136299	-0.440313	0.486917
C39	C	1.167857	-0.297991	0.406378
C40	C	1.160401	-0.654359	0.403791
C41	C	1.344311	0.003662	0.467789
C42	C	1.453712	-0.003215	0.505852
C43	C	1.156901	0.177473	0.402579
C44	C	1.158822	0.270276	0.403248
N45	N	1.230790	-0.037986	0.677017
N46	N	1.097482	0.085625	0.133173
C47	C	0.990026	0.185221	0.945057
C48	C	1.016995	0.160227	1.054940
C49	C	1.151030	0.035983	1.101543
C50	C	1.124070	0.060964	0.991661
C51	C	1.043568	0.135583	0.913426
C52	C	1.177612	0.011327	0.960029
C53	C	1.150657	0.036308	0.850157
C54	C	1.070160	0.110926	0.771917
C55	C	1.016613	0.160565	0.803554
C56	C	1.258118	-0.063289	1.038267
C57	C	1.311660	-0.112926	1.006636
C58	C	1.284700	-0.087949	0.896761
C59	C	1.204204	-0.013331	0.818520
C60	C	1.338247	-0.137587	0.865124
C61	C	1.311292	-0.112606	0.755252
C62	C	1.177249	0.011651	0.708649
H63	H	0.420986	0.035415	0.336576
N64	N	0.616493	0.109042	0.033565
H65	H	0.632195	0.064872	0.000987
H66	H	0.547136	0.110371	0.022690
H67	H	1.280064	-0.083623	1.127731
N68	N	1.425070	-0.218067	0.949512
H69	H	1.454899	-0.245722	0.912801
H70	H	1.479806	-0.199742	1.010241
H71	H	1.004315	-0.498673	0.254108
H72	H	0.907266	0.012240	0.473604
N73	N	0.498095	-0.047912	0.702179
H74	H	0.561106	-0.065246	0.779245
H75	H	0.449018	0.006524	0.689181
N76	N	1.369003	-0.166146	0.721098
H77	H	1.401439	-0.127168	0.690673
H78	H	1.424036	-0.217213	0.787359
N79	N	1.398488	-0.193403	1.091020
H80	H	1.407442	-0.201697	1.165425
H81	H	1.382406	-0.247556	1.067859
N82	N	1.113002	-0.349747	0.206260
H83	H	1.126721	-0.393345	0.171933
H84	H	1.053808	-0.297856	0.146494
H85	H	0.951053	0.221322	0.739848
N86	N	0.903189	0.265697	0.860660
H87	H	0.873353	0.293352	0.897366
H88	H	0.929719	0.310159	0.828191
N89	N	0.711782	-0.061384	0.776613
H90	H	0.763465	-0.117534	0.798490
H91	H	0.747403	-0.012487	0.792834
N92	N	1.212899	-0.442026	0.602915
H93	H	1.266544	-0.411979	0.602865
H94	H	1.176590	-0.409765	0.630726
H95	H	0.873941	-0.009570	0.565174
N96	N	0.427155	0.058925	0.235530
H97	H	0.385251	0.121471	0.186766
H98	H	0.401336	0.016431	0.192392
H99	H	0.505312	0.090564	0.104879
N100	N	0.842694	-0.049482	0.735182
H101	H	0.809293	-0.060140	0.778681
H102	H	0.894353	-0.105613	0.756962
H103	H	0.822738	0.090707	0.128396
H104	H	1.333965	-0.449056	0.529531
N105	N	1.307392	-0.407004	0.368200
H106	H	1.308813	-0.344004	0.368094
H107	H	1.378068	-0.442208	0.395626
N108	N	1.350689	-0.608056	0.556968
H109	H	1.316375	-0.646721	0.584871
H110	H	1.404078	-0.646510	0.553722
H111	H	1.105068	-0.504223	0.225147
N112	N	0.959250	0.213774	1.089061
H113	H	0.904167	0.264836	1.022825
H114	H	0.926876	0.174732	1.119502
N115	N	1.304102	-0.566474	0.368045
H116	H	1.248268	-0.585637	0.309377
H117	H	1.316726	-0.512106	0.331795
N118	N	0.980558	-0.343209	0.245548
H119	H	0.982627	-0.317894	0.303420
H120	H	0.954609	-0.293348	0.175418
H121	H	1.216578	-0.024771	1.165255
H122	H	1.184845	-0.584134	0.571712
N123	N	1.034008	-0.390354	0.458606
H124	H	1.005267	-0.335797	0.392435
H125	H	0.985310	-0.429774	0.440873
H126	H	1.111689	0.072408	0.644942
N127	N	1.025648	-0.546619	0.448036
H128	H	0.997328	-0.566549	0.380371
H129	H	1.028721	-0.592305	0.509627
N130	N	1.041072	0.137883	0.653407
H131	H	1.101521	0.150901	0.650213
H132	H	1.020234	0.088096	0.622022
