data_functionalizedCrystal
_audit_creation_method	'MofGen! by Chris Wilmer'
_symmetry_space_group_name_H-M	'P1'
_symmetry_Int_Tables_number	1
_symmetry_cell_setting	triclinic
loop_
_symmetry_equiv_pos_as_xyz
  x,y,z
_cell_length_a	12.827893
_cell_length_b	16.120484
_cell_length_c	12.827885
_cell_angle_alpha	87.136072
_cell_angle_beta	90.019272
_cell_angle_gamma	92.925431
loop_
_atom_site_label
_atom_site_type_symbol
_atom_site_fract_x
_atom_site_fract_y
_atom_site_fract_z
Zn1	Zn	1.576504	-0.331866	0.611895
Zn2	Zn	1.567505	-0.471301	0.445998
Zn3	Zn	1.401742	-0.331907	0.437171
Zn4	Zn	1.392841	-0.471239	0.620694
O5	O	1.484648	-0.401579	0.528940
O6	O	1.721545	-0.350372	0.589900
O7	O	1.545475	-0.452853	0.298594
O8	O	1.432416	-0.215236	0.452972
O9	O	1.714934	-0.452814	0.468017
O10	O	1.560812	-0.215206	0.581341
O11	O	1.423690	-0.350441	0.292109
O12	O	1.254326	-0.350381	0.461505
O13	O	1.417245	-0.452708	0.765761
O14	O	1.247787	-0.452748	0.596338
O15	O	1.552181	-0.350311	0.759296
O16	O	1.536844	-0.587959	0.476549
O17	O	1.408520	-0.587913	0.604897
C18	C	1.213139	-0.401562	0.528919
C19	C	1.096985	-0.401576	0.528936
C20	C	1.041987	-0.452309	0.595563
C21	C	0.921936	-0.452324	0.595582
C22	C	1.470768	-0.618186	0.542658
C23	C	1.464925	-0.710851	0.548562
C24	C	1.454265	-0.880512	0.559362
C25	C	1.515219	-0.921804	0.498534
C26	C	1.509287	-1.016209	0.504544
C27	C	1.460195	-0.786099	0.553355
C28	C	1.757217	-0.401595	0.528962
C29	C	1.873370	-0.401602	0.528971
C30	C	1.484724	-0.401498	0.801505
C31	C	1.484757	-0.401464	0.917656
C32	C	1.498611	-0.184125	0.515191
C33	C	1.504561	-0.091460	0.509332
C34	C	1.484636	-0.401598	0.257431
C35	C	1.484821	-0.401397	0.141266
C36	C	1.551535	-0.350785	0.966241
C37	C	1.551570	-0.350749	1.086289
H38	H	1.571857	-0.886255	0.441944
H39	H	1.397630	-0.916059	0.615947
O40	O	0.865575	-0.504262	0.663536
C41	C	0.886868	-0.587348	0.645833
H42	H	0.916632	-0.591501	0.562626
H43	H	0.812415	-0.628502	0.657309
H44	H	0.948772	-0.609228	0.703249
H45	H	1.608676	-0.307421	0.918962
O46	O	1.619676	-0.299008	1.136303
C47	C	1.604560	-0.310499	1.245031
H48	H	1.522152	-0.337809	1.261555
H49	H	1.615625	-0.248069	1.282638
H50	H	1.663677	-0.354910	1.278820
O51	O	1.416576	-0.453248	1.091588
C52	C	1.354505	-0.500320	1.166022
H53	H	1.397068	-0.503235	1.244043
H54	H	1.339171	-0.565995	1.138561
H55	H	1.277087	-0.469796	1.175648
H56	H	1.427605	-0.444820	0.964935
H57	H	1.055194	-0.358148	0.471913
O58	O	1.091794	-0.504027	0.663745
C59	C	1.066386	-0.485941	0.766817
H60	H	1.040568	-0.419371	0.768044
H61	H	1.137780	-0.493108	0.818808
H62	H	1.000266	-0.530720	0.796944
O63	O	0.929873	-0.349896	0.460869
C64	C	0.989921	-0.397338	0.396311
H65	H	1.002140	-0.460563	0.437054
H66	H	1.068880	-0.363415	0.380284
H67	H	0.947303	-0.406399	0.319392
