data_functionalizedCrystal
_audit_creation_method	'MofGen! by Chris Wilmer'
_symmetry_space_group_name_H-M	'P1'
_symmetry_Int_Tables_number	1
_symmetry_cell_setting	triclinic
loop_
_symmetry_equiv_pos_as_xyz
  x,y,z
_cell_length_a	15.944545
_cell_length_b	11.026607
_cell_length_c	10.065875
_cell_angle_alpha	79.268236
_cell_angle_beta	81.255204
_cell_angle_gamma	83.958906
loop_
_atom_site_label
_atom_site_type_symbol
_atom_site_fract_x
_atom_site_fract_y
_atom_site_fract_z
O1	O	1.147766	-0.138652	-0.113399
O2	O	0.906136	-0.157953	-0.113420
O3	O	1.006924	0.028351	-0.113407
O4	O	1.046977	-0.324956	-0.113413
O5	O	0.987727	-0.007317	0.113580
O6	O	0.886938	-0.193621	0.113566
O7	O	1.128569	-0.174320	0.113587
Zn8	Zn	1.004705	-0.189633	0.149615
Zn9	Zn	1.029999	-0.142639	-0.149449
O10	O	1.027780	-0.360624	0.113573
C11	C	0.865122	-0.174986	0.000070
C12	C	0.771514	-0.172586	0.000062
C13	C	0.482339	-0.049941	0.000078
C14	C	0.532394	-0.126658	0.111996
C15	C	0.434575	-0.164036	0.000085
C16	C	0.551307	-0.091523	-0.111794
C17	C	0.600124	-0.168231	0.000071
C18	C	0.483389	-0.240738	0.112096
C19	C	0.502304	-0.205570	-0.111795
C20	C	0.552337	-0.282376	0.000150
C21	C	0.339206	-0.161617	0.000094
C22	C	0.695491	-0.170660	0.000072
C23	C	0.989937	0.055729	0.000084
C24	C	0.967911	0.190445	0.000077
C25	C	1.169582	-0.157286	0.000094
C26	C	1.263191	-0.159684	0.000093
C27	C	1.044768	-0.388001	0.000079
C28	C	1.066795	-0.522716	0.000077
N29	N	0.987449	-0.221705	0.353719
C30	C	1.028730	0.264247	0.000081
C31	C	1.005966	0.403484	0.000074
N32	N	1.047260	-0.110558	-0.353552
C33	C	1.023988	-0.153790	0.421502
C34	C	1.010716	-0.178483	0.578668
H35	H	0.451823	0.048301	0.000189
H36	H	1.065094	-0.077360	0.363184
O37	O	1.101711	-0.009307	0.569213
H38	H	1.167248	-0.028817	0.596546
H39	H	0.946336	-0.298126	0.412039
O40	O	0.590586	-0.007972	-0.237089
H41	H	0.638055	-0.063480	-0.298599
H42	H	0.937040	0.443375	0.000059
O43	O	0.444267	-0.324213	0.237585
H44	H	0.374586	-0.321739	0.236637
H45	H	0.546038	-0.093342	0.206616
O46	O	0.592557	-0.412635	0.000226
H47	H	0.565040	-0.474309	0.093216
O48	O	0.956272	-0.279737	0.655916
H49	H	0.983760	-0.369993	0.628555
H50	H	1.097652	0.224350	0.000095
O51	O	0.484183	-0.249630	-0.237134
H52	H	0.545180	-0.272506	-0.300126
O53	O	1.158099	0.424465	0.000093
H54	H	1.161653	0.323391	0.000107
O55	O	0.876610	0.243270	0.000078
H56	H	0.873056	0.344340	0.000087
