data_functionalizedCrystal
_audit_creation_method	'MofGen! by Chris Wilmer'
_symmetry_space_group_name_H-M	'P1'
_symmetry_Int_Tables_number	1
_symmetry_cell_setting	triclinic
loop_
_symmetry_equiv_pos_as_xyz
  x,y,z
_cell_length_a	16.992697
_cell_length_b	16.992695
_cell_length_c	15.500218
_cell_angle_alpha	92.998974
_cell_angle_beta	92.993033
_cell_angle_gamma	90.668337
loop_
_atom_site_label
_atom_site_type_symbol
_atom_site_fract_x
_atom_site_fract_y
_atom_site_fract_z
O1	O	-1.054314	-0.170381	-0.071820
O2	O	-0.554314	0.329619	0.428180
O3	O	-0.825915	-0.168551	-0.071849
O4	O	-0.325915	0.331449	0.428151
O5	O	-0.939199	-0.055265	-0.071828
O6	O	-0.439199	0.444735	0.428172
O7	O	-0.941030	-0.283666	-0.071841
O8	O	-0.441030	0.216334	0.428159
O9	O	-0.932249	-0.048325	0.072061
O10	O	-0.432249	0.451675	0.572061
O11	O	-0.818966	-0.161610	0.072040
O12	O	-0.318966	0.338390	0.572040
O13	O	-1.047364	-0.163440	0.072069
O14	O	-0.547364	0.336560	0.572069
Cu15	Cu	-0.932531	-0.161891	0.085193
Cu16	Cu	-0.432531	0.338109	0.585193
Cu17	Cu	-0.940749	-0.170099	-0.084972
Cu18	Cu	-0.440749	0.329901	0.415028
O19	O	-0.934081	-0.276725	0.072048
O20	O	-0.434081	0.223275	0.572048
C21	C	-0.793080	-0.162725	0.000092
C22	C	-0.293080	0.337275	0.500092
C23	C	-0.705596	-0.155696	0.000081
C24	C	-0.205596	0.344304	0.500081
N25	N	-0.926756	-0.156118	0.204878
N26	N	-0.426756	0.343882	0.704878
C27	C	-0.659606	-0.223514	0.000077
C28	C	-0.159606	0.276486	0.500077
C29	C	-0.577405	-0.216905	0.000088
C30	C	-0.077405	0.283095	0.500088
C31	C	-0.541196	-0.142476	0.000097
C32	C	-0.041196	0.357524	0.500097
C33	C	-0.587192	-0.074653	0.000103
C34	C	-0.087192	0.425347	0.500103
C35	C	-0.669392	-0.081263	0.000098
C36	C	-0.169392	0.418737	0.500098
C37	C	-0.295881	-0.115080	0.000117
C38	C	0.204119	0.384920	0.500117
C39	C	-0.213675	-0.108476	0.000120
C40	C	0.286325	0.391524	0.500120
C41	C	-0.203893	-0.250728	0.000106
C42	C	0.296107	0.249272	0.500106
C43	C	-0.286094	-0.257331	0.000096
C44	C	0.213906	0.242669	0.500096
C45	C	-0.332084	-0.189508	0.000107
C46	C	0.167916	0.310492	0.500107
N47	N	-0.457173	-0.135719	0.000105
N48	N	0.042827	0.364281	0.500105
N49	N	-0.416104	-0.196266	0.000105
N50	N	0.083896	0.303734	0.500105
C51	C	-0.080199	-0.169266	0.000122
C52	C	0.419801	0.330734	0.500122
C53	C	-0.167684	-0.176294	0.000116
C54	C	0.332316	0.323706	0.500116
C55	C	-0.933368	-0.022435	0.000116
C56	C	-0.433368	0.477565	0.500116
C57	C	-0.926339	0.065050	0.000115
C58	C	-0.426339	0.565050	0.500115
C59	C	-0.939912	-0.309556	0.000102
C60	C	-0.439912	0.190444	0.500102
C61	C	-0.946941	-0.397041	0.000097
C62	C	-0.446941	0.102959	0.500097
C63	C	-0.994157	0.111041	0.000125
C64	C	-0.494157	0.611041	0.500125
C65	C	-0.987548	0.193241	0.000116
C66	C	-0.487548	0.693241	0.500116
C67	C	-0.913121	0.229449	0.000103
C68	C	-0.413121	0.729449	0.500103
C69	C	-0.845299	0.183452	0.000091
C70	C	-0.345299	0.683452	0.500091
C71	C	-0.851909	0.101253	0.000094
C72	C	-0.351909	0.601253	0.500094
C73	C	-0.885728	0.474763	0.000088
C74	C	-0.385728	0.974763	0.500088
C75	C	-0.879123	0.556968	0.000088
C76	C	-0.379123	1.056968	0.500088
C77	C	-1.021373	0.566752	0.000111
C78	C	-0.521373	1.066752	0.500111
C79	C	-1.027976	0.484551	0.000119
C80	C	-0.527976	0.984551	0.500119
C81	C	-0.960154	0.438561	0.000102
C82	C	-0.460154	0.938561	0.500102
N83	N	-0.906365	0.313471	0.000097
N84	N	-0.406365	0.813471	0.500097
N85	N	-0.966912	0.354540	0.000102
N86	N	-0.466912	0.854540	0.500102
C87	C	-0.975305	-0.204699	0.250154
C88	C	-0.475305	0.295301	0.750154
C89	C	-0.970948	-0.200329	0.340727
C90	C	-0.470948	0.299671	0.840727
C91	C	-0.918037	-0.147380	0.386022
C92	C	-0.418037	0.352620	0.886022
C93	C	-0.869485	-0.098794	0.340739
C94	C	-0.369485	0.401206	0.840739
C95	C	-0.873847	-0.103161	0.250168
C96	C	-0.373847	0.396839	0.750168
C97	C	-0.902333	-0.131651	0.659489
C98	C	-0.402333	0.368349	1.159489
C99	C	-0.897974	-0.127289	0.750066
C100	C	-0.397974	0.372711	1.250066
C101	C	-0.999438	-0.228824	0.750048
C102	C	-0.499438	0.271176	1.250048
C103	C	-1.003792	-0.233189	0.659475
C104	C	-0.503792	0.266811	1.159475
C105	C	-0.955243	-0.184600	0.614200
C106	C	-0.455243	0.315400	1.114200
C107	C	-0.913580	-0.142913	0.478602
C108	C	-0.413580	0.357087	0.978602
C109	C	-0.959704	-0.189063	0.521622
C110	C	-0.459704	0.310937	1.021622
N111	N	-0.946523	-0.175870	0.795343
N112	N	-0.446523	0.324130	1.295343
H113	H	-0.689081	-0.284122	0.000069
H114	H	-0.189081	0.215878	0.500069
O115	O	-0.798847	0.596030	0.000072
O116	O	-0.298847	1.096030	0.500072
H117	H	-0.768847	0.575088	-0.058586
H118	H	-0.268847	1.075088	0.441414
H119	H	-1.054763	0.081567	0.000140
H120	H	-0.554763	0.581567	0.500140
O121	O	-0.765025	0.222507	0.000082
O122	O	-0.265025	0.722507	0.500082
H123	H	-0.735022	0.201560	-0.058572
H124	H	-0.235022	0.701560	0.441428
H125	H	-1.038964	-0.268382	0.786920
H126	H	-0.538964	0.231618	1.286920
O127	O	-0.778759	0.051648	0.000092
O128	O	-0.278759	0.551648	0.500092
H129	H	-0.781195	0.011136	-0.058557
H130	H	-0.281195	0.511136	0.441443
H131	H	-0.854883	-0.084172	0.786943
H132	H	-0.354883	0.415828	1.286943
O133	O	-0.812579	0.425164	0.000092
O134	O	-0.312579	0.925164	0.500092
H135	H	-0.759717	0.464154	0.000098
H136	H	-0.259717	0.964154	0.500098
H137	H	-0.184197	-0.047864	0.000126
H138	H	0.315803	0.452136	0.500126
O139	O	-1.032374	-0.261809	0.201301
O140	O	-0.532374	0.238191	0.701301
H141	H	-1.065406	-0.294850	0.248005
H142	H	-0.565406	0.205150	0.748005
H143	H	-1.010484	-0.239887	0.377587
H144	H	-0.510484	0.260113	0.877587
O145	O	-0.718995	-0.008113	0.000102
O146	O	-0.218995	0.491887	0.500102
H147	H	-0.753847	-0.004893	0.058754
H148	H	-0.253847	0.495107	0.558754
H149	H	-1.046880	-0.276303	0.622602
H150	H	-0.546880	0.223697	1.122602
H151	H	-0.862801	-0.092085	0.622637
H152	H	-0.362801	0.407915	1.122637
H153	H	-0.826407	-0.055678	0.377625
H154	H	-0.326407	0.444322	0.877625
H155	H	-0.834312	-0.063601	0.213305
H156	H	-0.334312	0.436399	0.713305
O157	O	-1.016765	-0.246177	0.472771
O158	O	-0.516765	0.253823	0.972771
H159	H	-1.058693	-0.213108	0.431500
H160	H	-0.558693	0.286892	0.931500
O161	O	-0.345479	-0.041932	0.000129
O162	O	0.154521	0.458068	0.500129
H163	H	-0.306489	0.010930	0.000129
H164	H	0.193511	0.510930	0.500129
O165	O	-0.856512	-0.085805	0.527456
O166	O	-0.356512	0.414195	1.027456
H167	H	-0.795504	-0.099788	0.510074
H168	H	-0.295504	0.400212	1.010074
O169	O	-0.527797	-0.290050	0.000084
O170	O	-0.027797	0.209950	0.500084
H171	H	-0.566785	-0.342915	0.000066
H172	H	-0.066785	0.157085	0.500066
O173	O	-1.094519	0.616358	0.000121
O174	O	-0.594519	1.116358	0.500121
H175	H	-1.127055	0.605765	0.058777
H176	H	-0.627055	1.105765	0.558777
H177	H	-0.315570	-0.317939	0.000078
H178	H	0.184430	0.182061	0.500078
O179	O	-1.060693	0.242850	0.000140
O180	O	-0.560693	0.742850	0.500140
H181	H	-1.113556	0.203863	0.000165
H182	H	-0.613556	0.703863	0.500165
O183	O	-0.154287	-0.323874	0.000113
O184	O	0.345713	0.176126	0.500113
H185	H	-0.119418	-0.327096	-0.058525
H186	H	0.380582	0.172904	0.441475
O187	O	-0.548145	0.005626	0.000116
O188	O	-0.048145	0.505626	0.500116
H189	H	-0.483260	-0.001170	0.000111
H190	H	0.016740	0.498830	0.500111
H191	H	-1.088582	0.455077	0.000129
H192	H	-0.588582	0.955077	0.500129
