data_functionalizedCrystal
_audit_creation_method	'MofGen! by Chris Wilmer'
_symmetry_space_group_name_H-M	'P1'
_symmetry_Int_Tables_number	1
_symmetry_cell_setting	triclinic
loop_
_symmetry_equiv_pos_as_xyz
  x,y,z
_cell_length_a	26.374263
_cell_length_b	26.373608
_cell_length_c	26.370205
_cell_angle_alpha	60.005297
_cell_angle_beta	60.010839
_cell_angle_gamma	59.993700
loop_
_atom_site_label
_atom_site_type_symbol
_atom_site_fract_x
_atom_site_fract_y
_atom_site_fract_z
O1	O	0.070152	-0.740800	0.619517
O2	O	0.026377	-0.576764	0.499159
O3	O	0.130245	-0.680560	0.499088
O4	O	-0.033715	-0.637003	0.619589
O5	O	0.164701	-0.646107	0.533470
O6	O	0.060833	-0.542310	0.533541
O7	O	0.104608	-0.706346	0.653899
Cu8	Cu	0.085867	-0.621182	0.596859
Cu9	Cu	0.045119	-0.661927	0.556199
O10	O	0.000741	-0.602549	0.653971
N11	N	0.114528	-0.592529	0.625461
N12	N	0.016463	-0.690587	0.527598
C13	C	0.181428	-0.355400	0.692330
C14	C	0.181530	-0.525690	0.862573
C15	C	0.181440	-0.525667	0.692313
C16	C	0.351736	-0.525673	0.692271
C17	C	0.200174	-0.411588	0.711047
C18	C	0.200232	-0.506954	0.806384
C19	C	0.295546	-0.506943	0.711016
C20	C	0.200182	-0.506940	0.711037
C21	C	0.157567	-0.283881	0.668507
C22	C	0.157587	-0.549500	0.668479
C23	C	0.224035	-0.483107	0.734871
C24	C	0.455739	-0.507754	0.637520
C25	C	0.520749	-0.529425	0.615835
C26	C	0.520768	-0.634611	0.655947
C27	C	0.455759	-0.612939	0.677633
C28	C	0.173240	-0.251367	0.604595
C29	C	0.151546	-0.186351	0.582941
C30	C	0.098512	-0.186369	0.689113
C31	C	0.120206	-0.251385	0.710768
C32	C	0.093669	-0.533798	0.684205
C33	C	0.071992	-0.555464	0.662532
C34	C	0.178144	-0.608536	0.609422
C35	C	0.199825	-0.586869	0.631088
C36	C	0.093821	-0.533842	0.966616
C37	C	0.072187	-0.555526	1.031630
C38	C	0.178370	-0.608608	1.031591
C39	C	0.200004	-0.586926	0.966576
C40	C	0.157728	-0.549541	0.934090
C41	C	0.423247	-0.549509	0.668416
C42	C	-0.097522	-0.709158	0.508557
C43	C	-0.002050	-0.709295	0.413344
C44	C	-0.002241	-0.804604	0.508735
C45	C	-0.002225	-0.709288	0.508793
C46	C	-0.026009	-0.733087	0.484858
N47	N	0.552340	-0.592538	0.625346
O48	O	0.750867	-0.598274	0.477076
O49	O	0.751048	-0.718989	0.640960
O50	O	0.750981	-0.718715	0.537020
O51	O	0.750934	-0.598547	0.581017
O52	O	0.647701	-0.684348	0.571512
O53	O	0.647768	-0.684622	0.675452
O54	O	0.647587	-0.563907	0.511569
Cu55	Cu	0.638247	-0.621127	0.596660
Cu56	Cu	0.760388	-0.661769	0.555869
O57	O	0.647654	-0.564181	0.615509
N58	N	0.846295	-0.690358	0.527176
N59	N	0.114503	-0.154778	0.625499
O60	O	-0.033701	0.043855	0.619632
O61	O	0.130190	0.043858	0.498933
O62	O	0.026233	0.043841	0.499224
O63	O	0.070257	0.043872	0.619341
O64	O	0.060690	-0.059448	0.533654
O65	O	0.164647	-0.059431	0.533363
O66	O	0.000756	-0.059434	0.654062
Cu67	Cu	0.085848	-0.068863	0.596857
Cu68	Cu	0.045099	0.053287	0.556138
O69	O	0.104714	-0.059417	0.653771
N70	N	0.016435	0.139202	0.527497
N71	N	0.114760	-0.592585	1.063190
O72	O	0.108896	-0.740779	1.261808
O73	O	-0.011787	-0.576838	1.261822
O74	O	-0.011509	-0.680779	1.261780
O75	O	0.108618	-0.636838	1.261850
O76	O	0.022916	-0.646341	1.158496
O77	O	0.022638	-0.542399	1.158538
O78	O	0.143321	-0.706341	1.158524
Cu79	Cu	0.086123	-0.621225	1.149100
Cu80	Cu	0.045411	-0.661953	1.271246
O81	O	0.143044	-0.602399	1.158566
N82	N	0.016774	-0.690600	1.357156
C83	C	0.039504	-0.538867	0.499769
C84	C	0.168130	-0.667407	0.499680
C85	C	0.091482	-0.744243	0.653289
C86	C	-0.037145	-0.615703	0.653378
C87	C	0.699429	-0.718429	0.678853
C88	C	0.699348	-0.718091	0.550135
C89	C	0.699202	-0.564465	0.473677
C90	C	0.699287	-0.564805	0.602393
C91	C	0.168023	-0.007659	0.499484
C92	C	0.039327	-0.007807	0.499887
C93	C	-0.037119	-0.007789	0.653468
C94	C	0.091620	-0.007770	0.653109
C95	C	-0.011194	-0.538964	1.210181
C96	C	-0.010843	-0.667676	1.210109
C97	C	0.142729	-0.744214	1.210165
C98	C	0.142386	-0.615494	1.210214
H99	H	0.059391	-0.503396	0.940172
C100	C	0.699267	-0.513805	0.615107
C101	C	0.645657	-0.489564	0.668039
C102	C	0.645637	-0.438564	0.680752
C103	C	0.699227	-0.411804	0.640535
C104	C	0.752841	-0.436045	0.587600
C105	C	0.752861	-0.487045	0.574886
H106	H	0.605983	-0.509373	0.697813
H107	H	0.605948	-0.420619	0.719939
H108	H	0.699212	-0.374050	0.649946
H109	H	0.792515	-0.416235	0.557825
H110	H	0.792550	-0.504989	0.535700
C111	C	0.231475	-0.007267	0.448159
C112	C	0.282600	-0.007060	0.460492
C113	C	0.346052	-0.006667	0.409167
C114	C	0.358379	-0.006482	0.345510
C115	C	0.307254	-0.006688	0.333174
C116	C	0.243801	-0.007081	0.384499
H117	H	0.273475	-0.007197	0.507617
H118	H	0.383899	-0.006514	0.418299
H119	H	0.405351	-0.006191	0.307516
H120	H	0.316378	-0.006551	0.286049
H121	H	0.205955	-0.007234	0.375367
C122	C	0.026601	-0.007818	0.448905
C123	C	0.066795	-0.061457	0.422188
C124	C	0.054069	-0.061468	0.371206
C125	C	0.001149	-0.007839	0.346942
C126	C	-0.039049	0.045804	0.373660
C127	C	-0.026323	0.045815	0.424641
H128	H	0.105973	-0.101160	0.440149
H129	H	0.083826	-0.101178	0.351428
H130	H	-0.008272	-0.007847	0.309203
H131	H	-0.078227	0.085507	0.355698
H132	H	-0.056080	0.085526	0.444419
C133	C	0.104347	-0.007762	0.704091
C134	C	0.064154	0.045876	0.730810
C135	C	0.076881	0.045884	0.781793
C136	C	0.129801	-0.007746	0.806056
C137	C	0.169998	-0.061388	0.779336
C138	C	0.157271	-0.061396	0.728354
H139	H	0.024976	0.085580	0.712849
H140	H	0.047124	0.085594	0.801572
H141	H	0.139222	-0.007740	0.843796
H142	H	0.209176	-0.101092	0.797297
H143	H	0.187028	-0.101106	0.708574
C144	C	0.193373	-0.602800	1.210232
C145	C	0.255841	-0.607244	1.156606
C146	C	0.306828	-0.594550	1.156625
C147	C	0.295349	-0.577412	1.210269
C148	C	0.232879	-0.572968	1.263900
C149	C	0.181891	-0.585662	1.263881
H150	H	0.264341	-0.619931	1.116891
H151	H	0.353073	-0.597840	1.116923
H152	H	0.333093	-0.568015	1.210283
H153	H	0.224379	-0.560281	1.303615
H154	H	0.135647	-0.582372	1.303583
H155	H	0.020147	-0.542732	1.058106
H156	H	-0.084187	-0.007791	0.691362
H157	H	0.212798	-0.639038	1.058038
C158	C	-0.062383	-0.475358	1.210185
C159	C	-0.049979	-0.424184	1.210211
C160	C	-0.101168	-0.360578	1.210215
C161	C	-0.164761	-0.348146	1.210193
C162	C	-0.177169	-0.399322	1.210166
C163	C	-0.125980	-0.462928	1.210162
H164	H	-0.002900	-0.433386	1.210228
H165	H	-0.091982	-0.322694	1.210234
H166	H	-0.202654	-0.301061	1.210195
H167	H	-0.224247	-0.390121	1.210150
H168	H	-0.135165	-0.500812	1.210143
C169	C	0.699495	-0.769630	0.742437
C170	C	0.753164	-0.832086	0.746628
C171	C	0.753230	-0.883286	0.810212
C172	C	0.699627	-0.872031	0.869604
C173	C	0.645954	-0.809572	0.865415
C174	C	0.645888	-0.758372	0.801831
H175	H	0.792848	-0.840420	0.702660
H176	H	0.792963	-0.929522	0.813312
H177	H	0.699676	-0.909932	0.916673
H178	H	0.606270	-0.801238	0.909383
H179	H	0.606155	-0.712136	0.798731
C180	C	-0.061808	-0.680347	1.210020
C181	C	-0.049086	-0.744027	1.209969
C182	C	-0.100050	-0.756697	1.209880
C183	C	-0.163736	-0.705688	1.209841
C184	C	-0.176461	-0.642004	1.209892
C185	C	-0.125497	-0.629333	1.209982
H186	H	-0.001939	-0.781791	1.209997
H187	H	-0.090630	-0.803841	1.209842
H188	H	-0.201463	-0.715068	1.209775
H189	H	-0.223608	-0.604240	1.209864
H190	H	-0.134917	-0.582189	1.210019
H191	H	0.699366	-0.755841	0.540718
H192	H	0.180620	-0.791296	1.210154
H193	H	0.252044	-0.599714	0.940097
H194	H	0.059274	-0.503369	0.714648
H195	H	0.030155	-0.491745	0.461969
C196	C	0.699126	-0.513262	0.410096
C197	C	0.699099	-0.525672	0.358917
C198	C	0.699023	-0.474468	0.295337
C199	C	0.698974	-0.410854	0.282935
C200	C	0.699001	-0.398441	0.334116
C201	C	0.699077	-0.449645	0.397696
H202	H	0.699136	-0.572765	0.368096
H203	H	0.699004	-0.483657	0.257450
H204	H	0.698918	-0.372950	0.235869
H205	H	0.698964	-0.351348	0.324937
H206	H	0.699097	-0.440456	0.435584
C207	C	0.001682	-0.538198	0.679823
C208	C	-0.039100	-0.557136	0.748492
C209	C	-0.109408	-0.539871	0.765782
C210	C	-0.138933	-0.503669	0.714402
C211	C	-0.098151	-0.484729	0.645729
C212	C	-0.027843	-0.501994	0.628439
H213	H	-0.017244	-0.583937	0.786530
H214	H	-0.139597	-0.553891	0.816619
H215	H	-0.190979	-0.490888	0.727201
H216	H	-0.120007	-0.457928	0.607691
H217	H	0.002347	-0.487974	0.577602
H218	H	-0.084239	-0.606419	0.691217
H219	H	0.212545	-0.638970	0.578981
C220	C	0.270133	-0.604125	0.613795
C221	C	0.310984	-0.672787	0.632687
C222	C	0.381289	-0.690037	0.615395
C223	C	0.410744	-0.638626	0.579211
C224	C	0.369892	-0.569959	0.560317
C225	C	0.299587	-0.552709	0.577609
H226	H	0.289180	-0.710849	0.659474
H227	H	0.411530	-0.740869	0.629382
H228	H	0.462788	-0.651396	0.566411
H229	H	0.391696	-0.531897	0.533530
H230	H	0.269346	-0.501877	0.563622
C231	C	0.420024	-0.658876	0.711612
C232	C	0.428999	-0.712117	0.771983
C233	C	0.393266	-0.758059	0.805959
C234	C	0.348559	-0.750760	0.779563
C235	C	0.339582	-0.697516	0.719188
C236	C	0.375315	-0.651575	0.685212
H237	H	0.462096	-0.717523	0.791526
H238	H	0.399911	-0.797473	0.850652
H239	H	0.322107	-0.784768	0.804713
H240	H	0.306485	-0.692111	0.699645
H241	H	0.368669	-0.612160	0.640519
C242	C	0.556534	-0.704383	0.666081
C243	C	0.520794	-0.750317	0.700068
C244	C	0.556562	-0.820089	0.710201
C245	C	0.628071	-0.843928	0.686347
C246	C	0.663815	-0.797993	0.652358
C247	C	0.628046	-0.728221	0.642225
H248	H	0.467855	-0.732671	0.717728
H249	H	0.530102	-0.854093	0.735362
H250	H	0.654549	-0.895578	0.693848
H251	H	0.716753	-0.815639	0.634698
H252	H	0.654507	-0.694217	0.617064
H253	H	0.547206	-0.495421	0.590679
H254	H	0.203661	-0.277820	0.570179
C255	C	0.419972	-0.437979	0.627385
C256	C	0.428884	-0.390707	0.561045
C257	C	0.393120	-0.320933	0.550908
C258	C	0.348444	-0.298432	0.607111
C259	C	0.339531	-0.345705	0.673456
C260	C	0.375295	-0.415479	0.683593
H261	H	0.461957	-0.407363	0.519435
H262	H	0.399718	-0.285938	0.501794
H263	H	0.321970	-0.246781	0.599607
H264	H	0.306458	-0.329050	0.715065
H265	H	0.368696	-0.450474	0.732707
C266	C	0.168786	-0.150579	0.512634
C267	C	0.209888	-0.186324	0.466149
C268	C	0.227129	-0.150555	0.395842
C269	C	0.203269	-0.079041	0.372020
C270	C	0.162165	-0.043292	0.418506
C271	C	0.144924	-0.079061	0.488813
H272	H	0.227553	-0.239267	0.483783
H273	H	0.257557	-0.177020	0.361430
H274	H	0.216032	-0.052563	0.319974
H275	H	0.144500	0.009651	0.400872
H276	H	0.114496	-0.052597	0.523224
H277	H	0.107441	-0.277854	0.762810
C278	C	0.057419	-0.150621	0.735600
C279	C	0.082327	-0.159564	0.782356
C280	C	0.041232	-0.123818	0.828844
C281	C	-0.024771	-0.079128	0.828575
C282	C	-0.049682	-0.070183	0.781817
C283	C	-0.008588	-0.105929	0.735329
H284	H	0.131189	-0.192648	0.782557
H285	H	0.059674	-0.130441	0.863457
H286	H	-0.055191	-0.052667	0.862988
H287	H	-0.098545	-0.037099	0.781616
H288	H	-0.027029	-0.099306	0.700716
C289	C	0.231747	-0.679945	0.448555
C290	C	0.282870	-0.743581	0.461076
C291	C	0.346487	-0.756120	0.409951
C292	C	0.358980	-0.705022	0.346306
C293	C	0.307856	-0.641381	0.333782
C294	C	0.244239	-0.628843	0.384907
H295	H	0.273623	-0.781411	0.508192
H296	H	0.384333	-0.803231	0.419222
H297	H	0.406073	-0.714303	0.308460
H298	H	0.317103	-0.603552	0.286666
H299	H	0.206393	-0.581732	0.375636
H300	H	0.100832	-0.791364	0.691090
