data_functionalizedCrystal
_audit_creation_method	'MofGen! by Chris Wilmer'
_symmetry_space_group_name_H-M	'P1'
_symmetry_Int_Tables_number	1
_symmetry_cell_setting	triclinic
loop_
_symmetry_equiv_pos_as_xyz
  x,y,z
_cell_length_a	10.654549
_cell_length_b	10.654542
_cell_length_c	16.776229
_cell_angle_alpha	90.008181
_cell_angle_beta	89.994474
_cell_angle_gamma	95.514440
loop_
_atom_site_label
_atom_site_type_symbol
_atom_site_fract_x
_atom_site_fract_y
_atom_site_fract_z
O1	O	0.176391	-1.667851	-0.066306
O2	O	0.193199	-1.302372	-0.066303
O3	O	0.002056	-1.493512	-0.066302
O4	O	0.367534	-1.476712	-0.066308
O5	O	0.002044	-1.493486	0.066275
O6	O	0.193187	-1.302347	0.066273
O7	O	0.176379	-1.667825	0.066270
Zn8	Zn	0.184781	-1.485082	0.087321
Zn9	Zn	0.184797	-1.485116	-0.087354
O10	O	0.367522	-1.476686	0.066269
C11	C	0.191960	-1.255561	-0.000015
C12	C	0.188269	-1.116118	-0.000013
C13	C	-0.044748	-1.492264	-0.000014
C14	C	-0.184191	-1.488570	-0.000017
N15	N	0.184770	-1.485068	0.206532
C16	C	-0.474177	-1.710193	-0.000015
C17	C	-0.422640	-1.826212	-0.000014
C18	C	-0.291622	-1.829687	-0.000015
C19	C	-0.212136	-1.717131	-0.000014
C20	C	-0.263672	-1.601113	-0.000015
C21	C	-0.394695	-1.597650	-0.000016
C22	C	-0.235727	-1.372551	-0.000018
C23	C	-0.366745	-1.369073	-0.000022
C24	C	-0.156241	-1.259995	-0.000017
C25	C	-0.207777	-1.143974	-0.000023
C26	C	-0.338803	-1.140503	-0.000023
C27	C	-0.418281	-1.253054	-0.000023
C28	C	0.414326	-1.477934	-0.000020
C29	C	0.553769	-1.481628	-0.000023
C30	C	0.181324	-0.854126	-0.144562
C31	C	0.183067	-0.919658	-0.216830
C32	C	0.186544	-1.050676	-0.216828
C33	C	0.188276	-1.116165	-0.144551
C34	C	0.186533	-1.050632	-0.072283
C35	C	0.183059	-0.919611	-0.072292
C36	C	0.186526	-1.050586	0.072254
C37	C	0.183058	-0.919567	0.072255
C38	C	0.188258	-1.116075	0.144532
C39	C	0.186524	-1.050541	0.216801
C40	C	0.183048	-0.919515	0.216797
C41	C	0.181315	-0.854035	0.144522
C42	C	0.177623	-0.714636	-0.000019
C43	C	0.181326	-0.854078	-0.000023
N44	N	0.184799	-1.485140	-0.206565
C45	C	0.100167	-1.569731	0.248250
C46	C	0.100166	-1.569738	0.331702
C47	C	0.184775	-1.485087	0.373435
C48	C	0.269382	-1.400415	0.331712
C49	C	0.269376	-1.400403	0.248261
C50	C	0.269407	-1.400461	0.668259
C51	C	0.269409	-1.400482	0.751715
C52	C	0.100197	-1.569795	0.751700
C53	C	0.100191	-1.569783	0.668250
C54	C	0.184793	-1.485108	0.626533
C55	C	0.184791	-1.485099	0.536045
C56	C	0.184783	-1.485100	0.463922
H57	H	-0.580860	-1.707374	-0.000024
N58	N	0.360625	-1.309080	0.203267
H59	H	0.449900	-1.324314	0.217776
H60	H	0.347672	-1.321955	0.144083
N61	N	0.008935	-1.661120	0.796694
H62	H	0.024240	-1.750372	0.782155
H63	H	0.021816	-1.648175	0.855878
N64	N	-0.508369	-1.947607	-0.000006
H65	H	-0.599189	-1.927807	-0.000006
H66	H	-0.491565	-1.998135	-0.049152
N67	N	0.188424	-1.121355	-0.294775
H68	H	0.267583	-1.166209	-0.297996
H69	H	0.112097	-1.185156	-0.297942
N70	N	-0.122033	-1.022599	-0.000021
H71	H	-0.138701	-0.972039	-0.049169
H72	H	-0.138769	-0.972116	0.049156
N73	N	-0.014928	-1.263735	-0.000025
H74	H	0.022118	-1.219693	0.049119
H75	H	0.005556	-1.354339	-0.000059
H76	H	0.178492	-0.747352	0.144512
N77	N	0.360662	-1.309169	0.796730
H78	H	0.414252	-1.255520	0.757641
H79	H	0.312050	-1.253251	0.831368
H80	H	-0.105456	-1.719972	-0.000006
H81	H	0.191081	-1.222757	0.144528
H82	H	0.031274	-1.638668	0.214277
N83	N	0.192019	-1.257477	-0.144538
H84	H	0.115136	-1.298521	-0.116155
H85	H	0.192897	-1.288959	-0.201304
N86	N	0.360657	-1.309128	0.623281
H87	H	0.449930	-1.324367	0.637795
H88	H	0.347715	-1.321990	0.564096
H89	H	-0.249663	-1.924159	-0.000010
N90	N	0.177587	-0.712813	-0.144557
H91	H	0.254472	-0.671760	-0.172933
H92	H	0.098990	-0.690865	-0.172914
H93	H	0.031275	-1.638676	0.365669
N94	N	0.188385	-1.121172	0.294750
H95	H	0.190844	-1.214116	0.283784
H96	H	0.265500	-1.088763	0.326303
N97	N	0.181191	-0.849015	-0.294779
H98	H	0.257465	-0.785150	-0.298006
H99	H	0.182773	-0.910491	-0.340516
H100	H	-0.524964	-1.250239	-0.000027
N101	N	0.181157	-0.848841	0.294745
H102	H	0.181905	-0.910319	0.340524
H103	H	0.257885	-0.785575	0.298135
N104	N	0.008941	-1.661090	0.623237
H105	H	-0.044659	-1.714724	0.662329
H106	H	-0.047030	-1.612521	0.588626
N107	N	0.360632	-1.309102	0.376719
H108	H	0.347802	-1.321957	0.435915
H109	H	0.449864	-1.324376	0.362121
H110	H	-0.380754	-1.046026	-0.000015
