data_functionalizedCrystal
_audit_creation_method	'MofGen! by Chris Wilmer'
_symmetry_space_group_name_H-M	'P1'
_symmetry_Int_Tables_number	1
_symmetry_cell_setting	triclinic
loop_
_symmetry_equiv_pos_as_xyz
  x,y,z
_cell_length_a	8.597366
_cell_length_b	8.634740
_cell_length_c	8.140239
_cell_angle_alpha	90.001421
_cell_angle_beta	82.300763
_cell_angle_gamma	92.879812
loop_
_atom_site_label
_atom_site_type_symbol
_atom_site_fract_x
_atom_site_fract_y
_atom_site_fract_z
O1	O	2.117279	0.230667	-0.163085
O2	O	1.663030	0.248367	-0.098785
O3	O	1.868652	0.014717	-0.127895
O4	O	1.911657	0.464317	-0.133975
O5	O	1.868638	0.014714	-0.401120
O6	O	1.663016	0.248364	-0.372010
O7	O	2.117265	0.230664	-0.436310
Zn8	Zn	1.890138	0.239513	-0.447541
Zn9	Zn	1.890156	0.239517	-0.087555
O10	O	1.911643	0.464314	-0.407200
C11	C	1.604265	0.246465	-0.227080
C12	C	1.429182	0.240785	-0.202297
C13	C	1.858903	-0.042882	-0.263126
C14	C	1.829855	-0.214503	-0.259007
C15	C	2.176030	0.232565	-0.308011
C16	C	2.351113	0.238246	-0.332784
C17	C	1.921392	0.521912	-0.271965
C18	C	1.950440	0.693533	-0.276074
N19	N	1.890137	0.239510	-0.693223
N20	N	1.890168	0.239508	0.158126
H21	H	1.362076	0.238600	-0.071612
H22	H	2.075901	-0.253906	-0.293776
H23	H	1.418226	0.240419	-0.463478
C24	C	1.660356	-0.285503	-0.235013
H25	H	1.662407	-0.395407	-0.235310
H26	H	1.607051	-0.252454	-0.132191
H27	H	1.607050	-0.252468	-0.322763
