data_functionalizedCrystal
_audit_creation_method	'MofGen! by Chris Wilmer'
_symmetry_space_group_name_H-M	'P1'
_symmetry_Int_Tables_number	1
_symmetry_cell_setting	triclinic
loop_
_symmetry_equiv_pos_as_xyz
  x,y,z
_cell_length_a	11.026607
_cell_length_b	14.044220
_cell_length_c	9.482900
_cell_angle_alpha	100.188801
_cell_angle_beta	78.636152
_cell_angle_gamma	100.887447
loop_
_atom_site_label
_atom_site_type_symbol
_atom_site_fract_x
_atom_site_fract_y
_atom_site_fract_z
O1	O	1.671574	0.392560	-0.120918
O2	O	1.313283	0.346512	-0.120917
O3	O	1.487049	0.230635	-0.120903
O4	O	1.497809	0.508437	-0.120932
O5	O	1.451766	0.254293	0.120886
O6	O	1.278001	0.370170	0.120872
O7	O	1.636292	0.416218	0.120871
Cu8	Cu	1.453925	0.395354	0.142949
Cu9	Cu	1.495650	0.367376	-0.142995
O10	O	1.462526	0.532095	0.120857
C11	C	1.249512	0.349846	-0.000022
C12	C	1.112056	0.324521	-0.000022
C13	C	1.464699	0.206346	-0.000008
C14	C	1.450655	0.098724	-0.000006
C15	C	1.045821	0.394445	-0.000030
C16	C	0.903753	0.368273	-0.000029
C17	C	1.424983	-0.098320	-0.000027
C18	C	1.524588	-0.138958	-0.000032
C19	C	1.510304	-0.248600	-0.000043
C20	C	1.439266	0.011332	-0.000015
C21	C	1.700064	0.412884	-0.000027
C22	C	1.837521	0.438207	-0.000037
C23	C	1.484876	0.556383	-0.000041
C24	C	1.498922	0.664004	-0.000053
N25	N	1.424586	0.415033	0.344067
N26	N	1.524998	0.347690	-0.344113
C27	C	1.486988	0.373174	0.416271
C28	C	1.462587	0.389556	0.583687
H29	H	0.855294	0.289024	-0.000058
H30	H	0.885983	0.517453	-0.000036
C31	C	1.047223	0.218910	-0.000087
C32	C	0.919209	0.213943	-0.000125
C33	C	0.859452	0.116666	-0.000206
H34	H	1.058027	0.195811	0.084208
H35	H	1.082710	0.179391	-0.084438
H36	H	0.883733	0.253448	0.084217
H37	H	0.908368	0.237022	-0.084414
H38	H	0.894939	0.077146	-0.084556
H39	H	0.870266	0.093575	0.084091
H40	H	0.772591	0.113281	-0.000245
C41	C	1.652715	-0.075731	-0.000082
C42	C	1.741809	-0.134778	-0.000115
C43	C	1.859848	-0.076564	-0.000173
H44	H	1.650277	-0.027710	0.084221
H45	H	1.674798	-0.044220	-0.084425
H46	H	1.719732	-0.166272	0.084219
H47	H	1.744286	-0.182797	-0.084411
H48	H	1.881932	-0.045054	-0.084516
H49	H	1.857397	-0.028546	0.084131
H50	H	1.920315	-0.116620	-0.000209
C51	C	1.297073	-0.161875	0.000055
C52	C	1.308150	-0.259555	0.000086
C53	C	1.190344	-0.318138	0.000188
H54	H	1.265611	-0.156898	-0.084232
H55	H	1.241108	-0.140338	0.084414
H56	H	1.364095	-0.281086	-0.084264
H57	H	1.339591	-0.264563	0.084367
H58	H	1.134380	-0.296602	0.084547
H59	H	1.158891	-0.313153	-0.084100
H60	H	1.197842	-0.384419	0.000223
H61	H	1.558472	0.325203	0.354149
C62	C	1.367055	0.453365	0.666428
C63	C	1.249148	0.413568	0.629565
C64	C	1.161112	0.472312	0.705773
H65	H	1.391119	0.517703	0.641612
H66	H	1.363238	0.455856	0.767956
H67	H	1.252968	0.411087	0.528060
H68	H	1.225046	0.349236	0.654385
H69	H	1.157296	0.474803	0.807301
H70	H	1.185188	0.536647	0.680952
H71	H	1.081101	0.445313	0.680783
H72	H	1.596487	0.299716	0.593768
C73	C	1.329058	0.478839	0.426813
C74	C	1.211152	0.439042	0.389951
C75	C	1.123116	0.497786	0.466159
H76	H	1.353122	0.543177	0.401998
H77	H	1.325242	0.481330	0.528341
H78	H	1.214971	0.436562	0.288446
H79	H	1.187049	0.374710	0.414771
H80	H	1.119299	0.500277	0.567687
H81	H	1.147191	0.562121	0.441337
H82	H	1.043104	0.470787	0.441169
H83	H	1.094290	0.473686	-0.000030
