data_functionalizedCrystal
_audit_creation_method	'MofGen! by Chris Wilmer'
_symmetry_space_group_name_H-M	'P1'
_symmetry_Int_Tables_number	1
_symmetry_cell_setting	triclinic
loop_
_symmetry_equiv_pos_as_xyz
  x,y,z
_cell_length_a	19.288864
_cell_length_b	14.044190
_cell_length_c	18.366186
_cell_angle_alpha	89.990827
_cell_angle_beta	89.980630
_cell_angle_gamma	88.164010
loop_
_atom_site_label
_atom_site_type_symbol
_atom_site_fract_x
_atom_site_fract_y
_atom_site_fract_z
O1	O	0.928947	0.118213	-0.060793
O2	O	1.428947	0.618213	0.439207
O3	O	0.727711	0.134160	-0.060745
O4	O	1.227711	0.634160	0.439255
O5	O	0.825306	-0.011786	-0.060754
O6	O	1.325306	0.488214	0.439246
O7	O	0.831352	0.264158	-0.060784
O8	O	1.331352	0.764158	0.439216
O9	O	0.825294	-0.011789	0.060345
O10	O	1.325294	0.488211	0.560345
O11	O	0.727700	0.134156	0.060355
O12	O	1.227700	0.634156	0.560355
O13	O	0.928935	0.118209	0.060306
O14	O	1.428935	0.618209	0.560306
Zn15	Zn	0.828316	0.126182	0.079558
Zn16	Zn	1.328316	0.626182	0.579558
Zn17	Zn	0.828331	0.126187	-0.079996
Zn18	Zn	1.328331	0.626187	0.420004
O19	O	0.831341	0.264155	0.060315
O20	O	1.331341	0.764155	0.560315
C21	C	0.701796	0.133645	-0.000189
C22	C	1.201796	0.633645	0.499811
C23	C	0.624593	0.132105	-0.000169
C24	C	1.124593	0.632105	0.499831
C25	C	0.822655	-0.047091	-0.000201
C26	C	1.322655	0.452909	0.499799
C27	C	0.814765	-0.152283	-0.000193
C28	C	1.314765	0.347717	0.499807
C29	C	0.585401	0.217739	-0.000190
C30	C	1.085401	0.717739	0.499810
C31	C	0.512861	0.216292	-0.000198
C32	C	1.012861	0.716292	0.499802
C33	C	0.479516	0.129205	-0.000200
C34	C	0.979516	0.629205	0.499800
C35	C	0.518718	0.043560	-0.000175
C36	C	1.018718	0.543560	0.499825
C37	C	0.591256	0.045010	-0.000160
C38	C	1.091256	0.545010	0.499840
C39	C	0.366858	0.060747	-0.042643
C40	C	0.866858	0.560747	0.457357
C41	C	0.294321	0.059301	-0.042663
C42	C	0.794321	0.559301	0.457337
C43	C	0.255783	0.124731	-0.000243
C44	C	0.755783	0.624731	0.499757
C45	C	0.289791	0.191623	0.042187
C46	C	0.789791	0.691623	0.542187
C47	C	0.362330	0.193072	0.042202
C48	C	0.862330	0.693072	0.542202
C49	C	0.400861	0.127624	-0.000216
C50	C	0.900861	0.627624	0.499784
C51	C	0.137934	0.208802	-0.000272
C52	C	0.637934	0.708802	0.499728
C53	C	0.065393	0.207351	-0.000275
C54	C	0.565393	0.707351	0.499725
C55	C	0.071251	0.034617	-0.000259
C56	C	0.571251	0.534617	0.499741
C57	C	0.143791	0.036071	-0.000248
C58	C	0.643791	0.536071	0.499752
C59	C	0.177128	0.123165	-0.000258
C60	C	0.677128	0.623165	0.499742
C61	C	0.856297	-0.402747	-0.000232
C62	C	1.356297	0.097253	0.499768
C63	C	0.800352	-0.344879	-0.000213
C64	C	1.300352	0.155121	0.499787
C65	C	0.808374	-0.237709	-0.000202
C66	C	1.308374	0.262291	0.499798
C67	C	0.848277	-0.509927	-0.000243
C68	C	1.348277	-0.009927	0.499757
C69	C	0.954851	0.118724	-0.000252
C70	C	1.454851	0.618724	0.499748
C71	C	1.032053	0.120264	-0.000276
C72	C	1.532053	0.620264	0.499724
C73	C	0.833991	0.299460	-0.000239
C74	C	1.333991	0.799460	0.499761
C75	C	0.841881	0.404652	-0.000252
C76	C	1.341881	0.904652	0.499748
N77	N	0.828310	0.126179	0.188449
N78	N	1.328310	0.626179	0.688449
N79	N	0.828341	0.126183	-0.188887
N80	N	1.328341	0.626183	0.311113
C81	C	0.871558	0.061576	0.772995
C82	C	1.371558	0.561576	1.272995
C83	C	0.871559	0.061578	0.696767
C84	C	1.371559	0.561578	1.196767
C85	C	0.828331	0.126178	0.658660
C86	C	1.328331	0.626178	1.158660
C87	C	0.785111	0.190797	0.696787
C88	C	1.285111	0.690797	1.196787
C89	C	0.785116	0.190800	0.773013
C90	C	1.285116	0.690800	1.273013
C91	C	0.765851	0.138825	0.537920
C92	C	1.265851	0.638825	1.037920
C93	C	0.765844	0.138816	0.461695
C94	C	1.265844	0.638816	0.961695
C95	C	0.828315	0.126176	0.423553
C96	C	1.328315	0.626176	0.923553
C97	C	0.890793	0.113525	0.461644
C98	C	1.390793	0.613525	0.961644
C99	C	0.890799	0.113528	0.537871
C100	C	1.390799	0.613528	1.037871
C101	C	0.828320	0.126183	0.576005
C102	C	1.328320	0.626183	1.076005
C103	C	0.871536	0.061568	0.302780
C104	C	1.371536	0.561568	0.802780
C105	C	0.871539	0.061577	0.226551
C106	C	1.371539	0.561577	0.726551
C107	C	0.785084	0.190791	0.226572
C108	C	1.285084	0.690791	0.726572
C109	C	0.785088	0.190787	0.302800
C110	C	1.285088	0.690787	0.802800
C111	C	0.828313	0.126171	0.340899
C112	C	1.328313	0.626171	0.840899
H113	H	0.480944	0.286027	-0.000213
H114	H	0.980944	0.786027	0.499787
C115	C	0.727510	-0.386671	-0.000197
C116	C	1.227510	0.113329	0.499803
H117	H	0.693463	-0.336268	-0.000186
H118	H	1.193463	0.163732	0.499814
H119	H	0.722061	-0.424778	0.042031
H120	H	1.222061	0.075222	0.542031
H121	H	0.722064	-0.424743	-0.042435
H122	H	1.222064	0.075257	0.457565
H123	H	0.910213	-0.371803	-0.000237
H124	H	1.410213	0.128197	0.499763
C125	C	0.409243	-0.011223	-0.089314
C126	C	0.909243	0.488777	0.410686
H127	H	0.378602	-0.051255	-0.114595
H128	H	0.878602	0.448745	0.385405
H129	H	0.438826	-0.048925	-0.058725
H130	H	0.938826	0.451075	0.441275
H131	H	0.436442	0.022120	-0.123428
H132	H	0.936442	0.522120	0.376572
C133	C	0.256915	-0.014268	-0.089336
C134	C	0.756915	0.485732	0.410664
H135	H	0.208195	-0.005752	-0.083279
H136	H	0.708195	0.494248	0.416721
H137	H	0.270918	-0.076728	-0.074410
H138	H	0.770918	0.423272	0.425590
H139	H	0.268550	-0.005696	-0.139122
H140	H	0.768550	0.494304	0.360878
C141	C	0.482042	-0.052232	-0.000181
C142	C	0.982042	0.447768	0.499819
H143	H	0.433227	-0.040831	-0.000201
H144	H	0.933227	0.459169	0.499799
H145	H	0.495109	-0.087484	0.042054
H146	H	0.995109	0.412516	0.542054
H147	H	0.495157	-0.087475	-0.042411
H148	H	0.995157	0.412525	0.457589
C149	C	0.174608	0.304600	-0.000275
C150	C	0.674608	0.804600	0.499725
H151	H	0.140874	0.355395	-0.000278
H152	H	0.640874	0.855395	0.499722
H153	H	0.202803	0.308758	-0.042501
H154	H	0.702803	0.808758	0.457499
H155	H	0.202763	0.308753	0.041964
H156	H	0.702763	0.808753	0.541964
C157	C	0.919114	-0.009487	0.814900
C158	C	1.419114	0.490513	1.314900
H159	H	0.944858	-0.047958	0.781277
H160	H	1.444858	0.452042	1.281277
H161	H	0.891698	-0.048847	0.844658
H162	H	1.391698	0.451153	1.344658
H163	H	0.950138	0.024512	0.844613
H164	H	1.450138	0.524512	1.344613
H165	H	0.623167	-0.024726	-0.000143
H166	H	1.123167	0.475274	0.499857
H167	H	0.612539	0.288658	-0.000199
H168	H	1.112539	0.788658	0.499801
C169	C	0.919095	-0.009498	0.654829
C170	C	1.419095	0.490502	1.154829
H171	H	0.944835	-0.047984	0.688437
H172	H	1.444835	0.452016	1.188437
H173	H	0.950112	0.024481	0.625071
H174	H	1.450112	0.524481	1.125071
H175	H	0.891657	-0.048856	0.625114
H176	H	1.391657	0.451144	1.125114
H177	H	0.714977	0.149122	0.568969
H178	H	1.214977	0.649122	1.068969
H179	H	0.941671	0.103230	0.568882
H180	H	1.441671	0.603230	1.068882
C181	C	0.919079	-0.009496	0.184621
C182	C	1.419079	0.490504	0.684621
H183	H	0.944816	-0.047982	0.218232
H184	H	1.444816	0.452018	0.718232
H185	H	0.950099	0.024485	0.154867
H186	H	1.450099	0.524485	0.654867
H187	H	0.891646	-0.048854	0.154902
H188	H	1.391646	0.451146	0.654902
H189	H	0.941663	0.103240	0.430590
H190	H	1.441663	0.603240	0.930590
H191	H	0.175702	-0.033662	-0.000236
H192	H	0.675702	0.466338	0.499764
C193	C	0.919085	-0.009500	0.344692
C194	C	1.419085	0.490500	0.844692
H195	H	0.944832	-0.047971	0.311070
H196	H	1.444832	0.452029	0.811070
H197	H	0.891662	-0.048860	0.374443
H198	H	1.391662	0.451140	0.874443
H199	H	0.950107	0.024491	0.374412
H200	H	1.450107	0.524491	0.874412
H201	H	0.749893	0.243393	0.333837
H202	H	1.249893	0.743393	0.833837
C203	C	0.737540	0.261860	0.184663
C204	C	1.237540	0.761860	0.684663
H205	H	0.743726	0.252606	0.133806
H206	H	1.243726	0.752606	0.633806
H207	H	0.749006	0.325075	0.197147
H208	H	1.249006	0.825075	0.697147
H209	H	0.690554	0.251734	0.197173
H210	H	1.190554	0.751734	0.697173
C211	C	0.697122	0.152732	0.419801
C212	C	1.197122	0.652732	0.919801
H213	H	0.659919	0.160278	0.453433
H214	H	1.159919	0.660278	0.953433
H215	H	0.689906	0.098599	0.390076
H216	H	1.189906	0.598599	0.890076
H217	H	0.699140	0.207922	0.390057
H218	H	1.199140	0.707922	0.890057
C219	C	0.737560	0.261855	0.654873
C220	C	1.237560	0.761855	1.154873
H221	H	0.743741	0.252595	0.604015
H222	H	1.243741	0.752595	1.104015
H223	H	0.749022	0.325074	0.667349
H224	H	1.249022	0.825074	1.167349
H225	H	0.690576	0.251723	0.667388
H226	H	1.190576	0.751723	1.167388
C227	C	0.737565	0.261857	0.814945
C228	C	1.237565	0.761857	1.314945
H229	H	0.711814	0.300328	0.781335
H230	H	1.211814	0.800328	1.281335
H231	H	0.764984	0.301218	0.844670
H232	H	1.264984	0.801218	1.344670
H233	H	0.706547	0.227854	0.844691
H234	H	1.206547	0.727854	1.344691
H235	H	0.390016	0.247535	0.076752
H236	H	0.890016	0.747535	0.576752
H237	H	0.258415	0.244901	0.076729
H238	H	0.758415	0.744901	0.576729
H239	H	0.033483	0.277088	-0.000288
H240	H	0.533483	0.777088	0.499712
H241	H	0.044103	-0.036290	-0.000306
H242	H	0.544103	0.463710	0.499694
