data_functionalizedCrystal
_audit_creation_method	'MofGen! by Chris Wilmer'
_symmetry_space_group_name_H-M	'P1'
_symmetry_Int_Tables_number	1
_symmetry_cell_setting	triclinic
loop_
_symmetry_equiv_pos_as_xyz
  x,y,z
_cell_length_a	11.169417
_cell_length_b	11.169416
_cell_length_c	18.215399
_cell_angle_alpha	90.021626
_cell_angle_beta	90.018200
_cell_angle_gamma	90.009278
loop_
_atom_site_label
_atom_site_type_symbol
_atom_site_fract_x
_atom_site_fract_y
_atom_site_fract_z
Zn1	Zn	-1.834921	0.477853	-0.416116
Zn2	Zn	-1.501588	0.811187	-0.082783
Zn3	Zn	-1.168254	1.144520	0.250551
Zn4	Zn	-1.834823	0.678562	-0.293063
Zn5	Zn	-1.501489	1.011895	0.040270
Zn6	Zn	-1.168156	1.345228	0.373603
Zn7	Zn	-1.634219	0.477887	-0.293067
Zn8	Zn	-1.300886	0.811221	0.040266
Zn9	Zn	-0.967552	1.144554	0.373600
Zn10	Zn	-1.634214	0.678489	-0.416092
Zn11	Zn	-1.300881	1.011823	-0.082759
Zn12	Zn	-0.967548	1.345156	0.250575
O13	O	-1.734544	0.578198	-0.354585
O14	O	-1.401211	0.911531	-0.021251
O15	O	-1.067878	1.244865	0.312082
O16	O	-2.002858	0.504494	-0.399802
O17	O	-1.669524	0.837827	-0.066468
O18	O	-1.336191	1.171160	0.266865
O19	O	-1.808173	0.651986	-0.190080
O20	O	-1.474840	0.985319	0.143254
O21	O	-1.141506	1.318653	0.476587
O22	O	-1.660886	0.309933	-0.309401
O23	O	-1.327553	0.643267	0.023932
O24	O	-0.994219	0.976600	0.357265
O25	O	-2.002785	0.651953	-0.309395
O26	O	-1.669452	0.985287	0.023938
O27	O	-1.336119	1.318620	0.357271
O28	O	-1.808341	0.309908	-0.399805
O29	O	-1.475007	0.643242	-0.066472
O30	O	-1.141674	0.976575	0.266862
O31	O	-1.660790	0.504552	-0.190082
O32	O	-1.327457	0.837885	0.143251
O33	O	-0.994124	1.171218	0.476584
O34	O	-1.466269	0.504482	-0.309378
O35	O	-1.132935	0.837815	0.023955
O36	O	-0.799602	1.171148	0.357289
O37	O	-1.660878	0.651830	-0.519079
O38	O	-1.327544	0.985164	-0.185746
O39	O	-0.994211	1.318497	0.147587
O40	O	-1.466265	0.651863	-0.399764
O41	O	-1.132932	0.985197	-0.066430
O42	O	-0.799599	1.318530	0.266903
O43	O	-1.808336	0.504424	-0.519097
O44	O	-1.475003	0.837757	-0.185764
O45	O	-1.141669	1.171091	0.147569
O46	O	-1.808168	0.846502	-0.309372
O47	O	-1.474835	1.179835	0.023962
O48	O	-1.141502	1.513168	0.357295
O49	O	-1.660782	0.846449	-0.399760
O50	O	-1.327449	1.179782	-0.066427
O51	O	-0.994116	1.513115	0.266906
C52	C	-1.422720	0.578169	-0.354569
C53	C	-1.089386	0.911503	-0.021236
C54	C	-0.756053	1.244836	0.312098
C55	C	-1.289320	0.578186	-0.354580
C56	C	-0.955986	0.911519	-0.021246
C57	C	-0.622653	1.244853	0.312087
C58	C	-1.734497	0.890023	-0.354579
C59	C	-1.401163	1.223356	-0.021246
C60	C	-1.067830	1.556689	0.312088
C61	C	-1.734586	1.023423	-0.354601
C62	C	-1.401253	1.356756	-0.021268
C63	C	-1.067920	1.690089	0.312065
C64	C	-1.047587	0.578218	-0.354595
C65	C	-0.714253	0.911551	-0.021262
C66	C	-0.380920	1.244884	0.312072
C67	C	-1.180987	0.578200	-0.354584
C68	C	-0.847653	0.911533	-0.021251
C69	C	-0.514320	1.244867	0.312082
C70	C	-1.734617	0.578115	-0.546538
C71	C	-1.401284	0.911449	-0.213204
C72	C	-1.067951	1.244782	0.120129
C73	C	-1.734649	0.578080	-0.628337
C74	C	-1.401315	0.911413	-0.295003
C75	C	-1.067982	1.244747	0.038330
C76	C	-1.734625	0.265156	-0.354606
C77	C	-1.401291	0.598489	-0.021273
C78	C	-1.067958	0.931822	0.312060
C79	C	-1.734659	0.131756	-0.354616
C80	C	-1.401326	0.465089	-0.021282
C81	C	-1.067992	0.798422	0.312051
C82	C	-1.811458	0.501254	-0.816541
C83	C	-1.478124	0.834587	-0.483208
C84	C	-1.144791	1.167920	-0.149874
C85	C	-1.811472	0.501219	-0.893400
C86	C	-1.478139	0.834552	-0.560067
C87	C	-1.144805	1.167885	-0.226733
C88	C	-1.657924	0.654721	-0.893370
C89	C	-1.324591	0.988054	-0.560037
C90	C	-0.991258	1.321387	-0.226703
C91	C	-1.657905	0.654749	-0.816513
C92	C	-1.324571	0.988082	-0.483179
C93	C	-0.991238	1.321415	-0.149846
C94	C	-1.734678	0.578017	-0.778100
C95	C	-1.401345	0.911350	-0.444767
C96	C	-1.068012	1.244684	-0.111433
C97	C	-1.734712	0.577954	-0.931816
C98	C	-1.401379	0.911287	-0.598483
C99	C	-1.068045	1.244621	-0.265150
C100	C	-1.734727	0.577917	-1.015150
C101	C	-1.401394	0.911250	-0.681817
C102	C	-1.068060	1.244583	-0.348483
C103	C	-1.734662	0.578052	-0.694761
C104	C	-1.401329	0.911386	-0.361428
C105	C	-1.067995	1.244719	-0.028094
C106	C	-1.734541	0.578194	-0.163378
C107	C	-1.401207	0.911527	0.169955
C108	C	-1.067874	1.244860	0.503288
C109	C	-1.734742	0.577891	-0.081580
C110	C	-1.401409	0.911224	0.251753
C111	C	-1.068075	1.244558	0.585087
H112	H	-1.873968	0.438770	-0.785268
H113	H	-1.540635	0.772104	-0.451935
H114	H	-1.207302	1.105437	-0.118601
H115	H	-1.595421	0.717196	-0.924655
H116	H	-1.262087	1.050529	-0.591321
H117	H	-0.928754	1.383862	-0.257988
H118	H	-1.595373	0.717258	-0.785213
H119	H	-1.262040	1.050591	-0.451880
H120	H	-0.928707	1.383924	-0.118546
H121	H	-1.873992	0.438708	-0.924695
H122	H	-1.540658	0.772042	-0.591362
H123	H	-1.207325	1.105375	-0.258028
