data_functionalizedCrystal
_audit_creation_method	'MofGen! by Chris Wilmer'
_symmetry_space_group_name_H-M	'P1'
_symmetry_Int_Tables_number	1
_symmetry_cell_setting	triclinic
loop_
_symmetry_equiv_pos_as_xyz
  x,y,z
_cell_length_a	9.065218
_cell_length_b	17.699083
_cell_length_c	8.140239
_cell_angle_alpha	89.995596
_cell_angle_beta	89.997198
_cell_angle_gamma	84.149450
loop_
_atom_site_label
_atom_site_type_symbol
_atom_site_fract_x
_atom_site_fract_y
_atom_site_fract_z
O1	O	1.957109	0.110973	-0.136622
O2	O	1.527555	0.120075	-0.136624
O3	O	1.754468	0.005429	-0.136608
O4	O	1.730196	0.225619	-0.136637
O5	O	1.754455	0.005428	0.136619
O6	O	1.527542	0.120074	0.136603
O7	O	1.957097	0.110971	0.136605
Zn8	Zn	1.742317	0.115522	0.179985
Zn9	Zn	1.742334	0.115524	-0.180004
O10	O	1.730183	0.225617	0.136590
C11	C	1.472588	0.119200	-0.000011
C12	C	1.308822	0.116584	-0.000011
C13	C	1.753592	-0.022775	0.000005
C14	C	1.750983	-0.106813	0.000006
C15	C	1.884176	-0.154396	0.000009
C16	C	1.881716	-0.233358	-0.000005
C17	C	1.746060	-0.264737	-0.000011
C18	C	1.612857	-0.217149	-0.000019
C19	C	1.615319	-0.138188	-0.000017
C20	C	1.602925	-0.535589	-0.000033
C21	C	1.600474	-0.614556	-0.000031
C22	C	1.869322	-0.630760	-0.000022
C23	C	1.871784	-0.551799	-0.000019
C24	C	1.738581	-0.504217	-0.000036
C25	C	1.741251	-0.418597	-0.000023
C26	C	1.743390	-0.350355	-0.000012
C27	C	2.012064	0.111847	-0.000012
C28	C	2.175829	0.114463	-0.000022
C29	C	1.731059	0.253822	-0.000028
C30	C	1.733669	0.337860	-0.000039
N31	N	1.742317	0.115521	0.425667
N32	N	1.742346	0.115520	-0.425686
H33	H	1.994642	-0.128854	0.000024
H34	H	1.982248	-0.526255	-0.000006
C35	C	2.147714	-0.241444	0.000044
C36	C	2.028127	-0.285661	0.000017
H37	H	2.238104	-0.273735	0.000069
H38	H	2.143098	-0.210308	-0.095230
H39	H	2.143053	-0.210310	0.095332
H40	H	2.032781	-0.316791	-0.095277
H41	H	2.032745	-0.316810	0.095301
H42	H	1.506859	-0.099446	-0.000019
H43	H	1.490001	-0.640101	-0.000032
C44	C	2.022560	-0.728948	-0.140493
C45	C	2.015748	-0.683063	-0.000029
H46	H	2.112960	-0.761232	-0.140495
H47	H	1.941431	-0.758935	-0.140488
H48	H	2.017935	-0.697793	-0.235757
H49	H	2.020363	-0.714217	0.095236
H50	H	2.096899	-0.653073	-0.000018
C51	C	1.336929	-0.527515	-0.000005
C52	C	1.456511	-0.483294	-0.000020
H53	H	1.246536	-0.495226	0.000018
H54	H	1.341559	-0.558642	-0.095283
H55	H	1.341581	-0.558657	0.095278
H56	H	1.451864	-0.452156	-0.095310
H57	H	1.451877	-0.452154	0.095268
H58	H	1.502404	-0.242703	-0.000035
