data_functionalizedCrystal
_audit_creation_method	'MofGen! by Chris Wilmer'
_symmetry_space_group_name_H-M	'P1'
_symmetry_Int_Tables_number	1
_symmetry_cell_setting	triclinic
loop_
_symmetry_equiv_pos_as_xyz
  x,y,z
_cell_length_a	9.065215
_cell_length_b	10.868271
_cell_length_c	9.065215
_cell_angle_alpha	90.000445
_cell_angle_beta	85.014697
_cell_angle_gamma	90.003841
loop_
_atom_site_label
_atom_site_type_symbol
_atom_site_fract_x
_atom_site_fract_y
_atom_site_fract_z
O1	O	1.960402	0.102305	0.216330
O2	O	2.460402	0.602305	0.716330
O3	O	1.531117	0.102311	0.234080
O4	O	2.031117	0.602311	0.734080
O5	O	1.754635	0.102303	0.010562
O6	O	2.254635	0.602303	0.510562
O7	O	1.736884	0.102313	0.439848
O8	O	2.236884	0.602313	0.939848
O9	O	1.754614	-0.102342	0.010569
O10	O	2.254614	0.397658	0.510569
O11	O	1.531096	-0.102334	0.234088
O12	O	2.031096	0.397666	0.734088
O13	O	1.960382	-0.102339	0.216337
O14	O	2.460382	0.397661	0.716337
Zn15	Zn	1.745736	-0.134828	0.225213
Zn16	Zn	2.245736	0.365172	0.725213
Zn17	Zn	1.745763	0.134800	0.225204
Zn18	Zn	2.245763	0.634800	0.725204
O19	O	1.736863	-0.102331	0.439855
O20	O	2.236863	0.397669	0.939855
C21	C	1.476120	-0.000011	0.232379
C22	C	1.976120	0.499989	0.732379
C23	C	1.312277	-0.000009	0.227281
C24	C	1.812277	0.499991	0.727281
N25	N	1.745728	-0.318843	0.225219
N26	N	2.245728	0.181157	0.725219
C27	C	1.745739	-0.430180	0.225219
C28	C	2.245739	0.069820	0.725219
C29	C	1.745759	-0.569858	0.225206
C30	C	2.245759	-0.069858	0.725206
C31	C	2.015379	-0.000015	0.218038
C32	C	2.515379	0.499985	0.718038
C33	C	2.179222	-0.000009	0.223136
C34	C	2.679222	0.499991	0.723136
C35	C	1.752920	-0.000018	-0.044421
C36	C	2.252920	0.499982	0.455579
C37	C	1.747822	-0.000015	-0.208264
C38	C	2.247822	0.499985	0.291736
N39	N	1.745782	0.318814	0.225187
N40	N	2.245782	0.818814	0.725187
C41	C	1.738579	-0.000008	0.494838
C42	C	2.238579	0.499992	0.994838
C43	C	1.743677	-0.000003	0.658681
C44	C	2.243677	0.499997	1.158681
