data_functionalizedCrystal
_audit_creation_method	'MofGen! by Chris Wilmer'
_symmetry_space_group_name_H-M	'P1'
_symmetry_Int_Tables_number	1
_symmetry_cell_setting	triclinic
loop_
_symmetry_equiv_pos_as_xyz
  x,y,z
_cell_length_a	16.992694
_cell_length_b	10.654550
_cell_length_c	15.455313
_cell_angle_alpha	92.692163
_cell_angle_beta	87.142206
_cell_angle_gamma	87.576563
loop_
_atom_site_label
_atom_site_type_symbol
_atom_site_fract_x
_atom_site_fract_y
_atom_site_fract_z
O1	O	1.045244	0.261289	-0.072018
O2	O	0.816944	0.258364	-0.072044
O3	O	0.936343	0.077541	-0.072027
O4	O	0.925845	0.442112	-0.072035
O5	O	0.929515	0.087836	0.072234
O6	O	0.810116	0.268659	0.072217
O7	O	1.038416	0.271584	0.072243
Cu8	Cu	0.923642	0.271061	0.085402
Cu9	Cu	0.931717	0.258886	-0.085203
O10	O	0.919017	0.452406	0.072226
C11	C	0.784297	0.259751	0.000083
C12	C	0.697192	0.248531	0.000074
C13	C	0.647540	0.356782	0.000072
C14	C	0.565696	0.346233	0.000084
C15	C	0.533505	0.227433	0.000092
C16	C	0.583163	0.119174	0.000096
C17	C	0.665006	0.129724	0.000090
C18	C	0.289668	0.183707	0.000116
C19	C	0.207819	0.173165	0.000119
C20	C	0.190358	0.400226	0.000109
C21	C	0.272203	0.410765	0.000098
C22	C	0.321854	0.302507	0.000107
N23	N	0.449847	0.216648	0.000102
N24	N	0.405510	0.313293	0.000103
C25	C	0.932158	0.035824	0.000102
C26	C	0.929852	-0.103819	0.000099
C27	C	1.000152	-0.177229	0.000109
C28	C	0.997980	-0.308438	0.000103
C29	C	0.855203	-0.292815	0.000079
C30	C	0.857375	-0.161609	0.000080
C31	C	1.072629	-0.119439	0.000129
C32	C	1.142934	-0.192850	0.000140
C33	C	1.140763	-0.324059	0.000134
C34	C	1.068286	-0.381857	0.000116
C35	C	1.071063	0.270196	0.000114
C36	C	1.158168	0.281416	0.000118
C37	C	0.923202	0.494124	0.000095
C38	C	0.925508	0.633766	0.000093
N39	N	0.917968	0.279624	0.205397
N40	N	0.937397	0.250314	-0.205198
C41	C	0.968711	0.202836	0.250798
C42	C	0.964428	0.209324	0.341605
C43	C	0.909405	0.292607	0.387010
C44	C	0.858656	0.369399	0.341602
C45	C	0.862937	0.362903	0.250797
C46	C	0.890929	0.320610	0.658589
C47	C	0.886654	0.327102	0.749401
C48	C	0.992425	0.167025	0.749398
C49	C	0.996704	0.160543	0.658590
C50	C	0.945953	0.237329	0.613191
N51	N	0.905027	0.299244	0.479830
N52	N	0.950328	0.230685	0.520373
H53	H	0.181613	0.076419	0.000125
H54	H	1.041508	0.092727	0.621624
C55	C	0.307035	0.539831	-0.000049
C56	C	0.285330	0.600450	-0.074262
C57	C	0.317387	0.719359	-0.074428
H58	H	0.362890	0.530810	-0.000101
H59	H	0.287635	0.588407	0.050229
H60	H	0.304733	0.551886	-0.124527
H61	H	0.229480	0.609505	-0.074225
H62	H	0.297988	0.767935	-0.024150
H63	H	0.373241	0.710325	-0.074478
H64	H	0.302659	0.760508	-0.124776
C65	C	1.028479	0.112286	0.201663
C66	C	1.071985	0.046403	0.260864
C67	C	1.127042	-0.037040	0.215635
H68	H	1.063125	0.158118	0.166227
H69	H	1.001664	0.054521	0.166268
H70	H	1.098799	0.104159	0.296244
H71	H	1.037360	0.000545	0.296302
H72	H	1.100227	-0.094804	0.180241
H73	H	1.161683	0.008803	0.180201
H74	H	1.156562	-0.081759	0.255796
H75	H	0.821616	0.425431	0.213832
H76	H	0.796195	-0.339885	0.000066
H77	H	1.198010	-0.383827	0.000134
C78	C	1.019557	0.126175	0.391015
C79	C	1.065462	0.201712	0.443152
C80	C	1.116249	0.125158	0.488690
H81	H	1.053016	0.075626	0.351073
H82	H	0.989403	0.073565	0.426497
H83	H	1.095612	0.254301	0.407673
H84	H	1.032023	0.252260	0.483110
H85	H	1.086096	0.072548	0.524172
H86	H	1.149703	0.074613	0.448742
H87	H	1.147396	0.176398	0.524076
H88	H	0.149924	0.488363	0.000104
H89	H	1.066524	-0.488698	0.000102
C90	C	0.718788	0.012041	0.000042
C91	C	0.673082	-0.094261	0.000025
C92	C	0.722599	-0.202696	-0.000027
H93	H	0.748721	0.014848	0.050334
H94	H	0.753440	0.007776	-0.050287
H95	H	0.638444	-0.089996	0.050350
H96	H	0.643150	-0.097110	-0.050262
H97	H	0.757251	-0.206961	-0.050357
H98	H	0.752530	-0.199875	0.050265
H99	H	0.691596	-0.274835	-0.000047
C100	C	1.047478	0.083435	0.798582
C101	C	1.035135	-0.042903	0.776487
C102	C	1.085841	-0.119951	0.821770
H103	H	1.037102	0.099058	0.859178
H104	H	1.100629	0.101235	0.783676
H105	H	0.981997	-0.060696	0.791399
H106	H	1.045517	-0.058565	0.715899
H107	H	1.138992	-0.102151	0.806864
H108	H	1.075460	-0.104318	0.882364
H109	H	1.077478	-0.205679	0.806780
C110	C	0.835969	0.404066	0.609200
C111	C	0.880635	0.481466	0.557042
C112	C	0.830034	0.558361	0.511523
H113	H	0.802578	0.454710	0.649154
H114	H	0.804744	0.353070	0.573734
H115	H	0.911847	0.532456	0.592505
H116	H	0.914025	0.430855	0.517072
H117	H	0.798809	0.507366	0.476057
H118	H	0.796645	0.608998	0.551483
H119	H	0.860332	0.610878	0.476123
C120	C	0.826821	0.417549	0.798543
C121	C	0.783273	0.483377	0.739349
C122	C	0.728143	0.566686	0.784587
H123	H	0.853556	0.475365	0.833962
H124	H	0.792217	0.371583	0.833955
H125	H	0.817873	0.529340	0.703952
H126	H	0.756521	0.425594	0.703928
H127	H	0.693539	0.520720	0.819999
H128	H	0.754885	0.624493	0.820004
H129	H	0.698584	0.611352	0.744431
C130	C	1.221671	-0.130263	0.000288
C131	C	1.260708	-0.161631	0.074499
C132	C	1.333248	-0.104017	0.074656
H133	H	1.213008	-0.041597	0.000335
H134	H	1.253068	-0.158592	-0.049991
H135	H	1.229317	-0.133295	0.124765
H136	H	1.269390	-0.250287	0.074468
H137	H	1.364645	-0.132346	0.024377
H138	H	1.324578	-0.015353	0.074701
H139	H	1.359746	-0.125301	0.125003
H140	H	0.673743	0.453522	0.000065
H141	H	0.813851	0.437205	0.378576
H142	H	0.330084	0.095555	0.000124
H143	H	0.525272	0.434383	0.000082
H144	H	0.800130	-0.101836	0.000072
C145	C	0.548179	-0.009791	-0.000075
C146	C	0.505224	-0.027791	-0.074303
C147	C	0.472996	-0.146587	-0.074499
H148	H	0.514187	-0.015169	0.050175
H149	H	0.589453	-0.072795	-0.000120
H150	H	0.463955	0.035195	-0.074250
H151	H	0.539198	-0.022438	-0.124564
H152	H	0.514270	-0.209591	-0.074544
H153	H	0.439009	-0.151954	-0.024246
H154	H	0.443854	-0.158820	-0.124865
H155	H	1.074405	-0.012603	0.000137
