data_functionalizedCrystal
_audit_creation_method	'MofGen! by Chris Wilmer'
_symmetry_space_group_name_H-M	'P1'
_symmetry_Int_Tables_number	1
_symmetry_cell_setting	triclinic
loop_
_symmetry_equiv_pos_as_xyz
  x,y,z
_cell_length_a	19.077105
_cell_length_b	19.076808
_cell_length_c	19.076919
_cell_angle_alpha	90.121640
_cell_angle_beta	89.923776
_cell_angle_gamma	89.927608
loop_
_atom_site_label
_atom_site_type_symbol
_atom_site_fract_x
_atom_site_fract_y
_atom_site_fract_z
Zn1	Zn	1.045199	-0.339419	0.426239
Zn2	Zn	1.545199	0.160581	0.926239
Zn3	Zn	1.045494	-0.452227	0.304020
Zn4	Zn	1.545494	0.047773	0.804020
Zn5	Zn	0.932779	-0.330021	0.304425
Zn6	Zn	1.432779	0.169979	0.804425
Zn7	Zn	0.923332	-0.451803	0.416790
Zn8	Zn	1.423332	0.048197	0.916790
O9	O	0.986701	-0.393368	0.362869
O10	O	1.486701	0.106632	0.862869
O11	O	1.143411	-0.358494	0.413811
O12	O	1.643411	0.141506	0.913811
O13	O	1.034619	-0.432259	0.205899
O14	O	1.534619	0.067741	0.705899
O15	O	0.951521	-0.233091	0.324708
O16	O	1.451521	0.266909	0.824708
O17	O	1.143629	-0.441373	0.324017
O18	O	1.643629	0.058627	0.824017
O19	O	1.034116	-0.239996	0.414204
O20	O	1.534116	0.260004	0.914204
O21	O	0.951807	-0.342475	0.206197
O22	O	1.451807	0.157525	0.706197
O23	O	0.833352	-0.342065	0.315546
O24	O	1.333352	0.157935	0.815546
O25	O	0.935421	-0.440652	0.516218
O26	O	1.435421	0.059348	1.016218
O27	O	0.826412	-0.431538	0.398100
O28	O	1.326412	0.068462	0.898100
O29	O	1.024956	-0.358084	0.523160
O30	O	1.524956	0.141916	1.023160
O31	O	1.025460	-0.550347	0.314855
O32	O	1.525460	-0.050347	0.814855
O33	O	0.935708	-0.550036	0.397707
O34	O	1.435708	-0.050036	0.897707
C35	C	0.804427	-0.385736	0.355842
C36	C	1.304427	0.114264	0.855842
C37	C	0.726447	-0.382489	0.352852
C38	C	1.226447	0.117511	0.852852
C39	C	0.979609	-0.575649	0.355228
C40	C	1.479609	-0.075649	0.855228
C41	C	0.976638	-0.653633	0.351985
C42	C	1.476638	-0.153633	0.851985
C43	C	0.686218	-0.427613	0.394355
C44	C	1.186218	0.072387	0.894355
C45	C	0.612949	-0.424553	0.391549
C46	C	1.112949	0.075447	0.891549
C47	C	0.579910	-0.376372	0.347236
C48	C	1.079910	0.123628	0.847236
C49	C	0.620145	-0.331244	0.305731
C50	C	1.120145	0.168756	0.805731
C51	C	0.693413	-0.334301	0.308541
C52	C	1.193413	0.165699	0.808541
C53	C	0.361168	-0.362223	0.334234
C54	C	0.861168	0.137777	0.834234
C55	C	0.287894	-0.359171	0.331426
C56	C	0.787894	0.140829	0.831426
C57	C	0.280703	-0.452479	0.417246
C58	C	0.780703	0.047521	0.917246
C59	C	0.353973	-0.455535	0.420048
C60	C	0.853973	0.044465	0.920048
C61	C	0.394201	-0.410404	0.378546
C62	C	0.894201	0.089596	0.878546
N63	N	0.505017	-0.373244	0.344365
N64	N	1.005017	0.126756	0.844365
N65	N	0.469093	-0.413529	0.381421
N66	N	0.969093	0.086471	0.881421
C67	C	1.018210	-0.693805	0.397092
C68	C	1.518210	-0.193805	0.897092
C69	C	1.015416	-0.767080	0.394047
C70	C	1.515416	-0.267080	0.894047
C71	C	0.971053	-0.800181	0.345889
C72	C	1.471053	-0.300181	0.845889
C73	C	0.929477	-0.760004	0.300780
C74	C	1.429477	-0.260004	0.800780
C75	C	0.932268	-0.686731	0.303830
C76	C	1.432268	-0.186731	0.803830
C77	C	0.958095	-1.018945	0.331771
C78	C	1.458095	-0.518945	0.831771
C79	C	0.955309	-1.092224	0.328723
C80	C	1.455309	-0.592224	0.828723
C81	C	1.041248	-1.099295	0.421991
C82	C	1.541248	-0.599295	0.921991
C83	C	1.044038	-1.026020	0.425034
C84	C	1.544038	-0.526020	0.925034
C85	C	1.002459	-0.985849	0.379927
C86	C	1.502459	-0.485849	0.879927
N87	N	0.968198	-0.875079	0.342773
N88	N	1.468198	-0.375079	0.842773
N89	N	1.005311	-0.910952	0.383047
N90	N	1.505311	-0.410952	0.883047
C91	C	1.169687	-0.401029	0.369923
C92	C	1.669687	0.098971	0.869923
C93	C	1.247665	-0.404294	0.372929
C94	C	1.747665	0.095706	0.872929
C95	C	0.979102	-0.400369	0.545856
C96	C	1.479102	0.099631	1.045856
C97	C	0.975864	-0.403353	0.623835
C98	C	1.475864	0.096647	1.123835
C99	C	0.993839	-0.210376	0.370555
C100	C	1.493839	0.289624	0.870555
C101	C	0.996881	-0.132395	0.373831
C102	C	1.496881	0.367605	0.873831
C103	C	0.994313	-0.386344	0.180596
C104	C	1.494313	0.113656	0.680596
C105	C	0.997695	-0.383169	0.102632
C106	C	1.497695	0.116831	0.602632
C107	C	1.020956	-0.361767	0.664084
C108	C	1.520956	0.138233	1.164084
C109	C	1.017905	-0.364568	0.737353
C110	C	1.517905	0.135432	1.237353
C111	C	0.969764	-0.408957	0.770371
C112	C	1.469764	0.091043	1.270371
C113	C	0.924667	-0.450544	0.730116
C114	C	1.424667	0.049456	1.230116
C115	C	0.927715	-0.447740	0.656848
C116	C	1.427715	0.052260	1.156848
C117	C	0.955646	-0.421951	0.989109
C118	C	1.455646	0.078049	1.489109
C119	C	0.952602	-0.424754	1.062382
C120	C	1.452602	0.075246	1.562382
C121	C	1.045839	-0.338776	1.069614
C122	C	1.545839	0.161224	1.569614
C123	C	1.048886	-0.335979	0.996345
C124	C	1.548886	0.164021	1.496345
C125	C	1.003787	-0.377563	0.956097
C126	C	1.503787	0.122437	1.456097
N127	N	0.966646	-0.411822	0.845263
N128	N	1.466646	0.088178	1.345263
N129	N	1.006902	-0.374694	0.881206
N130	N	1.506902	0.125306	1.381206
H131	H	0.713113	-0.466849	0.430437
H132	H	1.213113	0.033151	0.930437
C133	C	1.073910	-0.312940	0.627768
C134	C	1.573910	0.187060	1.127768
H135	H	1.069274	-0.317229	0.578367
H136	H	1.569274	0.182771	1.078367
H137	H	1.064983	-0.265832	0.641360
H138	H	1.564983	0.234168	1.141360
H139	H	1.120149	-0.325646	0.641166
H140	H	1.620149	0.174354	1.141166
C141	C	1.067510	-0.318828	0.781625
C142	C	1.567510	0.181172	1.281625
H143	H	1.096623	-0.291997	0.751467
H144	H	1.596623	0.208003	1.251467
H145	H	1.040680	-0.288226	0.810455
H146	H	1.540680	0.211774	1.310455
H147	H	1.095841	-0.348046	0.810259
H148	H	1.595841	0.151954	1.310259
H149	H	0.898415	-0.654023	0.267099
H150	H	1.398415	-0.154023	0.767099
C151	C	0.737668	-0.284667	0.262888
C152	C	1.237668	0.215333	0.762888
H153	H	0.786035	-0.293383	0.270914
H154	H	1.286035	0.206617	0.770914
H155	H	0.727215	-0.292552	0.214845
H156	H	1.227215	0.207448	0.714845
H157	H	0.727063	-0.237438	0.274755
H158	H	1.227063	0.262562	0.774755
H159	H	0.580197	-0.461297	0.425345
H160	H	1.080197	0.038703	0.925345
H161	H	1.088089	-0.299834	0.969468
H162	H	1.588089	0.200166	1.469468
C163	C	1.095439	-0.293033	1.113889
C164	C	1.595439	0.206967	1.613889
H165	H	1.086727	-0.301055	1.162253
H166	H	1.586727	0.198945	1.662253
H167	H	1.142675	-0.304812	1.103270
H168	H	1.642675	0.195188	1.603270
H169	H	1.087503	-0.245003	1.103464
H170	H	1.587503	0.254997	1.603464
H171	H	0.380868	-0.494770	0.456132
H172	H	0.880868	0.005230	0.956132
H173	H	0.247941	-0.489221	0.451035
H174	H	0.747941	0.010779	0.951035
C175	C	1.067001	-0.657400	0.450074
C176	C	1.567001	-0.157400	0.950074
H177	H	1.091351	-0.691822	0.476509
H178	H	1.591351	-0.191822	0.976509
H179	H	1.099797	-0.629047	0.425642
H180	H	1.599797	-0.129047	0.925642
H181	H	1.039946	-0.628880	0.480773
H182	H	1.539946	-0.128880	0.980773
C183	C	0.878131	-0.493501	0.612574
C184	C	1.378131	0.006499	1.112574
H185	H	0.849032	-0.520349	0.642730
H186	H	1.349032	-0.020349	1.142730
H187	H	0.849794	-0.464304	0.583930
H188	H	1.349794	0.035696	1.083930
H189	H	0.904982	-0.524098	0.583753
H190	H	1.404982	-0.024098	1.083753
H191	H	1.075098	-1.132009	0.458715
H192	H	1.575098	-0.632009	0.958715
H193	H	0.393913	-0.325480	0.300435
H194	H	0.893913	0.174520	0.800435
C195	C	0.251553	-0.306165	0.282684
C196	C	0.751553	0.193835	0.782684
H197	H	0.286004	-0.279720	0.258374
H198	H	0.786004	0.220280	0.758374
H199	H	0.223195	-0.330589	0.249851
H200	H	0.723195	0.169411	0.749851
H201	H	0.223046	-0.275478	0.309764
H202	H	0.723046	0.224522	0.809764
C203	C	1.092849	-0.989613	0.477996
C204	C	1.592849	-0.489613	0.977996
H205	H	1.117208	-1.024033	0.504425
H206	H	1.617208	-0.524033	1.004425
H207	H	1.125635	-0.961271	0.453540
H208	H	1.625635	-0.461271	0.953540
H209	H	1.065815	-0.961082	0.508703
H210	H	1.565815	-0.461082	1.008703
H211	H	0.919180	-1.119172	0.289507
H212	H	1.419180	-0.619172	0.789507
H213	H	0.913398	-0.460903	1.089262
H214	H	1.413398	0.039097	1.589262
H215	H	0.918932	-0.455822	0.956347
H216	H	1.418932	0.044178	1.456347
C217	C	0.871714	-0.499372	0.766433
C218	C	1.371714	0.000628	1.266433
H219	H	0.876361	-0.495093	0.815834
H220	H	1.376361	0.004907	1.315834
H221	H	0.825477	-0.486673	0.753038
H222	H	1.325477	0.013327	1.253038
H223	H	0.880648	-0.546483	0.752840
H224	H	1.380648	-0.046483	1.252840
H225	H	0.593239	-0.292011	0.269653
H226	H	1.093239	0.207989	0.769653
H227	H	1.049274	-0.799785	0.430773
H228	H	1.549274	-0.299785	0.930773
C229	C	0.912370	-0.974766	0.282147
C230	C	1.412370	-0.474766	0.782147
H231	H	0.885558	-1.004977	0.253024
H232	H	1.385558	-0.504977	0.753024
H233	H	0.881751	-0.945945	0.308961
H234	H	1.381751	-0.445945	0.808961
H235	H	0.941596	-0.946127	0.253825
H236	H	1.441596	-0.446127	0.753825
H237	H	0.893352	-0.786961	0.261572
H238	H	1.393352	-0.286961	0.761572
