data_functionalizedCrystal
_audit_creation_method	'MofGen! by Chris Wilmer'
_symmetry_space_group_name_H-M	'P1'
_symmetry_Int_Tables_number	1
_symmetry_cell_setting	triclinic
loop_
_symmetry_equiv_pos_as_xyz
  x,y,z
_cell_length_a	19.188900
_cell_length_b	9.065215
_cell_length_c	8.140239
_cell_angle_alpha	90.004411
_cell_angle_beta	89.991205
_cell_angle_gamma	95.926406
loop_
_atom_site_label
_atom_site_type_symbol
_atom_site_fract_x
_atom_site_fract_y
_atom_site_fract_z
O1	O	-0.927582	0.183967	0.136929
O2	O	-0.724461	0.208807	0.136862
O3	O	-0.830221	-0.018402	0.136890
O4	O	-0.821822	0.411176	0.136901
O5	O	-0.830220	-0.018414	-0.136337
O6	O	-0.724460	0.208795	-0.136365
O7	O	-0.927581	0.183956	-0.136298
Zn8	Zn	-0.826021	0.196374	-0.179712
Zn9	Zn	-0.826022	0.196389	0.180277
O10	O	-0.821821	0.411165	-0.136326
C11	C	-0.698443	0.208004	0.000240
C12	C	-0.620919	0.205612	0.000215
C13	C	-0.829414	-0.073367	0.000278
C14	C	-0.827002	-0.237125	0.000282
C15	C	-0.584518	0.204469	0.149153
C16	C	-0.511677	0.202204	0.149170
C17	C	-0.475240	0.201053	0.000239
C18	C	-0.511649	0.202205	-0.148719
C19	C	-0.584488	0.204484	-0.148731
N20	N	-0.365540	0.113518	-0.110602
N21	N	-0.296346	0.111350	-0.110580
C22	C	-0.255780	0.194189	0.000267
N23	N	-0.287023	0.279260	0.111117
N24	N	-0.356224	0.281422	0.111100
C25	C	-0.396258	0.198583	0.000236
C26	C	-0.140396	0.190593	0.149234
C27	C	-0.067553	0.188338	0.149245
C28	C	-0.067528	0.188323	-0.148648
C29	C	-0.140369	0.190593	-0.148654
C30	C	-0.176799	0.191721	0.000291
C31	C	0.046401	0.184768	0.000315
C32	C	-0.031122	0.187189	0.000313
C33	C	-0.822628	0.466129	0.000290
C34	C	-0.825041	0.629888	0.000297
N35	N	-0.826023	0.196388	0.425959
N36	N	-0.826025	0.196362	-0.425395
H37	H	-0.614176	0.205387	0.270437
H38	H	-0.481978	0.201271	-0.269979
H39	H	-0.037861	0.187395	-0.269910
H40	H	-0.170059	0.191527	0.270515
Cl41	Cl	-0.465907	0.200766	0.336421
Cl42	Cl	-0.630251	0.205919	-0.335984
Cl43	Cl	-0.021791	0.186914	0.336500
Cl44	Cl	-0.186132	0.192021	-0.335903
