data_functionalizedCrystal
_audit_creation_method	'MofGen! by Chris Wilmer'
_symmetry_space_group_name_H-M	'P1'
_symmetry_Int_Tables_number	1
_symmetry_cell_setting	triclinic
loop_
_symmetry_equiv_pos_as_xyz
  x,y,z
_cell_length_a	12.837943
_cell_length_b	15.944551
_cell_length_c	11.892095
_cell_angle_alpha	93.888509
_cell_angle_beta	85.689438
_cell_angle_gamma	89.163839
loop_
_atom_site_label
_atom_site_type_symbol
_atom_site_fract_x
_atom_site_fract_y
_atom_site_fract_z
O1	O	1.382096	0.213524	-0.093988
O2	O	1.080290	0.202737	-0.093995
O3	O	1.239434	0.086515	-0.093981
O4	O	1.222952	0.329745	-0.094002
O5	O	1.226164	0.096189	0.094025
O6	O	1.067021	0.212411	0.094012
O7	O	1.368826	0.223198	0.094018
Zn8	Zn	1.215817	0.219340	0.123865
Zn9	Zn	1.233299	0.206594	-0.123842
O10	O	1.209683	0.339419	0.094005
C11	C	1.035034	0.203930	0.000008
C12	C	0.919957	0.193062	0.000006
C13	C	0.679007	0.323714	0.000011
C14	C	0.570881	0.313507	0.000010
C15	C	0.595575	0.162440	0.000010
C16	C	0.703701	0.172648	0.000012
C17	C	0.745413	0.253287	0.000010
C18	C	0.853542	0.263494	0.000003
C19	C	0.878234	0.112428	0.000012
C20	C	0.770107	0.102221	0.000011
C21	C	1.232115	0.060004	0.000022
C22	C	1.230063	-0.033407	0.000023
C23	C	1.126515	-0.256548	0.000005
C24	C	1.168058	-0.308949	0.092705
C25	C	1.226352	-0.204430	0.000014
C26	C	1.181163	-0.318468	-0.092655
C27	C	1.222761	-0.369631	0.000001
C28	C	1.267917	-0.255596	0.092790
C29	C	1.281014	-0.265115	-0.092653
C30	C	1.322628	-0.317491	0.000069
C31	C	1.228418	-0.109262	0.000023
C32	C	1.220702	-0.464796	0.000000
C33	C	1.414082	0.222005	0.000013
C34	C	1.529160	0.232872	0.000008
C35	C	1.217002	0.365931	-0.000001
C36	C	1.219054	0.459340	-0.000009
N37	N	1.203893	0.228039	0.292918
N38	N	1.245231	0.197890	-0.292895
C39	C	1.328203	0.137313	0.529576
C40	C	1.319876	0.143400	0.647918
C41	C	1.178907	0.246295	0.647944
C42	C	1.187234	0.240208	0.529603
C43	C	1.261886	0.185716	0.470423
C44	C	1.270217	0.179634	0.352080
C45	C	1.129244	0.282524	0.352108
C46	C	1.120917	0.288611	0.470449
H47	H	0.516815	0.370856	0.000013
H48	H	1.144455	-0.345956	-0.171031
H49	H	0.887502	0.329155	0.000004
O50	O	1.391408	0.091192	0.711715
H51	H	1.373074	0.104573	0.803948
H52	H	1.120299	-0.328402	0.171073
O53	O	1.040409	0.347388	0.534279
H54	H	1.045763	0.343495	0.626507
H55	H	1.304571	-0.228194	0.171246
O56	O	1.408694	0.078521	0.465744
H57	H	1.403336	0.082415	0.373516
O58	O	1.432482	-0.352636	0.000134
H59	H	1.468226	-0.327225	0.077156
O60	O	1.344235	-0.239365	-0.196488
H61	H	1.425201	-0.264883	-0.197175
O62	O	1.098395	0.305065	0.711780
H63	H	1.103753	0.301165	0.804007
O64	O	1.350706	0.120845	0.288239
H65	H	1.404897	0.157469	0.234303
O66	O	0.724009	0.410683	0.000011
H67	H	0.659665	0.457943	0.000016
O68	O	0.550577	0.075470	0.000030
H69	H	0.464233	0.080209	0.000031
O70	O	1.016745	-0.221190	0.000117
H71	H	0.970110	-0.238568	0.077184
O72	O	1.057704	0.334728	0.288303
H73	H	1.105138	0.376286	0.234369
O74	O	0.725116	0.015248	0.000019
H75	H	0.681855	0.003041	-0.076612
O76	O	0.949855	0.036459	0.000017
H77	H	1.032051	0.057101	0.000024
