data_functionalizedCrystal
_audit_creation_method	'MofGen! by Chris Wilmer'
_symmetry_space_group_name_H-M	'P1'
_symmetry_Int_Tables_number	1
_symmetry_cell_setting	triclinic
loop_
_symmetry_equiv_pos_as_xyz
  x,y,z
_cell_length_a	6.817900
_cell_length_b	9.582860
_cell_length_c	10.943624
_cell_angle_alpha	90.879795
_cell_angle_beta	108.838799
_cell_angle_gamma	111.206767
loop_
_atom_site_label
_atom_site_type_symbol
_atom_site_fract_x
_atom_site_fract_y
_atom_site_fract_z
V1	V	-4.128075	-0.207016	-0.402315
O2	O	-4.072597	0.009988	-0.394900
O3	O	-4.118391	-0.410518	-0.399329
O4	O	-4.105843	-0.203814	-0.577885
O5	O	-4.085232	-0.198146	-0.215108
V6	V	-4.603295	-0.181062	-0.379952
O7	O	-4.407545	-0.263949	-0.451370
O8	O	-4.774022	-0.124130	-0.330897
O9	O	-4.389772	0.022439	-0.382937
O10	O	-4.776169	-0.398067	-0.387367
O11	O	-4.763534	-0.189933	-0.567158
O12	O	-4.402320	-0.184264	-0.204381
C13	C	-3.971963	-0.460127	-0.392922
C14	C	-4.045507	-0.626492	-0.391651
C15	C	-3.955955	-0.196455	-0.620686
C16	C	-4.019318	-0.195183	-0.764214
C17	C	-3.863628	-0.186621	-0.841371
C18	C	-4.060709	-0.313713	-0.947216
C19	C	-3.935165	-0.065840	-0.914112
C20	C	-4.215617	-0.322395	-0.868182
C21	C	-4.089986	-0.074410	-0.835055
C22	C	-4.287206	-0.201538	-0.940870
C23	C	-4.199543	0.072041	-0.389341
C24	C	-4.105239	0.238404	-0.390620
C25	C	-4.215550	-0.191629	-0.161574
C26	C	-4.131424	-0.192892	-0.018044
H27	H	-4.048994	-0.414882	-0.996049
C28	C	-3.775842	0.080649	-0.942265
C29	C	-3.808318	0.109355	-1.084167
C30	C	-3.648982	0.255837	-1.112315
C31	C	-3.457169	0.373612	-0.998562
C32	C	-3.424684	0.344909	-0.856650
C33	C	-3.584021	0.198427	-0.828502
H34	H	-3.950317	0.022168	-1.168382
H35	H	-3.673030	0.277084	-1.217368
H36	H	-3.339219	0.482046	-1.019399
H37	H	-3.282686	0.432096	-0.772435
H38	H	-3.559972	0.177180	-0.723449
C39	C	-4.375004	-0.469040	-0.840274
C40	C	-4.344018	-0.497401	-0.698412
C41	C	-4.503394	-0.644045	-0.670501
C42	C	-4.693756	-0.762327	-0.784452
C43	C	-4.724750	-0.733969	-0.926324
C44	C	-4.565374	-0.587325	-0.954235
H45	H	-4.203094	-0.409839	-0.614050
H46	H	-4.480449	-0.665037	-0.565478
H47	H	-4.811735	-0.870882	-0.763791
H48	H	-4.865674	-0.821532	-1.010685
H49	H	-4.588319	-0.566333	-1.059258
H50	H	-3.684054	-0.180484	-0.797930
H51	H	-4.466906	-0.207875	-0.984107
H52	H	-4.101616	0.026764	-0.786187
