data_functionalizedCrystal
_audit_creation_method	'MofGen! by Chris Wilmer'
_symmetry_space_group_name_H-M	'P1'
_symmetry_Int_Tables_number	1
_symmetry_cell_setting	triclinic
loop_
_symmetry_equiv_pos_as_xyz
  x,y,z
_cell_length_a	20.016444
_cell_length_b	14.560438
_cell_length_c	14.560438
_cell_angle_alpha	119.999696
_cell_angle_beta	89.996500
_cell_angle_gamma	59.999383
loop_
_atom_site_label
_atom_site_type_symbol
_atom_site_fract_x
_atom_site_fract_y
_atom_site_fract_z
Zr1	Zr	0.643598	1.005256	0.120472
O2	O	0.536915	1.196869	0.267127
O3	O	0.676303	0.813650	0.075516
O4	O	0.676295	1.005261	0.267120
O5	O	0.536929	1.005253	-0.075620
O6	O	0.786239	1.005255	0.267113
O7	O	0.536923	1.005259	0.075523
O8	O	0.786253	0.662500	-0.075633
O9	O	0.536915	1.348008	0.267125
O10	O	0.772300	0.892454	0.056335
O11	O	0.690254	0.892453	-0.056456
O12	O	0.690245	1.118049	0.169134
O13	O	0.608199	1.118048	0.056343
Zr14	Zr	0.818956	1.005237	-0.120595
Zr15	Zr	0.818947	1.005247	0.120460
Zr16	Zr	0.643607	1.005246	-0.120583
Zr17	Zr	0.643597	1.246305	0.120469
Zr18	Zr	0.818957	0.764188	-0.120592
O19	O	0.786251	1.196843	-0.075639
O20	O	0.786238	1.196857	0.267110
O21	O	0.536928	1.196855	-0.075622
O22	O	0.925639	0.813624	-0.267250
O23	O	0.925626	0.813638	0.075499
O24	O	0.676315	0.813636	-0.267234
O25	O	0.925625	1.005240	0.075497
O26	O	0.786259	1.005233	-0.267243
O27	O	0.676314	1.005238	-0.267236
O28	O	0.925631	1.005234	-0.075646
O29	O	0.676293	1.348002	0.267116
O30	O	0.786260	0.662492	-0.267239
O31	O	0.925639	0.662485	-0.267249
O32	O	0.925632	0.662493	-0.075642
O33	O	0.536922	1.348000	0.075519
O34	O	0.676300	1.347994	0.075509
O35	O	0.772309	0.892444	-0.169257
O36	O	0.854355	0.892445	-0.056467
O37	O	0.772299	1.118040	0.056332
O38	O	0.690253	1.118040	-0.056458
C39	C	0.731278	0.703731	-0.000058
C40	C	0.731279	0.601399	-0.000057
C41	C	0.774104	0.457162	0.058811
C42	C	0.774104	0.553318	0.058820
C43	C	0.688444	0.553328	-0.058937
C44	C	0.688440	0.457180	-0.058938
C45	C	0.511942	1.005257	-0.000047
C46	C	0.437502	1.005261	-0.000042
C47	C	0.266243	1.005249	0.083207
C48	C	0.196303	1.005241	0.083200
C49	C	0.196317	1.005240	-0.083339
C50	C	0.266259	1.005239	-0.083335
C51	C	0.301218	1.005250	-0.000056
C52	C	0.161336	1.005243	-0.000068
C53	C	0.085503	1.005234	-0.000076
C54	C	0.377056	1.005257	-0.000048
C55	C	0.950611	1.005236	-0.000077
C56	C	1.025051	1.005233	-0.000082
C57	C	0.731266	1.005259	0.301462
C58	C	0.731262	1.005264	0.403796
C59	C	0.731276	1.306763	-0.000065
C60	C	0.731275	1.409094	-0.000067
C61	C	0.688430	1.123021	0.510752
C62	C	0.688438	1.123017	0.606902
C63	C	0.774111	0.887488	0.489125
C64	C	0.774107	0.887493	0.392978
C65	C	0.731283	1.005240	0.698418
C66	C	0.731274	1.005255	0.596093
C67	C	0.950613	0.703720	-0.000073
C68	C	1.025053	0.601385	-0.000077
C69	C	0.731289	0.703718	-0.301581
C70	C	0.731293	0.601382	-0.403914
C71	C	0.950624	0.703708	-0.301596
C72	C	1.025068	0.601368	-0.403934
C73	C	0.511930	1.306786	0.301473
C74	C	0.437486	1.409125	0.403811
C75	C	0.511941	1.306773	-0.000051
C76	C	0.437501	1.409109	-0.000047
C77	C	0.731265	1.306775	0.301458
C78	C	0.731260	1.409111	0.403791
C79	C	1.017180	0.553332	0.058813
C80	C	1.087118	0.457190	0.058832
C81	C	1.164929	0.409097	-0.000046
C82	C	1.172801	0.457159	-0.058937
C83	C	1.102863	0.553306	-0.058949
C84	C	1.102862	0.553309	-0.393118
C85	C	1.172817	0.457163	-0.489266
C86	C	1.164976	0.409072	-0.596229
C87	C	1.087174	0.457141	-0.607044
C88	C	1.017220	0.553291	-0.510897
C89	C	0.359691	1.457197	0.392994
C90	C	0.289736	1.553372	0.489142
C91	C	0.297578	1.601468	0.596106
C92	C	0.375380	1.553393	0.606920
C93	C	0.445333	1.457226	0.510773
C94	C	0.445374	1.457172	-0.058926
C95	C	0.375436	1.553340	-0.058919
C96	C	0.297625	1.601437	-0.000038
C97	C	0.289753	1.553369	0.058849
C98	C	0.359691	1.457210	0.058848
C99	C	0.774126	0.553298	-0.510872
C100	C	0.774121	0.457151	-0.607021
C101	C	0.688449	0.457178	-0.489241
C102	C	0.688450	0.553329	-0.393094
H103	H	0.808981	0.418015	0.106750
C104	C	0.821222	0.606183	0.123587
N105	N	0.856714	0.646001	0.172372
H106	H	0.653566	0.592483	-0.305998
C107	C	0.641307	1.252572	0.522657
N108	N	0.605816	1.350153	0.531628
H109	H	0.240610	1.679773	0.674386
H110	H	0.653561	1.218907	0.693988
C111	C	0.530960	1.404290	-0.123699
N112	N	0.595421	1.364472	-0.172483
H113	H	0.226393	1.592498	0.480315
H114	H	1.221943	0.330780	-0.674509
H115	H	0.381861	1.592460	-0.106876
C116	C	0.383992	1.606301	0.724591
N117	N	0.390476	1.646146	0.813224
H118	H	0.653560	0.418046	-0.106883
C119	C	0.351016	1.404336	0.123609
N120	N	0.344476	1.364514	0.172389
C121	C	0.304742	1.005217	-0.174948
N122	N	0.333731	1.005189	-0.243953
H123	H	0.653571	0.592489	-0.106869
C124	C	0.821229	0.757948	0.477238
N125	N	0.856715	0.660375	0.468282
H126	H	0.294707	1.005255	0.151017
C127	C	0.220699	1.707210	-0.000053
N128	N	0.162762	1.786875	-0.000072
H129	H	0.953829	0.592488	0.106772
H130	H	1.236163	0.417988	-0.106873
C131	C	0.204153	1.606272	0.123596
N132	N	0.139677	1.646110	0.172353
C133	C	0.821245	0.404257	-0.724674
N134	N	0.856742	0.364416	-0.813293
C135	C	1.078440	0.404327	0.123608
N136	N	1.071902	0.364511	0.172394
H137	H	0.167830	1.005238	0.150999
H138	H	0.353291	1.418042	0.305908
H139	H	0.809009	0.592424	-0.519688
H140	H	0.808990	0.791595	0.305883
H141	H	1.109262	0.592450	-0.306031
H142	H	0.167845	1.005234	-0.151142
H143	H	1.221869	0.330807	-0.000028
H144	H	1.236161	0.418035	-0.480440
H145	H	1.109285	0.592419	-0.106911
H146	H	1.080801	0.417971	-0.694146
H147	H	0.953879	0.592409	-0.519719
H148	H	0.508675	1.418087	0.519594
H149	H	0.653568	0.418040	-0.480445
