data_functionalizedCrystal
_audit_creation_method	'MofGen! by Chris Wilmer'
_symmetry_space_group_name_H-M	'P1'
_symmetry_Int_Tables_number	1
_symmetry_cell_setting	triclinic
loop_
_symmetry_equiv_pos_as_xyz
  x,y,z
_cell_length_a	6.817900
_cell_length_b	14.125469
_cell_length_c	27.923559
_cell_angle_alpha	96.915826
_cell_angle_beta	98.965071
_cell_angle_gamma	100.398878
loop_
_atom_site_label
_atom_site_type_symbol
_atom_site_fract_x
_atom_site_fract_y
_atom_site_fract_z
V1	V	-3.961012	-0.134481	-0.151079
O2	O	-3.965817	0.005054	-0.148396
O3	O	-3.897552	-0.265298	-0.149860
O4	O	-3.890973	-0.133030	-0.217054
O5	O	-3.972441	-0.128130	-0.080737
V6	V	-4.449395	-0.117718	-0.142688
O7	O	-4.211609	-0.171252	-0.169485
O8	O	-4.648995	-0.080947	-0.124282
O9	O	-4.289648	0.013100	-0.143907
O10	O	-4.561987	-0.257253	-0.145371
O11	O	-4.555363	-0.124069	-0.213030
O12	O	-4.296227	-0.119168	-0.076713
C13	C	-3.739589	-0.297169	-0.147429
C14	C	-3.768845	-0.404119	-0.146872
C15	C	-3.822475	-0.599935	-0.145860
C16	C	-4.007298	-0.652275	-0.147908
C17	C	-4.037140	-0.761234	-0.147345
C18	C	-3.792625	-0.490966	-0.146423
C19	C	-3.731197	-0.128447	-0.233141
C20	C	-3.755117	-0.128126	-0.287075
C21	C	-3.931265	-0.214422	-0.628339
C22	C	-4.021268	-0.213275	-0.831050
O23	O	-4.056452	-0.288111	-0.863050
N24	N	-4.004927	-0.124961	-0.849590
C25	C	-3.966095	-0.036929	-0.817450
O26	O	-3.954282	0.038212	-0.837871
C27	C	-3.876108	-0.038078	-0.614741
C28	C	-3.892431	-0.126397	-0.596203
C29	C	-3.947589	-0.302733	-0.609801
C30	C	-3.925078	-0.303019	-0.559126
C31	C	-3.886244	-0.214993	-0.526990
C32	C	-3.869921	-0.126682	-0.545528
C33	C	-3.837291	0.049953	-0.582601
C34	C	-3.814800	0.049657	-0.531922
C35	C	-3.831124	-0.038661	-0.513384
C36	C	-3.808577	-0.038942	-0.462717
N37	N	-3.824917	-0.127255	-0.444176
C38	C	-3.863751	-0.215281	-0.476313
C39	C	-4.013338	-0.036332	-0.923875
C40	C	-4.035831	-0.036045	-0.974552
C41	C	-4.091006	-0.212391	-0.988149
C42	C	-4.068498	-0.212677	-0.937471
C43	C	-4.029679	-0.124645	-0.905335
C44	C	-3.816474	-0.215874	-0.369892
C45	C	-3.793951	-0.216152	-0.319212
C46	C	-3.738789	-0.039807	-0.305620
C47	C	-3.761299	-0.039528	-0.356295
C48	C	-3.800150	-0.127570	-0.388430
O49	O	-3.773413	0.035854	-0.430689
O50	O	-3.875601	-0.290413	-0.455882
C51	C	-3.953776	-0.214136	-0.679014
C52	C	-3.937452	-0.125825	-0.697552
C53	C	-3.898618	-0.037800	-0.665416
C54	C	-3.959945	-0.125538	-0.748229
C55	C	-3.998779	-0.213563	-0.780366
C56	C	-4.015120	-0.301876	-0.761825
C57	C	-3.992610	-0.302162	-0.711150
C58	C	-3.882277	0.050513	-0.683956
C59	C	-3.904788	0.050792	-0.734632
C60	C	-3.943622	-0.037234	-0.766768
C61	C	-4.110953	0.044966	-0.146337
C62	C	-4.060934	0.151914	-0.146896
C63	C	-4.119346	-0.123755	-0.060623
C64	C	-4.074665	-0.124070	-0.006689
H65	H	-4.143116	-0.615254	-0.150084
Br66	Br	-4.000298	-0.422213	-0.653406
Br67	Br	-3.947269	-0.422887	-0.533977
Br68	Br	-3.596112	-0.661635	-0.142232
H69	H	-3.807241	-0.288074	-0.304121
H70	H	-4.081791	-0.284593	-0.922381
Br71	Br	-3.869198	-0.335360	-0.413496
H72	H	-4.022510	0.035874	-0.989641
H73	H	-4.122622	-0.284064	-1.014323
H74	H	-3.981728	0.035358	-0.897714
Br75	Br	-3.815122	0.169821	-0.607746
H76	H	-3.783195	0.121345	-0.505758
Br77	Br	-3.739116	0.080334	-0.381454
Br78	Br	-3.686074	0.079651	-0.261997
Br79	Br	-4.067825	-0.421338	-0.805449
H80	H	-3.891477	0.122717	-0.749720
H81	H	-4.005905	-0.374080	-0.696062
H82	H	-3.850661	0.122196	-0.657795
