data_functionalizedCrystal
_audit_creation_method	'MofGen! by Chris Wilmer'
_symmetry_space_group_name_H-M	'P1'
_symmetry_Int_Tables_number	1
_symmetry_cell_setting	triclinic
loop_
_symmetry_equiv_pos_as_xyz
  x,y,z
_cell_length_a	19.188933
_cell_length_b	19.188930
_cell_length_c	16.098524
_cell_angle_alpha	93.077942
_cell_angle_beta	93.071463
_cell_angle_gamma	83.145175
loop_
_atom_site_label
_atom_site_type_symbol
_atom_site_fract_x
_atom_site_fract_y
_atom_site_fract_z
O1	O	0.928922	0.089951	0.069239
O2	O	1.428922	0.589951	0.569239
O3	O	0.725611	0.101685	0.069248
O4	O	1.225611	0.601685	0.569248
O5	O	0.833133	-0.005838	0.069227
O6	O	1.333133	0.494162	0.569227
O7	O	0.821400	0.197474	0.069260
O8	O	1.321400	0.697474	0.569260
O9	O	0.827566	-0.011398	-0.069288
O10	O	1.327566	0.488602	0.430712
O11	O	0.720045	0.096125	-0.069267
O12	O	1.220045	0.596125	0.430733
O13	O	0.923355	0.084392	-0.069276
O14	O	1.423355	0.584392	0.430724
Zn15	Zn	0.820816	0.089376	-0.091263
Zn16	Zn	1.320816	0.589376	0.408737
Zn17	Zn	0.828150	0.096701	0.091235
Zn18	Zn	1.328150	0.596701	0.591235
O19	O	0.815834	0.191915	-0.069255
O20	O	1.315834	0.691915	0.430745
C21	C	0.696817	0.098525	-0.000009
C22	C	1.196817	0.598525	0.499991
C23	C	0.619313	0.097384	-0.000006
C24	C	1.119313	0.597384	0.499994
C25	C	0.069091	0.092269	0.075488
C26	C	0.569091	0.592269	0.575488
C27	C	0.141915	0.093337	0.075491
C28	C	0.641915	0.593337	0.575491
C29	C	0.175298	0.090844	-0.000012
C30	C	0.675298	0.590844	0.499988
C31	C	0.135853	0.087264	-0.075525
C32	C	0.635853	0.587264	0.424475
C33	C	0.063031	0.086189	-0.075526
C34	C	0.563031	0.586189	0.424474
N35	N	0.282060	0.130007	-0.056207
N36	N	0.782060	0.630007	0.443793
N37	N	0.351238	0.131030	-0.056200
N38	N	0.851238	0.631030	0.443800
C39	C	0.394707	0.094081	-0.000013
C40	C	0.894707	0.594081	0.499987
N41	N	0.366384	0.056081	0.056180
N42	N	0.866384	0.556081	0.556180
N43	N	0.297199	0.055061	0.056176
N44	N	0.797199	0.555061	0.556176
C45	C	0.254261	0.092009	-0.000019
C46	C	0.754261	0.592009	0.499981
C47	C	0.513108	0.098814	0.075498
C48	C	1.013108	0.598814	0.575498
C49	C	0.585935	0.099878	0.075499
C50	C	1.085935	0.599878	0.575499
C51	C	0.579870	0.093812	-0.075520
C52	C	1.079870	0.593812	0.424480
C53	C	0.507046	0.092741	-0.075518
C54	C	1.007046	0.592741	0.424482
C55	C	0.473669	0.095246	-0.000007
C56	C	0.973669	0.595246	0.499993
C57	C	0.829970	-0.034629	-0.000033
C58	C	1.329970	0.465371	0.499967
C59	C	0.828829	-0.112134	-0.000040
C60	C	1.328829	0.387866	0.499960
C61	C	0.891919	-0.157058	-0.000047
C62	C	1.391919	0.342942	0.499953
C63	C	0.890848	-0.229881	-0.000033
C64	C	1.390848	0.270119	0.499967
C65	C	0.826682	-0.257778	-0.000030
C66	C	1.326682	0.242222	0.499970
C67	C	0.763583	-0.212844	-0.000018
C68	C	1.263583	0.287156	0.499982
C69	C	0.764657	-0.140022	-0.000024
C70	C	1.264657	0.359978	0.499976
N71	N	0.775741	-0.367675	-0.047167
N72	N	1.275741	0.132325	0.452833
N73	N	0.774725	-0.436854	-0.047164
N74	N	1.274725	0.063146	0.452836
C75	C	0.823445	-0.477186	-0.000013
C76	C	1.323445	0.022814	0.499987
N77	N	0.873228	-0.445728	0.047124
N78	N	1.373228	0.054272	0.547124
N79	N	0.874245	-0.376544	0.047118
N80	N	1.374245	0.123456	0.547118
C81	C	0.825511	-0.336740	-0.000024
C82	C	1.325511	0.163260	0.499976
C83	C	0.885378	-0.601073	-0.000004
C84	C	1.385378	-0.101073	0.499996
C85	C	0.884305	-0.673898	0.000015
C86	C	1.384305	-0.173898	0.500015
C87	C	0.757038	-0.656859	0.000021
C88	C	1.257038	-0.156859	0.500021
C89	C	0.758114	-0.584037	0.000011
C90	C	1.258114	-0.084037	0.500011
C91	C	0.822285	-0.556148	-0.000006
C92	C	1.322285	-0.056148	0.499994
C93	C	0.952150	0.087552	-0.000018
C94	C	1.452150	0.587552	0.499982
C95	C	1.029654	0.088693	-0.000015
C96	C	1.529654	0.588693	0.499985
C97	C	0.818997	0.220706	0.000007
C98	C	1.318997	0.720706	0.500007
C99	C	0.820138	0.298211	0.000019
C100	C	1.320138	0.798211	0.500019
N101	N	0.815816	0.084376	-0.215813
N102	N	1.315816	0.584376	0.284187
C103	C	0.856281	0.124871	-0.259390
C104	C	1.356281	0.624871	0.240610
C105	C	0.852793	0.121369	-0.346580
C106	C	1.352793	0.621369	0.153420
C107	C	0.808835	0.077375	-0.390191
C108	C	1.308835	0.577375	0.109809
C109	C	0.768369	0.036876	-0.346609
C110	C	1.268369	0.536876	0.153391
C111	C	0.771861	0.040374	-0.259420
C112	C	1.271861	0.540374	0.240580
C113	C	0.796182	0.064694	-0.653444
C114	C	1.296182	0.564694	-0.153444
C115	C	0.792691	0.061200	-0.740638
C116	C	1.292691	0.561200	-0.240638
C117	C	0.877116	0.145693	-0.740603
C118	C	1.377116	0.645693	-0.240603
C119	C	0.880602	0.149191	-0.653413
C120	C	1.380602	0.649191	-0.153413
C121	C	0.840138	0.108688	-0.609838
C122	C	1.340138	0.608688	-0.109838
C123	C	0.805267	0.073796	-0.479313
C124	C	1.305267	0.573796	0.020687
C125	C	0.843711	0.112264	-0.520718
C126	C	1.343711	0.612264	-0.020718
N127	N	0.833156	0.101695	0.215785
N128	N	1.333156	0.601695	0.715785
H129	H	0.174030	0.096252	0.136977
H130	H	0.674030	0.596252	0.636977
O131	O	0.954216	-0.129883	0.000058
O132	O	1.454216	0.370117	0.500058
C133	C	0.961538	-0.085396	0.071806
C134	C	1.461538	0.414604	0.571806
H135	H	0.907414	-0.066124	0.095725
H136	H	1.407414	0.433876	0.595725
H137	H	0.988580	-0.038444	0.055670
H138	H	1.488580	0.461556	0.555670
H139	H	0.994542	-0.115644	0.122038
H140	H	1.494542	0.384356	0.622038
O141	O	0.696892	-0.540293	0.000046
O142	O	1.196892	-0.040293	0.500046
C143	C	0.711597	-0.470038	0.000019
C144	C	1.211597	0.029962	0.500019
H145	H	0.767484	-0.466356	0.026238
H146	H	1.267484	0.033644	0.526238
H147	H	0.672984	-0.435301	0.040235
H148	H	1.172984	0.064699	0.540235
H149	H	0.706214	-0.451646	-0.066434
H150	H	1.206214	0.048354	0.433566
H151	H	0.607049	0.091779	-0.136997
H152	H	1.107049	0.591779	0.363003
H153	H	0.885746	0.154343	-0.382056
H154	H	1.385746	0.654343	0.117944
O155	O	0.036603	0.094598	0.148783
O156	O	0.536603	0.594598	0.648783
C157	C	0.002772	0.033692	0.153304
C158	C	0.502772	0.533692	0.653304
H159	H	-0.008070	0.010741	0.087744
H160	H	0.491930	0.510741	0.587744
H161	H	-0.048975	0.047816	0.185260
H162	H	0.451025	0.547816	0.685260
H163	H	0.038001	-0.006728	0.190562
H164	H	0.538001	0.493272	0.690562
O165	O	0.945583	-0.717560	0.000159
O166	O	1.445583	-0.217560	0.500159
C167	C	0.951650	-0.757310	0.071893
C168	C	1.451650	-0.257310	0.571893
H169	H	0.917882	-0.728509	0.122034
H170	H	1.417882	-0.228509	0.622034
H171	H	1.008885	-0.764696	0.095965
H172	H	1.508885	-0.264696	0.595965
H173	H	0.933091	-0.810868	0.055685
H174	H	1.433091	-0.310868	0.555685
H175	H	0.704793	-0.679572	0.000028
H176	H	1.204793	-0.179572	0.500028
O177	O	0.168369	0.084753	-0.148816
O178	O	0.668369	0.584753	0.351184
C179	C	0.218394	0.024730	-0.153348
C180	C	0.718394	0.524730	0.346652
H181	H	0.234633	0.007371	-0.087792
H182	H	0.734633	0.507371	0.412208
H183	H	0.266499	0.037800	-0.185302
H184	H	0.766499	0.537800	0.314698
H185	H	0.194502	-0.019516	-0.190614
H186	H	0.694502	0.480484	0.309386
H187	H	0.942226	-0.266465	-0.000036
H188	H	1.442226	0.233535	0.499964
O189	O	0.899041	0.167621	-0.217158
O190	O	1.399041	0.667621	0.282842
C191	C	0.933996	0.202624	-0.274321
C192	C	1.433996	0.702624	0.225679
H193	H	0.935670	0.171215	-0.336476
H194	H	1.435670	0.671215	0.163524
H195	H	0.989892	0.207832	-0.249122
H196	H	1.489892	0.707832	0.250878
H197	H	0.904692	0.257129	-0.283589
H198	H	1.404692	0.757129	0.216411
H199	H	0.769476	0.037976	-0.514831
H200	H	1.269476	0.537976	-0.014831
O201	O	0.947671	-0.573888	0.000102
O202	O	1.447671	-0.073888	0.500102
C203	C	0.954986	-0.529394	0.071844
C204	C	1.454986	-0.029394	0.571844
H205	H	0.900859	-0.510127	0.095760
H206	H	1.400859	-0.010127	0.595760
H207	H	0.982021	-0.482439	0.055704
H208	H	1.482021	0.017561	0.555704
H209	H	0.987992	-0.559634	0.122082
H210	H	1.487992	-0.059634	0.622082
H211	H	0.916399	0.185013	-0.617911
H212	H	1.416399	0.685013	-0.117911
H213	H	0.910060	0.178667	-0.776091
H214	H	1.410060	0.678667	-0.276091
O215	O	0.703392	-0.096345	0.000126
O216	O	1.203392	0.403655	0.500126
C217	C	0.703097	-0.050807	0.071848
C218	C	1.203097	0.449193	0.571848
H219	H	0.740898	-0.075564	0.121988
H220	H	1.240898	0.424436	0.621988
H221	H	0.647799	-0.041474	0.095932
H222	H	1.147799	0.458526	0.595932
H223	H	0.720355	0.001440	0.055620
H224	H	1.220355	0.501440	0.555620
H225	H	0.711339	-0.235562	-0.000014
H226	H	1.211339	0.264438	0.499986
H227	H	0.756891	0.025375	-0.776144
H228	H	1.256891	0.525375	-0.276144
O229	O	0.024818	0.082749	-0.148948
O230	O	0.524818	0.582749	0.351052
C231	C	0.069897	0.080756	-0.215592
C232	C	0.569897	0.580756	0.284408
H233	H	0.119740	0.104508	-0.193455
H234	H	0.619740	0.604508	0.306545
H235	H	0.042200	0.112214	-0.268397
H236	H	0.542200	0.612214	0.231603
H237	H	0.084203	0.023935	-0.238814
H238	H	0.584203	0.523935	0.261186
O239	O	0.756802	0.025333	-0.611252
O240	O	1.256802	0.525333	-0.111252
C241	C	0.717267	-0.014256	-0.668444
C242	C	1.217267	0.485744	-0.168444
H243	H	0.710616	0.012168	-0.730587
H244	H	1.210616	0.512168	-0.230587
H245	H	0.663388	-0.017442	-0.643265
H246	H	1.163388	0.482558	-0.143265
H247	H	0.745827	-0.069505	-0.677726
H248	H	1.245827	0.430495	-0.177726
H249	H	0.732581	0.001051	-0.382124
H250	H	1.232581	0.501051	0.117876
H251	H	0.738910	0.007399	-0.223942
H252	H	1.238910	0.507399	0.276058
O253	O	0.886512	0.154917	-0.478395
O254	O	1.386512	0.654917	0.021605
C255	C	0.956585	0.134563	-0.499703
C256	C	1.456585	0.634563	0.000297
H257	H	0.962558	0.077280	-0.523687
H258	H	1.462558	0.577280	-0.023687
H259	H	0.993212	0.140848	-0.442355
H260	H	1.493212	0.640848	0.057645
H261	H	0.970649	0.169103	-0.550297
H262	H	1.470649	0.669103	-0.050297
O263	O	0.480746	0.101339	0.148898
O264	O	0.980746	0.601339	0.648898
C265	C	0.492280	0.163910	0.194830
C266	C	0.992280	0.663910	0.694830
H267	H	0.541597	0.183978	0.173367
H268	H	1.041597	0.683978	0.673367
H269	H	0.499361	0.153125	0.263904
H270	H	0.999361	0.653125	0.763904
H271	H	0.445211	0.205221	0.184364
H272	H	0.945211	0.705221	0.684364
O273	O	0.624307	0.103444	0.148794
O274	O	1.124307	0.603444	0.648794
C275	C	0.658507	0.164709	0.153323
C276	C	1.158507	0.664709	0.653323
H277	H	0.664090	0.182385	0.087766
H278	H	1.164090	0.682385	0.587766
H279	H	0.712818	0.153153	0.185282
H280	H	1.212818	0.653153	0.685282
H281	H	0.626271	0.208130	0.190582
H282	H	1.126271	0.708130	0.690582
H283	H	0.474935	0.089832	-0.137001
H284	H	0.974935	0.589832	0.362999
