data_functionalizedCrystal
_audit_creation_method	'MofGen! by Chris Wilmer'
_symmetry_space_group_name_H-M	'P1'
_symmetry_Int_Tables_number	1
_symmetry_cell_setting	triclinic
loop_
_symmetry_equiv_pos_as_xyz
  x,y,z
_cell_length_a	14.971486
_cell_length_b	14.519731
_cell_length_c	13.448316
_cell_angle_alpha	89.992415
_cell_angle_beta	89.998199
_cell_angle_gamma	83.651491
loop_
_atom_site_label
_atom_site_type_symbol
_atom_site_fract_x
_atom_site_fract_y
_atom_site_fract_z
O1	O	1.187024	0.120183	-0.082580
O2	O	0.926633	0.134575	-0.082607
O3	O	1.063722	-0.006862	-0.082584
O4	O	1.049934	0.261620	-0.082603
O5	O	1.063705	-0.006871	0.082800
O6	O	0.926616	0.134566	0.082777
O7	O	1.187007	0.120174	0.082804
Cu8	Cu	1.056810	0.127369	0.097891
Cu9	Cu	1.056830	0.127380	-0.097694
O10	O	1.049917	0.261611	0.082781
C11	C	0.893299	0.133927	0.000081
C12	C	0.794001	0.131998	0.000071
C13	C	1.063068	-0.041226	0.000108
C14	C	1.061132	-0.143605	0.000109
C15	C	0.736828	0.215089	0.000067
C16	C	0.643528	0.213271	0.000082
C17	C	0.607401	0.128361	0.000094
C18	C	0.664581	0.045264	0.000102
C19	C	0.757880	0.047083	0.000094
C20	C	0.470116	0.041479	0.000116
C21	C	0.376811	0.039660	0.000122
C22	C	0.355764	0.207667	0.000103
C23	C	0.449063	0.209486	0.000096
C24	C	0.506236	0.126388	0.000101
C25	C	1.059559	-0.226748	0.000106
C26	C	1.057593	-0.331056	0.000099
C27	C	1.056033	-0.414194	0.000092
C28	C	1.054068	-0.518508	0.000086
C29	C	1.220340	0.120822	0.000113
C30	C	1.319639	0.122751	0.000117
C31	C	1.050572	0.295975	0.000086
C32	C	1.052508	0.398354	0.000079
N33	N	1.056802	0.127361	0.235456
N34	N	1.056845	0.127380	-0.235259
C35	C	1.117524	0.064759	0.287506
C36	C	1.117529	0.064758	0.391610
C37	C	1.056816	0.127365	0.443660
C38	C	0.996088	0.189971	0.391602
C39	C	0.996079	0.189966	0.287501
C40	C	0.996113	0.189977	0.608582
C41	C	0.996123	0.189983	0.712691
C42	C	1.117563	0.064769	0.712691
C43	C	1.117554	0.064764	0.608590
C44	C	1.056827	0.127371	0.556539
H45	H	0.596981	0.280932	0.000077
H46	H	0.478474	0.278626	0.000076
C47	C	0.292880	0.299078	0.000102
C48	C	0.225838	0.320935	-0.085771
C49	C	0.162951	0.412343	-0.085778
C50	C	0.167108	0.481895	0.000088
C51	C	0.234154	0.460041	0.085968
C52	C	0.297040	0.368632	0.085975
H53	H	0.222758	0.269447	-0.149339
H54	H	0.113320	0.428521	-0.149352
H55	H	0.120556	0.549561	0.000083
H56	H	0.237233	0.511529	0.149536
H57	H	0.346671	0.352455	0.149549
C58	C	0.337064	-0.053736	0.000153
C59	C	0.358567	-0.122774	0.086055
C60	C	0.318817	-0.216170	0.086091
C61	C	0.257564	-0.240528	0.000226
C62	C	0.236058	-0.171488	-0.085682
C63	C	0.275808	-0.078092	-0.085719
H64	H	0.403913	-0.104745	0.149623
H65	H	0.334737	-0.267278	0.149686
H66	H	0.228138	-0.309665	0.000253
H67	H	0.190712	-0.189517	-0.149251
H68	H	0.259887	-0.026984	-0.149314
C69	C	0.533011	-0.049927	0.000120
C70	C	0.528873	-0.119486	0.086002
C71	C	0.591768	-0.210888	0.086001
C72	C	0.658801	-0.232731	0.000118
C73	C	0.662941	-0.163170	-0.085771
C74	C	0.600046	-0.071768	-0.085770
H75	H	0.479249	-0.103318	0.149584
H76	H	0.588702	-0.262382	0.149582
H77	H	0.705359	-0.300393	0.000117
H78	H	0.712565	-0.179338	-0.149353
H79	H	0.603111	-0.020274	-0.149351
C80	C	0.820774	-0.044317	0.000097
C81	C	0.816632	-0.113871	0.085984
C82	C	0.879526	-0.205274	0.085992
C83	C	0.946562	-0.227124	0.000114
C84	C	0.950708	-0.157568	-0.085780
C85	C	0.887814	-0.066165	-0.085788
H86	H	0.767005	-0.097698	0.149562
H87	H	0.876457	-0.256763	0.149577
H88	H	0.993120	-0.294786	0.000120
H89	H	1.000334	-0.173741	-0.149358
H90	H	0.890883	-0.014676	-0.149373
C91	C	1.184338	-0.004101	0.551329
C92	C	1.182670	-0.109124	0.565653
C93	C	1.249452	-0.177991	0.508390
C94	C	1.317901	-0.141835	0.436803
C95	C	1.319571	-0.036808	0.422476
C96	C	1.252789	0.032060	0.479739
H97	H	1.131998	-0.135893	0.618649
H98	H	1.248215	-0.255739	0.518997
H99	H	1.367337	-0.192815	0.394414
H100	H	1.370244	-0.010038	0.369480
H101	H	1.254026	0.109808	0.469132
H102	H	0.635160	-0.023870	0.000126
C103	C	0.929331	0.258846	0.769944
C104	C	0.862528	0.327699	0.712687
C105	C	0.795734	0.396564	0.769937
C106	C	0.795743	0.396575	0.884445
C107	C	0.862549	0.327719	0.941708
C108	C	0.929343	0.258855	0.884457
H109	H	0.862518	0.327694	0.627916
H110	H	0.746280	0.447536	0.727546
H111	H	0.746299	0.447553	0.926825
H112	H	0.862559	0.327725	1.026479
H113	H	0.978797	0.207883	0.926848
H114	H	1.166967	0.013781	0.245134
H115	H	0.766235	0.284232	0.000056
H116	H	1.166973	0.013782	0.433989
H117	H	1.167010	0.013792	0.755077
H118	H	0.946659	0.240955	0.566206
H119	H	0.946650	0.240944	0.433988
H120	H	0.946632	0.240943	0.245122
