data_functionalizedCrystal
_audit_creation_method	'MofGen! by Chris Wilmer'
_symmetry_space_group_name_H-M	'P1'
_symmetry_Int_Tables_number	1
_symmetry_cell_setting	triclinic
loop_
_symmetry_equiv_pos_as_xyz
  x,y,z
_cell_length_a	17.699077
_cell_length_b	10.654541
_cell_length_c	16.176319
_cell_angle_alpha	89.993456
_cell_angle_beta	89.993140
_cell_angle_gamma	83.882252
loop_
_atom_site_label
_atom_site_type_symbol
_atom_site_fract_x
_atom_site_fract_y
_atom_site_fract_z
O1	O	1.005090	0.158773	-0.068735
O2	O	0.784842	0.179443	-0.068739
O3	O	0.900031	-0.013720	-0.068732
O4	O	0.889901	0.351936	-0.068742
O5	O	0.900015	-0.013733	0.068761
O6	O	0.784826	0.179430	0.068754
O7	O	1.005074	0.158761	0.068758
Cu8	Cu	0.894949	0.169095	0.081310
Cu9	Cu	0.894968	0.169109	-0.081291
O10	O	0.889885	0.351924	0.068751
C11	C	0.756633	0.178697	0.000007
C12	C	0.672600	0.176479	0.000005
C13	C	0.633117	0.175427	0.074954
C14	C	0.554162	0.173323	0.074955
C15	C	0.514689	0.172280	0.000006
C16	C	0.554178	0.173328	-0.074948
C17	C	0.633133	0.175423	-0.074948
C18	C	0.235761	0.164877	-0.074949
C19	C	0.156800	0.162786	-0.074943
C20	C	0.156789	0.162777	0.074954
C21	C	0.235745	0.164872	0.074954
C22	C	0.275227	0.165913	-0.000000
C23	C	0.360840	0.168193	-0.000000
C24	C	0.429077	0.170010	0.000006
C25	C	0.899280	-0.060511	0.000014
C26	C	0.897056	-0.199916	0.000013
C27	C	1.034795	-0.230303	0.000026
C28	C	1.102617	-0.310987	0.000034
C29	C	1.100522	-0.441968	0.000031
C30	C	1.030599	-0.492267	0.000018
C31	C	0.962777	-0.411583	0.000010
C32	C	0.964879	-0.280600	0.000015
C33	C	0.825039	-0.381196	-0.000009
C34	C	0.827132	-0.250215	-0.000001
C35	C	0.755116	-0.431495	-0.000022
C36	C	0.687292	-0.350811	-0.000025
C37	C	0.689390	-0.219822	-0.000021
C38	C	0.759310	-0.169531	-0.000009
C39	C	1.033284	0.159507	0.000010
C40	C	1.117316	0.161725	0.000006
C41	C	0.890637	0.398715	0.000003
C42	C	0.892861	0.538120	-0.000001
N43	N	0.894941	0.169084	0.195675
N44	N	0.894982	0.169110	-0.195657
C45	C	0.945962	0.083586	0.238943
C46	C	0.945966	0.083585	0.325490
C47	C	0.894952	0.169088	0.368768
C48	C	0.843925	0.254590	0.325495
C49	C	0.843918	0.254584	0.238949
C50	C	0.843951	0.254613	0.674523
C51	C	0.843963	0.254615	0.761074
C52	C	0.945999	0.083614	0.761064
C53	C	0.945992	0.083608	0.674518
C54	C	0.894963	0.169105	0.631252
C55	C	0.894959	0.169104	0.537408
C56	C	0.894959	0.169096	0.462611
H57	H	0.124664	0.161935	-0.135979
H58	H	0.124634	0.161923	0.135985
H59	H	0.802419	0.324244	0.796310
O60	O	0.794442	0.337601	0.367660
C61	C	0.749201	0.413355	0.500990
C62	C	0.805292	0.319292	0.453344
H63	H	0.757944	0.398567	0.570273
H64	H	0.759586	0.513946	0.484020
H65	H	0.688505	0.397130	0.483942
H66	H	0.866009	0.335401	0.470366
H67	H	0.794842	0.218734	0.470318
H68	H	0.753415	-0.538148	-0.000030
H69	H	0.267898	0.165721	-0.135981
O70	O	1.170473	-0.261917	0.000085
C71	C	1.234752	-0.073601	0.000052
C72	C	1.157854	-0.128998	0.000015
H73	H	1.224576	0.033870	-0.000022
H74	H	1.268300	-0.106768	0.057611
H75	H	1.268313	-0.106910	-0.057471
H76	H	1.124231	-0.095714	0.057499
H77	H	1.124364	-0.095838	-0.057581
H78	H	0.630366	-0.391776	-0.000041
H79	H	0.987507	0.013965	0.203711
O80	O	0.995529	0.000375	0.803004
C81	C	1.038707	-0.218085	0.829530
C82	C	0.982586	-0.123962	0.781969
H83	H	1.028251	-0.318632	0.812554
H84	H	1.099424	-0.201955	0.812486
H85	H	1.029958	-0.203338	0.898816
H86	H	0.991265	-0.138653	0.712672
H87	H	0.921889	-0.140115	0.799082
H88	H	0.802403	0.324230	0.639303
O89	O	0.995512	0.000628	0.632374
C90	C	1.098501	-0.026674	0.534379
C91	C	1.042551	0.067506	0.582113
H92	H	1.136537	0.027359	0.493719
H93	H	1.135032	-0.087908	0.580054
H94	H	1.065313	-0.089210	0.493981
H95	H	1.075679	0.130124	0.622512
H96	H	1.006020	0.128651	0.536393
O97	O	1.166473	-0.520171	0.000074
C98	C	1.303317	-0.536504	0.000037
C99	C	1.228686	-0.447796	0.000009
H100	H	1.353635	-0.478025	-0.000033
H101	H	1.305818	-0.598573	0.057590
H102	H	1.305743	-0.598600	-0.057491
H103	H	1.226210	-0.385621	0.057498
H104	H	1.226216	-0.385813	-0.057582
O105	O	0.794330	0.337761	0.197045
C106	C	0.693091	0.507327	0.206183
C107	C	0.749224	0.413220	0.253741
H108	H	0.656597	0.568342	0.252002
H109	H	0.726049	0.570080	0.165672
H110	H	0.655032	0.453158	0.165658
H111	H	0.787297	0.467287	0.294311
H112	H	0.716219	0.350468	0.294201
H113	H	0.522034	0.172470	-0.135972
O114	O	0.623435	-0.141628	0.000005
C115	C	0.486592	-0.125329	-0.000073
C116	C	0.561230	-0.214020	-0.000083
H117	H	0.436280	-0.183821	-0.000162
H118	H	0.484060	-0.063282	0.057482
H119	H	0.484187	-0.063210	-0.057599
H120	H	0.563685	-0.276218	0.057404
H121	H	0.563731	-0.275981	-0.057677
H122	H	0.665249	0.176287	0.135986
H123	H	1.028899	-0.598920	0.000006
O124	O	0.274069	0.165659	0.147780
C125	C	0.306186	0.057564	0.275923
C126	C	0.262764	0.056507	0.193467
H127	H	0.297048	-0.030662	0.312891
H128	H	0.369415	0.059161	0.263098
H129	H	0.284196	0.145038	0.312848
H130	H	0.284690	-0.030953	0.156500
H131	H	0.199541	0.054976	0.206350
O132	O	0.995610	0.000499	0.367391
C133	C	1.096807	-0.169135	0.358247
C134	C	1.040633	-0.075091	0.310692
H135	H	1.133212	-0.230291	0.312427
H136	H	1.134946	-0.115040	0.398725
H137	H	1.063807	-0.231757	0.398806
H138	H	1.073572	-0.012445	0.270088
H139	H	1.002494	-0.129264	0.270267
H140	H	0.522020	0.172446	0.135985
O141	O	0.671367	0.176507	-0.147827
C142	C	0.663055	0.176228	-0.296510
C143	C	0.619660	0.175032	-0.214032
H144	H	0.621270	0.175009	-0.350058
H145	H	0.693528	0.265080	-0.300315
H146	H	0.706509	0.089380	-0.300210
H147	H	0.576169	0.261820	-0.210276
H148	H	0.589239	0.086123	-0.210262
H149	H	1.036507	-0.123652	0.000039
H150	H	0.761025	-0.062881	-0.000001
