data_functionalizedCrystal
_audit_creation_method	'MofGen! by Chris Wilmer'
_symmetry_space_group_name_H-M	'P1'
_symmetry_Int_Tables_number	1
_symmetry_cell_setting	triclinic
loop_
_symmetry_equiv_pos_as_xyz
  x,y,z
_cell_length_a	17.077404
_cell_length_b	29.839131
_cell_length_c	17.077396
_cell_angle_alpha	89.968087
_cell_angle_beta	89.980499
_cell_angle_gamma	90.041645
loop_
_atom_site_label
_atom_site_type_symbol
_atom_site_fract_x
_atom_site_fract_y
_atom_site_fract_z
Zn1	Zn	1.199954	-0.178851	-0.443824
Zn2	Zn	1.699954	0.321149	0.056176
Zn3	Zn	1.199818	-0.253981	-0.312550
Zn4	Zn	1.699818	0.246019	0.187450
Zn5	Zn	1.068685	-0.178866	-0.312572
Zn6	Zn	1.568685	0.321134	0.187428
Zn7	Zn	1.068611	-0.253955	-0.443774
Zn8	Zn	1.568611	0.246045	0.056226
O9	O	1.134267	-0.216413	-0.378180
O10	O	1.634267	0.283587	0.121820
O11	O	1.309782	-0.188821	-0.426422
O12	O	1.809782	0.311179	0.073578
O13	O	1.182398	-0.244035	-0.202706
O14	O	1.682398	0.255965	0.297294
O15	O	1.086186	-0.115997	-0.330013
O16	O	1.586186	0.384003	0.169987
O17	O	1.309683	-0.244020	-0.329976
O18	O	1.809683	0.255980	0.170024
O19	O	1.182628	-0.115986	-0.426443
O20	O	1.682628	0.384014	0.073557
O21	O	1.086055	-0.188848	-0.202722
O22	O	1.586055	0.311152	0.297278
O23	O	0.958829	-0.188822	-0.329964
O24	O	1.458829	0.311178	0.170036
O25	O	1.086059	-0.243974	-0.553627
O26	O	1.586059	0.256026	-0.053627
O27	O	0.958774	-0.243989	-0.426358
O28	O	1.458774	0.256011	0.073642
O29	O	1.182556	-0.188796	-0.553664
O30	O	1.682556	0.311204	-0.053664
O31	O	1.182325	-0.316845	-0.329927
O32	O	1.682325	0.183155	0.170073
O33	O	1.085928	-0.316825	-0.426336
O34	O	1.585928	0.183175	0.073664
C35	C	0.930319	-0.216405	-0.378158
C36	C	1.430319	0.283595	0.121842
C37	C	0.843069	-0.216412	-0.378168
C38	C	1.343069	0.283588	0.121832
C39	C	0.802071	-0.245181	-0.428279
C40	C	1.302071	0.254819	0.071721
C41	C	0.720091	-0.245182	-0.428292
C42	C	1.220091	0.254818	0.071708
C43	C	0.679110	-0.216416	-0.378188
C44	C	1.179110	0.283584	0.121812
C45	C	0.720114	-0.187644	-0.328074
C46	C	1.220114	0.312356	0.171926
C47	C	0.802093	-0.187641	-0.328066
C48	C	1.302093	0.312359	0.171934
C49	C	0.549244	-0.187653	-0.328093
C50	C	1.049244	0.312347	0.171907
C51	C	0.467259	-0.187657	-0.328100
C52	C	0.967259	0.312343	0.171900
C53	C	0.467242	-0.245194	-0.428319
C54	C	0.967242	0.254806	0.071681
C55	C	0.549221	-0.245191	-0.428311
C56	C	1.049221	0.254809	0.071689
C57	C	0.590219	-0.216420	-0.378196
C58	C	1.090219	0.283580	0.121804
C59	C	1.134125	-0.333136	-0.378141
C60	C	1.634125	0.166864	0.121859
C61	C	1.134136	-0.383070	-0.378151
C62	C	1.634136	0.116930	0.121849
C63	C	1.184552	-0.692711	-0.328053
C64	C	1.684552	-0.192711	0.171947
C65	C	1.184649	-0.880384	-0.328083
C66	C	1.684649	-0.380384	0.171917
O67	O	1.227402	-0.904647	-0.285459
O68	O	1.727402	-0.404647	0.214541
N69	N	1.134430	-0.903855	-0.378239
N70	N	1.634430	-0.403855	0.121761
C71	C	1.084186	-0.880405	-0.428394
C72	C	1.584186	-0.380405	0.071606
O73	O	1.041479	-0.904675	-0.471061
O74	O	1.541479	-0.404675	0.028939
C75	C	1.084094	-0.692733	-0.428367
C76	C	1.584094	-0.192733	0.071633
C77	C	1.134311	-0.669264	-0.378203
C78	C	1.634311	-0.169264	0.121797
C79	C	1.234766	-0.669242	-0.277893
C80	C	1.734766	-0.169242	0.222107
C81	C	1.234738	-0.622327	-0.277883
C82	C	1.734738	-0.122327	0.222117
C83	C	1.184497	-0.598880	-0.328033
C84	C	1.684497	-0.098880	0.171967
C85	C	1.134283	-0.622349	-0.378193
C86	C	1.634283	-0.122349	0.121807
C87	C	1.033855	-0.669284	-0.478526
C88	C	1.533855	-0.169284	0.021474
C89	C	1.033837	-0.622363	-0.478516
C90	C	1.533837	-0.122363	0.021484
C91	C	1.084055	-0.598894	-0.428352
C92	C	1.584055	-0.098894	0.071648
C93	C	1.084014	-0.551987	-0.428332
C94	C	1.584014	-0.051987	0.071668
N95	N	1.134233	-0.528516	-0.378177
N96	N	1.634233	-0.028516	0.121823
C97	C	1.184475	-0.551962	-0.328027
C98	C	1.684475	-0.051962	0.171973
C99	C	1.084237	-0.978936	-0.428404
C100	C	1.584237	-0.478936	0.071596
C101	C	1.084259	-1.025854	-0.428410
C102	C	1.584259	-0.525854	0.071590
C103	C	1.184723	-1.025829	-0.328100
C104	C	1.684723	-0.525829	0.171900
C105	C	1.184697	-0.978911	-0.328090
C106	C	1.684697	-0.478911	0.171910
C107	C	1.134457	-0.955465	-0.378248
C108	C	1.634457	-0.455465	0.121752
C109	C	1.184412	-0.453437	-0.328009
C110	C	1.684412	0.046563	0.171991
C111	C	1.184378	-0.406517	-0.328001
C112	C	1.684378	0.093483	0.171999
C113	C	1.083917	-0.406545	-0.428314
C114	C	1.583917	0.093455	0.071686
C115	C	1.083948	-0.453461	-0.428319
C116	C	1.583948	0.046539	0.071681
C117	C	1.134202	-0.476905	-0.378164
C118	C	1.634202	0.023095	0.121836
O119	O	1.041290	-0.527695	-0.470941
O120	O	1.541290	-0.027695	0.029059
O121	O	1.227188	-0.527685	-0.285378
O122	O	1.727188	-0.027685	0.214622
C123	C	1.184580	-0.739627	-0.328063
C124	C	1.684580	-0.239627	0.171937
C125	C	1.134366	-0.763095	-0.378223
C126	C	1.634366	-0.263095	0.121777
C127	C	1.084125	-0.739649	-0.428373
C128	C	1.584125	-0.239649	0.071627
C129	C	1.134388	-0.810013	-0.378229
C130	C	1.634388	-0.310013	0.121771
C131	C	1.184630	-0.833460	-0.328079
C132	C	1.684630	-0.333460	0.171921
C133	C	1.234849	-0.809989	-0.277923
C134	C	1.734849	-0.309989	0.222077
C135	C	1.234822	-0.763073	-0.277913
C136	C	1.734822	-0.263073	0.222087
C137	C	1.033905	-0.763120	-0.478529
C138	C	1.533905	-0.263120	0.021471
C139	C	1.033937	-0.810035	-0.478534
C140	C	1.533937	-0.310035	0.021466
C141	C	1.084178	-0.833482	-0.428384
C142	C	1.584178	-0.333482	0.071616
C143	C	1.339011	-0.216422	-0.378202
C144	C	1.839011	0.283578	0.121798
C145	C	1.426261	-0.216425	-0.378212
C146	C	1.926261	0.283575	0.121788
C147	C	1.134314	-0.216380	-0.582924
C148	C	1.634314	0.283620	-0.082924
C149	C	1.134335	-0.216366	-0.670174
C150	C	1.634335	0.283634	-0.170174
C151	C	1.134431	-0.099235	-0.378236
C152	C	1.634431	0.400765	0.121764
C153	C	1.134500	-0.049300	-0.378260
C154	C	1.634500	0.450700	0.121740
C155	C	1.184582	-0.187632	-0.711185
C156	C	1.684582	0.312368	-0.211185
C157	C	1.184592	-0.187617	-0.793165
C158	C	1.684592	0.312383	-0.293165
C159	C	1.134357	-0.216339	-0.834134
C160	C	1.634357	0.283661	-0.334134
C161	C	1.084104	-0.245074	-0.793117
C162	C	1.584104	0.254926	-0.293117
C163	C	1.084091	-0.245086	-0.711138
C164	C	1.584091	0.254914	-0.211138
C165	C	1.084135	-0.245047	-0.963987
C166	C	1.584135	0.254953	-0.463987
C167	C	1.084149	-0.245035	-1.045972
C168	C	1.584149	0.254965	-0.545972
C169	C	1.184636	-0.187578	-1.046014
C170	C	1.684636	0.312422	-0.546014
C171	C	1.184624	-0.187590	-0.964035
C172	C	1.684624	0.312410	-0.464035
C173	C	1.134371	-0.216326	-0.923025
C174	C	1.634371	0.283674	-0.423025
C175	C	1.134265	-0.216414	-0.174232
C176	C	1.634265	0.283586	0.325768
C177	C	1.134397	-0.216301	-0.086983
C178	C	1.634397	0.283699	0.413017
H179	H	0.433857	-0.268619	-0.469126
H180	H	0.933857	0.231381	0.030874
N181	N	1.032603	-0.382597	-0.479552
N182	N	1.532603	0.117403	0.020448
N183	N	0.987773	-0.403553	-0.524343
N184	N	1.487773	0.096447	-0.024343
H185	H	0.951535	-0.386639	-0.560536
H186	H	1.451535	0.113361	-0.060536
N187	N	0.678196	-0.274566	-0.479471
N188	N	1.178196	0.225434	0.020529
N189	N	0.632488	-0.258801	-0.529547
N190	N	1.132488	0.241199	-0.029547
H191	H	0.602896	-0.279555	-0.565692
H192	H	1.102896	0.220445	-0.065692
H193	H	1.225552	-0.164179	-1.079409
H194	H	1.725552	0.335821	-0.579409
H195	H	1.225336	-0.472520	-0.287169
H196	H	1.725336	0.027480	0.212831
N197	N	0.843928	-0.274559	-0.479471
N198	N	1.343928	0.225441	0.020529
N199	N	0.889711	-0.258787	-0.529539
N200	N	1.389711	0.241213	-0.029539
H201	H	0.919271	-0.279535	-0.565697
H202	H	1.419271	0.220465	-0.065697
N203	N	1.286121	-0.739111	-0.226664
N204	N	1.786121	-0.239111	0.273336
N205	N	1.330971	-0.760059	-0.181894
N206	N	1.830971	-0.260059	0.318106
H207	H	1.367204	-0.743139	-0.145696
H208	H	1.867204	-0.243139	0.354304
N209	N	1.235924	-0.158263	-0.835044
N210	N	1.735924	0.341737	-0.335044
N211	N	1.280777	-0.132624	-0.798456
N212	N	1.780777	0.367376	-0.298456
H213	H	1.317033	-0.111891	-0.828032
H214	H	1.817033	0.388109	-0.328032
H215	H	1.225588	-0.959805	-0.287243
H216	H	1.725588	-0.459805	0.212757
H217	H	0.433895	-0.164227	-0.287311
H218	H	0.933895	0.335773	0.212689
N219	N	1.286041	-0.598365	-0.226636
N220	N	1.786041	-0.098365	0.273364
N221	N	1.330893	-0.619313	-0.181869
N222	N	1.830893	-0.119313	0.318131
H223	H	1.367130	-0.602393	-0.145675
H224	H	1.867130	-0.102393	0.354325
N225	N	1.286100	-0.693181	-0.226660
N226	N	1.786100	-0.193181	0.273340
N227	N	1.330927	-0.672212	-0.181885
N228	N	1.830927	-0.172212	0.318115
H229	H	1.367183	-0.689116	-0.145696
H230	H	1.867183	-0.189116	0.354304
N231	N	1.236037	-1.049791	-0.276874
N232	N	1.736037	-0.549791	0.223126
N233	N	1.236043	-1.091682	-0.276893
N234	N	1.736043	-0.591682	0.223107
H235	H	1.272283	-1.108607	-0.240720
H236	H	1.772283	-0.608607	0.259280
H237	H	1.225492	-0.164245	-0.677834
H238	H	1.725492	0.335755	-0.177834
N239	N	1.235949	-0.158254	-0.922198
N240	N	1.735949	0.341746	-0.422198
N241	N	1.280814	-0.132601	-0.958821
N242	N	1.780814	0.367399	-0.458821
H243	H	1.317064	-0.111881	-0.929274
H244	H	1.817064	0.388119	-0.429274
H245	H	0.992994	-0.744033	-0.519368
H246	H	1.492994	-0.244033	-0.019368
N247	N	0.591112	-0.158256	-0.276907
N248	N	1.091112	0.341744	0.223093
N249	N	0.554515	-0.132573	-0.232177
N250	N	1.054515	0.367427	0.267823
H251	H	0.584083	-0.111811	-0.196026
H252	H	1.084083	0.388189	0.303974
H253	H	1.043199	-0.268458	-0.826480
H254	H	1.543199	0.231542	-0.326480
H255	H	1.043242	-0.268422	-1.079326
H256	H	1.543242	0.231578	-0.579326
H257	H	1.275756	-0.829087	-0.237087
H258	H	1.775756	-0.329087	0.262913
H259	H	0.992958	-0.688384	-0.519372
H260	H	1.492958	-0.188384	-0.019372
N261	N	1.032946	-1.049816	-0.479644
N262	N	1.532946	-0.549816	0.020356
N263	N	0.988093	-1.028870	-0.524414
N264	N	1.488093	-0.528870	-0.024414
H265	H	0.951853	-1.045792	-0.560603
H266	H	1.451853	-0.545792	-0.060603
H267	H	1.225271	-0.387410	-0.287148
H268	H	1.725271	0.112590	0.212852
N269	N	0.982513	-0.598407	-0.529740
N270	N	1.482513	-0.098407	-0.029740
N271	N	0.982490	-0.556517	-0.529728
N272	N	1.482490	-0.056517	-0.029728
H273	H	0.946242	-0.539598	-0.565903
H274	H	1.446242	-0.039598	-0.065903
N275	N	0.678255	-0.158254	-0.276906
N276	N	1.178255	0.341746	0.223094
N277	N	0.632556	-0.129648	-0.304623
N278	N	1.132556	0.370352	0.195377
H279	H	0.602994	-0.108890	-0.268484
H280	H	1.102994	0.391110	0.231516
H281	H	0.835472	-0.164213	-0.287265
H282	H	1.335472	0.335787	0.212735
N283	N	1.032793	-0.274399	-0.922107
N284	N	1.532793	0.225601	-0.422107
N285	N	0.987944	-0.300042	-0.958693
N286	N	1.487944	0.199958	-0.458693
H287	H	0.951686	-0.320772	-0.929115
H288	H	1.451686	0.179228	-0.429115
H289	H	1.043323	-0.959849	-0.469250
H290	H	1.543323	-0.459849	0.030750
N291	N	0.982625	-0.833998	-0.529778
N292	N	1.482625	-0.333998	-0.029778
N293	N	0.937774	-0.813052	-0.574549
N294	N	1.437774	-0.313052	-0.074549
H295	H	0.901539	-0.829974	-0.610744
H296	H	1.401539	-0.329974	-0.110744
N297	N	1.032754	-0.274437	-0.669256
N298	N	1.532754	0.225563	-0.169256
N299	N	0.987902	-0.300079	-0.705842
N300	N	1.487902	0.199921	-0.205842
H301	H	0.951640	-0.320807	-0.676264
H302	H	1.451640	0.179193	-0.176264
H303	H	1.043059	-0.472570	-0.469170
H304	H	1.543059	0.027430	0.030830
H305	H	0.582585	-0.268617	-0.469105
H306	H	1.082585	0.231383	0.030895
