data_functionalizedCrystal
_audit_creation_method	'MofGen! by Chris Wilmer'
_symmetry_space_group_name_H-M	'P1'
_symmetry_Int_Tables_number	1
_symmetry_cell_setting	triclinic
loop_
_symmetry_equiv_pos_as_xyz
  x,y,z
_cell_length_a	10.685980
_cell_length_b	12.645323
_cell_length_c	10.686685
_cell_angle_alpha	85.648090
_cell_angle_beta	89.659316
_cell_angle_gamma	85.603343
loop_
_atom_site_label
_atom_site_type_symbol
_atom_site_fract_x
_atom_site_fract_y
_atom_site_fract_z
Zn1	Zn	1.956319	-0.748323	0.352404
Zn2	Zn	2.456319	-0.248323	0.852404
Zn3	Zn	1.972293	-0.585627	0.562183
Zn4	Zn	2.472293	-0.085627	1.062183
Zn5	Zn	1.746524	-0.558580	0.368524
Zn6	Zn	2.246524	-0.058580	0.868524
Zn7	Zn	1.762607	-0.750354	0.578169
Zn8	Zn	2.262607	-0.250354	1.078169
O9	O	1.859436	-0.660721	0.465320
O10	O	2.359436	-0.160721	0.965320
O11	O	2.133992	-0.737210	0.366795
O12	O	2.633992	-0.237210	0.866795
O13	O	1.942298	-0.433693	0.536549
O14	O	2.442298	0.066307	1.036549
O15	O	1.760939	-0.571580	0.190855
O16	O	2.260939	-0.071580	0.690855
O17	O	2.145728	-0.617679	0.520919
O18	O	2.645728	-0.117679	1.020919
O19	O	1.915074	-0.710983	0.179012
O20	O	2.415074	-0.210983	0.679012
O21	O	1.776428	-0.413821	0.394269
O22	O	2.276428	0.086179	0.894269
O23	O	1.573104	-0.573550	0.409770
O24	O	2.073104	-0.073550	0.909770
O25	O	1.788349	-0.898431	0.548165
O26	O	2.288349	-0.398431	1.048165
O27	O	1.584919	-0.714446	0.563796
O28	O	2.084919	-0.214446	1.063796
O29	O	1.930668	-0.896939	0.382297
O30	O	2.430668	-0.396939	0.882297
O31	O	1.957893	-0.619648	0.739834
O32	O	2.457893	-0.119648	1.239834
O33	O	1.803838	-0.740672	0.751579
O34	O	2.303838	-0.240672	1.251579
C35	C	1.533493	-0.641284	0.490268
C36	C	2.033493	-0.141284	0.990268
C37	C	1.394055	-0.632996	0.500971
C38	C	1.894055	-0.132996	1.000971
C39	C	1.859521	-0.937225	0.465216
C40	C	2.359521	-0.437225	0.965216
C41	C	1.859557	-1.055055	0.465172
C42	C	2.359557	-0.555055	0.965172
C43	C	1.769689	-1.223508	0.569086
C44	C	2.269689	-0.723508	1.069086
C45	C	1.769981	-1.100997	0.569544
C46	C	2.269981	-0.600997	1.069544
C47	C	1.994497	-1.109936	0.490917
C48	C	2.494497	-0.609936	0.990917
C49	C	1.994010	-1.232545	0.491563
C50	C	2.494010	-0.732545	0.991563
C51	C	1.815693	-1.211018	0.334877
C52	C	2.315693	-0.711018	0.834877
C53	C	1.812805	-1.088291	0.335899
C54	C	2.312805	-0.588291	0.835899
C55	C	2.186652	-0.680235	0.440276
C56	C	2.686652	-0.180235	0.940276
C57	C	2.326092	-0.688550	0.429603
C58	C	2.826092	-0.188550	0.929603
C59	C	1.884378	-0.683341	0.791217
C60	C	2.384378	-0.183341	1.291217
C61	C	1.895163	-0.693060	0.930628
C62	C	2.395163	-0.193060	1.430628
C63	C	1.859416	-0.385290	0.465328
C64	C	2.359416	0.114710	0.965328
C65	C	1.859596	-0.267451	0.465000
C66	C	2.359596	0.232549	0.965000
C67	C	1.834431	-0.638038	0.138148
C68	C	2.334431	-0.138038	0.638148
C69	C	1.823775	-0.628372	-0.001273
C70	C	2.323775	-0.128372	0.498727
H71	H	1.374579	-0.742452	0.360306
H72	H	1.874579	-0.242452	0.860306
H73	H	2.030035	-1.269596	0.586384
H74	H	2.530035	-0.769596	1.086384
H75	H	1.964540	-0.755873	0.978984
H76	H	2.464540	-0.255873	1.478984
H77	H	1.345561	-0.579084	0.570264
H78	H	1.845561	-0.079084	1.070264
H79	H	1.670237	-1.063500	0.554605
H80	H	2.170237	-0.563500	1.054605
H81	H	1.754411	-0.565555	0.950377
H82	H	2.254411	-0.065555	1.450377
H83	H	1.669672	-1.245584	0.554385
H84	H	2.169672	-0.745584	1.054385
H85	H	1.799236	-1.262431	0.665163
H86	H	2.299236	-0.762431	1.165163
H87	H	1.799791	-1.079842	0.666220
H88	H	2.299791	-0.579842	1.166220
H89	H	2.063815	-1.262010	0.418494
H90	H	2.563815	-0.762010	0.918494
H91	H	2.030933	-1.087647	0.584685
H92	H	2.530933	-0.587647	1.084685
H93	H	2.063724	-1.080499	0.417059
H94	H	2.563724	-0.580499	0.917059
H95	H	1.718470	-1.234012	0.309434
H96	H	2.218470	-0.734012	0.809434
H97	H	1.713451	-1.051521	0.316298
H98	H	2.213451	-0.551521	0.816298
H99	H	1.872693	-1.056316	0.255064
H100	H	2.372693	-0.556316	0.755064
H101	H	1.881053	-1.239250	0.257453
H102	H	2.381053	-0.739250	0.757453
