data_functionalizedCrystal
_audit_creation_method	'MofGen! by Chris Wilmer'
_symmetry_space_group_name_H-M	'P1'
_symmetry_Int_Tables_number	1
_symmetry_cell_setting	triclinic
loop_
_symmetry_equiv_pos_as_xyz
  x,y,z
_cell_length_a	10.489741
_cell_length_b	10.540539
_cell_length_c	9.016244
_cell_angle_alpha	89.995353
_cell_angle_beta	90.000334
_cell_angle_gamma	84.532333
loop_
_atom_site_label
_atom_site_type_symbol
_atom_site_fract_x
_atom_site_fract_y
_atom_site_fract_z
O1	O	-1.694028	-0.179107	0.123241
O2	O	-1.322830	-0.195918	0.123263
O3	O	-1.516898	-0.002807	0.123250
O4	O	-1.499960	-0.372218	0.123254
O5	O	-1.516889	-0.002793	-0.123431
O6	O	-1.322822	-0.195904	-0.123417
O7	O	-1.694020	-0.179092	-0.123440
Cu8	Cu	-1.508420	-0.187497	-0.145953
Cu9	Cu	-1.508430	-0.187514	0.145776
O10	O	-1.499952	-0.372204	-0.123426
C11	C	-1.515623	0.044503	-0.000088
C12	C	-1.511823	0.185452	-0.000080
C13	C	-1.275294	-0.194641	-0.000074
C14	C	-1.133665	-0.190843	-0.000065
C15	C	-1.741555	-0.180369	-0.000099
C16	C	-1.883184	-0.184168	-0.000098
C17	C	-1.065540	-0.067971	-0.000081
C18	C	-0.973410	-0.126022	0.121543
C19	C	-0.973436	-0.126037	-0.121665
C20	C	-1.043401	-0.248943	0.121659
C21	C	-1.043436	-0.248941	-0.121658
C22	C	-0.951334	-0.307081	-0.000004
C23	C	-1.501226	-0.419514	-0.000085
C24	C	-1.505026	-0.560463	-0.000084
N25	N	-1.508422	-0.187484	-0.351139
C26	C	-1.366206	0.368896	0.000483
C27	C	-1.370058	0.222277	-0.000073
C28	C	-1.580042	0.247110	-0.140951
C29	C	-1.575204	0.393655	-0.141069
C30	C	-1.578096	0.394156	0.139453
C31	C	-1.579402	0.247174	0.141315
C32	C	-1.612623	-0.084538	-0.586132
C33	C	-1.612342	-0.084146	-0.414241
C34	C	-1.375076	-0.157337	-0.413556
C35	C	-1.375696	-0.156615	-0.585501
C36	C	-1.536399	-0.320935	-0.585643
C37	C	-1.539409	-0.320064	-0.413687
N38	N	-1.508437	-0.187517	0.350962
H39	H	-1.115242	0.033036	0.000070
H40	H	-1.594350	0.014844	-0.373123
N41	N	-1.445529	-0.426455	-0.356799
H42	H	-1.381290	-0.390056	-0.289377
H43	H	-1.399362	-0.470987	-0.443310
N44	N	-1.744313	-0.108184	-0.640899
H45	H	-1.809728	-0.041054	-0.599246
H46	H	-1.765168	-0.195257	-0.607333
H47	H	-0.901898	-0.408195	0.000063
H48	H	-1.529487	0.206315	0.245528
N49	N	-1.292012	0.406779	0.134284
H50	H	-1.337660	0.383604	0.227666
H51	H	-1.285464	0.501738	0.132201
H52	H	-1.532647	0.204522	-0.245776
N53	N	-1.717939	0.217472	-0.147919
H54	H	-1.759909	0.258039	-0.239337
H55	H	-1.764757	0.252392	-0.056612
N56	N	-1.508410	0.431026	-0.280544
H57	H	-1.418571	0.387059	-0.282917
H58	H	-1.504695	0.526413	-0.281937
N59	N	-1.084511	-0.317747	-0.257883
H60	H	-1.146111	-0.258674	-0.317774
H61	H	-1.127990	-0.394983	-0.226805
N62	N	-1.341908	-0.029855	-0.356547
H63	H	-1.413061	0.008544	-0.290304
H64	H	-1.330954	0.028981	-0.443079
N65	N	-1.716314	0.215085	0.152586
H66	H	-1.736566	0.159838	0.065805
H67	H	-1.775738	0.296312	0.151373
N68	N	-0.932398	-0.057145	-0.257868
H69	H	-0.974351	0.033171	-0.257752
H70	H	-0.959103	-0.102737	-0.349655
N71	N	-1.298955	0.165832	0.133682
H72	H	-1.264820	0.236190	0.193536
H73	H	-1.225348	0.103809	0.099926
N74	N	-0.932332	-0.057162	0.257738
H75	H	-0.836186	-0.055830	0.257208
H76	H	-0.959099	-0.102720	0.349530
N77	N	-1.084217	-0.317763	0.258019
H78	H	-1.180273	-0.319872	0.257214
H79	H	-1.058069	-0.271664	0.349695
H80	H	-1.310430	0.399116	-0.099966
H81	H	-1.680493	0.441370	0.140394
N82	N	-1.743585	-0.108158	-0.358325
H83	H	-1.802143	-0.119094	-0.445373
H84	H	-1.779536	-0.033378	-0.296267
N85	N	-1.298458	0.166969	-0.134050
H86	H	-1.264274	0.237849	-0.192983
H87	H	-1.358401	0.121173	-0.198126
N88	N	-1.710246	0.457191	-0.149552
H89	H	-1.772652	0.389967	-0.153206
H90	H	-1.719953	0.511510	-0.241884
H91	H	-1.631623	-0.349612	-0.629002
N92	N	-1.517337	0.435949	0.280889
H93	H	-1.441822	0.484732	0.255939
H94	H	-1.487322	0.358516	0.342019
H95	H	-1.594888	0.013885	-0.629359
H96	H	-1.295776	-0.228704	-0.627115
N97	N	-1.669353	-0.350340	-0.359663
H98	H	-1.707998	-0.278485	-0.294937
H99	H	-1.659835	-0.432020	-0.300425
N100	N	-1.343321	-0.027675	-0.638658
H101	H	-1.255742	-0.011225	-0.600932
H102	H	-1.409208	0.040421	-0.599975
H103	H	-1.295627	-0.230290	-0.372683
H104	H	-1.460439	-0.397584	-0.626331
