data_functionalizedCrystal
_audit_creation_method	'MofGen! by Chris Wilmer'
_symmetry_space_group_name_H-M	'P1'
_symmetry_Int_Tables_number	1
_symmetry_cell_setting	triclinic
loop_
_symmetry_equiv_pos_as_xyz
  x,y,z
_cell_length_a	18.426585
_cell_length_b	20.875641
_cell_length_c	20.875641
_cell_angle_alpha	60.089808
_cell_angle_beta	90.001073
_cell_angle_gamma	62.441129
loop_
_atom_site_label
_atom_site_type_symbol
_atom_site_fract_x
_atom_site_fract_y
_atom_site_fract_z
Zr1	Zr	0.732332	0.694373	-0.105787
O2	O	0.625982	0.820610	-0.209049
O3	O	0.760955	0.563119	-0.070856
O4	O	0.771643	0.687143	-0.204329
O5	O	0.611391	0.704039	0.025983
O6	O	0.891069	0.687147	-0.204332
O7	O	0.615295	0.696586	-0.075577
O8	O	0.871951	0.465291	0.034426
O9	O	0.630508	0.925895	-0.212775
O10	O	0.867097	0.618967	-0.059918
O11	O	0.775057	0.624526	0.015876
O12	O	0.787640	0.770548	-0.141270
O13	O	0.695600	0.776107	-0.065476
Zr14	Zr	0.916577	0.706267	0.056184
Zr15	Zr	0.922803	0.694380	-0.105792
Zr16	Zr	0.726106	0.706260	0.056188
Zr17	Zr	0.739552	0.862291	-0.111730
Zr18	Zr	0.909358	0.538349	0.062126
O19	O	0.887954	0.837521	0.021253
O20	O	0.896807	0.820619	-0.209055
O21	O	0.617129	0.837512	0.021259
O22	O	1.022927	0.580031	0.159445
O23	O	1.031781	0.563129	-0.070863
O24	O	0.752102	0.580021	0.159451
O25	O	1.037519	0.696601	-0.075586
O26	O	0.877267	0.713498	0.154725
O27	O	0.757841	0.713493	0.154728
O28	O	1.033615	0.704054	0.025973
O29	O	0.781907	0.925900	-0.212779
O30	O	0.867002	0.474740	0.163175
O31	O	1.018401	0.474745	0.163171
O32	O	1.023350	0.465297	0.034423
O33	O	0.625559	0.935344	-0.084026
O34	O	0.776958	0.935349	-0.084030
O35	O	0.861270	0.630092	0.091667
O36	O	0.953310	0.624533	0.015872
O37	O	0.873853	0.776114	-0.065480
O38	O	0.781813	0.781673	0.010315
C39	C	0.815425	0.490280	-0.017368
C40	C	0.812360	0.418995	-0.014846
C41	C	0.858962	0.382603	-0.053224
C42	C	0.856084	0.315618	-0.050847
C43	C	0.806599	0.285031	-0.010094
C44	C	0.759996	0.321426	0.028289
C45	C	0.762879	0.388405	0.025916
C46	C	0.792829	0.085020	0.001252
C47	C	0.789948	0.018037	0.003621
C48	C	0.886037	0.012233	-0.075515
C49	C	0.888912	0.079217	-0.077888
C50	C	0.842312	0.115603	-0.039502
N51	N	0.803654	0.216564	-0.007665
N52	N	0.845263	0.184065	-0.041927
C53	C	0.586205	0.700312	-0.024796
C54	C	0.505345	0.700309	-0.024795
C55	C	0.209232	0.700335	-0.024809
C56	C	0.291617	0.700331	-0.024807
C57	C	0.357285	0.700322	-0.024802
C58	C	0.439677	0.700318	-0.024799
C59	C	1.062705	0.700329	-0.024807
C60	C	1.143565	0.700332	-0.024809
C61	C	0.832243	0.685451	-0.227408
C62	C	0.834886	0.680405	-0.296171
C63	C	0.833485	0.910360	-0.032235
C64	C	0.836549	0.981645	-0.034758
C65	C	0.794654	0.757156	-0.370941
C66	C	0.797149	0.752409	-0.435548
C67	C	0.839871	0.670910	-0.425384
C68	C	0.880109	0.594154	-0.350606
C69	C	0.877619	0.598901	-0.286001
C70	C	0.851771	0.648227	-0.614050
C71	C	0.854256	0.643485	-0.678663
C72	C	0.771296	0.801740	-0.763601
C73	C	0.768806	0.806481	-0.698990
C74	C	0.809047	0.729724	-0.624218
N75	N	0.842420	0.666056	-0.491421
N76	N	0.806503	0.734579	-0.558182
C77	C	0.816666	0.715189	0.177804
C78	C	0.814023	0.720236	0.246567
C79	C	1.053675	0.490289	-0.017374
C80	C	1.131470	0.419006	-0.014853
C81	C	0.807636	0.505149	0.185238
C82	C	0.801928	0.438910	0.256523
C83	C	1.045887	0.505158	0.185232
C84	C	1.121039	0.438922	0.256516
C85	C	0.603023	0.895482	-0.234836
C86	C	0.527871	0.961719	-0.306120
C87	C	0.595235	0.910351	-0.032230
C88	C	0.517439	0.981634	-0.034751
C89	C	0.841273	0.895491	-0.234842
C90	C	0.846981	0.961730	-0.306127
C91	C	1.123002	0.382626	-0.053238
C92	C	1.196092	0.315656	-0.050884
C93	C	1.277650	0.285064	-0.010141
C94	C	1.286117	0.321452	0.028244
C95	C	1.213028	0.388424	0.025886
C96	C	0.844250	0.410709	0.329569
C97	C	0.838883	0.348480	0.396555
C98	C	0.791200	0.314449	0.390494
C99	C	0.748874	0.342656	0.317441
C100	C	0.754235	0.404888	0.250457
C101	C	1.204383	0.404915	0.250428
C102	C	1.275004	0.342687	0.317400
C103	C	1.262279	0.314464	0.390460
C104	C	1.178926	0.348478	0.396546
C105	C	1.108307	0.410708	0.329575
C106	C	0.444527	0.995734	-0.300032
C107	C	0.373907	1.057982	-0.367005
C108	C	0.386632	1.086209	-0.440065
C109	C	0.469985	1.052191	-0.446151
C110	C	0.540603	0.989949	-0.379179
C111	C	0.525908	1.018021	0.003627
C112	C	0.452819	1.085008	0.001255
C113	C	0.371262	1.115602	-0.039490
C114	C	0.362794	1.079211	-0.077873
C115	C	0.435883	1.012230	-0.075505
C116	C	0.894672	0.995742	-0.300042
C117	C	0.900052	1.057972	-0.367016
C118	C	0.857735	1.086194	-0.440074
C119	C	0.810043	1.052176	-0.446158
C120	C	0.804669	0.989942	-0.379185
H121	H	0.754888	0.114634	0.032512
C122	C	1.186764	0.275632	-0.093103
C123	C	1.143983	0.333796	-0.181320
C124	C	1.134652	0.293773	-0.223537
C125	C	1.168101	0.195587	-0.177538
C126	C	1.210884	0.137417	-0.089317
C127	C	1.220215	0.177439	-0.047099
H128	H	1.119220	0.406485	-0.215376
H129	H	1.102981	0.336835	-0.288844
H130	H	1.161193	0.165959	-0.208790
H131	H	1.235647	0.064728	-0.055261
H132	H	1.251886	0.134377	0.018208
C133	C	0.896701	0.448140	0.336248
C134	C	0.943240	0.417114	0.416605
C135	C	0.995689	0.454544	0.423293
C136	C	1.001598	0.523000	0.349623
C137	C	0.955057	0.554028	0.269261
C138	C	0.902608	0.516598	0.262573
H139	H	0.938867	0.366436	0.471145
H140	H	1.030141	0.431574	0.482783
H141	H	1.040423	0.550707	0.354574
H142	H	0.959430	0.604706	0.214721
H143	H	0.868156	0.539568	0.203083
C144	C	0.921873	0.514474	-0.203751
C145	C	0.919139	0.519692	-0.132685
C146	C	0.963398	0.435262	-0.050434
C147	C	1.010390	0.345614	-0.039249
C148	C	1.013126	0.340393	-0.110317
C149	C	0.968867	0.424823	-0.192568
H150	H	0.884351	0.586058	-0.140963
H151	H	0.961373	0.439128	0.002175
H152	H	1.043154	0.283114	0.021638
H153	H	1.047914	0.274027	-0.102039
H154	H	0.970892	0.420957	-0.245177
H155	H	0.764389	0.814908	-0.496427
C156	C	1.375834	0.287785	0.073071
C157	C	1.456221	0.214107	0.075669
C158	C	1.545939	0.180431	0.120503
C159	C	1.555270	0.220433	0.162738
C160	C	1.474881	0.294115	0.160141
C161	C	1.385163	0.327791	0.115307
H162	H	1.449316	0.184491	0.044403
H163	H	1.605449	0.125886	0.122425
H164	H	1.621685	0.195504	0.195927
H165	H	1.481786	0.323730	0.191407
H166	H	1.325653	0.382336	0.113385
H167	H	1.219935	0.418038	0.057148
C168	C	0.885454	0.317456	0.476906
C169	C	0.983621	0.273155	0.502277
C170	C	1.030191	0.242132	0.582625
C171	C	0.978595	0.255411	0.637602
C172	C	0.880422	0.299715	0.612232
C173	C	0.833852	0.330737	0.531884
H174	H	1.021821	0.263323	0.461578
H175	H	1.102866	0.209336	0.601405
H176	H	1.013069	0.232446	0.697080
H177	H	0.842222	0.309546	0.652930
H178	H	0.761177	0.363534	0.513104
C179	C	0.785312	0.245988	0.464183
C180	C	0.831874	0.214969	0.544529
C181	C	0.825992	0.146507	0.618221
C182	C	0.773547	0.109064	0.611566
C183	C	0.726982	0.140082	0.531217
C184	C	0.732864	0.208545	0.457526
H185	H	0.870700	0.242687	0.549458
H186	H	0.860463	0.123545	0.677700
H187	H	0.769193	0.058384	0.666117
H188	H	0.688156	0.112364	0.526288
H189	H	0.698392	0.231507	0.398046
H190	H	0.923978	-0.017399	-0.106766
H191	H	0.710050	0.314938	0.312519
H192	H	0.306044	1.085669	-0.362034
H193	H	1.342867	0.314999	0.312430
C194	C	0.430515	0.964698	-0.219671
C195	C	0.338830	1.002134	-0.212991
C196	C	0.324810	0.971108	-0.132634
C197	C	0.402474	0.902646	-0.058956
C198	C	0.494165	0.865207	-0.065634
C199	C	0.508186	0.896233	-0.145991
H200	H	0.281333	1.052816	-0.267534
H201	H	0.256933	0.998823	-0.127691
H202	H	0.392095	0.879679	0.000529
H203	H	0.551662	0.814524	-0.011091
H204	H	0.576062	0.868517	-0.150934
C205	C	0.941233	0.964700	-0.219683
C206	C	0.993698	1.002114	-0.213005
C207	C	1.040269	0.971071	-0.132648
C208	C	1.034374	0.902614	-0.058969
C209	C	0.981906	0.865196	-0.065644
C210	C	0.935335	0.896239	-0.146001
H211	H	0.998064	1.052794	-0.267549
H212	H	1.079109	0.998771	-0.127707
H213	H	1.068848	0.879635	0.000516
H214	H	0.977540	0.814516	-0.011100
H215	H	0.896495	0.868539	-0.150942
H216	H	0.719774	0.427841	0.190983
C217	C	1.339966	0.246004	0.464126
C218	C	1.431641	0.208596	0.457420
C219	C	1.509331	0.140133	0.531082
C220	C	1.495346	0.109078	0.611451
C221	C	1.403667	0.146485	0.618160
C222	C	1.325977	0.214948	0.544497
H223	H	1.441997	0.231585	0.397924
H224	H	1.577197	0.112442	0.526115
H225	H	1.552856	0.058397	0.665980
H226	H	1.393311	0.123496	0.677656
H227	H	1.258110	0.242640	0.549464
H228	H	0.329122	1.136891	-0.494591
H229	H	1.337157	0.230530	-0.008227
H230	H	1.214760	0.427885	0.190945
H231	H	1.168578	0.325489	0.456041
C232	C	0.896029	0.563793	-0.531810
C233	C	0.968409	0.545283	-0.475711
C234	C	1.012669	0.460844	-0.393466
C235	C	0.984548	0.394916	-0.367320
C236	C	0.912163	0.413424	-0.423420
C237	C	0.867904	0.497863	-0.505665
H238	H	0.989230	0.594089	-0.495064
H239	H	1.066253	0.447144	-0.351937
H240	H	1.017311	0.332409	-0.306437
H241	H	0.891343	0.364618	-0.404066
H242	H	0.814320	0.511564	-0.547194
C243	C	0.483973	1.083243	-0.526521
C244	C	0.406287	1.151701	-0.600181
C245	C	0.420274	1.182751	-0.680552
C246	C	0.511946	1.145341	-0.687264
C247	C	0.589638	1.076879	-0.613601
C248	C	0.575652	1.045829	-0.533230
H249	H	0.338421	1.179397	-0.595214
H250	H	0.362760	1.233431	-0.735081
H251	H	0.522299	1.168326	-0.746759
H252	H	0.657505	1.049183	-0.618568
H253	H	0.633165	0.995149	-0.478701
H254	H	1.040447	0.438389	0.334543
H255	H	0.759859	0.823521	-0.379226
H256	H	0.608464	0.962253	-0.384145
H257	H	0.428975	0.982606	-0.106755
C258	C	0.907345	0.275593	-0.093068
C259	C	0.889118	0.333751	-0.181290
C260	C	0.940383	0.293727	-0.223513
C261	C	1.009877	0.195543	-0.177515
C262	C	1.028108	0.137378	-0.089288
C263	C	0.976842	0.177403	-0.047065
H264	H	0.837671	0.406438	-0.215346
H265	H	0.926887	0.336784	-0.288825
H266	H	1.047827	0.165914	-0.208771
H267	H	1.079554	0.064692	-0.055233
H268	H	0.990338	0.134346	0.018247
C269	C	0.952508	1.095390	-0.360311
C270	C	1.028892	1.083712	-0.393498
C271	C	1.081348	1.121127	-0.386790
C272	C	1.057420	1.170221	-0.346897
C273	C	0.981032	1.181901	-0.313707
C274	C	0.928577	1.144485	-0.320415
H275	H	1.046608	1.047368	-0.423032
H276	H	1.137895	1.112480	-0.411360
H277	H	1.096251	1.197918	-0.341932
H278	H	0.963316	1.218245	-0.284173
H279	H	0.872030	1.153132	-0.295845
C280	C	0.721807	0.896134	-0.710179
C281	C	0.750601	0.960767	-0.754100
C282	C	0.703595	1.050423	-0.765292
C283	C	0.627795	1.075445	-0.732563
C284	C	0.598997	1.010810	-0.688639
C285	C	0.646003	0.921154	-0.677447
H286	H	0.806716	0.942246	-0.778331
H287	H	0.724914	1.098270	-0.797808
H288	H	0.592999	1.141813	-0.740848
H289	H	0.542882	1.029331	-0.664408
H290	H	0.624685	0.873307	-0.644931
C291	C	0.615617	0.984382	0.048445
C292	C	0.624915	1.024428	0.090648
C293	C	0.714621	0.990799	0.135464
C294	C	0.795028	0.917125	0.138078
C295	C	0.785732	0.877075	0.095874
C296	C	0.696027	0.910704	0.051058
H297	H	0.565390	1.078969	0.088715
H298	H	0.721501	1.020446	0.166706
H299	H	0.861434	0.892230	0.171253
H300	H	0.845257	0.822533	0.097807
H301	H	0.689146	0.881056	0.019815
H302	H	0.862118	1.136869	-0.494602
C303	C	0.462147	1.125020	0.043487
C304	C	0.513774	1.169524	0.021213
C305	C	0.523104	1.209532	0.063447
C306	C	0.480807	1.205034	0.127955
C307	C	0.429176	1.160528	0.150233
C308	C	0.419846	1.120520	0.107999
H309	H	0.545088	1.172855	-0.026543
H310	H	0.561325	1.242478	0.046955
H311	H	0.487714	1.234650	0.159219
H312	H	0.397862	1.157197	0.197988
H313	H	0.381626	1.087574	0.124491
H314	H	0.311755	1.170143	-0.041412
H315	H	0.719709	0.296513	0.061475
C316	C	0.763493	1.083233	-0.526528
C317	C	0.815106	1.069979	-0.581503
C318	C	0.768551	1.101044	-0.661876
C319	C	0.670383	1.145363	-0.687272
C320	C	0.618764	1.158619	-0.632296
C321	C	0.665319	1.127554	-0.551923
H322	H	0.887781	1.037170	-0.562704
H323	H	0.806764	1.091231	-0.702573
H324	H	0.635921	1.168359	-0.746769
H325	H	0.546089	1.191428	-0.651095
H326	H	0.627107	1.137367	-0.511226
H327	H	0.738535	0.864231	-0.824484
H328	H	0.899253	0.407506	-0.086413
H329	H	0.296380	1.104131	-0.111047
H330	H	0.929206	0.104120	-0.111072
H331	H	0.749647	-0.006863	0.036806
H332	H	0.724929	0.418037	0.057166
H333	H	0.889045	0.577115	-0.670378
H334	H	0.914899	0.527796	-0.342335
H335	H	1.056600	0.407532	-0.086425
H336	H	0.765830	0.962256	-0.384150
