data_functionalizedCrystal
_audit_creation_method	'MofGen! by Chris Wilmer'
_symmetry_space_group_name_H-M	'P1'
_symmetry_Int_Tables_number	1
_symmetry_cell_setting	triclinic
loop_
_symmetry_equiv_pos_as_xyz
  x,y,z
_cell_length_a	16.109318
_cell_length_b	14.519731
_cell_length_c	14.586319
_cell_angle_alpha	89.995223
_cell_angle_beta	90.000075
_cell_angle_gamma	83.578708
loop_
_atom_site_label
_atom_site_type_symbol
_atom_site_fract_x
_atom_site_fract_y
_atom_site_fract_z
O1	O	1.103335	0.118615	-0.076166
O2	O	0.861302	0.133350	-0.076185
O3	O	0.988727	-0.008268	-0.076167
O4	O	0.975911	0.260233	-0.076184
O5	O	0.988718	-0.008270	0.076314
O6	O	0.861293	0.133348	0.076296
O7	O	1.103326	0.118613	0.076315
Cu8	Cu	0.982309	0.125980	0.090228
Cu9	Cu	0.982319	0.125983	-0.090098
O10	O	0.975902	0.260231	0.076296
C11	C	0.830322	0.132749	0.000053
C12	C	0.738024	0.130951	0.000046
C13	C	0.438945	0.125146	-0.083055
C14	C	0.525669	0.126829	-0.083060
C15	C	0.525678	0.126814	0.083183
C16	C	0.438956	0.125124	0.083187
C17	C	0.395591	0.124295	0.000066
C18	C	0.569037	0.127668	0.000056
C19	C	0.663068	0.129493	0.000050
C20	C	0.301555	0.122468	0.000071
C21	C	0.988122	-0.042627	0.000074
C22	C	0.986322	-0.145004	0.000074
C23	C	0.984860	-0.228145	0.000072
C24	C	0.983033	-0.332450	0.000065
C25	C	0.981583	-0.415586	0.000059
C26	C	0.979756	-0.519897	0.000053
C27	C	1.134307	0.119213	0.000075
C28	C	1.226604	0.121011	0.000076
C29	C	0.976507	0.294590	0.000054
C30	C	0.978306	0.396966	0.000047
N31	N	0.982308	0.125978	0.217060
N32	N	0.982327	0.125978	-0.216930
C33	C	1.038750	0.063290	0.452074
C34	C	1.038752	0.063288	0.548056
C35	C	0.925879	0.188668	0.548049
C36	C	0.925873	0.188665	0.452069
C37	C	0.982313	0.125977	0.404085
C38	C	0.982321	0.125978	0.596045
C39	C	0.982324	0.125976	0.700112
C40	C	0.982310	0.125978	0.300011
H41	H	0.560964	0.127521	-0.150745
Br42	Br	0.849269	0.273739	0.386933
Br43	Br	0.584535	0.127948	0.195985
H44	H	0.403657	0.124431	0.150878
Br45	Br	1.115345	-0.021787	0.386955
Br46	Br	1.115344	-0.021795	0.613183
H47	H	0.403639	0.124469	-0.150737
Br48	Br	0.849286	0.273743	0.613174
