data_functionalizedCrystal
_audit_creation_method	'MofGen! by Chris Wilmer'
_symmetry_space_group_name_H-M	'P1'
_symmetry_Int_Tables_number	1
_symmetry_cell_setting	triclinic
loop_
_symmetry_equiv_pos_as_xyz
  x,y,z
_cell_length_a	13.032831
_cell_length_b	12.594516
_cell_length_c	13.032268
_cell_angle_alpha	82.848693
_cell_angle_beta	89.113023
_cell_angle_gamma	82.816889
loop_
_atom_site_label
_atom_site_type_symbol
_atom_site_fract_x
_atom_site_fract_y
_atom_site_fract_z
Zn1	Zn	1.498550	-0.718827	0.780858
Zn2	Zn	1.831883	-0.385494	1.114192
Zn3	Zn	2.165217	-0.052161	1.447525
Zn4	Zn	1.520308	-0.877413	0.608883
Zn5	Zn	1.853641	-0.544080	0.942217
Zn6	Zn	2.186975	-0.210746	1.275550
Zn7	Zn	1.348404	-0.674363	0.587098
Zn8	Zn	1.681737	-0.341029	0.920431
Zn9	Zn	2.015071	-0.007696	1.253764
Zn10	Zn	1.326556	-0.871658	0.759008
Zn11	Zn	1.659889	-0.538325	1.092342
Zn12	Zn	1.993222	-0.204991	1.425675
O13	O	1.423454	-0.785565	0.683962
O14	O	1.756788	-0.452232	1.017295
O15	O	2.090121	-0.118899	1.350629
O16	O	1.645359	-0.760881	0.776307
O17	O	1.978692	-0.427548	1.109640
O18	O	2.312026	-0.094214	1.442974
O19	O	1.515754	-0.834278	0.462076
O20	O	1.849087	-0.500944	0.795410
O21	O	2.182421	-0.167611	1.128743
O22	O	1.368359	-0.531324	0.612827
O23	O	1.701693	-0.197990	0.946161
O24	O	2.035026	0.135343	1.279494
O25	O	1.661344	-0.877393	0.649958
O26	O	1.994678	-0.544060	0.983291
O27	O	2.328011	-0.210727	1.316625
O28	O	1.478671	-0.563992	0.755182
O29	O	1.812004	-0.230658	1.088516
O30	O	2.145337	0.102675	1.421849
O31	O	1.389457	-0.685098	0.446070
O32	O	1.722790	-0.351764	0.779404
O33	O	2.056124	-0.018431	1.112737
O34	O	1.201583	-0.679517	0.591641
O35	O	1.534916	-0.346184	0.924974
O36	O	1.868250	-0.012851	1.258307
O37	O	1.331122	-0.867585	0.905824
O38	O	1.664455	-0.534251	1.239157
O39	O	1.997788	-0.200918	1.572491
O40	O	1.185531	-0.824469	0.717943
O41	O	1.518864	-0.491136	1.051276
O42	O	1.852198	-0.157803	1.384609
O43	O	1.457485	-0.755301	0.921877
O44	O	1.790818	-0.421967	1.255210
O45	O	2.124152	-0.088634	1.588544
O46	O	1.494568	-1.025587	0.628771
O47	O	1.827902	-0.692254	0.962104
O48	O	2.161235	-0.358920	1.295438
O49	O	1.352219	-1.021359	0.739067
O50	O	1.685553	-0.688025	1.072401
O51	O	2.018886	-0.354692	1.405734
C52	C	1.156239	-0.746545	0.650057
C53	C	1.489573	-0.413211	0.983390
C54	C	1.822906	-0.079878	1.316724
C55	C	1.041921	-0.729880	0.635577
C56	C	1.375254	-0.396547	0.968910
C57	C	1.708587	-0.063213	1.302244
C58	C	0.983051	-0.794263	0.691519
C59	C	1.316384	-0.460930	1.024853
C60	C	1.649718	-0.127596	1.358186
C61	C	0.864896	-0.777041	0.676555
C62	C	1.198230	-0.443707	1.009888
C63	C	1.531563	-0.110374	1.343221
C64	C	1.423409	-1.062097	0.683938
C65	C	1.756742	-0.728764	1.017271
C66	C	2.090076	-0.395431	1.350605
C67	C	1.423479	-1.180416	0.683974
C68	C	1.756813	-0.847083	1.017307
C69	C	2.090146	-0.513750	1.350641
C70	C	1.500973	-1.251950	0.624067
C71	C	1.834307	-0.918617	0.957401
C72	C	2.167640	-0.585284	1.290734
C73	C	1.514180	-1.336910	0.721120
C74	C	1.847513	-1.003577	1.054453
C75	C	2.180847	-0.670244	1.387787
C76	C	1.410394	-1.306281	0.586998
C77	C	1.743727	-0.972947	0.920331
C78	C	2.077061	-0.639614	1.253664
C79	C	1.436728	-1.263831	0.781082
C80	C	1.770061	-0.930497	1.114415
C81	C	2.103394	-0.597164	1.447749
C82	C	1.332906	-1.233181	0.646891
C83	C	1.666239	-0.899848	0.980224
C84	C	1.999573	-0.566515	1.313557
C85	C	1.346069	-1.318112	0.744004
C86	C	1.679402	-0.984778	1.077337
C87	C	2.012735	-0.651445	1.410670
C88	C	1.691713	-0.824739	0.718000
C89	C	2.025046	-0.491406	1.051333
C90	C	2.358379	-0.158072	1.384667
C91	C	1.806028	-0.841432	0.732505
C92	C	2.139362	-0.508099	1.065838
C93	C	2.472695	-0.174766	1.399171
C94	C	1.389439	-0.815761	0.952210
C95	C	1.722772	-0.482427	1.285543
C96	C	2.056106	-0.149094	1.618877
C97	C	1.374944	-0.828628	1.066522
C98	C	1.708277	-0.495295	1.399855
C99	C	2.041611	-0.161962	1.733188
C100	C	1.423525	-0.507960	0.684012
C101	C	1.756858	-0.174627	1.017345
C102	C	2.090192	0.158707	1.350679
C103	C	1.423555	-0.389661	0.684033
C104	C	1.756889	-0.056328	1.017367
C105	C	2.090222	0.277005	1.350700
C106	C	1.457397	-0.755419	0.416765
C107	C	1.790730	-0.422086	0.750098
C108	C	2.124063	-0.088752	1.083432
C109	C	1.472091	-0.742281	0.302479
C110	C	1.805424	-0.408948	0.635813
C111	C	2.138758	-0.075614	0.969146
C112	C	1.431004	-0.778809	1.125428
C113	C	1.764337	-0.445476	1.458761
C114	C	2.097670	-0.112142	1.792095
C115	C	1.416023	-0.792107	1.243575
C116	C	1.749357	-0.458774	1.576908
C117	C	2.082690	-0.125440	1.910241
H118	H	0.827828	-0.709161	0.617582
H119	H	1.161161	-0.375828	0.950915
H120	H	1.494494	-0.042495	1.284248
H121	H	0.843094	-0.909303	0.791488
H122	H	1.176428	-0.575969	1.124822
H123	H	1.509761	-0.242636	1.458155
H124	H	1.590807	-1.381932	0.752516
H125	H	1.924141	-1.048599	1.085849
H126	H	2.257474	-0.715265	1.419183
Cl127	Cl	0.984692	-0.625084	0.544529
Cl128	Cl	1.318025	-0.291750	0.877862
Cl129	Cl	1.651358	0.041583	1.211196
H130	H	1.447741	-1.244837	0.863177
H131	H	1.781074	-0.911504	1.196511
H132	H	2.114407	-0.578170	1.529844
H133	H	1.020123	-0.862130	0.750496
H134	H	1.353457	-0.528797	1.083829
H135	H	1.686790	-0.195464	1.417163
H136	H	1.566510	-1.222844	0.573460
H137	H	1.899844	-0.889510	0.906793
H138	H	2.233177	-0.556177	1.240127
Cl139	Cl	1.244926	-1.362788	0.822359
Cl140	Cl	1.578260	-1.029454	1.155692
Cl141	Cl	1.911593	-0.696121	1.489025
H142	H	1.531175	-0.689773	1.265449
H143	H	1.864508	-0.356440	1.598782
H144	H	2.197842	-0.023107	1.932116
H145	H	1.256305	-1.188137	0.615470
H146	H	1.589638	-0.854804	0.948803
H147	H	1.922972	-0.521470	1.282136
Cl148	Cl	1.283712	-0.909676	1.123692
Cl149	Cl	1.617045	-0.576342	1.457025
Cl150	Cl	1.950379	-0.243009	1.790359
Cl151	Cl	1.393254	-1.335805	0.460341
Cl152	Cl	1.726587	-1.002472	0.793675
Cl153	Cl	2.059921	-0.669138	1.127008
H154	H	1.490085	-0.726308	1.088392
H155	H	1.823418	-0.392975	1.421725
H156	H	2.156752	-0.059641	1.755058
Cl157	Cl	1.324787	-0.873158	1.300741
Cl158	Cl	1.658121	-0.539825	1.634074
Cl159	Cl	1.991454	-0.206491	1.967407
