data_functionalizedCrystal
_audit_creation_method	'MofGen! by Chris Wilmer'
_symmetry_space_group_name_H-M	'P1'
_symmetry_Int_Tables_number	1
_symmetry_cell_setting	triclinic
loop_
_symmetry_equiv_pos_as_xyz
  x,y,z
_cell_length_a	19.121321
_cell_length_b	19.121063
_cell_length_c	18.215399
_cell_angle_alpha	92.409843
_cell_angle_beta	92.421570
_cell_angle_gamma	89.929715
loop_
_atom_site_label
_atom_site_type_symbol
_atom_site_fract_x
_atom_site_fract_y
_atom_site_fract_z
Zn1	Zn	1.059811	-0.324761	-0.383198
Zn2	Zn	1.559811	0.175239	0.116802
Zn3	Zn	1.054716	-0.441999	-0.265592
Zn4	Zn	1.554716	0.058001	0.234408
Zn5	Zn	0.942577	-0.319789	-0.265168
Zn6	Zn	1.442577	0.180211	0.234832
Zn7	Zn	0.937540	-0.436968	-0.393635
Zn8	Zn	1.437540	0.063032	0.106365
O9	O	0.998661	-0.380879	-0.326898
O10	O	1.498661	0.119121	0.173102
O11	O	1.157236	-0.344498	-0.363407
O12	O	1.657236	0.155502	0.136593
O13	O	1.039817	-0.425812	-0.162554
O14	O	1.539817	0.074188	0.337446
O15	O	0.962368	-0.222345	-0.276279
O16	O	1.462368	0.277655	0.223721
O17	O	1.153493	-0.430633	-0.277002
O18	O	1.653493	0.069367	0.222998
O19	O	1.048499	-0.225997	-0.362995
O20	O	1.548499	0.274003	0.137005
O21	O	0.957428	-0.336026	-0.162242
O22	O	1.457428	0.163974	0.337758
O23	O	0.843808	-0.331148	-0.286400
O24	O	1.343808	0.168852	0.213600
O25	O	0.953784	-0.422058	-0.495232
O26	O	1.453784	0.077942	0.004768
O27	O	0.840107	-0.417238	-0.380784
O28	O	1.340107	0.082762	0.119216
O29	O	1.043615	-0.339620	-0.487564
O30	O	1.543615	0.160380	0.012436
O31	O	1.034933	-0.539435	-0.287123
O32	O	1.534933	-0.039435	0.212877
O33	O	0.948844	-0.535739	-0.381195
O34	O	1.448844	-0.035739	0.118805
C35	C	0.816521	-0.373108	-0.334679
C36	C	1.316521	0.126892	0.165321
C37	C	0.738600	-0.369800	-0.338025
C38	C	1.238600	0.130200	0.161975
C39	C	0.297993	-0.348791	-0.359247
C40	C	0.797993	0.151209	0.140753
C41	C	0.371208	-0.351912	-0.356098
C42	C	0.871208	0.148088	0.143902
C43	C	0.405861	-0.398245	-0.309458
C44	C	0.905861	0.101755	0.190542
C45	C	0.367295	-0.441464	-0.265969
C46	C	0.867295	0.058536	0.234031
C47	C	0.294082	-0.438346	-0.269122
C48	C	0.794082	0.061654	0.230878
C49	C	0.626820	-0.409902	-0.297689
C50	C	1.126820	0.090098	0.202311
C51	C	0.700039	-0.413015	-0.294538
C52	C	1.200039	0.086985	0.205462
C53	C	0.703947	-0.323464	-0.384668
C54	C	1.203947	0.176536	0.115332
C55	C	0.630732	-0.320347	-0.387813
C56	C	1.130732	0.179653	0.112187
C57	C	0.592173	-0.363569	-0.344327
C58	C	1.092173	0.136431	0.155673
C59	C	0.480698	-0.401434	-0.306238
C60	C	0.980698	0.098566	0.193762
C61	C	0.517337	-0.360382	-0.347553
C62	C	1.017337	0.139618	0.152447
C63	C	0.990808	-0.563025	-0.335352
C64	C	1.490808	-0.063025	0.164648
C65	C	0.987513	-0.640951	-0.338991
C66	C	1.487513	-0.140951	0.161009
C67	C	1.030821	-0.679463	-0.291760
C68	C	1.530821	-0.179463	0.208240
C69	C	1.027726	-0.752683	-0.295186
C70	C	1.527726	-0.252683	0.204814
C71	C	0.981319	-0.787388	-0.345841
C72	C	1.481319	-0.287388	0.154159
C73	C	0.938008	-0.748871	-0.393077
C74	C	1.438008	-0.248871	0.106923
C75	C	0.941107	-0.675653	-0.389654
C76	C	1.441107	-0.175653	0.110346
C77	C	0.969720	-1.008364	-0.358629
C78	C	1.469720	-0.508364	0.141371
C79	C	0.966623	-1.081588	-0.362047
C80	C	1.466623	-0.581588	0.137953
C81	C	1.056342	-1.085394	-0.264156
C82	C	1.556342	-0.585394	0.235844
C83	C	1.059434	-1.012174	-0.260734
C84	C	1.559434	-0.512174	0.239266
C85	C	1.016126	-0.973664	-0.307974
C86	C	1.516126	-0.473664	0.192026
C87	C	0.978152	-0.862230	-0.349343
C88	C	1.478152	-0.362230	0.150657
C89	C	1.019297	-0.898823	-0.304475
C90	C	1.519297	-0.398823	0.195525
C91	C	1.181512	-0.388681	-0.319088
C92	C	1.681512	0.111319	0.180912
C93	C	1.259433	-0.392006	-0.315759
C94	C	1.759433	0.107994	0.184241
C95	C	0.998706	-0.380833	-0.518847
C96	C	1.498706	0.119167	-0.018847
C97	C	0.998725	-0.380813	-0.600644
C98	C	1.498725	0.119187	-0.100644
C99	C	1.006564	-0.198022	-0.318426
C100	C	1.506564	0.301978	0.181574
C101	C	1.009931	-0.120100	-0.314816
C102	C	1.509931	0.379900	0.185184
C103	C	1.045518	-0.337846	-0.784844
C104	C	1.545518	0.162154	-0.284844
C105	C	1.045527	-0.337826	-0.861702
C106	C	1.545527	0.162174	-0.361702
C107	C	0.951986	-0.423673	-0.869675
C108	C	1.451986	0.076327	-0.369675
C109	C	0.951974	-0.423689	-0.792819
C110	C	1.451974	0.076311	-0.292819
C111	C	0.998744	-0.380777	-0.750405
C112	C	1.498744	0.119223	-0.250405
C113	C	0.998765	-0.380741	-0.904119
C114	C	1.498765	0.119259	-0.404119
C115	C	0.998775	-0.380719	-0.987451
C116	C	1.498775	0.119281	-0.487451
C117	C	0.998733	-0.380797	-0.667068
C118	C	1.498733	0.119203	-0.167068
C119	C	0.998659	-0.380877	-0.135692
C120	C	1.498659	0.119123	0.364308
C121	C	0.998784	-0.380705	-0.053880
C122	C	1.498784	0.119295	0.446120
H123	H	0.508921	-0.439155	-0.268261
H124	H	1.008921	0.060845	0.231739
H125	H	1.083614	-0.302866	-0.889738
H126	H	1.583614	0.197134	-0.389738
H127	H	0.735350	-0.288276	-0.420073
H128	H	1.235350	0.211724	0.079927
Br129	Br	0.583708	-0.257467	-0.451114
Br130	Br	1.083708	0.242533	0.048886
H131	H	0.928840	-1.109843	-0.403309
H132	H	1.428840	-0.609843	0.096691
Br133	Br	1.082281	-0.851722	-0.235736
Br134	Br	1.582281	-0.351722	0.264264
Br135	Br	0.888518	-0.481911	-0.927241
Br136	Br	1.388518	0.018089	-0.427241
Br137	Br	1.115117	-1.137662	-0.200053
Br138	Br	1.615117	-0.637662	0.299947
Br139	Br	0.423538	-0.293267	-0.415126
Br140	Br	0.923538	0.206733	0.084874
H141	H	0.905842	-0.644297	-0.428116
H142	H	1.405842	-0.144297	0.071884
H143	H	0.940365	-0.890496	-0.390585
H144	H	1.440365	-0.390496	0.109415
H145	H	0.395515	-0.479191	-0.227997
H146	H	0.895515	0.020809	0.272003
H147	H	1.068608	-0.651211	-0.250508
H148	H	1.568608	-0.151211	0.249492
H149	H	1.083599	-0.302902	-0.750313
H150	H	1.583599	0.197098	-0.250313
H151	H	0.913880	-0.458648	-0.764779
H152	H	1.413880	0.041352	-0.264779
Br153	Br	0.574499	-0.468539	-0.238648
Br154	Br	1.074499	0.031461	0.261352
H155	H	0.728251	-0.450746	-0.256557
H156	H	1.228251	0.049254	0.243443
Br157	Br	0.241748	-0.497005	-0.210110
Br158	Br	0.741748	0.002995	0.289890
Br159	Br	1.122427	-0.965079	-0.191995
Br160	Br	1.622427	-0.465079	0.308005
Br161	Br	0.910945	-0.956109	-0.422740
Br162	Br	1.410945	-0.456109	0.077260
H163	H	0.489119	-0.322661	-0.385529
H164	H	0.989119	0.177339	0.114471
Br165	Br	0.250972	-0.285903	-0.422541
Br166	Br	0.750972	0.214097	0.077459
H167	H	1.062992	-0.784036	-0.256725
H168	H	1.562992	-0.284036	0.243275
Br169	Br	0.875031	-0.795971	-0.461830
Br170	Br	1.375031	-0.295971	0.038170
