data_functionalizedCrystal
_audit_creation_method	'MofGen! by Chris Wilmer'
_symmetry_space_group_name_H-M	'P1'
_symmetry_Int_Tables_number	1
_symmetry_cell_setting	triclinic
loop_
_symmetry_equiv_pos_as_xyz
  x,y,z
_cell_length_a	18.050589
_cell_length_b	18.101398
_cell_length_c	18.101389
_cell_angle_alpha	89.975673
_cell_angle_beta	90.019529
_cell_angle_gamma	89.984199
loop_
_atom_site_label
_atom_site_type_symbol
_atom_site_fract_x
_atom_site_fract_y
_atom_site_fract_z
Zn1	Zn	-0.295831	-1.132175	0.418833
Zn2	Zn	0.204169	-0.632175	0.918833
Zn3	Zn	-0.420005	-1.132094	0.294989
Zn4	Zn	0.079995	-0.632094	0.794989
Zn5	Zn	-0.295823	-1.008334	0.294994
Zn6	Zn	0.204177	-0.508334	0.794994
Zn7	Zn	-0.419973	-1.008308	0.418778
Zn8	Zn	0.080027	-0.508308	0.918778
O9	O	-0.357908	-1.070228	0.356898
O10	O	0.142092	-0.570228	0.856898
O11	O	-0.312320	-1.235798	0.402426
O12	O	0.187680	-0.735798	0.902426
O13	O	-0.403542	-1.115654	0.191357
O14	O	0.096458	-0.615654	0.691357
O15	O	-0.191900	-1.024807	0.311447
O16	O	0.308100	-0.524807	0.811447
O17	O	-0.403550	-1.235738	0.311438
O18	O	0.096450	-0.735738	0.811438
O19	O	-0.191905	-1.115793	0.402431
O20	O	0.308095	-0.615793	0.902431
O21	O	-0.312306	-1.024728	0.191361
O22	O	0.187694	-0.524728	0.691361
O23	O	-0.312276	-0.904698	0.311393
O24	O	0.187724	-0.404698	0.811393
O25	O	-0.403496	-1.024762	0.522418
O26	O	0.096504	-0.524762	1.022418
O27	O	-0.403488	-0.904679	0.402336
O28	O	0.096512	-0.404679	0.902336
O29	O	-0.312289	-1.115767	0.522459
O30	O	0.187711	-0.615767	1.022459
O31	O	-0.523926	-1.115629	0.311385
O32	O	-0.023926	-0.615629	0.811385
O33	O	-0.523902	-1.024683	0.402332
O34	O	-0.023902	-0.524683	0.902332
C35	C	-0.357878	-0.877817	0.356860
C36	C	0.142122	-0.377817	0.856860
C37	C	-0.357883	-0.795503	0.356861
C38	C	0.142117	-0.295503	0.856861
C39	C	-0.550860	-1.070164	0.356868
C40	C	-0.050860	-0.570164	0.856868
C41	C	-0.633406	-1.070205	0.356879
C42	C	-0.133406	-0.570205	0.856879
C43	C	-0.882217	-1.119790	0.307504
C44	C	-0.382217	-0.619790	0.807504
C45	C	-0.832878	-1.052221	0.289309
C46	C	-0.332878	-0.552221	0.789309
C47	C	-0.930527	-1.070298	0.356936
C48	C	-0.430527	-0.570298	0.856936
C49	C	-0.832785	-1.137817	0.375069
C50	C	-0.332785	-0.637817	0.875069
C51	C	-0.784541	-1.070256	0.356906
C52	C	-0.284541	-0.570256	0.856906
C53	C	-0.882274	-1.002694	0.338706
C54	C	-0.382274	-0.502694	0.838706
C55	C	-0.882185	-1.088335	0.424497
C56	C	-0.382185	-0.588335	0.924497
C57	C	-0.832868	-1.020720	0.406327
C58	C	-0.332868	-0.520720	0.906327
C59	C	-1.014625	-1.070323	0.356952
C60	C	-0.514625	-0.570323	0.856952
C61	C	-0.700445	-1.070223	0.356891
C62	C	-0.200445	-0.570223	0.856891
C63	C	-0.357890	-1.070271	0.550060
C64	C	0.142110	-0.570271	1.050060
C65	C	-0.357882	-1.070289	0.632375
C66	C	0.142118	-0.570289	1.132375
C67	C	-0.164203	-1.070312	0.356946
C68	C	0.335797	-0.570312	0.856946
C69	C	-0.081657	-1.070348	0.356966
C70	C	0.418343	-0.570348	0.856966
C71	C	-0.357939	-1.263390	0.356938
C72	C	0.142061	-0.763390	0.856938
C73	C	-0.357952	-1.345704	0.356954
C74	C	0.142048	-0.845704	0.856954
C75	C	-0.357930	-0.496412	0.356923
C76	C	0.142070	0.003588	0.856923
C77	C	-0.300254	-0.527725	0.299983
C78	C	0.199746	-0.027725	0.799983
C79	C	-0.300409	-0.613343	0.299740
C80	C	0.199591	-0.113343	0.799740
C81	C	-0.357906	-0.644795	0.356892
C82	C	0.142094	-0.144795	0.856892
C83	C	-0.436133	-0.613691	0.335566
C84	C	0.063867	-0.113691	0.835566
C85	C	-0.435813	-0.528046	0.335170
C86	C	0.064187	-0.028046	0.835170
C87	C	-0.338057	-0.528023	0.435323
C88	C	0.161943	-0.028023	0.935323
C89	C	-0.336315	-0.613674	0.434895
C90	C	0.163685	-0.113674	0.934895
C91	C	-0.357897	-0.728654	0.356876
C92	C	0.142103	-0.228654	0.856876
C93	C	-0.357943	-0.412553	0.356937
C94	C	0.142057	0.087447	0.856937
C95	C	-0.357873	-1.070228	0.164488
C96	C	0.142127	-0.570228	0.664488
C97	C	-0.357672	-1.070353	0.082174
C98	C	0.142328	-0.570353	0.582174
C99	C	-0.357742	-1.070332	0.931466
C100	C	0.142258	-0.570332	1.431466
C101	C	-0.414945	-1.012877	0.900115
C102	C	0.085055	-0.512877	1.400115
C103	C	-0.415210	-1.013032	0.814497
C104	C	0.084790	-0.513032	1.314497
C105	C	-0.357811	-1.070310	0.783083
C106	C	0.142189	-0.570310	1.283083
C107	C	-0.379062	-1.148339	0.814188
C108	C	0.120938	-0.648339	1.314188
C109	C	-0.379437	-1.148019	0.899833
C110	C	0.120563	-0.648019	1.399833
C111	C	-0.279163	-1.050436	0.899892
C112	C	0.220837	-0.550436	1.399892
C113	C	-0.279616	-1.048700	0.814241
C114	C	0.220384	-0.548700	1.314241
C115	C	-0.357849	-1.070302	0.699224
C116	C	0.142151	-0.570302	1.199224
C117	C	-0.357706	-1.070345	1.015325
C118	C	0.142294	-0.570345	1.515325
H119	H	-0.903886	-1.161609	0.265682
H120	H	-0.403886	-0.661609	0.765682
H121	H	-0.259803	-0.994526	0.921478
H122	H	0.240197	-0.494526	1.421478
H123	H	-0.435894	-1.165496	0.792745
H124	H	0.064106	-0.665496	1.292745
H125	H	-0.453280	-0.635109	0.278871
H126	H	0.046720	-0.135109	0.778871
H127	H	-0.811218	-1.036942	0.232161
H128	H	-0.311218	-0.536942	0.732161
Br129	Br	-0.311803	-1.221611	0.780284
Br130	Br	0.188197	-0.721611	1.280284
Br131	Br	-0.321882	-0.491796	0.203722
Br132	Br	0.178118	0.008204	0.703722
H133	H	-0.903861	-1.103634	0.481629
H134	H	-0.403861	-0.603634	0.981629
H135	H	-0.313545	-0.633799	0.241647
H136	H	0.186455	-0.133799	0.741647
Br137	Br	-0.312963	-1.221743	0.934408
Br138	Br	0.187037	-0.721743	1.434408
Br139	Br	-0.509677	-0.647632	0.402531
Br140	Br	-0.009677	-0.147632	0.902531
H141	H	-0.263592	-0.991278	0.793909
H142	H	0.236408	-0.491278	1.293909
H143	H	-0.234735	-1.087493	0.792857
H144	H	0.265265	-0.587493	1.292857
H145	H	-0.472835	-1.025883	0.921639
H146	H	0.027165	-0.525883	1.421639
H147	H	-0.242399	-0.634373	0.313108
H148	H	0.257601	-0.134373	0.813108
H149	H	-0.282008	-0.506441	0.454712
H150	H	0.217992	-0.006441	0.954712
Br151	Br	-0.203268	-0.493425	0.322015
Br152	Br	0.296732	0.006575	0.822015
Br153	Br	-0.393040	-0.916594	0.779437
Br154	Br	0.106960	-0.416594	1.279437
H155	H	-0.811046	-1.194934	0.390417
H156	H	-0.311046	-0.694934	0.890417
H157	H	-0.401782	-0.954842	0.920701
H158	H	0.098218	-0.454842	1.420701
H159	H	-0.278749	-0.634007	0.450976
H160	H	0.221251	-0.134007	0.950976
H161	H	-0.473456	-1.026169	0.794013
H162	H	0.026544	-0.526169	1.294013
Br163	Br	-0.401233	-0.649356	0.509398
Br164	Br	0.098767	-0.149356	1.009398
H165	H	-0.903921	-0.945560	0.323292
H166	H	-0.403921	-0.445560	0.823292
Br167	Br	-0.475178	-1.176128	0.933143
Br168	Br	0.024822	-0.676128	1.433143
Br169	Br	-0.208128	-1.120185	0.933684
Br170	Br	0.291872	-0.620185	1.433684
H171	H	-0.452667	-0.508037	0.277856
H172	H	0.047333	-0.008037	0.777856
H173	H	-0.480240	-0.507332	0.374834
H174	H	0.019760	-0.007332	0.874834
Br175	Br	-0.796980	-0.950855	0.475985
Br176	Br	-0.296980	-0.450855	0.975985
H177	H	-0.380066	-0.507774	0.477748
H178	H	0.119934	-0.007774	0.977748
