data_functionalizedCrystal
_audit_creation_method	'MofGen! by Chris Wilmer'
_symmetry_space_group_name_H-M	'P1'
_symmetry_Int_Tables_number	1
_symmetry_cell_setting	triclinic
loop_
_symmetry_equiv_pos_as_xyz
  x,y,z
_cell_length_a	21.295417
_cell_length_b	18.101398
_cell_length_c	18.101389
_cell_angle_alpha	90.008593
_cell_angle_beta	89.977434
_cell_angle_gamma	89.974687
loop_
_atom_site_label
_atom_site_type_symbol
_atom_site_fract_x
_atom_site_fract_y
_atom_site_fract_z
Zn1	Zn	-0.250763	-1.132124	-0.418506
Zn2	Zn	0.249237	-0.632124	0.081494
Zn3	Zn	-0.356016	-1.132021	-0.294656
Zn4	Zn	0.143984	-0.632021	0.205344
Zn5	Zn	-0.250755	-1.008283	-0.294702
Zn6	Zn	0.249245	-0.508283	0.205298
Zn7	Zn	-0.355988	-1.008235	-0.418479
Zn8	Zn	0.144012	-0.508235	0.081521
O9	O	-0.303380	-1.070166	-0.356586
O10	O	0.196620	-0.570166	0.143414
O11	O	-0.264739	-1.235743	-0.402070
O12	O	0.235261	-0.735743	0.097930
O13	O	-0.342061	-1.115584	-0.191029
O14	O	0.157939	-0.615584	0.308971
O15	O	-0.162667	-1.024774	-0.311155
O16	O	0.337333	-0.524774	0.188845
O17	O	-0.342069	-1.235668	-0.311078
O18	O	0.157931	-0.735668	0.188922
O19	O	-0.162672	-1.115759	-0.402114
O20	O	0.337328	-0.615759	0.097886
O21	O	-0.264727	-1.024674	-0.191063
O22	O	0.235273	-0.524674	0.308937
O23	O	-0.264700	-0.904644	-0.311128
O24	O	0.235300	-0.404644	0.188872
O25	O	-0.342021	-1.024692	-0.522115
O26	O	0.157979	-0.524692	-0.022115
O27	O	-0.342014	-0.904608	-0.402067
O28	O	0.157986	-0.404608	0.097933
O29	O	-0.264712	-1.115713	-0.522136
O30	O	0.235288	-0.615713	-0.022136
O31	O	-0.444102	-1.115537	-0.311051
O32	O	0.055898	-0.615537	0.188949
O33	O	-0.444081	-1.024592	-0.402022
O34	O	0.055919	-0.524592	0.097978
C35	C	-0.303354	-0.877755	-0.356600
C36	C	0.196646	-0.377755	0.143400
C37	C	-0.303357	-0.795441	-0.356624
C38	C	0.196643	-0.295441	0.143376
C39	C	-0.303391	-0.496350	-0.356599
C40	C	0.196609	0.003650	0.143401
C41	C	-0.352270	-0.527678	-0.413531
C42	C	0.147730	-0.027678	0.086469
C43	C	-0.352118	-0.613296	-0.413764
C44	C	0.147882	-0.113296	0.086236
C45	C	-0.303375	-0.644733	-0.356611
C46	C	0.196625	-0.144733	0.143389
C47	C	-0.237075	-0.613677	-0.377945
C48	C	0.262925	-0.113677	0.122055
C49	C	-0.237367	-0.528032	-0.378352
C50	C	0.262633	-0.028032	0.121648
C51	C	-0.320227	-0.527898	-0.278194
C52	C	0.179773	-0.027898	0.221806
C53	C	-0.321683	-0.613548	-0.278611
C54	C	0.178317	-0.113548	0.221389
C55	C	-0.303362	-0.728592	-0.356617
C56	C	0.196638	-0.228592	0.143383
C57	C	-0.303400	-0.412491	-0.356595
C58	C	0.196600	0.087509	0.143405
C59	C	-0.466932	-1.070069	-0.356545
C60	C	0.033068	-0.570069	0.143455
C61	C	-0.536900	-1.070095	-0.356552
C62	C	-0.036900	-0.570095	0.143448
C63	C	-0.569757	-1.117492	-0.309231
C64	C	-0.069757	-0.617492	0.190769
C65	C	-0.635499	-1.117527	-0.309248
C66	C	-0.135499	-0.617527	0.190752
C67	C	-0.668383	-1.070151	-0.356577
C68	C	-0.168383	-0.570151	0.143423
C69	C	-0.635518	-1.022750	-0.403907
C70	C	-0.135518	-0.522750	0.096093
C71	C	-0.569777	-1.022722	-0.403894
C72	C	-0.069777	-0.522722	0.096106
N73	N	-0.771644	-1.005367	-0.362228
N74	N	-0.271644	-0.505367	0.137772
N75	N	-0.834096	-1.005396	-0.362236
N76	N	-0.334096	-0.505396	0.137764
C77	C	-0.866457	-1.070234	-0.356620
C78	C	-0.366457	-0.570234	0.143380
N79	N	-0.834008	-1.135044	-0.350981
N80	N	-0.334008	-0.635044	0.149019
N81	N	-0.771551	-1.135014	-0.350970
N82	N	-0.271551	-0.635014	0.149030
C83	C	-0.739668	-1.070177	-0.356597
C84	C	-0.239668	-0.570177	0.143403
C85	C	-0.970599	-1.117673	-0.309315
C86	C	-0.470599	-0.617673	0.190685
C87	C	-1.036343	-1.117709	-0.309337
C88	C	-0.536343	-0.617709	0.190663
C89	C	-1.036361	-1.022926	-0.403992
C90	C	-0.536361	-0.522926	0.096008
C91	C	-0.970619	-1.022897	-0.403974
C92	C	-0.470619	-0.522897	0.096026
C93	C	-0.937742	-1.070269	-0.356632
C94	C	-0.437742	-0.570269	0.143368
C95	C	-0.139190	-1.070283	-0.356643
C96	C	0.360810	-0.570283	0.143357
C97	C	-0.069222	-1.070333	-0.356667
C98	C	0.430778	-0.570333	0.143333
C99	C	-0.303365	-1.070209	-0.549748
C100	C	0.196635	-0.570209	-0.049748
C101	C	-0.303358	-1.070227	-0.632062
C102	C	0.196642	-0.570227	-0.132062
C103	C	-0.303405	-0.263328	-0.356577
C104	C	0.196595	0.236672	0.143423
C105	C	-0.303408	-0.345642	-0.356586
C106	C	0.196592	0.154358	0.143414
C107	C	-0.303240	-1.070270	-0.931153
C108	C	0.196760	-0.570270	-0.431153
C109	C	-0.351726	-1.012805	-0.899815
C110	C	0.148274	-0.512805	-0.399815
C111	C	-0.351951	-1.012960	-0.814196
C112	C	0.148049	-0.512960	-0.314196
C113	C	-0.303298	-1.070248	-0.782770
C114	C	0.196702	-0.570248	-0.282770
C115	C	-0.321311	-1.148273	-0.813853
C116	C	0.178689	-0.648273	-0.313853
C117	C	-0.321629	-1.147953	-0.899498
C118	C	0.178371	-0.647953	-0.399498
C119	C	-0.236633	-1.050388	-0.899588
C120	C	0.263367	-0.550388	-0.399588
C121	C	-0.237018	-1.048652	-0.813938
C122	C	0.262982	-0.548652	-0.313938
C123	C	-0.303330	-1.070240	-0.698911
C124	C	0.196670	-0.570240	-0.198911
C125	C	-0.303209	-1.070283	-1.015012
C126	C	0.196791	-0.570283	-0.515012
C127	C	-0.303351	-1.070166	-0.164175
C128	C	0.196649	-0.570166	0.335825
C129	C	-0.303180	-1.070291	-0.081861
C130	C	0.196820	-0.570291	0.418139
H131	H	-0.340980	-0.633799	-0.471856
H132	H	0.159020	-0.133799	0.028144
H133	H	-0.199644	-0.507310	-0.338786
H134	H	0.300356	-0.007310	0.161214
H135	H	-0.223434	-0.991232	-0.793623
H136	H	0.276566	-0.491232	-0.293623
O137	O	-0.218453	-0.501581	-0.454273
O138	O	0.281547	-0.001581	0.045727
H139	H	-0.209187	-0.549961	-0.490353
H140	H	0.290813	-0.049961	0.009647
O141	O	-0.417243	-0.641116	-0.396056
O142	O	0.082757	-0.141116	0.103944
H143	H	-0.450746	-0.620551	-0.438277
H144	H	0.049254	-0.120551	0.061723
H145	H	-0.401596	-0.507063	-0.400310
H146	H	0.098404	-0.007063	0.099690
O147	O	-0.187519	-0.640654	-0.324741
O148	O	0.312481	-0.140654	0.175259
H149	H	-0.209672	-0.676570	-0.282429
H150	H	0.290328	-0.176570	0.217571
H151	H	-0.542990	-1.156067	-0.270684
H152	H	-0.042990	-0.656067	0.229316
H153	H	-0.370470	-0.633852	-0.262521
H154	H	0.129530	-0.133852	0.237479
H155	H	-0.367745	-0.506285	-0.258808
H156	H	0.132255	-0.006285	0.241192
H157	H	-0.662296	-0.984178	-0.442444
H158	H	-0.162296	-0.484178	0.057556
H159	H	-0.341273	-0.506167	-0.471288
H160	H	0.158727	-0.006167	0.028712
O161	O	-0.385123	-1.170985	-0.785441
O162	O	0.114877	-0.670985	-0.285441
H163	H	-0.380701	-1.223052	-0.753481
H164	H	0.119299	-0.723052	-0.253481
H165	H	-0.222535	-0.635142	-0.434639
H166	H	0.277465	-0.135142	0.065361
H167	H	-0.943830	-1.156249	-0.270768
H168	H	-0.443830	-0.656249	0.229232
H169	H	-0.943865	-0.984298	-0.442504
H170	H	-0.443865	-0.484298	0.057496
O171	O	-0.277950	-0.641888	-0.219396
O172	O	0.222050	-0.141888	0.280604
H173	H	-0.229173	-0.624511	-0.232229
H174	H	0.270827	-0.124511	0.267771
H175	H	-0.284624	-0.507639	-0.235773
H176	H	0.215376	-0.007639	0.264227
O177	O	-0.670950	-1.168643	-0.258202
O178	O	-0.170950	-0.668643	0.241798
H179	H	-0.637043	-1.201575	-0.225276
H180	H	-0.137043	-0.701575	0.274724
H181	H	-0.543025	-0.984125	-0.442429
H182	H	-0.043025	-0.484125	0.057571
O183	O	-1.071824	-0.971826	-0.455038
O184	O	-0.571824	-0.471826	0.044962
H185	H	-1.059174	-0.984491	-0.513168
H186	H	-0.559174	-0.484491	-0.013168
H187	H	-0.340678	-0.955101	-0.793181
H188	H	0.159322	-0.455101	-0.293181
O189	O	-0.214892	-0.976331	-0.928194
O190	O	0.285108	-0.476331	-0.428194
H191	H	-0.207011	-0.938334	-0.880970
H192	H	0.292989	-0.438334	-0.380970
O193	O	-1.071786	-1.168831	-0.258295
O194	O	-0.571786	-0.668831	0.241705
H195	H	-1.037877	-1.201759	-0.225369
H196	H	-0.537877	-0.701759	0.274631
H197	H	-0.340569	-0.954772	-0.920418
H198	H	0.159431	-0.454772	-0.420418
H199	H	-0.400795	-1.025801	-0.921333
H200	H	0.099205	-0.525801	-0.421333
O201	O	-0.186620	-1.100049	-0.785615
O202	O	0.313380	-0.600049	-0.285615
H203	H	-0.208123	-1.141979	-0.748721
H204	H	0.291877	-0.641979	-0.248721
O205	O	-0.417364	-1.030252	-0.787044
O206	O	0.082636	-0.530252	-0.287044
H207	H	-0.448956	-1.038559	-0.835086
H208	H	0.051044	-0.538559	-0.335086
O209	O	-0.386126	-1.170274	-0.925960
O210	O	0.113874	-0.670274	-0.425960
H211	H	-0.386992	-1.170270	-0.987269
H212	H	0.113008	-0.670270	-0.487269
O213	O	-0.188776	-1.105821	-0.926435
O214	O	0.311224	-0.605821	-0.426435
H215	H	-0.212275	-1.147334	-0.962086
H216	H	0.287725	-0.647334	-0.462086
H217	H	-0.287848	-1.192220	-0.920229
H218	H	0.212152	-0.692220	-0.420229
O219	O	-0.276012	-1.206516	-0.786880
O220	O	0.223988	-0.706516	-0.286880
H221	H	-0.227825	-1.192551	-0.805621
H222	H	0.272175	-0.692551	-0.305621
