data_functionalizedCrystal
_audit_creation_method	'MofGen! by Chris Wilmer'
_symmetry_space_group_name_H-M	'P1'
_symmetry_Int_Tables_number	1
_symmetry_cell_setting	triclinic
loop_
_symmetry_equiv_pos_as_xyz
  x,y,z
_cell_length_a	15.186229
_cell_length_b	16.109301
_cell_length_c	16.109301
_cell_angle_alpha	83.461481
_cell_angle_beta	90.005167
_cell_angle_gamma	90.000638
loop_
_atom_site_label
_atom_site_type_symbol
_atom_site_fract_x
_atom_site_fract_y
_atom_site_fract_z
O1	O	-0.073176	-1.103131	-0.106866
O2	O	0.426824	-0.603131	0.393134
O3	O	-0.073190	-0.861069	-0.120165
O4	O	0.426810	-0.361069	0.379835
O5	O	-0.073174	-0.988749	0.007515
O6	O	0.426826	-0.488749	0.507515
O7	O	-0.073192	-0.975450	-0.234547
O8	O	0.426808	-0.475450	0.265453
O9	O	0.073284	-0.988741	0.007517
O10	O	0.573284	-0.488741	0.507517
O11	O	0.073267	-0.861060	-0.120164
O12	O	0.573267	-0.361060	0.379836
O13	O	0.073282	-1.103122	-0.106864
O14	O	0.573282	-0.603122	0.393136
Zn15	Zn	0.096528	-0.982090	-0.113514
Zn16	Zn	0.596528	-0.482090	0.386486
Zn17	Zn	-0.096436	-0.982101	-0.113516
Zn18	Zn	0.403564	-0.482101	0.386484
O19	O	0.073265	-0.975441	-0.234545
O20	O	0.573265	-0.475441	0.265455
C21	C	0.000037	-0.830090	-0.119626
C22	C	0.500037	-0.330090	0.380374
C23	C	0.000032	-0.737794	-0.118011
C24	C	0.500032	-0.237794	0.381989
N25	N	0.228220	-0.982088	-0.113511
N26	N	0.728220	-0.482088	0.386489
C27	C	0.000056	-0.988206	0.038491
C28	C	0.500056	-0.488206	0.538491
C29	C	0.000057	-0.986591	0.130786
C30	C	0.500057	-0.486591	0.630786
N31	N	-0.228129	-0.982109	-0.113512
N32	N	0.271871	-0.482109	0.386488
C33	C	0.453950	-1.038644	-0.056994
C34	C	0.953950	-0.538644	0.443006
C35	C	0.546140	-1.038647	-0.056992
C36	C	1.046140	-0.538647	0.443008
C37	C	0.546135	-0.925547	-0.170032
C38	C	1.046135	-0.425547	0.329968
C39	C	0.453947	-0.925541	-0.170030
C40	C	0.953947	-0.425541	0.329970
C41	C	0.407857	-0.982094	-0.113511
C42	C	0.907857	-0.482094	0.386489
C43	C	0.592235	-0.982103	-0.113512
C44	C	1.092235	-0.482103	0.386488
C45	C	0.692191	-0.982105	-0.113510
C46	C	1.192191	-0.482105	0.386490
C47	C	0.307894	-0.982091	-0.113512
C48	C	0.807894	-0.482091	0.386488
C49	C	0.000053	-1.134101	-0.107404
C50	C	0.500053	-0.634101	0.392596
C51	C	0.000052	-1.226397	-0.109019
C52	C	0.500052	-0.726397	0.390981
C53	C	0.000036	-0.515522	-0.190018
C54	C	0.500036	-0.015522	0.309982
C55	C	0.000042	-0.428801	-0.188494
C56	C	0.500042	0.071199	0.311506
C57	C	0.000050	-0.448676	-0.037006
C58	C	0.500050	0.051324	0.462994
C59	C	0.000051	-0.535394	-0.038530
C60	C	0.500051	-0.035394	0.461470
C61	C	0.000039	-0.568815	-0.115039
C62	C	0.500039	-0.068815	0.384961
C63	C	0.000045	-0.395376	-0.111990
C64	C	0.500045	0.104624	0.388010
C65	C	0.000051	-0.301350	-0.110337
C66	C	0.500051	0.198650	0.389663
C67	C	0.000035	-0.662847	-0.116693
C68	C	0.500035	-0.162847	0.383307
C69	C	0.000034	-0.975984	-0.265521
C70	C	0.500034	-0.475984	0.234479
C71	C	0.000027	-0.977600	-0.357816
C72	C	0.500027	-0.477600	0.142184
C73	C	0.000047	-1.058599	0.353059
C74	C	0.500047	-0.558599	0.853059
C75	C	0.000040	-1.057075	0.439779
C76	C	0.500040	-0.557075	0.939779
C77	C	0.000034	-0.905586	0.419905
C78	C	0.500034	-0.405586	0.919905
C79	C	0.000035	-0.907111	0.333186
C80	C	0.500035	-0.407111	0.833186
C81	C	0.000046	-0.983620	0.299766
C82	C	0.500046	-0.483620	0.799766
C83	C	0.000038	-0.980571	0.473205
C84	C	0.500038	-0.480571	0.973205
C85	C	0.000030	-0.978918	0.567231
C86	C	0.500030	-0.478918	1.067231
C87	C	0.000052	-0.985273	0.205734
C88	C	0.500052	-0.485273	0.705734
H89	H	0.416426	-1.084692	-0.010972
H90	H	0.916426	-0.584692	0.489028
H91	H	0.583670	-0.879503	-0.216049
H92	H	1.083670	-0.379503	0.283951
F93	F	0.404887	-0.865347	-0.230183
F94	F	0.904887	-0.365347	0.269817
F95	F	0.000040	-0.372086	-0.268298
F96	F	0.500040	0.127914	0.231702
F97	F	0.000028	-0.551087	-0.271446
F98	F	0.500028	-0.051087	0.228554
F99	F	0.000028	-0.827304	0.276464
F100	F	0.500028	-0.327304	0.776464
F101	F	0.000039	-1.136878	0.496495
F102	F	0.500039	-0.636878	0.996495
H103	H	0.000065	-0.421454	0.025285
H104	H	0.500065	0.078546	0.525285
H105	H	0.000056	-0.578788	0.022530
H106	H	0.500056	-0.078788	0.522530
H107	H	0.000054	-1.120897	0.325851
H108	H	0.500054	-0.620897	0.825851
F109	F	0.000022	-0.824164	0.455481
F110	F	0.500022	-0.324164	0.955481
H111	H	0.583667	-1.084694	-0.010969
H112	H	1.083667	-0.584694	0.489031
