data_functionalizedCrystal
_audit_creation_method	'MofGen! by Chris Wilmer'
_symmetry_space_group_name_H-M	'P1'
_symmetry_Int_Tables_number	1
_symmetry_cell_setting	triclinic
loop_
_symmetry_equiv_pos_as_xyz
  x,y,z
_cell_length_a	16.974885
_cell_length_b	16.053802
_cell_length_c	16.992695
_cell_angle_alpha	92.741074
_cell_angle_beta	92.976847
_cell_angle_gamma	88.930672
loop_
_atom_site_label
_atom_site_type_symbol
_atom_site_fract_x
_atom_site_fract_y
_atom_site_fract_z
O1	O	1.055365	-0.001812	-0.099987
O2	O	1.555365	0.498188	0.400013
O3	O	0.826662	0.013628	-0.111987
O4	O	1.326662	0.513628	0.388013
O5	O	0.940096	0.005963	0.008157
O6	O	1.440096	0.505963	0.508157
O7	O	0.941931	0.005853	-0.220131
O8	O	1.441931	0.505853	0.279869
O9	O	0.933851	-0.132474	0.001572
O10	O	1.433851	0.367526	0.501572
O11	O	0.820416	-0.124809	-0.118572
O12	O	1.320416	0.375191	0.381428
O13	O	1.049120	-0.140249	-0.106573
O14	O	1.549120	0.359751	0.393427
Zn15	Zn	0.933776	-0.154509	-0.113618
Zn16	Zn	1.433776	0.345491	0.386382
Zn17	Zn	0.942005	0.027888	-0.104941
Zn18	Zn	1.442005	0.527888	0.395059
O19	O	0.935685	-0.132584	-0.226717
O20	O	1.435685	0.367416	0.273283
C21	C	0.794140	-0.053606	-0.114702
C22	C	1.294140	0.446394	0.385298
C23	C	0.706539	-0.047692	-0.112971
C24	C	1.206539	0.452308	0.387029
C25	C	0.213809	-0.006244	-0.102812
C26	C	0.713809	0.493756	0.397188
C27	C	0.296119	-0.011812	-0.104439
C28	C	0.796119	0.488188	0.395561
C29	C	0.333861	-0.090059	-0.108849
C30	C	0.833861	0.409941	0.391151
C31	C	0.289289	-0.162743	-0.111623
C32	C	0.789289	0.337257	0.388377
C33	C	0.206981	-0.157174	-0.109990
C34	C	0.706981	0.342826	0.390010
C35	C	0.579659	-0.114806	-0.114112
C36	C	1.079659	0.385194	0.385888
C37	C	0.661973	-0.120370	-0.115747
C38	C	1.161973	0.379630	0.384253
C39	C	0.668797	0.030561	-0.108562
C40	C	1.168797	0.530561	0.391438
C41	C	0.586487	0.036123	-0.106934
C42	C	1.086487	0.536123	0.393066
C43	C	0.541923	-0.036560	-0.109704
C44	C	1.041923	0.463440	0.390296
N45	N	0.417994	-0.095753	-0.110514
N46	N	0.917994	0.404247	0.389486
N47	N	0.457791	-0.030866	-0.108033
N48	N	0.957791	0.469134	0.391967
N49	N	0.928166	-0.278990	-0.119540
N50	N	1.428166	0.221010	0.380460
C51	C	0.976453	-0.325947	-0.068436
C52	C	1.476453	0.174053	0.431564
C53	C	0.972536	-0.413089	-0.072586
C54	C	1.472536	0.086911	0.427414
C55	C	0.920337	-0.453273	-0.127843
C56	C	1.420337	0.046727	0.372157
C57	C	0.872045	-0.406310	-0.178948
C58	C	1.372045	0.093690	0.321052
C59	C	0.875958	-0.319169	-0.174795
C60	C	1.375958	0.180831	0.325205
C61	C	0.903242	-0.713528	-0.145965
C62	C	1.403242	-0.213528	0.354035
C63	C	0.899335	-0.800675	-0.150117
C64	C	1.399335	-0.300675	0.349883
C65	C	0.999825	-0.807448	-0.043753
C66	C	1.499825	-0.307448	0.456247
C67	C	1.003737	-0.720305	-0.039607
C68	C	1.503737	-0.220305	0.460393
C69	C	0.955443	-0.673350	-0.090710
C70	C	1.455443	-0.173350	0.409290
N71	N	0.916334	-0.542346	-0.132087
N72	N	1.416334	-0.042346	0.367913
N73	N	0.959442	-0.584278	-0.086461
N74	N	1.459442	-0.084278	0.413539
C75	C	1.081642	-0.073014	-0.103858
C76	C	1.581642	0.426986	0.396142
C77	C	1.169243	-0.078922	-0.105589
C78	C	1.669243	0.421078	0.394411
C79	C	0.934615	-0.063096	0.034082
C80	C	1.434615	0.436904	0.534082
C81	C	0.927577	-0.062621	0.121141
C82	C	1.427577	0.437379	0.621141
N83	N	0.947621	0.152369	-0.099014
N84	N	1.447621	0.652369	0.400986
C85	C	0.941167	-0.063523	-0.252641
C86	C	1.441167	0.436477	0.247359
C87	C	0.948205	-0.063993	-0.339700
C88	C	1.448205	0.436007	0.160300
C89	C	0.995485	-0.067206	0.171239
C90	C	1.495485	0.432794	0.671239
C91	C	0.988867	-0.066751	0.253039
C92	C	1.488867	0.433249	0.753039
C93	C	0.914341	-0.061717	0.284741
C94	C	1.414341	0.438283	0.784741
C95	C	0.846428	-0.057129	0.234637
C96	C	1.346428	0.442871	0.734637
C97	C	0.853046	-0.057578	0.152838
C98	C	1.353046	0.442422	0.652838
C99	C	0.886911	-0.059854	0.528397
C100	C	1.386911	0.440146	1.028397
C101	C	0.880297	-0.059408	0.610202
C102	C	1.380297	0.440592	1.110202
C103	C	1.022737	-0.069029	0.628599
C104	C	1.522737	0.430971	1.128599
C105	C	1.029349	-0.069482	0.546797
C106	C	1.529349	0.430518	1.046797
C107	C	0.961436	-0.064890	0.496701
C108	C	1.461436	0.435110	0.996701
N109	N	0.907575	-0.061255	0.368354
N110	N	1.407575	0.438745	0.868354
N111	N	0.968203	-0.065346	0.413090
N112	N	1.468203	0.434654	0.913090
H113	H	0.332401	0.047370	-0.102173
H114	H	0.832401	0.547370	0.397827
H115	H	1.044166	-0.070487	0.293826
H116	H	1.544166	0.429513	0.793826
N117	N	1.032759	-0.282609	-0.008842
N118	N	1.532759	0.217391	0.491158
H119	H	1.062753	-0.325582	0.022902
H120	H	1.562753	0.174418	0.522902
H121	H	1.002026	-0.244282	0.027632
H122	H	1.502026	0.255718	0.527632
N123	N	0.702681	-0.204769	-0.120505
N124	N	1.202681	0.295231	0.379495
H125	H	0.690205	-0.237022	-0.073221
H126	H	1.190205	0.262978	0.426779
H127	H	0.761571	-0.197193	-0.121150
H128	H	1.261571	0.302807	0.378850
N129	N	0.799910	-0.053976	0.644394
N130	N	1.299910	0.446024	1.144394
H131	H	0.772245	-0.000629	0.628580
H132	H	1.272245	0.499371	1.128580
H133	H	0.806091	-0.054429	0.703807
H134	H	1.306091	0.445571	1.203807
N135	N	0.843021	-0.844015	-0.209711
N136	N	1.343021	-0.344015	0.290289
H137	H	0.847874	-0.906344	-0.204587
H138	H	1.347874	-0.406344	0.295413
H139	H	0.856303	-0.829622	-0.264644
H140	H	1.356303	-0.329622	0.235356
N141	N	1.060041	-0.676970	0.019992
N142	N	1.560041	-0.176970	0.519992
H143	H	1.115869	-0.695942	0.010082
H144	H	1.615869	-0.195942	0.510082
H145	H	1.046714	-0.691313	0.074926
H146	H	1.546714	-0.191313	0.574926
H147	H	1.011854	-0.451321	-0.030973
H148	H	1.511854	0.048679	0.469027
H149	H	0.183085	0.057473	-0.099227
H150	H	0.683085	0.557473	0.400773
H151	H	0.863920	-0.675303	-0.187577
H152	H	1.363920	-0.175303	0.312423
H153	H	0.831611	-0.056114	0.487618
H154	H	1.331611	0.443886	0.987618
H155	H	1.039144	-0.845687	-0.002147
H156	H	1.539144	-0.345687	0.497853
H157	H	0.829539	-0.439032	-0.223937
H158	H	1.329539	0.060968	0.276063
H159	H	0.785747	-0.053024	0.260455
H160	H	1.285747	0.446976	0.760455
N161	N	0.779801	-0.052654	0.098802
N162	N	1.279801	0.447346	0.598802
H163	H	0.795301	-0.053705	0.042172
H164	H	1.295301	0.446295	0.542172
H165	H	0.749851	0.000840	0.111514
H166	H	1.249851	0.500840	0.611514
N167	N	0.823874	-0.268518	-0.229908
N168	N	1.323874	0.231482	0.270092
H169	H	0.790211	-0.307196	-0.265545
H170	H	1.290211	0.192804	0.234455
H171	H	0.857852	-0.234530	-0.262936
H172	H	1.357852	0.265470	0.237064
N173	N	1.075868	-0.072644	0.137052
N174	N	1.575868	0.427356	0.637052
H175	H	1.108170	-0.023350	0.157745
H176	H	1.608170	0.476650	0.657745
H177	H	1.069691	-0.072263	0.077634
H178	H	1.569691	0.427737	0.577634
N179	N	0.545781	0.120518	-0.102170
N180	N	1.045781	0.620518	0.397830
H181	H	0.586504	0.165716	-0.100654
H182	H	1.086504	0.665716	0.399346
H183	H	0.515116	0.125877	-0.052764
H184	H	1.015116	0.625877	0.447236
H185	H	1.090036	-0.073582	0.520993
H186	H	1.590036	0.426418	1.020993
H187	H	1.078028	-0.072767	0.669396
H188	H	1.578028	0.427233	1.169396
H189	H	0.543386	-0.173990	-0.116356
H190	H	1.043386	0.326010	0.383644
N191	N	0.716862	0.108952	-0.105570
N192	N	1.216862	0.608952	0.394430
H193	H	0.774731	0.093554	-0.107272
H194	H	1.274731	0.593554	0.392728
H195	H	0.707296	0.142645	-0.055145
H196	H	1.207296	0.642645	0.444855
N197	N	0.329989	-0.247141	-0.116380
N198	N	0.829989	0.252859	0.383620
H199	H	0.367322	-0.253048	-0.068652
H200	H	0.867322	0.246952	0.431348
H201	H	0.360605	-0.252531	-0.165817
H202	H	0.860605	0.247469	0.334183
N203	N	0.158912	-0.235563	-0.112980
N204	N	0.658912	0.264437	0.387020
H205	H	0.195348	-0.285977	-0.115464
H206	H	0.695348	0.214023	0.384536
H207	H	0.121667	-0.236596	-0.161324
H208	H	0.621667	0.263404	0.338676
