data_functionalizedCrystal
_audit_creation_method	'MofGen! by Chris Wilmer'
_symmetry_space_group_name_H-M	'P1'
_symmetry_Int_Tables_number	1
_symmetry_cell_setting	triclinic
loop_
_symmetry_equiv_pos_as_xyz
  x,y,z
_cell_length_a	12.759395
_cell_length_b	16.120484
_cell_length_c	16.120256
_cell_angle_alpha	84.383827
_cell_angle_beta	87.119399
_cell_angle_gamma	92.926975
loop_
_atom_site_label
_atom_site_type_symbol
_atom_site_fract_x
_atom_site_fract_y
_atom_site_fract_z
Zn1	Zn	1.552087	-0.356727	0.489405
Zn2	Zn	1.551955	-0.489413	0.356715
Zn3	Zn	1.385777	-0.349663	0.349656
Zn4	Zn	1.366966	-0.496463	0.496445
O5	O	1.464196	-0.423067	0.423055
O6	O	1.699090	-0.374335	0.471812
O7	O	1.537729	-0.464968	0.238816
O8	O	1.415766	-0.233634	0.362294
O9	O	1.698993	-0.471818	0.374325
O10	O	1.537954	-0.238825	0.464967
O11	O	1.415638	-0.362294	0.233630
O12	O	1.236262	-0.369130	0.369120
O13	O	1.383705	-0.483833	0.612474
O14	O	1.222441	-0.476983	0.476964
O15	O	1.519713	-0.381170	0.607302
O16	O	1.519488	-0.607314	0.381151
O17	O	1.383577	-0.612493	0.483809
C18	C	1.191230	-0.423056	0.423040
C19	C	1.074452	-0.423072	0.423055
C20	C	1.060099	-0.535544	0.535189
C21	C	0.998061	-0.591786	0.591259
C22	C	0.888338	-0.591797	0.591270
C23	C	0.840651	-0.535557	0.535207
C24	C	0.902689	-0.479315	0.479137
C25	C	1.012414	-0.479312	0.479130
C26	C	0.917042	-0.366841	0.367007
C27	C	1.026765	-0.366833	0.366991
C28	C	0.869355	-0.310601	0.310944
C29	C	0.931393	-0.254361	0.254868
C30	C	1.041122	-0.254354	0.254859
C31	C	1.088803	-0.310590	0.310921
C32	C	1.449504	-0.640232	0.434028
C33	C	1.443313	-0.733138	0.438750
C34	C	1.432015	-0.903239	0.447389
C35	C	1.496565	-0.942055	0.398736
C36	C	1.490279	-1.036704	0.403542
C37	C	1.438300	-0.808580	0.442583
C38	C	1.738228	-0.423078	0.423071
C39	C	1.855004	-0.423083	0.423077
C40	C	1.449625	-0.434076	0.641063
C41	C	1.443416	-0.438768	0.733965
C42	C	1.478973	-0.205054	0.412058
C43	C	1.485270	-0.112150	0.407372
C44	C	1.478775	-0.412039	0.205893
C45	C	1.485203	-0.407112	0.112980
C46	C	1.496576	-0.398578	0.942889
C47	C	1.432047	-0.447299	0.904050
C48	C	1.438375	-0.442551	0.809406
C49	C	1.490250	-0.403326	1.037542
H50	H	1.149440	-0.535546	0.535181
H51	H	1.556569	-0.353305	0.905062
H52	H	1.036900	-0.637574	0.636907
O53	O	0.828225	-0.646504	0.645771
C54	C	0.893835	-0.696122	0.695271
H55	H	0.974140	-0.697235	0.661171
H56	H	0.857084	-0.762436	0.707411
H57	H	0.903336	-0.668818	0.757257
O58	O	1.360559	-0.948358	0.501498
C59	C	1.379223	-0.931246	0.583760
H60	H	1.464433	-0.907330	0.586847
H61	H	1.363631	-0.990782	0.627900
H62	H	1.324700	-0.881791	0.603051
H63	H	0.751308	-0.535564	0.535227
H64	H	0.780012	-0.310610	0.310960
H65	H	0.892557	-0.208572	0.209230
H66	H	1.091628	-0.208548	0.209206
H67	H	1.556548	-0.904201	0.353472
O68	O	1.195377	-0.310737	0.310914
C69	C	1.228059	-0.389709	0.293329
H70	H	1.160624	-0.438598	0.309963
H71	H	1.297946	-0.406528	0.331750
H72	H	1.252036	-0.387860	0.224056
H73	H	1.372044	-0.492572	0.941879
