data_functionalizedCrystal
_audit_creation_method	'MofGen! by Chris Wilmer'
_symmetry_space_group_name_H-M	'P1'
_symmetry_Int_Tables_number	1
_symmetry_cell_setting	triclinic
loop_
_symmetry_equiv_pos_as_xyz
  x,y,z
_cell_length_a	8.559649
_cell_length_b	10.654550
_cell_length_c	7.088929
_cell_angle_alpha	83.717104
_cell_angle_beta	95.325015
_cell_angle_gamma	77.131784
loop_
_atom_site_label
_atom_site_type_symbol
_atom_site_fract_x
_atom_site_fract_y
_atom_site_fract_z
O1	O	2.103417	-0.028084	-0.158957
O2	O	1.638930	0.036703	-0.158966
O3	O	1.881854	-0.179534	-0.158954
O4	O	1.860494	0.188152	-0.158969
O5	O	1.914318	-0.208490	0.159022
O6	O	1.671394	0.007747	0.159011
O7	O	2.135881	-0.057041	0.159020
Cu8	Cu	1.906602	-0.027291	0.188049
Cu9	Cu	1.868210	0.006953	-0.187995
O10	O	1.892957	0.159196	0.159008
C11	C	1.595687	0.027135	0.000021
C12	C	1.418468	0.041749	0.000018
C13	C	1.896517	-0.240648	0.000032
C14	C	1.891825	-0.379606	0.000025
C15	C	2.034854	-0.473867	0.000033
C16	C	2.030434	-0.604430	0.000020
C17	C	1.739944	-0.546457	-0.000003
C18	C	1.744364	-0.415896	-0.000003
C19	C	2.182315	-0.437576	0.000061
C20	C	2.325357	-0.531840	0.000072
C21	C	2.320937	-0.662403	0.000058
C22	C	2.173476	-0.698703	0.000034
C23	C	2.179124	-0.047472	0.000028
C24	C	2.356341	-0.062086	0.000019
C25	C	1.878293	0.220310	0.000017
C26	C	1.882985	0.359270	0.000012
N27	N	1.933616	-0.051378	0.452538
N28	N	1.841208	0.031029	-0.452485
H29	H	2.185931	-0.331269	0.000078
O30	O	1.596783	-0.581854	-0.000265
C31	C	1.568706	-0.640617	-0.164969
H32	H	1.688544	-0.680338	-0.219871
H33	H	1.507914	-0.723537	-0.127929
H34	H	1.486958	-0.565496	-0.280290
O35	O	2.048097	-0.153155	0.549855
C36	C	2.201423	-0.143723	0.501008
H37	H	2.197900	-0.038408	0.445857
H38	H	2.294717	-0.177838	0.632717
H39	H	2.235636	-0.207296	0.384955
O40	O	1.454481	-0.181574	0.000278
C41	C	1.441560	-0.263899	0.164987
H42	H	1.321185	-0.226031	0.219891
H43	H	1.448495	-0.366302	0.127950
H44	H	1.544549	-0.265935	0.280303
H45	H	1.745437	0.116428	0.465864
O46	O	2.468467	-0.496400	-0.000169
C47	C	2.462919	-0.407633	-0.164868
H48	H	2.331872	-0.357906	-0.219776
H49	H	2.531278	-0.331463	-0.127820
H50	H	2.521119	-0.461746	-0.280187
O51	O	2.459795	-0.754112	0.000310
C52	C	2.482758	-0.846355	0.165010
H53	H	2.361595	-0.845751	0.219903
H54	H	2.537341	-0.947058	0.127967
H55	H	2.567906	-0.820848	0.280337
O56	O	1.319994	0.161111	-0.000248
C57	C	1.205836	0.190918	-0.164962
H58	H	1.190864	0.097120	-0.219863
H59	H	1.084949	0.246237	-0.127935
H60	H	1.249379	0.253500	-0.280277
O61	O	2.169004	-0.825514	0.000267
C62	C	2.104710	-0.868253	0.164967
H63	H	2.028052	-0.781095	0.219879
H64	H	2.026571	-0.937978	0.127918
H65	H	2.207512	-0.920248	0.280283
H66	H	1.627896	-0.339145	-0.000007
