data_functionalizedCrystal
_audit_creation_method	'MofGen! by Chris Wilmer'
_symmetry_space_group_name_H-M	'P1'
_symmetry_Int_Tables_number	1
_symmetry_cell_setting	triclinic
loop_
_symmetry_equiv_pos_as_xyz
  x,y,z
_cell_length_a	14.044220
_cell_length_b	10.654541
_cell_length_c	9.730217
_cell_angle_alpha	90.003041
_cell_angle_beta	89.996545
_cell_angle_gamma	88.836403
loop_
_atom_site_label
_atom_site_type_symbol
_atom_site_fract_x
_atom_site_fract_y
_atom_site_fract_z
O1	O	-1.259692	-0.302984	-0.114143
O2	O	-0.983651	-0.292051	-0.114178
O3	O	-1.128020	-0.115416	-0.114151
O4	O	-1.115324	-0.479619	-0.114169
O5	O	-1.128015	-0.115414	0.114429
O6	O	-0.983647	-0.292048	0.114403
O7	O	-1.259688	-0.302982	0.114437
Zn8	Zn	-1.121667	-0.297515	0.150712
Zn9	Zn	-1.121673	-0.297518	-0.150452
O10	O	-1.115320	-0.479617	0.114411
C11	C	-1.127086	-0.068523	0.000138
C12	C	-1.124298	0.071201	0.000135
C13	C	-0.948303	-0.287264	0.000108
C14	C	-0.842984	-0.272988	0.000095
C15	C	-1.295036	-0.307769	0.000149
C16	C	-1.400356	-0.322044	0.000153
C17	C	-0.650151	-0.246889	0.000123
C18	C	-0.593183	-0.348138	0.000124
C19	C	-0.485884	-0.333616	0.000140
C20	C	-0.757460	-0.261409	0.000108
C21	C	-1.116253	-0.526510	0.000119
C22	C	-1.119041	-0.666233	0.000112
N23	N	-1.121670	-0.297513	0.356248
C24	C	-1.296930	0.081824	0.000175
C25	C	-1.381932	0.152776	0.000197
C26	C	-1.379307	0.284058	0.000192
C27	C	-1.291671	0.344390	0.000161
C28	C	-1.206668	0.273437	0.000139
C29	C	-1.209303	0.142153	0.000148
C30	C	-1.034039	0.262814	0.000090
C31	C	-1.036662	0.131533	0.000105
C32	C	-0.946402	0.323146	0.000059
C33	C	-0.861398	0.252194	0.000047
C34	C	-0.864026	0.120904	0.000053
C35	C	-0.951659	0.060580	0.000082
N36	N	-1.121677	-0.297511	-0.355989
C37	C	-1.249561	-0.141158	0.356263
C38	C	-1.313512	-0.062984	0.428210
C39	C	-1.313522	-0.062985	0.572089
C40	C	-1.249571	-0.141164	0.644025
C41	C	-1.185619	-0.219337	0.572079
C42	C	-1.185618	-0.219331	0.428195
C43	C	-1.057725	-0.375684	0.572064
C44	C	-1.057719	-0.375692	0.428185
C45	C	-0.993774	-0.453863	0.644000
C46	C	-0.929826	-0.532045	0.572053
C47	C	-0.929819	-0.532042	0.428165
C48	C	-0.993767	-0.453865	0.356238
H49	H	-0.624995	-0.445725	0.000113
H50	H	-1.365579	0.000671	0.369627
H51	H	-0.993771	-0.453861	0.239083
F52	F	-1.381582	0.020223	0.648661
H53	H	-0.790051	0.301327	0.000013
H54	H	-0.618341	-0.149310	0.000136
F55	F	-1.299731	-0.057898	0.000206
F56	F	-1.475197	0.088558	0.000223
H57	H	-1.448524	0.341828	0.000199
F58	F	-1.249573	-0.141147	0.797156
H59	H	-0.953808	-0.046316	0.000096
H60	H	-1.289541	0.451287	0.000141
F61	F	-0.773553	0.045401	0.000020
F62	F	-0.993780	-0.453857	0.797131
H63	H	-0.877738	-0.595695	0.369593
F64	F	-0.943610	0.462869	-0.000016
H65	H	-0.877757	-0.595687	0.630633
H66	H	-1.249567	-0.141161	0.239108
