data_functionalizedCrystal
_audit_creation_method	'MofGen! by Chris Wilmer'
_symmetry_space_group_name_H-M	'P1'
_symmetry_Int_Tables_number	1
_symmetry_cell_setting	triclinic
loop_
_symmetry_equiv_pos_as_xyz
  x,y,z
_cell_length_a	12.759401
_cell_length_b	25.639240
_cell_length_c	12.759393
_cell_angle_alpha	89.956840
_cell_angle_beta	89.979062
_cell_angle_gamma	90.034283
loop_
_atom_site_label
_atom_site_type_symbol
_atom_site_fract_x
_atom_site_fract_y
_atom_site_fract_z
Zn1	Zn	1.606135	-0.208104	-0.593928
Zn2	Zn	2.106135	0.291896	-0.093928
Zn3	Zn	1.605970	-0.295549	-0.418209
Zn4	Zn	2.105970	0.204451	0.081791
Zn5	Zn	1.430433	-0.208132	-0.418263
Zn6	Zn	1.930433	0.291868	0.081737
Zn7	Zn	1.430370	-0.295513	-0.593846
Zn8	Zn	1.930370	0.204487	-0.093846
O9	O	1.518227	-0.251825	-0.506061
O10	O	2.018227	0.248175	-0.006061
O11	O	1.753134	-0.219708	-0.570630
O12	O	2.253134	0.280292	-0.070630
O13	O	1.582643	-0.283980	-0.271195
O14	O	2.082643	0.216020	0.228805
O15	O	1.453836	-0.134963	-0.441622
O16	O	1.953836	0.365037	0.058378
O17	O	1.753013	-0.283953	-0.441530
O18	O	2.253013	0.216047	0.058470
O19	O	1.582923	-0.134943	-0.570682
O20	O	2.082923	0.365057	-0.070682
O21	O	1.453676	-0.219755	-0.271235
O22	O	1.953676	0.280245	0.228765
O23	O	1.283404	-0.219720	-0.441543
O24	O	1.783404	0.280280	0.058457
O25	O	1.453728	-0.283891	-0.740878
O26	O	1.953728	0.216109	-0.240878
O27	O	1.283357	-0.283918	-0.570543
O28	O	1.783357	0.216082	-0.070543
O29	O	1.582861	-0.219672	-0.740938
O30	O	2.082861	0.280328	-0.240938
O31	O	1.582581	-0.368710	-0.441451
O32	O	2.082581	0.131290	0.058549
O33	O	1.453568	-0.368683	-0.570491
O34	O	1.953568	0.131317	-0.070491
C35	C	1.245260	-0.251818	-0.506041
C36	C	1.745260	0.248182	-0.006041
C37	C	1.128483	-0.251828	-0.506057
C38	C	1.628483	0.248172	-0.006057
C39	C	1.518078	-0.387667	-0.505979
C40	C	2.018078	0.112333	-0.005979
C41	C	1.518111	-0.445781	-0.505979
C42	C	2.018111	0.054219	-0.005979
C43	C	1.073624	-0.285307	-0.573121
C44	C	1.573624	0.214693	-0.073121
C45	C	0.963900	-0.285309	-0.573142
C46	C	1.463900	0.214691	-0.073142
C47	C	0.963903	-0.218352	-0.439024
C48	C	1.463903	0.281648	0.060976
C49	C	1.073625	-0.218347	-0.439010
C50	C	1.573625	0.281653	0.060990
C51	C	1.585476	-0.806095	-0.573384
C52	C	2.085476	-0.306095	-0.073384
C53	C	1.585507	-0.860699	-0.573406
C54	C	2.085507	-0.360699	-0.073406
O55	O	1.642606	-0.888894	-0.630631
O56	O	2.142606	-0.388894	-0.130631
N57	N	1.518373	-0.888064	-0.506163
N58	N	2.018373	-0.388064	-0.006163
C59	C	1.451196	-0.860821	-0.438902
C60	C	1.951196	-0.360821	0.061098
O61	O	1.394095	-0.889110	-0.381710
O62	O	1.894095	-0.389110	0.118290
C63	C	1.451160	-0.806217	-0.438887
C64	C	1.951160	-0.306217	0.061113
C65	C	1.518306	-0.778856	-0.506126
C66	C	2.018306	-0.278856	-0.006126
C67	C	1.652616	-0.778734	-0.640619
C68	C	2.152616	-0.278734	-0.140619
C69	C	1.652586	-0.724133	-0.640596
C70	C	2.152586	-0.224133	-0.140596
C71	C	1.585416	-0.696894	-0.573338
C72	C	2.085416	-0.196894	-0.073338
C73	C	1.518276	-0.724255	-0.506103
C74	C	2.018276	-0.224255	-0.006103
C75	C	1.383979	-0.778975	-0.371632
C76	C	1.883979	-0.278975	0.128368
C77	C	1.383948	-0.724368	-0.371623
C78	C	1.883948	-0.224368	0.128377
C79	C	1.451094	-0.697007	-0.438863
C80	C	1.951094	-0.197007	0.061137
C81	C	1.451077	-0.642416	-0.438822
C82	C	1.951077	-0.142416	0.061178
N83	N	1.518211	-0.615052	-0.506065
N84	N	2.018211	-0.115052	-0.006065
C85	C	1.585381	-0.642291	-0.573323
C86	C	2.085381	-0.142291	-0.073323
C87	C	1.451274	-0.975491	-0.438941
C88	C	1.951274	-0.475491	0.061059
C89	C	1.451314	-1.030094	-0.438950
C90	C	1.951314	-0.530094	0.061050
C91	C	1.585624	-1.029969	-0.573455
C92	C	2.085624	-0.529969	-0.073455
C93	C	1.585589	-0.975365	-0.573440
C94	C	2.085589	-0.475365	-0.073440
C95	C	1.518408	-0.948127	-0.506183
C96	C	2.018408	-0.448127	-0.006183
C97	C	1.585314	-0.527626	-0.573269
C98	C	2.085314	-0.027626	-0.073269
C99	C	1.585281	-0.473020	-0.573237
C100	C	2.085281	0.026980	-0.073237
C101	C	1.450967	-0.473150	-0.438736
C102	C	1.950967	0.026850	0.061264
C103	C	1.451003	-0.527751	-0.438764
C104	C	1.951003	-0.027751	0.061236
C105	C	1.518180	-0.554987	-0.506039
C106	C	2.018180	-0.054987	-0.006039
O107	O	1.394004	-0.614186	-0.381629
O108	O	1.894004	-0.114186	0.118371
O109	O	1.642462	-0.613995	-0.630516
O110	O	2.142462	-0.113995	-0.130516
C111	C	1.792260	-0.251831	-0.506083
C112	C	2.292260	0.248169	-0.006083
C113	C	1.909037	-0.251834	-0.506092
C114	C	2.409037	0.248166	-0.006092
C115	C	1.518306	-0.251774	-0.780095
C116	C	2.018306	0.248226	-0.280095
C117	C	1.518339	-0.251753	-0.896872
C118	C	2.018339	0.248247	-0.396872
C119	C	1.518405	-0.115452	-0.506167
C120	C	2.018405	0.384548	-0.006167
C121	C	1.518480	-0.057337	-0.506212
C122	C	2.018480	0.442663	-0.006212
C123	C	1.585584	-0.218309	-0.951766
C124	C	2.085584	0.281691	-0.451766
C125	C	1.585602	-0.218286	-1.061491
C126	C	2.085602	0.281714	-0.561491
C127	C	1.451127	-0.285156	-1.061415
C128	C	1.951127	0.214844	-0.561415
C129	C	1.451105	-0.285176	-0.951693
C130	C	1.951105	0.214824	-0.451693
C131	C	1.518209	-0.251837	-0.233094
C132	C	2.018209	0.248163	0.266906
C133	C	1.518379	-0.251711	-0.116318
C134	C	2.018379	0.248289	0.383682
H135	H	1.118286	-0.312568	-0.627718
H136	H	1.618286	0.187432	-0.127718
H137	H	1.639963	-0.450744	-0.627991
H138	H	2.139963	0.049256	-0.127991
H139	H	1.396336	-0.550030	-0.384003
H140	H	1.896336	-0.050030	0.115997
H141	H	0.919239	-0.312570	-0.627754
H142	H	1.419239	0.187430	-0.127754
H143	H	1.640358	-0.191052	-1.106181
H144	H	2.140358	0.308948	-0.606181
H145	H	1.329301	-0.801244	-0.316878
H146	H	1.829301	-0.301244	0.183122
H147	H	0.919225	-0.191094	-0.384436
H148	H	1.419225	0.308906	0.115564
H149	H	1.396338	-0.312410	-0.906997
H150	H	1.896338	0.187590	-0.406997
H151	H	1.118293	-0.191082	-0.384397
H152	H	1.618293	0.308918	0.115603
H153	H	1.640008	-0.549795	-0.628058
H154	H	2.140008	-0.049795	-0.128058
H155	H	1.707259	-0.701859	-0.695351
H156	H	2.207259	-0.201859	-0.195351
H157	H	1.640316	-1.052157	-0.628222
H158	H	2.140316	-0.552157	-0.128222
H159	H	1.396389	-0.312369	-1.106065
H160	H	1.896389	0.187631	-0.606065
H161	H	1.707313	-0.800906	-0.695395
H162	H	2.207313	-0.300906	-0.195395
H163	H	1.396648	-1.052367	-0.384185
H164	H	1.896648	-0.552367	0.115815
H165	H	1.640264	-0.953091	-0.628192
H166	H	2.140264	-0.453091	-0.128192
H167	H	1.396281	-0.450964	-0.383972
H168	H	1.896281	0.049036	0.116028
H169	H	1.396571	-0.953317	-0.384163
H170	H	1.896571	-0.453317	0.115837
H171	H	1.329238	-0.702194	-0.316856
H172	H	1.829238	-0.202194	0.183144
H173	H	1.640328	-0.191092	-0.907134
H174	H	2.140328	0.308908	-0.407134
