data_functionalizedCrystal
_audit_creation_method	'MofGen! by Chris Wilmer'
_symmetry_space_group_name_H-M	'P1'
_symmetry_Int_Tables_number	1
_symmetry_cell_setting	triclinic
loop_
_symmetry_equiv_pos_as_xyz
  x,y,z
_cell_length_a	6.817900
_cell_length_b	11.102237
_cell_length_c	12.200875
_cell_angle_alpha	92.493878
_cell_angle_beta	107.143593
_cell_angle_gamma	108.604801
loop_
_atom_site_label
_atom_site_type_symbol
_atom_site_fract_x
_atom_site_fract_y
_atom_site_fract_z
V1	V	-4.094466	-0.176128	-0.357663
O2	O	-4.053827	0.008167	-0.350852
O3	O	-4.071357	-0.348947	-0.355219
O4	O	-4.063806	-0.173549	-0.513652
O5	O	-4.061429	-0.168445	-0.191324
V6	V	-4.572518	-0.154069	-0.337767
O7	O	-4.367725	-0.224517	-0.401306
O8	O	-4.749456	-0.105680	-0.294124
O9	O	-4.372421	0.018750	-0.340211
O10	O	-4.730554	-0.338364	-0.344578
O11	O	-4.722952	-0.161752	-0.504107
O12	O	-4.379971	-0.156648	-0.181779
C13	C	-3.921936	-0.391072	-0.349578
C14	C	-3.984446	-0.532354	-0.348619
C15	C	-4.068980	-0.616959	-0.453220
C16	C	-4.127707	-0.749708	-0.452318
C17	C	-4.017365	-0.713235	-0.242207
C18	C	-3.958625	-0.580488	-0.243109
C19	C	-4.132694	-0.638018	-0.574526
C20	C	-4.191421	-0.770768	-0.573625
C21	C	-3.912303	-0.167333	-0.551672
C22	C	-3.968687	-0.166368	-0.679193
C23	C	-4.071876	-0.164603	-0.912668
C24	C	-4.014446	-0.165585	-0.782746
C25	C	-4.185185	0.060868	-0.345850
C26	C	-4.101914	0.202149	-0.346816
C27	C	-4.194816	-0.162868	-0.143753
C28	C	-4.117671	-0.163826	-0.016230
H29	H	-3.996348	-0.752442	-0.156304
H30	H	-3.889773	-0.511605	-0.157933
O31	O	-4.431785	-0.835799	-0.640795
H32	H	-4.502893	-0.762358	-0.674384
H33	H	-4.000158	-0.605111	-0.616956
O34	O	-4.048961	-0.827176	-0.617115
H35	H	-4.102315	-0.932201	-0.614581
H36	H	-4.279777	-0.608504	-0.616979
