data_functionalizedCrystal
_audit_creation_method	'MofGen! by Chris Wilmer'
_symmetry_space_group_name_H-M	'P1'
_symmetry_Int_Tables_number	1
_symmetry_cell_setting	triclinic
loop_
_symmetry_equiv_pos_as_xyz
  x,y,z
_cell_length_a	16.109302
_cell_length_b	16.109301
_cell_length_c	15.186229
_cell_angle_alpha	89.994833
_cell_angle_beta	89.994701
_cell_angle_gamma	83.461631
loop_
_atom_site_label
_atom_site_type_symbol
_atom_site_fract_x
_atom_site_fract_y
_atom_site_fract_z
O1	O	1.103130	0.106869	-0.073271
O2	O	1.353130	0.356869	0.176729
O3	O	1.603130	0.606869	0.426729
O4	O	1.853130	0.856869	0.676729
O5	O	0.861068	0.120168	-0.073264
O6	O	1.111068	0.370168	0.176736
O7	O	1.361068	0.620168	0.426736
O8	O	1.611068	0.870168	0.676736
O9	O	0.988749	-0.007513	-0.073259
O10	O	1.238749	0.242487	0.176741
O11	O	1.488749	0.492487	0.426741
O12	O	1.738749	0.742487	0.676741
O13	O	0.975450	0.234549	-0.073276
O14	O	1.225450	0.484549	0.176724
O15	O	1.475450	0.734549	0.426724
O16	O	1.725450	0.984549	0.676724
O17	O	0.988740	-0.007514	0.073198
O18	O	1.238740	0.242486	0.323198
O19	O	1.488740	0.492486	0.573198
O20	O	1.738740	0.742486	0.823198
O21	O	0.861060	0.120166	0.073193
O22	O	1.111060	0.370166	0.323193
O23	O	1.361060	0.620166	0.573193
O24	O	1.611060	0.870166	0.823193
O25	O	1.103122	0.106867	0.073186
O26	O	1.353122	0.356867	0.323186
O27	O	1.603122	0.606867	0.573186
O28	O	1.853122	0.856867	0.823186
Zn29	Zn	0.982089	0.113516	0.096443
Zn30	Zn	1.232089	0.363516	0.346443
Zn31	Zn	1.482089	0.613516	0.596443
Zn32	Zn	1.732089	0.863516	0.846443
Zn33	Zn	0.982101	0.113519	-0.096521
Zn34	Zn	1.232101	0.363519	0.153479
Zn35	Zn	1.482101	0.613519	0.403479
Zn36	Zn	1.732101	0.863519	0.653479
O37	O	0.975441	0.234547	0.073181
O38	O	1.225441	0.484547	0.323181
O39	O	1.475441	0.734547	0.573181
O40	O	1.725441	0.984547	0.823181
C41	C	0.830089	0.119628	-0.000035
C42	C	1.080089	0.369628	0.249965
C43	C	1.330089	0.619628	0.499965
C44	C	1.580089	0.869628	0.749965
C45	C	0.737794	0.118013	-0.000032
C46	C	0.987794	0.368013	0.249968
C47	C	1.237794	0.618013	0.499968
C48	C	1.487794	0.868013	0.749968
C49	C	0.525448	0.114276	0.079793
C50	C	0.775448	0.364276	0.329793
C51	C	1.025448	0.614276	0.579793
C52	C	1.275448	0.864276	0.829793
C53	C	0.438728	0.112750	0.079790
C54	C	0.688728	0.362750	0.329790
C55	C	0.938728	0.612750	0.579790
C56	C	1.188728	0.862750	0.829790
C57	C	0.438748	0.112756	-0.079885
C58	C	0.688748	0.362756	0.170115
C59	C	0.938748	0.612756	0.420115
C60	C	1.188748	0.862756	0.670115
C61	C	0.525467	0.114277	-0.079881
C62	C	0.775467	0.364277	0.170119
C63	C	1.025467	0.614277	0.420119
C64	C	1.275467	0.864277	0.670119
C65	C	0.568815	0.115041	-0.000039
C66	C	0.818815	0.365041	0.249961
C67	C	1.068815	0.615041	0.499961
C68	C	1.318815	0.865041	0.749961
C69	C	0.395375	0.111994	-0.000046
C70	C	0.645375	0.361994	0.249954
C71	C	0.895375	0.611994	0.499954
C72	C	1.145375	0.861994	0.749954
C73	C	0.301350	0.110338	-0.000050
C74	C	0.551350	0.360338	0.249950
C75	C	0.801350	0.610338	0.499950
C76	C	1.051350	0.860338	0.749950
C77	C	0.662847	0.116695	-0.000035
C78	C	0.912847	0.366695	0.249965
C79	C	1.162847	0.616695	0.499965
C80	C	1.412847	0.866695	0.749965
C81	C	0.988206	-0.038488	-0.000030
C82	C	1.238206	0.211512	0.249970
C83	C	1.488206	0.461512	0.499970
C84	C	1.738206	0.711512	0.749970
C85	C	0.986591	-0.130784	-0.000028
C86	C	1.236591	0.119216	0.249972
C87	C	1.486591	0.369216	0.499972
C88	C	1.736591	0.619216	0.749972
C89	C	1.058599	-0.353056	-0.000044
C90	C	1.308599	-0.103056	0.249956
C91	C	1.558599	0.146944	0.499956
C92	C	1.808599	0.396944	0.749956
C93	C	1.057074	-0.439776	-0.000052
C94	C	1.307074	-0.189776	0.249948
C95	C	1.557074	0.060224	0.499948
C96	C	1.807074	0.310224	0.749948
C97	C	0.905586	-0.419902	-0.000044
C98	C	1.155586	-0.169902	0.249956
C99	C	1.405586	0.080098	0.499956
C100	C	1.655586	0.330098	0.749956
C101	C	0.907111	-0.333184	-0.000043
C102	C	1.157111	-0.083184	0.249957
C103	C	1.407111	0.166816	0.499957
C104	C	1.657111	0.416816	0.749957
C105	C	0.983620	-0.299763	-0.000039
C106	C	1.233620	-0.049763	0.249961
C107	C	1.483620	0.200237	0.499961
C108	C	1.733620	0.450237	0.749961
C109	C	0.980571	-0.473202	-0.000047
C110	C	1.230571	-0.223202	0.249953
C111	C	1.480571	0.026798	0.499953
C112	C	1.730571	0.276798	0.749953
C113	C	0.978918	-0.567228	-0.000055
C114	C	1.228918	-0.317228	0.249945
C115	C	1.478918	-0.067228	0.499945
C116	C	1.728918	0.182772	0.749945
C117	C	0.985273	-0.205731	-0.000033
C118	C	1.235273	0.044269	0.249967
C119	C	1.485273	0.294269	0.499967
C120	C	1.735273	0.544269	0.749967
C121	C	1.134101	0.107407	-0.000045
C122	C	1.384101	0.357407	0.249955
C123	C	1.634101	0.607407	0.499955
C124	C	1.884101	0.857407	0.749955
C125	C	1.226396	0.109022	-0.000054
C126	C	1.476396	0.359022	0.249946
C127	C	1.726396	0.609022	0.499946
C128	C	1.976396	0.859022	0.749946
C129	C	0.975984	0.265523	-0.000050
C130	C	1.225984	0.515523	0.249950
C131	C	1.475984	0.765523	0.499950
C132	C	1.725984	1.015523	0.749950
C133	C	0.977599	0.357819	-0.000057
C134	C	1.227599	0.607819	0.249943
C135	C	1.477599	0.857819	0.499943
C136	C	1.727599	1.107819	0.749943
N137	N	0.982088	0.113514	0.228136
N138	N	1.232088	0.363514	0.478136
N139	N	1.482088	0.613514	0.728136
N140	N	1.732088	0.863514	0.978136
N141	N	0.982109	0.113514	-0.228214
N142	N	1.232109	0.363514	0.021786
N143	N	1.482109	0.613514	0.271786
N144	N	1.732109	0.863514	0.521786
C145	C	1.038644	0.056996	0.453861
C146	C	1.288644	0.306996	0.703861
C147	C	1.538644	0.556996	0.953861
C148	C	1.788644	0.806996	1.203861
C149	C	1.038647	0.056994	0.546051
C150	C	1.288647	0.306994	0.796051
C151	C	1.538647	0.556994	1.046051
C152	C	1.788647	0.806994	1.296051
C153	C	0.925547	0.170035	0.546055
C154	C	1.175547	0.420035	0.796055
C155	C	1.425547	0.670035	1.046055
C156	C	1.675547	0.920035	1.296055
C157	C	0.925541	0.170032	0.453867
C158	C	1.175541	0.420032	0.703867
C159	C	1.425541	0.670032	0.953867
C160	C	1.675541	0.920032	1.203867
C161	C	0.982094	0.113514	0.407772
C162	C	1.232094	0.363514	0.657772
C163	C	1.482094	0.613514	0.907772
C164	C	1.732094	0.863514	1.157772
C165	C	0.982103	0.113514	0.592150
C166	C	1.232103	0.363514	0.842150
C167	C	1.482103	0.613514	1.092150
C168	C	1.732103	0.863514	1.342150
C169	C	0.982105	0.113513	0.692106
C170	C	1.232105	0.363513	0.942106
C171	C	1.482105	0.613513	1.192106
C172	C	1.732105	0.863513	1.442106
C173	C	0.982091	0.113514	0.307810
C174	C	1.232091	0.363514	0.557810
C175	C	1.482091	0.613514	0.807810
C176	C	1.732091	0.863514	1.057810
H177	H	0.403444	0.112134	-0.144890
H178	H	0.653444	0.362134	0.105110
H179	H	0.903444	0.612134	0.355110
H180	H	1.153444	0.862134	0.605110
Cl181	Cl	0.384214	0.111790	0.180157
Cl182	Cl	0.634214	0.361790	0.430157
Cl183	Cl	0.884214	0.611790	0.680157
Cl184	Cl	1.134214	0.861790	0.930157
H185	H	0.843295	-0.447124	-0.000046
H186	H	1.093295	-0.197124	0.249954
H187	H	1.343295	0.052876	0.499954
H188	H	1.593295	0.302876	0.749954
Cl189	Cl	1.109739	-0.014061	0.603988
Cl190	Cl	1.359739	0.235939	0.853988
Cl191	Cl	1.609739	0.485939	1.103988
Cl192	Cl	1.859739	0.735939	1.353988
H193	H	0.560777	0.114897	-0.144895
H194	H	0.810777	0.364897	0.105105
H195	H	1.060777	0.614897	0.355105
H196	H	1.310777	0.864897	0.605105
Cl197	Cl	0.812843	-0.266182	-0.000044
Cl198	Cl	1.062843	-0.016182	0.249956
Cl199	Cl	1.312843	0.233818	0.499956
Cl200	Cl	1.562843	0.483818	0.749956
H201	H	0.560739	0.114899	0.144806
H202	H	0.810739	0.364899	0.394806
H203	H	1.060739	0.614899	0.644806
H204	H	1.310739	0.864899	0.894806
H205	H	1.084692	0.010975	0.416333
H206	H	1.334692	0.260975	0.666333
H207	H	1.584692	0.510975	0.916333
H208	H	1.834692	0.760975	1.166333
H209	H	1.120897	-0.325848	-0.000043
H210	H	1.370897	-0.075848	0.249957
H211	H	1.620897	0.174152	0.499957
H212	H	1.870897	0.424152	0.749957
H213	H	1.118130	-0.483165	-0.000058
H214	H	1.368130	-0.233165	0.249942
H215	H	1.618130	0.016835	0.499942
H216	H	1.868130	0.266835	0.749942
H217	H	0.879503	0.216052	0.583594
H218	H	1.129503	0.466052	0.833594
H219	H	1.379503	0.716052	1.083594
H220	H	1.629503	0.966052	1.333594
Cl221	Cl	0.854440	0.241084	0.395921
Cl222	Cl	1.104440	0.491084	0.645921
Cl223	Cl	1.354440	0.741084	0.895921
Cl224	Cl	1.604440	0.991084	1.145921
