data_functionalizedCrystal
_audit_creation_method	'MofGen! by Chris Wilmer'
_symmetry_space_group_name_H-M	'P1'
_symmetry_Int_Tables_number	1
_symmetry_cell_setting	triclinic
loop_
_symmetry_equiv_pos_as_xyz
  x,y,z
_cell_length_a	16.974897
_cell_length_b	16.974813
_cell_length_c	14.048226
_cell_angle_alpha	86.339005
_cell_angle_beta	86.341962
_cell_angle_gamma	83.164002
loop_
_atom_site_label
_atom_site_type_symbol
_atom_site_fract_x
_atom_site_fract_y
_atom_site_fract_z
O1	O	1.049029	0.100839	-0.167657
O2	O	1.549029	0.600839	0.332343
O3	O	0.818811	0.113662	-0.150930
O4	O	1.318811	0.613662	0.349070
O5	O	0.940337	-0.007860	-0.150915
O6	O	1.440337	0.492140	0.349085
O7	O	0.927502	0.222361	-0.167672
O8	O	1.427502	0.722361	0.332328
O9	O	0.940323	-0.007867	0.007408
O10	O	1.440323	0.492133	0.507408
O11	O	0.818796	0.113655	0.007393
O12	O	1.318796	0.613655	0.507393
O13	O	1.049014	0.100831	-0.009334
O14	O	1.549014	0.600831	0.490666
Zn15	Zn	0.933903	0.107242	0.024167
Zn16	Zn	1.433903	0.607242	0.524167
Zn17	Zn	0.933922	0.107251	-0.184431
Zn18	Zn	1.433922	0.607251	0.315569
O19	O	0.927488	0.222353	-0.009349
O20	O	1.427488	0.722353	0.490651
C21	C	0.789346	0.113168	-0.069464
C22	C	1.289346	0.613168	0.430536
C23	C	0.701572	0.111699	-0.062597
C24	C	1.201572	0.611699	0.437403
C25	C	0.660336	0.111015	-0.145665
C26	C	1.160336	0.611015	0.354335
C27	C	0.577861	0.109647	-0.139199
C28	C	1.077861	0.609647	0.360801
C29	C	0.536624	0.108958	-0.049664
C30	C	1.036624	0.608958	0.450336
C31	C	0.577866	0.109645	0.033411
C32	C	1.077866	0.609645	0.533411
C33	C	0.660338	0.111018	0.026944
C34	C	1.160338	0.611018	0.526944
C35	C	0.289967	0.104855	-0.021068
C36	C	0.789967	0.604855	0.478932
C37	C	0.207489	0.103479	-0.014607
C38	C	0.707489	0.603479	0.485393
C39	C	0.207490	0.103482	-0.187219
C40	C	0.707490	0.603482	0.312781
C41	C	0.289965	0.104851	-0.193677
C42	C	0.789965	0.604851	0.306323
C43	C	0.331198	0.105542	-0.110603
C44	C	0.831198	0.605542	0.389397
N45	N	0.452322	0.107557	-0.043052
N46	N	0.952322	0.607557	0.456948
N47	N	0.415498	0.106949	-0.117216
N48	N	0.915498	0.606949	0.382784
C49	C	0.939842	-0.037322	-0.069448
C50	C	1.439842	0.462678	0.430552
C51	C	0.938377	-0.125097	-0.062576
C52	C	1.438377	0.374903	0.437424
C53	C	0.937699	-0.166326	-0.145649
C54	C	1.437699	0.333674	0.354351
C55	C	0.936317	-0.248800	-0.139189
C56	C	1.436317	0.251200	0.360811
C57	C	0.935620	-0.290044	-0.049655
C58	C	1.435620	0.209956	0.450345
C59	C	0.936296	-0.248809	0.033424
C60	C	1.436296	0.251191	0.533424
C61	C	0.937672	-0.166336	0.026964
C62	C	1.437672	0.333664	0.526964
C63	C	0.931500	-0.536702	-0.021078
C64	C	1.431500	-0.036702	0.478922
C65	C	0.930126	-0.619181	-0.014624
C66	C	1.430126	-0.119181	0.485376
C67	C	0.930146	-0.619165	-0.187237
C68	C	1.430146	-0.119165	0.312763
C69	C	0.931527	-0.536692	-0.193690
C70	C	1.431527	-0.036692	0.306310
C71	C	0.932198	-0.495463	-0.110611
C72	C	1.432198	0.004537	0.389389
N73	N	0.934211	-0.374346	-0.043050
N74	N	1.434211	0.125654	0.456950
N75	N	0.933602	-0.411162	-0.117217
N76	N	1.433602	0.088838	0.382783
C77	C	1.078479	0.101325	-0.090802
C78	C	1.578479	0.601325	0.409198
C79	C	1.166253	0.102794	-0.097676
C80	C	1.666253	0.602794	0.402324
C81	C	0.927983	0.251815	-0.090818
C82	C	1.427983	0.751815	0.409182
C83	C	0.929448	0.339590	-0.097697
C84	C	1.429448	0.839590	0.402303
N85	N	0.933895	0.107235	0.166528
N86	N	1.433895	0.607235	0.666528
N87	N	0.933936	0.107252	-0.326793
N88	N	1.433936	0.607252	0.173207
C89	C	0.987724	0.053447	0.216350
C90	C	1.487724	0.553447	0.716350
C91	C	0.987730	0.053447	0.316007
C92	C	1.487730	0.553447	0.816007
C93	C	0.933909	0.107239	0.365841
C94	C	1.433909	0.607239	0.865841
C95	C	0.880075	0.161029	0.316012
C96	C	1.380075	0.661029	0.816012
C97	C	0.880066	0.161025	0.216357
C98	C	1.380066	0.661025	0.716357
C99	C	0.880098	0.161035	0.523724
C100	C	1.380098	0.661035	1.023724
C101	C	0.880107	0.161040	0.623386
C102	C	1.380107	0.661040	1.123386
C103	C	0.987761	0.053456	0.623374
C104	C	1.487761	0.553456	1.123374
C105	C	0.987752	0.053453	0.523719
C106	C	1.487752	0.553453	1.023719
C107	C	0.933919	0.107244	0.473898
C108	C	1.433919	0.607244	0.973898
H109	H	0.544284	0.109088	0.106313
H110	H	1.044284	0.609088	0.606313
Cl111	Cl	0.712177	0.111882	0.131378
Cl112	Cl	1.212177	0.611882	0.631378
Cl113	Cl	0.932332	-0.484881	0.083367
Cl114	Cl	1.432332	0.015119	0.583367
H115	H	0.935768	-0.282365	-0.206836
H116	H	1.435768	0.217635	0.293164
H117	H	0.929598	-0.652742	-0.254876
H118	H	1.429598	-0.152742	0.245124
Cl119	Cl	0.812390	0.228644	0.153726
Cl120	Cl	1.312390	0.728644	0.653726
H121	H	1.031581	0.009655	0.483144
H122	H	1.531581	0.509655	0.983144
H123	H	0.935723	-0.282396	0.106325
H124	H	1.435723	0.217604	0.606325
Cl125	Cl	0.938523	-0.114505	0.131403
Cl126	Cl	1.438523	0.385495	0.631403
Cl127	Cl	0.929255	-0.671030	0.097941
Cl128	Cl	1.429255	-0.171030	0.597941
H129	H	1.031554	0.009647	0.175782
H130	H	1.531554	0.509647	0.675782
H131	H	0.932095	-0.503116	-0.266598
H132	H	1.432095	-0.003116	0.233402
Cl133	Cl	0.938581	-0.114485	-0.258212
Cl134	Cl	1.438581	0.385515	0.241788
H135	H	0.693905	0.111573	-0.218575
H136	H	1.193905	0.611573	0.281425
H137	H	0.323530	0.105412	0.046577
H138	H	0.823530	0.605412	0.546577
H139	H	1.031594	0.009658	0.663945
H140	H	1.531594	0.509658	1.163945
H141	H	1.031561	0.009648	0.356571
H142	H	1.531561	0.509648	0.856571
H143	H	0.836280	0.204842	0.663955
H144	H	1.336280	0.704842	1.163955
Cl145	Cl	0.812417	0.228658	0.461096
Cl146	Cl	1.312417	0.728658	0.961096
Cl147	Cl	0.341800	0.105713	-0.306241
Cl148	Cl	0.841800	0.605713	0.193759
H149	H	0.836249	0.204825	0.356593
H150	H	1.336249	0.704825	0.856593
H151	H	0.173908	0.102922	-0.254853
H152	H	0.673908	0.602922	0.245147
Cl153	Cl	0.526025	0.108787	-0.243634
Cl154	Cl	1.026025	0.608787	0.256366
H155	H	0.173913	0.102940	0.058306
H156	H	0.673913	0.602940	0.558306
