data_functionalizedCrystal
_audit_creation_method	'MofGen! by Chris Wilmer'
_symmetry_space_group_name_H-M	'P1'
_symmetry_Int_Tables_number	1
_symmetry_cell_setting	triclinic
loop_
_symmetry_equiv_pos_as_xyz
  x,y,z
_cell_length_a	16.974800
_cell_length_b	14.044220
_cell_length_c	15.455301
_cell_angle_alpha	92.764001
_cell_angle_beta	89.350429
_cell_angle_gamma	88.279480
loop_
_atom_site_label
_atom_site_type_symbol
_atom_site_fract_x
_atom_site_fract_y
_atom_site_fract_z
O1	O	1.057565	0.120622	-0.002133
O2	O	1.390898	0.453956	0.331201
O3	O	1.724231	0.787289	0.664534
O4	O	0.829189	0.136846	0.013907
O5	O	1.162523	0.470179	0.347240
O6	O	1.495856	0.803513	0.680574
O7	O	0.939949	-0.009234	0.006119
O8	O	1.273282	0.324099	0.339453
O9	O	1.606615	0.657433	0.672786
O10	O	0.946805	0.266702	0.005655
O11	O	1.280139	0.600035	0.338988
O12	O	1.613472	0.933369	0.672322
O13	O	0.933259	-0.016611	-0.137674
O14	O	1.266592	0.316722	0.195660
O15	O	1.599925	0.650056	0.528993
O16	O	0.822499	0.129469	-0.129886
O17	O	1.155833	0.462802	0.203447
O18	O	1.489166	0.796136	0.536780
O19	O	1.050875	0.113245	-0.145926
O20	O	1.384208	0.446578	0.187408
O21	O	1.717542	0.779912	0.520741
Cu22	Cu	0.936076	0.120683	-0.151035
Cu23	Cu	1.269410	0.454017	0.182298
Cu24	Cu	1.602743	0.787350	0.515631
Cu25	Cu	0.943988	0.129408	0.019017
Cu26	Cu	1.277321	0.462741	0.352350
Cu27	Cu	1.610655	0.796074	0.685683
O28	O	0.940115	0.259325	-0.138138
O29	O	1.273449	0.592658	0.195195
O30	O	1.606782	0.925992	0.528528
C31	C	0.796441	0.132680	-0.055925
C32	C	1.129774	0.466013	0.277409
C33	C	1.463107	0.799347	0.610742
C34	C	0.708826	0.131246	-0.049771
C35	C	1.042160	0.464579	0.283562
C36	C	1.375493	0.797912	0.616895
C37	C	0.664023	0.126548	-0.125264
C38	C	0.997356	0.459882	0.208069
C39	C	1.330689	0.793215	0.541402
C40	C	0.581700	0.125186	-0.119485
C41	C	0.915033	0.458519	0.213848
C42	C	1.248367	0.791852	0.547181
C43	C	0.544182	0.128527	-0.038212
C44	C	0.877516	0.461860	0.295121
C45	C	1.210849	0.795194	0.628454
C46	C	0.588992	0.133222	0.037286
C47	C	0.922325	0.466555	0.370619
C48	C	1.255659	0.799889	0.703953
C49	C	0.671313	0.134578	0.031506
C50	C	1.004647	0.467911	0.364840
C51	C	1.337980	0.801245	0.698173
C52	C	0.298369	0.124897	-0.012521
C53	C	0.631703	0.458230	0.320812
C54	C	0.965036	0.791563	0.654146
C55	C	0.216042	0.123543	-0.006747
C56	C	0.549375	0.456877	0.326587
C57	C	0.882708	0.790210	0.659920
C58	C	0.208756	0.115505	-0.163519
C59	C	0.542089	0.448838	0.169814
C60	C	0.875422	0.782172	0.503148
C61	C	0.291079	0.116867	-0.169292
C62	C	0.624412	0.450200	0.164042
C63	C	0.957745	0.783534	0.497375
C64	C	0.335881	0.121557	-0.093793
C65	C	0.669215	0.454890	0.239540
C66	C	1.002548	0.788223	0.572874
N67	N	0.460035	0.127137	-0.032303
N68	N	0.793369	0.460471	0.301030
N69	N	1.126702	0.793804	0.634363
N70	N	0.420027	0.122940	-0.099703
N71	N	0.753360	0.456273	0.233630
N72	N	1.086694	0.789606	0.566964
C73	C	0.933603	-0.048222	-0.065567
C74	C	1.266936	0.285111	0.267767
C75	C	1.600269	0.618445	0.601100
C76	C	0.924651	-0.153403	-0.064939
C77	C	1.257984	0.179930	0.268394
C78	C	1.591318	0.513263	0.601728
C79	C	0.908286	-0.345983	-0.063777
C80	C	1.241620	-0.012649	0.269556
C81	C	1.574953	0.320684	0.602889
C82	C	0.971775	-0.403931	-0.068234
C83	C	1.305108	-0.070598	0.265100
C84	C	1.638441	0.262735	0.598433
C85	C	0.962669	-0.511089	-0.067587
C86	C	1.296002	-0.177756	0.265746
C87	C	1.629336	0.155577	0.599079
C88	C	0.917391	-0.238815	-0.064424
C89	C	1.250724	0.094519	0.268910
C90	C	1.584057	0.427852	0.602243
C91	C	1.083624	0.117411	-0.076092
C92	C	1.416957	0.450745	0.257241
C93	C	1.750290	0.784078	0.590574
C94	C	1.171238	0.118846	-0.082240
C95	C	1.504572	0.452179	0.251094
C96	C	1.837905	0.785512	0.584427
C97	C	0.946462	0.298313	-0.066450
C98	C	1.279795	0.631647	0.266883
C99	C	1.613128	0.964980	0.600217
C100	C	0.955413	0.403495	-0.067072
C101	C	1.288747	0.736828	0.266261
C102	C	1.622080	1.070161	0.599595
N103	N	0.930517	0.114547	-0.270641
N104	N	1.263851	0.447880	0.062692
N105	N	1.597184	0.781213	0.396025
C106	C	0.980252	0.169493	-0.319521
C107	C	1.313585	0.502827	0.013812
C108	C	1.646918	0.836160	0.347145
C109	C	0.976058	0.164846	-0.410035
C110	C	1.309391	0.498180	-0.076702
C111	C	1.642724	0.831513	0.256631
C112	C	0.922125	0.105257	-0.451667
C113	C	1.255459	0.438590	-0.118334
C114	C	1.588792	0.771924	0.214999
C115	C	0.872389	0.050304	-0.402781
C116	C	1.205722	0.383637	-0.069448
C117	C	1.539056	0.716970	0.263886
C118	C	0.876587	0.054946	-0.312269
C119	C	1.209921	0.388280	0.021064
C120	C	1.543254	0.721613	0.354398
C121	C	0.904015	0.085227	-0.721979
C122	C	1.237348	0.418560	-0.388646
C123	C	1.570681	0.751893	-0.055313
C124	C	0.899818	0.080590	-0.812498
C125	C	1.233152	0.413924	-0.479165
C126	C	1.566485	0.747257	-0.145831
C127	C	1.003489	0.195132	-0.819746
C128	C	1.336822	0.528465	-0.486413
C129	C	1.670155	0.861799	-0.153079
C130	C	1.007679	0.199774	-0.729232
C131	C	1.341012	0.533107	-0.395898
C132	C	1.674346	0.866440	-0.062565
C133	C	0.957945	0.144817	-0.680353
C134	C	1.291279	0.478150	-0.347020
C135	C	1.624612	0.811483	-0.013687
N136	N	0.917835	0.100508	-0.544187
N137	N	1.251169	0.433841	-0.210854
N138	N	1.584502	0.767174	0.122480
N139	N	0.962240	0.149561	-0.587836
N140	N	1.295573	0.482895	-0.254503
N141	N	1.628906	0.816228	0.078831
N142	N	0.949553	0.135537	0.138622
N143	N	1.282886	0.468870	0.471956
N144	N	1.616219	0.802204	0.805289
H145	H	0.707792	0.138405	0.092981
H146	H	1.041125	0.471738	0.426314
H147	H	1.374458	0.805072	0.759647
H148	H	1.032970	-0.373062	-0.072473
H149	H	1.366303	-0.039729	0.260860
H150	H	1.699637	0.293605	0.594193
N151	N	0.827233	-0.386859	-0.058083
N152	N	1.160566	-0.053525	0.275250
N153	N	1.493900	0.279808	0.608583
H154	H	0.832137	-0.458725	-0.058426
H155	H	1.165470	-0.125392	0.274907
H156	H	1.498803	0.207941	0.608241
H157	H	0.795196	-0.367295	-0.109318
H158	H	1.128530	-0.033962	0.224015
H159	H	1.461863	0.299371	0.557349
H160	H	1.024165	0.218023	-0.285631
H161	H	1.357498	0.551357	0.047702
H162	H	1.690831	0.884690	0.381036
N163	N	0.175573	0.127155	0.080916
N164	N	0.508906	0.460489	0.414249
N165	N	0.842240	0.793822	0.747582
H166	H	0.216446	0.130332	0.127867
H167	H	0.549780	0.463666	0.461201
H168	H	0.883113	0.796999	0.794534
H169	H	0.143834	0.068037	0.086563
H170	H	0.477168	0.401370	0.419896
H171	H	0.810501	0.734703	0.753230
H172	H	1.016558	0.209588	-0.449830
H173	H	1.349891	0.542922	-0.116496
H174	H	1.683225	0.876255	0.216837
N175	N	0.841645	0.016325	-0.857415
N176	N	1.174978	0.349659	-0.524081
N177	N	1.508312	0.682992	-0.190748
H178	H	0.786352	0.036068	-0.837736
H179	H	1.119685	0.369402	-0.504402
H180	H	1.453019	0.702735	-0.171069
H181	H	0.853140	-0.051860	-0.842418
H182	H	1.186473	0.281474	-0.509085
H183	H	1.519807	0.614807	-0.175752
H184	H	1.051598	0.248295	-0.695342
H185	H	1.384932	0.581628	-0.362008
H186	H	1.718265	0.914961	-0.028675
H187	H	1.043979	0.239874	-0.859552
H188	H	1.377312	0.573207	-0.526219
H189	H	1.710646	0.906541	-0.192886
N190	N	0.850376	0.025954	-0.669267
N191	N	1.183710	0.359287	-0.335934
N192	N	1.517043	0.692621	-0.002601
H193	H	0.815573	-0.012495	-0.709378
H194	H	1.148906	0.320838	-0.376045
H195	H	1.482240	0.654171	-0.042712
H196	H	0.816496	0.069355	-0.629212
H197	H	1.149829	0.402688	-0.295879
H198	H	1.483162	0.736022	0.037455
N199	N	0.814213	-0.013966	-0.447675
N200	N	1.147547	0.319367	-0.114342
N201	N	1.480880	0.652701	0.218992
H202	H	0.825645	-0.082168	-0.432680
H203	H	1.158978	0.251166	-0.099346
H204	H	1.492311	0.584499	0.233987
H205	H	0.819122	-0.008490	-0.512418
H206	H	1.152455	0.324844	-0.179085
H207	H	1.485789	0.658177	0.154249
N208	N	0.822950	-0.004322	-0.259544
N209	N	1.156283	0.329012	0.073789
N210	N	1.489616	0.662345	0.407122
H211	H	0.788146	-0.042776	-0.299651
H212	H	1.121479	0.290558	0.033683
H213	H	1.454812	0.623891	0.367016
H214	H	0.789070	0.039080	-0.219489
H215	H	1.122403	0.372413	0.113845
H216	H	1.455736	0.705746	0.447178
H217	H	0.334838	0.128712	0.048955
H218	H	0.668171	0.462046	0.382289
H219	H	1.001505	0.795379	0.715622
N220	N	0.548522	0.136828	0.124942
N221	N	0.881856	0.470161	0.458275
N222	N	1.215189	0.803495	0.791608
H223	H	0.562180	0.197554	0.158368
H224	H	0.895513	0.530888	0.491701
H225	H	1.228847	0.864221	0.825034
H226	H	0.566718	0.080045	0.157973
H227	H	0.900051	0.413379	0.491306
H228	H	1.233385	0.746712	0.824639
N229	N	0.704483	0.122939	-0.212925
N230	N	1.037816	0.456272	0.120408
N231	N	1.371149	0.789605	0.453741
H232	H	0.763432	0.124513	-0.205135
H233	H	1.096765	0.457846	0.128199
H234	H	1.430098	0.791179	0.461532
H235	H	0.686236	0.179680	-0.245982
H236	H	1.019569	0.513014	0.087352
H237	H	1.352902	0.846347	0.420685
N238	N	0.533373	0.120116	-0.200908
N239	N	0.866706	0.453449	0.132426
N240	N	1.200040	0.786782	0.465759
H241	H	0.569653	0.117537	-0.253272
H242	H	0.902987	0.450870	0.080061
H243	H	1.236320	0.784204	0.413395
H244	H	0.497185	0.178438	-0.202051
H245	H	0.830518	0.511772	0.131282
H246	H	1.163852	0.845105	0.464615
H247	H	0.172269	0.111685	-0.224985
H248	H	0.505602	0.445018	0.108348
H249	H	0.838935	0.778352	0.441681
N250	N	0.331542	0.113273	-0.256950
N251	N	0.664876	0.446607	0.076383
N252	N	0.998209	0.779940	0.409717
H253	H	0.290667	0.110093	-0.303899
H254	H	0.624000	0.443426	0.029434
H255	H	0.957334	0.776759	0.362767
H256	H	0.367806	0.054929	-0.262931
H257	H	0.701140	0.388262	0.070402
H258	H	1.034473	0.721595	0.403736
