data_functionalizedCrystal
_audit_creation_method	'MofGen! by Chris Wilmer'
_symmetry_space_group_name_H-M	'P1'
_symmetry_Int_Tables_number	1
_symmetry_cell_setting	triclinic
loop_
_symmetry_equiv_pos_as_xyz
  x,y,z
_cell_length_a	13.339070
_cell_length_b	16.974885
_cell_length_c	15.455313
_cell_angle_alpha	90.969048
_cell_angle_beta	93.394339
_cell_angle_gamma	99.478032
loop_
_atom_site_label
_atom_site_type_symbol
_atom_site_fract_x
_atom_site_fract_y
_atom_site_fract_z
O1	O	0.129068	1.077285	0.003424
O2	O	0.629068	1.577285	0.503424
O3	O	0.144520	0.851233	-0.012431
O4	O	0.644520	1.351233	0.487569
O5	O	-0.010544	0.938316	-0.006320
O6	O	0.489456	1.438316	0.493680
O7	O	0.284132	0.990203	-0.002686
O8	O	0.784132	1.490203	0.497314
O9	O	-0.001713	0.933328	0.137592
O10	O	0.498287	1.433328	0.637592
O11	O	0.153351	0.846246	0.131481
O12	O	0.653351	1.346246	0.631481
O13	O	0.137899	1.072298	0.147336
O14	O	0.637899	1.572298	0.647336
Cu15	Cu	0.146431	0.958816	0.152549
Cu16	Cu	0.646431	1.458816	0.652549
Cu17	Cu	0.135988	0.964715	-0.017644
Cu18	Cu	0.635988	1.464715	0.482356
O19	O	0.292963	0.985215	0.141226
O20	O	0.792963	1.485215	0.641226
C21	C	0.148185	0.819216	0.057455
C22	C	0.648185	1.319216	0.557455
C23	C	0.145936	0.731244	0.051284
C24	C	0.645936	1.231244	0.551284
C25	C	0.132725	0.236342	0.008072
C26	C	0.632725	0.736342	0.508072
C27	C	0.134839	0.319001	0.013881
C28	C	0.634839	0.819001	0.513881
C29	C	0.140717	0.357605	0.095233
C30	C	0.640717	0.857605	0.595233
C31	C	0.144471	0.313544	0.170781
C32	C	0.644471	0.813544	0.670781
C33	C	0.142350	0.230885	0.164970
C34	C	0.642350	0.730885	0.664970
C35	C	0.147570	0.604524	0.121022
C36	C	0.647570	1.104524	0.621022
C37	C	0.149693	0.687189	0.126826
C38	C	0.649693	1.187189	0.626826
C39	C	0.140059	0.692641	-0.030074
C40	C	0.640059	1.192641	0.469926
C41	C	0.137945	0.609981	-0.035877
C42	C	0.637945	1.109981	0.464123
C43	C	0.141694	0.565927	0.039670
C44	C	0.641694	1.065927	0.539670
N45	N	0.142880	0.442096	0.101173
N46	N	0.642880	0.942096	0.601173
N47	N	0.139523	0.481436	0.033730
N48	N	0.639523	0.981436	0.533730
C49	C	-0.043843	0.927057	0.065020
C50	C	0.456157	1.427057	0.565020
C51	C	-0.156220	0.900932	0.063184
C52	C	0.343780	1.400932	0.563184
C53	C	-0.520429	1.104070	0.077432
C54	C	-0.020429	1.604070	0.577432
C55	C	-0.414845	1.128619	0.079162
C56	C	0.085155	1.628619	0.579162
C57	C	-0.350184	1.071699	0.075167
C58	C	0.149816	1.571699	0.575167
C59	C	-0.391116	0.990227	0.069443
C60	C	0.108884	1.490227	0.569443
C61	C	-0.496710	0.965676	0.067720
C62	C	0.003290	1.465676	0.567720
C63	C	-0.326465	0.933305	0.065455
C64	C	0.173535	1.433305	0.565455
C65	C	-0.367398	0.851832	0.059731
C66	C	0.132602	1.351832	0.559731
C67	C	-0.472981	0.827285	0.058007
C68	C	0.027019	1.327285	0.558007
C69	C	-0.537643	0.884205	0.062002
C70	C	-0.037643	1.384205	0.562002
C71	C	-0.220871	0.957856	0.067178
C72	C	0.279129	1.457856	0.567178
C73	C	-0.197153	0.819461	0.057466
C74	C	0.302847	1.319461	0.557466
C75	C	-0.302736	0.794913	0.055736
C76	C	0.197264	1.294913	0.555736
C77	C	0.326262	0.996474	0.069884
C78	C	0.826262	1.496474	0.569884
C79	C	0.438639	1.022599	0.071714
C80	C	0.938639	1.522599	0.571714
C81	C	0.134234	1.104315	0.077449
C82	C	0.634234	1.604315	0.577449
C83	C	0.136482	1.192288	0.083614
C84	C	0.636482	1.692288	0.583614
N85	N	0.153776	0.954673	0.272254
N86	N	0.653776	1.454673	0.772254
N87	N	0.128635	0.968863	-0.137348
N88	N	0.628635	1.468863	0.362652
C89	C	0.087923	0.991692	0.320246
C90	C	0.587923	1.491692	0.820246
C91	C	0.093487	0.988568	0.410834
C92	C	0.593487	1.488568	0.910834
C93	C	0.164909	0.948430	0.453430
C94	C	0.664909	1.448430	0.953430
C95	C	0.230764	0.911406	0.405432
C96	C	0.730764	1.411406	0.905432
C97	C	0.225195	0.914525	0.314844
C98	C	0.725195	1.414525	0.814844
C99	C	0.188921	0.934958	0.724066
C100	C	0.688921	1.434958	1.224066
C101	C	0.194488	0.931844	0.814660
C102	C	0.694488	1.431844	1.314660
C103	C	0.057209	1.009005	0.820057
C104	C	0.557209	1.509005	1.320057
C105	C	0.051650	1.012125	0.729467
C106	C	0.551650	1.512125	1.229467
C107	C	0.117501	0.975098	0.681477
C108	C	0.617501	1.475098	1.181477
N109	N	0.170600	0.945237	0.546026
N110	N	0.670600	1.445237	1.046026
N111	N	0.111805	0.978285	0.588882
N112	N	0.611805	1.478285	1.088882
H113	H	0.150608	0.568663	0.182538
H114	H	0.650608	1.068663	0.682538
H115	H	0.127946	0.204918	-0.058174
H116	H	0.627946	0.704918	0.441826
H117	H	-0.623619	0.864222	0.060590
H118	H	-0.123619	1.364222	0.560590
H119	H	0.278818	0.884380	0.275770
H120	H	0.778818	1.384380	0.775770
C121	C	0.130692	0.367457	-0.069222
C122	C	0.630692	0.867457	0.430778
N123	N	0.127563	0.403952	-0.131819
N124	N	0.627563	0.903952	0.368181
C125	C	-0.026925	1.056275	0.682619
C126	C	0.473075	1.556275	1.182619
N127	N	-0.086108	1.089530	0.647332
N128	N	0.413892	1.589530	1.147332
C129	C	-0.175858	1.047473	0.073469
C130	C	0.324142	1.547473	0.573469
N131	N	-0.141956	1.114978	0.078204
N132	N	0.358044	1.614978	0.578204
H133	H	-0.506304	0.760945	0.053352
H134	H	-0.006304	1.260945	0.553352
H135	H	0.288914	0.878720	0.440118
H136	H	0.788914	1.378720	0.940118
H137	H	0.039864	1.018711	0.449909
H138	H	0.539864	1.518711	0.949909
H139	H	-0.573084	1.150405	0.080691
H140	H	-0.073084	1.650405	0.580691
H141	H	-0.381525	1.194953	0.083824
H142	H	0.118475	1.694953	0.583824
C143	C	-0.015231	1.049724	0.872853
C144	C	0.484769	1.549724	1.372853
N145	N	-0.069800	1.080391	0.912619
N146	N	0.430200	1.580391	1.412619
C147	C	0.131462	0.567522	-0.125371
C148	C	0.631462	1.067522	0.374629
N149	N	0.126577	0.535541	-0.192779
N150	N	0.626577	1.035541	0.307221
H151	H	0.145420	0.195018	0.226485
H152	H	0.645420	0.695018	0.726485
C153	C	0.273057	0.887683	0.861513
C154	C	0.773057	1.387683	1.361513
N155	N	0.332234	0.854424	0.896803
N156	N	0.832234	1.354424	1.396803
C157	C	0.261492	0.894358	0.671297
C158	C	0.761492	1.394358	1.171297
N159	N	0.316204	0.863823	0.631552
N160	N	0.816204	1.363823	1.131552
C161	C	0.135923	0.741106	-0.113171
C162	C	0.635923	1.241106	0.386829
N163	N	0.132802	0.777609	-0.175762
N164	N	0.632802	1.277609	0.324238
C165	C	0.156154	0.729650	0.216324
C166	C	0.656154	1.229650	0.716324
N167	N	0.161020	0.761632	0.283730
N168	N	0.661020	1.261632	0.783730
C169	C	0.150979	0.356016	0.260269
C170	C	0.650979	0.856016	0.760269
N171	N	0.155901	0.388007	0.327674
N172	N	0.655901	0.888007	0.827674
C173	C	-0.347776	0.705294	0.049451
C174	C	0.152224	1.205294	0.549451
N175	N	-0.381701	0.637793	0.044721
N176	N	0.118299	1.137793	0.544721
H177	H	-0.264213	1.091691	0.076576
H178	H	0.235787	1.591691	0.576576
H179	H	0.029769	1.024381	0.285571
H180	H	0.529769	1.524381	0.785571
H181	H	-0.144505	0.773112	0.054217
H182	H	0.355495	1.273112	0.554217
