data_functionalizedCrystal
_audit_creation_method	'MofGen! by Chris Wilmer'
_symmetry_space_group_name_H-M	'P1'
_symmetry_Int_Tables_number	1
_symmetry_cell_setting	triclinic
loop_
_symmetry_equiv_pos_as_xyz
  x,y,z
_cell_length_a	23.532407
_cell_length_b	9.065218
_cell_length_c	8.140239
_cell_angle_alpha	90.002802
_cell_angle_beta	89.991844
_cell_angle_gamma	96.067719
loop_
_atom_site_label
_atom_site_type_symbol
_atom_site_fract_x
_atom_site_fract_y
_atom_site_fract_z
O1	O	0.083497	-1.956283	-0.136637
O2	O	0.090346	-1.526661	-0.136641
O3	O	0.004085	-1.754427	-0.136609
O4	O	0.169758	-1.728517	-0.136670
O5	O	0.004084	-1.754415	0.136618
O6	O	0.090345	-1.526649	0.136586
O7	O	0.083496	-1.956271	0.136590
Zn8	Zn	0.086921	-1.741458	0.179968
Zn9	Zn	0.086922	-1.741474	-0.180020
O10	O	0.169757	-1.728504	0.136558
C11	C	0.089687	-1.471701	-0.000028
C12	C	0.087719	-1.307955	-0.000028
C13	C	-0.017136	-1.753761	0.000009
C14	C	-0.080368	-1.751778	0.000021
N15	N	0.086919	-1.741457	0.425651
C16	C	-0.478573	-1.874123	-0.000068
C17	C	-0.537986	-1.872280	-0.000080
O18	O	-0.573898	-1.985695	-0.000140
N19	N	-0.561607	-1.736873	-0.000080
C20	C	-0.525810	-1.603300	-0.000085
O21	O	-0.551356	-1.487956	-0.000087
C22	C	-0.466397	-1.605144	-0.000084
C23	C	-0.442780	-1.740560	-0.000067
C24	C	-0.454955	-2.009527	-0.000053
C25	C	-0.395546	-2.011370	-0.000037
C26	C	-0.359753	-1.877807	-0.000037
C27	C	-0.383371	-1.742402	-0.000052
C28	C	-0.430601	-1.471573	-0.000100
C29	C	-0.371185	-1.473429	-0.000100
C30	C	-0.347568	-1.608845	-0.000084
C31	C	-0.288169	-1.610682	-0.000035
N32	N	-0.264548	-1.746089	-0.000035
C33	C	-0.300341	-1.879651	-0.000036
C34	C	-0.650581	-1.599437	-0.000089
C35	C	-0.709992	-1.597591	-0.000078
C36	C	-0.722165	-1.866571	-0.000077
C37	C	-0.662752	-1.868416	-0.000076
C38	C	-0.626960	-1.734844	-0.000089
C39	C	-0.175576	-1.883510	-0.000002
C40	C	-0.116160	-1.885340	0.000021
C41	C	-0.103993	-1.616360	0.000011
C42	C	-0.163403	-1.614529	-0.000003
C43	C	-0.199194	-1.748116	-0.000015
O44	O	-0.252222	-1.497326	0.000018
O45	O	-0.274786	-1.994976	-0.000055
C46	C	0.190979	-1.729170	-0.000064
C47	C	0.254210	-1.731154	-0.000087
C48	C	0.084155	-2.011231	-0.000027
C49	C	0.086123	-2.174977	-0.000038
N50	N	0.086919	-1.741486	-0.425703
H51	H	-0.204710	-1.992289	-0.000018
H52	H	-0.074840	-1.507618	0.000017
C53	C	-0.735967	-1.448638	-0.000077
H54	H	-0.776478	-1.466654	-0.000074
H55	H	-0.723719	-1.393687	-0.095355
H56	H	-0.723734	-1.393684	0.095218
C57	C	-0.611214	-1.452498	-0.000072
H58	H	-0.633795	-1.371600	-0.000057
H59	H	-0.587777	-1.447613	-0.095347
H60	H	-0.587792	-1.447621	0.095226
H61	H	-0.449820	-1.361303	-0.000123
C62	C	-0.761544	-2.013489	-0.000108
H63	H	-0.800309	-1.992986	-0.000133
H64	H	-0.754321	-2.069066	0.095165
H65	H	-0.754302	-2.069040	-0.095408
C66	C	-0.090185	-2.034303	0.000029
H67	H	-0.120014	-2.113581	0.000009
H68	H	-0.067268	-2.040618	0.095313
H69	H	-0.067255	-2.040617	-0.095260
C70	C	-0.331818	-1.326496	-0.000108
H71	H	-0.354396	-1.245593	-0.000107
H72	H	-0.308380	-1.321626	-0.095382
H73	H	-0.308396	-1.321612	0.095191
H74	H	-0.376323	-2.121639	-0.000030
C75	C	-0.494318	-2.156460	-0.000040
H76	H	-0.471735	-2.237353	-0.000019
H77	H	-0.517747	-2.161362	-0.095314
H78	H	-0.517749	-2.161328	0.095259
C79	C	-0.189383	-1.465577	-0.000025
H80	H	-0.159555	-1.386297	-0.000033
H81	H	-0.212320	-1.459247	0.095236
H82	H	-0.212294	-1.459283	-0.095337
H83	H	-0.643528	-1.978683	-0.000064
