data_functionalizedCrystal
_audit_creation_method	'MofGen! by Chris Wilmer'
_symmetry_space_group_name_H-M	'P1'
_symmetry_Int_Tables_number	1
_symmetry_cell_setting	triclinic
loop_
_symmetry_equiv_pos_as_xyz
  x,y,z
_cell_length_a	16.974800
_cell_length_b	14.044220
_cell_length_c	15.455313
_cell_angle_alpha	92.908275
_cell_angle_beta	90.973911
_cell_angle_gamma	88.279480
loop_
_atom_site_label
_atom_site_type_symbol
_atom_site_fract_x
_atom_site_fract_y
_atom_site_fract_z
O1	O	1.057570	0.120854	0.002133
O2	O	0.829155	0.135333	-0.013909
O3	O	0.939934	-0.009900	-0.006120
O4	O	0.946791	0.266087	-0.005656
O5	O	0.933597	-0.001629	0.137696
O6	O	0.822818	0.143603	0.129907
O7	O	1.051233	0.129125	0.145949
Cu8	Cu	0.936447	0.137119	0.151060
Cu9	Cu	0.943941	0.127338	-0.019020
O10	O	0.940454	0.274357	0.138161
C11	C	0.796578	0.138766	0.055934
C12	C	0.708948	0.136662	0.049780
C13	C	0.664330	0.140180	0.125285
C14	C	0.581993	0.138188	0.119505
C15	C	0.544276	0.132685	0.038219
C16	C	0.588901	0.129165	-0.037292
C17	C	0.671236	0.131149	-0.031511
C18	C	0.298400	0.126259	0.012523
C19	C	0.216058	0.124277	0.006748
C20	C	0.209157	0.133299	0.163545
C21	C	0.291494	0.135290	0.169319
C22	C	0.336111	0.131764	0.093808
N23	N	0.460115	0.130653	0.032309
N24	N	0.420271	0.133790	0.099719
C25	C	0.933764	-0.041087	0.065577
C26	C	0.924810	-0.146336	0.064950
C27	C	0.908443	-0.339042	0.063788
C28	C	0.971942	-0.396506	0.068245
C29	C	0.962835	-0.503734	0.067598
C30	C	0.917549	-0.231804	0.064434
C31	C	1.083810	0.125692	0.076105
C32	C	1.171440	0.127795	0.082253
C33	C	0.946625	0.305544	0.066461
C34	C	0.955578	0.410794	0.067083
N35	N	0.931181	0.143998	0.270685
N36	N	0.949212	0.120452	-0.138645
C37	C	0.978263	0.082321	0.319390
C38	C	0.974289	0.087532	0.409918
C39	C	0.923236	0.154426	0.451741
C40	C	0.876149	0.216105	0.403030
C41	C	0.880120	0.210889	0.312503
C42	C	0.906096	0.176915	0.722117
C43	C	0.902130	0.182129	0.812651
C44	C	1.000270	0.053554	0.819533
C45	C	1.004239	0.048348	0.729004
C46	C	0.957149	0.110024	0.680301
N47	N	0.919175	0.159756	0.544275
N48	N	0.961207	0.104689	0.587768
H49	H	1.033148	-0.365175	0.072485
H50	H	0.847245	-0.370375	0.059487
C51	C	1.025375	0.020417	0.462679
C52	C	1.007041	-0.074063	0.439302
C53	C	1.054098	-0.135917	0.487876
H54	H	1.015750	0.032964	0.522601
H55	H	1.079362	0.029991	0.451549
H56	H	0.953067	-0.083632	0.450439
H57	H	1.016670	-0.086640	0.379388
H58	H	1.108086	-0.126343	0.476746
H59	H	1.044470	-0.123361	0.547795
H60	H	1.041671	-0.200028	0.472016
H61	H	0.334718	0.123385	-0.048963
H62	H	0.834577	0.270568	0.437086
H63	H	0.841779	0.261112	0.272848
H64	H	1.019839	0.027854	0.285344
H65	H	0.172820	0.136168	0.225022
C66	C	1.059687	-0.024381	0.683758
C67	C	1.100055	-0.077299	0.745787
C68	C	1.151134	-0.144312	0.704138
H69	H	1.096509	0.007688	0.650902
H70	H	1.030124	-0.066028	0.646291
H71	H	1.129616	-0.035659	0.783239
H72	H	1.063253	-0.109389	0.778645
H73	H	1.121572	-0.185958	0.666671
H74	H	1.187951	-0.112234	0.671284
H75	H	1.178525	-0.180230	0.746218
C76	C	0.846609	0.254782	0.857897
C77	C	0.806200	0.307659	0.795869
C78	C	0.755041	0.374580	0.837517
H79	H	0.876094	0.296473	0.895383
H80	H	0.809821	0.222611	0.890731
H81	H	0.842983	0.339828	0.763049
H82	H	0.776700	0.265993	0.758381
H83	H	0.718252	0.342409	0.870351
H84	H	0.784532	0.416264	0.875001
H85	H	0.727612	0.410459	0.795437
H86	H	1.038608	0.003339	0.859196
C87	C	0.854886	0.243733	0.669189
C88	C	0.805349	0.190086	0.613613
C89	C	0.758160	0.251611	0.564845
H90	H	0.887480	0.281274	0.635972
H91	H	0.823871	0.284310	0.707030
H92	H	0.836362	0.149525	0.575776
H93	H	0.772740	0.152547	0.646807
H94	H	0.727144	0.292189	0.602686
H95	H	0.790759	0.289150	0.531633
H96	H	0.724539	0.215222	0.527137
C97	C	0.705132	0.146106	0.213621
C98	C	0.648431	0.148732	0.278507
C99	C	0.685986	0.154175	0.359895
H100	H	0.734976	0.202294	0.219109
H101	H	0.739218	0.091812	0.219332
H102	H	0.614358	0.203021	0.272798
H103	H	0.618583	0.092550	0.273048
H104	H	0.720072	0.099881	0.365606
H105	H	0.715829	0.210363	0.365374
H106	H	0.647521	0.155949	0.403929
H107	H	0.545669	0.141037	0.180989
H108	H	0.322197	0.139766	0.235511
H109	H	0.185352	0.119799	-0.059448
H110	H	0.558185	0.124677	-0.103477
H111	H	0.707564	0.128287	-0.092996
