data_functionalizedCrystal
_audit_creation_method	'MofGen! by Chris Wilmer'
_symmetry_space_group_name_H-M	'P1'
_symmetry_Int_Tables_number	1
_symmetry_cell_setting	triclinic
loop_
_symmetry_equiv_pos_as_xyz
  x,y,z
_cell_length_a	14.560438
_cell_length_b	14.560438
_cell_length_c	14.560438
_cell_angle_alpha	90.001034
_cell_angle_beta	59.996693
_cell_angle_gamma	60.002023
loop_
_atom_site_label
_atom_site_type_symbol
_atom_site_fract_x
_atom_site_fract_y
_atom_site_fract_z
Zr1	Zr	1.005331	0.884757	-0.120597
O2	O	1.196939	0.738109	-0.267257
O3	O	0.813723	0.929712	-0.075630
O4	O	1.005334	0.929708	-0.267246
O5	O	1.005325	0.738116	0.075500
O6	O	1.005336	1.080847	-0.267247
O7	O	1.005327	0.738112	-0.075640
O8	O	0.662579	1.080853	0.075520
O9	O	1.348083	0.738110	-0.267267
O10	O	0.892536	1.061678	-0.056463
O11	O	0.892532	0.948888	0.056333
O12	O	1.118130	0.948884	-0.169271
O13	O	1.118126	0.836094	-0.056475
Zr14	Zr	1.005331	1.125811	0.120453
Zr15	Zr	1.005335	1.125805	-0.120599
Zr16	Zr	1.005327	0.884763	0.120455
Zr17	Zr	1.246388	0.884759	-0.120613
Zr18	Zr	0.764274	1.125810	0.120469
O19	O	1.196939	1.080857	0.075486
O20	O	1.196945	1.080848	-0.267260
O21	O	1.196933	0.738117	0.075488
O22	O	0.813723	1.272460	0.267113
O23	O	0.813728	1.272451	-0.075632
O24	O	0.813717	0.929720	0.267116
O25	O	1.005336	1.272452	-0.075644
O26	O	1.005327	1.080860	0.267102
O27	O	1.005325	0.929722	0.267103
O28	O	1.005334	1.272456	0.075496
O29	O	1.348086	0.929711	-0.267268
O30	O	0.662576	1.080858	0.267124
O31	O	0.662579	1.272459	0.267123
O32	O	0.662582	1.272454	0.075518
O33	O	1.348079	0.738115	-0.075662
O34	O	1.348083	0.929716	-0.075664
O35	O	0.892532	1.061684	0.169127
O36	O	0.892536	1.174474	0.056331
O37	O	1.118130	1.061680	-0.056477
O38	O	1.118126	0.948890	0.056318
C39	C	0.703805	1.005282	-0.000053
C40	C	0.601470	1.005281	-0.000046
C41	C	0.636684	0.922014	-0.083328
C42	C	0.540544	0.922019	-0.083357
C43	C	0.373977	1.088563	0.083188
C44	C	0.470117	1.088562	0.083211
C45	C	1.005326	0.703770	-0.000070
C46	C	1.005324	0.601439	-0.000069
C47	C	0.887568	0.612237	0.058812
C48	C	0.887575	0.516083	0.058812
C49	C	1.123102	0.398333	-0.058957
C50	C	1.123095	0.494487	-0.058951
C51	C	1.306856	1.005286	-0.000091
C52	C	1.409191	1.005287	-0.000098
C53	C	1.005336	1.005277	-0.301591
C54	C	1.005338	1.005274	-0.403924
C55	C	1.005336	1.306799	-0.000074
C56	C	1.005338	1.409130	-0.000075
C57	C	1.123093	0.946398	-0.510885
C58	C	1.123087	0.946411	-0.607034
C59	C	0.887559	1.064178	-0.489247
C60	C	0.887567	1.064171	-0.393101
C61	C	1.005326	1.005292	0.301447
C62	C	1.005324	1.005294	0.403780
C63	C	0.703810	1.306796	-0.000055
C64	C	0.601477	1.409127	-0.000049
C65	C	0.703800	1.005290	0.301467
C66	C	0.601463	1.005291	0.403806
C67	C	0.703805	1.306804	0.301465
C68	C	0.601470	1.409137	0.403803
C69	C	1.306856	0.703764	-0.301609
C70	C	1.409191	0.601431	-0.403947
C71	C	1.306851	0.703772	-0.000089
C72	C	1.409184	0.601442	-0.000095
C73	C	1.306861	1.005279	-0.301611
C74	C	1.409198	1.005277	-0.403950
C75	C	0.553398	1.398327	-0.058921
C76	C	0.457253	1.494481	-0.058919
C77	C	0.457270	1.612232	0.058835
C78	C	0.553420	1.516079	0.058826
C79	C	0.553383	1.064169	0.510763
C80	C	0.457236	1.064158	0.606918
C81	C	0.457254	0.946390	0.489146
C82	C	0.553406	0.946395	0.392994
C83	C	0.553393	1.516089	0.393007
C84	C	0.457247	1.612237	0.489169
C85	C	0.457260	1.494470	0.606920
C86	C	0.553411	1.398323	0.510759
H87	H	0.743635	0.854195	-0.151116
N88	N	0.405370	1.727596	0.477534
H89	H	0.422106	1.770116	0.514796
H90	H	0.450425	1.719764	0.395168
N91	N	1.250113	0.282975	-0.122470
H92	H	1.301598	0.273970	-0.204839
H93	H	1.301492	0.274036	-0.091498
N94	N	0.605252	1.527731	0.277642
H95	H	0.588514	1.490464	0.235131
H96	H	0.560190	1.610094	0.285480
N97	N	0.405422	1.482809	0.722277
H98	H	0.337212	1.559945	0.781559
H99	H	0.365604	1.440288	0.731182
H100	H	0.592535	1.311245	-0.106873
N101	N	1.250113	0.482837	-0.122469
H102	H	1.255355	0.520110	-0.181714
H103	H	1.255279	0.520093	-0.068388
H104	H	0.569228	0.854215	-0.151174
N105	N	0.605300	1.527718	0.122314
H106	H	0.531956	1.570188	0.204691
H107	H	0.673525	1.450535	0.113272
N108	N	0.405367	1.127677	0.722277
H109	H	0.337165	1.118738	0.781552
H110	H	0.478799	1.096773	0.731181
N111	N	0.605281	1.282953	0.522389
H112	H	0.645179	1.273940	0.564856
H113	H	0.531870	1.274007	0.564833
N114	N	0.232303	1.178377	0.172980
H115	H	0.188688	1.142052	0.216726
H116	H	0.224690	1.231104	0.225666
N117	N	0.432140	1.178382	0.173034
H118	H	0.334342	1.231137	0.225778
H119	H	0.468387	1.141974	0.216715
H120	H	1.218975	0.898470	-0.694124
H121	H	0.418113	1.485677	-0.106861
H122	H	0.418111	0.898440	0.480356
N123	N	0.405416	1.727591	0.122342
H124	H	0.365526	1.736596	0.204710
H125	H	0.478834	1.736528	0.091363
N126	N	0.605348	0.882812	0.277622
H127	H	0.560332	0.845483	0.285361
H128	H	0.588669	0.936814	0.235101
H129	H	0.791675	1.112128	-0.480449
N130	N	1.250110	0.882882	-0.522554
H131	H	1.324706	0.845589	-0.604906
H132	H	1.255244	0.936940	-0.485225
H133	H	0.791672	0.699318	0.106769
H134	H	0.791686	0.524885	0.106760
N135	N	0.605214	1.127691	0.522430
H136	H	0.645106	1.096807	0.564902
H137	H	0.673368	1.118750	0.445255
N138	N	0.760553	1.127684	-0.277724
H139	H	0.685945	1.164990	-0.285455
H140	H	0.755422	1.073623	-0.235265
