data_functionalizedCrystal
_audit_creation_method	'MofGen! by Chris Wilmer'
_symmetry_space_group_name_H-M	'P1'
_symmetry_Int_Tables_number	1
_symmetry_cell_setting	triclinic
loop_
_symmetry_equiv_pos_as_xyz
  x,y,z
_cell_length_a	17.699083
_cell_length_b	16.109301
_cell_length_c	15.186229
_cell_angle_alpha	90.000638
_cell_angle_beta	90.004632
_cell_angle_gamma	83.372248
loop_
_atom_site_label
_atom_site_type_symbol
_atom_site_fract_x
_atom_site_fract_y
_atom_site_fract_z
O1	O	-0.097285	-1.102963	-0.073175
O2	O	0.152715	-0.852963	0.176825
O3	O	0.402715	-0.602963	0.426825
O4	O	0.652715	-0.352963	0.676825
O5	O	-0.109391	-0.860880	-0.073189
O6	O	0.140609	-0.610880	0.176811
O7	O	0.390609	-0.360880	0.426811
O8	O	0.640609	-0.110880	0.676811
O9	O	0.006841	-0.988761	-0.073174
O10	O	0.256841	-0.738761	0.176826
O11	O	0.506841	-0.488761	0.426826
O12	O	0.756841	-0.238761	0.676826
O13	O	-0.213517	-0.975082	-0.073190
O14	O	0.036483	-0.725082	0.176810
O15	O	0.286483	-0.475082	0.426810
O16	O	0.536483	-0.225082	0.676810
O17	O	0.006843	-0.988753	0.073284
O18	O	0.256843	-0.738753	0.323284
O19	O	0.506843	-0.488753	0.573284
O20	O	0.756843	-0.238753	0.823284
O21	O	-0.109390	-0.860872	0.073268
O22	O	0.140610	-0.610872	0.323268
O23	O	0.390610	-0.360872	0.573268
O24	O	0.640610	-0.110872	0.823268
O25	O	-0.097283	-1.102955	0.073283
O26	O	0.152717	-0.852955	0.323283
O27	O	0.402717	-0.602955	0.573283
O28	O	0.652717	-0.352955	0.823283
Zn29	Zn	-0.103336	-0.981912	0.096529
Zn30	Zn	0.146664	-0.731912	0.346529
Zn31	Zn	0.396664	-0.481912	0.596529
Zn32	Zn	0.646664	-0.231912	0.846529
Zn33	Zn	-0.103338	-0.981923	-0.096435
Zn34	Zn	0.146662	-0.731923	0.153565
Zn35	Zn	0.396662	-0.481923	0.403565
Zn36	Zn	0.646662	-0.231923	0.653565
O37	O	-0.213516	-0.975074	0.073267
O38	O	0.036484	-0.725074	0.323267
O39	O	0.286484	-0.475074	0.573267
O40	O	0.536484	-0.225074	0.823267
C41	C	-0.108900	-0.829902	0.000038
C42	C	0.141100	-0.579902	0.250038
C43	C	0.391100	-0.329902	0.500038
C44	C	0.641100	-0.079902	0.750038
C45	C	-0.107430	-0.737609	0.000033
C46	C	0.142570	-0.487609	0.250033
C47	C	0.392570	-0.237609	0.500033
C48	C	0.642570	0.012391	0.750033
C49	C	0.035040	-0.988267	0.000055
C50	C	0.285040	-0.738267	0.250055
C51	C	0.535040	-0.488267	0.500055
C52	C	0.785040	-0.238267	0.750055
C53	C	0.119060	-0.986796	0.000055
C54	C	0.369060	-0.736796	0.250055
C55	C	0.619060	-0.486796	0.500055
C56	C	0.869060	-0.236796	0.750055
C57	C	-0.241714	-0.975568	0.000037
C58	C	0.008286	-0.725568	0.250037
C59	C	0.258286	-0.475568	0.500037
C60	C	0.508286	-0.225568	0.750037
C61	C	-0.325734	-0.977039	0.000031
C62	C	-0.075734	-0.727039	0.250031
C63	C	0.174266	-0.477039	0.500031
C64	C	0.424266	-0.227039	0.750031
C65	C	0.167574	-1.061860	0.000061
C66	C	0.417574	-0.811860	0.250061
C67	C	0.667574	-0.561860	0.500061
C68	C	0.917574	-0.311860	0.750061
C69	C	0.246519	-1.060473	0.000053
C70	C	0.496519	-0.810473	0.250053
C71	C	0.746519	-0.560473	0.500053
C72	C	0.996519	-0.310473	0.750053
C73	C	0.276949	-0.984022	0.000046
C74	C	0.526949	-0.734022	0.250046
C75	C	0.776949	-0.484022	0.500046
C76	C	1.026949	-0.234022	0.750046
C77	C	0.228429	-0.908953	0.000038
C78	C	0.478429	-0.658953	0.250038
C79	C	0.728429	-0.408953	0.500038
C80	C	0.978429	-0.158953	0.750038
C81	C	0.149485	-0.910341	0.000039
C82	C	0.399485	-0.660341	0.250039
C83	C	0.649485	-0.410341	0.500039
C84	C	0.899485	-0.160341	0.750039
C85	C	0.546800	-0.903356	0.000030
C86	C	0.796800	-0.653356	0.250030
C87	C	1.046800	-0.403356	0.500030
C88	C	1.296800	-0.153356	0.750030
C89	C	0.625750	-0.901974	0.000031
C90	C	0.875750	-0.651974	0.250031
C91	C	1.125750	-0.401974	0.500031
C92	C	1.375750	-0.151974	0.750031
C93	C	0.643834	-1.053488	0.000044
C94	C	0.893834	-0.803488	0.250044
C95	C	1.143834	-0.553488	0.500044
C96	C	1.393834	-0.303488	0.750044
C97	C	0.564890	-1.054876	0.000046
C98	C	0.814890	-0.804876	0.250046
C99	C	1.064890	-0.554876	0.500046
C100	C	1.314890	-0.304876	0.750046
C101	C	0.516377	-0.979807	0.000033
C102	C	0.766377	-0.729807	0.250033
C103	C	1.016377	-0.479807	0.500033
C104	C	1.266377	-0.229807	0.750033
C105	C	0.430776	-0.981312	0.000040
C106	C	0.680776	-0.731312	0.250040
C107	C	0.930776	-0.481312	0.500040
C108	C	1.180776	-0.231312	0.750040
C109	C	0.362549	-0.982517	0.000045
C110	C	0.612549	-0.732517	0.250045
C111	C	0.862549	-0.482517	0.500045
C112	C	1.112549	-0.232517	0.750045
C113	C	-0.097774	-1.133933	0.000054
C114	C	0.152226	-0.883933	0.250054
C115	C	0.402226	-0.633933	0.500054
C116	C	0.652226	-0.383933	0.750054
C117	C	-0.099244	-1.226226	0.000053
C118	C	0.150756	-0.976226	0.250053
C119	C	0.400756	-0.726226	0.500053
C120	C	0.650756	-0.476226	0.750053
N121	N	-0.103334	-0.981910	0.228221
N122	N	0.146666	-0.731910	0.478221
N123	N	0.396666	-0.481910	0.728221
N124	N	0.646666	-0.231910	0.978221
C125	C	-0.172981	-0.515224	0.000038
C126	C	0.077019	-0.265224	0.250038
C127	C	0.327019	-0.015224	0.500038
C128	C	0.577019	0.234776	0.750038
C129	C	-0.171594	-0.428506	0.000044
C130	C	0.078406	-0.178506	0.250044
C131	C	0.328406	0.071494	0.500044
C132	C	0.578406	0.321494	0.750044
C133	C	-0.033688	-0.448618	0.000050
C134	C	0.216312	-0.198618	0.250050
C135	C	0.466312	0.051382	0.500050
C136	C	0.716312	0.301382	0.750050
C137	C	-0.035076	-0.535334	0.000051
C138	C	0.214924	-0.285334	0.250051
C139	C	0.464924	-0.035334	0.500051
C140	C	0.714924	0.214666	0.750051
C141	C	-0.104725	-0.568635	0.000040
C142	C	0.145275	-0.318635	0.250040
C143	C	0.395275	-0.068635	0.500040
C144	C	0.645275	0.181365	0.750040
C145	C	-0.101949	-0.395200	0.000046
C146	C	0.148051	-0.145200	0.250046
C147	C	0.398051	0.104800	0.500046
C148	C	0.648051	0.354800	0.750046
C149	C	-0.100445	-0.301177	0.000052
C150	C	0.149555	-0.051177	0.250052
C151	C	0.399555	0.198823	0.500052
C152	C	0.649555	0.448823	0.750052
C153	C	-0.106230	-0.662664	0.000036
C154	C	0.143770	-0.412664	0.250036
C155	C	0.393770	-0.162664	0.500036
C156	C	0.643770	0.087336	0.750036
N157	N	-0.103334	-0.981931	-0.228128
N158	N	0.146666	-0.731931	0.021872
N159	N	0.396666	-0.481931	0.271872
N160	N	0.646666	-0.231931	0.521872
C161	C	-0.051884	-1.038555	0.453951
C162	C	0.198116	-0.788555	0.703951
C163	C	0.448116	-0.538555	0.953951
C164	C	0.698116	-0.288555	1.203951
C165	C	-0.051882	-1.038558	0.546141
C166	C	0.198118	-0.788558	0.796141
C167	C	0.448118	-0.538558	1.046141
C168	C	0.698118	-0.288558	1.296141
C169	C	-0.154787	-0.925280	0.546136
C170	C	0.095213	-0.675280	0.796136
C171	C	0.345213	-0.425280	1.046136
C172	C	0.595213	-0.175280	1.296136
C173	C	-0.154785	-0.925274	0.453948
C174	C	0.095215	-0.675274	0.703948
C175	C	0.345215	-0.425274	0.953948
C176	C	0.595215	-0.175274	1.203948
C177	C	-0.103334	-0.981916	0.407858
C178	C	0.146666	-0.731916	0.657858
C179	C	0.396666	-0.481916	0.907858
C180	C	0.646666	-0.231916	1.157858
C181	C	-0.103334	-0.981925	0.592236
C182	C	0.146666	-0.731925	0.842236
C183	C	0.396666	-0.481925	1.092236
C184	C	0.646666	-0.231925	1.342236
C185	C	-0.103333	-0.981927	0.692192
C186	C	0.146667	-0.731927	0.942192
C187	C	0.396667	-0.481927	1.192192
C188	C	0.646667	-0.231927	1.442192
C189	C	-0.103334	-0.981913	0.307896
C190	C	0.146666	-0.731913	0.557896
C191	C	0.396666	-0.481913	0.807896
C192	C	0.646666	-0.231913	1.057896
H193	H	0.142805	-1.124115	0.000072
H194	H	0.392805	-0.874115	0.250072
H195	H	0.642805	-0.624115	0.500072
H196	H	0.892805	-0.374115	0.750072
Cl197	Cl	-0.260540	-0.557085	0.000030
Cl198	Cl	-0.010540	-0.307085	0.250030
Cl199	Cl	0.239460	-0.057085	0.500030
Cl200	Cl	0.489460	0.192915	0.750030
H201	H	-0.227175	-0.385022	0.000044
H202	H	0.022825	-0.135022	0.250044
H203	H	0.272825	0.114978	0.500044
H204	H	0.522825	0.364978	0.750044
Cl205	Cl	0.050740	-0.602484	0.000061
Cl206	Cl	0.300740	-0.352484	0.250061
Cl207	Cl	0.550740	-0.102484	0.500061
Cl208	Cl	0.800740	0.147516	0.750061
H209	H	-0.009988	-1.084675	0.416427
H210	H	0.240012	-0.834675	0.666427
H211	H	0.490012	-0.584675	0.916427
H212	H	0.740012	-0.334675	1.166427
H213	H	0.683343	-1.114613	0.000050
H214	H	0.933343	-0.864613	0.250050
H215	H	1.183343	-0.614613	0.500050
H216	H	1.433343	-0.364613	0.750050
H217	H	0.650523	-0.839715	0.000027
H218	H	0.900523	-0.589715	0.250027
H219	H	1.150523	-0.339715	0.500027
H220	H	1.400523	-0.089715	0.750027
Cl221	Cl	0.012803	-1.109762	0.604084
Cl222	Cl	0.262803	-0.859762	0.854084
Cl223	Cl	0.512803	-0.609762	1.104084
Cl224	Cl	0.762803	-0.359762	1.354084
H225	H	0.023018	-0.421494	0.000064
H226	H	0.273018	-0.171494	0.250064
H227	H	0.523018	0.078506	0.500064
H228	H	0.773018	0.328506	0.750064
H229	H	-0.196682	-0.879148	0.416417
H230	H	0.053318	-0.629148	0.666417
H231	H	0.303318	-0.379148	0.916417
H232	H	0.553318	-0.129148	1.166417
Cl233	Cl	0.307505	-1.154843	0.000063
Cl234	Cl	0.557505	-0.904843	0.250063
Cl235	Cl	0.807505	-0.654843	0.500063
Cl236	Cl	1.057505	-0.404843	0.750063
Cl237	Cl	0.526640	-1.150989	0.000052
Cl238	Cl	0.776640	-0.900989	0.250052
Cl239	Cl	1.026640	-0.650989	0.500052
Cl240	Cl	1.276640	-0.400989	0.750052
H241	H	0.507310	-0.842230	0.000020
H242	H	0.757310	-0.592230	0.250020
H243	H	1.007310	-0.342230	0.500020
H244	H	1.257310	-0.092230	0.750020
Cl245	Cl	0.266684	-0.812843	0.000018
Cl246	Cl	0.516684	-0.562843	0.250018
Cl247	Cl	0.766684	-0.312843	0.500018
Cl248	Cl	1.016684	-0.062843	0.750018
Cl249	Cl	0.088496	-0.815971	0.000029
Cl250	Cl	0.338496	-0.565971	0.250029
Cl251	Cl	0.588496	-0.315971	0.500029
Cl252	Cl	0.838496	-0.065971	0.750029
H253	H	-0.196679	-0.879165	0.583672
H254	H	0.053321	-0.629165	0.833672
H255	H	0.303321	-0.379165	1.083672
H256	H	0.553321	-0.129165	1.333672
