data_functionalizedCrystal
_audit_creation_method	'MofGen! by Chris Wilmer'
_symmetry_space_group_name_H-M	'P1'
_symmetry_Int_Tables_number	1
_symmetry_cell_setting	triclinic
loop_
_symmetry_equiv_pos_as_xyz
  x,y,z
_cell_length_a	14.971506
_cell_length_b	14.044220
_cell_length_c	13.448316
_cell_angle_alpha	89.992660
_cell_angle_beta	89.992937
_cell_angle_gamma	88.405633
loop_
_atom_site_label
_atom_site_type_symbol
_atom_site_fract_x
_atom_site_fract_y
_atom_site_fract_z
O1	O	1.196675	0.123630	-0.082702
O2	O	0.937442	0.138404	-0.082703
O3	O	1.063167	-0.006972	-0.082692
O4	O	1.070950	0.269006	-0.082712
O5	O	1.063149	-0.006981	0.082691
O6	O	0.937424	0.138395	0.082681
O7	O	1.196657	0.123621	0.082682
Cu8	Cu	1.067039	0.131007	0.097782
Cu9	Cu	1.067060	0.131018	-0.097803
O10	O	1.070932	0.268997	0.082672
C11	C	0.904056	0.137735	-0.000011
C12	C	0.804603	0.135745	-0.000011
C13	C	0.372450	0.213556	-0.000026
C14	C	0.465897	0.215418	-0.000031
C15	C	0.516388	0.130004	-0.000020
C16	C	0.473428	0.042722	-0.000015
C17	C	0.379983	0.040860	-0.000018
C18	C	0.668197	0.046608	-0.000007
C19	C	0.761649	0.048469	-0.000003
C20	C	0.754112	0.221166	-0.000020
C21	C	0.660666	0.219305	-0.000023
C22	C	0.617712	0.132022	-0.000016
C23	C	1.059752	-0.042295	-0.000000
C24	C	1.049591	-0.147533	0.000001
C25	C	1.031014	-0.340217	-0.000013
C26	C	1.103081	-0.397763	-0.000016
C27	C	1.092745	-0.504979	-0.000024
C28	C	1.041349	-0.232991	-0.000005
C29	C	1.230043	0.124290	-0.000012
C30	C	1.329496	0.126280	-0.000019
C31	C	1.074347	0.304320	-0.000023
C32	C	1.084508	0.409558	-0.000030
N33	N	1.067030	0.130999	0.235347
N34	N	1.067075	0.131018	-0.235367
C35	C	1.122723	0.066653	0.287392
C36	C	1.122728	0.066652	0.391495
C37	C	1.067046	0.131003	0.443551
C38	C	1.011347	0.195352	0.391499
C39	C	1.011337	0.195348	0.287398
C40	C	1.011372	0.195358	0.608479
C41	C	1.011383	0.195364	0.712588
C42	C	1.122763	0.066663	0.712576
C43	C	1.122754	0.066659	0.608475
C44	C	1.067056	0.131009	0.556430
H45	H	0.514545	-0.026824	-0.000013
H46	H	0.961559	-0.371471	-0.000016
Cl47	Cl	0.825123	-0.058910	0.000002
Cl48	Cl	0.308985	0.320940	-0.000032
H49	H	1.168070	0.014255	0.245014
Cl50	Cl	1.192742	-0.014242	0.456925
H51	H	1.168099	0.014264	0.566091
H52	H	0.966039	0.247764	0.754967
Cl53	Cl	1.192783	-0.014232	0.778008
H54	H	1.172542	-0.366508	-0.000083
H55	H	0.966014	0.247757	0.566108
H56	H	0.966004	0.247744	0.433890
Cl57	Cl	0.941317	0.276240	0.221971
H58	H	0.500866	0.286487	-0.000046
Cl59	Cl	0.597193	0.326684	-0.000031
H60	H	0.633227	-0.024467	-0.000007
H61	H	0.789089	0.292235	-0.000025
Cl62	Cl	0.325983	-0.068863	-0.000008
