data_functionalizedCrystal
_audit_creation_method	'MofGen! by Chris Wilmer'
_symmetry_space_group_name_H-M	'P1'
_symmetry_Int_Tables_number	1
_symmetry_cell_setting	triclinic
loop_
_symmetry_equiv_pos_as_xyz
  x,y,z
_cell_length_a	18.215407
_cell_length_b	18.215405
_cell_length_c	18.215399
_cell_angle_alpha	90.030551
_cell_angle_beta	90.019833
_cell_angle_gamma	90.025333
loop_
_atom_site_label
_atom_site_type_symbol
_atom_site_fract_x
_atom_site_fract_y
_atom_site_fract_z
Zn1	Zn	1.125072	-0.292983	0.416103
Zn2	Zn	1.458405	0.040350	0.749436
Zn3	Zn	1.791739	0.373684	1.082769
Zn4	Zn	1.124980	-0.416054	0.293031
Zn5	Zn	1.458314	-0.082721	0.626364
Zn6	Zn	1.791647	0.250612	0.959697
Zn7	Zn	1.002005	-0.293007	0.293050
Zn8	Zn	1.335338	0.040326	0.626383
Zn9	Zn	1.668671	0.373660	0.959717
Zn10	Zn	1.001970	-0.416013	0.416056
Zn11	Zn	1.335304	-0.082680	0.749389
Zn12	Zn	1.668637	0.250653	1.082722
O13	O	1.063507	-0.354514	0.354560
O14	O	1.396840	-0.021181	0.687893
O15	O	1.730173	0.312152	1.021226
O16	O	1.228044	-0.309316	0.399788
O17	O	1.561377	0.024018	0.733122
O18	O	1.894711	0.357351	1.066455
O19	O	1.108643	-0.399759	0.190049
O20	O	1.441977	-0.066426	0.523382
O21	O	1.775310	0.266908	0.856716
O22	O	1.018382	-0.190020	0.309401
O23	O	1.351716	0.143314	0.642734
O24	O	1.685049	0.476647	0.976067
O25	O	1.227977	-0.399736	0.309368
O26	O	1.561310	-0.066402	0.642701
O27	O	1.894643	0.266931	0.976035
O28	O	1.108799	-0.190002	0.399807
O29	O	1.442133	0.143331	0.733140
O30	O	1.775466	0.476665	1.066474
O31	O	1.018293	-0.309357	0.190063
O32	O	1.351627	0.023977	0.523396
O33	O	1.684960	0.357310	0.856730
O34	O	0.899016	-0.309317	0.309355
O35	O	1.232349	0.024016	0.642689
O36	O	1.565682	0.357350	0.976022
O37	O	1.018324	-0.399666	0.519046
O38	O	1.351657	-0.066333	0.852379
O39	O	1.684991	0.267001	1.185713
O40	O	0.898991	-0.399689	0.399727
O41	O	1.232324	-0.066356	0.733060
O42	O	1.565657	0.266977	1.066394
O43	O	1.108766	-0.309276	0.519081
O44	O	1.442100	0.024057	0.852414
O45	O	1.775433	0.357391	1.185747
O46	O	1.108610	-0.519033	0.309322
O47	O	1.441944	-0.185700	0.642656
O48	O	1.775277	0.147634	0.975989
O49	O	1.018235	-0.519003	0.399708
O50	O	1.351569	-0.185670	0.733042
O51	O	1.684902	0.147664	1.066375
C52	C	0.872301	-0.354502	0.354539
C53	C	1.205634	-0.021169	0.687872
C54	C	1.538967	0.312165	1.021205
C55	C	0.790502	-0.354514	0.354547
C56	C	1.123835	-0.021181	0.687880
C57	C	1.457168	0.312152	1.021214
C58	C	0.602314	-0.401645	0.401544
C59	C	0.935647	-0.068312	0.734878
C60	C	1.268981	0.265022	1.068211
C61	C	0.525455	-0.401647	0.401554
C62	C	0.858789	-0.068314	0.734887
C63	C	1.192122	0.265019	1.068220
C64	C	0.525452	-0.307397	0.307591
C65	C	0.858785	0.025936	0.640924
C66	C	1.192118	0.359269	0.974258
C67	C	0.602309	-0.307392	0.307586
C68	C	0.935642	0.025942	0.640919
C69	C	1.268976	0.359275	0.974253
C70	C	0.640738	-0.354520	0.354562
C71	C	0.974071	-0.021186	0.687895
C72	C	1.307405	0.312147	1.021228
C73	C	0.487022	-0.354528	0.354576
C74	C	0.820355	-0.021194	0.687909
C75	C	1.153689	0.312139	1.021242
C76	C	0.403688	-0.354530	0.354585
C77	C	0.737022	-0.021196	0.687919
C78	C	1.070355	0.312137	1.021252
C79	C	0.724077	-0.354517	0.354553
C80	C	1.057410	-0.021184	0.687887
C81	C	1.390744	0.312150	1.021220
C82	C	1.063429	-0.545721	0.354524
C83	C	1.396762	-0.212387	0.687858
C84	C	1.730096	0.120946	1.021191
C85	C	1.063463	-0.627520	0.354534
C86	C	1.396797	-0.294186	0.687867
C87	C	1.730130	0.039147	1.021200
C88	C	1.110632	-0.815705	0.307556
C89	C	1.443965	-0.482371	0.640890
C90	C	1.777299	-0.149038	0.974223
C91	C	1.110665	-0.892563	0.307574
C92	C	1.443998	-0.559230	0.640908
C93	C	1.777331	-0.225897	0.974241
C94	C	1.016476	-0.892572	0.401616
C95	C	1.349809	-0.559239	0.734949
C96	C	1.683143	-0.225905	1.068283
C97	C	1.016447	-0.815715	0.401601
C98	C	1.349781	-0.482381	0.734935
C99	C	1.683114	-0.149048	1.068268
C100	C	1.063524	-0.777283	0.354567
C101	C	1.396857	-0.443950	0.687901
C102	C	1.730191	-0.110616	1.021234
C103	C	1.063586	-0.930999	0.354600
C104	C	1.396919	-0.597666	0.687933
C105	C	1.730252	-0.264332	1.021266
C106	C	1.063621	-1.014333	0.354619
C107	C	1.396954	-0.680999	0.687953
C108	C	1.730288	-0.347666	1.021286
C109	C	1.063490	-0.693944	0.354548
C110	C	1.396823	-0.360611	0.687882
C111	C	1.730157	-0.027277	1.021215
C112	C	1.255460	-0.354528	0.354581
C113	C	1.588793	-0.021194	0.687915
C114	C	1.922126	0.312139	1.021248
C115	C	1.337259	-0.354533	0.354591
C116	C	1.670592	-0.021200	0.687924
C117	C	2.003925	0.312133	1.021257
C118	C	1.063552	-0.354464	0.546513
C119	C	1.396885	-0.021130	0.879846
C120	C	1.730218	0.312203	1.213179
C121	C	1.063571	-0.354442	0.628312
C122	C	1.396904	-0.021109	0.961645
C123	C	1.730237	0.312225	1.294978
C124	C	1.063605	-0.162561	0.354611
C125	C	1.396938	0.170772	0.687945
C126	C	1.730272	0.504105	1.021278
C127	C	1.063647	-0.080763	0.354633
C128	C	1.396980	0.252571	0.687967
C129	C	1.730313	0.585904	1.021300
C130	C	1.063504	-0.354512	0.163353
C131	C	1.396838	-0.021179	0.496687
C132	C	1.730171	0.312155	0.830020
C133	C	1.063628	-0.354326	0.081555
C134	C	1.396961	-0.020993	0.414888
C135	C	1.730295	0.312340	0.748222
C136	C	1.110681	-0.307332	0.816525
C137	C	1.444014	0.026001	1.149858
C138	C	1.777348	0.359335	1.483191
C139	C	1.110690	-0.307311	0.893384
C140	C	1.444023	0.026023	1.226717
C141	C	1.777356	0.359356	1.560050
C142	C	1.016513	-0.401438	0.893336
C143	C	1.349846	-0.068105	1.226670
C144	C	1.683179	0.265228	1.560003
C145	C	1.016501	-0.401455	0.816479
C146	C	1.349834	-0.068122	1.149812
C147	C	1.683167	0.265211	1.483146
C148	C	1.063589	-0.354403	0.778075
C149	C	1.396922	-0.021070	1.111409
C150	C	1.730256	0.312263	1.444742
C151	C	1.063610	-0.354365	0.931791
C152	C	1.396943	-0.021031	1.265125
C153	C	1.730276	0.312302	1.598458
C154	C	1.063619	-0.354342	1.015125
C155	C	1.396952	-0.021009	1.348458
C156	C	1.730286	0.312325	1.681792
C157	C	1.063579	-0.354425	0.694736
C158	C	1.396912	-0.021092	1.028070
C159	C	1.730246	0.312241	1.361403
H160	H	0.633601	-0.440018	0.439797
H161	H	0.966934	-0.106684	0.773130
H162	H	1.300267	0.226649	1.106464
O163	O	1.156296	-0.778258	0.261898
O164	O	1.489629	-0.444925	0.595232
O165	O	1.822963	-0.111591	0.928565
C166	C	1.146184	-0.702182	0.271976
C167	C	1.479517	-0.368848	0.605309
C168	C	1.812851	-0.035515	0.938643
H169	H	1.089370	-0.691712	0.296019
H170	H	1.422703	-0.358379	0.629352
H171	H	1.756037	-0.025045	0.962685
H172	H	1.151202	-0.673009	0.216850
H173	H	1.484535	-0.339676	0.550184
H174	H	1.817869	-0.006342	0.883517
H175	H	1.189802	-0.680307	0.311206
H176	H	1.523136	-0.346974	0.644539
H177	H	1.856469	-0.013641	0.977873
H178	H	1.149026	-0.923843	0.269294
H179	H	1.482359	-0.590510	0.602628
H180	H	1.815692	-0.257176	0.935961
H181	H	0.494174	-0.440020	0.439813
H182	H	0.827507	-0.106687	0.773146
H183	H	1.160840	0.226646	1.106480
O184	O	0.970766	-0.930020	0.447228
O185	O	1.304100	-0.596687	0.780561
O186	O	1.637433	-0.263353	1.113894
C187	C	0.980903	-1.006096	0.437172
C188	C	1.314236	-0.672762	0.770506
C189	C	1.647570	-0.339429	1.103839
H190	H	1.005046	-1.016614	0.380404
H191	H	1.338379	-0.683280	0.713737
H192	H	1.671713	-0.349947	1.047071
H193	H	0.925785	-1.035345	0.442114
H194	H	1.259119	-0.702012	0.775447
H195	H	1.592452	-0.368679	1.108781
H196	H	1.020072	-1.027845	0.480867
H197	H	1.353406	-0.694511	0.814201
H198	H	1.686739	-0.361178	1.147534
H199	H	0.633595	-0.269012	0.269327
H200	H	0.966928	0.064321	0.602660
H201	H	1.300262	0.397654	0.935994
H202	H	1.149021	-0.269017	0.785259
H203	H	1.482355	0.064316	1.118592
H204	H	1.815688	0.397649	1.451925
H205	H	0.978177	-0.439748	0.924614
H206	H	1.311510	-0.106415	1.257947
H207	H	1.644843	0.226919	1.591281
O208	O	1.156364	-0.261607	0.930847
O209	O	1.489697	0.071726	1.264180
O210	O	1.823031	0.405059	1.597514
C211	C	1.146290	-0.271688	1.006919
C212	C	1.479623	0.061646	1.340252
C213	C	1.812957	0.394979	1.673586
H214	H	1.089487	-0.295788	1.017397
H215	H	1.422820	0.037545	1.350731
H216	H	1.756153	0.370879	1.684064
H217	H	1.151308	-0.216554	1.036142
H218	H	1.484641	0.116779	1.369476
H219	H	1.817975	0.450113	1.702809
H220	H	1.189928	-0.310871	1.028731
H221	H	1.523261	0.022463	1.362065
H222	H	1.856594	0.355796	1.695398
O223	O	0.970731	-0.447254	0.779238
O224	O	1.304064	-0.113921	1.112571
O225	O	1.637397	0.219412	1.445905
C226	C	0.929164	-0.488772	0.829613
C227	C	1.262497	-0.155439	1.162946
C228	C	1.595830	0.177895	1.496280
H229	H	0.959312	-0.491312	0.884406
H230	H	1.292646	-0.157978	1.217739
H231	H	1.625979	0.175355	1.551072
H232	H	0.921283	-0.546759	0.807384
H233	H	1.254616	-0.213426	1.140717
H234	H	1.587950	0.119908	1.474050
H235	H	0.873285	-0.461819	0.837784
H236	H	1.206618	-0.128486	1.171117
H237	H	1.539951	0.204848	1.504451
H238	H	0.978086	-0.784430	0.439887
H239	H	1.311420	-0.451096	0.773220
H240	H	1.644753	-0.117763	1.106553
O241	O	0.488006	-0.261690	0.261984
O242	O	0.821340	0.071643	0.595317
O243	O	1.154673	0.404977	0.928650
C244	C	0.411930	-0.271785	0.272074
C245	C	0.745263	0.061548	0.605408
C246	C	1.078597	0.394881	0.938741
H247	H	0.401421	-0.328612	0.296072
H248	H	0.734754	0.004721	0.629406
H249	H	1.068087	0.338055	0.962739
H250	H	0.382699	-0.266722	0.216962
H251	H	0.716032	0.066611	0.550295
H252	H	1.049365	0.399944	0.883628
H253	H	0.390153	-0.228186	0.311348
H254	H	0.723486	0.105147	0.644681
H255	H	1.056820	0.438480	0.978014
