data_functionalizedCrystal
_audit_creation_method	'MofGen! by Chris Wilmer'
_symmetry_space_group_name_H-M	'P1'
_symmetry_Int_Tables_number	1
_symmetry_cell_setting	triclinic
loop_
_symmetry_equiv_pos_as_xyz
  x,y,z
_cell_length_a	15.995288
_cell_length_b	14.421503
_cell_length_c	15.944551
_cell_angle_alpha	89.996660
_cell_angle_beta	96.517241
_cell_angle_gamma	89.990112
loop_
_atom_site_label
_atom_site_type_symbol
_atom_site_fract_x
_atom_site_fract_y
_atom_site_fract_z
O1	O	-1.111029	0.077162	0.108008
O2	O	-0.867248	0.077154	0.121432
O3	O	-0.995796	0.077150	-0.007557
O4	O	-0.982481	0.077166	0.236997
O5	O	-0.995774	-0.077074	-0.007537
O6	O	-0.867226	-0.077070	0.121452
O7	O	-1.111008	-0.077061	0.108027
Cu8	Cu	-0.989115	-0.091147	0.114741
Cu9	Cu	-0.989140	0.091240	0.114718
O10	O	-0.982460	-0.077057	0.237016
C11	C	-0.836041	0.000041	0.120896
C12	C	-0.743088	0.000037	0.119260
N13	N	-0.989104	-0.219429	0.114756
C14	C	-0.572904	0.000042	0.116239
C15	C	-0.525443	0.000045	0.208080
C16	C	-0.428754	0.000396	0.206409
C17	C	-0.405346	0.000045	0.113265
C18	C	-0.446489	0.087938	0.067688
C19	C	-0.543123	0.088011	0.070007
C20	C	-0.543378	-0.087376	0.068669
C21	C	-0.446433	-0.088530	0.068682
C22	C	-0.310650	0.000051	0.111579
C23	C	-0.667600	0.000043	0.117922
C24	C	-0.929653	-0.469081	0.174374
C25	C	-1.005314	-0.530879	0.190660
C26	C	-0.989124	-0.408590	0.114736
C27	C	-0.913482	-0.530885	0.098470
C28	C	-0.989137	-0.591312	0.114719
C29	C	-1.064824	-0.469028	0.131060
C30	C	-0.972942	-0.469029	0.038837
C31	C	-1.048658	-0.530799	0.055091
C32	C	-0.989115	-0.303329	0.114749
C33	C	-0.989154	-0.696570	0.114706
C34	C	-0.142213	0.000050	0.108574
C35	C	-0.235162	0.000050	0.110243
C36	C	-0.995232	0.000038	-0.038841
C37	C	-0.993575	0.000037	-0.132086
N38	N	-0.989159	0.219521	0.114696
C39	C	-0.909934	0.000047	-0.346920
C40	C	-0.948764	-0.075993	-0.407938
C41	C	-0.990577	0.000044	-0.302811
C42	C	-0.948804	0.076059	-0.407941
C43	C	-0.987676	0.000055	-0.467723
C44	C	-1.029429	-0.076059	-0.362602
C45	C	-1.029458	0.076062	-0.362598
C46	C	-1.068346	0.000003	-0.423599
C47	C	-0.992247	0.000037	-0.207810
C48	C	-0.986013	0.000055	-0.562724
C49	C	-0.983023	0.000056	0.268300
C50	C	-0.984681	0.000063	0.361546
H51	H	-0.400284	-0.062594	0.242220
H52	H	-0.959219	-0.441840	-0.025321
O53	O	-1.108678	-0.562821	-0.005191
C54	C	-1.092145	-0.529930	-0.084936
H55	H	-1.052068	-0.464514	-0.076558
H56	H	-1.056922	-0.585335	-0.117926
C57	C	-1.225023	-0.587872	-0.149088
C58	C	-1.175807	-0.507522	-0.138798
H59	H	-1.276629	-0.574053	-0.182315
H60	H	-1.236162	-0.610034	-0.095363
H61	H	-1.195662	-0.634035	-0.176576
H62	H	-1.205164	-0.461365	-0.111300
H63	H	-1.164675	-0.485351	-0.192519
O64	O	-0.837093	-0.563187	0.082159
C65	C	-0.774585	-0.531758	0.145213
H66	H	-0.797702	-0.466672	0.175982
H67	H	-0.760770	-0.588080	0.195038
C68	C	-0.665345	-0.589205	0.067430
C69	C	-0.693735	-0.509261	0.105217
H70	H	-0.615472	-0.575332	0.042761
H71	H	-0.707458	-0.610383	0.024950
H72	H	-0.653839	-0.636132	0.108957
H73	H	-0.705250	-0.462340	0.063688
H74	H	-0.651622	-0.488075	0.147689
H75	H	-0.842997	-0.000031	-0.313593
H76	H	-0.914646	-0.140281	-0.428029
H77	H	-1.135342	-0.000037	-0.456777
H78	H	-0.543928	-0.062972	0.244994
O79	O	-1.070130	-0.152867	-0.338911
C80	C	-1.097029	-0.206595	-0.410809
H81	H	-1.102553	-0.160562	-0.469302
H82	H	-1.049352	-0.264044	-0.417832
C83	C	-1.176572	-0.306405	-0.329003
C84	C	-1.183363	-0.249864	-0.400844
H85	H	-1.229824	-0.333100	-0.322855
H86	H	-1.158447	-0.270211	-0.280563
H87	H	-1.136837	-0.354271	-0.334864
H88	H	-1.223089	-0.201993	-0.394977
H89	H	-1.201497	-0.286052	-0.449283
O90	O	-0.869730	-0.436584	0.234520
C91	C	-0.870047	-0.338828	0.233232
H92	H	-0.898680	-0.313545	0.168532
H93	H	-0.908955	-0.311757	0.283658
C94	C	-0.743992	-0.333819	0.330572
C95	C	-0.779153	-0.302766	0.251104
H96	H	-0.687925	-0.311573	0.341600
H97	H	-0.743779	-0.399679	0.331443
H98	H	-0.776423	-0.311257	0.372584
H99	H	-0.746728	-0.325337	0.209092
H100	H	-0.779358	-0.236909	0.250226
H101	H	-1.063546	0.140353	-0.342485
H102	H	-0.432386	0.090955	-0.000753
O103	O	-0.908121	0.152821	-0.431763
C104	C	-0.880439	0.206186	-0.359853
H105	H	-0.920431	0.189312	-0.307049
H106	H	-0.811728	0.189383	-0.338188
C107	C	-0.839879	0.330694	-0.446756
C108	C	-0.889003	0.309975	-0.381902
H109	H	-0.845157	0.394716	-0.460356
H110	H	-0.858526	0.294740	-0.495203
H111	H	-0.782624	0.316685	-0.428693
H112	H	-0.946257	0.323973	-0.399970
H113	H	-0.870366	0.345934	-0.333458
O114	O	-0.548904	0.075200	0.251315
C115	C	-0.608072	0.127760	0.198938
H116	H	-0.600877	0.112522	0.129969
H117	H	-0.674365	0.108534	0.212455
C118	C	-0.601707	0.250442	0.301339
C119	C	-0.592866	0.231733	0.216631
H120	H	-0.592331	0.314578	0.312255
H121	H	-0.561847	0.215031	0.336629
H122	H	-0.656952	0.234414	0.312593
H123	H	-0.537619	0.247750	0.205381
H124	H	-0.632716	0.267149	0.181340
O125	O	-0.395626	0.075975	0.249037
C126	C	-0.414316	0.072308	0.333288
H127	H	-0.472051	0.026838	0.337120
H128	H	-0.358429	0.041834	0.375013
C129	C	-0.361326	0.226739	0.359073
C130	C	-0.432241	0.170898	0.363778
H131	H	-0.372380	0.287554	0.377884
H132	H	-0.348731	0.229209	0.302313
H133	H	-0.314760	0.201333	0.393844
H134	H	-0.478803	0.196298	0.329000
H135	H	-0.444845	0.168435	0.420534
H136	H	-0.575393	0.091763	0.002567
O137	O	-0.412755	0.166248	0.105091
C138	C	-0.427588	0.167576	0.190577
H139	H	-0.484167	0.121982	0.199312
H140	H	-0.369784	0.140107	0.231456
C141	C	-0.375957	0.323725	0.206207
C142	C	-0.445452	0.267731	0.216934
H143	H	-0.386973	0.385505	0.222468
H144	H	-0.365961	0.322829	0.148615
H145	H	-0.327794	0.300823	0.240274
H146	H	-0.493612	0.290627	0.182860
H147	H	-0.455458	0.268633	0.274522
H148	H	-0.561453	0.153966	0.102837
H149	H	-1.128813	-0.441971	0.144888
O150	O	-0.567959	-0.166815	0.104751
C151	C	-0.656430	-0.168379	0.101143
H152	H	-0.681729	-0.094491	0.095054
H153	H	-0.683754	-0.210782	0.044188
C154	C	-0.650915	-0.303371	0.189841
C155	C	-0.681987	-0.212619	0.182370
H156	H	-0.666680	-0.330664	0.239943
H157	H	-0.591310	-0.302320	0.192270
H158	H	-0.673687	-0.338695	0.142374
H159	H	-0.659206	-0.177294	0.229831
H160	H	-0.741588	-0.213666	0.179951
O161	O	-0.413674	-0.166082	0.108320
C162	C	-0.326000	-0.168333	0.104910
H163	H	-0.309676	-0.124402	0.049600
H164	H	-0.292348	-0.139482	0.166238
C165	C	-0.317791	-0.323065	0.160988
C166	C	-0.297742	-0.269114	0.093051
H167	H	-0.300358	-0.385231	0.153677
H168	H	-0.376857	-0.321548	0.163289
H169	H	-0.289745	-0.299011	0.212088
H170	H	-0.325795	-0.293161	0.041954
H171	H	-0.238679	-0.270638	0.090741
O172	O	-0.428217	-0.095057	-0.012369
C173	C	-0.459194	-0.016114	-0.057956
H174	H	-0.512347	0.016069	-0.025820
H175	H	-0.406326	0.036597	-0.059798
C176	C	-0.427366	-0.084088	-0.188147
C177	C	-0.492654	-0.044564	-0.148680
H178	H	-0.448002	-0.101635	-0.244111
H179	H	-0.406493	-0.137272	-0.157434
H180	H	-0.383315	-0.040155	-0.189673
H181	H	-0.536699	-0.088501	-0.147145
H182	H	-0.513535	0.008612	-0.179395
O183	O	-0.581387	-0.088278	-0.012074
C184	C	-0.634380	-0.010295	-0.025583
H185	H	-0.652626	0.015315	0.037489
H186	H	-0.599838	0.047155	-0.056672
C187	C	-0.691874	-0.068763	-0.161012
C188	C	-0.714289	-0.037314	-0.083545
H189	H	-0.741164	-0.085428	-0.196768
H190	H	-0.656169	-0.121301	-0.151912
H191	H	-0.663088	-0.020883	-0.186908
H192	H	-0.743065	-0.085197	-0.057645
H193	H	-0.750001	0.015215	-0.092642
O194	O	-1.021517	-0.563255	0.267281
C195	C	-0.958677	-0.531797	0.329990
H196	H	-0.899267	-0.514460	0.299884
H197	H	-0.981851	-0.467121	0.361366
C198	C	-1.011950	-0.629516	0.433747
C199	C	-0.938979	-0.608229	0.396773
H200	H	-0.999801	-0.676660	0.474945
H201	H	-1.054289	-0.650707	0.391501
H202	H	-1.031254	-0.575612	0.459888
H203	H	-0.919682	-0.662129	0.370624
H204	H	-0.896636	-0.587049	0.439017
