data_functionalizedCrystal
_audit_creation_method	'MofGen! by Chris Wilmer'
_symmetry_space_group_name_H-M	'P1'
_symmetry_Int_Tables_number	1
_symmetry_cell_setting	triclinic
loop_
_symmetry_equiv_pos_as_xyz
  x,y,z
_cell_length_a	19.805407
_cell_length_b	12.759394
_cell_length_c	19.805399
_cell_angle_alpha	90.023967
_cell_angle_beta	90.019573
_cell_angle_gamma	90.014837
loop_
_atom_site_label
_atom_site_type_symbol
_atom_site_fract_x
_atom_site_fract_y
_atom_site_fract_z
Zn1	Zn	1.034790	-0.418291	0.382737
Zn2	Zn	1.034728	-0.593984	0.269556
Zn3	Zn	0.921605	-0.418320	0.269561
Zn4	Zn	0.921591	-0.593928	0.382702
O5	O	0.978178	-0.506131	0.326139
O6	O	1.129498	-0.441608	0.367735
O7	O	1.019701	-0.570717	0.174840
O8	O	0.936651	-0.271295	0.284591
O9	O	1.129453	-0.570689	0.284581
O10	O	1.019808	-0.271274	0.367740
O11	O	0.936590	-0.441658	0.174844
O12	O	0.826886	-0.441603	0.284558
O13	O	0.936628	-0.570594	0.477423
O14	O	0.826876	-0.570622	0.367682
O15	O	1.019794	-0.441554	0.477449
O16	O	1.019688	-0.740998	0.284548
O17	O	0.936567	-0.740957	0.367676
C18	C	0.802322	-0.506111	0.326117
C19	C	0.727090	-0.506127	0.326124
C20	C	0.978138	-0.779098	0.326123
C21	C	0.978182	-0.895875	0.326138
C22	C	0.691759	-0.573409	0.369336
C23	C	0.621070	-0.573411	0.369346
C24	C	0.585715	-0.506136	0.326139
C25	C	0.621051	-0.438847	0.282924
C26	C	0.691739	-0.438841	0.282919
C27	C	0.335978	-0.438870	0.282947
C28	C	0.265286	-0.438884	0.282954
C29	C	0.265310	-0.573440	0.369374
C30	C	0.335997	-0.573434	0.369368
C31	C	0.371327	-0.506142	0.326157
C32	C	0.447976	-0.506139	0.326148
C33	C	0.509068	-0.506143	0.326144
C34	C	1.064801	-0.895864	0.239641
C35	C	1.108128	-0.950720	0.196401
C36	C	1.108168	-1.060441	0.196419
C37	C	1.064877	-1.115310	0.239684
C38	C	1.021550	-1.060455	0.282925
C39	C	1.021514	-0.950730	0.282900
C40	C	0.934936	-1.060465	0.369424
C41	C	0.934892	-0.950744	0.369403
C42	C	0.891645	-1.115334	0.412689
C43	C	0.848314	-1.060478	0.455927
C44	C	0.848275	-0.950750	0.455906
C45	C	0.891565	-0.895888	0.412644
C46	C	1.154721	-0.506152	0.326161
C47	C	1.229953	-0.506161	0.326171
C48	C	0.978216	-0.506065	0.502682
C49	C	0.978233	-0.506036	0.577914
C50	C	0.978238	-0.232097	0.326170
C51	C	0.978263	-0.115321	0.326183
C52	C	0.978180	-0.506121	0.150283
C53	C	0.978295	-0.505853	0.075051
C54	C	1.021539	-0.438842	0.613272
C55	C	1.021545	-0.438811	0.683961
C56	C	0.978249	-0.505982	0.719289
C57	C	0.934939	-0.573179	0.683926
C58	C	0.934929	-0.573203	0.613239
C59	C	0.934977	-0.573081	0.969000
C60	C	0.934992	-0.573054	1.039692
C61	C	1.021594	-0.438689	1.039721
C62	C	1.021584	-0.438713	0.969034
C63	C	0.978271	-0.505907	0.933677
C64	C	0.978263	-0.505937	0.857028
C65	C	0.978260	-0.505957	0.795937
H66	H	0.592306	-0.628199	0.404534
C67	C	0.374292	-0.365942	0.235916
C68	C	0.357077	-0.388701	0.168923
C69	C	0.392366	-0.321545	0.125578
H70	H	0.362742	-0.295339	0.245815
H71	H	0.421461	-0.375569	0.242052
H72	H	0.309918	-0.379066	0.162791
H73	H	0.368628	-0.459292	0.159003
H74	H	0.439536	-0.331172	0.131713
H75	H	0.380814	-0.250946	0.135483
H76	H	0.380696	-0.336984	0.080118
H77	H	1.056842	-0.384020	0.940273
C78	C	1.068596	-0.366022	0.722442
C79	C	1.111956	-0.425491	0.763046
C80	C	1.155299	-0.358466	0.798514
H81	H	1.094448	-0.325994	0.691360
H82	H	1.042728	-0.320252	0.750052
H83	H	1.137821	-0.471243	0.735439
H84	H	1.086123	-0.465517	0.794141
H85	H	1.129432	-0.312696	0.826123
H86	H	1.181146	-0.318442	0.767427
H87	H	1.184720	-0.398806	0.826073
C88	C	1.155198	-0.891337	0.149399
C89	C	1.193160	-0.962863	0.111547
C90	C	1.236533	-0.908203	0.068249
H91	H	1.129378	-0.848599	0.119820
H92	H	1.184699	-0.848489	0.175289
H93	H	1.163662	-1.005693	0.085660
H94	H	1.218994	-1.005604	0.141109
H95	H	1.266034	-0.865355	0.094139
H96	H	1.210707	-0.865466	0.038674
H97	H	1.262300	-0.956724	0.042566
H98	H	1.064765	-0.806523	0.239613
H99	H	0.720540	-0.628195	0.404519
H100	H	0.891533	-0.806547	0.412618
C101	C	1.155296	-1.120057	0.149589
C102	C	1.198690	-1.182930	0.187967
C103	C	1.242120	-1.237849	0.144852
H104	H	1.129515	-1.163011	0.120069
H105	H	1.181113	-1.071699	0.123834
H106	H	1.172875	-1.231281	0.213710
H107	H	1.224485	-1.140001	0.217485
H108	H	1.267938	-1.189492	0.119098
H109	H	1.216334	-1.280798	0.115335
H110	H	1.271572	-1.280508	0.170886
C111	C	1.068540	-0.365763	1.078232
C112	C	1.059271	-0.380088	1.147699
C113	C	1.102500	-0.312921	1.183194
H114	H	1.114040	-0.381083	1.066738
H115	H	1.058642	-0.295153	1.066690
H116	H	1.069174	-0.450682	1.159237
H117	H	1.013780	-0.364760	1.159214
H118	H	1.092601	-0.242312	1.171652
H119	H	1.147996	-0.328248	1.171694
H120	H	1.096212	-0.322625	1.230331
C121	C	0.887904	-0.646020	1.077928
C122	C	0.849955	-0.704850	1.031836
C123	C	0.806568	-0.772063	1.067034
H124	H	0.913713	-0.691886	1.105504
H125	H	0.858394	-0.605833	1.105489
H126	H	0.879462	-0.745033	1.004286
H127	H	0.824133	-0.659011	1.004258
H128	H	0.777058	-0.731876	1.094595
H129	H	0.832383	-0.817922	1.094609
H130	H	0.780811	-0.811980	1.035766
H131	H	0.899719	-0.627809	0.940220
H132	H	0.364780	-0.628219	0.404550
C133	C	0.887817	-0.645979	0.722244
C134	C	0.820850	-0.623081	0.705054
C135	C	0.777424	-0.690118	0.740343
H136	H	0.897616	-0.716612	0.710680
H137	H	0.893980	-0.636337	0.769414
H138	H	0.814691	-0.632732	0.657894
H139	H	0.811030	-0.552460	0.716620
H140	H	0.783586	-0.680476	0.787513
H141	H	0.787229	-0.760747	0.728776
H142	H	0.731982	-0.674584	0.728689
H143	H	0.720505	-0.384048	0.247734
H144	H	0.236535	-0.628229	0.404562
C145	C	0.888025	-0.646222	0.574756
C146	C	0.926333	-0.713556	0.534160
C147	C	0.883146	-0.780823	0.498692
H148	H	0.862224	-0.686329	0.605837
H149	H	0.858551	-0.606064	0.547140
H150	H	0.955795	-0.753710	0.561773
H151	H	0.952132	-0.673477	0.503066
H152	H	0.853672	-0.740665	0.471077
H153	H	0.857347	-0.820923	0.529778
H154	H	0.909131	-0.826511	0.471139
C155	C	0.801293	-1.119859	0.502971
C156	C	0.763348	-1.048340	0.540845
C157	C	0.720031	-1.103007	0.584196
H158	H	0.771773	-1.162739	0.477139
H159	H	0.827174	-1.162567	0.532530
H160	H	0.737469	-1.005650	0.511290
H161	H	0.792850	-1.005458	0.566690
H162	H	0.745912	-1.145715	0.613754
H163	H	0.690516	-1.145884	0.558358
H164	H	0.694285	-1.054489	0.609902
C165	C	1.068573	-0.365797	0.575040
C166	C	1.106486	-0.306924	0.621139
C167	C	1.149814	-0.239610	0.585948
H168	H	1.098113	-0.405880	0.547464
H169	H	1.042702	-0.319970	0.547481
H170	H	1.132355	-0.352745	0.648688
H171	H	1.076964	-0.266819	0.648718
H172	H	1.123942	-0.193783	0.558388
H173	H	1.179349	-0.279702	0.558372
H174	H	1.175538	-0.199650	0.617220
C175	C	0.582630	-0.365976	0.235932
C176	C	0.542035	-0.425377	0.192474
C177	C	0.506640	-0.358284	0.149169
H178	H	0.555016	-0.320237	0.261801
H179	H	0.613775	-0.325918	0.210156
H180	H	0.510894	-0.465416	0.218247
H181	H	0.569632	-0.471113	0.166590
H182	H	0.537785	-0.318227	0.123393
H183	H	0.479030	-0.312549	0.175043
H184	H	0.479097	-0.398578	0.119673
C185	C	0.891760	-1.234460	0.412839
C186	C	0.909027	-1.270669	0.477296
C187	C	0.909147	-1.380402	0.477458
H188	H	0.848119	-1.259483	0.401147
H189	H	0.923783	-1.259314	0.380922
H190	H	0.877005	-1.245826	0.509203
H191	H	0.952669	-1.245675	0.489000
H192	H	0.941170	-1.405256	0.445541
H193	H	0.865504	-1.405415	0.465764
H194	H	0.920868	-1.404984	0.521189
H195	H	1.064919	-1.204651	0.239701
H196	H	0.812996	-0.906092	0.491120
H197	H	0.236502	-0.384094	0.247770
