data_functionalizedCrystal
_audit_creation_method	'MofGen! by Chris Wilmer'
_symmetry_space_group_name_H-M	'P1'
_symmetry_Int_Tables_number	1
_symmetry_cell_setting	triclinic
loop_
_symmetry_equiv_pos_as_xyz
  x,y,z
_cell_length_a	13.635800
_cell_length_b	10.992421
_cell_length_c	19.551833
_cell_angle_alpha	85.521057
_cell_angle_beta	101.663477
_cell_angle_gamma	71.235237
loop_
_atom_site_label
_atom_site_type_symbol
_atom_site_fract_x
_atom_site_fract_y
_atom_site_fract_z
V1	V	2.016744	-0.179108	0.217848
O2	O	1.996575	0.007221	0.213711
O3	O	2.005811	-0.353807	0.216349
O4	O	1.987928	-0.176961	0.312864
O5	O	2.014582	-0.170850	0.116528
V6	V	2.257437	-0.156749	0.205731
O7	O	2.149717	-0.228154	0.244429
O8	O	2.349562	-0.107703	0.179150
O9	O	2.156766	0.017951	0.207230
O10	O	2.336305	-0.343077	0.209868
O11	O	2.318298	-0.165006	0.307051
O12	O	2.174650	-0.158896	0.110715
V13	V	2.516744	-0.179108	0.217848
O14	O	2.496575	0.007221	0.213711
O15	O	2.505811	-0.353807	0.216349
O16	O	2.487928	-0.176961	0.312864
O17	O	2.514582	-0.170850	0.116528
V18	V	2.757437	-0.156749	0.205731
O19	O	2.649717	-0.228154	0.244429
O20	O	2.849562	-0.107703	0.179150
O21	O	2.656766	0.017951	0.207230
O22	O	2.836305	-0.343077	0.209868
O23	O	2.818298	-0.165006	0.307051
O24	O	2.674650	-0.158896	0.110715
C25	C	1.931689	-0.396376	0.212909
C26	C	1.963363	-0.539199	0.212317
C27	C	1.898080	-0.734457	0.207539
C28	C	1.864976	-0.585815	0.207878
C29	C	2.010745	-0.577432	0.147156
C30	C	2.042991	-0.725971	0.146466
C31	C	2.083984	-0.765378	0.280042
C32	C	2.049195	-0.616874	0.281455
C33	C	1.908876	-0.170789	0.336023
C34	C	1.926046	-0.170190	0.413699
C35	C	2.062561	0.060513	0.210667
C36	C	2.020506	0.203335	0.211265
C37	C	2.085373	-0.165071	0.087552
C38	C	2.057822	-0.165664	0.009876
C39	C	2.431689	-0.396376	0.212909
C40	C	2.463363	-0.539199	0.212317
C41	C	2.408876	-0.170789	0.336023
C42	C	2.426046	-0.170190	0.413699
C43	C	2.025488	-0.176357	0.453746
C44	C	2.041621	-0.175794	0.526730
C45	C	1.958312	-0.169090	0.559667
C46	C	1.858853	-0.162914	0.519610
C47	C	1.842720	-0.163464	0.446626
C48	C	1.932216	-0.238948	0.678975
C49	C	1.948354	-0.238406	0.751959
C50	C	2.008066	-0.167387	0.784774
C51	C	2.051658	-0.096927	0.744599
C52	C	2.035525	-0.097478	0.671614
C53	C	1.975795	-0.168492	0.638806
C54	C	2.125007	-0.172942	0.903959
C55	C	2.141135	-0.172371	0.976944
C56	C	1.958367	-0.159503	0.969824
C57	C	1.942239	-0.160062	0.896839
C58	C	2.025565	-0.166788	0.863912
C59	C	2.562561	0.060513	0.210667
C60	C	2.520506	0.203335	0.211265
C61	C	2.585373	-0.165071	0.087552
C62	C	2.557822	-0.165664	0.009876
C63	C	2.525493	-0.176336	0.453737
C64	C	2.541635	-0.175756	0.526721
C65	C	2.458331	-0.169039	0.559665
C66	C	2.358875	-0.162888	0.519621
C67	C	2.342732	-0.163459	0.446638
C68	C	2.458894	-0.172367	-0.023051
C69	C	2.432988	-0.172908	-0.096037
C70	C	2.506016	-0.166757	-0.136094
C71	C	2.604952	-0.160050	-0.103163
C72	C	2.630853	-0.159499	-0.030179
C73	C	2.398080	-0.734457	0.207539
C74	C	2.364976	-0.585815	0.207878
C75	C	2.510745	-0.577432	0.147156
C76	C	2.542991	-0.725971	0.146466
C77	C	2.583984	-0.765378	0.280042
C78	C	2.549195	-0.616874	0.281455
H79	H	1.876592	-0.781163	0.253809
N80	N	1.815709	-0.552066	0.269550
H81	H	1.869362	-0.599546	0.315137
H82	H	1.750693	-0.578821	0.264877
H83	H	2.622737	-0.586711	0.288733
N84	N	2.648915	-0.182416	0.569902
H85	H	2.646511	-0.181031	0.621136
H86	H	2.666587	-0.105277	0.551907
H87	H	2.071018	-0.040105	0.638906
N88	N	2.659719	-0.780138	0.146331
H89	H	2.690018	-0.707506	0.146716
H90	H	2.667657	-0.821573	0.102508
H91	H	2.173276	-0.806516	0.283457
H92	H	2.484917	-0.167222	-0.195520
N93	N	2.235474	-0.156855	0.403456
H94	H	2.205271	-0.076751	0.366230
H95	H	2.185237	-0.152571	0.435454
N96	N	2.683723	-0.153434	-0.146366
H97	H	2.699798	-0.070475	-0.142008
H98	H	2.652243	-0.154863	-0.197576
H99	H	1.997180	-0.743165	0.094730
N100	N	2.430210	-0.505173	0.079352
H101	H	2.363003	-0.447642	0.090691
H102	H	2.412878	-0.569703	0.049345
H103	H	1.791022	-0.157451	0.546431
N104	N	2.315709	-0.552066	0.269550
H105	H	2.369362	-0.599546	0.315137
H106	H	2.250693	-0.578821	0.264877
H107	H	2.352426	-0.178369	-0.122838
N108	N	2.737557	-0.152267	0.005330
H109	H	2.779881	-0.148455	-0.031125
H110	H	2.778086	-0.231817	0.042234
N111	N	2.475741	-0.168382	0.638379
H112	H	2.551382	-0.173285	0.658739
H113	H	2.463120	-0.245765	0.661312
N114	N	2.159719	-0.780138	0.146331
H115	H	2.190018	-0.707506	0.146716
H116	H	2.167657	-0.821573	0.102508
H117	H	2.515759	-0.593275	0.329664
H118	H	2.399418	-0.177375	0.009555
H119	H	2.673276	-0.806516	0.283457
N120	N	2.607014	-0.537394	0.148144
H121	H	2.620871	-0.493982	0.190943
H122	H	2.593254	-0.474606	0.103823
N123	N	2.269032	-0.155645	0.555158
H124	H	2.294362	-0.156223	0.607468
H125	H	2.245733	-0.232999	0.547639
H126	H	2.376592	-0.781163	0.253809
H127	H	2.349378	-0.754710	0.157939
H128	H	1.849378	-0.754710	0.157939
N129	N	1.778674	-0.515955	0.142129
H130	H	1.806571	-0.538095	0.098922
H131	H	1.756799	-0.419015	0.142135
H132	H	2.299837	-0.533066	0.158237
N133	N	2.567694	-0.831376	0.345355
H134	H	2.518996	-0.882232	0.331019
H135	H	2.534396	-0.763550	0.373786
H136	H	2.497180	-0.743165	0.094730
H137	H	2.093339	-0.181829	0.426941
N138	N	2.107014	-0.537394	0.148144
H139	H	2.120871	-0.493982	0.190943
H140	H	2.093254	-0.474606	0.103823
N141	N	1.735458	-0.156807	0.403427
H142	H	1.685124	-0.152468	0.435363
H143	H	1.744200	-0.236815	0.379770
N144	N	1.834981	-0.153430	0.853649
H145	H	1.843632	-0.233428	0.829988
H146	H	1.804847	-0.073266	0.816468
N147	N	1.930205	-0.505170	0.079354
H148	H	1.863567	-0.528225	0.075798
H149	H	1.961525	-0.530457	0.037770
N150	N	2.067694	-0.831376	0.345355
H151	H	2.018996	-0.882232	0.331019
H152	H	2.034396	-0.763550	0.373786
H153	H	2.015759	-0.593275	0.329664
H154	H	2.122737	-0.586711	0.288733
H155	H	2.100283	-0.039101	0.771315
N156	N	2.148889	-0.182458	0.569931
H157	H	2.179063	-0.262574	0.607148
H158	H	2.140166	-0.102406	0.593548
H159	H	2.192855	-0.178414	0.877148
N160	N	2.248390	-0.178998	1.020140
H161	H	2.298723	-0.183339	0.988203
H162	H	2.278484	-0.259101	1.057361
N163	N	1.868502	-0.152257	1.005336
H164	H	1.893809	-0.152840	1.057648
H165	H	1.845194	-0.229601	0.997805
H166	H	1.883580	-0.296772	0.652262
N167	N	1.901343	-0.314397	0.795290
H168	H	1.930763	-0.409559	0.790943
H169	H	1.821142	-0.281162	0.777427
N170	N	2.615355	-0.183564	0.418220
H171	H	2.593308	-0.104027	0.381316
H172	H	2.632134	-0.264190	0.394924
