data_functionalizedCrystal
_audit_creation_method	'MofGen! by Chris Wilmer'
_symmetry_space_group_name_H-M	'P1'
_symmetry_Int_Tables_number	1
_symmetry_cell_setting	triclinic
loop_
_symmetry_equiv_pos_as_xyz
  x,y,z
_cell_length_a	19.805407
_cell_length_b	21.295417
_cell_length_c	19.805399
_cell_angle_alpha	89.969157
_cell_angle_beta	89.982197
_cell_angle_gamma	90.027823
loop_
_atom_site_label
_atom_site_type_symbol
_atom_site_fract_x
_atom_site_fract_y
_atom_site_fract_z
Zn1	Zn	1.034716	-0.250669	-0.382672
Zn2	Zn	1.034623	-0.355938	-0.269478
Zn3	Zn	0.921531	-0.250681	-0.269500
Zn4	Zn	0.921486	-0.355899	-0.382628
O5	O	0.978089	-0.303297	-0.326070
O6	O	1.129421	-0.264644	-0.367666
O7	O	1.019601	-0.341996	-0.174764
O8	O	0.936603	-0.162590	-0.284541
O9	O	1.129352	-0.341984	-0.284502
O10	O	1.019760	-0.162581	-0.367688
O11	O	0.936513	-0.264665	-0.174781
O12	O	0.826809	-0.264628	-0.284498
O13	O	0.936527	-0.341919	-0.477350
O14	O	0.826776	-0.341931	-0.367612
O15	O	1.019717	-0.264607	-0.477383
O16	O	1.019558	-0.444022	-0.284459
O17	O	0.936437	-0.443994	-0.367590
C18	C	0.802233	-0.303277	-0.326053
C19	C	0.727001	-0.303284	-0.326062
C20	C	0.691693	-0.263084	-0.369431
C21	C	0.621005	-0.263087	-0.369434
C22	C	0.585626	-0.303294	-0.326070
C23	C	0.620938	-0.343496	-0.282696
C24	C	0.691626	-0.343489	-0.282691
C25	C	0.335865	-0.343524	-0.282717
C26	C	0.265173	-0.343529	-0.282727
C27	C	0.265244	-0.263122	-0.369460
C28	C	0.335932	-0.263115	-0.369455
C29	C	0.371238	-0.303315	-0.326079
C30	C	0.447887	-0.303310	-0.326075
C31	C	0.508979	-0.303303	-0.326076
C32	C	0.978001	-0.466848	-0.326032
C33	C	0.978024	-0.536816	-0.326039
C34	C	1.021344	-0.569677	-0.282797
C35	C	1.021376	-0.635419	-0.282812
C36	C	0.978076	-0.668299	-0.326062
C37	C	0.934753	-0.635431	-0.369312
C38	C	0.934728	-0.569689	-0.369301
N39	N	0.918865	-0.771562	-0.331216
N40	N	0.918892	-0.834014	-0.331224
C41	C	0.978152	-0.866374	-0.326101
N42	N	1.037386	-0.833923	-0.320957
N43	N	1.037358	-0.771466	-0.320947
C44	C	0.978099	-0.739584	-0.326080
C45	C	1.021509	-0.970520	-0.282873
C46	C	1.021542	-1.036263	-0.282893
C47	C	0.934914	-1.036273	-0.369390
C48	C	0.934887	-0.970531	-0.369373
C49	C	0.978184	-0.937658	-0.326111
C50	C	1.154632	-0.303317	-0.326086
C51	C	1.229864	-0.303326	-0.326094
C52	C	0.978127	-0.303257	-0.502612
C53	C	0.978143	-0.303240	-0.577844
C54	C	0.978197	-0.139106	-0.326122
C55	C	0.978243	-0.069138	-0.326144
C56	C	1.021461	-0.262982	-0.613207
C57	C	1.021468	-0.262963	-0.683895
C58	C	0.978160	-0.303207	-0.719220
C59	C	0.934838	-0.343468	-0.683853
C60	C	0.934828	-0.343482	-0.613166
C61	C	0.934876	-0.343409	-0.968926
C62	C	0.934891	-0.343393	-1.039618
C63	C	1.021516	-0.262890	-1.039656
C64	C	1.021506	-0.262905	-0.968969
C65	C	0.978182	-0.303162	-0.933608
C66	C	0.978174	-0.303181	-0.856959
C67	C	0.978171	-0.303193	-0.795867
C68	C	0.978090	-0.303291	-0.150214
C69	C	0.978205	-0.303130	-0.074982
H70	H	0.236489	-0.230388	-0.404777
H71	H	1.056654	-0.662180	-0.247599
H72	H	1.056743	-0.230182	-0.712684
H73	H	1.056774	-0.230136	-0.940210
C74	C	0.582166	-0.218881	-0.417157
C75	C	0.504413	-0.218891	-0.417173
C76	C	0.465575	-0.174688	-0.464904
C77	C	0.504489	-0.130475	-0.512618
C78	C	0.582247	-0.130464	-0.512603
C79	C	0.621085	-0.174666	-0.464872
H80	H	0.475602	-0.251622	-0.381851
H81	H	0.408013	-0.174697	-0.464915
H82	H	0.475739	-0.097754	-0.547951
H83	H	0.611058	-0.097733	-0.547925
H84	H	0.678647	-0.174657	-0.464861
H85	H	0.236369	-0.376272	-0.247413
H86	H	0.899661	-1.063043	-0.404608
C87	C	0.887181	-0.387769	-0.574262
C88	C	0.810240	-0.382622	-0.583968
C89	C	0.762591	-0.426908	-0.545063
C90	C	0.791882	-0.476339	-0.496453
C91	C	0.868827	-0.481488	-0.486744
C92	C	0.916476	-0.437202	-0.525649
H93	H	0.788554	-0.346028	-0.619954
H94	H	0.705631	-0.423097	-0.552250
H95	H	0.756609	-0.509122	-0.467653
H96	H	0.890514	-0.518082	-0.450758
H97	H	0.973436	-0.441014	-0.518462
H98	H	0.899499	-0.662205	-0.404528
H99	H	0.364734	-0.230377	-0.404768
C100	C	0.730606	-0.218853	-0.417132
C101	C	0.779211	-0.169392	-0.387896
C102	C	0.818121	-0.125157	-0.435596
C103	C	0.808427	-0.130384	-0.512532
C104	C	0.759821	-0.179848	-0.541772
C105	C	0.720911	-0.224082	-0.494072
H106	H	0.786389	-0.165520	-0.330940
H107	H	0.854103	-0.088541	-0.413951
H108	H	0.837231	-0.097639	-0.547842
H109	H	0.752643	-0.183719	-0.598728
H110	H	0.684929	-0.260699	-0.515717
C111	C	0.374697	-0.387751	-0.235014
C112	C	0.335778	-0.431983	-0.187324
C113	C	0.374613	-0.476214	-0.139621
C114	C	0.452366	-0.476214	-0.139608
C115	C	0.491289	-0.431980	-0.187300
C116	C	0.452454	-0.387748	-0.235003
H117	H	0.278217	-0.431985	-0.187331
H118	H	0.345799	-0.508959	-0.104316
H119	H	0.481114	-0.508957	-0.104296
H120	H	0.548850	-0.431978	-0.187293
H121	H	0.481268	-0.355004	-0.270308
H122	H	1.056601	-0.542914	-0.247572
H123	H	1.056822	-1.063017	-0.247682
H124	H	1.056791	-0.230108	-1.068455
C125	C	1.069140	-0.934354	-0.235293
C126	C	1.116800	-0.970504	-0.187733
C127	C	1.164431	-0.934340	-0.140153
C128	C	1.164401	-0.862028	-0.140133
C129	C	1.116738	-0.825874	-0.187695
C130	C	1.069107	-0.862037	-0.235275
H131	H	1.116825	-1.024038	-0.187746
H132	H	1.199714	-0.961104	-0.104945
H133	H	1.199659	-0.835257	-0.104912
H134	H	1.116714	-0.772340	-0.187682
H135	H	1.033824	-0.835274	-0.270483
H136	H	0.899609	-0.943774	-0.404582
H137	H	0.592127	-0.376230	-0.247386
H138	H	0.720372	-0.376223	-0.247375
H139	H	1.056730	-0.230212	-0.584450
C140	C	0.887243	-0.387659	-1.078478
C141	C	0.839584	-0.431938	-1.039584
C142	C	0.791940	-0.476201	-1.078444
C143	C	0.791955	-0.476185	-1.156197
C144	C	0.839616	-0.431904	-1.195095
C145	C	0.887260	-0.387641	-1.156235
H146	H	0.839571	-0.431952	-0.982023
H147	H	0.756658	-0.508981	-1.049649
H148	H	0.756686	-0.508951	-1.184963
H149	H	0.839629	-0.431890	-1.252656
H150	H	0.922542	-0.354861	-1.185030
H151	H	0.899451	-0.542934	-0.404514
C152	C	0.887213	-0.387696	-0.930050
C153	C	0.810277	-0.382539	-0.939785
C154	C	0.762606	-0.426829	-0.900912
C155	C	0.791872	-0.476276	-0.852304
C156	C	0.868812	-0.481434	-0.842566
C157	C	0.916483	-0.437144	-0.881439
H158	H	0.788609	-0.345934	-0.975770
H159	H	0.705650	-0.423010	-0.908121
H160	H	0.756583	-0.509062	-0.823528
H161	H	0.890480	-0.518039	-0.806582
H162	H	0.973439	-0.440964	-0.874231
H163	H	0.899573	-0.376233	-0.712620
