data_functionalizedCrystal
_audit_creation_method	'MofGen! by Chris Wilmer'
_symmetry_space_group_name_H-M	'P1'
_symmetry_Int_Tables_number	1
_symmetry_cell_setting	triclinic
loop_
_symmetry_equiv_pos_as_xyz
  x,y,z
_cell_length_a	10.489741
_cell_length_b	10.654550
_cell_length_c	9.130313
_cell_angle_alpha	90.000110
_cell_angle_beta	89.997564
_cell_angle_gamma	84.512038
loop_
_atom_site_label
_atom_site_type_symbol
_atom_site_fract_x
_atom_site_fract_y
_atom_site_fract_z
O1	O	-1.693961	-0.177187	-0.121705
O2	O	-1.322757	-0.193819	-0.121727
O3	O	-1.516894	-0.002767	-0.121710
O4	O	-1.499824	-0.368238	-0.121722
O5	O	-1.516891	-0.002773	0.121889
O6	O	-1.322755	-0.193824	0.121872
O7	O	-1.693958	-0.177192	0.121894
Cu8	Cu	-1.508356	-0.185508	0.144125
Cu9	Cu	-1.508359	-0.185502	-0.143958
O10	O	-1.499822	-0.368243	0.121877
C11	C	-1.275225	-0.192565	0.000069
C12	C	-1.133597	-0.188807	0.000061
N13	N	-1.508364	-0.185512	0.346748
C14	C	-1.741491	-0.178445	0.000094
C15	C	-1.883118	-0.182204	0.000093
C16	C	-1.065516	-0.067246	0.000079
C17	C	-0.973362	-0.124668	-0.120027
C18	C	-0.973394	-0.124702	0.120142
C19	C	-1.043309	-0.246278	-0.120144
C20	C	-1.043350	-0.246295	0.120133
C21	C	-0.951224	-0.303805	-0.000002
C22	C	-1.515639	0.044029	0.000088
C23	C	-1.511889	0.183474	0.000082
C24	C	-1.501076	-0.415039	0.000076
C25	C	-1.504826	-0.554484	0.000072
C26	C	-1.626194	0.262906	0.000094
C27	C	-1.622663	0.393928	0.000083
C28	C	-1.390513	0.366074	0.000056
C29	C	-1.394045	0.235054	0.000056
C30	C	-1.760224	0.278989	0.000115
C31	C	-1.756693	0.410011	0.000105
N32	N	-1.508362	-0.185489	-0.346581
C33	C	-1.594350	-0.100943	0.423408
C34	C	-1.594346	-0.100928	0.576744
C35	C	-1.422367	-0.270061	0.576749
C36	C	-1.422365	-0.270069	0.423415
C37	C	-1.693644	-0.003299	0.423406
C38	C	-1.693641	-0.003284	0.576743
H39	H	-1.115254	0.032684	-0.000068
Cl40	Cl	-0.874835	-0.458249	-0.000103
Cl41	Cl	-1.091250	-0.325646	0.276910
H42	H	-1.786257	-0.033931	0.375853
Cl43	Cl	-0.925520	-0.045258	-0.276799
H44	H	-1.797200	0.455637	-0.105072
H45	H	-1.300967	0.170383	0.000027
Cl46	Cl	-1.826095	0.223936	0.162518
Cl47	Cl	-1.242374	0.430927	0.000020
H48	H	-1.807193	0.451745	0.102052
H49	H	-1.074113	-0.297671	-0.221799
H50	H	-0.942440	-0.073247	0.221683
Cl51	Cl	-1.314249	-0.376369	0.327041
H52	H	-1.812649	0.249608	-0.101820
Cl53	Cl	-1.314260	-0.376356	0.673138
H54	H	-1.662650	0.087953	0.624291
H55	H	-1.791664	-0.024848	0.618365
H56	H	-1.671866	0.093243	0.381788
