data_functionalizedCrystal
_audit_creation_method	'MofGen! by Chris Wilmer'
_symmetry_space_group_name_H-M	'P1'
_symmetry_Int_Tables_number	1
_symmetry_cell_setting	triclinic
loop_
_symmetry_equiv_pos_as_xyz
  x,y,z
_cell_length_a	6.817900
_cell_length_b	17.078472
_cell_length_c	11.102291
_cell_angle_alpha	95.115048
_cell_angle_beta	108.605752
_cell_angle_gamma	99.306020
loop_
_atom_site_label
_atom_site_type_symbol
_atom_site_fract_x
_atom_site_fract_y
_atom_site_fract_z
V1	V	-4.064575	-0.109777	-0.396131
O2	O	-4.072824	0.005265	-0.388722
O3	O	-3.995198	-0.217660	-0.393296
O4	O	-4.042080	-0.108093	-0.568955
O5	O	-4.025617	-0.105060	-0.211846
V6	V	-4.547564	-0.096016	-0.374105
O7	O	-4.327004	-0.139963	-0.444449
O8	O	-4.735332	-0.065831	-0.325787
O9	O	-4.393734	0.011866	-0.376940
O10	O	-4.656712	-0.211059	-0.381514
O11	O	-4.703918	-0.100733	-0.558390
O12	O	-4.346852	-0.097700	-0.201280
C13	C	-3.834258	-0.243959	-0.387014
C14	C	-3.858994	-0.332155	-0.385848
C15	C	-4.052893	-0.377630	-0.391634
C16	C	-4.076127	-0.460500	-0.390546
C17	C	-3.905454	-0.497892	-0.383661
C18	C	-3.711541	-0.452410	-0.377878
C19	C	-3.688314	-0.369543	-0.378976
C20	C	-3.955378	-0.745295	-0.379708
C21	C	-3.978619	-0.828168	-0.378607
C22	C	-4.343205	-0.836252	-0.391276
C23	C	-4.319957	-0.753382	-0.392366
C24	C	-4.126050	-0.707909	-0.386589
N25	N	-3.929197	-0.582597	-0.382545
N26	N	-4.102315	-0.623206	-0.387715
C27	C	-3.894059	-0.104195	-0.611084
C28	C	-3.956812	-0.103532	-0.752368
C29	C	-4.168607	-0.107177	-0.825211
C30	C	-4.227551	-0.106538	-0.957958
C31	C	-3.862886	-0.098612	-0.945006
C32	C	-3.803942	-0.099245	-0.812260
C33	C	-4.321477	-0.111464	-0.765319
C34	C	-4.533287	-0.115110	-0.838163
C35	C	-4.592231	-0.114472	-0.970910
C36	C	-4.439366	-0.110186	-1.030812
C37	C	-4.218015	0.038162	-0.383218
C38	C	-4.172518	0.126356	-0.384393
C39	C	-4.158214	-0.101601	-0.159145
C40	C	-4.074700	-0.102260	-0.017860
H41	H	-3.839640	-0.858613	-0.373030
Br42	Br	-4.551567	-0.702636	-0.401650
Br43	Br	-3.516492	-0.094282	-0.713388
H44	H	-4.191872	-0.347191	-0.397228
H45	H	-4.273502	-0.111986	-0.657231
Br46	Br	-3.692218	-0.683591	-0.371860
H47	H	-4.501078	-0.873285	-0.395979
H48	H	-3.738436	-0.095124	-0.993790
H49	H	-4.657737	-0.118594	-0.789381
Br50	Br	-3.479916	-0.503156	-0.368548
H51	H	-3.530425	-0.332518	-0.374269
Br52	Br	-4.519359	-0.109300	-1.210966
Br53	Br	-4.339287	-0.522214	-0.398401
Br54	Br	-4.879677	-0.119411	-1.069766
