data_functionalizedCrystal
_audit_creation_method	'MofGen! by Chris Wilmer'
_symmetry_space_group_name_H-M	'P1'
_symmetry_Int_Tables_number	1
_symmetry_cell_setting	triclinic
loop_
_symmetry_equiv_pos_as_xyz
  x,y,z
_cell_length_a	10.654554
_cell_length_b	14.519709
_cell_length_c	9.730223
_cell_angle_alpha	89.997715
_cell_angle_beta	89.999646
_cell_angle_gamma	84.083444
loop_
_atom_site_label
_atom_site_type_symbol
_atom_site_fract_x
_atom_site_fract_y
_atom_site_fract_z
O1	O	1.666585	0.129548	-0.114298
O2	O	1.300989	0.141885	-0.114300
O3	O	1.493480	0.001528	-0.114287
O4	O	1.474094	0.269904	-0.114311
O5	O	1.493478	0.001532	0.114293
O6	O	1.300986	0.141888	0.114280
O7	O	1.666583	0.129551	0.114282
Zn8	Zn	1.483784	0.135720	0.150573
Zn9	Zn	1.483787	0.135716	-0.150591
O10	O	1.474091	0.269908	0.114268
C11	C	1.492575	-0.032834	0.000004
C12	C	1.489868	-0.135230	0.000004
C13	C	1.254198	0.140980	-0.000010
C14	C	1.114782	0.138267	-0.000011
C15	C	0.903503	0.218361	-0.000021
C16	C	1.034500	0.220910	-0.000021
C17	C	1.064061	0.053068	-0.000013
C18	C	0.933066	0.050520	-0.000023
C19	C	0.886437	0.315263	-0.000020
C20	C	1.017434	0.317813	-0.000020
C21	C	1.479901	-0.510177	-0.000031
C22	C	1.482669	-0.405855	-0.000021
C23	C	1.484884	-0.322707	-0.000012
C24	C	1.487653	-0.218378	-0.000004
C25	C	1.713373	0.130456	-0.000011
C26	C	1.852790	0.133169	-0.000020
C27	C	1.474996	0.304271	-0.000025
C28	C	1.477703	0.406666	-0.000035
N29	N	1.483791	0.135723	0.356109
N30	N	1.483790	0.135706	-0.356127
C31	C	1.569048	0.073594	0.428041
C32	C	1.569045	0.073583	0.571924
C33	C	1.398524	0.197837	0.571931
C34	C	1.398522	0.197843	0.428050
C35	C	1.667501	0.001860	0.428039
C36	C	1.667498	0.001849	0.571922
H37	H	0.891782	-0.018851	-0.000039
H38	H	1.329089	0.248425	0.369484
C39	C	0.824366	0.354837	0.133275
H40	H	0.735833	0.351725	0.128723
H41	H	0.840877	0.417504	0.143792
H42	H	0.858081	0.319683	0.209547
H43	H	1.646740	-0.069026	0.388991
C44	C	1.304743	0.266169	0.651070
H45	H	1.316957	0.257272	0.747063
H46	H	1.220912	0.255582	0.627488
H47	H	1.318523	0.327818	0.627494
H48	H	1.758469	0.024323	0.383411
C49	C	1.627172	-0.088645	0.632213
H50	H	1.609220	-0.128939	0.559499
H51	H	1.553903	-0.075103	0.687169
H52	H	1.693535	-0.117731	0.687153
C53	C	1.152366	-0.037838	-0.000006
H54	H	1.237646	-0.024120	0.000007
H55	H	1.136974	-0.072739	-0.079713
H56	H	1.136968	-0.072733	0.079719
H57	H	1.763857	0.017651	0.610971
H58	H	0.844342	0.351779	-0.095680
H59	H	1.052772	0.348671	-0.098720
H60	H	1.046430	0.355698	0.095648
