data_functionalizedCrystal
_audit_creation_method	'MofGen! by Chris Wilmer'
_symmetry_space_group_name_H-M	'P1'
_symmetry_Int_Tables_number	1
_symmetry_cell_setting	triclinic
loop_
_symmetry_equiv_pos_as_xyz
  x,y,z
_cell_length_a	10.654562
_cell_length_b	10.489716
_cell_length_c	9.730223
_cell_angle_alpha	90.002678
_cell_angle_beta	89.996961
_cell_angle_gamma	84.509620
loop_
_atom_site_label
_atom_site_type_symbol
_atom_site_fract_x
_atom_site_fract_y
_atom_site_fract_z
O1	O	1.667893	0.179236	-0.114367
O2	O	1.302423	0.196288	-0.114349
O3	O	1.493490	0.002158	-0.114363
O4	O	1.476826	0.373365	-0.114352
O5	O	1.493488	0.002163	0.114217
O6	O	1.302421	0.196293	0.114231
O7	O	1.667891	0.179240	0.114213
Zn8	Zn	1.485156	0.187768	0.150514
Zn9	Zn	1.485158	0.187761	-0.150650
O10	O	1.476824	0.373370	0.114228
C11	C	1.255624	0.195035	-0.000056
C12	C	1.116180	0.191279	-0.000050
C13	C	1.050647	0.189530	0.124538
C14	C	0.919624	0.186010	0.124515
C15	C	0.919676	0.185995	-0.124695
C16	C	1.050699	0.189506	-0.124671
C17	C	1.116129	0.191303	0.249159
C18	C	1.050596	0.189555	0.373757
C19	C	0.919572	0.186036	0.373734
C20	C	0.854082	0.184265	0.249113
C21	C	1.492237	-0.045371	-0.000077
C22	C	1.488491	-0.187000	-0.000090
C23	C	1.605659	-0.284725	-0.000083
C24	C	1.543746	-0.362061	-0.112778
C25	C	1.543717	-0.362020	0.112584
C26	C	1.426627	-0.262471	-0.112878
C27	C	1.426615	-0.262424	0.112585
C28	C	1.364615	-0.339711	-0.000137
C29	C	1.714690	0.180493	-0.000082
C30	C	1.854134	0.184250	-0.000098
C31	C	1.478077	0.420899	-0.000061
C32	C	1.481823	0.562529	-0.000058
N33	N	1.485163	0.187771	0.356051
N34	N	1.485161	0.187747	-0.356186
C35	C	1.569789	0.101840	0.427970
C36	C	1.569786	0.101824	0.571853
C37	C	1.400526	0.273683	0.571884
C38	C	1.400524	0.273691	0.428004
C39	C	1.654428	0.015920	0.356017
C40	C	1.739062	-0.070017	0.427937
C41	C	1.739059	-0.070033	0.571820
C42	C	1.654421	0.015889	0.643783
H43	H	0.866220	0.184603	0.475188
C44	C	1.654423	0.015867	0.802059
N45	N	1.654431	0.015855	0.921272
H46	H	0.747394	0.181396	0.249104
H47	H	1.593208	-0.405580	-0.208061
C48	C	0.847630	0.184058	-0.261769
N49	N	0.793364	0.182605	-0.365015
C50	C	1.359846	-0.203609	0.241316
N51	N	1.309562	-0.159312	0.338288
H52	H	1.377193	-0.219147	-0.208259
H53	H	1.104056	0.190936	-0.226121
C54	C	1.307402	0.368192	0.348888
N55	N	1.237248	0.439359	0.289297
C56	C	1.743341	-0.251442	-0.000243
N57	N	1.847041	-0.226372	-0.000369
H58	H	1.222814	0.194173	0.249192
C59	C	1.226829	-0.372662	-0.000211
N60	N	1.123049	-0.397483	-0.000273
H61	H	1.593202	-0.405512	0.207857
H62	H	1.807965	-0.139979	0.369337
H63	H	1.654441	0.015927	0.238860
H64	H	1.331618	0.343638	0.630486
C65	C	1.122635	0.191530	0.510833
N66	N	1.176892	0.193031	0.614081
C67	C	1.832140	-0.164582	0.650927
N68	N	1.902252	-0.235799	0.710508
