data_functionalizedCrystal
_audit_creation_method	'MofGen! by Chris Wilmer'
_symmetry_space_group_name_H-M	'P1'
_symmetry_Int_Tables_number	1
_symmetry_cell_setting	triclinic
loop_
_symmetry_equiv_pos_as_xyz
  x,y,z
_cell_length_a	28.938199
_cell_length_b	28.937346
_cell_length_c	28.934044
_cell_angle_alpha	60.005004
_cell_angle_beta	60.009897
_cell_angle_gamma	59.994060
loop_
_atom_site_label
_atom_site_type_symbol
_atom_site_fract_x
_atom_site_fract_y
_atom_site_fract_z
O1	O	0.064043	-0.675186	0.564597
O2	O	0.564043	-0.175186	1.064597
O3	O	0.024124	-0.525682	0.454913
O4	O	0.524124	-0.025682	0.954913
O5	O	0.118795	-0.620275	0.454833
O6	O	0.618795	-0.120275	0.954833
O7	O	-0.030629	-0.580593	0.564678
O8	O	0.469371	-0.080593	1.064678
O9	O	0.150204	-0.588870	0.486157
O10	O	0.650204	-0.088870	0.986157
O11	O	0.055533	-0.494276	0.486238
O12	O	0.555533	0.005724	0.986238
O13	O	0.095452	-0.643780	0.595921
O14	O	0.595452	-0.143780	1.095921
Cu15	Cu	0.078360	-0.566161	0.543940
Cu16	Cu	0.578360	-0.066161	1.043940
Cu17	Cu	0.041215	-0.603301	0.506895
Cu18	Cu	0.541215	-0.103301	1.006895
O19	O	0.000780	-0.549187	0.596002
O20	O	0.500780	-0.049187	1.096002
N21	N	0.104487	-0.540042	0.569998
N22	N	0.604487	-0.040042	1.069998
N23	N	0.015094	-0.629425	0.480837
N24	N	0.515094	-0.129425	0.980837
C25	C	0.165467	-0.323909	0.630915
C26	C	0.665467	0.176091	1.130915
C27	C	0.165587	-0.479117	0.786068
C28	C	0.665587	0.020883	1.286068
C29	C	0.165481	-0.479095	0.630906
C30	C	0.665481	0.020905	1.130906
C31	C	0.320696	-0.479083	0.630835
C32	C	0.820696	0.020917	1.130835
C33	C	0.182557	-0.375118	0.647971
C34	C	0.682557	0.124882	1.147971
C35	C	0.182626	-0.462038	0.734858
C36	C	0.682626	0.037962	1.234858
C37	C	0.269485	-0.462018	0.647928
C38	C	0.769485	0.037982	1.147928
C39	C	0.182566	-0.462025	0.647966
C40	C	0.682566	0.037975	1.147966
C41	C	0.143714	-0.258726	0.609206
C42	C	0.643714	0.241274	1.109206
C43	C	0.143738	-0.500820	0.609192
C44	C	0.643738	-0.000820	1.109192
C45	C	0.204309	-0.440300	0.669680
C46	C	0.704309	0.059700	1.169680
C47	C	0.415481	-0.462740	0.580919
C48	C	0.915481	0.037260	1.080919
C49	C	0.474732	-0.482485	0.561145
C50	C	0.974732	0.017515	1.061145
C51	C	0.474757	-0.578356	0.597704
C52	C	0.974757	-0.078356	1.097704
C53	C	0.415508	-0.558609	0.617479
C54	C	0.915508	-0.058609	1.117479
C55	C	0.157989	-0.229089	0.550957
C56	C	0.657989	0.270911	1.050957
C57	C	0.138212	-0.169834	0.531225
C58	C	0.638212	0.330166	1.031225
C59	C	0.089890	-0.169857	0.627992
C60	C	0.589890	0.330143	1.127992
C61	C	0.109667	-0.229112	0.647725
C62	C	0.609667	0.270888	1.147725
C63	C	0.085482	-0.486515	0.623535
C64	C	0.585482	0.013485	1.123535
C65	C	0.065722	-0.506265	0.603789
C66	C	0.565722	-0.006265	1.103789
C67	C	0.162467	-0.554625	0.555370
C68	C	0.662467	-0.054625	1.055370
C69	C	0.182230	-0.534875	0.575110
C70	C	0.682230	-0.034875	1.075110
C71	C	0.085661	-0.486557	0.880902
C72	C	0.585661	0.013443	1.380902
C73	C	0.065952	-0.506323	0.940155
C74	C	0.565952	-0.006323	1.440155
C75	C	0.162734	-0.554693	0.940102
C76	C	0.662734	-0.054693	1.440102
C77	C	0.182441	-0.534928	0.880847
C78	C	0.682441	-0.034928	1.380847
C79	C	0.143904	-0.500859	0.851249
C80	C	0.643904	-0.000859	1.351249
C81	C	0.385871	-0.500801	0.609083
C82	C	0.885871	-0.000801	1.109083
C83	C	-0.110907	-0.668480	0.441278
C84	C	0.389093	-0.168480	0.941278
C85	C	-0.024049	-0.668588	0.441475
C86	C	0.475951	-0.168588	0.941475
C87	C	-0.045729	-0.690282	0.419668
C88	C	0.454271	-0.190282	0.919668
C89	C	-0.062146	-0.785032	0.469507
C90	C	0.437854	-0.285032	0.969507
C91	C	-0.042446	-0.844287	0.489286
C92	C	0.457554	-0.344287	0.989286
C93	C	0.053426	-0.844399	0.452899
C94	C	0.553426	-0.344399	0.952899
C95	C	0.033725	-0.785144	0.433120
C96	C	0.533725	-0.285144	0.933120
C97	C	-0.140617	-0.682751	0.499509
C98	C	0.359383	-0.182751	0.999509
C99	C	-0.199867	-0.662928	0.519152
C100	C	0.300133	-0.162928	1.019152
C101	C	-0.199694	-0.614571	0.422330
C102	C	0.300306	-0.114571	0.922330
C103	C	-0.140443	-0.634393	0.402687
C104	C	0.359557	-0.134393	0.902687
C105	C	-0.038320	-0.610337	0.427144
C106	C	0.461680	-0.110337	0.927144
C107	C	-0.018610	-0.590621	0.446974
C108	C	0.481390	-0.090621	0.946974
C109	C	0.029642	-0.687402	0.495454
C110	C	0.529642	-0.187402	0.995454
C111	C	0.009933	-0.707121	0.475630
C112	C	0.509933	-0.207121	0.975630
C113	C	-0.038148	-0.610347	0.324832
C114	C	0.461852	-0.110347	0.824832
C115	C	-0.018301	-0.590634	0.265579
C116	C	0.481699	-0.090634	0.765579
C117	C	0.030035	-0.687421	0.265643
C118	C	0.530035	-0.187421	0.765643
C119	C	0.010190	-0.707133	0.324897
C120	C	0.510190	-0.207133	0.824897
C121	C	-0.023903	-0.668595	0.354491
C122	C	0.476097	-0.168595	0.854491
C123	C	-0.024062	-0.755463	0.441426
C124	C	0.475938	-0.255463	0.941426
N125	N	0.503527	-0.540005	0.569810
N126	N	1.003527	-0.040005	1.069810
O127	O	0.684453	-0.545211	0.434650
O128	O	1.184453	-0.045211	0.934650
O129	O	0.684643	-0.655237	0.584005
O130	O	1.184643	-0.155237	1.084005
O131	O	0.684567	-0.654986	0.489282
O132	O	1.184567	-0.154986	0.989282
O133	O	0.684529	-0.545462	0.529373
O134	O	1.184529	-0.045462	1.029373
O135	O	0.590438	-0.623674	0.520735
O136	O	1.090438	-0.123674	1.020735
O137	O	0.590513	-0.623924	0.615457
O138	O	1.090513	-0.123924	1.115457
O139	O	0.590323	-0.513899	0.466102
O140	O	1.090323	-0.013899	0.966102
Cu141	Cu	0.581823	-0.566053	0.543652
Cu142	Cu	1.081823	-0.066053	1.043652
Cu143	Cu	0.693143	-0.603083	0.506456
Cu144	Cu	1.193143	-0.103083	1.006456
O145	O	0.590399	-0.514149	0.560825
O146	O	1.090399	-0.014149	1.060825
N147	N	0.771439	-0.629131	0.480292
N148	N	1.271439	-0.129131	0.980292
N149	N	0.104456	-0.141061	0.570015
N150	N	0.604456	0.358939	1.070015
O151	O	-0.030629	0.039964	0.564688
O152	O	0.469371	0.539964	1.064688
O153	O	0.118732	0.039984	0.454661
O154	O	0.618732	0.539984	0.954661
O155	O	0.023980	0.039958	0.454946
O156	O	0.523980	0.539958	0.954946
O157	O	0.064123	0.039990	0.564403
O158	O	0.564123	0.539990	1.064403
O159	O	0.055392	-0.054179	0.486321
O160	O	0.555392	0.445821	0.986321
O161	O	0.150144	-0.054153	0.486036
O162	O	0.650144	0.445847	0.986036
O163	O	0.000784	-0.054173	0.596063
O164	O	0.500784	0.445827	1.096063
Cu165	Cu	0.078332	-0.062759	0.543914
Cu166	Cu	0.578332	0.437241	1.043914
Cu167	Cu	0.041183	0.048570	0.506810
Cu168	Cu	0.541183	0.548570	1.006810
O169	O	0.095535	-0.054147	0.595778
O170	O	0.595535	0.445853	1.095778
N171	N	0.015053	0.126872	0.480710
N172	N	0.515053	0.626872	0.980710
N173	N	0.104760	-0.540096	0.968910
N174	N	0.604760	-0.040096	1.468910
O175	O	0.099447	-0.675167	1.149923
O176	O	0.599447	-0.175167	1.649923
O177	O	-0.010552	-0.525757	1.149951
O178	O	0.489448	-0.025757	1.649951
O179	O	-0.010297	-0.620493	1.149918
O180	O	0.489703	-0.120493	1.649918
O181	O	0.099192	-0.580431	1.149956
O182	O	0.599192	-0.080431	1.649956
O183	O	0.021064	-0.589100	1.055785
O184	O	0.521064	-0.089100	1.555785
O185	O	0.020809	-0.494365	1.055818
O186	O	0.520809	0.005635	1.555818
O187	O	0.130808	-0.643774	1.055790
O188	O	0.630808	-0.143774	1.555790
Cu189	Cu	0.078672	-0.566203	1.047209
Cu190	Cu	0.578672	-0.066203	1.547209
Cu191	Cu	0.041584	-0.603328	1.158532
Cu192	Cu	0.541584	-0.103328	1.658532
O193	O	0.130553	-0.549038	1.055823
O194	O	0.630553	-0.049038	1.555823
N195	N	0.015495	-0.629442	1.236831
N196	N	0.515495	-0.129442	1.736831
C197	C	0.036087	-0.491140	0.455465
C198	C	0.536087	0.008860	0.955465
C199	C	0.153325	-0.608283	0.455364
C200	C	0.653325	-0.108283	0.955364
C201	C	0.083488	-0.678322	0.595370
C202	C	0.583488	-0.178322	1.095370
C203	C	-0.033750	-0.561180	0.595470
C204	C	0.466250	-0.061180	1.095470
C205	C	0.637601	-0.654732	0.618548
C206	C	1.137601	-0.154732	1.118548
C207	C	0.637509	-0.654422	0.501245
C208	C	1.137509	-0.154422	1.001245
C209	C	0.637362	-0.514403	0.431560
C210	C	1.137362	-0.014403	0.931560
C211	C	0.637458	-0.514713	0.548862
C212	C	1.137458	-0.014713	1.048862
C213	C	0.153215	-0.006966	0.455158
C214	C	0.653215	0.493034	0.955158
C215	C	0.035916	-0.007114	0.455550
C216	C	0.535916	0.492886	0.955550
C217	C	-0.033739	-0.007106	0.595527
C218	C	0.466261	0.492894	1.095527
C219	C	0.083600	-0.007076	0.595174
C220	C	0.583600	0.492924	1.095174
C221	C	-0.010020	-0.491238	1.102888
C222	C	0.489980	0.008762	1.602888
C223	C	-0.009698	-0.608550	1.102828
C224	C	0.490302	-0.108550	1.602828
C225	C	0.130276	-0.678293	1.102853
C226	C	0.630276	-0.178293	1.602853
C227	C	0.129961	-0.560974	1.102892
C228	C	0.629961	-0.060974	1.602892
H229	H	0.018524	-0.494668	0.964293
H230	H	0.518524	0.005332	1.464293
C231	C	-0.091730	-0.549756	0.642071
C232	C	0.408270	-0.049756	1.142071
N233	N	-0.135400	-0.541151	0.677170
N234	N	0.364600	-0.041151	1.177170
C235	C	0.176432	-0.549395	1.102898
C236	C	0.676432	-0.049395	1.602898
N237	N	0.211434	-0.540673	1.102902
N238	N	0.711434	-0.040673	1.602902
C239	C	0.176898	-0.736297	1.102944
C240	C	0.676898	-0.236297	1.602944
N241	N	0.212001	-0.779998	1.103050
N242	N	0.712001	-0.279998	1.603050
H243	H	0.054276	-0.458811	0.856808
H244	H	0.554276	0.041189	1.356808
H245	H	0.092017	-0.721269	0.629819
H246	H	0.592017	-0.221269	1.129819
C247	C	0.205129	-0.592162	0.972657
C248	C	0.705129	-0.092162	1.472657
N249	N	0.237061	-0.620388	0.997178
N250	N	0.737061	-0.120388	1.497178
H251	H	-0.065985	-0.578958	0.399332
H252	H	0.434015	-0.078958	0.899332
H253	H	-0.076633	-0.007113	0.630069
H254	H	0.423367	0.492887	1.130069
C255	C	0.095211	-0.007067	0.641632
C256	C	0.595211	0.492933	1.141632
N257	N	0.103957	-0.007061	0.676623
N258	N	0.603957	0.492939	1.176623
H259	H	0.196022	-0.006699	0.420530
H260	H	0.696022	0.493301	0.920530
C261	C	-0.056675	-0.433267	1.102897
C262	C	0.443325	0.066733	1.602897
N263	N	-0.091815	-0.389604	1.102904
N264	N	0.408185	0.110396	1.602904
C265	C	0.024310	-0.007137	0.409098
C266	C	0.524310	0.492863	0.909098
N267	N	0.015569	-0.007161	0.374112
N268	N	0.515569	0.492839	0.874112
H269	H	-0.044080	-0.617108	1.102779
H270	H	0.455920	-0.117108	1.602779
C271	C	-0.108127	-0.720246	0.541961
C272	C	0.391873	-0.220246	1.041961
N273	N	-0.083657	-0.748487	0.573938
N274	N	0.416343	-0.248487	1.073938
C275	C	0.043137	-0.449046	0.661015
C276	C	0.543137	0.050954	1.161015
N277	N	0.011240	-0.420821	0.689244
N278	N	0.511240	0.079179	1.189244
C279	C	0.246515	-0.550661	0.848232
C280	C	0.746515	-0.050661	1.348232
N281	N	0.294775	-0.562509	0.823668
N282	N	0.794775	-0.062509	1.323668
C283	C	0.195441	-0.261661	0.508582
C284	C	0.695441	0.238339	1.008582
N285	N	0.223649	-0.286196	0.476665
N286	N	0.723649	0.213804	0.976665
C287	C	0.637672	-0.701397	0.676498
C288	C	1.137672	-0.201397	1.176498
N289	N	0.637726	-0.736545	0.720145
N290	N	1.137726	-0.236545	1.220145
C291	C	0.024568	-0.433122	0.408924
C292	C	0.524568	0.066878	0.908924
N293	N	0.015891	-0.389423	0.373869
N294	N	0.515891	0.110577	0.873869
H295	H	0.637525	-0.688829	0.492664
H296	H	1.137525	-0.188829	0.992664
H297	H	0.637300	-0.479859	0.388668
H298	H	1.137300	0.020141	0.888668
C299	C	-0.107760	-0.618696	0.338626
C300	C	0.392240	-0.118696	0.838626
N301	N	-0.083145	-0.606872	0.290376
N302	N	0.416855	-0.106872	0.790376
H303	H	0.018285	-0.494604	0.615454
H304	H	0.518285	0.005396	1.115454
H305	H	0.193817	-0.582360	0.527624
H306	H	0.693817	-0.082360	1.027624
H307	H	0.637450	-0.480310	0.557440
H308	H	1.137450	0.019690	1.057440
H309	H	0.391402	-0.589605	0.640414
H310	H	0.891402	-0.089605	1.140414
C311	C	0.246315	-0.550614	0.559336
C312	C	0.746315	-0.050614	1.059336
N313	N	0.294583	-0.562472	0.547457
N314	N	0.794583	-0.062472	1.047457
H315	H	0.498884	-0.625426	0.604536
H316	H	0.998884	-0.125426	1.104536
H317	H	0.391352	-0.415667	0.574082
H318	H	0.891352	0.084333	1.074082
C319	C	0.507305	-0.440614	0.530159
C320	C	1.007305	0.059386	1.030159
N321	N	0.531840	-0.409076	0.506817
N322	N	1.031840	0.090924	1.006817
C323	C	0.211304	-0.619707	0.408763
C324	C	0.711304	-0.119707	0.908763
N325	N	0.254975	-0.628312	0.373664
N326	N	0.754975	-0.128312	0.873664
H327	H	0.062174	-0.145744	0.659359
H328	H	0.562174	0.354256	1.159359
C329	C	0.153913	-0.137231	0.467146
C330	C	0.653913	0.362769	0.967146
N331	N	0.165740	-0.112676	0.418881
N332	N	0.665740	0.387324	0.918881
H333	H	0.098041	-0.253238	0.695156
H334	H	0.598041	0.246762	1.195156
H335	H	-0.065911	-0.578960	0.348925
H336	H	0.434089	-0.078960	0.848925
C337	C	0.067531	-0.729819	0.233097
C338	C	0.567531	-0.229819	0.733097
N339	N	0.095775	-0.761756	0.208584
N340	N	0.595775	-0.261756	0.708584
C341	C	-0.033985	-0.526554	0.232964
C342	C	0.466015	-0.026554	0.732964
N343	N	-0.045799	-0.478290	0.208396
N344	N	0.454201	0.021710	0.708396
H345	H	0.021795	-0.754566	0.349042
H346	H	0.521795	-0.254566	0.849042
C347	C	-0.034305	-0.526542	0.431209
C348	C	0.465695	-0.026542	0.931209
N349	N	-0.046126	-0.478278	0.419333
N350	N	0.453874	0.021722	0.919333
H351	H	0.021552	-0.754553	0.487300
H352	H	0.521552	-0.254553	0.987300
C353	C	0.067043	-0.729794	0.533001
C354	C	0.567043	-0.229794	1.033001
N355	N	0.095220	-0.761725	0.561278
N356	N	0.595220	-0.261725	1.061278
H357	H	0.064741	-0.761071	0.410254
H358	H	0.564741	-0.261071	0.910254
H359	H	0.100481	-0.868567	0.446139
H360	H	0.600481	-0.368567	0.946139
H361	H	-0.109200	-0.760870	0.476275
H362	H	0.390800	-0.260870	0.976275
C363	C	-0.232550	-0.678626	0.583213
C364	C	0.267450	-0.178626	1.083213
N365	N	-0.257165	-0.690452	0.631463
N366	N	0.242835	-0.190452	1.131463
C367	C	-0.232186	-0.577080	0.379878
C368	C	0.267814	-0.077080	0.879878
N369	N	-0.256657	-0.548839	0.347902
N370	N	0.243343	-0.048839	0.847902
C371	C	-0.084344	-0.876812	0.520189
C372	C	0.415656	-0.376812	1.020189
N373	N	-0.115904	-0.901312	0.543471
N374	N	0.384096	-0.401312	1.043471
