data_functionalizedCrystal
_audit_creation_method	'MofGen! by Chris Wilmer'
_symmetry_space_group_name_H-M	'P1'
_symmetry_Int_Tables_number	1
_symmetry_cell_setting	triclinic
loop_
_symmetry_equiv_pos_as_xyz
  x,y,z
_cell_length_a	16.959455
_cell_length_b	18.050589
_cell_length_c	18.050582
_cell_angle_alpha	90.018205
_cell_angle_beta	90.013786
_cell_angle_gamma	90.025168
loop_
_atom_site_label
_atom_site_type_symbol
_atom_site_fract_x
_atom_site_fract_y
_atom_site_fract_z
Zn1	Zn	1.208335	-0.295767	0.419913
Zn2	Zn	1.208240	-0.419950	0.295732
Zn3	Zn	1.076164	-0.295772	0.295739
Zn4	Zn	1.076109	-0.419913	0.419883
O5	O	1.142212	-0.357851	0.357817
O6	O	1.318933	-0.312254	0.403449
O7	O	1.190703	-0.403496	0.191808
O8	O	1.093760	-0.191847	0.312226
O9	O	1.318863	-0.403491	0.312214
O10	O	1.190865	-0.191843	0.403456
O11	O	1.093668	-0.312262	0.191814
O12	O	0.965546	-0.312226	0.312198
O13	O	1.093666	-0.403427	0.523812
O14	O	0.965506	-0.403432	0.403406
O15	O	1.190811	-0.312218	0.523833
O16	O	1.190649	-0.523870	0.312186
O17	O	1.093574	-0.523843	0.403399
C18	C	0.936846	-0.357826	0.357800
C19	C	0.848989	-0.357834	0.357810
C20	C	0.477510	-0.310321	0.310424
C21	C	0.477517	-0.405442	0.405252
C22	C	0.560063	-0.405431	0.405247
C23	C	0.601336	-0.357865	0.357830
C24	C	0.560064	-0.310310	0.310416
C25	C	0.601341	-0.452990	0.452655
C26	C	0.683892	-0.452982	0.452651
C27	C	0.725167	-0.405412	0.405237
C28	C	0.683890	-0.357855	0.357822
C29	C	0.725163	-0.310289	0.310404
C30	C	0.683887	-0.262727	0.262993
C31	C	0.601339	-0.262740	0.263002
C32	C	0.807716	-0.405399	0.405228
C33	C	0.807717	-0.310279	0.310397
C34	C	1.142117	-0.550803	0.357804
C35	C	1.142148	-0.633349	0.357824
C36	C	1.089410	-0.832811	0.407408
C37	C	1.070148	-0.882244	0.339641
C38	C	1.142226	-0.784479	0.357834
C39	C	1.161527	-0.882128	0.425608
C40	C	1.142299	-0.930464	0.357849
C41	C	1.122926	-0.832825	0.290031
C42	C	1.214338	-0.832704	0.376043
C43	C	1.195103	-0.882114	0.308230
C44	C	1.142181	-0.700381	0.357826
C45	C	1.142344	-1.014561	0.357849
C46	C	1.348380	-0.357876	0.357834
C47	C	1.436237	-0.357887	0.357842
C48	C	1.142243	-0.357818	0.551522
C49	C	1.142256	-0.357804	0.634068
C50	C	1.142329	-0.164145	0.357845
C51	C	1.142379	-0.081599	0.357857
C52	C	1.142227	-0.357830	0.164865
C53	C	1.142367	-0.357635	0.082319
C54	C	1.089469	-0.407336	0.833507
C55	C	1.161583	-0.425493	0.882898
C56	C	1.142295	-0.357747	0.785199
C57	C	1.070220	-0.339569	0.882889
C58	C	1.142327	-0.357694	0.931184
C59	C	1.214448	-0.375940	0.833503
C60	C	1.123036	-0.289985	0.833489
C61	C	1.195200	-0.308116	0.882858
C62	C	1.142276	-0.357780	0.701100
C63	C	1.142354	-0.357661	1.015280
H64	H	0.443900	-0.271595	0.271825
H65	H	1.044837	-0.449326	0.811839
C66	C	1.183614	-0.502872	0.912225
H67	H	1.146018	-0.538069	0.895333
H68	H	1.234462	-0.516109	0.894590
H69	H	1.183932	-0.502178	0.964850
C70	C	1.255633	-0.251437	0.911955
H71	H	1.306797	-0.264452	0.894953
H72	H	1.242378	-0.203464	0.894289
H73	H	1.255018	-0.251441	0.964582
H74	H	0.567725	-0.224019	0.224401
C75	C	0.987813	-0.911646	0.318834
H76	H	0.991446	-0.940612	0.275015
H77	H	0.967993	-0.941346	0.358078
H78	H	0.953205	-0.871113	0.310562
H79	H	0.567730	-0.491721	0.491254
H80	H	1.275431	-0.391357	0.811900
C81	C	0.432118	-0.457759	0.457407
H82	H	0.377044	-0.450952	0.450624
H83	H	0.445628	-0.507641	0.446457
H84	H	0.445666	-0.446949	0.507325
H85	H	1.106560	-0.811258	0.232705
C86	C	1.028993	-0.803560	0.463966
H87	H	1.055333	-0.774564	0.500278
H88	H	0.990954	-0.773920	0.439212
H89	H	1.003425	-0.844155	0.487307
H90	H	0.717492	-0.491710	0.491257
H91	H	1.106706	-0.232719	0.811769
H92	H	0.841319	-0.444126	0.443827
C93	C	1.255480	-0.911184	0.251542
H94	H	1.241667	-0.894212	0.203447
H95	H	1.306527	-0.893472	0.264061
H96	H	1.255482	-0.963810	0.252137
C97	C	1.296669	-0.803310	0.396860
H98	H	1.310284	-0.820168	0.445046
H99	H	1.334324	-0.820943	0.362131
H100	H	1.296188	-0.750686	0.396261
C101	C	1.183545	-0.911383	0.503027
H102	H	1.145941	-0.894492	0.538180
H103	H	1.183888	-0.964004	0.502371
H104	H	1.234387	-0.893684	0.516296
C105	C	0.987866	-0.318822	0.912197
H106	H	0.991474	-0.274993	0.941154
H107	H	0.953270	-0.310606	0.871630
H108	H	0.968051	-0.358074	0.941900
C109	C	0.853112	-0.257954	0.258237
H110	H	0.816705	-0.229636	0.230002
H111	H	0.885338	-0.225634	0.286697
H112	H	0.885289	-0.286318	0.225822
H113	H	0.717503	-0.224003	0.224382
