data_functionalizedCrystal
_audit_creation_method	'MofGen! by Chris Wilmer'
_symmetry_space_group_name_H-M	'P1'
_symmetry_Int_Tables_number	1
_symmetry_cell_setting	triclinic
loop_
_symmetry_equiv_pos_as_xyz
  x,y,z
_cell_length_a	23.532407
_cell_length_b	23.532407
_cell_length_c	22.610064
_cell_angle_alpha	90.000603
_cell_angle_beta	89.994501
_cell_angle_gamma	97.151288
loop_
_atom_site_label
_atom_site_type_symbol
_atom_site_fract_x
_atom_site_fract_y
_atom_site_fract_z
O1	O	0.755263	-0.069127	-0.049153
O2	O	1.088597	0.264206	0.284180
O3	O	1.421930	0.597539	0.617513
O4	O	0.589400	-0.079131	-0.049163
O5	O	0.922733	0.254203	0.284170
O6	O	1.256067	0.587536	0.617503
O7	O	0.677333	0.008803	-0.049147
O8	O	1.010667	0.342136	0.284186
O9	O	1.344000	0.675469	0.617520
O10	O	0.667330	-0.157061	-0.049169
O11	O	1.000663	0.176273	0.284164
O12	O	1.333997	0.509606	0.617497
O13	O	0.677318	0.008790	0.049222
O14	O	1.010651	0.342123	0.382555
O15	O	1.343984	0.675456	0.715889
O16	O	0.589385	-0.079143	0.049206
O17	O	0.922718	0.254190	0.382539
O18	O	1.256051	0.587523	0.715872
O19	O	0.755248	-0.069140	0.049216
O20	O	1.088581	0.264193	0.382549
O21	O	1.421915	0.597526	0.715883
Zn22	Zn	0.672314	-0.074144	0.064829
Zn23	Zn	1.005647	0.259189	0.398162
Zn24	Zn	1.338980	0.592523	0.731496
Zn25	Zn	0.672334	-0.074127	-0.064777
Zn26	Zn	1.005668	0.259206	0.268557
Zn27	Zn	1.339001	0.592540	0.601890
O28	O	0.667315	-0.157074	0.049200
O29	O	1.000648	0.176260	0.382533
O30	O	1.333981	0.509593	0.715866
C31	C	0.568176	-0.078882	0.000020
C32	C	0.901510	0.254451	0.333353
C33	C	1.234843	0.587784	0.666687
C34	C	0.504959	-0.078116	0.000017
C35	C	0.838293	0.255217	0.333350
C36	C	1.171626	0.588550	0.666683
C37	C	0.238792	-0.022921	0.000040
C38	C	0.572125	0.310412	0.333373
C39	C	0.905458	0.643746	0.666707
C40	C	0.298192	-0.023632	0.000040
C41	C	0.631525	0.309701	0.333373
C42	C	0.964859	0.643034	0.666707
O43	O	0.334937	0.020153	0.000066
O44	O	0.668270	0.353487	0.333400
O45	O	1.001603	0.686820	0.666733
N46	N	0.320818	-0.075909	0.000029
N47	N	0.654152	0.257425	0.333362
N48	N	0.987485	0.590758	0.666696
C49	C	0.284041	-0.127477	0.000024
C50	C	0.617374	0.205856	0.333357
C51	C	0.950707	0.539190	0.666691
O52	O	0.308740	-0.172007	0.000015
O53	O	0.642074	0.161326	0.333349
O54	O	0.975407	0.494659	0.666682
C55	C	0.224642	-0.126765	0.000029
C56	C	0.557975	0.206568	0.333362
C57	C	0.891308	0.539902	0.666695
C58	C	0.202019	-0.074485	0.000034
C59	C	0.535352	0.258848	0.333367
C60	C	0.868686	0.592181	0.666700
C61	C	0.216168	0.029354	0.000046
C62	C	0.549502	0.362688	0.333379
C63	C	0.882835	0.696021	0.666713
C64	C	0.156772	0.030066	0.000045
C65	C	0.490106	0.363399	0.333378
C66	C	0.823439	0.696732	0.666712
C67	C	0.119999	-0.021499	0.000038
C68	C	0.453333	0.311835	0.333372
C69	C	0.786666	0.645168	0.666705
C70	C	0.142623	-0.073774	0.000033
C71	C	0.475956	0.259559	0.333366
C72	C	0.809289	0.592893	0.666699
C73	C	0.187865	-0.178333	0.000028
C74	C	0.521199	0.155001	0.333361
C75	C	0.854532	0.488334	0.666695
C76	C	0.128463	-0.177616	0.000033
C77	C	0.461796	0.155717	0.333366
C78	C	0.795129	0.489051	0.666700
C79	C	0.105840	-0.125336	0.000038
C80	C	0.439173	0.207997	0.333371
C81	C	0.772507	0.541330	0.666705
C82	C	0.046454	-0.124627	0.000025
C83	C	0.379787	0.208706	0.333359
C84	C	0.713120	0.542040	0.666692
N85	N	0.023828	-0.072351	0.000036
N86	N	0.357161	0.260983	0.333370
N87	N	0.690494	0.594316	0.666703
C88	C	0.060600	-0.020787	0.000043
C89	C	0.393934	0.312547	0.333376
C90	C	0.727267	0.645880	0.666710
C91	C	0.408783	-0.128968	0.000016
C92	C	0.742117	0.204365	0.333349
C93	C	1.075450	0.537698	0.666682
C94	C	0.468181	-0.129681	0.000007
C95	C	0.801514	0.203652	0.333340
C96	C	1.134848	0.536986	0.666674
C97	C	0.482328	-0.025836	0.000024
C98	C	0.815662	0.307497	0.333357
C99	C	1.148995	0.640830	0.666691
C100	C	0.422929	-0.025124	0.000028
C101	C	0.756263	0.308209	0.333362
C102	C	1.089596	0.641543	0.666695
C103	C	0.386157	-0.076692	0.000027
C104	C	0.719490	0.256641	0.333360
C105	C	1.052824	0.589975	0.666693
C106	C	-0.064136	-0.019297	0.000041
C107	C	0.269197	0.314036	0.333374
C108	C	0.602530	0.647370	0.666707
C109	C	-0.123538	-0.018590	0.000037
C110	C	0.209795	0.314743	0.333371
C111	C	0.543128	0.648076	0.666704
C112	C	-0.137680	-0.122435	0.000024
C113	C	0.195653	0.210899	0.333357
C114	C	0.528986	0.544232	0.666690
C115	C	-0.078284	-0.123142	0.000024
C116	C	0.255050	0.210192	0.333357
C117	C	0.588383	0.543525	0.666690
C118	C	-0.041512	-0.071568	0.000034
C119	C	0.291821	0.261765	0.333368
C120	C	0.625154	0.595099	0.666701
O121	O	0.009675	-0.168390	0.000001
O122	O	0.343008	0.164943	0.333335
O123	O	0.676341	0.498277	0.666668
O124	O	0.035892	0.023737	0.000060
O125	O	0.369226	0.357070	0.333393
O126	O	0.702559	0.690403	0.666726
C127	C	0.677071	0.030012	0.000039
C128	C	1.010404	0.363346	0.333372
C129	C	1.343738	0.696679	0.666706
C130	C	0.676305	0.093229	0.000043
C131	C	1.009638	0.426563	0.333377
C132	C	1.342972	0.759896	0.666710
C133	C	0.776472	-0.069389	0.000031
C134	C	1.109805	0.263945	0.333365
C135	C	1.443138	0.597278	0.666698
C136	C	0.839689	-0.070155	0.000031
C137	C	1.173022	0.263179	0.333364
C138	C	1.506355	0.596512	0.666697
C139	C	0.667577	-0.178283	0.000012
C140	C	1.000910	0.155050	0.333346
C141	C	1.334244	0.488383	0.666679
C142	C	0.668343	-0.241500	0.000004
C143	C	1.001676	0.091833	0.333337
C144	C	1.335010	0.425166	0.666671
N145	N	0.672304	-0.074155	0.153282
N146	N	1.005637	0.259178	0.486615
N147	N	1.338971	0.592512	0.819948
C148	C	0.723538	0.492332	0.000014
C149	C	1.056872	0.825666	0.333347
C150	C	1.390205	1.158999	0.666681
C151	C	0.722827	0.551733	0.000009
C152	C	1.056160	0.885066	0.333343
C153	C	1.389494	1.218399	0.666676
O154	O	0.766613	0.588477	-0.000010
O155	O	1.099946	0.921810	0.333324
O156	O	1.433280	1.255144	0.666657
N157	N	0.670551	0.574359	0.000007
N158	N	1.003884	0.907692	0.333340
N159	N	1.337217	1.241025	0.666673
C160	C	0.618982	0.537581	0.000002
C161	C	0.952316	0.870915	0.333336
C162	C	1.285649	1.204248	0.666669
O163	O	0.574452	0.562281	-0.000001
O164	O	0.907785	0.895614	0.333332
O165	O	1.241119	1.228948	0.666666
C166	C	0.619695	0.478182	0.000003
C167	C	0.953028	0.811515	0.333336
C168	C	1.286361	1.144849	0.666669
C169	C	0.671974	0.455559	0.000011
C170	C	1.005308	0.788893	0.333345
C171	C	1.338641	1.122226	0.666678
C172	C	0.775814	0.469709	0.000022
C173	C	1.109147	0.803042	0.333355
C174	C	1.442481	1.136376	0.666689
C175	C	0.776525	0.410313	0.000028
C176	C	1.109858	0.743646	0.333361
C177	C	1.443192	1.076980	0.666694
C178	C	0.724961	0.373540	0.000025
C179	C	1.058294	0.706873	0.333359
C180	C	1.391628	1.040207	0.666692
C181	C	0.672685	0.396163	0.000017
C182	C	1.006019	0.729497	0.333350
C183	C	1.339352	1.062830	0.666684
C184	C	0.568127	0.441406	-0.000006
C185	C	0.901460	0.774739	0.333327
C186	C	1.234794	1.108072	0.666661
C187	C	0.568843	0.382003	-0.000006
C188	C	0.902177	0.715337	0.333327
C189	C	1.235510	1.048670	0.666661
C190	C	0.621123	0.359381	0.000003
C191	C	0.954457	0.692714	0.333336
C192	C	1.287790	1.026047	0.666669
C193	C	0.621832	0.299994	0.000020
C194	C	0.955166	0.633328	0.333354
C195	C	1.288499	0.966661	0.666687
N196	N	0.674109	0.277368	0.000023
N197	N	1.007442	0.610701	0.333356
N198	N	1.340775	0.944035	0.666690
C199	C	0.725673	0.314141	0.000025
C200	C	1.059006	0.647474	0.333359
C201	C	1.392340	0.980808	0.666692
C202	C	0.617491	0.662324	0.000001
C203	C	0.950824	0.995657	0.333334
C204	C	1.284158	1.328990	0.666667
C205	C	0.616778	0.721722	0.000005
C206	C	0.950112	1.055055	0.333338
C207	C	1.283445	1.388388	0.666671
C208	C	0.720623	0.735869	0.000011
C209	C	1.053957	1.069202	0.333344
C210	C	1.387290	1.402536	0.666677
C211	C	0.721335	0.676470	0.000011
C212	C	1.054669	1.009803	0.333344
C213	C	1.388002	1.343137	0.666678
C214	C	0.669767	0.639698	0.000003
C215	C	1.003101	0.973031	0.333337
C216	C	1.336434	1.306364	0.666670
C217	C	0.727163	0.189404	0.000038
C218	C	1.060496	0.522738	0.333371
C219	C	1.393829	0.856071	0.666705
C220	C	0.727869	0.130002	0.000046
C221	C	1.061203	0.463335	0.333379
C222	C	1.394536	0.796669	0.666713
C223	C	0.624025	0.115860	0.000037
C224	C	0.957358	0.449193	0.333370
C225	C	1.290691	0.782527	0.666704
C226	C	0.623318	0.175257	0.000032
C227	C	0.956651	0.508590	0.333365
C228	C	1.289984	0.841924	0.666699
C229	C	0.674891	0.212028	0.000030
C230	C	1.008225	0.545361	0.333364
C231	C	1.341558	0.878695	0.666697
O232	O	0.578069	0.263215	0.000037
O233	O	0.911403	0.596548	0.333370
O234	O	1.244736	0.929882	0.666704
O235	O	0.770196	0.289433	0.000021
O236	O	1.103529	0.622766	0.333354
O237	O	1.436863	0.956100	0.666688
N238	N	0.672349	-0.074111	-0.153229
N239	N	1.005682	0.259222	0.180104
N240	N	1.339015	0.592555	0.513438
C241	C	0.711273	-0.035196	0.561930
C242	C	1.044606	0.298137	0.895264
C243	C	1.377939	0.631471	1.228597
C244	C	0.711276	-0.035192	0.623850
C245	C	1.044609	0.298141	0.957183
C246	C	1.377942	0.631475	1.290517
O247	O	0.744384	-0.002076	0.655875
O248	O	1.077717	0.331257	0.989208
O249	O	1.411051	0.664590	1.322542
N250	N	0.672334	-0.074115	0.654819
N251	N	1.005667	0.259218	0.988152
N252	N	1.339000	0.592551	1.321485
C253	C	0.633383	-0.113041	0.623864
C254	C	0.966716	0.220292	0.957198
C255	C	1.300049	0.553625	1.290531
O256	O	0.600259	-0.146148	0.655891
O257	O	0.933593	0.187186	0.989225
O258	O	1.266926	0.520519	1.322558
C259	C	0.633377	-0.113042	0.561945
C260	C	0.966711	0.220291	0.895279
C261	C	1.300044	0.553624	1.228612
C262	C	0.672326	-0.074120	0.530980
C263	C	1.005659	0.259213	0.864313
C264	C	1.338992	0.592546	1.197647
C265	C	0.750217	0.003723	0.530965
C266	C	1.083551	0.337056	0.864298
C267	C	1.416884	0.670390	1.197631
C268	C	0.750215	0.003718	0.469049
C269	C	1.083548	0.337051	0.802382
C270	C	1.416882	0.670385	1.135716
C271	C	0.711268	-0.035206	0.438099
C272	C	1.044601	0.298127	0.771432
C273	C	1.377935	0.631461	1.104766
C274	C	0.672323	-0.074125	0.469064
C275	C	1.005657	0.259208	0.802398
C276	C	1.338990	0.592541	1.135731
C277	C	0.594424	-0.151965	0.530992
C278	C	0.927757	0.181368	0.864325
C279	C	1.261091	0.514702	1.197659
C280	C	0.594422	-0.151963	0.469069
C281	C	0.927755	0.181371	0.802402
C282	C	1.261089	0.514704	1.135736
C283	C	0.633370	-0.113041	0.438104
C284	C	0.966703	0.220293	0.771437
C285	C	1.300037	0.553626	1.104770
C286	C	0.633374	-0.113055	0.376199
C287	C	0.966707	0.220279	0.709532
C288	C	1.300041	0.553612	1.042865
N289	N	0.672316	-0.074131	0.345230
N290	N	1.005649	0.259202	0.678563
N291	N	1.338982	0.592535	1.011897
C292	C	0.711263	-0.035207	0.376180
C293	C	1.044596	0.298126	0.709513
C294	C	1.377930	0.631460	1.042847
C295	C	0.633396	-0.113036	0.753898
C296	C	0.966729	0.220298	1.087231
C297	C	1.300062	0.553631	1.420565
C298	C	0.633403	-0.113038	0.815816
C299	C	0.966737	0.220296	1.149149
C300	C	1.300070	0.553629	1.482482
C301	C	0.711296	-0.035188	0.815797
C302	C	1.044629	0.298146	1.149130
C303	C	1.377962	0.631479	1.482464
C304	C	0.711291	-0.035189	0.753878
C305	C	1.044624	0.298145	1.087212
C306	C	1.377957	0.631478	1.420545
C307	C	0.672338	-0.074112	0.722929
C308	C	1.005671	0.259221	1.056263
C309	C	1.339004	0.592554	1.389596
C310	C	0.711255	-0.035221	0.246153
C311	C	1.044589	0.298112	0.579486
C312	C	1.377922	0.631446	0.912819
C313	C	0.711251	-0.035231	0.184232
C314	C	1.044584	0.298102	0.517565
C315	C	1.377918	0.631436	0.850898
C316	C	0.633357	-0.113079	0.184256
C317	C	0.966690	0.220255	0.517589
C318	C	1.300023	0.553588	0.850922
C319	C	0.633363	-0.113071	0.246171
C320	C	0.966696	0.220262	0.579505
C321	C	1.300029	0.553596	0.912838
C322	C	0.672314	-0.074137	0.277118
C323	C	1.005648	0.259196	0.610452
C324	C	1.338981	0.592529	0.943785
O325	O	0.600281	-0.146152	0.344134
O326	O	0.933614	0.187181	0.677468
O327	O	1.266948	0.520515	1.010801
O328	O	0.744376	-0.002101	0.344146
O329	O	1.077709	0.331232	0.677479
O330	O	1.411042	0.664566	1.010812
H331	H	-0.034204	0.022699	0.000049
H332	H	0.299130	0.356033	0.333382
H333	H	0.632463	0.689366	0.666716
N334	N	0.832910	0.385913	0.000022
N335	N	1.166244	0.719246	0.333356
N336	N	1.499577	1.052579	0.666689
H337	H	0.835523	0.361583	0.036487
H338	H	1.168857	0.694917	0.369820
H339	H	1.502190	1.028250	0.703153
H340	H	0.865433	0.418257	-0.000003
H341	H	1.198766	0.751590	0.333330
H342	H	1.532099	1.084923	0.666664
H343	H	0.138359	0.072637	0.000052
H344	H	0.471692	0.405970	0.333385
H345	H	0.805026	0.739304	0.666718
H346	H	0.601694	-0.144738	0.841023
H347	H	0.935027	0.188596	1.174357
H348	H	1.268361	0.521929	1.507690
N349	N	0.560388	0.746111	0.000002
N350	N	0.893721	1.079445	0.333335
N351	N	1.227054	1.412778	0.666668
H352	H	0.557779	0.770438	-0.036466
H353	H	0.891112	1.103771	0.296868
H354	H	1.224445	1.437104	0.630201
H355	H	0.557801	0.770413	0.036489
H356	H	0.891135	1.103747	0.369823
H357	H	1.224468	1.437080	0.703156
H358	H	-0.059864	-0.165712	0.000019
H359	H	0.273470	0.167621	0.333352
H360	H	0.606803	0.500955	0.666686
H361	H	0.098525	-0.219610	0.000034
H362	H	0.431858	0.113723	0.333368
H363	H	0.765191	0.447057	0.666701
N364	N	-0.147942	0.037797	0.000045
N365	N	0.185391	0.371130	0.333378
N366	N	0.518725	0.704464	0.666712
H367	H	-0.134506	0.060379	-0.036416
H368	H	0.198827	0.393712	0.296917
H369	H	0.532161	0.727045	0.630251
H370	H	-0.134509	0.060320	0.036539
H371	H	0.198824	0.393653	0.369873
H372	H	0.532157	0.726987	0.703206
N373	N	0.591355	-0.155055	0.279567
N374	N	0.924688	0.178278	0.612900
N375	N	1.258022	0.511612	0.946233
H376	H	0.566263	-0.133417	0.305255
H377	H	0.899596	0.199916	0.638589
H378	H	1.232929	0.533250	0.971922
H379	H	0.613010	-0.180152	0.305224
H380	H	0.946343	0.153182	0.638557
H381	H	1.279677	0.486515	0.971891
H382	H	0.206274	-0.220904	0.000021
H383	H	0.539607	0.112429	0.333355
H384	H	0.872940	0.445762	0.666688
N385	N	0.566933	0.199662	0.000031
N386	N	0.900266	0.532995	0.333364
N387	N	1.233599	0.866328	0.666697
H388	H	0.534375	0.167350	0.000032
H389	H	0.867709	0.500684	0.333365
H390	H	1.201042	0.834017	0.666699
H391	H	0.564382	0.223992	-0.036441
H392	H	0.897715	0.557326	0.296892
H393	H	1.231048	0.890659	0.630226
N394	N	0.492572	-0.186071	-0.000012
N395	N	0.825906	0.147262	0.333322
N396	N	1.159239	0.480596	0.666655
H397	H	0.479135	-0.208652	0.036450
H398	H	0.812469	0.124682	0.369783
H399	H	1.145802	0.458015	0.703116
H400	H	0.535778	-0.178659	-0.000035
H401	H	0.869111	0.154674	0.333299
H402	H	1.202445	0.488007	0.666632
H403	H	0.601677	-0.144737	0.728702
H404	H	0.935010	0.188597	1.062035
H405	H	1.268344	0.521930	1.395369
H406	H	0.378846	-0.170964	0.000010
H407	H	0.712179	0.162370	0.333343
H408	H	1.045512	0.495703	0.666677
H409	H	0.246104	0.071347	0.000053
H410	H	0.579437	0.404680	0.333386
H411	H	0.912771	0.738013	0.666720
H412	H	0.562700	-0.183658	0.443873
H413	H	0.896033	0.149675	0.777207
H414	H	1.229367	0.483008	1.110540
N415	N	0.753272	0.006767	0.279523
N416	N	1.086606	0.340100	0.612856
N417	N	1.419939	0.673434	0.946189
H418	H	0.778364	-0.014869	0.305209
H419	H	1.111697	0.318464	0.638542
H420	H	1.445031	0.651797	0.971875
H421	H	0.731622	0.031871	0.305182
H422	H	1.064956	0.365205	0.638515
H423	H	1.398289	0.698538	0.971848
H424	H	0.743008	-0.003493	0.841008
H425	H	1.076341	0.329841	1.174341
H426	H	1.409675	0.663174	1.507675
N427	N	0.753298	0.006791	0.720482
N428	N	1.086632	0.340124	1.053815
N429	N	1.419965	0.673457	1.387149
H430	H	0.777971	0.031446	0.749490
H431	H	1.111304	0.364779	1.082823
H432	H	1.444637	0.698113	1.416157
H433	H	0.731640	0.031861	0.694797
H434	H	1.064973	0.365195	1.028130
H435	H	1.398307	0.698528	1.361464
H436	H	0.770443	0.111587	0.000055
H437	H	1.103777	0.444920	0.333388
H438	H	1.437110	0.778253	0.666721
H439	H	0.575496	0.632386	-0.000000
H440	H	0.908829	0.965719	0.333333
H441	H	1.242162	1.299053	0.666666
N442	N	0.552406	-0.193937	0.564381
N443	N	0.885739	0.139397	0.897714
N444	N	1.219073	0.472730	1.231047
H445	H	0.527731	-0.218586	0.535369
H446	H	0.861064	0.114748	0.868703
H447	H	1.194398	0.448081	1.202036
H448	H	0.527359	-0.172249	0.590067
H449	H	0.860692	0.161085	0.923400
H450	H	1.194026	0.494418	1.256734
H451	H	0.404515	0.017447	0.000033
H452	H	0.737848	0.350780	0.333366
H453	H	1.071181	0.684113	0.666700
N454	N	-0.177348	-0.178048	0.000014
N455	N	0.155985	0.155285	0.333347
N456	N	0.489319	0.488618	0.666681
H457	H	-0.218408	-0.169660	0.000017
H458	H	0.114925	0.163673	0.333350
H459	H	0.448258	0.497006	0.666684
H460	H	-0.170060	-0.200849	0.036479
H461	H	0.163273	0.132484	0.369812
H462	H	0.496607	0.465817	0.703146
H463	H	0.601648	-0.144772	0.159046
H464	H	0.934981	0.188561	0.492380
H465	H	1.268315	0.521894	0.825713
N466	N	0.511739	0.465796	-0.000008
N467	N	0.845072	0.799130	0.333326
N468	N	1.178406	1.132463	0.666659
H469	H	0.479187	0.433480	-0.000010
H470	H	0.812520	0.766813	0.333323
H471	H	1.145854	1.100146	0.666656
H472	H	0.509182	0.490132	-0.036475
H473	H	0.842515	0.823466	0.296859
H474	H	1.175849	1.156799	0.630192
H475	H	0.526850	0.352065	-0.000013
H476	H	0.860183	0.685399	0.333320
H477	H	1.193516	1.018732	0.666654
H478	H	0.742969	-0.003536	0.159021
H479	H	1.076303	0.329797	0.492355
H480	H	1.409636	0.663131	0.825688
H481	H	0.769159	0.219337	0.000034
H482	H	1.102492	0.552670	0.333368
H483	H	1.435825	0.886004	0.666701
N484	N	0.521997	0.029782	0.000032
N485	N	0.855330	0.363115	0.333365
N486	N	1.188663	0.696448	0.666698
H487	H	0.563057	0.021394	0.000030
H488	H	0.896390	0.354727	0.333363
H489	H	1.229724	0.688060	0.666697
H490	H	0.514703	0.052574	0.036503
H491	H	0.848036	0.385907	0.369836
H492	H	1.181370	0.719241	0.703169
H493	H	0.582043	0.085909	0.000037
H494	H	0.915376	0.419242	0.333370
H495	H	1.248709	0.752576	0.666704
N496	N	0.831434	0.509366	0.000025
N497	N	1.164768	0.842700	0.333359
N498	N	1.498101	1.176033	0.666692
H499	H	0.864653	0.486012	0.000031
H500	H	1.197987	0.819345	0.333364
H501	H	1.531320	1.152679	0.666698
H502	H	0.833396	0.534317	0.036494
H503	H	1.166729	0.867650	0.369827
H504	H	1.500063	1.200983	0.703161
H505	H	0.763906	0.658055	0.000018
H506	H	1.097239	0.991388	0.333351
H507	H	1.430573	1.324722	0.666684
H508	H	0.762610	0.765821	0.000010
H509	H	1.095943	1.099154	0.333344
H510	H	1.429276	1.432487	0.666677
N511	N	0.792221	0.045701	0.435655
N512	N	1.125555	0.379034	0.768988
N513	N	1.458888	0.712367	1.102322
H514	H	0.816890	0.070357	0.464665
H515	H	1.150223	0.403691	0.797998
H516	H	1.483557	0.737024	1.131332
H517	H	0.770562	0.070769	0.409969
H518	H	1.103895	0.404103	0.743302
H519	H	1.437228	0.737436	1.076636
H520	H	0.781933	0.035422	0.556159
H521	H	1.115266	0.368756	0.889492
H522	H	1.448600	0.702089	1.222825
