data_functionalizedCrystal
_audit_creation_method	'MofGen! by Chris Wilmer'
_symmetry_space_group_name_H-M	'P1'
_symmetry_Int_Tables_number	1
_symmetry_cell_setting	triclinic
loop_
_symmetry_equiv_pos_as_xyz
  x,y,z
_cell_length_a	16.959453
_cell_length_b	16.959455
_cell_length_c	19.805399
_cell_angle_alpha	89.982119
_cell_angle_beta	89.973253
_cell_angle_gamma	90.024249
loop_
_atom_site_label
_atom_site_type_symbol
_atom_site_fract_x
_atom_site_fract_y
_atom_site_fract_z
Zn1	Zn	-0.314712	1.208383	-0.382693
Zn2	Zn	0.185288	1.708383	0.117307
Zn3	Zn	-0.446894	1.208287	-0.269506
Zn4	Zn	0.053106	1.708287	0.230494
Zn5	Zn	-0.314732	1.076204	-0.269521
Zn6	Zn	0.185268	1.576204	0.230479
Zn7	Zn	-0.446851	1.076165	-0.382656
Zn8	Zn	0.053149	1.576165	0.117344
O9	O	-0.380797	1.142259	-0.326094
O10	O	0.119203	1.642259	0.173906
O11	O	-0.332256	1.318981	-0.367688
O12	O	0.167744	1.818981	0.132312
O13	O	-0.429390	1.190742	-0.174792
O14	O	0.070610	1.690742	0.325208
O15	O	-0.204119	1.093794	-0.284555
O16	O	0.295881	1.593794	0.215445
O17	O	-0.429370	1.318910	-0.284530
O18	O	0.070630	1.818910	0.215470
O19	O	-0.204104	1.190905	-0.367702
O20	O	0.295896	1.690905	0.132298
O21	O	-0.332291	1.093701	-0.174802
O22	O	0.167709	1.593701	0.325198
O23	O	-0.332249	0.965588	-0.284519
O24	O	0.167751	1.465588	0.215481
O25	O	-0.429296	1.093727	-0.477378
O26	O	0.070704	1.593727	0.022622
O27	O	-0.429316	0.965559	-0.367640
O28	O	0.070684	1.465559	0.132360
O29	O	-0.332214	1.190867	-0.477405
O30	O	0.167786	1.690867	0.022595
O31	O	-0.557500	1.190704	-0.284495
O32	O	-0.057500	1.690704	0.215505
O33	O	-0.557468	1.093635	-0.367626
O34	O	-0.057468	1.593635	0.132374
C35	C	-0.380780	0.936893	-0.326078
C36	C	0.119220	1.436893	0.173922
C37	C	-0.380792	0.849037	-0.326086
C38	C	0.119208	1.349037	0.173914
C39	C	-0.431283	0.807724	-0.282728
C40	C	0.068717	1.307724	0.217272
C41	C	-0.330307	0.807795	-0.369450
C42	C	0.169693	1.307795	0.130550
C43	C	-0.330314	0.725250	-0.369458
C44	C	0.169686	1.225250	0.130542
C45	C	-0.380804	0.683937	-0.326100
C46	C	0.119196	1.183937	0.173900
C47	C	-0.431289	0.725170	-0.282734
C48	C	0.068711	1.225170	0.217266
C49	C	-0.279825	0.684010	-0.412818
C50	C	0.220175	1.184010	0.087182
C51	C	-0.279828	0.601459	-0.412828
C52	C	0.220172	1.101459	0.087172
C53	C	-0.330323	0.560145	-0.369472
C54	C	0.169677	1.060145	0.130528
C55	C	-0.380810	0.601384	-0.326105
C56	C	0.119190	1.101384	0.173895
C57	C	-0.431301	0.560071	-0.282747
C58	C	0.068699	1.060071	0.217253
C59	C	-0.481793	0.601308	-0.239383
C60	C	0.018207	1.101308	0.260617
C61	C	-0.481784	0.683857	-0.239379
C62	C	0.018216	1.183857	0.260621
C63	C	-0.330332	0.477597	-0.369477
C64	C	0.169668	0.977597	0.130523
C65	C	-0.431307	0.477518	-0.282753
C66	C	0.068693	0.977518	0.217247
C67	C	-0.586164	1.142176	-0.326069
C68	C	-0.086164	1.642176	0.173931
C69	C	-0.674020	1.142213	-0.326081
C70	C	-0.174020	1.642213	0.173919
C71	C	-0.715307	1.091648	-0.369333
C72	C	-0.215307	1.591648	0.130667
C73	C	-0.715287	1.192817	-0.282845
C74	C	-0.215287	1.692817	0.217155
C75	C	-0.797833	1.192856	-0.282857
C76	C	-0.297833	1.692856	0.217143
C77	C	-0.839120	1.142291	-0.326109
C78	C	-0.339120	1.642291	0.173891
C79	C	-0.797860	1.091688	-0.369348
C80	C	-0.297860	1.591688	0.130652
C81	C	-0.839099	1.243464	-0.239623
C82	C	-0.339099	1.743464	0.260377
C83	C	-0.921650	1.243506	-0.239634
C84	C	-0.421650	1.743506	0.260366
C85	C	-0.962938	1.192937	-0.282883
C86	C	-0.462938	1.692937	0.217117
C87	C	-0.921673	1.142331	-0.326124
C88	C	-0.421673	1.642331	0.173876
C89	C	-0.962960	1.091766	-0.369375
C90	C	-0.462960	1.591766	0.130625
C91	C	-0.921697	1.041155	-0.412613
C92	C	-0.421697	1.541155	0.087387
C93	C	-0.839148	1.041119	-0.412597
C94	C	-0.339148	1.541119	0.087403
C95	C	-1.045486	1.192974	-0.282899
C96	C	-0.545486	1.692974	0.217101
C97	C	-1.045513	1.091806	-0.369391
C98	C	-0.545513	1.591806	0.130609
C99	C	-0.174629	1.142364	-0.326134
C100	C	0.325371	1.642364	0.173866
C101	C	-0.086773	1.142409	-0.326151
C102	C	0.413227	1.642409	0.173849
C103	C	-0.380748	1.142304	-0.502637
C104	C	0.119252	1.642304	-0.002637
C105	C	-0.380726	1.142323	-0.577869
C106	C	0.119274	1.642323	-0.077869
C107	C	-0.380815	1.348428	-0.326111
C108	C	0.119185	1.848428	0.173889
C109	C	-0.380823	1.436284	-0.326119
C110	C	0.119177	1.936284	0.173881
C111	C	-0.330173	1.192904	-0.613228
C112	C	0.169827	1.692904	-0.113228
C113	C	-0.330150	1.192913	-0.683917
C114	C	0.169850	1.692913	-0.183917
C115	C	-0.380685	1.142342	-0.719245
C116	C	0.119315	1.642342	-0.219245
C117	C	-0.431241	1.091755	-0.683881
C118	C	0.068759	1.591755	-0.183881
C119	C	-0.431259	1.091743	-0.613193
C120	C	0.068741	1.591743	-0.113193
C121	C	-0.431167	1.091799	-0.968954
C122	C	0.068833	1.591799	-0.468954
C123	C	-0.431146	1.091817	-1.039646
C124	C	0.068854	1.591817	-0.539646
C125	C	-0.330058	1.192969	-1.039677
C126	C	0.169942	1.692969	-0.539677
C127	C	-0.330077	1.192957	-0.968990
C128	C	0.169923	1.692957	-0.468990
C129	C	-0.380629	1.142367	-0.933632
C130	C	0.119371	1.642367	-0.433632
C131	C	-0.380652	1.142358	-0.856984
C132	C	0.119348	1.642358	-0.356984
C133	C	-0.380667	1.142355	-0.795892
C134	C	0.119333	1.642355	-0.295892
C135	C	-0.380790	1.142261	-0.150238
C136	C	0.119210	1.642261	0.349762
C137	C	-0.380589	1.142395	-0.075007
C138	C	0.119411	1.642395	0.424993
H139	H	-0.472394	0.841303	-0.247424
H140	H	0.027606	1.341303	0.252576
Br141	Br	-0.211308	0.545502	-0.471680
Br142	Br	0.288692	1.045502	0.028320
H143	H	-0.289024	1.234087	-0.584469
H144	H	0.210976	1.734087	-0.084469
Br145	Br	-0.783065	1.312093	-0.180936
Br146	Br	-0.283065	1.812093	0.319064
Br147	Br	-0.659256	1.261445	-0.224156
Br148	Br	-0.159256	1.761445	0.275844
Br149	Br	-0.499820	1.023118	-0.731825
Br150	Br	0.000180	1.523118	-0.231825
Br151	Br	-0.261576	1.261599	-0.731902
Br152	Br	0.238424	1.761599	-0.231902
Br153	Br	-0.977643	1.312190	-0.180955
Br154	Br	-0.477643	1.812190	0.319045
H155	H	-0.288929	1.234139	-0.940230
H156	H	0.211071	1.734139	-0.440230
H157	H	-0.472416	1.050546	-0.584405
H158	H	0.027584	1.550546	-0.084405
Br159	Br	-1.101483	1.261660	-0.224230
Br160	Br	-0.601483	1.761660	0.275770
H161	H	-0.522899	0.567661	-0.204078
H162	H	-0.022899	1.067661	0.295922
H163	H	-0.805547	0.999914	-0.447800
H164	H	-0.305547	1.499914	0.052200
H165	H	-0.288894	1.234159	-1.068474
H166	H	0.211106	1.734159	-0.568474
H167	H	-0.681708	1.050439	-0.404535
H168	H	-0.181708	1.550439	0.095465
H169	H	-0.238715	0.717653	-0.448115
H170	H	0.261285	1.217653	0.051885
H171	H	-0.472299	1.050633	-1.068408
H172	H	0.027701	1.550633	-0.568408
Br173	Br	-0.261783	0.863862	-0.428286
Br174	Br	0.238217	1.363862	0.071714
Br175	Br	-0.261805	0.421635	-0.428316
Br176	Br	0.238195	0.921635	0.071684
H177	H	-0.522890	0.717439	-0.204072
H178	H	-0.022890	1.217439	0.295928
Br179	Br	-0.499772	1.023140	-0.920977
Br180	Br	0.000228	1.523140	-0.420977
H181	H	-0.472427	0.443887	-0.247448
H182	H	0.027573	0.943887	0.252552
Br183	Br	-0.977738	0.972543	-0.471317
Br184	Br	-0.477738	1.472543	0.028683
Br185	Br	-1.101539	1.023172	-0.428087
Br186	Br	-0.601539	1.523172	0.071913
