data_functionalizedCrystal
_audit_creation_method	'MofGen! by Chris Wilmer'
_symmetry_space_group_name_H-M	'P1'
_symmetry_Int_Tables_number	1
_symmetry_cell_setting	triclinic
loop_
_symmetry_equiv_pos_as_xyz
  x,y,z
_cell_length_a	27.731994
_cell_length_b	27.732048
_cell_length_c	10.268362
_cell_angle_alpha	89.999087
_cell_angle_beta	90.007151
_cell_angle_gamma	97.368266
loop_
_atom_site_label
_atom_site_type_symbol
_atom_site_fract_x
_atom_site_fract_y
_atom_site_fract_z
O1	O	-0.057516	0.640916	0.108110
O2	O	-0.066262	0.500121	0.108146
O3	O	0.008510	0.574905	0.108146
O4	O	-0.132288	0.566133	0.108109
O5	O	0.008507	0.574898	-0.108454
O6	O	-0.066264	0.500114	-0.108455
O7	O	-0.057519	0.640909	-0.108491
Cu8	Cu	-0.061892	0.570511	-0.128250
Cu9	Cu	-0.061889	0.570520	0.127905
O10	O	-0.132290	0.566125	-0.108491
C11	C	-0.066080	0.482111	-0.000150
C12	C	-0.065527	0.428456	-0.000135
C13	C	-0.106232	0.089633	-0.000202
C14	C	-0.104181	-0.112026	-0.000213
O15	O	-0.141402	-0.143289	-0.000279
N16	N	-0.059844	-0.131141	-0.000199
C17	C	-0.016017	-0.099838	-0.000191
O18	O	0.021740	-0.120724	-0.000192
C19	C	-0.018069	0.101820	-0.000189
C20	C	-0.062408	0.120932	-0.000190
C21	C	-0.150567	0.108746	-0.000204
C22	C	-0.151080	0.159158	-0.000194
C23	C	-0.107256	0.190457	-0.000182
C24	C	-0.062920	0.171344	-0.000180
C25	C	0.025757	0.133122	-0.000190
C26	C	0.025240	0.183539	-0.000193
C27	C	-0.019099	0.202652	-0.000194
C28	C	-0.019609	0.253055	-0.000158
N29	N	-0.063946	0.272170	-0.000172
C30	C	-0.107769	0.240871	-0.000184
C31	C	-0.014943	-0.205712	-0.000189
C32	C	-0.014430	-0.256126	-0.000187
C33	C	-0.102594	-0.268311	-0.000212
C34	C	-0.103106	-0.217896	-0.000204
C35	C	-0.059280	-0.186597	-0.000203
C36	C	-0.108842	0.346740	-0.000162
C37	C	-0.109350	0.397157	-0.000147
C38	C	-0.021187	0.409337	-0.000129
C39	C	-0.020678	0.358925	-0.000137
C40	C	-0.064510	0.327627	-0.000158
O41	O	0.017592	0.284346	-0.000106
O42	O	-0.145522	0.261767	-0.000211
C43	C	-0.105719	0.039221	-0.000212
C44	C	-0.061384	0.020109	-0.000209
C45	C	-0.017560	0.051408	-0.000197
C46	C	-0.060871	-0.030306	-0.000207
C47	C	-0.104694	-0.061605	-0.000220
C48	C	-0.149030	-0.042490	-0.000234
C49	C	-0.149543	0.007922	-0.000224
C50	C	0.026776	0.032292	-0.000183
C51	C	0.027285	-0.018120	-0.000192
C52	C	-0.016539	-0.049419	-0.000204
C53	C	-0.150296	0.566309	-0.000196
C54	C	-0.203953	0.566852	-0.000211
C55	C	-0.536670	0.570271	0.117915
C56	C	-0.738328	0.572332	0.117933
O57	O	-0.764399	0.572623	0.218347
N58	N	-0.763544	0.572584	-0.000135
C59	C	-0.738342	0.572324	-0.118217
O60	O	-0.764417	0.572591	-0.218641
C61	C	-0.536685	0.570266	-0.118234
C62	C	-0.511472	0.570009	-0.000158
C63	C	-0.511456	0.570014	0.235981
C64	C	-0.461045	0.569496	0.235975
C65	C	-0.435847	0.569235	0.117903
C66	C	-0.461060	0.569491	-0.000164
C67	C	-0.511483	0.570010	-0.236314
C68	C	-0.461065	0.569497	-0.236308
C69	C	-0.435852	0.569240	-0.118232
C70	C	-0.385451	0.568712	-0.118242
N71	N	-0.360235	0.568460	-0.000173
C72	C	-0.385433	0.568721	0.117899
C73	C	-0.844216	0.573404	-0.118199
C74	C	-0.894630	0.573917	-0.118195
C75	C	-0.894612	0.573926	0.117955
C76	C	-0.844197	0.573409	0.117950
C77	C	-0.818999	0.573152	-0.000131
C78	C	-0.279566	0.567633	0.117878
C79	C	-0.229151	0.567113	0.117861
C80	C	-0.229173	0.567107	-0.118288
C81	C	-0.279584	0.567624	-0.118273
C82	C	-0.304779	0.567889	-0.000179
O83	O	-0.359348	0.568426	-0.218603
O84	O	-0.359348	0.568465	0.218308
C85	C	-0.587081	0.570789	0.117921
C86	C	-0.612294	0.571045	-0.000146
C87	C	-0.587096	0.570784	-0.118218
C88	C	-0.662708	0.571559	-0.000142
C89	C	-0.687906	0.571821	0.117930
C90	C	-0.662690	0.571568	0.235999
C91	C	-0.612279	0.571050	0.235993
C92	C	-0.612312	0.571036	-0.236287
C93	C	-0.662723	0.571553	-0.236271
C94	C	-0.687921	0.571815	-0.118199
C95	C	0.026516	0.574721	-0.000146
C96	C	0.080172	0.574179	-0.000123
C97	C	-0.057701	0.658920	-0.000193
C98	C	-0.058254	0.712575	-0.000199
N99	N	-0.061894	0.570509	-0.308416
C100	C	-0.061894	0.570512	-0.426258
C101	C	-0.061889	0.570518	-0.574096
N102	N	-0.061883	0.570526	0.308071
H103	H	-0.185648	0.023478	-0.000226
H104	H	-0.186256	0.083267	-0.000218
H105	H	-0.683215	0.571778	0.332138
N106	N	-0.203421	0.566836	-0.238879
N107	N	-0.158409	0.566376	-0.238852
H108	H	-0.140220	0.566187	-0.324020
H109	H	0.014493	0.434830	-0.000114
H110	H	0.020747	-0.180232	-0.000188
N111	N	-0.193791	-0.074473	-0.000239
N112	N	-0.193320	-0.119484	-0.000247
H113	H	-0.224930	-0.142075	-0.000257
H114	H	-0.591801	0.570824	-0.332438
N115	N	0.072584	-0.037631	-0.000175
N116	N	0.111706	-0.009674	-0.000165
H117	H	0.143699	-0.023451	-0.000162
N118	N	0.071548	0.064253	-0.000176
N119	N	0.111127	0.047174	-0.000166
H120	H	0.142750	0.069744	-0.000155
N121	N	0.071054	0.113616	-0.000183
N122	N	0.110174	0.141576	-0.000180
H123	H	0.142168	0.127802	-0.000176
H124	H	-0.683248	0.571758	-0.332430
H125	H	-0.208625	0.566902	0.214017
H126	H	-0.915137	0.574136	0.214095
H127	H	-0.138276	-0.293803	-0.000222
H128	H	-0.300074	0.567849	0.214041
N129	N	-0.435302	0.569235	0.356600
N130	N	-0.457815	0.569469	0.462004
H131	H	-0.439637	0.569286	0.547203
H132	H	0.021675	-0.271683	-0.000166
H133	H	-0.531967	0.570229	0.332135
H134	H	-0.823672	0.573199	0.214098
H135	H	-0.591755	0.570841	0.332143
H136	H	-0.915155	0.574118	-0.214345
N137	N	-0.154648	0.416671	-0.000138
N138	N	-0.193772	0.388716	-0.000151
H139	H	-0.225763	0.402495	-0.000146
N140	N	-0.537222	0.570272	-0.356940
N141	N	-0.514707	0.570043	-0.462341
H142	H	-0.532884	0.570229	-0.547542
H143	H	-0.139211	-0.202338	-0.000212
H144	H	0.015426	0.343363	-0.000118
N145	N	-0.153618	0.314782	-0.000190
N146	N	-0.193197	0.331862	-0.000193
H147	H	-0.224821	0.309292	-0.000208
H148	H	0.060930	0.209021	-0.000193
H149	H	-0.440552	0.569287	-0.332466
H150	H	-0.823704	0.573194	-0.214360
N151	N	-0.305336	0.567874	-0.238893
N152	N	-0.282830	0.567635	-0.344305
H153	H	-0.301013	0.567814	-0.429497
H154	H	-0.187185	0.174714	-0.000194
