data_functionalizedCrystal
_audit_creation_method	'MofGen! by Chris Wilmer'
_symmetry_space_group_name_H-M	'P1'
_symmetry_Int_Tables_number	1
_symmetry_cell_setting	triclinic
loop_
_symmetry_equiv_pos_as_xyz
  x,y,z
_cell_length_a	14.044191
_cell_length_b	14.044220
_cell_length_c	7.681481
_cell_angle_alpha	96.267166
_cell_angle_beta	83.749037
_cell_angle_gamma	93.190327
loop_
_atom_site_label
_atom_site_type_symbol
_atom_site_fract_x
_atom_site_fract_y
_atom_site_fract_z
O1	O	1.268914	0.238471	0.146353
O2	O	0.992240	0.230159	0.146375
O3	O	1.126425	0.095978	0.146347
O4	O	1.134729	0.372652	0.146381
O5	O	1.142938	0.079422	-0.146514
O6	O	1.008753	0.213603	-0.146486
O7	O	1.285427	0.221915	-0.146508
Zn8	Zn	1.149711	0.215130	-0.192995
Zn9	Zn	1.127956	0.236944	0.192862
O10	O	1.151242	0.356096	-0.146480
C11	C	0.964875	0.218245	-0.000053
C12	C	0.858731	0.207398	-0.000045
C13	C	0.613273	0.264498	-0.000055
C14	C	0.664399	0.187581	-0.000062
C15	C	0.772535	0.198610	-0.000052
C16	C	0.505127	0.253471	-0.000065
C17	C	1.131046	0.052078	-0.000084
C18	C	1.120201	-0.054065	-0.000085
C19	C	1.100374	-0.248402	-0.000058
C20	C	1.177288	-0.299530	-0.000059
C21	C	1.166256	-0.407665	-0.000044
C22	C	1.111405	-0.140256	-0.000073
C23	C	1.312792	0.233829	-0.000076
C24	C	1.418935	0.244677	-0.000072
C25	C	1.146621	0.399996	-0.000045
C26	C	1.157465	0.506140	-0.000032
N27	N	1.164566	0.200243	-0.456332
N28	N	1.113108	0.251824	0.456200
H29	H	0.626949	0.113455	0.000053
N30	N	1.043518	0.321563	-0.444205
H31	H	1.079346	0.371178	-0.367696
H32	H	0.993844	0.285754	-0.367831
H33	H	1.217106	0.147599	-0.531549
H34	H	0.650713	0.338625	-0.000041
H35	H	1.251416	-0.262082	0.000053
H36	H	1.026245	-0.285840	-0.000048
