data_functionalizedCrystal
_audit_creation_method	'MofGen! by Chris Wilmer'
_symmetry_space_group_name_H-M	'P1'
_symmetry_Int_Tables_number	1
_symmetry_cell_setting	triclinic
loop_
_symmetry_equiv_pos_as_xyz
  x,y,z
_cell_length_a	12.759395
_cell_length_b	12.759394
_cell_length_c	11.169417
_cell_angle_alpha	90.009796
_cell_angle_beta	90.002739
_cell_angle_gamma	90.015525
loop_
_atom_site_label
_atom_site_type_symbol
_atom_site_fract_x
_atom_site_fract_y
_atom_site_fract_z
Zn1	Zn	1.606074	-0.418419	0.678584
Zn2	Zn	1.606021	-0.594068	0.477893
Zn3	Zn	1.430429	-0.418406	0.477912
Zn4	Zn	1.430364	-0.594058	0.678532
O5	O	1.518222	-0.506238	0.578230
O6	O	1.753088	-0.441728	0.651976
O7	O	1.582734	-0.570766	0.309946
O8	O	1.453778	-0.271387	0.504561
O9	O	1.753049	-0.570778	0.504530
O10	O	1.582824	-0.271396	0.651994
O11	O	1.453727	-0.441707	0.309960
O12	O	1.283400	-0.441697	0.504510
O13	O	1.453667	-0.570760	0.846488
O14	O	1.283352	-0.570748	0.651905
O15	O	1.582760	-0.441718	0.846527
O16	O	1.582671	-0.741088	0.504479
O17	O	1.453616	-0.741081	0.651887
C18	C	1.245255	-0.506221	0.578205
C19	C	1.128478	-0.506239	0.578222
C20	C	0.909043	-0.640861	0.731501
C21	C	0.963909	-0.708150	0.808112
C22	C	1.073631	-0.708137	0.808097
C23	C	1.128489	-0.640830	0.731460
C24	C	1.073623	-0.573541	0.654849
C25	C	0.963898	-0.573559	0.654875
C26	C	1.073612	-0.438950	0.501611
C27	C	0.963890	-0.438956	0.501631
C28	C	1.128470	-0.371643	0.424974
C29	C	1.073603	-0.304347	0.348367
C30	C	0.963875	-0.304362	0.348386
C31	C	0.909024	-0.371667	0.425020
C32	C	1.518159	-0.779205	0.578201
C33	C	1.518228	-0.895982	0.578229
C34	C	1.652714	-0.895937	0.424848
C35	C	1.719984	-0.950775	0.348172
C36	C	1.720045	-1.060496	0.348204
C37	C	1.652832	-1.115382	0.424924
C38	C	1.585562	-1.060544	0.501600
C39	C	1.585505	-0.950820	0.501557
C40	C	1.451083	-1.060590	0.654985
C41	C	1.451015	-0.950868	0.654949
C42	C	1.383870	-1.115476	0.731705
C43	C	1.316593	-1.060638	0.808377
C44	C	1.316533	-0.950909	0.808341
C45	C	1.383745	-0.896030	0.731625
C46	C	1.792256	-0.506256	0.578257
C47	C	1.909032	-0.506263	0.578268
C48	C	1.518212	-0.506239	0.891273
C49	C	1.518208	-0.506240	1.024672
C50	C	1.518314	-0.232204	0.578286
C51	C	1.518353	-0.115428	0.578309
C52	C	1.518220	-0.506255	1.266406
C53	C	1.518211	-0.506242	1.133006
H54	H	0.819702	-0.640868	0.731534
C55	C	1.133985	-0.782158	0.892372
N56	N	1.179444	-0.837909	0.955850
H57	H	1.383696	-0.806689	0.731580
H58	H	1.118277	-0.249556	0.285970
H59	H	1.652657	-0.806596	0.424798
H60	H	0.919210	-0.249568	0.285999
C61	C	0.788327	-0.371689	0.425049
N62	N	0.697417	-0.371711	0.425072
H63	H	0.919232	-0.762952	0.870506
H64	H	1.217830	-0.640835	0.731443
C65	C	1.793912	-0.890392	0.263780
N66	N	1.849595	-0.844915	0.200217
C67	C	1.794045	-1.120820	0.263857
N68	N	1.849780	-1.166255	0.200324
H69	H	1.652897	-1.204723	0.424954
C70	C	1.383937	-1.236172	0.731736
N71	N	1.383982	-1.327083	0.731757
H72	H	1.261878	-1.105334	0.870842
H73	H	1.261758	-0.906266	0.870784
H74	H	1.217811	-0.371642	0.424961
