data_functionalizedCrystal
_audit_creation_method	'MofGen! by Chris Wilmer'
_symmetry_space_group_name_H-M	'P1'
_symmetry_Int_Tables_number	1
_symmetry_cell_setting	triclinic
loop_
_symmetry_equiv_pos_as_xyz
  x,y,z
_cell_length_a	15.297327
_cell_length_b	12.759395
_cell_length_c	12.759387
_cell_angle_alpha	90.020509
_cell_angle_beta	99.642565
_cell_angle_gamma	80.291962
loop_
_atom_site_label
_atom_site_type_symbol
_atom_site_fract_x
_atom_site_fract_y
_atom_site_fract_z
Zn1	Zn	-0.359077	-1.533819	-0.666313
Zn2	Zn	-0.509964	-1.503266	-0.521018
Zn3	Zn	-0.359126	-1.358107	-0.490660
Zn4	Zn	-0.509900	-1.327678	-0.696644
O5	O	-0.434517	-1.430717	-0.593659
O6	O	-0.379099	-1.676786	-0.647051
O7	O	-0.490002	-1.483958	-0.369979
O8	O	-0.232874	-1.406937	-0.488562
O9	O	-0.489955	-1.654338	-0.540303
O10	O	-0.232838	-1.536031	-0.617614
O11	O	-0.379183	-1.377311	-0.347675
O12	O	-0.379120	-1.207051	-0.517973
O13	O	-0.489845	-1.355076	-0.839632
O14	O	-0.489893	-1.184695	-0.669309
O15	O	-0.379037	-1.506526	-0.817348
O16	O	-0.636201	-1.454452	-0.569714
O17	O	-0.636154	-1.325449	-0.698746
C18	C	-0.434506	-1.157752	-0.593639
C19	C	-0.434523	-1.040972	-0.593659
C20	C	-0.668911	-1.383362	-0.640838
C21	C	-0.769187	-1.363199	-0.661057
C22	C	-0.434428	-1.430815	-0.867675
C23	C	-0.434391	-1.430856	-0.984444
C24	C	-1.051818	-1.575257	-0.449512
C25	C	-0.957605	-1.594200	-0.430510
C26	C	-0.910495	-1.536452	-0.488145
C27	C	-0.957609	-1.459756	-0.564785
C28	C	-1.051832	-1.440805	-0.583783
C29	C	-0.910509	-1.402000	-0.622416
C30	C	-0.957623	-1.325305	-0.699056
C31	C	-1.051836	-1.306358	-0.718051
C32	C	-1.098945	-1.364106	-0.660416
C33	C	-0.816286	-1.420952	-0.603419
C34	C	-0.816300	-1.286500	-0.737690
C35	C	-0.910513	-1.267557	-0.756692
C36	C	-0.199207	-1.478287	-0.546318
C37	C	-0.098932	-1.498558	-0.526145
C38	C	-0.434528	-1.704749	-0.593680
C39	C	-0.434533	-1.821524	-0.593689
C40	C	-0.550057	-1.017694	-0.751065
C41	C	-0.607831	-0.951193	-0.829773
C42	C	-0.607842	-0.841469	-0.829788
C43	C	-0.550070	-0.798245	-0.751089
C44	C	-0.492296	-0.864747	-0.672381
C45	C	-0.492294	-0.974471	-0.672373
C46	C	-0.376759	-0.888026	-0.514982
C47	C	-0.376751	-0.997749	-0.514960
C48	C	-0.318988	-0.844802	-0.436283
C49	C	-0.261217	-0.911303	-0.357569
C50	C	-0.261209	-1.021033	-0.357556
C51	C	-0.318977	-1.064250	-0.436253
C52	C	-0.319013	-1.588569	-0.961261
C53	C	-0.261311	-1.667443	-1.004527
C54	C	-0.261278	-1.667475	-1.114242
C55	C	-0.318952	-1.588623	-1.180694
C56	C	-0.376654	-1.509749	-1.137428
C57	C	-0.376682	-1.509727	-1.027709
C58	C	-0.492025	-1.352034	-1.160610
C59	C	-0.492064	-1.352004	-1.050896
C60	C	-0.549699	-1.273182	-1.227062
C61	C	-0.607407	-1.194310	-1.183796
C62	C	-0.607438	-1.194282	-1.074074
C63	C	-0.549766	-1.273130	-1.007629
C64	C	-0.434540	-1.430694	-0.320696
C65	C	-0.434323	-1.430908	-0.203876
H66	H	-0.777935	-1.483397	-0.541017
Br67	Br	-0.182813	-0.852639	-0.250783
H68	H	-0.654356	-1.130111	-1.237908
Br69	Br	-0.686241	-0.751214	-0.936613
Br70	Br	-0.686236	-1.009856	-0.936569
H71	H	-0.550060	-1.107034	-0.751055
H72	H	-0.550077	-0.708903	-0.751116
Br73	Br	-0.182790	-1.111278	-0.250740
Br74	Br	-0.318994	-0.695892	-0.436309
Br75	Br	-0.752374	-1.208112	-0.815904
Br76	Br	-0.782633	-1.562479	-0.462674
Br77	Br	-0.318977	-1.213159	-0.436236
H78	H	-0.654417	-1.130044	-1.038852
Br79	Br	-0.319070	-1.588546	-0.812363
H80	H	-0.919248	-1.656644	-0.368109
Br81	Br	-0.183017	-1.774426	-0.914335
Br82	Br	-0.182950	-1.774501	-1.172963
H83	H	-0.318912	-1.588649	-1.270028
Br84	Br	-0.549810	-1.273104	-0.858729
H85	H	-0.549665	-1.273210	-1.316396
Br86	Br	-1.115755	-1.653615	-0.371297
H87	H	-1.090193	-1.243895	-0.780444
Br88	Br	-1.226811	-1.337929	-0.685730
H89	H	-0.948887	-1.205110	-0.819092
