data_functionalizedCrystal
_audit_creation_method	'MofGen! by Chris Wilmer'
_symmetry_space_group_name_H-M	'P1'
_symmetry_Int_Tables_number	1
_symmetry_cell_setting	triclinic
loop_
_symmetry_equiv_pos_as_xyz
  x,y,z
_cell_length_a	13.897449
_cell_length_b	25.639239
_cell_length_c	13.897441
_cell_angle_alpha	90.034859
_cell_angle_beta	90.023394
_cell_angle_gamma	90.040111
loop_
_atom_site_label
_atom_site_type_symbol
_atom_site_fract_x
_atom_site_fract_y
_atom_site_fract_z
Zn1	Zn	1.474558	-0.208123	0.545421
Zn2	Zn	1.974558	0.291877	1.045421
Zn3	Zn	1.474391	-0.295565	0.384110
Zn4	Zn	1.974391	0.204435	0.884110
Zn5	Zn	1.313247	-0.208147	0.384132
Zn6	Zn	1.813247	0.291853	0.884132
Zn7	Zn	1.313168	-0.295530	0.545356
Zn8	Zn	1.813168	0.204470	1.045356
O9	O	1.393841	-0.251841	0.464755
O10	O	1.893841	0.248159	0.964755
O11	O	1.609517	-0.219727	0.524041
O12	O	2.109517	0.280273	1.024041
O13	O	1.452978	-0.283994	0.249132
O14	O	1.952978	0.216006	0.749132
O15	O	1.334748	-0.134978	0.405564
O16	O	1.834748	0.365022	0.905564
O17	O	1.609395	-0.283970	0.405527
O18	O	2.109395	0.216030	0.905527
O19	O	1.453263	-0.134961	0.524062
O20	O	1.953263	0.365039	1.024062
O21	O	1.334586	-0.219768	0.249147
O22	O	1.834586	0.280232	0.749147
O23	O	1.178255	-0.219734	0.405500
O24	O	1.678255	0.280266	0.905500
O25	O	1.334613	-0.283910	0.680346
O26	O	1.834613	0.216090	1.180346
O27	O	1.178197	-0.283934	0.523950
O28	O	1.678197	0.216066	1.023950
O29	O	1.453186	-0.219693	0.680394
O30	O	1.953186	0.280307	1.180394
O31	O	1.452902	-0.368726	0.405464
O32	O	1.952902	0.131274	0.905464
O33	O	1.334452	-0.368700	0.523930
O34	O	1.834452	0.131300	1.023930
C35	C	1.143227	-0.251833	0.464721
C36	C	1.643227	0.248167	0.964721
C37	C	1.036013	-0.251842	0.464730
C38	C	1.536013	0.248158	0.964730
C39	C	0.948943	-0.251844	0.464746
C40	C	1.448943	0.248156	0.964746
C41	C	0.839711	-0.251848	0.464775
C42	C	1.339711	0.248152	0.964775
C43	C	1.393676	-0.387684	0.464708
C44	C	1.893676	0.112316	0.964708
C45	C	1.393694	-0.445798	0.464720
C46	C	1.893694	0.054202	0.964720
C47	C	1.332152	-0.696990	0.526420
C48	C	1.832152	-0.196990	1.026420
C49	C	1.332117	-0.642386	0.526409
C50	C	1.832117	-0.142386	1.026409
O51	O	1.279634	-0.614148	0.578837
O52	O	1.779634	-0.114148	1.078837
N53	N	1.393815	-0.615072	0.464771
N54	N	1.893815	-0.115072	0.964771
C55	C	1.455560	-0.642364	0.403147
C56	C	1.955560	-0.142364	0.903147
O57	O	1.508037	-0.614118	0.350718
O58	O	2.008037	-0.114118	0.850718
C59	C	1.455600	-0.696968	0.403163
C60	C	1.955600	-0.196968	0.903163
C61	C	1.393891	-0.724279	0.464799
C62	C	1.893891	-0.224279	0.964799
C63	C	1.270449	-0.724302	0.588052
C64	C	1.770449	-0.224302	1.088052
C65	C	1.270483	-0.778902	0.588061
C66	C	1.770483	-0.278902	1.088061
C67	C	1.332222	-0.806191	0.526440
C68	C	1.832222	-0.306191	1.026440
C69	C	1.393926	-0.778880	0.464809
C70	C	1.893926	-0.278880	0.964809
C71	C	1.517350	-0.724260	0.341545
C72	C	2.017350	-0.224260	0.841545
C73	C	1.517385	-0.778867	0.341567
C74	C	2.017385	-0.278867	0.841567
C75	C	1.455675	-0.806178	0.403203
C76	C	1.955675	-0.306178	0.903203
C77	C	1.455699	-0.860769	0.403197
C78	C	1.955699	-0.360769	0.903197
N79	N	1.394000	-0.888084	0.464835
N80	N	1.894000	-0.388084	0.964835
C81	C	1.332262	-0.860795	0.526457
C82	C	1.832262	-0.360795	1.026457
C83	C	1.455473	-0.527694	0.403117
C84	C	1.955473	-0.027694	0.903117
C85	C	1.455429	-0.473092	0.403095
C86	C	1.955429	0.026908	0.903095
C87	C	1.331986	-0.473117	0.526359
C88	C	1.831986	0.026883	1.026359
C89	C	1.332026	-0.527720	0.526376
C90	C	1.832026	-0.027720	1.026376
C91	C	1.393775	-0.555008	0.464756
C92	C	1.893775	-0.055008	0.964756
C93	C	1.332339	-0.975460	0.526472
C94	C	1.832339	-0.475460	1.026472
C95	C	1.332376	-1.030065	0.526473
C96	C	1.832376	-0.530065	1.026473
C97	C	1.455822	-1.030035	0.403213
C98	C	1.955822	-0.530035	0.903213
C99	C	1.455781	-0.975434	0.403208
C100	C	1.955781	-0.475434	0.903208
C101	C	1.394037	-0.948148	0.464845
C102	C	1.894037	-0.448148	0.964845
O103	O	1.508158	-0.889041	0.350799
O104	O	2.008158	-0.389041	0.850799
O105	O	1.279803	-0.889048	0.578885
O106	O	1.779803	-0.389048	1.078885
C107	C	1.645434	-0.251850	0.464789
C108	C	2.145434	0.248150	0.964789
C109	C	1.752648	-0.251853	0.464804
C110	C	2.252648	0.248147	0.964804
C111	C	1.393909	-0.251795	0.716348
C112	C	1.893909	0.248205	1.216348
C113	C	1.393939	-0.251775	0.823562
C114	C	1.893939	0.248225	1.323562
C115	C	1.394033	-0.115468	0.464823
C116	C	1.894033	0.384532	0.964823
C117	C	1.394115	-0.057354	0.464852
C118	C	1.894115	0.442646	0.964852
C119	C	1.393828	-0.251849	0.214140
C120	C	1.893828	0.248151	0.714140
C121	C	1.393986	-0.251722	0.106927
C122	C	1.893986	0.248278	0.606927
C123	C	1.393965	-0.251740	1.019857
C124	C	1.893965	0.248260	1.519857
C125	C	1.393947	-0.251761	0.910625
C126	C	1.893947	0.248239	1.410625
H127	H	1.282123	-1.052300	0.576666
H128	H	1.782123	-0.552300	1.076666
O129	O	1.584006	-0.808296	0.275118
O130	O	2.084006	-0.308296	0.775118
H131	H	1.573682	-0.850854	0.285487
H132	H	2.073682	-0.350854	0.785487
O133	O	1.522439	-1.059472	0.336779
O134	O	2.022439	-0.559472	0.836779
H135	H	1.512108	-1.102029	0.347165
H136	H	2.012108	-0.602029	0.847165
H137	H	1.282062	-0.953249	0.576663
H138	H	1.782062	-0.453249	1.076663
O139	O	1.521986	-0.443640	0.336611
O140	O	2.021986	0.056360	0.836611
H141	H	1.571021	-0.418718	0.379826
H142	H	2.071021	0.081282	0.879826
O143	O	1.522339	-0.945966	0.336743
O144	O	2.022339	-0.445966	0.836743
H145	H	1.505861	-0.956477	0.261017
H146	H	2.005861	-0.456477	0.761017
O147	O	1.203935	-0.808357	0.654549
O148	O	1.703935	-0.308357	1.154549
H149	H	1.161012	-0.780201	0.697398
H150	H	1.661012	-0.280201	1.197398
O151	O	1.203853	-0.694871	0.654516
O152	O	1.703853	-0.194871	1.154516
H153	H	1.154787	-0.670040	0.611285
H154	H	1.654787	-0.170040	1.111285
O155	O	1.265385	-0.443681	0.592821
O156	O	1.765385	0.056319	1.092821
H157	H	1.281884	-0.454122	0.668546
H158	H	1.781884	0.045878	1.168546
H159	H	1.505754	-0.549908	0.352931
H160	H	2.005754	-0.049908	0.852931
H161	H	1.281782	-0.549954	0.576570
H162	H	1.781782	-0.049954	1.076570
H163	H	1.567600	-0.702030	0.291356
H164	H	2.067600	-0.202030	0.791356
