data_functionalizedCrystal
_audit_creation_method	'MofGen! by Chris Wilmer'
_symmetry_space_group_name_H-M	'P1'
_symmetry_Int_Tables_number	1
_symmetry_cell_setting	triclinic
loop_
_symmetry_equiv_pos_as_xyz
  x,y,z
_cell_length_a	10.489711
_cell_length_b	10.489716
_cell_length_c	9.130313
_cell_angle_alpha	90.002761
_cell_angle_beta	89.998208
_cell_angle_gamma	84.528072
loop_
_atom_site_label
_atom_site_type_symbol
_atom_site_fract_x
_atom_site_fract_y
_atom_site_fract_z
O1	O	1.694053	0.179783	-0.121838
O2	O	1.322851	0.196716	-0.121828
O3	O	1.516914	0.002649	-0.121838
O4	O	1.499989	0.373851	-0.121827
O5	O	1.516912	0.002654	0.121760
O6	O	1.322848	0.196721	0.121771
O7	O	1.694050	0.179789	0.121761
Cu8	Cu	1.508449	0.188255	0.144008
Cu9	Cu	1.508452	0.188249	-0.144075
O10	O	1.499986	0.373856	0.121771
C11	C	1.275317	0.195448	-0.000027
C12	C	1.133686	0.191646	-0.000024
C13	C	0.951289	0.308352	-0.000038
C14	C	1.043441	0.250053	-0.120144
C15	C	1.043412	0.250027	0.120025
C16	C	0.973501	0.126509	-0.120261
C17	C	0.973462	0.126500	0.120016
C18	C	1.065587	0.068111	-0.000120
C19	C	1.515642	-0.044880	-0.000043
C20	C	1.511837	-0.186511	-0.000057
C21	C	1.630843	-0.284198	-0.000047
C22	C	1.567959	-0.361554	-0.120148
C23	C	1.567929	-0.361513	0.120021
C24	C	1.449002	-0.262002	-0.120257
C25	C	1.448990	-0.261956	0.120020
C26	C	1.386018	-0.339263	-0.000111
C27	C	1.741584	0.181057	-0.000043
C28	C	1.883215	0.184859	-0.000056
C29	C	1.501259	0.421385	-0.000027
C30	C	1.505064	0.563016	-0.000023
N31	N	1.508456	0.188259	0.346631
N32	N	1.508455	0.188236	-0.346698
C33	C	1.594410	0.102356	0.423278
C34	C	1.594407	0.102340	0.576615
C35	C	1.422492	0.274143	0.576644
C36	C	1.422490	0.274151	0.423310
C37	C	1.680377	0.016464	0.346600
C38	C	1.766338	-0.069446	0.423247
C39	C	1.766335	-0.069461	0.576584
C40	C	1.680370	0.016433	0.653273
H41	H	0.901590	0.409854	-0.000154
H42	H	1.680390	0.016471	0.221745
O43	O	1.627696	-0.413285	0.241313
C44	C	1.566108	-0.360534	0.367749
H45	H	1.463519	-0.322834	0.339556
H46	H	1.565167	-0.437555	0.455724
H47	H	1.619834	-0.278560	0.410208
O48	O	0.936679	0.064434	-0.241653
C49	C	0.851666	0.147834	-0.324778
H50	H	0.867293	0.251258	-0.297550
H51	H	0.870171	0.129722	-0.446391
H52	H	0.748794	0.129960	-0.297613
O53	O	1.124561	-0.053107	-0.000453
C54	C	1.088881	-0.117729	-0.127237
H55	H	1.056253	-0.044809	-0.215347
H56	H	1.174401	-0.182745	-0.169152
H57	H	1.007139	-0.177889	-0.099734
H58	H	1.836321	-0.139385	0.360799
H59	H	1.618197	-0.405057	-0.221690
H60	H	1.074432	0.302307	-0.221678
H61	H	1.352497	0.344101	0.360903
H62	H	1.836319	-0.139420	0.638989
H63	H	1.680365	0.016405	0.778131
O64	O	1.080295	0.312195	0.241322
C65	C	1.042883	0.248168	0.367752
H66	H	1.030405	0.144220	0.339549
H67	H	1.119625	0.251391	0.455728
H68	H	0.948371	0.297116	0.410214
O69	O	0.936240	0.064613	0.241339
C70	C	0.850339	0.147992	0.323405
H71	H	0.803610	0.226062	0.248709
H72	H	0.773299	0.091699	0.373218
H73	H	0.904643	0.193633	0.414646
H74	H	1.734358	-0.259532	-0.000171
O75	O	1.389331	-0.210320	-0.241650
C76	C	1.476777	-0.146176	-0.324779
H77	H	1.578674	-0.186873	-0.297546
H78	H	1.457798	-0.160160	-0.446391
H79	H	1.464569	-0.039628	-0.297623
O80	O	1.262489	-0.368567	-0.000372
C81	C	1.240436	-0.441540	-0.125957
H82	H	1.335268	-0.490627	-0.167316
H83	H	1.173267	-0.517041	-0.097082
H84	H	1.194939	-0.375962	-0.215021
H85	H	1.352503	0.344076	0.639094
O86	O	1.389115	-0.210234	0.241270
C87	C	1.344433	-0.308524	0.327021
H88	H	1.402521	-0.403210	0.300821
H89	H	1.355530	-0.285195	0.448034
H90	H	1.239118	-0.316647	0.301553
