data_functionalizedCrystal
_audit_creation_method	'MofGen! by Chris Wilmer'
_symmetry_space_group_name_H-M	'P1'
_symmetry_Int_Tables_number	1
_symmetry_cell_setting	triclinic
loop_
_symmetry_equiv_pos_as_xyz
  x,y,z
_cell_length_a	23.532361
_cell_length_b	23.532407
_cell_length_c	10.268362
_cell_angle_alpha	89.990068
_cell_angle_beta	89.999693
_cell_angle_gamma	82.839173
loop_
_atom_site_label
_atom_site_type_symbol
_atom_site_fract_x
_atom_site_fract_y
_atom_site_fract_z
O1	O	0.755277	0.069009	-0.108183
O2	O	0.589410	0.079040	-0.108216
O3	O	0.677345	-0.008908	-0.108174
O4	O	0.667341	0.156957	-0.108224
O5	O	0.677337	-0.008912	0.108426
O6	O	0.589402	0.079036	0.108385
O7	O	0.755269	0.069005	0.108418
Cu8	Cu	0.672335	0.074021	0.128179
Cu9	Cu	0.672344	0.074025	-0.127977
O10	O	0.667334	0.156953	0.108376
C11	C	0.568189	0.078787	0.000081
C12	C	0.504971	0.078032	0.000069
C13	C	0.231731	0.074730	-0.117991
C14	C	0.291131	0.075445	-0.117995
O15	O	0.321860	0.075797	-0.218406
N16	N	0.320832	0.075804	0.000075
C17	C	0.291132	0.075443	0.118155
O18	O	0.321850	0.075813	0.218582
C19	C	0.231734	0.074724	0.118157
C20	C	0.202035	0.074370	0.000080
C21	C	0.202032	0.074376	-0.236059
C22	C	0.142636	0.073662	-0.236055
C23	C	0.112940	0.073303	-0.117983
C24	C	0.142639	0.073657	0.000084
C25	C	0.202035	0.074358	0.236236
C26	C	0.142633	0.073639	0.236228
C27	C	0.112934	0.073285	0.118151
C28	C	0.053546	0.072583	0.118159
N29	N	0.023845	0.072224	0.000090
C30	C	0.053541	0.072584	-0.117981
C31	C	0.415872	0.076952	0.118142
C32	C	0.475269	0.077675	0.118141
C33	C	0.475264	0.077676	-0.118009
C34	C	0.415866	0.076957	-0.118007
C35	C	0.386171	0.076593	0.000073
C36	C	-0.071194	0.071085	-0.117964
C37	C	-0.130595	0.070373	-0.117950
C38	C	-0.130585	0.070369	0.118200
C39	C	-0.071189	0.071084	0.118186
C40	C	-0.041495	0.071440	0.000094
O41	O	0.022780	0.072228	0.218519
O42	O	0.022817	0.072205	-0.218391
C43	C	0.677086	-0.030126	0.000129
C44	C	0.676320	-0.093343	0.000139
C45	C	0.723555	-0.492454	0.000077
C46	C	0.722844	-0.551854	0.000067
O47	O	0.766630	-0.588606	0.000028
N48	N	0.670566	-0.574471	0.000058
C49	C	0.618997	-0.537685	0.000045
O50	O	0.574465	-0.562377	0.000035
C51	C	0.619709	-0.478286	0.000046
C52	C	0.671990	-0.455672	0.000068
C53	C	0.775832	-0.469839	0.000098
C54	C	0.776543	-0.410443	0.000111
C55	C	0.724977	-0.373662	0.000102
C56	C	0.672701	-0.396276	0.000081
C57	C	0.568140	-0.441501	0.000024
C58	C	0.568857	-0.382099	0.000023
C59	C	0.621137	-0.359485	0.000046
C60	C	0.621847	-0.300099	0.000084
N61	N	0.674124	-0.277481	0.000094
C62	C	0.725690	-0.314263	0.000103
C63	C	0.617505	-0.662427	0.000041
C64	C	0.616793	-0.721825	0.000050
C65	C	0.720640	-0.735990	0.000069
C66	C	0.721352	-0.676591	0.000070
C67	C	0.669783	-0.639810	0.000051
C68	C	0.727179	-0.189526	0.000130
C69	C	0.727886	-0.130124	0.000148
C70	C	0.624039	-0.115965	0.000121
C71	C	0.623332	-0.175361	0.000110
C72	C	0.674907	-0.212141	0.000110
O73	O	0.578083	-0.263312	0.000118
O74	O	0.770214	-0.289562	0.000096
C75	C	0.776489	0.069258	0.000119
C76	C	0.839708	0.070014	0.000122
C77	C	0.667592	0.178171	0.000070
C78	C	0.668358	0.241388	0.000052
N79	N	0.672333	0.074017	0.308345
N80	N	0.672351	0.074024	-0.308143
C81	C	0.672341	0.074024	0.574015
C82	C	0.672335	0.074022	0.426177
H83	H	0.118458	0.073347	0.332385
N84	N	0.505611	0.078036	0.238743
N85	N	0.558645	0.078672	0.238741
H86	H	0.580074	0.078923	0.323919
H87	H	0.770461	-0.111716	0.000170
N88	N	0.828504	-0.507413	0.000133
N89	N	0.827874	-0.560448	0.000145
H90	H	0.865077	-0.586983	0.000182
H91	H	0.580761	-0.193774	0.000128
N92	N	0.779866	-0.227082	0.000126
N93	N	0.826534	-0.206873	0.000146
H94	H	0.863744	-0.233396	0.000150
N95	N	-0.160921	0.070004	-0.238581
N96	N	-0.148803	0.029933	-0.317621
H97	H	-0.170218	0.029671	-0.402816
H98	H	0.391697	0.076662	0.214303
H99	H	0.118461	0.073372	-0.332205
H100	H	0.226205	0.074667	-0.332212
N101	N	0.774749	-0.653484	0.000096
N102	N	0.786730	-0.621925	0.091400
H103	H	0.824444	-0.605608	0.091418
H104	H	-0.047024	0.071376	-0.214126
H105	H	0.226206	0.074644	0.332388
N106	N	0.514736	-0.464592	-0.000038
N107	N	0.502758	-0.496142	-0.091359
H108	H	0.465039	-0.512450	-0.091408
N109	N	0.564824	-0.624859	0.000069
N110	N	0.553631	-0.590144	0.091378
H111	H	0.516425	-0.563614	0.091399
N112	N	0.385540	0.076597	-0.238630
N113	N	0.412069	0.076921	-0.344036
H114	H	0.390654	0.076665	-0.429233
H115	H	0.819115	-0.392037	0.000124
N116	N	0.505612	0.078026	-0.238613
N117	N	0.544236	0.038269	-0.264918
H118	H	0.565671	0.038513	-0.350090
H119	H	-0.047008	0.071383	0.214334
H120	H	0.762627	-0.765949	0.000072
H121	H	-0.154775	0.070079	0.214330
H122	H	0.574220	-0.740232	0.000054
N123	N	0.516173	-0.344537	-0.000012
N124	N	0.469502	-0.364741	-0.000040
H125	H	0.432294	-0.338214	-0.000066
H126	H	0.582056	-0.086007	0.000119
