data_functionalizedCrystal
_audit_creation_method	'MofGen! by Chris Wilmer'
_symmetry_space_group_name_H-M	'P1'
_symmetry_Int_Tables_number	1
_symmetry_cell_setting	triclinic
loop_
_symmetry_equiv_pos_as_xyz
  x,y,z
_cell_length_a	14.971486
_cell_length_b	14.971486
_cell_length_c	15.455348
_cell_angle_alpha	92.988273
_cell_angle_beta	92.998621
_cell_angle_gamma	83.614129
loop_
_atom_site_label
_atom_site_type_symbol
_atom_site_fract_x
_atom_site_fract_y
_atom_site_fract_z
O1	O	1.183444	0.113069	-0.072031
O2	O	0.923043	0.127027	-0.072055
O3	O	1.060223	-0.010152	-0.072036
O4	O	1.046264	0.250248	-0.072050
O5	O	1.067222	-0.003159	0.072225
O6	O	0.930042	0.134019	0.072206
O7	O	1.190443	0.120062	0.072230
Cu8	Cu	1.060882	0.127679	0.085391
Cu9	Cu	1.052604	0.119410	-0.085215
O10	O	1.053263	0.257240	0.072211
C11	C	0.893217	0.129899	0.000073
C12	C	0.793920	0.128027	0.000064
C13	C	1.063098	-0.039980	0.000094
C14	C	1.061228	-0.139277	0.000093
C15	C	0.736694	0.208617	0.000061
C16	C	0.643396	0.206854	0.000074
C17	C	0.607324	0.124501	0.000084
C18	C	0.664557	0.043906	0.000089
C19	C	0.757854	0.045670	0.000082
C20	C	0.470095	0.040236	0.000101
C21	C	0.376791	0.038471	0.000107
C22	C	0.355636	0.201420	0.000093
C23	C	0.448934	0.203184	0.000086
C24	C	0.506160	0.122588	0.000090
C25	C	1.220268	0.117190	0.000100
C26	C	1.319566	0.119061	0.000104
N27	N	1.066710	0.133495	0.205386
C28	C	1.141817	-0.196502	0.000101
C29	C	1.140054	-0.289802	0.000092
C30	C	1.057700	-0.325875	0.000082
C31	C	0.977104	-0.268643	0.000071
C32	C	0.978868	-0.175345	0.000074
C33	C	0.973433	-0.463106	0.000067
C34	C	0.971668	-0.556410	0.000066
C35	C	1.134618	-0.577563	0.000086
C36	C	1.136382	-0.484265	0.000089
C37	C	1.055786	-0.427039	0.000080
C38	C	1.050387	0.287069	0.000079
C39	C	1.052258	0.386365	0.000074
C40	C	1.098886	0.165729	0.749391
C41	C	1.094483	0.161324	0.658584
C42	C	1.037986	0.104777	0.613176
C43	C	0.985881	0.052637	0.658581
C44	C	0.990279	0.057047	0.749387
C45	C	1.019004	0.085765	0.341596
C46	C	1.014611	0.081357	0.250784
C47	C	1.123213	0.190046	0.250793
C48	C	1.127610	0.194447	0.341601
C49	C	1.075502	0.142311	0.386997
N50	N	1.033486	0.100271	0.520356
N51	N	1.079997	0.146822	0.479816
N52	N	1.046787	0.113591	0.794790
H53	H	0.766056	0.275678	0.000052
H54	H	0.910050	-0.298021	0.000057
O55	O	0.924996	-0.008410	0.609612
H56	H	0.930716	-0.002745	0.538842
H57	H	0.596806	0.272478	0.000070
H58	H	1.200243	-0.624161	0.000091
H59	H	0.976576	0.043309	0.378547
O60	O	0.819584	-0.041249	0.000089
H61	H	0.803899	-0.083507	-0.058709
O62	O	0.882848	-0.595325	0.000058
H63	H	0.875308	-0.640183	-0.058736
O64	O	0.891948	-0.113616	0.000074
H65	H	0.834386	-0.154372	0.000077
O66	O	1.150675	0.217564	0.609622
H67	H	1.196695	0.172761	0.568254
H68	H	0.947853	0.014593	0.786349
H69	H	0.968599	0.035310	0.213816
O70	O	0.487838	0.292009	0.000086
H71	H	0.461993	0.327898	-0.058707
O72	O	0.293922	0.288353	0.000098
H73	H	0.222987	0.273295	0.000117
H74	H	0.347425	-0.028587	0.000116
O75	O	1.230647	-0.157606	0.000107
H76	H	1.238212	-0.112766	0.058910
O77	O	0.531823	-0.046690	0.000102
H78	H	0.491067	-0.104253	0.000099
H79	H	1.144896	0.211772	0.786355
O80	O	1.188544	0.255440	0.390577
H81	H	1.224028	0.290961	0.343752
H82	H	0.635180	-0.023146	0.000110
H83	H	1.165635	0.232493	0.213821
O84	O	1.226975	-0.351526	0.000115
H85	H	1.284537	-0.310768	0.000139
H86	H	1.203442	-0.454898	0.000104
O87	O	0.886507	-0.401378	0.000066
H88	H	0.828945	-0.442133	0.000070
