data_functionalizedCrystal
_audit_creation_method	'MofGen! by Chris Wilmer'
_symmetry_space_group_name_H-M	'P1'
_symmetry_Int_Tables_number	1
_symmetry_cell_setting	triclinic
loop_
_symmetry_equiv_pos_as_xyz
  x,y,z
_cell_length_a	14.044191
_cell_length_b	15.538191
_cell_length_c	14.750779
_cell_angle_alpha	97.569385
_cell_angle_beta	103.818400
_cell_angle_gamma	109.768065
loop_
_atom_site_label
_atom_site_type_symbol
_atom_site_fract_x
_atom_site_fract_y
_atom_site_fract_z
O1	O	1.154946	-0.238922	-0.079765
O2	O	0.881715	-0.230953	-0.079777
O3	O	1.071515	-0.102279	-0.079773
O4	O	0.965145	-0.367596	-0.079769
O5	O	1.125168	-0.065909	0.079878
O6	O	0.935367	-0.194583	0.079874
O7	O	1.208599	-0.202551	0.079887
Zn8	Zn	1.080502	-0.192793	0.105229
Zn9	Zn	1.009812	-0.240712	-0.105119
O10	O	1.018798	-0.331226	0.079883
C11	C	0.874426	-0.209281	0.000047
C12	C	0.772777	-0.198880	0.000042
C13	C	0.503655	-0.253635	0.000052
C14	C	0.586660	-0.179876	0.000049
C15	C	0.690224	-0.190452	0.000045
C16	C	0.400080	-0.243060	0.000056
C17	C	1.109470	-0.049934	0.000050
C18	C	1.142618	0.051851	0.000042
C19	C	1.215887	-0.224224	0.000061
C20	C	1.317533	-0.234626	0.000060
C21	C	0.980842	-0.383571	0.000057
C22	C	0.947692	-0.485358	0.000059
N23	N	1.128753	-0.160089	0.248785
C24	C	0.813278	0.367325	0.000047
C25	C	0.844453	0.462972	0.000051
C26	C	1.019797	0.470678	0.000059
C27	C	0.988636	0.375029	0.000050
C28	C	0.885376	0.323361	0.000046
C29	C	1.060733	0.331065	0.000049
C30	C	1.029576	0.235426	0.000045
C31	C	0.926321	0.183751	0.000044
C32	C	0.854218	0.227721	0.000042
C33	C	1.163995	0.382737	0.000060
C34	C	1.236092	0.338772	0.000059
C35	C	1.204933	0.243130	0.000049
C36	C	1.101678	0.191455	0.000047
C37	C	1.277036	0.199159	0.000050
C38	C	1.245878	0.103520	0.000047
C39	C	1.070521	0.095816	0.000044
N40	N	0.961571	-0.273409	-0.248676
C41	C	0.826826	-0.364705	0.600597
C42	C	0.860642	-0.341795	0.701097
C43	C	1.028721	-0.227902	0.701063
C44	C	0.994917	-0.250800	0.600561
C45	C	0.893969	-0.319203	0.550336
C46	C	1.062060	-0.205297	0.550300
C47	C	1.028261	-0.228196	0.449807
C48	C	0.927318	-0.296598	0.399575
C49	C	0.860170	-0.342102	0.449843
C50	C	1.163010	-0.136899	0.600528
C51	C	1.230153	-0.091396	0.550267
C52	C	1.196351	-0.114290	0.449772
C53	C	1.095409	-0.182692	0.399539
C54	C	1.263500	-0.068787	0.399504
C55	C	1.229700	-0.091686	0.299011
C56	C	1.061610	-0.205592	0.299046
H57	H	0.510370	-0.324720	0.000050
H58	H	1.284376	-0.054633	0.258088
Br59	Br	0.930375	0.025681	0.000023
H60	H	1.190527	-0.118260	0.682356
Br61	Br	0.769506	-0.403565	0.769301
H62	H	0.579921	-0.108801	-0.000020
Br63	Br	0.714073	0.157587	0.000022
H64	H	0.899802	-0.315245	0.317747
Br65	Br	0.673133	0.297191	0.000027
Br66	Br	0.746598	0.522638	0.000063
Br67	Br	0.723158	-0.434923	0.381675
H68	H	0.900956	0.105877	0.000047
Br69	Br	1.159935	0.540810	0.000076
Br70	Br	1.376230	0.408905	0.000076
Br71	Br	0.689814	-0.457527	0.532429
H72	H	1.189357	0.460610	0.000054
Br73	Br	1.367153	0.001429	0.618435
Br74	Br	1.417177	0.269297	0.000080
Br75	Br	1.400504	0.024030	0.467676
Br76	Br	1.165720	-0.135077	0.769232
H77	H	1.304588	0.067724	0.000046
Br78	Br	0.924598	-0.298413	0.230878
