data_functionalizedCrystal
_audit_creation_method	'MofGen! by Chris Wilmer'
_symmetry_space_group_name_H-M	'P1'
_symmetry_Int_Tables_number	1
_symmetry_cell_setting	triclinic
loop_
_symmetry_equiv_pos_as_xyz
  x,y,z
_cell_length_a	18.215407
_cell_length_b	12.759394
_cell_length_c	18.215399
_cell_angle_alpha	90.023582
_cell_angle_beta	90.017813
_cell_angle_gamma	90.008369
loop_
_atom_site_label
_atom_site_type_symbol
_atom_site_fract_x
_atom_site_fract_y
_atom_site_fract_z
Zn1	Zn	1.125128	-0.418431	0.416099
Zn2	Zn	1.125060	-0.594129	0.293042
Zn3	Zn	1.002061	-0.418447	0.293050
Zn4	Zn	1.002050	-0.594052	0.416071
O5	O	1.063575	-0.506265	0.354565
O6	O	1.228104	-0.441763	0.399783
O7	O	1.108720	-0.570863	0.190058
O8	O	1.018419	-0.271424	0.309388
O9	O	1.228054	-0.570847	0.309373
O10	O	1.108836	-0.271412	0.399791
O11	O	1.018353	-0.441791	0.190065
O12	O	0.899075	-0.441716	0.309361
O13	O	1.018401	-0.570717	0.519059
O14	O	0.899068	-0.570732	0.399744
O15	O	1.108826	-0.441689	0.519079
O16	O	1.108710	-0.741139	0.309347
O17	O	1.018335	-0.741083	0.399736
C18	C	0.872369	-0.506218	0.354551
C19	C	0.790570	-0.506224	0.354562
C20	C	0.525533	-0.439180	0.401716
C21	C	0.602391	-0.439163	0.401714
C22	C	0.602359	-0.573383	0.307430
C23	C	0.525501	-0.573405	0.307437
C24	C	0.487090	-0.506297	0.354579
C25	C	0.640806	-0.506259	0.354570
C26	C	0.724140	-0.506241	0.354567
C27	C	0.403751	-0.506316	0.354583
C28	C	1.063534	-0.779232	0.354553
C29	C	1.063584	-0.896009	0.354573
C30	C	1.157665	-0.895838	0.448780
C31	C	1.204728	-0.950614	0.495889
C32	C	1.204772	-1.060335	0.495905
C33	C	1.157746	-1.115284	0.448808
C34	C	1.110682	-1.060508	0.401699
C35	C	1.110645	-0.950784	0.401687
C36	C	1.016599	-1.060679	0.307496
C37	C	1.016557	-0.950957	0.307476
C38	C	0.969572	-1.115628	0.260400
C39	C	0.922511	-1.060852	0.213286
C40	C	0.922470	-0.951124	0.213271
C41	C	0.969494	-0.896182	0.260367
C42	C	1.255528	-0.506312	0.354580
C43	C	1.337327	-0.506332	0.354586
C44	C	1.063620	-0.506192	0.546518
C45	C	1.063639	-0.506161	0.628317
C46	C	1.063636	-0.232231	0.354594
C47	C	1.063662	-0.115455	0.354606
C48	C	1.063573	-0.506261	0.163359
C49	C	1.063696	-0.505996	0.081561
C50	C	1.110740	-0.438914	0.816523
C51	C	1.110749	-0.438883	0.893382
C52	C	1.016590	-0.573247	0.893349
C53	C	1.016578	-0.573271	0.816492
C54	C	1.063657	-0.506106	0.778081
C55	C	1.063678	-0.506051	0.931797
C56	C	1.063687	-0.506018	1.015131
C57	C	1.063647	-0.506137	0.694742
H58	H	0.494261	-0.384536	0.440102
H59	H	0.494201	-0.628066	0.269051
C60	C	1.162545	-0.364968	0.935665
N61	N	1.201561	-0.309293	0.967512
C62	C	1.256457	-0.890163	0.547691
N63	N	1.295420	-0.844633	0.586708
H64	H	0.884222	-1.105600	0.174947
C65	C	0.964804	-0.647122	0.935609
N66	N	0.925798	-0.702766	0.967438
C67	C	1.157626	-0.775142	0.448762
N68	N	1.157598	-0.684231	0.448750
C69	C	0.964778	-0.647189	0.774203
N70	N	0.925762	-0.702858	0.742351
H71	H	1.149073	-0.384221	0.785251
H72	H	0.969608	-1.204969	0.260419
H73	H	0.884142	-0.906531	0.174912
C74	C	0.644618	-0.647185	0.255568
N75	N	0.676447	-0.702769	0.216501
C76	C	0.644675	-0.365323	0.453566
N77	N	0.676522	-0.309703	0.492622
H78	H	1.243088	-1.104933	0.534273
H79	H	0.969468	-0.806841	0.260356
H80	H	1.157779	-1.204625	0.448831
