data_functionalizedCrystal
_audit_creation_method	'MofGen! by Chris Wilmer'
_symmetry_space_group_name_H-M	'P1'
_symmetry_Int_Tables_number	1
_symmetry_cell_setting	triclinic
loop_
_symmetry_equiv_pos_as_xyz
  x,y,z
_cell_length_a	14.628931
_cell_length_b	21.606444
_cell_length_c	21.606444
_cell_angle_alpha	90.000308
_cell_angle_beta	60.001031
_cell_angle_gamma	60.001991
loop_
_atom_site_label
_atom_site_type_symbol
_atom_site_fract_x
_atom_site_fract_y
_atom_site_fract_z
Zr1	Zr	1.000611	-0.081242	0.596222
O2	O	1.191304	-0.180061	0.497400
O3	O	0.809909	-0.050948	0.626516
O4	O	1.000607	-0.180066	0.626517
O5	O	1.000613	0.050906	0.497399
O6	O	1.000613	-0.180069	0.728367
O7	O	1.000607	-0.050944	0.497400
O8	O	0.659490	0.050898	0.728366
O9	O	1.341736	-0.180061	0.497400
O10	O	0.888356	-0.038031	0.715446
O11	O	0.888356	0.037981	0.639437
O12	O	1.112877	-0.114038	0.639437
O13	O	1.112877	-0.038026	0.563428
Zr14	Zr	1.000632	0.081191	0.758661
Zr15	Zr	1.000621	-0.081248	0.758661
Zr16	Zr	1.000621	0.081197	0.596222
Zr17	Zr	1.240533	-0.081242	0.596222
Zr18	Zr	0.760710	0.081191	0.758660
O19	O	1.191334	0.050897	0.728366
O20	O	1.191319	-0.180069	0.728367
O21	O	1.191319	0.050906	0.497400
O22	O	0.809939	0.180010	0.857483
O23	O	0.809924	-0.050957	0.857483
O24	O	0.809924	0.180018	0.626516
O25	O	1.000630	-0.050957	0.857483
O26	O	1.000636	0.180014	0.728366
O27	O	1.000630	0.180018	0.626516
O28	O	1.000636	0.050893	0.857483
O29	O	1.341744	-0.180066	0.626517
O30	O	0.659499	0.180015	0.728366
O31	O	0.659507	0.180010	0.857483
O32	O	0.659499	0.050893	0.857483
O33	O	1.341744	-0.050944	0.497400
O34	O	1.341753	-0.050949	0.626517
O35	O	0.888366	0.113987	0.715446
O36	O	0.888366	0.037975	0.791455
O37	O	1.112887	-0.038032	0.715446
O38	O	1.112887	0.037980	0.639437
C39	C	0.700516	-0.000025	0.677441
C40	C	0.598663	-0.000025	0.677441
C41	C	1.000609	-0.000018	0.474256
C42	C	1.000604	-0.000016	0.405296
C43	C	1.000634	0.203160	0.677441
C44	C	1.000639	0.272120	0.677441
C45	C	0.553254	-0.037732	0.715147
C46	C	0.447984	-0.037733	0.715148
C47	C	1.300727	-0.000026	0.677442
C48	C	1.402580	-0.000026	0.677442
C49	C	1.000609	-0.203211	0.677442
C50	C	1.000604	-0.272171	0.677442
C51	C	1.117836	0.264844	0.637766
C52	C	1.117832	0.329642	0.637763
C53	C	1.000630	0.401714	0.677439
C54	C	0.883424	0.408988	0.717115
C55	C	0.883429	0.344191	0.717113
C56	C	0.883402	0.670306	0.717121
C57	C	0.883406	0.735104	0.717121
C58	C	1.117805	0.655756	0.637771
C59	C	1.117810	0.590960	0.637769
C60	C	1.000605	0.598239	0.677441
C61	C	1.000610	0.527978	0.677443
C62	C	1.000624	0.471974	0.677442
C63	C	0.883407	0.039656	0.412573
C64	C	0.883411	0.039657	0.347775
C65	C	1.000613	-0.000019	0.275702
C66	C	1.117819	-0.039692	0.268427
C67	C	1.117814	-0.039688	0.333224
C68	C	1.117841	-0.039709	0.007109
C69	C	1.117837	-0.039712	-0.057689
C70	C	0.883438	0.039636	0.021661
C71	C	0.883433	0.039640	0.086457
C72	C	1.000638	-0.000030	0.079177
C73	C	1.000633	-0.000029	0.149438
C74	C	1.000619	-0.000025	0.205442
C75	C	1.000634	-0.000033	0.880627
C76	C	1.000639	-0.000035	0.949587
C77	C	0.700529	-0.000033	0.880627
C78	C	0.598681	-0.000035	0.949586
C79	C	0.700529	0.203161	0.677441
C80	C	0.598681	0.272120	0.677441
C81	C	0.700542	0.203153	0.880627
C82	C	0.598698	0.272110	0.949586
C83	C	1.300701	-0.203204	0.474256
C84	C	1.402545	-0.272161	0.405297
C85	C	1.300714	-0.000018	0.474256
C86	C	1.402562	-0.000016	0.405296
C87	C	1.300714	-0.203212	0.677442
C88	C	1.402562	-0.272171	0.677442
C89	C	0.550846	-0.039718	0.942294
C90	C	0.455162	-0.039735	1.007083
C91	C	0.407307	-0.000065	1.079162
C92	C	0.455151	0.039619	1.086453
C93	C	0.550840	0.039631	1.021665
C94	C	0.550856	0.344186	0.717117
C95	C	0.455172	0.408987	0.717113
C96	C	0.407307	0.401721	0.677438
C97	C	0.455141	0.329647	0.637758
C98	C	0.550830	0.264848	0.637757
C99	C	0.550871	0.264816	1.021653
C100	C	0.455191	0.329602	1.086454
C101	C	0.407333	0.401682	1.079186
C102	C	0.455169	0.408975	1.007111
C103	C	0.550854	0.344190	0.942312
C104	C	1.450384	-0.264867	0.333230
C105	C	1.546094	-0.329653	0.268429
C106	C	1.593957	-0.401733	0.275697
C107	C	1.546114	-0.409026	0.347772
C108	C	1.450412	-0.344241	0.412571
C109	C	1.450407	0.039660	0.412588
C110	C	1.546117	0.039659	0.347800
C111	C	1.593976	-0.000013	0.275720
C112	C	1.546127	-0.039694	0.268430
C113	C	1.450425	-0.039697	0.333218
C114	C	1.450397	-0.264881	0.717125
C115	C	1.546082	-0.329669	0.717140
C116	C	1.593937	-0.401748	0.677467
C117	C	1.546093	-0.409037	0.637783
C118	C	1.450403	-0.344249	0.637773
H119	H	0.592305	-0.070011	0.747431
H120	H	1.411419	-0.206181	0.327298
Br121	Br	0.277441	-0.000090	1.167082
Br122	Br	1.276908	-0.093563	-0.155507
H123	H	0.787967	0.071969	0.471255
Br124	Br	0.724362	0.506800	0.770955
H125	H	0.589756	0.206171	0.605450
Br126	Br	1.276893	0.319763	0.583883
H127	H	0.329391	0.454491	0.677445
Br128	Br	0.724335	0.832920	0.770970
H129	H	0.416173	0.071917	1.145149
Br130	Br	0.724337	0.680193	0.770960
Br131	Br	1.610997	-0.319759	0.770997
Br132	Br	0.382914	-0.091550	0.768948
H133	H	0.416252	0.323650	1.145134
H134	H	1.213248	0.532278	0.605464
H135	H	1.585031	-0.323700	0.209749
Br136	Br	0.615740	0.093496	1.031575
Br137	Br	1.385493	-0.354154	0.510374
H138	H	1.671854	-0.454496	0.677481
Br139	Br	1.611064	-0.506864	0.583938
Br140	Br	1.723839	-0.489650	0.187747
H141	H	1.411448	-0.206197	0.749431
Br142	Br	0.724370	0.354066	0.770954
Br143	Br	0.724350	0.093511	0.357655
Br144	Br	1.385481	0.093505	0.510403
Br145	Br	0.615788	0.354068	0.770972
H146	H	1.411467	-0.350196	0.605456
H147	H	1.585108	-0.071994	0.209734
Br148	Br	0.615774	-0.093564	0.844480
Br149	Br	0.467665	0.053778	0.623625
Br150	Br	0.390274	0.506790	0.770971
Br151	Br	1.276906	-0.093548	-0.002780
Br152	Br	1.611031	0.093518	0.357712
H153	H	0.416219	-0.072050	1.001132
H154	H	0.416155	0.323742	0.605455
Br155	Br	1.723859	-0.000000	0.187801
H156	H	1.213247	-0.071993	0.209739
Br157	Br	0.615806	0.167001	1.031537
Br158	Br	1.611082	-0.506855	0.357622
H159	H	0.329420	0.454428	1.131956
H160	H	0.416189	0.467671	1.001205
Br161	Br	1.276873	0.645879	0.583927
H162	H	0.589783	0.350140	0.883634
Br163	Br	1.385499	-0.093545	0.323307
H164	H	1.213276	0.206163	0.605461
Br165	Br	0.724368	0.093484	0.184270
H166	H	0.559602	0.032258	0.645162
H167	H	1.213248	-0.071984	0.327294
Br168	Br	0.724370	0.093476	0.031539
