data_functionalizedCrystal
_audit_creation_method	'MofGen! by Chris Wilmer'
_symmetry_space_group_name_H-M	'P1'
_symmetry_Int_Tables_number	1
_symmetry_cell_setting	triclinic
loop_
_symmetry_equiv_pos_as_xyz
  x,y,z
_cell_length_a	18.101389
_cell_length_b	12.759401
_cell_length_c	12.759399
_cell_angle_alpha	90.016641
_cell_angle_beta	90.015375
_cell_angle_gamma	90.017197
loop_
_atom_site_label
_atom_site_type_symbol
_atom_site_fract_x
_atom_site_fract_y
_atom_site_fract_z
Zn1	Zn	-0.418714	-1.606224	0.418334
Zn2	Zn	0.081286	-1.106224	0.918334
Zn3	Zn	-0.294879	-1.606126	0.594002
Zn4	Zn	0.205121	-1.106126	1.094002
Zn5	Zn	-0.294890	-1.430535	0.418342
Zn6	Zn	0.205110	-0.930535	0.918342
Zn7	Zn	-0.418683	-1.430514	0.593976
Zn8	Zn	0.081317	-0.930514	1.093976
O9	O	-0.356791	-1.518350	0.506163
O10	O	0.143209	-1.018350	1.006163
O11	O	-0.402295	-1.753232	0.441644
O12	O	0.097705	-1.253232	0.941644
O13	O	-0.191247	-1.582801	0.570714
O14	O	0.308753	-1.082801	1.070714
O15	O	-0.311333	-1.453890	0.271320
O16	O	0.188667	-0.953890	0.771320
O17	O	-0.311314	-1.753160	0.570706
O18	O	0.188686	-1.253160	1.070706
O19	O	-0.402306	-1.582969	0.271314
O20	O	0.097694	-1.082969	0.771314
O21	O	-0.191256	-1.453795	0.441658
O22	O	0.308744	-0.953795	0.941658
O23	O	-0.311303	-1.283511	0.441633
O24	O	0.188697	-0.783511	0.941633
O25	O	-0.522320	-1.453855	0.570662
O26	O	-0.022320	-0.953855	1.070662
O27	O	-0.402253	-1.283496	0.570670
O28	O	0.097747	-0.783496	1.070670
O29	O	-0.522342	-1.582949	0.441619
O30	O	-0.022342	-1.082949	0.941619
O31	O	-0.311284	-1.582780	0.741019
O32	O	0.188716	-1.082780	1.241019
O33	O	-0.402242	-1.453759	0.741000
O34	O	0.097758	-0.953759	1.241000
C35	C	-0.356777	-1.245382	0.506150
C36	C	0.143223	-0.745382	1.006150
C37	C	-0.356788	-1.128606	0.506170
C38	C	0.143212	-0.628606	1.006170
C39	C	-0.356774	-1.518285	0.779131
C40	C	0.143226	-1.018285	1.279131
C41	C	-0.356792	-1.518354	0.895907
C42	C	0.143208	-1.018354	1.395907
C43	C	-0.549953	-1.518410	0.506137
C44	C	-0.049953	-1.018410	1.006137
C45	C	-0.632267	-1.518436	0.506125
C46	C	-0.132267	-1.018436	1.006125
C47	C	-0.931358	-1.518497	0.505929
C48	C	-0.431358	-1.018497	1.005929
C49	C	-0.900019	-1.436995	0.586861
C50	C	-0.400019	-0.936995	1.086861
C51	C	-0.814401	-1.437216	0.587236
C52	C	-0.314401	-0.937216	1.087236
C53	C	-0.782976	-1.518466	0.506026
C54	C	-0.282976	-1.018466	1.006026
C55	C	-0.814073	-1.629167	0.536076
C56	C	-0.314073	-1.129167	1.036076
C57	C	-0.899718	-1.628713	0.536608
C58	C	-0.399718	-1.128713	1.036608
C59	C	-0.899781	-1.490261	0.394766
C60	C	-0.399781	-0.990261	0.894766
C61	C	-0.814130	-1.487798	0.395408
C62	C	-0.314130	-0.987798	0.895408
C63	C	-0.699116	-1.518455	0.506080
C64	C	-0.199116	-1.018455	1.006080
C65	C	-1.015218	-1.518516	0.505878
C66	C	-0.515218	-1.018516	1.005878
C67	C	-0.164381	-1.518350	0.506114
C68	C	0.335619	-1.018350	1.006114
C69	C	-0.082067	-1.518527	0.505829
C70	C	0.417933	-1.018527	1.005829
C71	C	-0.356806	-1.792383	0.506177
C72	C	0.143194	-1.292383	1.006177
C73	C	-0.356813	-1.909160	0.506183
C74	C	0.143187	-1.409160	1.006183
C75	C	-0.404071	-1.073763	0.573462
C76	C	0.095929	-0.573763	1.073462
C77	C	-0.404086	-0.964039	0.573466
C78	C	0.095914	-0.464039	1.073466
C79	C	-0.309528	-0.964010	0.438883
C80	C	0.190472	-0.464010	0.938883
C81	C	-0.309517	-1.073732	0.438875
C82	C	0.190483	-0.573732	0.938875
C83	C	-0.356824	-1.518443	0.232130
C84	C	0.143176	-1.018443	0.732130
C85	C	-0.356838	-1.518483	0.115353
C86	C	0.143162	-1.018483	0.615353
C87	C	-0.309484	-1.585612	0.950744
C88	C	0.190516	-1.085612	1.450744
C89	C	-0.309509	-1.585679	1.060468
C90	C	0.190491	-1.085679	1.560468
C91	C	-0.404152	-1.451222	1.060509
C92	C	0.095848	-0.951222	1.560509
C93	C	-0.404130	-1.451160	0.950787
C94	C	0.095870	-0.951160	1.450787
H95	H	-0.793375	-1.355128	0.568432
H96	H	-0.293375	-0.855128	1.068432
H97	H	-0.920049	-1.549623	0.334467
H98	H	-0.420049	-1.049623	0.834467
F99	F	-0.454488	-1.379576	0.892422
F100	F	0.045512	-0.879576	1.392422
F101	F	-0.259193	-1.132103	0.367244
F102	F	0.240807	-0.632103	0.867244
F103	F	-0.926927	-1.329372	0.562530
F104	F	-0.426927	-0.829372	1.062530
F105	F	-0.786179	-1.559732	0.312408
F106	F	-0.286179	-1.059732	0.812408
F107	F	-0.454528	-1.379712	1.118925
F108	F	0.045472	-0.879712	1.618925
F109	F	-0.259159	-1.657267	1.118825
F110	F	0.240841	-1.157267	1.618825
F111	F	-0.928199	-1.461073	0.693892
F112	F	-0.428199	-0.961073	1.193892
H113	H	-0.793920	-1.455860	0.669634
H114	H	-0.293920	-0.955860	1.169634
H115	H	-0.920451	-1.691498	0.480219
H116	H	-0.420451	-1.191498	0.980219
F117	F	-0.925841	-1.659994	0.642822
F118	F	-0.425841	-1.159994	1.142822
H119	H	-0.793719	-1.691524	0.478981
H120	H	-0.293719	-1.191524	0.978981
F121	F	-0.787572	-1.381311	0.365790
F122	F	-0.287572	-0.881311	0.865790
H123	H	-0.792632	-1.653514	0.616474
H124	H	-0.292632	-1.153514	1.116474
H125	H	-0.442589	-0.919391	0.628261
H126	H	0.057411	-0.419391	1.128261
F127	F	-0.454382	-1.132161	0.645081
F128	F	0.045618	-0.632161	1.145081
H129	H	-0.921373	-1.410940	0.367387
H130	H	-0.421373	-0.910940	0.867387
F131	F	-0.259221	-0.905600	0.367268
F132	F	0.240779	-0.405600	0.867268
F133	F	-0.259103	-1.657127	0.892341
F134	F	0.240897	-1.157127	1.392341
