data_functionalizedCrystal
_audit_creation_method	'MofGen! by Chris Wilmer'
_symmetry_space_group_name_H-M	'P1'
_symmetry_Int_Tables_number	1
_symmetry_cell_setting	triclinic
loop_
_symmetry_equiv_pos_as_xyz
  x,y,z
_cell_length_a	17.038272
_cell_length_b	17.699083
_cell_length_c	16.776229
_cell_angle_alpha	89.995692
_cell_angle_beta	89.999840
_cell_angle_gamma	87.197286
loop_
_atom_site_label
_atom_site_type_symbol
_atom_site_fract_x
_atom_site_fract_y
_atom_site_fract_z
O1	O	-1.037101	-0.164334	0.066191
O2	O	-0.537101	0.335666	0.566191
O3	O	-0.809474	-0.161724	0.066215
O4	O	-0.309474	0.338276	0.566215
O5	O	-0.929719	-0.053265	0.066195
O6	O	-0.429719	0.446735	0.566195
O7	O	-0.916857	-0.272793	0.066211
O8	O	-0.416857	0.227207	0.566211
O9	O	-0.929705	-0.053264	-0.066381
O10	O	-0.429705	0.446736	0.433619
O11	O	-0.809461	-0.161723	-0.066362
O12	O	-0.309461	0.338277	0.433638
O13	O	-1.037087	-0.164333	-0.066385
O14	O	-0.537087	0.335667	0.433615
Zn15	Zn	-0.923272	-0.163028	-0.087423
Zn16	Zn	-0.423272	0.336972	0.412577
Zn17	Zn	-0.923290	-0.163029	0.087253
Zn18	Zn	-0.423290	0.336971	0.587253
O19	O	-0.916843	-0.272792	-0.066366
O20	O	-0.416843	0.227208	0.433634
C21	C	-0.780343	-0.159350	-0.000070
C22	C	-0.280343	0.340650	0.499930
C23	C	-0.693562	-0.152270	-0.000062
C24	C	-0.193562	0.347730	0.499938
C25	C	-0.929251	-0.025037	-0.000093
C26	C	-0.429251	0.474963	0.499907
C27	C	-0.927868	0.059072	-0.000093
C28	C	-0.427868	0.559072	0.499907
C29	C	-1.066218	-0.166707	-0.000098
C30	C	-0.566218	0.333293	0.499902
C31	C	-1.153000	-0.173787	-0.000101
C32	C	-0.653000	0.326213	0.499899
C33	C	-0.643342	-0.217280	-0.000058
C34	C	-0.143342	0.282720	0.499942
C35	C	-0.561802	-0.210622	-0.000069
C36	C	-0.061802	0.289378	0.499931
C37	C	-0.530484	-0.138953	-0.000079
C38	C	-0.030484	0.361047	0.499921
C39	C	-0.580710	-0.073938	-0.000085
C40	C	-0.080710	0.426062	0.499915
C41	C	-0.662249	-0.080597	-0.000080
C42	C	-0.162249	0.419403	0.499920
C43	C	-0.284764	-0.115431	-0.000102
C44	C	0.215236	0.384569	0.499898
C45	C	-0.203220	-0.108777	-0.000105
C46	C	0.296780	0.391223	0.499895
C47	C	-0.184317	-0.245462	-0.000091
C48	C	0.315683	0.254538	0.499909
C49	C	-0.265857	-0.252114	-0.000080
C50	C	0.234143	0.247886	0.499920
C51	C	-0.316077	-0.187099	-0.000091
C52	C	0.183923	0.312901	0.499909
C53	C	-0.447137	-0.132147	-0.000088
C54	C	0.052863	0.367853	0.499912
C55	C	-0.399422	-0.193906	-0.000087
C56	C	0.100578	0.306094	0.499913
C57	C	-0.917311	-0.301020	-0.000076
C58	C	-0.417311	0.198980	0.499924
C59	C	-0.918693	-0.385129	-0.000070
C60	C	-0.418693	0.114871	0.499930
N61	N	-0.923265	-0.163027	-0.206634
N62	N	-0.423265	0.336973	0.293366
C63	C	-0.998449	0.103023	-0.000101
C64	C	-0.498449	0.603023	0.499899
C65	C	-0.997145	0.182053	-0.000094
C66	C	-0.497145	0.682053	0.499906
C67	C	-0.925260	0.217130	-0.000084
C68	C	-0.425260	0.717130	0.499916
C69	C	-0.854674	0.173173	-0.000074
C70	C	-0.354674	0.673173	0.499926
C71	C	-0.855978	0.094145	-0.000075
C72	C	-0.355978	0.594145	0.499925
C73	C	-0.849411	0.491885	-0.000067
C74	C	-0.349411	0.991885	0.499933
C75	C	-0.848112	0.570919	-0.000067
C76	C	-0.348112	1.070919	0.499933
C77	C	-0.990578	0.579792	-0.000086
C78	C	-0.490578	1.079792	0.499914
C79	C	-0.991882	0.500764	-0.000087
C80	C	-0.491882	1.000764	0.499913
C81	C	-0.921297	0.456814	-0.000072
C82	C	-0.421297	0.956814	0.499928
C83	C	-0.922711	0.371121	-0.000079
C84	C	-0.422711	0.871121	0.499921
C85	C	-0.923844	0.302821	-0.000084
C86	C	-0.423844	0.802821	0.499916
C87	C	-0.970587	-0.212006	-0.248349
C88	C	-0.470587	0.287994	0.251651
C89	C	-0.970596	-0.212004	-0.331802
C90	C	-0.470596	0.287996	0.168198
C91	C	-0.923278	-0.163025	-0.373537
C92	C	-0.423278	0.336975	0.126463
C93	C	-0.875954	-0.114040	-0.331816
C94	C	-0.375954	0.385960	0.168184
C95	C	-0.875950	-0.114039	-0.248365
C96	C	-0.375950	0.385961	0.251635
C97	C	-0.875970	-0.114042	-0.668363
C98	C	-0.375970	0.385958	-0.168363
C99	C	-0.875976	-0.114048	-0.751819
C100	C	-0.375976	0.385952	-0.251819
C101	C	-0.970616	-0.212007	-0.751799
C102	C	-0.470616	0.287993	-0.251799
C103	C	-0.970612	-0.212006	-0.668349
C104	C	-0.470612	0.287994	-0.168349
C105	C	-0.923291	-0.163018	-0.626635
C106	C	-0.423291	0.336982	-0.126635
C107	C	-0.923284	-0.163020	-0.536146
C108	C	-0.423284	0.336980	-0.036146
C109	C	-0.923281	-0.163026	-0.464024
C110	C	-0.423281	0.336974	0.035976
N111	N	-0.923302	-0.163025	0.206464
N112	N	-0.423302	0.336975	0.706464
H113	H	-0.668834	-0.275640	-0.000049
H114	H	-0.168834	0.224360	0.499951
H115	H	-1.050419	0.472208	-0.000099
H116	H	-0.550419	0.972208	0.499901
O117	O	-0.416804	-0.062489	0.000017
O118	O	0.083196	0.437511	0.500017
C119	C	-0.442452	-0.022550	0.068693
C120	C	0.057548	0.477450	0.568693
H121	H	-0.498969	-0.046809	0.091588
H122	H	0.001031	0.453191	0.591588
H123	H	-0.453881	0.039745	0.053252
H124	H	0.046119	0.539745	0.553252
H125	H	-0.395247	-0.028287	0.116769
H126	H	0.104753	0.471713	0.616769
H127	H	-0.520915	-0.263561	-0.000065
H128	H	-0.020915	0.236439	0.499935
H129	H	-0.424924	-0.252259	-0.000084
H130	H	0.075076	0.247741	0.499916
H131	H	-1.056987	0.074469	-0.000114
H132	H	-0.556987	0.574469	0.499886
H133	H	-1.048052	0.615585	-0.000094
H134	H	-0.548052	1.115585	0.499906
H135	H	-0.143420	-0.298393	-0.000084
H136	H	0.356580	0.201607	0.499916
H137	H	-0.789570	0.599476	-0.000061
H138	H	-0.289570	1.099476	0.499939
H139	H	-0.703138	-0.027658	-0.000082
H140	H	-0.203138	0.472342	0.499918
H141	H	-0.177724	-0.050413	-0.000112
H142	H	0.322276	0.449587	0.499888
H143	H	-1.054619	0.217834	-0.000103
H144	H	-0.554619	0.717834	0.499897
H145	H	-0.837431	-0.074157	-0.365803
H146	H	-0.337431	0.425843	0.134197
H147	H	-0.291350	-0.310474	-0.000063
H148	H	0.208650	0.189526	0.499937
H149	H	-0.325644	-0.062490	-0.000111
H150	H	0.174356	0.437510	0.499889
O151	O	-0.784824	0.207211	0.000079
O152	O	-0.284824	0.707211	0.500079
C153	C	-0.741808	0.185181	0.068738
C154	C	-0.241808	0.685181	0.568738
H155	H	-0.783852	0.166050	0.116723
H156	H	-0.283852	0.666050	0.616723
H157	H	-0.708642	0.235139	0.091790
H158	H	-0.208642	0.735139	0.591790
H159	H	-0.698145	0.136543	0.053220
H160	H	-0.198145	0.636543	0.553220
O161	O	-0.550382	-0.004278	0.000013
O162	O	-0.050382	0.495722	0.500013
C163	C	-0.576040	0.035663	0.068683
C164	C	-0.076040	0.535663	0.568683
H165	H	-0.632554	0.011397	0.091577
H166	H	-0.132554	0.511397	0.591577
H167	H	-0.587478	0.097955	0.053237
H168	H	-0.087478	0.597955	0.553237
H169	H	-0.528838	0.029934	0.116763
H170	H	-0.028838	0.529934	0.616763
H171	H	-0.791935	0.456110	-0.000055
H172	H	-0.291935	0.956110	0.499945
O173	O	-0.787437	0.051416	0.000072
O174	O	-0.287437	0.551416	0.500072
C175	C	-0.783948	0.005420	0.068726
C176	C	-0.283948	0.505420	0.568726
H177	H	-0.823985	0.031753	0.116711
H178	H	-0.323985	0.531753	0.616711
H179	H	-0.720963	0.000595	0.091782
H180	H	-0.220963	0.500595	0.591782
H181	H	-0.804074	-0.053280	0.053200
H182	H	-0.304074	0.446720	0.553200
O183	O	-1.016624	-0.259611	-0.207935
O184	O	-0.516624	0.240389	0.292065
C185	C	-1.058379	-0.302854	-0.262653
C186	C	-0.558379	0.197146	0.237347
H187	H	-1.063005	-0.271821	-0.322142
H188	H	-0.563005	0.228179	0.177858
H189	H	-1.119839	-0.311542	-0.238539
H190	H	-0.619839	0.188458	0.261461
H191	H	-1.026059	-0.360165	-0.271526
H192	H	-0.526059	0.139835	0.228474
O193	O	-1.016656	-0.259477	-0.372356
O194	O	-0.516656	0.240523	0.127644
C195	C	-1.070082	-0.216800	-0.420638
C196	C	-0.570082	0.283200	0.079362
H197	H	-1.078591	-0.157125	-0.395495
H198	H	-0.578591	0.342875	0.104505
H199	H	-1.128919	-0.244811	-0.421571
H200	H	-0.628919	0.255189	0.078429
H201	H	-1.045940	-0.213955	-0.483888
H202	H	-0.545940	0.286045	0.016112
O203	O	-1.016649	-0.259609	-0.627932
O204	O	-0.516649	0.240391	-0.127932
C205	C	-1.058406	-0.302853	-0.682647
C206	C	-0.558406	0.197147	-0.182647
H207	H	-1.063032	-0.271823	-0.742137
H208	H	-0.563032	0.228177	-0.242137
H209	H	-1.119866	-0.311538	-0.658530
H210	H	-0.619866	0.188462	-0.158530
H211	H	-1.026088	-0.360165	-0.691516
H212	H	-0.526088	0.139835	-0.191516
H213	H	-1.009148	-0.251893	-0.785773
H214	H	-0.509148	0.248107	-0.285773
O215	O	-0.829992	-0.066392	-0.792240
O216	O	-0.329992	0.433608	-0.292240
C217	C	-0.788211	-0.023164	-0.737530
C218	C	-0.288211	0.476836	-0.237530
H219	H	-0.820574	-0.020846	-0.678041
H220	H	-0.320574	0.479154	-0.178041
H221	H	-0.783487	0.036659	-0.761655
H222	H	-0.283487	0.536659	-0.261655
H223	H	-0.726786	-0.050347	-0.728656
H224	H	-0.226786	0.449653	-0.228656
H225	H	-0.837439	-0.074153	-0.634409
H226	H	-0.337439	0.425847	-0.134409
H227	H	-0.837416	-0.074155	-0.214401
H228	H	-0.337416	0.425845	0.285599
