data_functionalizedCrystal
_audit_creation_method	'MofGen! by Chris Wilmer'
_symmetry_space_group_name_H-M	'P1'
_symmetry_Int_Tables_number	1
_symmetry_cell_setting	triclinic
loop_
_symmetry_equiv_pos_as_xyz
  x,y,z
_cell_length_a	6.394984
_cell_length_b	11.792241
_cell_length_c	10.268362
_cell_angle_alpha	90.000374
_cell_angle_beta	90.003727
_cell_angle_gamma	85.344384
loop_
_atom_site_label
_atom_site_type_symbol
_atom_site_fract_x
_atom_site_fract_y
_atom_site_fract_z
O1	O	0.286339	1.510044	0.108169
O2	O	0.786339	2.010044	0.608169
O3	O	0.315849	1.180026	0.108199
O4	O	0.815849	1.680026	0.608199
O5	O	-0.002918	1.349723	0.108180
O6	O	0.497082	1.849723	0.608180
O7	O	0.605106	1.340347	0.108188
O8	O	1.105106	1.840347	0.608188
O9	O	-0.002931	1.349707	-0.108421
O10	O	0.497069	1.849707	0.391579
O11	O	0.315836	1.180011	-0.108402
O12	O	0.815836	1.680011	0.391598
O13	O	0.286326	1.510029	-0.108432
O14	O	0.786326	2.010029	0.391568
Cu15	Cu	0.301079	1.345018	-0.128194
Cu16	Cu	0.801079	1.845018	0.371806
Cu17	Cu	0.301095	1.345036	0.127961
Cu18	Cu	0.801095	1.845036	0.627961
O19	O	0.605093	1.340332	-0.108412
O20	O	1.105093	1.840332	0.391588
C21	C	0.313989	1.137707	-0.000098
C22	C	0.813989	1.637707	0.499902
C23	C	0.308440	1.011633	-0.000086
C24	C	0.808440	1.511633	0.499914
N25	N	0.301067	1.345014	-0.308360
N26	N	0.801067	1.845014	0.191640
C27	C	0.298238	0.780809	-0.000124
C28	C	0.798238	1.280809	0.499876
C29	C	0.303907	0.909256	-0.000103
C30	C	0.803907	1.409256	0.499897
C31	C	0.301091	1.345031	-0.574031
C32	C	0.801091	1.845031	-0.074031
C33	C	0.301084	1.345018	-0.426193
C34	C	0.801084	1.845018	0.073807
C35	C	0.919236	1.347851	-0.000124
C36	C	1.419236	1.847851	0.499876
C37	C	0.682934	1.342201	-0.000121
C38	C	1.182934	1.842201	0.499879
C39	C	0.288186	1.552348	-0.000132
C40	C	0.788186	2.052348	0.499868
C41	C	0.293734	1.678422	-0.000135
C42	C	0.793734	2.178422	0.499865
N43	N	0.301091	1.345050	0.308127
N44	N	0.801091	1.845050	0.808127
