data_functionalizedCrystal
_audit_creation_method	'MofGen! by Chris Wilmer'
_symmetry_space_group_name_H-M	'P1'
_symmetry_Int_Tables_number	1
_symmetry_cell_setting	triclinic
loop_
_symmetry_equiv_pos_as_xyz
  x,y,z
_cell_length_a	10.654554
_cell_length_b	10.489716
_cell_length_c	9.130313
_cell_angle_alpha	90.002761
_cell_angle_beta	89.999615
_cell_angle_gamma	84.507940
loop_
_atom_site_label
_atom_site_type_symbol
_atom_site_fract_x
_atom_site_fract_y
_atom_site_fract_z
O1	O	1.667899	0.179186	-0.121790
O2	O	1.302428	0.196249	-0.121791
O3	O	1.493496	0.002114	-0.121796
O4	O	1.476831	0.373321	-0.121785
O5	O	1.493493	0.002119	0.121803
O6	O	1.302426	0.196254	0.121808
O7	O	1.667897	0.179191	0.121809
Cu8	Cu	1.485161	0.187723	0.144051
Cu9	Cu	1.485164	0.187717	-0.144033
O10	O	1.476829	0.373326	0.121814
C11	C	1.255628	0.194998	0.000009
C12	C	1.116184	0.191246	0.000008
C13	C	0.905718	0.302028	0.000008
C14	C	1.036741	0.305555	0.000008
C15	C	1.064599	0.073402	-0.000007
C16	C	0.933578	0.069877	-0.000017
C17	C	0.889635	0.436060	0.000022
C18	C	1.020658	0.439586	0.000022
C19	C	1.492242	-0.045415	-0.000001
C20	C	1.488496	-0.187045	-0.000014
C21	C	1.605665	-0.284773	-0.000001
C22	C	1.543752	-0.362108	-0.120104
C23	C	1.543722	-0.362066	0.120066
C24	C	1.426632	-0.262514	-0.120216
C25	C	1.426620	-0.262467	0.120061
C26	C	1.364620	-0.339752	-0.000072
C27	C	1.714696	0.180442	0.000006
C28	C	1.854141	0.184194	-0.000003
C29	C	1.478082	0.420855	0.000015
C30	C	1.481828	0.562484	0.000019
N31	N	1.485168	0.187727	0.346674
N32	N	1.485166	0.187703	-0.346656
C33	C	1.569795	0.101793	0.423323
C34	C	1.569791	0.101778	0.576660
C35	C	1.400531	0.273641	0.576684
C36	C	1.400529	0.273649	0.423350
C37	C	1.667520	0.002573	0.423311
C38	C	1.667517	0.002557	0.576648
H39	H	1.707582	-0.260144	-0.000122
H40	H	1.331608	0.343612	0.360943
N41	N	0.829160	0.489711	0.139323
H42	H	0.783954	0.421509	0.189547
H43	H	0.896375	0.518237	0.206538
H44	H	1.593208	-0.405560	0.221601
N45	N	1.361149	-0.204765	0.254551
H46	H	1.329570	-0.275008	0.316165
H47	H	1.422528	-0.157991	0.313554
H48	H	1.593214	-0.405628	-0.221644
H49	H	1.331619	0.343596	0.639130
H50	H	1.646040	-0.095474	0.381688
N51	N	1.788312	0.043724	0.360297
H52	H	1.846678	0.063600	0.442631
H53	H	1.830383	-0.027599	0.297995
H54	H	1.377198	-0.219189	-0.221867
N55	N	1.627088	-0.120183	0.639631
H56	H	1.538824	-0.132203	0.605499
H57	H	1.686875	-0.194780	0.605454
N58	N	0.877946	-0.057214	-0.000051
H59	H	0.948153	-0.129093	-0.000055
H60	H	0.824186	-0.063740	0.090249
N61	N	1.150277	-0.049892	-0.000022
H62	H	1.241106	-0.029781	-0.000018
H63	H	1.133455	-0.101195	0.090280
N64	N	1.229541	-0.372118	-0.000182
H65	H	1.185455	-0.335569	-0.090956
H66	H	1.227876	-0.468219	0.000728
N67	N	1.795360	0.031516	0.631782
H68	H	1.785948	0.111908	0.693266
H69	H	1.833304	-0.042480	0.693165
N70	N	0.834346	0.502945	-0.135006
H71	H	0.854885	0.594967	-0.135057
H72	H	0.871313	0.458150	-0.225293
N73	N	1.067899	0.496114	-0.139295
H74	H	0.994356	0.520839	-0.206609
H75	H	1.111890	0.574563	-0.114969
H76	H	1.050038	0.491987	0.101982
