data_functionalizedCrystal
_audit_creation_method	'MofGen! by Chris Wilmer'
_symmetry_space_group_name_H-M	'P1'
_symmetry_Int_Tables_number	1
_symmetry_cell_setting	triclinic
loop_
_symmetry_equiv_pos_as_xyz
  x,y,z
_cell_length_a	10.489711
_cell_length_b	15.995350
_cell_length_c	15.072220
_cell_angle_alpha	89.998899
_cell_angle_beta	89.985932
_cell_angle_gamma	95.990308
loop_
_atom_site_label
_atom_site_type_symbol
_atom_site_fract_x
_atom_site_fract_y
_atom_site_fract_z
O1	O	1.692440	-0.118007	-0.073810
O2	O	1.321084	-0.129121	-0.073804
O3	O	1.516913	-0.001737	-0.073806
O4	O	1.496611	-0.245391	-0.073808
O5	O	1.516865	-0.001744	0.073759
O6	O	1.321036	-0.129128	0.073761
O7	O	1.692392	-0.118014	0.073755
Zn8	Zn	1.506706	-0.123572	0.097187
Zn9	Zn	1.506770	-0.123563	-0.097236
O10	O	1.496562	-0.245398	0.073758
C11	C	1.273539	-0.128291	-0.000021
C12	C	1.131943	-0.125795	-0.000019
C13	C	0.948484	-0.202400	-0.000029
C14	C	1.041189	-0.164131	-0.072785
C15	C	1.041115	-0.164118	0.072703
C16	C	0.972373	-0.083038	-0.072854
C17	C	0.972289	-0.083035	0.072699
C18	C	1.064967	-0.044708	-0.000074
C19	C	1.516050	0.029459	-0.000025
C20	C	1.513534	0.122425	-0.000030
C21	C	1.739937	-0.118845	-0.000030
C22	C	1.881533	-0.121340	-0.000038
C23	C	1.497426	-0.276595	-0.000025
C24	C	1.499942	-0.369560	-0.000026
C25	C	1.504497	0.460226	-0.000027
C26	C	1.365031	0.413623	-0.000356
C27	C	1.367547	0.316918	-0.000023
C28	C	1.508979	0.292639	-0.000029
C29	C	1.577741	0.333302	0.084235
C30	C	1.574238	0.429959	0.084306
C31	C	1.577174	0.430308	-0.083504
C32	C	1.577141	0.333363	-0.084617
C33	C	1.511520	0.197926	-0.000027
C34	C	1.501960	0.554939	-0.000023
N35	N	1.506672	-0.123578	0.229876
N36	N	1.506814	-0.123551	-0.229925
C37	C	1.506767	-0.123560	0.589078
C38	C	1.401631	-0.191488	0.551472
C39	C	1.401872	-0.191740	0.448646
C40	C	1.506719	-0.123569	0.410874
C41	C	1.639806	-0.143444	0.448163
C42	C	1.639217	-0.143927	0.551021
C43	C	1.480003	-0.035561	0.551179
C44	C	1.476949	-0.036129	0.448316
C45	C	1.506700	-0.123572	0.310160
C46	C	1.506795	-0.123558	0.689791
H47	H	1.313494	0.288821	-0.060427
H48	H	1.526867	0.306417	-0.146954
H49	H	1.379048	-0.021064	0.423945
C50	C	1.269232	-0.175734	0.584319
C51	C	1.190751	-0.162371	0.511646
C52	C	1.068780	-0.147840	0.541877
H53	H	1.232852	-0.223156	0.616945
H54	H	1.276110	-0.127504	0.621488
H55	H	1.183868	-0.210596	0.474492
H56	H	1.227090	-0.114947	0.479013
H57	H	1.075659	-0.099610	0.579046
H58	H	1.032412	-0.195265	0.574502
H59	H	1.015519	-0.138764	0.492574
C60	C	0.881139	-0.291279	0.000013
C61	C	0.917518	-0.333966	0.075484
C62	C	0.855517	-0.415843	0.075543
H63	H	0.790982	-0.289162	0.000584
H64	H	0.904584	-0.319987	-0.051711
H65	H	0.894065	-0.305266	0.127196
H66	H	1.007665	-0.336106	0.074930
H67	H	0.878961	-0.444551	0.023818
H68	H	0.765363	-0.413718	0.076110
H69	H	0.880200	-0.444819	0.126744
C70	C	1.081740	-0.209813	-0.154879
C71	C	1.045204	-0.168060	-0.230927
C72	C	1.082512	-0.210151	-0.306550
H73	H	1.172147	-0.210678	-0.154669
H74	H	1.041401	-0.265825	-0.154806
H75	H	1.085547	-0.112064	-0.231000
H76	H	0.954803	-0.167194	-0.231167
H77	H	1.042173	-0.266163	-0.306478
H78	H	1.172919	-0.211014	-0.306331
H79	H	1.057718	-0.181833	-0.358158
H80	H	1.680280	0.317386	-0.089709
C81	C	0.931709	-0.037407	-0.154937
C82	C	0.798553	-0.035613	-0.154019
C83	C	0.761043	0.006400	-0.229626
H84	H	0.972512	0.018473	-0.155227
H85	H	0.955770	-0.066019	-0.206562
H86	H	0.774505	-0.007000	-0.102408
H87	H	0.757718	-0.091482	-0.153742
H88	H	0.785103	-0.022212	-0.281250
H89	H	0.801854	0.062277	-0.229909
H90	H	0.670692	0.007616	-0.229018
C91	C	0.931279	-0.037651	0.154853
C92	C	0.845166	-0.092048	0.204135
C93	C	0.807327	-0.050354	0.279870
H94	H	1.004402	-0.020386	0.190066
H95	H	0.890877	0.010263	0.137581
H96	H	0.885570	-0.139947	0.221409
H97	H	0.772024	-0.109316	0.168948
H98	H	0.766924	-0.002440	0.262597
H99	H	0.880457	-0.033090	0.315075
H100	H	0.748886	-0.087253	0.313312
C101	C	1.294961	0.280350	0.080740
C102	C	1.248662	0.345344	0.129427
C103	C	1.181808	0.311692	0.203844
H104	H	1.225085	0.241809	0.062070
H105	H	1.350909	0.251987	0.116875
H106	H	1.192717	0.373694	0.093299
H107	H	1.318512	0.383890	0.148119
H108	H	1.237756	0.283328	0.239980
H109	H	1.111938	0.273151	0.185166
H110	H	1.150396	0.355785	0.236892
H111	H	1.548551	0.016850	0.422607
H112	H	1.071570	-0.198433	0.134213
H113	H	1.385063	-0.016646	0.577171
H114	H	1.309515	0.433545	0.059737
C115	C	1.132418	0.044141	-0.000078
C116	C	1.265266	0.040820	0.000671
C117	C	1.327444	0.122649	0.000674
H118	H	1.109053	0.072877	-0.051784
H119	H	1.107859	0.073163	0.051137
H120	H	1.289815	0.011810	-0.050540
H121	H	1.288668	0.012099	0.052373
H122	H	1.302884	0.151670	0.051889
H123	H	1.304069	0.151379	-0.051033
H124	H	1.417586	0.120406	0.001190
C125	C	1.514220	0.295918	0.167961
C126	C	1.576787	0.332897	0.242447
C127	C	1.518310	0.298474	0.319588
H128	H	1.426747	0.306395	0.168844
H129	H	1.519607	0.237001	0.168885
H130	H	1.571387	0.391800	0.241523
H131	H	1.664257	0.322422	0.241594
H132	H	1.523697	0.239557	0.320512
H133	H	1.430838	0.308953	0.320461
H134	H	1.560760	0.323553	0.370135
H135	H	1.309307	0.432490	-0.060783
H136	H	1.418486	-0.256406	0.577310
H137	H	1.524055	0.448556	0.147299
H138	H	1.556674	0.014998	0.575496
C139	C	1.716234	0.313515	0.088285
C140	C	1.742361	0.264320	0.014967
C141	C	1.869921	0.246065	0.018673
H142	H	1.771673	0.364411	0.087462
H143	H	1.729595	0.283589	0.141354
H144	H	1.729013	0.294246	-0.038088
H145	H	1.686954	0.213414	0.015775
H146	H	1.883281	0.216140	0.071743
H147	H	1.925349	0.296966	0.017852
H148	H	1.887661	0.212679	-0.031067
C149	C	1.516183	0.458094	-0.168569
C150	C	1.412161	0.502633	-0.147578
C151	C	1.355921	0.528232	-0.225911
H152	H	1.577597	0.493248	-0.201535
H153	H	1.487157	0.410085	-0.202974
H154	H	1.441189	0.550635	-0.113187
H155	H	1.350720	0.467496	-0.114624
H156	H	1.326895	0.480223	-0.260316
H157	H	1.417344	0.563383	-0.258871
H158	H	1.285330	0.558448	-0.211680
H159	H	1.676630	0.461597	0.088125
H160	H	1.680001	0.461456	-0.084074
H161	H	1.302946	-0.179781	0.423437
C162	C	1.424749	-0.278832	0.415991
C163	C	1.438406	-0.331432	0.488875
C164	C	1.459508	-0.411666	0.458828
H165	H	1.353966	-0.301270	0.381034
H166	H	1.500605	-0.275139	0.381135
H167	H	1.362559	-0.335127	0.523716
H168	H	1.509191	-0.309020	0.523839
H169	H	1.535363	-0.407973	0.423973
H170	H	1.388721	-0.434095	0.423871
H171	H	1.468788	-0.447362	0.508274
C172	C	1.670613	-0.229599	0.582828
C173	C	1.689942	-0.280435	0.509435
C174	C	1.718846	-0.359367	0.538696
H175	H	1.746236	-0.223105	0.617887
H176	H	1.601465	-0.255159	0.617395
H177	H	1.759084	-0.254881	0.474883
H178	H	1.614334	-0.286953	0.474368
H179	H	1.649699	-0.384927	0.573263
H180	H	1.794468	-0.352865	0.573755
H181	H	1.731953	-0.393872	0.488904
H182	H	1.719896	-0.096445	0.575894
H183	H	1.719910	-0.095318	0.423693
H184	H	1.663955	-0.206918	0.422393
