data_functionalizedCrystal
_audit_creation_method	'MofGen! by Chris Wilmer'
_symmetry_space_group_name_H-M	'P1'
_symmetry_Int_Tables_number	1
_symmetry_cell_setting	triclinic
loop_
_symmetry_equiv_pos_as_xyz
  x,y,z
_cell_length_a	17.019383
_cell_length_b	17.038272
_cell_length_c	18.366186
_cell_angle_alpha	89.993834
_cell_angle_beta	86.114979
_cell_angle_gamma	87.246883
loop_
_atom_site_label
_atom_site_type_symbol
_atom_site_fract_x
_atom_site_fract_y
_atom_site_fract_z
O1	O	1.053365	0.099661	-0.126533
O2	O	1.553365	0.599661	0.373467
O3	O	0.824553	0.112349	-0.112202
O4	O	1.324553	0.612349	0.387798
O5	O	0.937599	-0.007809	-0.119277
O6	O	1.437599	0.492191	0.380723
O7	O	0.940319	0.219820	-0.119458
O8	O	1.440319	0.719820	0.380542
O9	O	0.937578	-0.007815	0.001824
O10	O	1.437578	0.492185	0.501824
O11	O	0.824532	0.112343	0.008899
O12	O	1.324532	0.612343	0.508899
O13	O	1.053344	0.099655	-0.005432
O14	O	1.553344	0.599655	0.494568
Zn15	Zn	0.938935	0.105998	0.020961
Zn16	Zn	1.438935	0.605998	0.520961
Zn17	Zn	0.938962	0.106006	-0.138595
Zn18	Zn	1.438962	0.606006	0.361405
O19	O	0.940298	0.219814	0.001642
O20	O	1.440298	0.719814	0.501642
C21	C	0.795121	0.111863	-0.049809
C22	C	1.295121	0.611863	0.450191
C23	C	0.707454	0.110414	-0.044318
C24	C	1.207454	0.610414	0.455682
C25	C	0.666273	0.109738	-0.107745
C26	C	1.166273	0.609738	0.392255
C27	C	0.583899	0.108389	-0.102575
C28	C	1.083899	0.608389	0.397425
C29	C	0.542710	0.107710	-0.033977
C30	C	1.042710	0.607710	0.466023
C31	C	0.583897	0.108388	0.029455
C32	C	1.083897	0.608388	0.529455
C33	C	0.666269	0.109743	0.024284
C34	C	1.166269	0.609743	0.524284
C35	C	0.294001	0.103624	-0.015062
C36	C	0.794001	0.603624	0.484938
C37	C	0.211624	0.102267	-0.009896
C38	C	0.711624	0.602267	0.490104
C39	C	0.211632	0.102269	-0.141926
C40	C	0.711632	0.602269	0.358074
C41	C	0.294005	0.103619	-0.147091
C42	C	0.794005	0.603619	0.352909
C43	C	0.335185	0.104301	-0.083659
C44	C	0.835185	0.604301	0.416341
C45	C	0.458512	0.106328	-0.028691
C46	C	0.958512	0.606328	0.471309
C47	C	0.419382	0.105689	-0.088946
C48	C	0.919382	0.605689	0.411054
C49	C	0.935115	-0.036938	-0.058571
C50	C	1.435115	0.463062	0.441429
C51	C	0.927735	-0.123725	-0.058109
C52	C	1.427735	0.376275	0.441891
C53	C	0.995494	-0.173894	-0.062353
C54	C	1.495494	0.326106	0.437647
C55	C	0.988555	-0.255439	-0.061925
C56	C	1.488555	0.244561	0.438075
C57	C	0.913855	-0.286814	-0.057249
C58	C	1.413855	0.213186	0.442751
C59	C	0.846090	-0.236639	-0.053007
C60	C	1.346090	0.263361	0.446993
C61	C	0.853030	-0.155095	-0.053440
C62	C	1.353030	0.344905	0.446560
C63	C	0.889338	-0.532552	-0.055723
C64	C	1.389338	-0.032552	0.444277
C65	C	0.882403	-0.614102	-0.055288
C66	C	1.382403	-0.114102	0.444712
C67	C	1.024868	-0.632896	-0.064207
C68	C	1.524868	-0.132896	0.435793
C69	C	1.031802	-0.551350	-0.064635
C70	C	1.531802	-0.051350	0.435365
C71	C	0.964037	-0.501183	-0.060398
C72	C	1.464037	-0.001183	0.439602
C73	C	0.906760	-0.370165	-0.056809
C74	C	1.406760	0.129835	0.443191
C75	C	0.971132	-0.417832	-0.060843
C76	C	1.471132	0.082168	0.439157
C77	C	1.082776	0.100142	-0.067827
C78	C	1.582776	0.600142	0.432173
C79	C	1.170443	0.101591	-0.073323
C80	C	1.670443	0.601591	0.426677
C81	C	0.942782	0.248943	-0.059065
C82	C	1.442782	0.748943	0.440935
C83	C	0.950162	0.335730	-0.059531
C84	C	1.450162	0.835730	0.440469
N85	N	0.938922	0.105993	0.129853
N86	N	1.438922	0.605993	0.629853
N87	N	0.938981	0.106006	-0.247487
N88	N	1.438981	0.606006	0.252513
C89	C	0.988998	0.052813	0.164819
C90	C	1.488998	0.552813	0.664819
C91	C	0.989002	0.052809	0.241047
C92	C	1.489002	0.552809	0.741047
C93	C	0.938939	0.105999	0.282304
C94	C	1.438939	0.605999	0.782304
C95	C	0.888854	0.159183	0.247329
C96	C	1.388854	0.659183	0.747329
C97	C	0.888845	0.159180	0.171103
C98	C	1.388845	0.659180	0.671103
C99	C	0.933383	0.177212	0.403409
C100	C	1.433383	0.677212	0.903409
C101	C	0.933398	0.177216	0.479633
C102	C	1.433398	0.677216	0.979633
C103	C	0.938963	0.106009	0.517410
C104	C	1.438963	0.606009	1.017410
C105	C	0.944529	0.034795	0.478953
C106	C	1.444529	0.534795	0.978953
C107	C	0.944520	0.034791	0.402727
C108	C	1.444520	0.534791	0.902727
C109	C	0.938943	0.106008	0.364959
C110	C	1.438943	0.606008	0.864959
C111	C	0.989047	0.052821	0.635031
C112	C	1.489047	0.552821	1.135031
C113	C	0.989046	0.052816	0.711260
C114	C	1.489046	0.552816	1.211260
C115	C	0.888901	0.159197	0.717541
C116	C	1.388901	0.659197	1.217541
C117	C	0.888898	0.159195	0.641314
C118	C	1.388898	0.659195	1.141314
C119	C	0.938975	0.106007	0.600063
C120	C	1.438975	0.606007	1.100063
H121	H	0.550373	0.107839	-0.154224
H122	H	1.050373	0.607839	0.345776
Cl123	Cl	1.065037	-0.378388	-0.066725
Cl124	Cl	1.565037	0.121612	0.433275
H125	H	1.043733	-0.296283	-0.065379
H126	H	1.543733	0.203717	0.434621
H127	H	0.699803	0.110289	-0.163604
H128	H	1.199803	0.610289	0.336396
Cl129	Cl	0.951509	-0.054730	0.354384
Cl130	Cl	1.451509	0.445270	0.854384
Cl131	Cl	0.767843	-0.092025	-0.048108
Cl132	Cl	1.267843	0.407975	0.451892
Cl133	Cl	0.825913	0.226048	0.299194
Cl134	Cl	1.325913	0.726048	0.799194
Cl135	Cl	0.825946	0.226057	0.597351
Cl136	Cl	1.325946	0.726057	1.097351
H137	H	1.029771	0.009503	0.131235
H138	H	1.529771	0.509503	0.631235
H139	H	0.848066	0.202486	0.142633
H140	H	1.348066	0.702486	0.642633
Cl141	Cl	0.812855	-0.409615	-0.050934
Cl142	Cl	1.312855	0.090385	0.449066
Cl143	Cl	1.051962	-0.014051	0.285012
Cl144	Cl	1.551962	0.485949	0.785012
H145	H	0.327536	0.104167	-0.202950
H146	H	0.827536	0.604167	0.297050
H147	H	0.949060	-0.023189	0.509710
H148	H	1.449060	0.476811	1.009710
H149	H	1.029820	0.009510	0.601444
H150	H	1.529820	0.509510	1.101444
Cl151	Cl	0.532116	0.107541	0.115693
Cl152	Cl	1.032116	0.607541	0.615693
H153	H	0.452921	0.106246	-0.144798
H154	H	0.952921	0.606246	0.355202
H155	H	0.821570	-0.639643	-0.051468
H156	H	1.321570	-0.139643	0.448532
H157	H	1.029821	0.009507	0.739731
H158	H	1.529821	0.509507	1.239731
Cl159	Cl	0.825958	0.226059	0.769403
Cl160	Cl	1.325958	0.726059	1.269403
Cl161	Cl	0.159859	0.101403	-0.221663
Cl162	Cl	0.659859	0.601403	0.278337
H163	H	0.178089	0.101736	0.045967
H164	H	0.678089	0.601736	0.545967
H165	H	0.928870	0.235203	0.510939
H166	H	1.428870	0.735203	1.010939
H167	H	0.834158	-0.491714	-0.052272
H168	H	1.334158	0.008286	0.447728
Cl169	Cl	0.406724	0.105473	0.057544
Cl170	Cl	0.906724	0.605473	0.557544
Cl171	Cl	0.718040	0.110596	0.104024
Cl172	Cl	1.218040	0.610596	0.604024
H173	H	0.928839	0.235201	0.372658
H174	H	1.428839	0.735201	0.872658
Cl175	Cl	1.089408	-0.134460	-0.068224
Cl176	Cl	1.589408	0.365540	0.431776
Cl177	Cl	1.125714	-0.511914	-0.070538
Cl178	Cl	1.625714	-0.011914	0.429462
Cl179	Cl	0.345760	0.104480	0.064682
Cl180	Cl	0.845760	0.604480	0.564682
H181	H	0.785268	-0.262190	-0.049204
H182	H	1.285268	0.237810	0.450796
H183	H	1.080038	-0.673751	-0.067658
H184	H	1.580038	-0.173751	0.432342
