data_functionalizedCrystal
_audit_creation_method	'MofGen! by Chris Wilmer'
_symmetry_space_group_name_H-M	'P1'
_symmetry_Int_Tables_number	1
_symmetry_cell_setting	triclinic
loop_
_symmetry_equiv_pos_as_xyz
  x,y,z
_cell_length_a	16.109301
_cell_length_b	10.489741
_cell_length_c	15.186229
_cell_angle_alpha	89.996534
_cell_angle_beta	89.999362
_cell_angle_gamma	84.000327
loop_
_atom_site_label
_atom_site_type_symbol
_atom_site_fract_x
_atom_site_fract_y
_atom_site_fract_z
O1	O	1.104141	0.163947	-0.073172
O2	O	0.862205	0.184350	-0.073186
O3	O	0.988678	-0.011529	-0.073174
O4	O	0.977668	0.359826	-0.073185
O5	O	0.988670	-0.011532	0.073284
O6	O	0.862196	0.184347	0.073271
O7	O	1.104133	0.163944	0.073285
Zn8	Zn	0.983163	0.174145	0.096531
Zn9	Zn	0.983174	0.174149	-0.096433
O10	O	0.977659	0.359823	0.073272
C11	C	0.831221	0.183522	0.000041
C12	C	0.738910	0.181044	0.000035
C13	C	0.517319	0.291514	0.000042
C14	C	0.430584	0.289175	0.000048
C15	C	0.449026	0.056771	0.000051
C16	C	0.535759	0.059111	0.000052
C17	C	0.569903	0.176486	0.000043
C18	C	0.396435	0.171808	0.000048
C19	C	0.302393	0.169272	0.000054
C20	C	0.663950	0.179022	0.000038
C21	C	0.987842	-0.059050	0.000054
C22	C	0.985354	-0.200644	0.000053
C23	C	0.904883	-0.267616	0.000042
C24	C	0.942893	-0.360292	0.072255
C25	C	0.942920	-0.360264	-0.072141
C26	C	1.023397	-0.291454	0.072325
C27	C	1.023413	-0.291417	-0.072135
C28	C	1.061482	-0.384066	0.000096
C29	C	1.135117	0.164772	0.000056
C30	C	1.227427	0.167250	0.000056
C31	C	0.978495	0.407344	0.000042
C32	C	0.980983	0.548938	0.000038
N33	N	0.983162	0.174142	0.228224
N34	N	0.983183	0.174142	-0.228125
C35	C	1.039183	0.087436	0.453952
C36	C	1.039186	0.087433	0.546142
C37	C	0.927155	0.260852	0.546140
C38	C	0.927149	0.260848	0.453952
C39	C	0.983168	0.174141	0.407860
C40	C	0.983176	0.174142	0.592238
C41	C	0.983179	0.174140	0.692194
C42	C	0.983165	0.174142	0.307898
H43	H	0.838720	-0.217005	0.000110
H44	H	0.881546	0.331449	0.583677
H45	H	0.881530	0.331455	0.416421
H46	H	0.545116	0.387088	0.000042
H47	H	1.057437	-0.260865	-0.133185
H48	H	0.908865	-0.390732	-0.133197
H49	H	1.084798	0.016828	0.583667
H50	H	0.387773	0.382843	0.000049
H51	H	0.421215	-0.038791	0.000064
H52	H	1.127704	-0.434450	0.000140
O53	O	0.586930	-0.052551	-0.000067
C54	C	0.637638	-0.058157	-0.075929
H55	H	0.642623	0.043086	-0.101218
H56	H	0.608766	-0.116400	-0.129043
C57	C	0.719177	-0.246711	-0.021825
C58	C	0.725305	-0.122362	-0.052881
H59	H	0.773252	-0.286321	-0.007611
H60	H	0.685011	-0.242938	0.029283
H61	H	0.695113	-0.295231	-0.066093
H62	H	0.749358	-0.073840	-0.008611
H63	H	0.759476	-0.126129	-0.103982
H64	H	0.908840	-0.390810	0.133302
H65	H	1.057413	-0.261117	0.133445
H66	H	1.084796	0.016832	0.416427
