data_functionalizedCrystal
_audit_creation_method	'MofGen! by Chris Wilmer'
_symmetry_space_group_name_H-M	'P1'
_symmetry_Int_Tables_number	1
_symmetry_cell_setting	triclinic
loop_
_symmetry_equiv_pos_as_xyz
  x,y,z
_cell_length_a	19.077312
_cell_length_b	16.625546
_cell_length_c	19.076919
_cell_angle_alpha	92.269917
_cell_angle_beta	94.668947
_cell_angle_gamma	87.728601
loop_
_atom_site_label
_atom_site_type_symbol
_atom_site_fract_x
_atom_site_fract_y
_atom_site_fract_z
Zn1	Zn	1.061663	-0.386153	-0.355260
Zn2	Zn	1.561663	0.113847	0.144740
Zn3	Zn	1.066322	-0.515779	-0.237376
Zn4	Zn	1.566322	-0.015779	0.262624
Zn5	Zn	0.948520	-0.375770	-0.242128
Zn6	Zn	1.448520	0.124230	0.257872
Zn7	Zn	0.943753	-0.515746	-0.359959
Zn8	Zn	1.443753	-0.015746	0.140041
O9	O	1.005064	-0.448362	-0.298680
O10	O	1.505064	0.051638	0.201320
O11	O	1.160927	-0.407707	-0.335667
O12	O	1.660927	0.092293	0.164333
O13	O	1.054640	-0.492875	-0.139359
O14	O	1.554640	0.007125	0.360641
O15	O	0.963574	-0.264318	-0.257157
O16	O	1.463574	0.235682	0.242843
O17	O	1.164350	-0.502943	-0.249058
O18	O	1.664350	-0.002943	0.250942
O19	O	1.046699	-0.271946	-0.340275
O20	O	1.546699	0.228054	0.159725
O21	O	0.968091	-0.390011	-0.142850
O22	O	1.468091	0.109989	0.357150
O23	O	0.849242	-0.389979	-0.261713
O24	O	1.349242	0.110021	0.238287
O25	O	0.955449	-0.502886	-0.457983
O26	O	1.455449	-0.002886	0.042017
O27	O	0.845739	-0.492818	-0.348283
O28	O	1.345739	0.007182	0.151717
O29	O	1.042077	-0.407675	-0.454531
O30	O	1.542077	0.092325	0.045469
O31	O	1.050017	-0.628604	-0.253614
O32	O	1.550017	-0.128604	0.246386
O33	O	0.959967	-0.628579	-0.343675
O34	O	1.459967	-0.128579	0.156325
C35	C	0.821913	-0.440269	-0.306024
C36	C	1.321913	0.059731	0.193976
C37	C	0.743559	-0.436826	-0.309183
C38	C	1.243559	0.063174	0.190817
C39	C	1.004999	-0.657848	-0.298654
C40	C	1.504999	-0.157848	0.201346
C41	C	1.005034	-0.747472	-0.298663
C42	C	1.505034	-0.247472	0.201337
C43	C	0.302318	-0.412074	-0.331843
C44	C	0.802318	0.087926	0.168157
C45	C	0.375940	-0.415324	-0.328871
C46	C	0.875940	0.084676	0.171129
C47	C	0.414527	-0.466444	-0.282220
C48	C	0.914527	0.033556	0.217780
C49	C	0.379488	-0.514325	-0.238542
C50	C	0.879488	-0.014325	0.261458
C51	C	0.305867	-0.511079	-0.241518
C52	C	0.805867	-0.011079	0.258482
C53	C	0.634899	-0.481462	-0.268481
C54	C	1.134899	0.018538	0.231519
C55	C	0.708525	-0.484702	-0.265507
C56	C	1.208525	0.015298	0.234493
C57	C	0.704972	-0.385701	-0.355837
C58	C	1.204972	0.114299	0.144163
C59	C	0.631350	-0.382457	-0.358806
C60	C	1.131350	0.117543	0.141194
C61	C	0.596318	-0.430340	-0.315131
C62	C	1.096318	0.069660	0.184869
N63	N	0.489780	-0.469764	-0.279180
N64	N	0.989780	0.030236	0.220820
N65	N	0.521065	-0.427024	-0.318175
N66	N	1.021065	0.072976	0.181825
C67	C	1.005154	-1.075656	-0.298732
C68	C	1.505154	-0.575656	0.201268
C69	C	1.005119	-0.984345	-0.298715
C70	C	1.505119	-0.484345	0.201285
C71	C	1.005094	-0.911567	-0.298697
C72	C	1.505094	-0.411567	0.201303
C73	C	1.005059	-0.820250	-0.298681
C74	C	1.505059	-0.320250	0.201319
C75	C	1.188931	-0.456487	-0.291308
C76	C	1.688931	0.043513	0.208692
C77	C	1.267284	-0.459950	-0.288167
C78	C	1.767284	0.040050	0.211833
C79	C	0.997712	-0.456435	-0.482550
C80	C	1.497712	0.043565	0.017450
C81	C	0.994578	-0.459876	-0.560904
C82	C	1.494578	0.040124	-0.060904
C83	C	1.005149	-0.238059	-0.298722
C84	C	1.505149	0.261941	0.201278
C85	C	1.005185	-0.148440	-0.298740
C86	C	1.505185	0.351560	0.201260
C87	C	1.038207	-0.411923	-0.595919
C88	C	1.538207	0.088077	-0.095919
C89	C	1.035254	-0.415152	-0.669542
C90	C	1.535254	0.084848	-0.169542
C91	C	0.988676	-0.466339	-0.708148
C92	C	1.488676	0.033661	-0.208148
C93	C	0.945043	-0.514294	-0.673128
C94	C	1.445043	-0.014294	-0.173128
C95	C	0.947993	-0.511060	-0.599507
C96	C	1.447993	-0.011060	-0.099507
C97	C	0.975015	-0.481322	-0.928524
C98	C	1.475015	0.018678	-0.428524
C99	C	0.972071	-0.484555	-1.002150
C100	C	1.472071	0.015445	-0.502150
C101	C	1.062281	-0.385412	-0.998559
C102	C	1.562281	0.114588	-0.498559
C103	C	1.065229	-0.382186	-0.924937
C104	C	1.565229	0.117814	-0.424937
C105	C	1.021594	-0.430137	-0.889923
C106	C	1.521594	0.069863	-0.389923
N107	N	0.985659	-0.469643	-0.783402
N108	N	1.485659	0.030357	-0.283402
N109	N	1.024608	-0.426829	-0.814671
N110	N	1.524608	0.073171	-0.314671
C111	C	1.012429	-0.440263	-0.115525
C112	C	1.512429	0.059737	0.384475
C113	C	1.015699	-0.436602	-0.037165
C114	C	1.515699	0.063398	0.462835
H115	H	0.270906	-0.370441	-0.369827
H116	H	0.770906	0.129559	0.130173
H117	H	0.939495	-0.520380	-0.900025
H118	H	1.439495	-0.020380	-0.400025
H119	H	0.934139	-0.526239	-1.033582
H120	H	1.434139	-0.026239	-0.533582
C121	C	1.116461	-0.325868	-0.882475
C122	C	1.616461	0.174132	-0.382475
N123	N	1.155049	-0.283447	-0.850494
N124	N	1.655049	0.216553	-0.350494
H125	H	0.907116	-0.555968	-0.704567
H126	H	1.407116	-0.055968	-0.204567
H127	H	0.912459	-0.550099	-0.570999
H128	H	1.412459	-0.050099	-0.070999
H129	H	0.410911	-0.555951	-0.200560
H130	H	0.910911	-0.055951	0.299440
H131	H	0.739941	-0.526333	-0.227516
H132	H	1.239941	-0.026333	0.272484
C133	C	0.414474	-0.362650	-0.376913
C134	C	0.914474	0.137350	0.123087
N135	N	0.443497	-0.322972	-0.413098
N136	N	0.943497	0.177028	0.086902
C137	C	0.743514	-0.333037	-0.403880
C138	C	1.243514	0.166963	0.096120
N139	N	0.772543	-0.293371	-0.440070
N140	N	1.272543	0.206629	0.059930
C141	C	1.089446	-0.355612	-0.553459
C142	C	1.589446	0.144388	-0.053459
N143	N	1.128038	-0.313194	-0.521480
N144	N	1.628038	0.186806	-0.021480
H145	H	0.606385	-0.520450	-0.232915
H146	H	1.106385	-0.020450	0.267085
H147	H	0.599937	-0.340832	-0.396797
H148	H	1.099937	0.159168	0.103203
H149	H	0.277344	-0.550066	-0.205953
H150	H	0.777344	-0.050066	0.294047
C151	C	1.083250	-0.362401	-0.708055
C152	C	1.583250	0.137599	-0.208055
N153	N	1.119403	-0.322667	-0.737062
N154	N	1.619403	0.177333	-0.237062
H155	H	1.097805	-0.346371	-1.027075
H156	H	1.597805	0.153629	-0.527075
