data_functionalizedCrystal
_audit_creation_method	'MofGen! by Chris Wilmer'
_symmetry_space_group_name_H-M	'P1'
_symmetry_Int_Tables_number	1
_symmetry_cell_setting	triclinic
loop_
_symmetry_equiv_pos_as_xyz
  x,y,z
_cell_length_a	10.723023
_cell_length_b	10.654536
_cell_length_c	9.798715
_cell_angle_alpha	90.017277
_cell_angle_beta	90.000195
_cell_angle_gamma	95.525235
loop_
_atom_site_label
_atom_site_type_symbol
_atom_site_fract_x
_atom_site_fract_y
_atom_site_fract_z
O1	O	1.657203	-0.176150	-0.113513
O2	O	1.294052	-0.193011	-0.113522
O3	O	1.483982	-0.001839	-0.113471
O4	O	1.467273	-0.367322	-0.113564
O5	O	1.483981	-0.001825	0.113511
O6	O	1.294052	-0.192997	0.113460
O7	O	1.657202	-0.176135	0.113469
Zn8	Zn	1.475627	-0.184564	0.149503
Zn9	Zn	1.475628	-0.184583	-0.149556
O10	O	1.467273	-0.367307	0.113418
C11	C	1.247552	-0.191777	-0.000032
C12	C	1.108997	-0.188107	-0.000033
C13	C	1.047225	-0.186463	0.117550
C14	C	0.904021	-0.182669	0.117551
C15	C	1.482757	0.044966	0.000029
C16	C	1.479092	0.184409	0.000055
C17	C	1.706200	0.212415	0.000082
C18	C	1.818028	0.291926	0.000112
C19	C	1.814577	0.422944	0.000134
C20	C	1.699286	0.474452	0.000124
C21	C	1.587458	0.394940	0.000094
C22	C	1.590922	0.263921	0.000075
C23	C	1.360352	0.366935	0.000057
C24	C	1.363801	0.235917	0.000044
C25	C	1.245061	0.418442	0.000047
C26	C	1.133231	0.338930	0.000027
C27	C	1.136687	0.207905	0.000005
C28	C	1.251973	0.156405	0.000015
C29	C	1.703702	-0.177369	-0.000024
C30	C	1.842257	-0.181040	-0.000032
C31	C	1.468502	0.585888	-0.000033
C32	C	1.472180	0.446446	0.000087
N33	N	1.475629	-0.184587	-0.353656
C34	C	1.555549	-0.104139	-0.421411
C35	C	1.555553	-0.104119	-0.578574
N36	N	1.475636	-0.184550	0.353603
H37	H	1.100358	-0.187857	0.218216
H38	H	1.407214	-0.253450	-0.411998
H39	H	1.045623	0.143173	-0.000025
H40	H	0.895371	-0.182461	-0.100704
C41	C	1.195096	-0.038889	0.116662
C42	C	1.255779	0.012390	-0.000003
H43	H	1.197458	-0.127797	0.116650
H44	H	1.110442	-0.019604	0.116639
H45	H	1.236252	-0.004056	0.195819
H46	H	1.214617	-0.022437	-0.079161
H47	H	1.340449	-0.006907	0.000007
C48	C	0.949330	-0.292013	-0.143414
C49	C	1.037286	-0.186220	-0.135939
H50	H	0.905067	-0.290850	-0.227324
H51	H	0.892026	-0.290478	-0.069654
H52	H	0.991252	-0.366460	-0.138358
H53	H	0.995362	-0.111772	-0.140985
H54	H	1.094598	-0.187744	-0.209720
C55	C	1.721817	0.063234	-0.564446
C56	C	1.647925	-0.011133	-0.657220
H57	H	1.778839	0.120646	-0.613004
H58	H	1.767215	0.010598	-0.508744
H59	H	1.669505	0.108909	-0.508687
H60	H	1.700236	-0.056815	-0.712972
H61	H	1.602524	0.041510	-0.712946
C62	C	0.704337	-0.177358	0.227153
C63	C	0.832319	-0.180752	0.253457
H64	H	0.660073	-0.176165	0.311060
H65	H	0.674183	-0.249907	0.176282
H66	H	0.691959	-0.103685	0.176295
H67	H	0.844698	-0.254429	0.304307
H68	H	0.862483	-0.108195	0.304350
H69	H	1.407205	-0.253424	-0.588139
C70	C	1.834800	0.039979	0.000086
C71	C	1.709997	0.068398	0.000067
H72	H	1.837142	-0.048931	0.000069
H73	H	1.875933	0.074799	0.079246
H74	H	1.875957	0.074781	-0.079062
H75	H	1.668842	0.033604	0.079221
H76	H	1.668846	0.033564	-0.079101
C77	C	2.012679	0.275429	-0.116554
C78	C	1.944750	0.235302	0.000117
H79	H	2.090907	0.240465	-0.116556
H80	H	2.026626	0.364826	-0.116525
H81	H	1.966578	0.248188	-0.195707
H82	H	1.990847	0.262550	0.079271
H83	H	1.930806	0.145886	0.000101
C84	C	1.178309	0.598487	-0.116625
C85	C	1.241268	0.562459	0.000064
H86	H	1.175974	0.687399	-0.116614
H87	H	1.095220	0.558512	-0.116635
H88	H	1.221052	0.574002	-0.195766
H89	H	1.198520	0.586937	0.079205
H90	H	1.324372	0.602449	0.000086
H91	H	1.905636	0.487684	0.000148
H92	H	1.696486	0.581135	0.000125
H93	H	1.039370	0.380880	0.000009
H94	H	1.623973	-0.035284	-0.363070
