data_functionalizedCrystal
_audit_creation_method	'MofGen! by Chris Wilmer'
_symmetry_space_group_name_H-M	'P1'
_symmetry_Int_Tables_number	1
_symmetry_cell_setting	triclinic
loop_
_symmetry_equiv_pos_as_xyz
  x,y,z
_cell_length_a	14.853567
_cell_length_b	14.519709
_cell_length_c	13.330367
_cell_angle_alpha	89.994415
_cell_angle_beta	89.995418
_cell_angle_gamma	83.657538
loop_
_atom_site_label
_atom_site_type_symbol
_atom_site_fract_x
_atom_site_fract_y
_atom_site_fract_z
O1	O	1.196416	0.120405	-0.083357
O2	O	0.933962	0.134748	-0.083374
O3	O	1.072147	-0.006665	-0.083356
O4	O	1.058230	0.261818	-0.083375
O5	O	1.072127	-0.006668	0.083491
O6	O	0.933942	0.134745	0.083473
O7	O	1.196395	0.120402	0.083491
Cu8	Cu	1.065167	0.127573	0.098716
Cu9	Cu	1.065190	0.127577	-0.098600
O10	O	1.058210	0.261814	0.083472
C11	C	0.900363	0.134096	0.000047
C12	C	0.800278	0.132149	0.000041
C13	C	1.071488	-0.041026	0.000068
C14	C	1.069545	-0.143407	0.000068
C15	C	0.387709	0.039914	0.000070
C16	C	0.366493	0.207916	0.000057
C17	C	0.460527	0.209747	0.000054
C18	C	0.518157	0.126660	0.000057
C19	C	0.481752	0.041743	0.000064
C20	C	0.496939	0.294663	0.000037
C21	C	0.590979	0.296498	0.000033
C22	C	0.648610	0.213410	0.000043
C23	C	0.612200	0.128489	0.000051
C24	C	0.669830	0.045403	0.000054
C25	C	0.633422	-0.039520	0.000069
C26	C	0.539383	-0.041345	0.000074
C27	C	0.742649	0.215235	0.000038
C28	C	0.763873	0.047231	0.000048
C29	C	1.062390	-0.518299	0.000042
C30	C	1.064377	-0.413992	0.000050
C31	C	1.065967	-0.330856	0.000056
C32	C	1.067955	-0.226543	0.000062
C33	C	1.229994	0.121053	0.000067
C34	C	1.330079	0.123001	0.000067
C35	C	1.058869	0.296175	0.000046
C36	C	1.060812	0.398556	0.000039
N37	N	1.065157	0.127570	0.237498
N38	N	1.065208	0.127572	-0.237381
C39	C	1.003999	0.190170	0.710113
C40	C	1.126406	0.064976	0.710097
C41	C	1.126396	0.064974	0.605078
C42	C	1.065187	0.127571	0.552572
C43	C	1.003989	0.190170	0.605085
C44	C	1.187599	0.002381	0.552558
C45	C	1.187592	0.002376	0.447534
C46	C	1.126378	0.064970	0.395026
C47	C	1.065177	0.127572	0.447544
C48	C	1.003968	0.190169	0.395038
C49	C	0.942762	0.252767	0.447555
C50	C	0.942775	0.252764	0.552577
C51	C	1.126365	0.064973	0.290004
C52	C	1.003958	0.190170	0.290010
H53	H	0.680356	-0.107168	0.000065
C54	C	0.434522	0.384966	-0.000025
C55	C	0.486531	0.459726	-0.000071
C56	C	0.429059	0.542930	-0.000143
H57	H	0.397376	0.387879	0.058144
H58	H	0.397411	0.387788	-0.058230
H59	H	0.523627	0.456905	0.058128
H60	H	0.523676	0.456843	-0.058236
H61	H	0.391948	0.545752	-0.058348
H62	H	0.391915	0.545833	0.058028
H63	H	0.464338	0.593664	-0.000183
H64	H	0.620614	0.365646	0.000020
C65	C	0.782004	0.307519	0.000070
C66	C	0.711407	0.379891	0.000086
C67	C	0.747626	0.464920	0.000130
H68	H	0.818238	0.311853	-0.058099
H69	H	0.818218	0.311778	0.058275
H70	H	0.675209	0.375634	-0.058114
H71	H	0.675168	0.375587	0.058250
H72	H	0.783839	0.469178	0.058335
H73	H	0.783859	0.469244	-0.058040
H74	H	0.699732	0.514034	0.000150
C75	C	0.303819	0.298048	-0.000104
C76	C	0.249200	0.301896	-0.085929
C77	C	0.191441	0.384909	-0.086102
H78	H	0.338855	0.348960	-0.000158
H79	H	0.266638	0.300827	0.058050
H80	H	0.286377	0.299126	-0.144068
H81	H	0.214145	0.251003	-0.085892
H82	H	0.154259	0.387689	-0.027948
H83	H	0.226484	0.435815	-0.086154
H84	H	0.154369	0.387528	-0.144328
H85	H	0.954111	0.241141	0.247266
H86	H	0.810790	-0.020429	0.000054
H87	H	0.892929	0.303738	0.404792
C88	C	0.876435	0.320688	0.609776
C89	C	0.889567	0.307308	0.712987
C90	C	0.828484	0.369873	0.765714
H91	H	0.816210	0.310624	0.592707
H92	H	0.886331	0.382276	0.592611
H93	H	0.879665	0.245735	0.730145
H94	H	0.949780	0.317379	0.730087
H95	H	0.838379	0.431460	0.748549
H96	H	0.768262	0.359804	0.748637
H97	H	0.837391	0.360808	0.835748
C98	C	0.499906	-0.133567	0.000284
C99	C	0.529154	-0.183799	0.086136
C100	C	0.492794	-0.268752	0.086365
H101	H	0.519657	-0.167889	-0.057831
H102	H	0.435644	-0.122796	0.000335
H103	H	0.593403	-0.194574	0.086076
H104	H	0.509405	-0.149506	0.144265
H105	H	0.428531	-0.257981	0.086416
H106	H	0.512547	-0.303066	0.028246
H107	H	0.512627	-0.302842	0.144619
H108	H	0.954163	0.241134	0.752874
H109	H	1.176202	0.014010	0.247250
H110	H	1.237438	-0.048579	0.595312
C111	C	0.348011	-0.052190	0.000034
C112	C	0.253322	-0.036016	0.000018
C113	C	0.216721	-0.120841	-0.000028
H114	H	0.367685	-0.086476	0.058202
H115	H	0.367731	-0.086412	-0.058172
H116	H	0.233610	-0.001809	0.058218
H117	H	0.233622	-0.001745	-0.058146
H118	H	0.236441	-0.155063	-0.058234
H119	H	0.236402	-0.155120	0.058141
H120	H	0.152472	-0.109878	-0.000048
C121	C	1.253796	-0.065691	0.390339
C122	C	1.240610	-0.052376	0.287127
C123	C	1.301496	-0.115148	0.234407
H124	H	1.243762	-0.127212	0.407569
H125	H	1.314083	-0.055768	0.407350
H126	H	1.180337	-0.062306	0.270123
H127	H	1.250652	0.009133	0.269867
H128	H	1.361784	-0.105225	0.251418
H129	H	1.291457	-0.176666	0.251645
H130	H	1.292564	-0.106117	0.164373
H131	H	1.176245	0.014016	0.752851
