data_functionalizedCrystal
_audit_creation_method	'MofGen! by Chris Wilmer'
_symmetry_space_group_name_H-M	'P1'
_symmetry_Int_Tables_number	1
_symmetry_cell_setting	triclinic
loop_
_symmetry_equiv_pos_as_xyz
  x,y,z
_cell_length_a	29.839131
_cell_length_b	19.121424
_cell_length_c	19.120904
_cell_angle_alpha	94.747313
_cell_angle_beta	92.409150
_cell_angle_gamma	92.485340
loop_
_atom_site_label
_atom_site_type_symbol
_atom_site_fract_x
_atom_site_fract_y
_atom_site_fract_z
Zn1	Zn	-0.159559	1.058602	-0.352097
Zn2	Zn	0.173775	1.391935	-0.018764
Zn3	Zn	0.507108	1.725269	0.314570
Zn4	Zn	-0.231342	1.063508	-0.234435
Zn5	Zn	0.101992	1.396841	0.098898
Zn6	Zn	0.435325	1.730174	0.432231
Zn7	Zn	-0.159574	0.945964	-0.239452
Zn8	Zn	0.173759	1.279297	0.093882
Zn9	Zn	0.507093	1.612630	0.427215
Zn10	Zn	-0.238013	0.940873	-0.357057
Zn11	Zn	0.095320	1.274206	-0.023723
Zn12	Zn	0.428653	1.607539	0.309610
O13	O	-0.197122	1.002237	-0.295760
O14	O	0.136211	1.335570	0.037573
O15	O	0.469545	1.668903	0.370907
O16	O	-0.166283	1.157715	-0.332314
O17	O	0.167051	1.491049	0.001019
O18	O	0.500384	1.824382	0.334353
O19	O	-0.219036	1.052099	-0.136641
O20	O	0.114297	1.385432	0.196693
O21	O	0.447631	1.718765	0.530026
O22	O	-0.096703	0.960983	-0.254418
O23	O	0.236630	1.294316	0.078915
O24	O	0.569963	1.627650	0.412249
O25	O	-0.219021	1.161319	-0.245868
O26	O	0.114312	1.494653	0.087465
O27	O	0.447645	1.827986	0.420798
O28	O	-0.096692	1.043738	-0.337178
O29	O	0.236641	1.377071	-0.003845
O30	O	0.569975	1.710405	0.329489
O31	O	-0.166308	0.965740	-0.140326
O32	O	0.167025	1.299073	0.193007
O33	O	0.500358	1.632406	0.526341
O34	O	-0.172777	0.846826	-0.259227
O35	O	0.160556	1.180159	0.074106
O36	O	0.493889	1.513493	0.407440
O37	O	-0.230392	0.952306	-0.454859
O38	O	0.102942	1.285640	-0.121526
O39	O	0.436275	1.618973	0.211808
O40	O	-0.230406	0.843086	-0.345631
O41	O	0.102927	1.176419	-0.012298
O42	O	0.436260	1.509752	0.321036
O43	O	-0.172752	1.038801	-0.451215
O44	O	0.160582	1.372135	-0.117882
O45	O	0.493915	1.705468	0.215452
O46	O	-0.295095	1.047162	-0.250678
O47	O	0.038238	1.380496	0.082656
O48	O	0.371571	1.713829	0.415989
O49	O	-0.299997	0.957063	-0.340767
O50	O	0.033337	1.290396	-0.007434
O51	O	0.366670	1.623730	0.325900
C52	C	-0.202318	0.819425	-0.303512
C53	C	0.131016	1.152759	0.029821
C54	C	0.464349	1.486092	0.363155
C55	C	-0.204552	0.741217	-0.306845
C56	C	0.128782	1.074551	0.026488
C57	C	0.462115	1.407884	0.359822
C58	C	-0.218681	0.298789	-0.328004
C59	C	0.114652	0.632122	0.005329
C60	C	0.447985	0.965456	0.338662
C61	C	-0.216585	0.372274	-0.324860
C62	C	0.116748	0.705608	0.008474
C63	C	0.450081	1.038941	0.341807
C64	C	-0.185489	0.410938	-0.278376
C65	C	0.147845	0.744272	0.054957
C66	C	0.481178	1.077605	0.388291
C67	C	-0.156490	0.376113	-0.235029
C68	C	0.176844	0.709447	0.098304
C69	C	0.510177	1.042780	0.431637
C70	C	-0.158588	0.302629	-0.238171
C71	C	0.174745	0.635963	0.095162
C72	C	0.508078	0.969296	0.428496
C73	C	-0.177651	0.632908	-0.266640
C74	C	0.155682	0.966242	0.066693
C75	C	0.489015	1.299575	0.400027
C76	C	-0.175554	0.706397	-0.263503
C77	C	0.157779	1.039731	0.069830
C78	C	0.491113	1.373064	0.403164
C79	C	-0.235650	0.702553	-0.353333
C80	C	0.097683	1.035887	-0.019999
C81	C	0.431016	1.369220	0.313334
C82	C	-0.237744	0.629068	-0.356473
C83	C	0.095589	0.962401	-0.023140
C84	C	0.428922	1.295735	0.310193
C85	C	-0.208747	0.594250	-0.313124
C86	C	0.124586	0.927583	0.020209
C87	C	0.457920	1.260916	0.353543
C88	C	-0.183345	0.486052	-0.275162
C89	C	0.149989	0.819385	0.058171
C90	C	0.483322	1.152719	0.391505
C91	C	-0.210894	0.519137	-0.316335
C92	C	0.122440	0.852471	0.016998
C93	C	0.455773	1.185804	0.350332
C94	C	-0.313847	1.002111	-0.295731
C95	C	0.019486	1.335444	0.037603
C96	C	0.352820	1.668778	0.370936
C97	C	-0.363782	1.002121	-0.295739
C98	C	-0.030448	1.335454	0.037595
C99	C	0.302885	1.668787	0.370928
C100	C	-0.670857	1.049230	-0.248913
C101	C	-0.337524	1.382564	0.084420
C102	C	-0.004190	1.715897	0.417754
C103	C	-0.858528	1.049316	-0.248936
C104	C	-0.525195	1.382649	0.084397
C105	C	-0.191862	1.715983	0.417730
O106	O	-0.880612	1.089271	-0.209101
O107	O	-0.547279	1.422604	0.124233
O108	O	-0.213945	1.755937	0.457566
N109	N	-0.884561	1.002380	-0.295807
N110	N	-0.551228	1.335714	0.037526
N111	N	-0.217895	1.669047	0.370860
C112	C	-0.863674	0.955423	-0.342678
C113	C	-0.530340	1.288756	-0.009345
C114	C	-0.197007	1.622089	0.323989
O115	O	-0.890123	0.915508	-0.382550
O116	O	-0.556789	1.248841	-0.049216
O117	O	-0.223456	1.582175	0.284117
C118	C	-0.676003	0.955341	-0.342657
C119	C	-0.342670	1.288674	-0.009324
C120	C	-0.009337	1.622008	0.324009
C121	C	-0.649973	1.002275	-0.295779
C122	C	-0.316639	1.335608	0.037554
C123	C	0.016694	1.668942	0.370888
C124	C	-0.644826	1.096161	-0.202039
C125	C	-0.311493	1.429494	0.131295
C126	C	0.021840	1.762828	0.464628
C127	C	-0.597911	1.096136	-0.202031
C128	C	-0.264578	1.429470	0.131303
C129	C	0.068755	1.762803	0.464636
C130	C	-0.577027	1.049181	-0.248897
C131	C	-0.243694	1.382515	0.084437
C132	C	0.089640	1.715848	0.417770
C133	C	-0.603058	1.002251	-0.295771
C134	C	-0.269724	1.335584	0.037562
C135	C	0.063609	1.668917	0.370896
C136	C	-0.655116	0.908388	-0.389531
C137	C	-0.321783	1.241721	-0.056198
C138	C	0.011550	1.575054	0.277135
C139	C	-0.608196	0.908373	-0.389523
C140	C	-0.274862	1.241706	-0.056190
C141	C	0.058471	1.575039	0.277144
C142	C	-0.582165	0.955307	-0.342645
C143	C	-0.248832	1.288640	-0.009311
C144	C	0.084502	1.621973	0.324022
C145	C	-0.535258	0.955271	-0.342629
C146	C	-0.201925	1.288604	-0.009296
C147	C	0.131409	1.621938	0.324038
N148	N	-0.509225	1.002207	-0.295758
N149	N	-0.175892	1.335540	0.037575
N150	N	0.157442	1.668873	0.370908
C151	C	-0.530110	1.049162	-0.248892
C152	C	-0.196776	1.382495	0.084441
C153	C	0.136557	1.715828	0.417774
C154	C	-0.962203	0.955468	-0.342685
C155	C	-0.628870	1.288801	-0.009351
C156	C	-0.295537	1.622135	0.323982
C157	C	-1.009121	0.955488	-0.342689
C158	C	-0.675787	1.288821	-0.009356
C159	C	-0.342454	1.622154	0.323977
C160	C	-1.003972	1.049382	-0.248948
C161	C	-0.670639	1.382715	0.084385
C162	C	-0.337305	1.716048	0.417718
C163	C	-0.957054	1.049358	-0.248941
C164	C	-0.623720	1.382692	0.084392
C165	C	-0.290387	1.716025	0.417726
C166	C	-0.936170	1.002404	-0.295814
C167	C	-0.602837	1.335737	0.037519
C168	C	-0.269504	1.669071	0.370852
C169	C	-0.431585	1.049106	-0.248879
C170	C	-0.098252	1.382440	0.084455
C171	C	0.235082	1.715773	0.417788
C172	C	-0.384666	1.049076	-0.248873
C173	C	-0.051333	1.382409	0.084461
C174	C	0.282001	1.715742	0.417794
C175	C	-0.389819	0.955184	-0.342616
C176	C	-0.056485	1.288518	-0.009283
C177	C	0.276848	1.621851	0.324051
C178	C	-0.436734	0.955212	-0.342620
C179	C	-0.103400	1.288546	-0.009286
C180	C	0.229933	1.621879	0.324047
C181	C	-0.457615	1.002179	-0.295748
C182	C	-0.124282	1.335512	0.037585
C183	C	0.209051	1.668846	0.370918
O184	O	-0.513144	0.915343	-0.382449
O185	O	-0.179811	1.248676	-0.049116
O186	O	0.153522	1.582009	0.284218
O187	O	-0.503653	1.089081	-0.209037
O188	O	-0.170320	1.422415	0.124296
O189	O	0.163014	1.755748	0.457630
C190	C	-0.717772	1.049255	-0.248921
C191	C	-0.384439	1.382588	0.084412
C192	C	-0.051105	1.715921	0.417746
C193	C	-0.743803	1.002324	-0.295795
C194	C	-0.410469	1.335657	0.037538
C195	C	-0.077136	1.668991	0.370872
C196	C	-0.722918	0.955369	-0.342661
C197	C	-0.389585	1.288702	-0.009328
C198	C	-0.056251	1.622036	0.324006
C199	C	-0.790720	1.002343	-0.295799
C200	C	-0.457387	1.335677	0.037534
C201	C	-0.124053	1.669010	0.370867
C202	C	-0.811604	1.049299	-0.248933
C203	C	-0.478271	1.382632	0.084400
C204	C	-0.144938	1.715965	0.417733
C205	C	-0.785571	1.096234	-0.202063
C206	C	-0.452238	1.429568	0.131270
C207	C	-0.118905	1.762901	0.464604
C208	C	-0.738656	1.096210	-0.202055
C209	C	-0.405323	1.429543	0.131279
C210	C	-0.071990	1.762877	0.464612
C211	C	-0.748951	0.908433	-0.389532
C212	C	-0.415618	1.241766	-0.056198
C213	C	-0.082284	1.575100	0.277135
C214	C	-0.795866	0.908461	-0.389535
C215	C	-0.462532	1.241794	-0.056202
C216	C	-0.129199	1.575128	0.277131
C217	C	-0.816750	0.955416	-0.342669
C218	C	-0.483417	1.288749	-0.009336
C219	C	-0.150084	1.622083	0.323998
C220	C	-0.079941	1.002381	-0.295804
C221	C	0.253393	1.335714	0.037529
C222	C	0.586726	1.669048	0.370862
C223	C	-0.030005	1.002443	-0.295823
C224	C	0.303328	1.335776	0.037510
C225	C	0.636662	1.669109	0.370844
C226	C	-0.202314	0.994439	-0.479280
C227	C	0.131019	1.327772	-0.145947
C228	C	0.464353	1.661105	0.187386
C229	C	-0.204527	0.991116	-0.557486
C230	C	0.128807	1.324449	-0.224152
C231	C	0.462140	1.657782	0.109181
C232	C	-0.191906	1.185761	-0.287978
C233	C	0.141427	1.519095	0.045355
C234	C	0.474761	1.852428	0.378688
C235	C	-0.189683	1.263969	-0.284662
C236	C	0.143650	1.597302	0.048671
C237	C	0.476983	1.930636	0.382004
C238	C	-0.175557	1.034586	-0.592331
C239	C	0.157776	1.367919	-0.258998
C240	C	0.491109	1.701252	0.074336
C241	C	-0.177635	1.031455	-0.665814
C242	C	0.155698	1.364788	-0.332480
C243	C	0.489032	1.698121	0.000853
C244	C	-0.208684	0.984857	-0.704450
C245	C	0.124649	1.318190	-0.371116
C246	C	0.457982	1.651524	-0.037783
C247	C	-0.237655	0.941382	-0.669599
C248	C	0.095679	1.274716	-0.336266
C249	C	0.429012	1.608049	-0.002933
C250	C	-0.235575	0.944510	-0.596118
C251	C	0.097759	1.277844	-0.262785
C252	C	0.431092	1.611177	0.070548
C253	C	-0.216464	0.973157	-0.926410
C254	C	0.116870	1.306490	-0.593077
C255	C	0.450203	1.639824	-0.259744
C256	C	-0.218543	0.970034	-0.999896
C257	C	0.114791	1.303367	-0.666563
C258	C	0.448124	1.636701	-0.333230
C259	C	-0.158522	1.060106	-0.996105
C260	C	0.174811	1.393439	-0.662772
C261	C	0.508145	1.726773	-0.329439
C262	C	-0.156447	1.063232	-0.922623
C263	C	0.176887	1.396566	-0.589289
C264	C	0.510220	1.729899	-0.255956
C265	C	-0.185415	1.019755	-0.887779
C266	C	0.147918	1.353089	-0.554446
C267	C	0.481251	1.686422	-0.221113
C268	C	-0.210809	0.981657	-0.779561
C269	C	0.122524	1.314991	-0.446227
C270	C	0.455857	1.648324	-0.112894
C271	C	-0.183288	1.022952	-0.812670
C272	C	0.150046	1.356285	-0.479336
C273	C	0.483379	1.689619	-0.146003
C274	C	-0.191916	1.010045	-0.112952
C275	C	0.141417	1.343378	0.220381
C276	C	0.474750	1.676711	0.553715
C277	C	-0.189573	1.013504	-0.034741
C278	C	0.143760	1.346837	0.298592
C279	C	0.477093	1.680171	0.631925
H280	H	-0.158025	0.517540	-0.237316
H281	H	0.175308	0.850874	0.096017
H282	H	0.508642	1.184207	0.429351
F283	F	-0.266407	0.898242	-0.559034
F284	F	0.066927	1.231575	-0.225701
F285	F	0.400260	1.564908	0.107633
H286	H	-0.134937	1.095502	-1.024483
H287	H	0.198397	1.428835	-0.691150
H288	H	0.531730	1.762168	-0.357816
F289	F	-0.146816	1.077746	-0.702894
F290	F	0.186517	1.411079	-0.369561
F291	F	0.519850	1.744413	-0.036227
H292	H	-0.244001	0.267314	-0.365860
H293	H	0.089332	0.600647	-0.032527
H294	H	0.422665	0.933980	0.300806
F295	F	-0.150240	1.072537	-0.771549
F296	F	0.183093	1.405870	-0.438216
F297	F	0.516427	1.739203	-0.104883
F298	F	-0.570213	1.146098	-0.152144
F299	F	-0.236880	1.479432	0.181190
F300	F	0.096453	1.812765	0.514523
F301	F	-0.243855	0.932068	-0.820686
F302	F	0.089478	1.265402	-0.487353
F303	F	0.422812	1.598735	-0.154019
F304	F	-0.247295	0.926884	-0.889336
F305	F	0.086038	1.260218	-0.556003
F306	F	0.419371	1.593551	-0.222670
F307	F	-0.247450	0.409329	-0.370989
F308	F	0.085883	0.742662	-0.037656
F309	F	0.419217	1.075996	0.295678
H310	H	-0.263067	0.597593	-0.394324
H311	H	0.070266	0.930926	-0.060990
H312	H	0.403599	1.264259	0.272343
H313	H	-0.457929	0.916997	-0.380794
H314	H	-0.124596	1.250330	-0.047461
H315	H	0.208738	1.583664	0.285873
H316	H	-0.661825	1.134401	-0.163874
H317	H	-0.328492	1.467735	0.169459
H318	H	0.004841	1.801068	0.502792
H319	H	-0.372807	0.916952	-0.380772
H320	H	-0.039474	1.250285	-0.047438
H321	H	0.293859	1.583619	0.285895
F322	F	-0.585973	0.858397	-0.439415
F323	F	-0.252640	1.191730	-0.106082
F324	F	0.080694	1.525064	0.227252
H325	H	-0.131172	0.407599	-0.197178
H326	H	0.202161	0.740933	0.136155
H327	H	0.535495	1.074266	0.469489
H328	H	-0.802584	1.134465	-0.163901
H329	H	-0.469250	1.467798	0.169432
H330	H	-0.135917	1.801132	0.502766
F331	F	-0.266512	0.739615	-0.399460
F332	F	0.066821	1.072948	-0.066127
F333	F	0.400155	1.406282	0.267206
F334	F	-0.127726	0.265572	-0.192037
F335	F	0.205607	0.598905	0.141296
F336	F	0.538940	0.932239	0.474629
H337	H	-0.717465	1.134428	-0.163882
H338	H	-0.384132	1.467761	0.169451
H339	H	-0.050799	1.801095	0.502784
F340	F	-0.142457	0.747545	-0.214024
F341	F	0.190877	1.080879	0.119309
F342	F	0.524210	1.414212	0.452642
F343	F	-0.146786	0.595861	-0.220509
F344	F	0.186548	0.929195	0.112824
F345	F	0.519881	1.262528	0.446158
F346	F	-0.823565	0.858502	-0.439432
F347	F	-0.490232	1.191835	-0.106098
F348	F	-0.156898	1.525168	0.227235
H349	H	-0.448581	1.087353	-0.210713
H350	H	-0.115248	1.420686	0.122620
H351	H	0.218086	1.754019	0.455954
H352	H	-0.262934	0.903439	-0.701063
H353	H	0.070399	1.236772	-0.367730
H354	H	0.403732	1.570106	-0.034396
H355	H	-0.236214	0.487654	-0.354179
H356	H	0.097120	0.820987	-0.020846
H357	H	0.430453	1.154321	0.312487
H358	H	-0.363473	1.087295	-0.210696
H359	H	-0.030140	1.420628	0.122637
H360	H	0.303194	1.753962	0.455970
H361	H	-0.935862	1.087576	-0.210769
H362	H	-0.602529	1.420910	0.122564
H363	H	-0.269195	1.754243	0.455898
H364	H	-1.020984	1.087615	-0.210788
H365	H	-0.687651	1.420948	0.122545
H366	H	-0.354317	1.754281	0.455878
H367	H	-0.131164	1.101179	-0.891170
H368	H	0.202169	1.434513	-0.557837
H369	H	0.535503	1.767846	-0.224503
H370	H	-0.676303	0.870166	-0.427702
H371	H	-0.342970	1.203499	-0.094368
H372	H	-0.009636	1.536832	0.238965
F373	F	-1.036820	0.905526	-0.392576
F374	F	-0.703486	1.238860	-0.059243
F375	F	-0.370153	1.572193	0.274091
F376	F	-0.726731	0.858455	-0.439416
F377	F	-0.393397	1.191788	-0.106083
F378	F	-0.060064	1.525121	0.227250
H379	H	-0.945203	0.917230	-0.380856
H380	H	-0.611870	1.250564	-0.047522
H381	H	-0.278537	1.583897	0.285811
F382	F	-0.142512	1.084185	-0.551218
F383	F	0.190821	1.417519	-0.217884
F384	F	0.524154	1.750852	0.115449
H385	H	-0.243828	0.932086	-1.031352
H386	H	0.089506	1.265420	-0.698019
H387	H	0.422839	1.598753	-0.364685
