data_functionalizedCrystal
_audit_creation_method	'MofGen! by Chris Wilmer'
_symmetry_space_group_name_H-M	'P1'
_symmetry_Int_Tables_number	1
_symmetry_cell_setting	triclinic
loop_
_symmetry_equiv_pos_as_xyz
  x,y,z
_cell_length_a	27.732048
_cell_length_b	23.532407
_cell_length_c	22.610064
_cell_angle_alpha	90.000603
_cell_angle_beta	89.997337
_cell_angle_gamma	97.254333
loop_
_atom_site_label
_atom_site_type_symbol
_atom_site_fract_x
_atom_site_fract_y
_atom_site_fract_z
O1	O	0.641035	-0.067758	-0.049114
O2	O	0.974368	0.265575	0.284219
O3	O	1.307701	0.598908	0.617552
O4	O	0.500257	-0.078062	-0.049133
O5	O	0.833590	0.255271	0.284200
O6	O	1.166924	0.588605	0.617534
O7	O	0.574891	0.010031	-0.049112
O8	O	0.908224	0.343364	0.284221
O9	O	1.241558	0.676697	0.617554
O10	O	0.566401	-0.155851	-0.049135
O11	O	0.899734	0.177482	0.284198
O12	O	1.233067	0.510816	0.617532
O13	O	0.574878	0.010018	0.049257
O14	O	0.908211	0.343351	0.382590
O15	O	1.241545	0.676684	0.715924
O16	O	0.500244	-0.078075	0.049236
O17	O	0.833577	0.255258	0.382570
O18	O	1.166911	0.588592	0.715903
O19	O	0.641022	-0.067771	0.049255
O20	O	0.974355	0.265562	0.382588
O21	O	1.307688	0.598896	0.715922
Zn22	Zn	0.570631	-0.072925	0.064864
Zn23	Zn	0.903964	0.260408	0.398197
Zn24	Zn	1.237297	0.593742	0.731530
Zn25	Zn	0.570648	-0.072908	-0.064742
Zn26	Zn	0.903981	0.260425	0.268591
Zn27	Zn	1.237315	0.593759	0.601925
O28	O	0.566388	-0.155864	0.049234
O29	O	0.899721	0.177470	0.382567
O30	O	1.233054	0.510803	0.715901
C31	C	0.482243	-0.077852	0.000049
C32	C	0.815577	0.255481	0.333383
C33	C	1.148910	0.588814	0.666716
C34	C	0.428587	-0.077201	0.000043
C35	C	0.761921	0.256132	0.333376
C36	C	1.095254	0.589466	0.666709
N37	N	0.570622	-0.072936	0.153316
N38	N	0.903956	0.260397	0.486650
N39	N	1.237289	0.593730	0.819983
C40	C	0.574668	0.031240	0.000074
C41	C	0.908002	0.364573	0.333407
C42	C	1.241335	0.697906	0.666741
C43	C	0.574018	0.094455	0.000078
C44	C	0.907352	0.427789	0.333412
C45	C	1.240685	0.761122	0.666745
C46	C	0.089846	-0.125158	0.000062
C47	C	0.423179	0.208176	0.333395
C48	C	0.756513	0.541509	0.666728
C49	C	-0.111817	-0.122741	0.000067
C50	C	0.221516	0.210592	0.333401
C51	C	0.554849	0.543925	0.666734
O52	O	-0.143005	-0.166594	0.000087
O53	O	0.190328	0.166739	0.333420
O54	O	0.523661	0.500072	0.666754
N55	N	-0.131021	-0.070506	0.000073
N56	N	0.202312	0.262827	0.333407
N57	N	0.535645	0.596161	0.666740
C58	C	-0.099806	-0.018871	0.000082
C59	C	0.233527	0.314462	0.333415
C60	C	0.566861	0.647796	0.666749
O61	O	-0.120768	0.025614	0.000093
O62	O	0.212566	0.358947	0.333427
O63	O	0.545899	0.692280	0.666760
C64	C	0.101856	-0.021288	0.000081
C65	C	0.435190	0.312045	0.333414
C66	C	0.768523	0.645379	0.666747
C67	C	0.121057	-0.073527	0.000069
C68	C	0.454391	0.259807	0.333402
C69	C	0.787724	0.593140	0.666735
C70	C	0.109048	-0.177392	0.000050
C71	C	0.442381	0.155941	0.333384
C72	C	0.775714	0.489275	0.666717
C73	C	0.159461	-0.177996	0.000046
C74	C	0.492794	0.155338	0.333379
C75	C	0.826127	0.488671	0.666712
C76	C	0.190672	-0.126365	0.000052
C77	C	0.524005	0.206969	0.333386
C78	C	0.857339	0.540302	0.666719
C79	C	0.171470	-0.074130	0.000064
C80	C	0.504804	0.259203	0.333397
C81	C	0.838137	0.592536	0.666731
C82	C	0.133071	0.030346	0.000093
C83	C	0.466404	0.363679	0.333427
C84	C	0.799737	0.697013	0.666760
C85	C	0.183489	0.029737	0.000095
C86	C	0.516822	0.363071	0.333428
C87	C	0.850155	0.696404	0.666761
C88	C	0.202690	-0.022501	0.000083
C89	C	0.536023	0.310832	0.333416
C90	C	0.869357	0.644165	0.666749
C91	C	0.253094	-0.023103	0.000066
C92	C	0.586428	0.310230	0.333399
C93	C	0.919761	0.643564	0.666733
N94	N	0.272298	-0.075338	0.000060
N95	N	0.605632	0.257995	0.333393
N96	N	0.938965	0.591328	0.666727
C97	C	0.241087	-0.126969	0.000053
C98	C	0.574421	0.206364	0.333386
C99	C	0.907754	0.539697	0.666720
C100	C	-0.205682	-0.017606	0.000082
C101	C	0.127651	0.315728	0.333415
C102	C	0.460985	0.649061	0.666748
C103	C	-0.256097	-0.017001	0.000081
C104	C	0.077236	0.316332	0.333414
C105	C	0.410569	0.649665	0.666748
C106	C	-0.268105	-0.120872	0.000067
C107	C	0.065228	0.212462	0.333401
C108	C	0.398562	0.545795	0.666734
C109	C	-0.217689	-0.121476	0.000064
C110	C	0.115645	0.211858	0.333397
C111	C	0.448978	0.545191	0.666730
C112	C	-0.186478	-0.069841	0.000075
C113	C	0.146855	0.263492	0.333409
C114	C	0.480189	0.596826	0.666742
C115	C	0.346958	-0.128233	0.000043
C116	C	0.680292	0.205101	0.333376
C117	C	1.013625	0.538434	0.666710
C118	C	0.397376	-0.128832	0.000036
C119	C	0.730710	0.204502	0.333369
C120	C	1.064043	0.537835	0.666702
C121	C	0.409379	-0.024962	0.000053
C122	C	0.742713	0.308372	0.333386
C123	C	1.076046	0.641705	0.666719
C124	C	0.358966	-0.024362	0.000057
C125	C	0.692299	0.308971	0.333390
C126	C	1.025633	0.642304	0.666723
C127	C	0.327756	-0.076003	0.000054
C128	C	0.661089	0.257331	0.333387
C129	C	0.994423	0.590664	0.666720
O130	O	0.284311	0.020727	0.000053
O131	O	0.617644	0.354060	0.333387
O132	O	0.950978	0.687393	0.666720
O133	O	0.262058	-0.171448	0.000055
O134	O	0.595392	0.161886	0.333388
O135	O	0.928725	0.495219	0.666721
C136	C	0.039433	-0.124554	0.000066
C137	C	0.372767	0.208779	0.333400
C138	C	0.706100	0.542113	0.666733
C139	C	0.020232	-0.072320	0.000078
C140	C	0.353565	0.261014	0.333411
C141	C	0.686898	0.594347	0.666744
C142	C	0.051443	-0.020689	0.000085
C143	C	0.384776	0.312645	0.333418
C144	C	0.718110	0.645978	0.666751
C145	C	-0.030184	-0.071715	0.000077
C146	C	0.303150	0.261618	0.333410
C147	C	0.636483	0.594951	0.666744
C148	C	-0.061395	-0.123346	0.000070
C149	C	0.271938	0.209987	0.333404
C150	C	0.605272	0.543320	0.666737
C151	C	-0.042191	-0.175581	0.000064
C152	C	0.291142	0.157752	0.333397
C153	C	0.624476	0.491085	0.666731
C154	C	0.008222	-0.176185	0.000059
C155	C	0.341555	0.157148	0.333393
C156	C	0.674889	0.490482	0.666726
C157	C	0.032239	0.031547	0.000091
C158	C	0.365572	0.364880	0.333424
C159	C	0.698905	0.698213	0.666757
C160	C	-0.018175	0.032146	0.000095
C161	C	0.315159	0.365479	0.333428
C162	C	0.648492	0.698813	0.666761
C163	C	-0.049386	-0.019485	0.000088
C164	C	0.283947	0.313848	0.333421
C165	C	0.617281	0.647182	0.666755
C166	C	0.659035	-0.067981	0.000071
C167	C	0.992369	0.265352	0.333405
C168	C	1.325702	0.598686	0.666738
C169	C	0.712691	-0.068632	0.000074
C170	C	1.046025	0.264701	0.333407
C171	C	1.379358	0.598034	0.666741
C172	C	0.566610	-0.177073	0.000047
C173	C	0.899944	0.156260	0.333380
C174	C	1.233277	0.489594	0.666713
C175	C	0.567260	-0.240289	0.000038
C176	C	0.900594	0.093045	0.333372
C177	C	1.233927	0.426378	0.666705
C178	C	0.614108	0.493644	0.000051
C179	C	0.947441	0.826977	0.333385
C180	C	1.280775	1.160311	0.666718
C181	C	0.613504	0.553043	0.000047
C182	C	0.946837	0.886376	0.333380
C183	C	1.280171	1.219710	0.666713
O184	O	0.650668	0.589867	0.000030
O185	O	0.984001	0.923200	0.333363
O186	O	1.317334	1.256534	0.666696
N187	N	0.569134	0.575574	0.000041
N188	N	0.902468	0.908908	0.333374
N189	N	1.235801	1.242241	0.666708
C190	C	0.525365	0.538703	0.000034
C191	C	0.858699	0.872037	0.333368
C192	C	1.192032	1.205370	0.666701
O193	O	0.487570	0.563322	0.000029
O194	O	0.820903	0.896656	0.333362
O195	O	1.154237	1.229989	0.666695
C196	C	0.525970	0.479306	0.000035
C197	C	0.859303	0.812639	0.333368
C198	C	1.192636	1.145972	0.666701
C199	C	0.570342	0.456778	0.000046
C200	C	0.903676	0.790111	0.333379
C201	C	1.237009	1.123444	0.666713
C202	C	0.658477	0.471116	0.000062
C203	C	0.991810	0.804449	0.333395
C204	C	1.325144	1.137782	0.666729
C205	C	0.659081	0.411721	0.000068
C206	C	0.992414	0.745054	0.333401
C207	C	1.325747	1.078387	0.666734
C208	C	0.615315	0.374854	0.000063
C209	C	0.948649	0.708188	0.333396
C210	C	1.281982	1.041521	0.666729
C211	C	0.570946	0.397383	0.000052
C212	C	0.904279	0.730716	0.333385
C213	C	1.237613	1.064050	0.666718
C214	C	0.482201	0.442436	0.000023
C215	C	0.815535	0.775769	0.333357
C216	C	1.148868	1.109102	0.666690
C217	C	0.482810	0.383035	0.000023
C218	C	0.816143	0.716368	0.333357
C219	C	1.149476	1.049701	0.666690
C220	C	0.527182	0.360507	0.000035
C221	C	0.860516	0.693840	0.333368
C222	C	1.193849	1.027173	0.666701
C223	C	0.527784	0.301122	0.000052
C224	C	0.861118	0.634455	0.333386
C225	C	1.194451	0.967788	0.666719
N226	N	0.572154	0.278590	0.000058
N227	N	0.905487	0.611924	0.333391
N228	N	1.238821	0.945257	0.666724
C229	C	0.615920	0.315457	0.000063
C230	C	0.949253	0.648790	0.333396
C231	C	1.282586	0.982123	0.666730
C232	C	0.524100	0.663443	0.000032
C233	C	0.857433	0.996777	0.333366
C234	C	1.190766	1.330110	0.666699
C235	C	0.523495	0.722840	0.000036
C236	C	0.856828	1.056173	0.333370
C237	C	1.190161	1.389507	0.666703
C238	C	0.611634	0.737175	0.000048
C239	C	0.944967	1.070509	0.333381
C240	C	1.278300	1.403842	0.666714
C241	C	0.612238	0.677778	0.000048
C242	C	0.945571	1.011111	0.333381
C243	C	1.278905	1.344444	0.666715
C244	C	0.568469	0.640912	0.000038
C245	C	0.901803	0.974245	0.333371
C246	C	1.235136	1.307579	0.666705
C247	C	0.617184	0.190723	0.000075
C248	C	0.950517	0.524056	0.333409
C249	C	1.283851	0.857389	0.666742
C250	C	0.617784	0.131322	0.000083
C251	C	0.951117	0.464655	0.333417
C252	C	1.284450	0.797988	0.666750
C253	C	0.529645	0.116991	0.000069
C254	C	0.862978	0.450325	0.333402
C255	C	1.196312	0.783658	0.666736
C256	C	0.529045	0.176387	0.000064
C257	C	0.862378	0.509720	0.333397
C258	C	1.195712	0.843054	0.666731
C259	C	0.572818	0.213252	0.000065
C260	C	0.906152	0.546585	0.333398
C261	C	1.239485	0.879918	0.666732
O262	O	0.490640	0.264263	0.000067
O263	O	0.823974	0.597596	0.333400
O264	O	1.157307	0.930930	0.666733
O265	O	0.653709	0.290829	0.000061
O266	O	0.987042	0.624163	0.333394
O267	O	1.320376	0.957496	0.666727
N268	N	0.570660	-0.072892	-0.153194
N269	N	0.903994	0.260441	0.180139
N270	N	1.237327	0.593774	0.513472
C271	C	0.603697	-0.033907	0.561967
C272	C	0.937031	0.299427	0.895300
C273	C	1.270364	0.632760	1.228633
C274	C	0.603700	-0.033902	0.623887
C275	C	0.937033	0.299431	0.957220
C276	C	1.270367	0.632764	1.290553
O277	O	0.631801	-0.000727	0.655913
O278	O	0.965134	0.332607	0.989247
O279	O	1.298468	0.665940	1.322580
N280	N	0.570648	-0.072896	0.654853
N281	N	0.903981	0.260437	0.988187
N282	N	1.237314	0.593770	1.321520
C283	C	0.537588	-0.111893	0.623897
C284	C	0.870921	0.221440	0.957230
C285	C	1.204254	0.554774	1.290564
O286	O	0.509474	-0.145060	0.655922
O287	O	0.842807	0.188274	0.989256
O288	O	1.176141	0.521607	1.322589
C289	C	0.537583	-0.111894	0.561978
C290	C	0.870917	0.221439	0.895311
C291	C	1.204250	0.554773	1.228645
C292	C	0.570641	-0.072901	0.531015
C293	C	0.903974	0.260432	0.864348
C294	C	1.237308	0.593765	1.197681
C295	C	0.636752	0.005083	0.531003
C296	C	0.970085	0.338417	0.864337
C297	C	1.303419	0.671750	1.197670
C298	C	0.636750	0.005078	0.469088
C299	C	0.970083	0.338412	0.802421
C300	C	1.303417	0.671745	1.135754
C301	C	0.603693	-0.033917	0.438136
C302	C	0.937027	0.299417	0.771469
C303	C	1.270360	0.632750	1.104802
C304	C	0.570639	-0.072906	0.469099
C305	C	0.903972	0.260427	0.802432
C306	C	1.237305	0.593760	1.135766
C307	C	0.504521	-0.150887	0.531023
C308	C	0.837855	0.182446	0.864356
C309	C	1.171188	0.515779	1.197689
C310	C	0.504519	-0.150885	0.469100
C311	C	0.837853	0.182449	0.802433
C312	C	1.171186	0.515782	1.135766
C313	C	0.537577	-0.111892	0.438136
C314	C	0.870910	0.221441	0.771470
C315	C	1.204244	0.554774	1.104803
C316	C	0.537580	-0.111906	0.376231
C317	C	0.870914	0.221427	0.709565
C318	C	1.204247	0.554760	1.042898
N319	N	0.570632	-0.072912	0.345265
N320	N	0.903966	0.260421	0.678598
N321	N	1.237299	0.593754	1.011931
C322	C	0.603689	-0.033918	0.376217
C323	C	0.937022	0.299416	0.709550
C324	C	1.270356	0.632749	1.042883
C325	C	0.537599	-0.111887	0.753931
C326	C	0.870932	0.221446	1.087264
C327	C	1.204265	0.554779	1.420597
C328	C	0.537605	-0.111889	0.815848
C329	C	0.870938	0.221444	1.149181
C330	C	1.204272	0.554777	1.482515
C331	C	0.603717	-0.033898	0.815834
C332	C	0.937050	0.299435	1.149167
C333	C	1.270384	0.632769	1.482500
C334	C	0.603713	-0.033899	0.753915
C335	C	0.937046	0.299434	1.087248
C336	C	1.270379	0.632768	1.420582
C337	C	0.570651	-0.072893	0.722964
C338	C	0.903984	0.260440	1.056297
C339	C	1.237318	0.593773	1.389631
C340	C	0.603683	-0.033931	0.246189
C341	C	0.937016	0.299402	0.579523
C342	C	1.270349	0.632735	0.912856
C343	C	0.603679	-0.033941	0.184268
C344	C	0.937012	0.299392	0.517602
C345	C	1.270346	0.632725	0.850935
C346	C	0.537566	-0.111931	0.184288
C347	C	0.870899	0.221403	0.517622
C348	C	1.204232	0.554736	0.850955
C349	C	0.537571	-0.111923	0.246204
C350	C	0.870904	0.221411	0.579537
C351	C	1.204237	0.554744	0.912871
C352	C	0.570631	-0.072918	0.277153
C353	C	0.903964	0.260415	0.610486
C354	C	1.237298	0.593748	0.943820
O355	O	0.509492	-0.145064	0.344165
O356	O	0.842826	0.188270	0.677499
O357	O	1.176159	0.521603	1.010832
O358	O	0.631794	-0.000752	0.344184
O359	O	0.965127	0.332582	0.677517
O360	O	1.298460	0.665915	1.010851
H361	H	0.413007	-0.171373	0.000026
H362	H	0.746340	0.161961	0.333359
H363	H	1.079673	0.495294	0.666692
H364	H	0.446068	0.460767	0.000010
H365	H	0.779402	0.794100	0.333344
H366	H	1.112735	1.127434	0.666677
H367	H	-0.033803	0.074688	0.000100
H368	H	0.299531	0.408021	0.333433
H369	H	0.632864	0.741355	0.666767
H370	H	0.648370	0.659440	0.000057
H371	H	0.981703	0.992773	0.333390
H372	H	1.315037	1.326107	0.666724
N373	N	0.637459	0.005901	0.277798
N374	N	0.970793	0.339234	0.611131
N375	N	1.304126	0.672568	0.944465
N376	N	0.667379	-0.011923	0.312344
N377	N	1.000712	0.321411	0.645677
N378	N	1.334046	0.654744	0.979010
H379	H	0.691236	0.016206	0.334668
H380	H	1.024569	0.349540	0.668001
H381	H	1.357902	0.682873	1.001335
H382	H	-0.180274	0.024444	0.000091
H383	H	0.153059	0.357777	0.333424
H384	H	0.486393	0.691110	0.666758
N385	N	-0.299986	-0.173616	0.000060
N386	N	0.033347	0.159717	0.333393
N387	N	0.366680	0.493050	0.666727
N388	N	-0.298382	-0.208461	-0.041404
N389	N	0.034951	0.124872	0.291929
N390	N	0.368285	0.458206	0.625263
H391	H	-0.320900	-0.245710	-0.041405
H392	H	0.012434	0.087623	0.291928
H393	H	0.345767	0.420957	0.625261
H394	H	0.487362	0.741176	0.000037
H395	H	0.820695	1.074510	0.333371
H396	H	1.154029	1.407843	0.666704
H397	H	0.488456	0.633430	0.000029
H398	H	0.821789	0.966763	0.333363
H399	H	1.155122	1.300096	0.666696
N400	N	0.438095	0.345386	0.000006
N401	N	0.771428	0.678719	0.333339
N402	N	1.104762	1.012053	0.666673
N403	N	0.398484	0.365513	-0.000008
N404	N	0.731817	0.698846	0.333326
N405	N	1.065151	1.032180	0.666659
H406	H	0.366904	0.338925	-0.000020
H407	H	0.700237	0.672259	0.333313
H408	H	1.033570	1.005592	0.666646
H409	H	0.117446	0.072884	0.000104
H410	H	0.450780	0.406218	0.333437
H411	H	0.784113	0.739551	0.666771
N412	N	0.704411	0.388723	0.000077
N413	N	1.037744	0.722057	0.333410
N414	N	1.371078	1.055390	0.666744
N415	N	0.743480	0.421655	0.000079
N416	N	1.076814	0.754989	0.333413
N417	N	1.410147	1.088322	0.666746
H418	H	0.775498	0.405418	0.000084
H419	H	1.108831	0.738751	0.333417
H420	H	1.442165	1.072085	0.666751
N421	N	0.503806	-0.151760	0.152656
N422	N	0.837139	0.181574	0.485989
N423	N	1.170473	0.514907	0.819322
N424	N	0.503812	-0.151752	0.097372
N425	N	0.837145	0.181582	0.430705
N426	N	1.170478	0.514915	0.764038
H427	H	0.479967	-0.179879	0.075029
H428	H	0.813300	0.153454	0.408362
H429	H	1.146634	0.486788	0.741695
H430	H	0.510692	-0.143647	0.841054
H431	H	0.844025	0.189687	1.174388
H432	H	1.177358	0.523020	1.507721
N433	N	0.670556	0.044872	0.437473
N434	N	1.003889	0.378205	0.770807
N435	N	1.337222	0.711539	1.104140
N436	N	0.700088	0.079656	0.465127
N437	N	1.033421	0.412989	0.798460
N438	N	1.366754	0.746323	1.131793
H439	H	0.723978	0.107748	0.442803
H440	H	1.057311	0.441082	0.776137
H441	H	1.390644	0.774415	1.109470
N442	N	0.339349	0.028996	0.000075
N443	N	0.672682	0.362329	0.333409
N444	N	1.006015	0.695663	0.666742
N445	N	0.312560	0.040915	0.041549
N446	N	0.645894	0.374248	0.374883
N447	N	0.979227	0.707581	0.708216
H448	H	0.298708	0.078600	0.041568
H449	H	0.632041	0.411933	0.374901
H450	H	0.965375	0.745267	0.708235
H451	H	0.057647	0.073592	0.000098
H452	H	0.390980	0.406925	0.333431
H453	H	0.724313	0.740258	0.666764
H454	H	0.630631	-0.002148	0.728708
H455	H	0.963964	0.331186	1.062041
H456	H	1.297297	0.664519	1.395375
H457	H	0.510677	-0.143646	0.728733
H458	H	0.844011	0.189688	1.062066
H459	H	1.177344	0.523021	1.395400
N460	N	-0.275717	0.036354	0.000082
N461	N	0.057617	0.369687	0.333416
N462	N	0.390950	0.703020	0.666749
N463	N	-0.302507	0.048288	-0.041379
N464	N	0.030826	0.381621	0.291954
N465	N	0.364159	0.714955	0.625287
H466	H	-0.316363	0.085971	-0.041376
H467	H	0.016970	0.419304	0.291958
H468	H	0.350304	0.752638	0.625291
H469	H	0.477603	-0.182638	0.556225
H470	H	0.810936	0.150695	0.889558
H471	H	1.144269	0.484028	1.222891
H472	H	0.492913	0.194730	0.000071
H473	H	0.826247	0.528063	0.333404
H474	H	1.159580	0.861396	0.666738
N475	N	0.670523	0.044925	0.562605
N476	N	1.003856	0.378259	0.895938
N477	N	1.337189	0.711592	1.229271
N478	N	0.700029	0.079733	0.534939
N479	N	1.033362	0.413066	0.868273
N480	N	1.366696	0.746399	1.201606
H481	H	0.723884	0.107872	0.557254
H482	H	1.057217	0.441205	0.890587
H483	H	1.390551	0.774539	1.223920
H484	H	0.477595	-0.182638	0.443902
H485	H	0.810929	0.150695	0.777236
H486	H	1.144262	0.484028	1.110569
H487	H	0.510657	-0.143679	0.271415
H488	H	0.843990	0.189654	0.604748
H489	H	1.177324	0.522987	0.938081
H490	H	0.630633	-0.002146	0.841046
H491	H	0.963966	0.331188	1.174380
H492	H	1.297299	0.664521	1.507713
N493	N	0.703191	0.508760	0.000063
N494	N	1.036524	0.842094	0.333397
N495	N	1.369858	1.175427	0.666730
N496	N	0.742799	0.488626	0.000071
N497	N	1.076132	0.821959	0.333404
N498	N	1.409466	1.155292	0.666737
H499	H	0.774382	0.515209	0.000075
H500	H	1.107715	0.848542	0.333408
H501	H	1.441048	1.181875	0.666742
H502	H	0.321553	-0.170283	0.000042
H503	H	0.654886	0.163050	0.333376
H504	H	0.988219	0.496383	0.666709
H505	H	0.208899	0.071785	0.000105
H506	H	0.542232	0.405119	0.333438
H507	H	0.875565	0.738452	0.666771
H508	H	-0.202059	-0.164013	0.000057
H509	H	0.131274	0.169320	0.333391
H510	H	0.464608	0.502654	0.666724
H511	H	0.652829	0.220731	0.000074
H512	H	0.986162	0.554065	0.333407
H513	H	1.319495	0.887398	0.666741
N514	N	0.179060	-0.231363	0.000046
N515	N	0.512394	0.101970	0.333379
N516	N	0.845727	0.435304	0.666713
N517	N	0.169398	-0.266069	0.041509
N518	N	0.502731	0.067264	0.374843
N519	N	0.836065	0.400597	0.708176
H520	H	0.183236	-0.303764	0.041512
H521	H	0.516569	0.029570	0.374846
H522	H	0.849903	0.362903	0.708179
N523	N	0.077178	-0.230142	0.000047
N524	N	0.410511	0.103191	0.333380
N525	N	0.743844	0.436525	0.666714
N526	N	0.094339	-0.276771	0.000039
N527	N	0.427672	0.056562	0.333372
N528	N	0.761005	0.389895	0.666706
H529	H	0.071834	-0.314030	0.000033
H530	H	0.405167	0.019303	0.333367
H531	H	0.738500	0.352637	0.666700
H532	H	0.434801	0.017075	0.000056
H533	H	0.768134	0.350408	0.333389
H534	H	1.101467	0.683741	0.666723
H535	H	0.023850	-0.218723	0.000050
H536	H	0.357184	0.114610	0.333384
H537	H	0.690517	0.447944	0.666717
H538	H	-0.067612	-0.217621	0.000056
H539	H	0.265721	0.115712	0.333389
H540	H	0.599055	0.449046	0.666723
H541	H	0.653919	0.112983	0.000094
H542	H	0.987252	0.446317	0.333428
H543	H	1.320586	0.779650	0.666761
H544	H	0.647270	0.767203	0.000050
H545	H	0.980603	1.100537	0.333383
H546	H	1.313937	1.433870	0.666716
N547	N	0.484943	0.079325	0.000046
N548	N	0.818276	0.412659	0.333379
N549	N	1.151610	0.745992	0.666713
N550	N	0.455381	0.081154	-0.041432
N551	N	0.788714	0.414488	0.291901
N552	N	1.122048	0.747821	0.625234
H553	H	0.423810	0.054550	-0.041455
H554	H	0.757143	0.387884	0.291878
H555	H	1.090477	0.721217	0.625212
H556	H	0.630600	-0.002189	0.159060
H557	H	0.963933	0.331144	0.492393
H558	H	1.297267	0.664478	0.825726
