data_functionalizedCrystal
_audit_creation_method	'MofGen! by Chris Wilmer'
_symmetry_space_group_name_H-M	'P1'
_symmetry_Int_Tables_number	1
_symmetry_cell_setting	triclinic
loop_
_symmetry_equiv_pos_as_xyz
  x,y,z
_cell_length_a	10.723022
_cell_length_b	14.971486
_cell_length_c	13.448316
_cell_angle_alpha	90.001801
_cell_angle_beta	89.994589
_cell_angle_gamma	95.959323
loop_
_atom_site_label
_atom_site_type_symbol
_atom_site_fract_x
_atom_site_fract_y
_atom_site_fract_z
O1	O	0.162617	-1.187820	-0.082575
O2	O	0.182090	-0.927524	-0.082602
O3	O	-0.009285	-1.063677	-0.082584
O4	O	0.353993	-1.051667	-0.082593
O5	O	-0.009297	-1.063660	0.082800
O6	O	0.182079	-0.927507	0.082782
O7	O	0.162605	-1.187803	0.082809
Cu8	Cu	0.172341	-1.057653	0.097896
Cu9	Cu	0.172355	-1.057674	-0.097689
O10	O	0.353981	-1.051650	0.082791
C11	C	0.181214	-0.894186	0.000087
C12	C	0.178604	-0.794875	0.000077
C13	C	-0.055782	-1.062795	0.000107
C14	C	-0.194309	-1.060181	0.000103
C15	C	0.163482	-1.221141	0.000118
C16	C	0.166092	-1.320452	0.000122
C17	C	-0.413255	-1.133661	0.000106
C18	C	-0.270081	-1.136364	0.000109
C19	C	0.400477	-1.052532	0.000098
C20	C	0.539004	-1.055146	0.000096
N21	N	0.172330	-1.057645	0.235461
C22	C	0.291032	-0.738253	0.000075
C23	C	0.288572	-0.644940	0.000090
C24	C	0.173683	-0.608252	0.000099
C25	C	0.061246	-0.664881	0.000104
C26	C	0.063707	-0.758192	0.000096
C27	C	0.056125	-0.470391	0.000117
C28	C	0.053663	-0.377074	0.000123
C29	C	0.280990	-0.357140	0.000112
C30	C	0.283451	-0.450450	0.000104
C31	C	0.171013	-0.507073	0.000106
N32	N	0.172355	-1.057689	-0.235253
C33	C	0.087624	-1.117953	0.287509
C34	C	0.087623	-1.117958	0.391612
C35	C	0.172335	-1.057660	0.443665
C36	C	0.257045	-0.997346	0.391610
C37	C	0.257039	-0.997337	0.287509
C38	C	0.257054	-0.997371	0.608590
C39	C	0.257062	-0.997381	0.712698
C40	C	0.087637	-1.117992	0.712694
C41	C	0.087631	-1.117983	0.608592
C42	C	0.172343	-1.057670	0.556544
H43	H	-0.478379	-1.198878	0.000117
H44	H	0.326014	-0.948227	0.245132
H45	H	-0.039889	-0.347205	0.000132
F46	F	-0.216353	-1.224234	0.000113
H47	H	-0.235410	-0.992954	0.000090
F48	F	0.400655	-0.296876	0.000111
H49	H	0.018658	-1.167087	0.566211
H50	H	-0.032298	-0.635002	0.000125
H51	H	-0.395872	-0.989929	0.000097
F52	F	0.347198	-0.933167	0.447009
H53	H	-0.035434	-0.516492	0.000121
H54	H	0.384588	-0.768117	0.000067
F55	F	0.347223	-0.933202	0.768090
F56	F	0.347212	-0.933175	0.553201
F57	F	0.408234	-0.584682	0.000085
H58	H	0.018647	-1.167058	0.245134
F59	F	-0.002532	-1.182143	0.447006
F60	F	-0.055954	-0.818453	0.000101
F61	F	0.405728	-0.489495	0.000084
H62	H	0.018662	-1.167101	0.755077
