data_functionalizedCrystal
_audit_creation_method	'MofGen! by Chris Wilmer'
_symmetry_space_group_name_H-M	'P1'
_symmetry_Int_Tables_number	1
_symmetry_cell_setting	triclinic
loop_
_symmetry_equiv_pos_as_xyz
  x,y,z
_cell_length_a	15.995350
_cell_length_b	10.654550
_cell_length_c	9.730223
_cell_angle_alpha	89.995747
_cell_angle_beta	90.000357
_cell_angle_gamma	83.988653
loop_
_atom_site_label
_atom_site_type_symbol
_atom_site_fract_x
_atom_site_fract_y
_atom_site_fract_z
O1	O	-1.111924	-0.161873	0.114173
O2	O	-0.868265	-0.181862	0.114201
O3	O	-0.995697	0.010945	0.114178
O4	O	-0.984492	-0.354680	0.114196
O5	O	-0.995688	0.010950	-0.114402
O6	O	-0.868257	-0.181857	-0.114379
O7	O	-1.111916	-0.161867	-0.114407
Zn8	Zn	-0.990085	-0.171861	-0.150685
Zn9	Zn	-0.990096	-0.171868	0.150479
O10	O	-0.984484	-0.354674	-0.114384
C11	C	-0.837061	-0.181033	-0.000085
C12	C	-0.744096	-0.178555	-0.000075
C13	C	-0.994870	0.057735	-0.000111
C14	C	-0.992409	0.197146	-0.000109
C15	C	-1.143119	-0.162696	-0.000118
C16	C	-1.236084	-0.165174	-0.000119
C17	C	-0.406297	-0.169658	-0.000104
C18	C	-0.452934	-0.032344	-0.000621
C19	C	-0.549639	-0.034822	-0.000096
C20	C	-0.573883	-0.174071	-0.000090
C21	C	-0.533194	-0.241802	0.130438
C22	C	-0.436539	-0.238352	0.130538
C23	C	-0.436207	-0.241184	-0.129400
C24	C	-0.533152	-0.241151	-0.131116
C25	C	-0.668595	-0.176573	-0.000078
C26	C	-0.311585	-0.167161	-0.000107
C27	C	-0.985311	-0.401464	-0.000091
C28	C	-0.987772	-0.540875	-0.000085
N29	N	-0.990084	-0.171856	-0.356221
C30	C	-1.067438	0.277612	-0.000117
C31	C	-1.065121	0.408602	-0.000100
C32	C	-0.912737	0.378649	-0.000072
C33	C	-0.915055	0.247661	-0.000080
C34	C	-1.046530	-0.086517	-0.428157
C35	C	-1.046538	-0.086517	-0.572040
C36	C	-0.933651	-0.257207	-0.572038
C37	C	-0.933640	-0.257199	-0.428158
N38	N	-0.990104	-0.171864	0.356015
H39	H	-0.577755	0.018417	-0.093664
C40	C	-0.871580	-0.351141	-0.349023
N41	N	-0.824851	-0.421914	-0.289419
H42	H	-0.887697	-0.326693	-0.630623
H43	H	-0.434090	0.022545	-0.094228
H44	H	-0.417947	-0.188965	0.228107
H45	H	-0.433026	0.022288	0.092465
C46	C	-1.108613	0.007374	-0.349032
N47	N	-1.155373	0.078099	-0.289439
H48	H	-1.092501	-0.017025	-0.630607
H49	H	-0.577189	0.018773	0.093630
H50	H	-0.404876	-0.339166	0.136465
C51	C	-0.394090	-0.377952	-0.130592
N52	N	-0.362362	-0.480962	-0.131480
C53	C	-0.827652	0.434227	-0.000067
N54	N	-0.763565	0.476088	-0.000073
C55	C	-1.152529	0.222051	-0.000134
N56	N	-1.216622	0.180207	-0.000141
H57	H	-1.126218	0.474113	-0.000104
H58	H	-0.547914	-0.344105	0.135296
H59	H	-0.561299	-0.194763	0.227576
C60	C	-0.832512	0.159142	-0.000064
N61	N	-0.770343	0.092470	-0.000047
C62	C	-0.408116	-0.180526	-0.263061
N63	N	-0.386960	-0.134823	-0.363728
C64	C	-0.554719	-0.378328	-0.141779
N65	N	-0.570969	-0.481651	-0.149807
C66	C	-0.569631	-0.174318	-0.261572
N67	N	-0.597105	-0.123968	-0.359829
