data_functionalizedCrystal
_audit_creation_method	'MofGen! by Chris Wilmer'
_symmetry_space_group_name_H-M	'P1'
_symmetry_Int_Tables_number	1
_symmetry_cell_setting	triclinic
loop_
_symmetry_equiv_pos_as_xyz
  x,y,z
_cell_length_a	10.540535
_cell_length_b	10.540535
_cell_length_c	13.596369
_cell_angle_alpha	89.997073
_cell_angle_beta	89.992672
_cell_angle_gamma	84.523642
loop_
_atom_site_label
_atom_site_type_symbol
_atom_site_fract_x
_atom_site_fract_y
_atom_site_fract_z
O1	O	0.178876	1.685889	-0.081741
O2	O	0.195738	1.316475	-0.081755
O3	O	0.002600	1.509613	-0.081738
O4	O	0.372014	1.492751	-0.081758
O5	O	0.002589	1.509593	0.081845
O6	O	0.195727	1.316455	0.081828
O7	O	0.178865	1.685870	0.081842
Zn8	Zn	0.187294	1.501159	0.107807
Zn9	Zn	0.187308	1.501185	-0.107720
O10	O	0.372003	1.492732	0.081825
C11	C	0.194469	1.269162	0.000035
C12	C	0.190689	1.128214	0.000030
C13	C	-0.044709	1.508340	0.000054
C14	C	-0.185657	1.504560	0.000055
C15	C	0.049675	1.091546	0.000042
C16	C	0.045698	0.944945	0.000423
C17	C	0.255054	0.918866	0.093270
C18	C	0.258054	1.065631	0.093338
C19	C	0.260118	1.065537	-0.092693
C20	C	0.253596	0.919191	-0.093908
C21	C	-0.222325	1.363546	0.000043
C22	C	-0.368926	1.359569	-0.000346
C23	C	-0.394977	1.568942	-0.093197
C24	C	-0.248212	1.571943	-0.093257
C25	C	-0.248362	1.573972	0.092774
C26	C	-0.394708	1.567450	0.093981
C27	C	0.419311	1.494005	0.000031
C28	C	0.560260	1.497784	0.000023
C29	C	0.180134	1.733182	0.000050
C30	C	0.183913	1.874131	0.000049
N31	N	0.187284	1.501151	0.254899
N32	N	0.187308	1.501203	-0.254812
C33	C	0.187310	1.501183	0.656190
C34	C	0.187307	1.501171	0.544539
C35	C	0.187298	1.501168	0.455548
C36	C	0.187293	1.501154	0.343890
H37	H	-0.009939	0.915616	-0.066388
F38	F	-0.021103	1.146412	-0.087325
H39	H	-0.003573	1.134996	0.066800
H40	H	-0.398273	1.303907	0.066458
F41	F	-0.456873	1.701959	-0.097385
H42	H	-0.225182	1.675318	-0.097223
H43	H	0.201825	0.890598	-0.162875
H44	H	-0.009675	0.916485	0.067648
F45	F	-0.192884	1.516446	0.185167
F46	F	-0.219364	1.709580	0.093963
F47	F	0.202609	1.121043	-0.185082
F48	F	0.191248	0.878469	0.184308
H49	H	0.210002	1.105795	0.163296
H50	H	-0.208027	1.523903	-0.163212
F51	F	-0.435349	1.505155	-0.184236
F52	F	-0.165510	1.293959	-0.087211
F53	F	0.393170	1.095736	0.098527
F54	F	0.388070	0.856968	0.097454
H55	H	0.354470	0.870142	-0.099833
F56	F	0.395742	1.094487	-0.093858
H57	H	-0.397366	1.304213	-0.067575
F58	F	-0.167479	1.292749	0.087410
F59	F	-0.432108	1.499767	0.184127
F60	F	-0.458747	1.699334	0.101683
