data_functionalizedCrystal
_audit_creation_method	'MofGen! by Chris Wilmer'
_symmetry_space_group_name_H-M	'P1'
_symmetry_Int_Tables_number	1
_symmetry_cell_setting	triclinic
loop_
_symmetry_equiv_pos_as_xyz
  x,y,z
_cell_length_a	11.792241
_cell_length_b	19.188930
_cell_length_c	10.868271
_cell_angle_alpha	89.989749
_cell_angle_beta	89.999893
_cell_angle_gamma	83.669099
loop_
_atom_site_label
_atom_site_type_symbol
_atom_site_fract_x
_atom_site_fract_y
_atom_site_fract_z
O1	O	1.505476	0.095695	-0.102218
O2	O	1.838809	0.429028	0.231115
O3	O	2.172143	0.762362	0.564449
O4	O	1.174987	0.105557	-0.102248
O5	O	1.508321	0.438891	0.231085
O6	O	1.841654	0.772224	0.564418
O7	O	1.349769	-0.000975	-0.102208
O8	O	1.683102	0.332358	0.231125
O9	O	2.016436	0.665691	0.564459
O10	O	1.330695	0.202228	-0.102258
O11	O	1.664028	0.535561	0.231075
O12	O	1.997361	0.868895	0.564409
O13	O	1.349755	-0.000980	0.102437
O14	O	1.683088	0.332354	0.435770
O15	O	2.016421	0.665687	0.769103
O16	O	1.174973	0.105553	0.102396
O17	O	1.508306	0.438887	0.435730
O18	O	1.841640	0.772220	0.769063
O19	O	1.505462	0.095691	0.102427
O20	O	1.838795	0.429024	0.435760
O21	O	2.172128	0.762358	0.769093
Zn22	Zn	1.340215	0.100621	0.134903
Zn23	Zn	1.673548	0.433955	0.468237
Zn24	Zn	2.006882	0.767288	0.801570
Zn25	Zn	1.340234	0.100627	-0.134725
Zn26	Zn	1.673567	0.433960	0.198609
Zn27	Zn	2.006901	0.767294	0.531942
O28	O	1.330680	0.202224	0.102387
O29	O	1.664014	0.535557	0.435720
O30	O	1.997347	0.868890	0.769053
C31	C	1.132699	0.104936	0.000071
C32	C	1.466032	0.438269	0.333404
C33	C	1.799365	0.771603	0.666737
C34	C	1.006713	0.103082	0.000060
C35	C	1.340046	0.436415	0.333394
C36	C	1.673379	0.769748	0.666727
C37	C	1.349144	-0.026992	0.000118
C38	C	1.682477	0.306341	0.333451
C39	C	2.015811	0.639675	0.666784
C40	C	1.347290	-0.104507	0.000128
C41	C	1.680623	0.228826	0.333461
C42	C	2.013956	0.562160	0.666795
C43	C	0.776051	0.099672	0.000096
C44	C	1.109385	0.433005	0.333430
C45	C	1.442718	0.766339	0.666763
C46	C	0.904408	0.101566	0.000076
C47	C	1.237742	0.434900	0.333410
C48	C	1.571075	0.768233	0.666743
C49	C	1.449846	-0.148850	0.000143
C50	C	1.783179	0.184483	0.333477
C51	C	2.116513	0.517817	0.666810
C52	C	1.448104	-0.221684	0.000123
C53	C	1.781437	0.111650	0.333457
C54	C	2.114771	0.444983	0.666790
C55	C	1.343800	-0.250171	0.000113
C56	C	1.677133	0.083162	0.333446
C57	C	2.010467	0.416496	0.666780
C58	C	1.241230	-0.205818	0.000091
C59	C	1.574564	0.127515	0.333424
C60	C	1.907897	0.460848	0.666758
C61	C	1.242975	-0.132986	0.000098
C62	C	1.576309	0.200347	0.333432
C63	C	1.909642	0.533681	0.666765
N64	N	1.264067	-0.358629	0.069750
N65	N	1.597400	-0.025296	0.403084
N66	N	1.930734	0.308038	0.736417
N67	N	1.262417	-0.427817	0.069746
N68	N	1.595750	-0.094484	0.403079
N69	N	1.929083	0.238850	0.736412
C70	C	1.338536	-0.469609	0.000088
C71	C	1.671870	-0.136276	0.333421
C72	C	2.005203	0.197057	0.666754
N73	N	1.416386	-0.439602	-0.069550
N74	N	1.749720	-0.106268	0.263783
N75	N	2.083053	0.227065	0.597116
N76	N	1.418040	-0.370408	-0.069540
N77	N	1.751374	-0.037074	0.263793
N78	N	2.084707	0.296259	0.597126
C79	C	1.341896	-0.329144	0.000104
C80	C	1.675230	0.004189	0.333437
C81	C	2.008563	0.337522	0.666771
C82	C	1.439211	-0.592928	0.000080
C83	C	1.772544	-0.259594	0.333413
C84	C	2.105877	0.073739	0.666746
C85	C	1.437464	-0.665762	0.000052
C86	C	1.770798	-0.332429	0.333385
C87	C	2.104131	0.000904	0.666719
C88	C	1.230588	-0.649895	0.000032
C89	C	1.563921	-0.316562	0.333365
C90	C	1.897254	0.016771	0.666699
C91	C	1.232337	-0.577062	0.000047
C92	C	1.565670	-0.243729	0.333380
C93	C	1.899004	0.089604	0.666714
C94	C	1.336652	-0.548583	0.000077
C95	C	1.669985	-0.215250	0.333410
C96	C	2.003318	0.118084	0.666743
C97	C	1.547751	0.096313	0.000105
C98	C	1.881084	0.429646	0.333439
C99	C	2.214417	0.762979	0.666772
C100	C	1.673737	0.098167	0.000108
C101	C	2.007070	0.431500	0.333441
C102	C	2.340403	0.764833	0.666774
C103	C	1.331305	0.228240	0.000058
C104	C	1.664638	0.561574	0.333391
C105	C	1.997972	0.894907	0.666725
C106	C	1.333159	0.305755	0.000040
C107	C	1.666493	0.639089	0.333373
C108	C	1.999826	0.972422	0.666706
N109	N	1.340211	0.100617	0.318917
N110	N	1.673544	0.433951	0.652251
N111	N	2.006877	0.767284	0.985584
N112	N	1.340248	0.100626	-0.318739
N113	N	1.673581	0.433959	0.014594
N114	N	2.006914	0.767292	0.347928
C115	C	1.340228	0.100625	0.569923
C116	C	1.673561	0.433959	0.903257
C117	C	2.006895	0.767292	1.236590
C118	C	1.340215	0.100623	0.430246
C119	C	1.673548	0.433956	0.763579
C120	C	2.006881	0.767290	1.096913
H121	H	1.534787	-0.125667	0.000163
H122	H	1.868120	0.207666	0.333497
H123	H	2.201453	0.540999	0.666830
C124	C	1.117259	-0.680721	0.000209
C125	C	1.450592	-0.347387	0.333542
C126	C	1.783926	-0.014054	0.666876
C127	C	1.055258	-0.658221	0.105473
C128	C	1.388591	-0.324887	0.438807
C129	C	1.721925	0.008446	0.772140
C130	C	0.950846	-0.686599	0.105664
C131	C	1.284179	-0.353265	0.438997
C132	C	1.617512	-0.019932	0.772331
H133	H	1.130746	-0.730446	0.000267
H134	H	1.464079	-0.397113	0.333600
H135	H	1.797413	-0.063780	0.666933
H136	H	1.074991	-0.665495	-0.071122
H137	H	1.408324	-0.332162	0.262212
H138	H	1.741657	0.001172	0.595545
H139	H	1.097517	-0.673450	0.176786
H140	H	1.430851	-0.340117	0.510119
H141	H	1.764184	-0.006783	0.843452
H142	H	1.041740	-0.608499	0.105438
H143	H	1.375074	-0.275165	0.438771
H144	H	1.708407	0.058168	0.772105
H145	H	0.908577	-0.671373	0.034333
H146	H	1.241910	-0.338040	0.367666
H147	H	1.575244	-0.004706	0.701000
H148	H	0.964344	-0.736323	0.105718
H149	H	1.297677	-0.402990	0.439052
H150	H	1.631011	-0.069657	0.772385
H151	H	0.908761	-0.671331	0.177078
H152	H	1.242094	-0.337998	0.510411
H153	H	1.575427	-0.004665	0.843745
H154	H	1.531620	-0.257795	0.000131
H155	H	1.864953	0.075539	0.333464
H156	H	2.198287	0.408872	0.666798
C157	C	1.120900	-0.528997	-0.000144
C158	C	1.454233	-0.195664	0.333189
C159	C	1.787566	0.137670	0.666522
C160	C	1.058065	-0.541926	-0.105420
C161	C	1.391398	-0.208593	0.227913
C162	C	1.724732	0.124740	0.561246
C163	C	0.955391	-0.497669	-0.105634
C164	C	1.288724	-0.164336	0.227699
C165	C	1.622058	0.168997	0.561033
H166	H	1.136713	-0.481518	-0.000201
H167	H	1.470046	-0.148185	0.333133
H168	H	1.803379	0.185149	0.666466
H169	H	1.078049	-0.537695	0.071178
H170	H	1.411382	-0.204362	0.404512
H171	H	1.744715	0.128972	0.737845
H172	H	1.100907	-0.533223	-0.176725
H173	H	1.434240	-0.199890	0.156609
H174	H	1.767574	0.133444	0.489942
H175	H	1.042222	-0.589397	-0.105386
H176	H	1.375555	-0.256063	0.227947
H177	H	1.708888	0.077270	0.561280
H178	H	0.912540	-0.506367	-0.034311
H179	H	1.245874	-0.173034	0.299022
H180	H	1.579207	0.160300	0.632355
H181	H	0.971215	-0.450193	-0.105687
H182	H	1.304549	-0.116860	0.227646
H183	H	1.637882	0.216474	0.560980
H184	H	0.912741	-0.506440	-0.177056
H185	H	1.246074	-0.173107	0.156277
H186	H	1.579407	0.160227	0.489611
H187	H	1.156305	-0.229017	0.000080
H188	H	1.489639	0.104316	0.333413
H189	H	1.822972	0.437649	0.666746
H190	H	1.524150	-0.569739	0.000098
H191	H	1.857483	-0.236405	0.333432
H192	H	2.190816	0.096928	0.666765
H193	H	1.159459	-0.096881	0.000086
H194	H	1.492792	0.236452	0.333420
H195	H	1.826126	0.569785	0.666753
H196	H	1.520981	-0.701866	0.000058
H197	H	1.854315	-0.368533	0.333391
H198	H	2.187648	-0.035200	0.666724
