data_functionalizedCrystal
_audit_creation_method	'MofGen! by Chris Wilmer'
_symmetry_space_group_name_H-M	'P1'
_symmetry_Int_Tables_number	1
_symmetry_cell_setting	triclinic
loop_
_symmetry_equiv_pos_as_xyz
  x,y,z
_cell_length_a	10.489741
_cell_length_b	10.654550
_cell_length_c	9.130313
_cell_angle_alpha	89.993688
_cell_angle_beta	89.998131
_cell_angle_gamma	84.512052
loop_
_atom_site_label
_atom_site_type_symbol
_atom_site_fract_x
_atom_site_fract_y
_atom_site_fract_z
O1	O	-1.693968	-0.177195	0.121708
O2	O	-1.322764	-0.193828	0.121731
O3	O	-1.516901	-0.002776	0.121710
O4	O	-1.499831	-0.368247	0.121729
O5	O	-1.516884	-0.002764	-0.121889
O6	O	-1.322748	-0.193815	-0.121868
O7	O	-1.693951	-0.177183	-0.121890
Cu8	Cu	-1.508348	-0.185498	-0.144122
Cu9	Cu	-1.508368	-0.185513	0.143962
O10	O	-1.499815	-0.368234	-0.121869
C11	C	-1.515639	0.044029	-0.000089
C12	C	-1.511889	0.183474	-0.000086
C13	C	-1.275225	-0.192565	-0.000065
C14	C	-1.133597	-0.188807	-0.000057
C15	C	-1.741491	-0.178445	-0.000091
C16	C	-1.883118	-0.182204	-0.000090
C17	C	-1.065516	-0.067246	-0.000077
C18	C	-0.973369	-0.124676	0.120030
C19	C	-0.973387	-0.124693	-0.120140
C20	C	-1.043316	-0.246287	0.120149
C21	C	-1.043343	-0.246287	-0.120128
C22	C	-0.951224	-0.303805	0.000008
C23	C	-1.501076	-0.415039	-0.000068
C24	C	-1.504826	-0.554484	-0.000060
N25	N	-1.508343	-0.185487	-0.346744
C26	C	-1.626194	0.262906	-0.000093
C27	C	-1.622663	0.393928	-0.000074
C28	C	-1.390513	0.366074	-0.000050
C29	C	-1.394045	0.235054	-0.000057
C30	C	-1.430342	-0.108590	-0.576790
C31	C	-1.430326	-0.108573	-0.423453
C32	C	-1.586392	-0.262414	-0.423380
C33	C	-1.586415	-0.262423	-0.576714
N34	N	-1.508382	-0.185514	0.346585
H35	H	-1.115254	0.032684	0.000068
F36	F	-1.751614	0.208015	-0.000122
H37	H	-1.366779	-0.045933	-0.361071
H38	H	-1.366804	-0.045965	-0.639235
F39	F	-0.932875	-0.057458	0.252750
H40	H	-1.715742	0.458597	-0.000077
H41	H	-1.074126	-0.297687	0.221805
H42	H	-1.649971	-0.325065	-0.639104
H43	H	-0.901752	-0.403841	0.000079
F44	F	-0.932922	-0.057432	-0.252864
F45	F	-1.083885	-0.313455	-0.252852
H46	H	-1.294568	0.408087	-0.000029
F47	F	-1.272380	0.150510	-0.000040
F48	F	-1.669432	-0.344265	-0.341737
