data_functionalizedCrystal
_audit_creation_method	'MofGen! by Chris Wilmer'
_symmetry_space_group_name_H-M	'P1'
_symmetry_Int_Tables_number	1
_symmetry_cell_setting	triclinic
loop_
_symmetry_equiv_pos_as_xyz
  x,y,z
_cell_length_a	17.699083
_cell_length_b	17.699083
_cell_length_c	8.140239
_cell_angle_alpha	89.995596
_cell_angle_beta	90.003310
_cell_angle_gamma	83.283015
loop_
_atom_site_label
_atom_site_type_symbol
_atom_site_fract_x
_atom_site_fract_y
_atom_site_fract_z
O1	O	1.004074	0.095710	-0.136386
O2	O	0.783696	0.108163	-0.136441
O3	O	0.900111	-0.008253	-0.136397
O4	O	0.887659	0.212125	-0.136430
O5	O	0.900105	-0.008254	0.136830
O6	O	0.783689	0.108161	0.136786
O7	O	1.004068	0.095709	0.136841
Zn8	Zn	0.893877	0.101935	0.180194
Zn9	Zn	0.893886	0.101936	-0.179794
O10	O	0.887652	0.212124	0.136798
C11	C	0.755495	0.107716	0.000166
C12	C	0.671477	0.106377	0.000146
C13	C	0.622856	0.174710	0.000136
C14	C	0.543913	0.173448	0.000158
C15	C	0.513592	0.103852	0.000177
C16	C	0.562219	0.035513	0.000191
C17	C	0.641161	0.036776	0.000182
C18	C	0.243856	0.030418	0.000233
C19	C	0.164908	0.029160	0.000237
C20	C	0.146608	0.167090	0.000209
C21	C	0.225550	0.168353	0.000199
C22	C	0.274170	0.100015	0.000222
C23	C	0.359769	0.101384	0.000202
C24	C	0.427995	0.102481	0.000185
C25	C	0.899662	-0.036451	0.000216
C26	C	0.898323	-0.120469	0.000216
C27	C	0.966656	-0.169090	0.000236
C28	C	0.965394	-0.248033	0.000221
C29	C	0.895798	-0.278354	0.000199
C30	C	0.827459	-0.229727	0.000174
C31	C	0.828722	-0.150785	0.000178
C32	C	0.822364	-0.548090	0.000160
C33	C	0.821106	-0.627038	0.000162
C34	C	0.959036	-0.645338	0.000203
C35	C	0.960299	-0.566396	0.000206
C36	C	0.891961	-0.517776	0.000173
C37	C	0.893330	-0.432177	0.000186
C38	C	0.894427	-0.363951	0.000197
C39	C	1.032268	0.096156	0.000230
C40	C	1.116286	0.097494	0.000240
N41	N	0.893877	0.101933	0.425877
C42	C	0.888102	0.240322	0.000180
C43	C	0.889440	0.324340	0.000169
N44	N	0.893892	0.101932	-0.425477
H45	H	0.107012	0.222734	0.000199
N46	N	0.755013	-0.098350	0.000185
H47	H	0.752462	-0.065196	0.101474
H48	H	0.752500	-0.065232	-0.101163
H49	H	0.504328	0.229092	0.000148
N50	N	0.655557	0.249776	0.000096
H51	H	0.612774	0.292873	0.000095
H52	H	0.687918	0.253307	0.101377
N53	N	1.032747	-0.697778	0.000238
H54	H	1.021391	-0.752389	0.000229
H55	H	1.063091	-0.687971	-0.101035
H56	H	0.283434	-0.025228	0.000253
H57	H	0.764429	-0.651721	0.000147
H58	H	1.023330	-0.144409	0.000264
N59	N	0.529512	-0.039549	0.000231
H60	H	0.497163	-0.043149	-0.101050
H61	H	0.572333	-0.082606	0.000305
H62	H	0.766718	-0.508512	0.000134
H63	H	0.770792	-0.254420	0.000146
H64	H	0.680748	-0.018868	0.000188
N65	N	1.039096	-0.300475	0.000251
H66	H	1.083376	-0.269288	0.000280
H67	H	1.041567	-0.333630	0.101541
N68	N	0.258253	0.243417	0.000156
H69	H	0.215472	0.286516	0.000153
H70	H	0.290615	0.246947	0.101437
H71	H	0.140225	-0.027517	0.000255
H72	H	1.016971	-0.541714	0.000232
