data_functionalizedCrystal
_audit_creation_method	'MofGen! by Chris Wilmer'
_symmetry_space_group_name_H-M	'P1'
_symmetry_Int_Tables_number	1
_symmetry_cell_setting	triclinic
loop_
_symmetry_equiv_pos_as_xyz
  x,y,z
_cell_length_a	14.044191
_cell_length_b	10.654550
_cell_length_c	9.130313
_cell_angle_alpha	89.995631
_cell_angle_beta	89.998938
_cell_angle_gamma	88.838354
loop_
_atom_site_label
_atom_site_type_symbol
_atom_site_fract_x
_atom_site_fract_y
_atom_site_fract_z
O1	O	1.259699	0.303028	-0.121727
O2	O	0.983658	0.292085	-0.121746
O3	O	1.128025	0.115455	-0.121727
O4	O	1.115332	0.479658	-0.121746
O5	O	1.128015	0.115449	0.121872
O6	O	0.983648	0.292079	0.121853
O7	O	1.259689	0.303021	0.121871
Cu8	Cu	1.121668	0.297549	0.144105
Cu9	Cu	1.121679	0.297557	-0.143979
O10	O	1.115322	0.479651	0.121853
C11	C	0.948307	0.287295	0.000051
C12	C	0.842987	0.273016	0.000044
C13	C	0.593195	0.348181	0.000055
C14	C	0.650158	0.246931	0.000058
C15	C	0.757458	0.261448	0.000050
C16	C	0.485885	0.333666	0.000062
C17	C	1.295040	0.307812	0.000071
C18	C	1.400360	0.322091	0.000068
C19	C	1.127088	0.068560	0.000072
C20	C	1.124300	-0.071163	0.000069
C21	C	1.209301	-0.142104	0.000074
C22	C	1.206675	-0.273389	0.000056
C23	C	1.034039	-0.262780	0.000034
C24	C	1.036666	-0.131497	0.000041
C25	C	1.116259	0.526546	0.000051
C26	C	1.119047	0.666270	0.000043
N27	N	1.121666	0.297544	0.346727
N28	N	1.121688	0.297554	-0.346602
C29	C	1.185614	0.219370	0.423387
C30	C	1.185623	0.219371	0.576724
C31	C	1.057734	0.375731	0.576727
C32	C	1.057721	0.375722	0.423393
H33	H	0.625010	0.445759	0.000045
F34	F	0.940779	-0.327003	0.000004
H35	H	1.280658	-0.092984	0.000094
F36	F	1.297146	-0.348884	0.000059
F37	F	0.946191	-0.055992	0.000025
F38	F	0.608574	0.119378	0.000065
H39	H	1.237681	0.155711	0.360970
F40	F	1.253683	0.136166	0.658307
F41	F	0.989684	0.458933	0.658330
H42	H	1.005642	0.439380	0.360972
