data_functionalizedCrystal
_audit_creation_method	'MofGen! by Chris Wilmer'
_symmetry_space_group_name_H-M	'P1'
_symmetry_Int_Tables_number	1
_symmetry_cell_setting	triclinic
loop_
_symmetry_equiv_pos_as_xyz
  x,y,z
_cell_length_a	17.052832
_cell_length_b	17.052679
_cell_length_c	21.606444
_cell_angle_alpha	53.476169
_cell_angle_beta	102.317002
_cell_angle_gamma	62.967042
loop_
_atom_site_label
_atom_site_type_symbol
_atom_site_fract_x
_atom_site_fract_y
_atom_site_fract_z
Zr1	Zr	0.527834	1.124001	-0.181607
O2	O	0.352886	1.338242	-0.345956
O3	O	0.613901	0.909767	-0.100752
O4	O	0.567116	1.124007	-0.273822
O5	O	0.399680	1.123994	-0.071030
O6	O	0.699207	1.124004	-0.251584
O7	O	0.399671	1.124002	-0.172887
O8	O	0.782898	0.740767	0.058005
O9	O	0.315989	1.507232	-0.380620
O10	O	0.709998	0.997880	-0.086489
O11	O	0.611426	0.997876	-0.027070
O12	O	0.556342	1.250117	-0.230837
O13	O	0.457770	1.250114	-0.171418
Zr14	Zr	0.738518	1.123985	0.016309
Zr15	Zr	0.738505	1.123996	-0.146140
Zr16	Zr	0.527848	1.123989	-0.019157
Zr17	Zr	0.468988	1.393520	-0.236891
Zr18	Zr	0.797364	0.854466	0.071594
O19	O	0.652452	1.338219	-0.064545
O20	O	0.652433	1.338236	-0.295528
O21	O	0.352905	1.338226	-0.114974
O22	O	0.913467	0.909744	0.180659
O23	O	0.913448	0.909760	-0.050324
O24	O	0.613920	0.909750	0.130230
O25	O	0.866673	1.123992	-0.094267
O26	O	0.699237	1.123979	0.108524
O27	O	0.567145	1.123982	0.086287
O28	O	0.866681	1.123984	0.007590
O29	O	0.483445	1.507228	-0.352429
O30	O	0.782908	0.740758	0.187131
O31	O	0.950363	0.740754	0.215322
O32	O	0.950353	0.740763	0.086197
O33	O	0.316000	1.507223	-0.251494
O34	O	0.483455	1.507219	-0.223303
O35	O	0.710010	0.997869	0.065540
O36	O	0.808583	0.997872	0.006121
O37	O	0.654927	1.250110	-0.138227
O38	O	0.556355	1.250106	-0.078808
C39	C	0.706784	0.786866	-0.013497
C40	C	0.731765	0.672448	0.009973
C41	C	0.369659	1.123999	-0.127012
C42	C	0.280224	1.124001	-0.142068
C43	C	0.429743	0.722400	-0.273758
C44	C	0.406268	0.829897	-0.295800
C45	C	0.487640	0.790541	-0.219359
C46	C	0.592491	0.643676	-0.120872
C47	C	0.615964	0.536169	-0.098825
C48	C	0.673861	0.604310	-0.044426
C49	C	0.778712	0.457445	0.054062
C50	C	0.802181	0.349950	0.076104
C51	C	0.720809	0.389306	-0.000337
C52	C	0.650389	0.711817	-0.066473
C53	C	0.836610	0.525585	0.108461
C54	C	0.860085	0.418089	0.130503
C55	C	0.028151	1.123976	0.039963
C56	C	0.112185	1.123965	0.054116
C57	C	0.154199	1.123975	0.005071
C58	C	0.112170	1.123994	-0.058129
C59	C	0.028134	1.123994	-0.072276
C60	C	0.154182	1.123992	-0.107169
C61	C	0.112154	1.124011	-0.170369
C62	C	0.028126	1.124012	-0.184514
C63	C	-0.013888	1.124002	-0.135469
C64	C	0.238218	1.123992	-0.093021
C65	C	0.238202	1.124009	-0.205261
C66	C	0.154167	1.124020	-0.219414
C67	C	0.896693	1.123987	-0.038286
C68	C	0.986129	1.123985	-0.023229
C69	C	0.633160	1.124007	-0.285849
C70	C	0.633154	1.124012	-0.354813
C71	C	0.559569	1.461120	-0.151801
C72	C	0.534587	1.575538	-0.175270
C73	C	0.552947	1.255677	-0.462560
C74	C	0.552956	1.255673	-0.527352
C75	C	0.633168	1.124003	-0.484397
C76	C	0.713384	0.992328	-0.376639
C77	C	0.713379	0.992334	-0.311848
C78	C	0.713405	0.992303	-0.637935
C79	C	0.713401	0.992308	-0.702737
C80	C	0.552982	1.255642	-0.853439
C81	C	0.552978	1.255647	-0.788647
C82	C	0.633197	1.123974	-0.680895
C83	C	0.633187	1.123980	-0.610640
C84	C	0.633173	1.123995	-0.554651
C85	C	0.633193	1.123978	0.120551
C86	C	0.633198	1.123974	0.189515
C87	C	0.970301	0.786860	0.030866
C88	C	1.084718	0.672441	0.069392
C89	C	0.706800	0.786852	0.189703
C90	C	0.731787	0.672429	0.282137
C91	C	0.970317	0.786846	0.234066
C92	C	1.084740	0.672421	0.341556
C93	C	0.296035	1.461140	-0.399364
C94	C	0.181613	1.575565	-0.506854
C95	C	0.296052	1.461125	-0.196164
C96	C	0.181635	1.575545	-0.234690
C97	C	0.559552	1.461134	-0.355001
C98	C	0.534565	1.575557	-0.447434
C99	C	1.086989	0.618712	0.039136
C100	C	1.194484	0.511217	0.075316
C101	C	1.299709	0.457446	0.141758
C102	C	1.297433	0.511186	0.172013
C103	C	1.189938	0.618686	0.135827
C104	C	0.794982	0.618691	0.373893
C105	C	0.818453	0.511194	0.460747
C106	C	0.778736	0.457429	0.455845
C107	C	0.715533	0.511178	0.364078
C108	C	0.692056	0.618680	0.277224
C109	C	0.179361	1.629285	-0.204443
C110	C	0.071859	1.736809	-0.240647
C111	C	-0.033366	1.790584	-0.307091
C112	C	-0.031089	1.736840	-0.337342
C113	C	0.076410	1.629325	-0.301144
C114	C	0.574300	1.629287	-0.442499
C115	C	0.550844	1.736785	-0.529338
C116	C	0.487646	1.790558	-0.621114
C117	C	0.447912	1.736817	-0.626045
C118	C	0.471376	1.629314	-0.539205
C119	C	1.158810	0.525575	0.411135
C120	C	1.266335	0.418044	0.512131
C121	C	1.299784	0.457363	0.543549
C122	C	1.225706	0.604224	0.473961
C123	C	1.118187	0.711752	0.372965
C124	C	0.107550	1.722411	-0.576437
C125	C	0.000043	1.829942	-0.677444
C126	C	-0.033402	1.790622	-0.708864
C127	C	0.040672	1.643761	-0.639274
C128	C	0.148181	1.536234	-0.538271
H129	H	0.565012	0.831388	-0.146659
O130	O	0.462332	1.906525	-0.714775
H131	H	0.503543	1.865279	-0.735113
H132	H	0.683200	0.467387	0.360101
H133	H	1.387335	0.369792	0.625791
H134	H	1.252957	0.636218	0.499558
H135	H	0.902868	0.493535	0.170707
O136	O	-0.079837	1.988331	-0.752484
H137	H	-0.160209	2.056510	-0.828005
O138	O	1.196922	0.453269	0.042677
H139	H	1.258652	0.334670	0.113089
H140	H	1.001318	0.662491	-0.014974
H141	H	-0.120945	1.878192	-0.791110
H142	H	0.070029	1.780550	-0.216002
O143	O	1.415652	0.341488	0.180793
H144	H	1.399544	0.313158	0.148595
O145	O	0.341978	0.764848	-0.356198
H146	H	0.331288	0.830147	-0.425569
O147	O	0.462337	0.906473	-0.243124
H148	H	0.534821	0.894614	-0.234367
H149	H	0.887552	0.230368	0.156303
H150	H	1.057881	0.831320	0.316321
H151	H	1.383122	0.467389	0.226113
H152	H	0.487646	1.362887	-0.615084
H153	H	0.945454	0.298499	0.210692
H154	H	1.188105	0.662418	0.160476
O155	O	0.466463	1.397661	-0.834975
H156	H	0.410696	1.489218	-0.920785
H157	H	0.827328	0.662454	0.377903
H158	H	0.320905	0.949469	-0.375993
O159	O	0.004584	1.601373	-0.673175
H160	H	0.074144	1.481194	-0.607829
O161	O	0.799917	0.850343	-0.195622
H162	H	0.749374	0.844022	-0.171622
H163	H	0.439011	1.585578	-0.543238
O164	O	0.228053	1.377846	-0.463216
H165	H	0.186719	1.368586	-0.502038
H166	H	0.869920	0.467444	0.535459
H167	H	0.396454	1.780616	-0.700781
H168	H	0.778723	0.885080	-0.667748
O169	O	0.746135	0.273354	0.023440
H170	H	0.673666	0.285187	0.014695
H171	H	0.272431	1.123976	-0.041563
H172	H	1.131593	0.493533	0.385570
O173	O	0.244803	1.124017	0.020300
H174	H	0.266953	1.124031	0.072469
H175	H	-0.006055	1.123958	0.079897
O176	O	0.157522	1.123937	0.122281
H177	H	0.114187	1.123938	0.154003
O178	O	0.804086	0.341454	0.549535
H179	H	0.854719	0.313111	0.614164
O180	O	-0.149301	1.906507	-0.346097
H181	H	-0.133187	1.934810	-0.313877
H182	H	0.640603	0.662420	0.202517
H183	H	-0.082319	1.124017	-0.146995
O184	O	0.292843	1.571317	-0.132795
H185	H	0.273178	1.626782	-0.117869
H186	H	-0.006084	1.124011	-0.235966
H187	H	0.119938	1.124035	-0.270871
O188	O	0.283495	1.124034	-0.258175
H189	H	0.348975	1.124052	-0.237732
O190	O	0.466432	1.397693	-0.508891
H191	H	0.410669	1.489246	-0.594700
O192	O	0.143620	1.764837	-0.542566
H193	H	0.074055	1.885019	-0.607938
H194	H	0.487666	1.362857	-0.941182
H195	H	-0.116779	1.780640	-0.391446
H196	H	0.778725	0.885086	-0.550206
O197	O	1.346216	0.259652	0.587181
H198	H	1.304874	0.250389	0.548366
H199	H	0.778699	0.885120	-0.341668
H200	H	0.078246	1.585573	-0.325777
O201	O	0.642480	1.571284	-0.343513
H202	H	0.666177	1.626705	-0.354681
H203	H	0.583202	1.780530	-0.525305
