data_functionalizedCrystal
_audit_creation_method	'MofGen! by Chris Wilmer'
_symmetry_space_group_name_H-M	'P1'
_symmetry_Int_Tables_number	1
_symmetry_cell_setting	triclinic
loop_
_symmetry_equiv_pos_as_xyz
  x,y,z
_cell_length_a	12.759400
_cell_length_b	25.639243
_cell_length_c	12.759393
_cell_angle_alpha	89.974648
_cell_angle_beta	90.029805
_cell_angle_gamma	89.982675
loop_
_atom_site_label
_atom_site_type_symbol
_atom_site_fract_x
_atom_site_fract_y
_atom_site_fract_z
Zn1	Zn	-0.418140	-0.799361	0.594149
Zn2	Zn	0.081860	-0.299361	1.094149
Zn3	Zn	-0.593856	-0.799307	0.418471
Zn4	Zn	-0.093856	-0.299307	0.918471
Zn5	Zn	-0.418200	-0.711923	0.418471
Zn6	Zn	0.081800	-0.211923	0.918471
Zn7	Zn	-0.593786	-0.711919	0.594095
Zn8	Zn	-0.093786	-0.211919	1.094095
O9	O	-0.505995	-0.755627	0.506296
O10	O	-0.005995	-0.255627	1.006296
O11	O	-0.441454	-0.872519	0.570868
O12	O	0.058546	-0.372519	1.070868
O13	O	-0.570609	-0.787694	0.271450
O14	O	-0.070609	-0.287694	0.771450
O15	O	-0.271171	-0.723546	0.441797
O16	O	0.228829	-0.223546	0.941797
O17	O	-0.570551	-0.872479	0.441798
O18	O	-0.070551	-0.372479	0.941798
O19	O	-0.271127	-0.787786	0.570867
O20	O	0.228873	-0.287786	1.070867
O21	O	-0.441555	-0.723493	0.271450
O22	O	0.058445	-0.223493	0.771450
O23	O	-0.441487	-0.638757	0.441745
O24	O	0.058513	-0.138757	0.941745
O25	O	-0.570432	-0.723539	0.741123
O26	O	-0.070432	-0.223539	1.241123
O27	O	-0.570490	-0.638754	0.570775
O28	O	-0.070490	-0.138754	1.070775
O29	O	-0.441386	-0.787782	0.741163
O30	O	0.058614	-0.287782	1.241163
O31	O	-0.740868	-0.787690	0.441746
O32	O	-0.240868	-0.287690	0.941746
O33	O	-0.740816	-0.723487	0.570776
O34	O	-0.240816	-0.223487	1.070776
C35	C	-0.505988	-0.619785	0.506254
C36	C	-0.005988	-0.119785	1.006254
C37	C	-0.506010	-0.561671	0.506261
C38	C	-0.006010	-0.061671	1.006261
C39	C	-0.778963	-0.755596	0.506278
C40	C	-0.278963	-0.255596	1.006278
C41	C	-0.895739	-0.755631	0.506305
C42	C	-0.395739	-0.255631	1.006305
C43	C	-0.438879	-0.201323	0.573614
C44	C	0.061121	0.298677	1.073614
C45	C	-0.438878	-0.146718	0.573621
C46	C	0.061122	0.353282	1.073621
O47	O	-0.381782	-0.118494	0.630835
O48	O	0.118218	0.381506	1.130835
N49	N	-0.505991	-0.119388	0.506324
N50	N	-0.005991	0.380612	1.006324
C51	C	-0.573102	-0.146665	0.439010
C52	C	-0.073102	0.353335	0.939010
O53	O	-0.630187	-0.118405	0.381769
O54	O	-0.130187	0.381595	0.881769
C55	C	-0.573097	-0.201268	0.438999
C56	C	-0.073097	0.298732	0.938999
C57	C	-0.505987	-0.228596	0.506307
C58	C	-0.005987	0.271404	1.006307
C59	C	-0.371774	-0.228650	0.640916
C60	C	0.128226	0.271350	1.140916
C61	C	-0.371776	-0.283251	0.640911
C62	C	0.128224	0.216749	1.140911
C63	C	-0.438884	-0.310524	0.573604
C64	C	0.061116	0.189476	1.073604
C65	C	-0.505990	-0.283196	0.506302
C66	C	-0.005990	0.216804	1.006302
C67	C	-0.640202	-0.228544	0.371679
C68	C	-0.140202	0.271456	0.871679
C69	C	-0.640191	-0.283151	0.371674
C70	C	-0.140191	0.216849	0.871674
C71	C	-0.573081	-0.310479	0.438982
C72	C	-0.073081	0.189521	0.938982
C73	C	-0.573101	-0.365070	0.438989
C74	C	-0.073101	0.134930	0.938989
N75	N	-0.505987	-0.392400	0.506285
N76	N	-0.005987	0.107600	1.006285
C77	C	-0.438879	-0.365127	0.573593
C78	C	0.061121	0.134873	1.073593
C79	C	-0.573107	-0.031994	0.439036
C80	C	-0.073107	0.468006	0.939036
C81	C	-0.573118	0.022608	0.439052
C82	C	-0.073118	0.522608	0.939052
C83	C	-0.438892	0.022551	0.573662
C84	C	0.061108	0.522551	1.073662
C85	C	-0.438887	-0.032052	0.573651
C86	C	0.061113	0.467948	1.073651
C87	C	-0.505994	-0.059325	0.506333
C88	C	-0.005994	0.440675	1.006333
C89	C	-0.438890	-0.479792	0.573577
C90	C	0.061110	0.020208	1.073577
C91	C	-0.438902	-0.534398	0.573569
C92	C	0.061098	-0.034398	1.073569
C93	C	-0.573124	-0.534336	0.438955
C94	C	-0.073124	-0.034336	0.938955
C95	C	-0.573116	-0.479735	0.438967
C96	C	-0.073116	0.020265	0.938967
C97	C	-0.505991	-0.452465	0.506281
C98	C	-0.005991	0.047535	1.006281
O99	O	-0.630165	-0.393328	0.381801
O100	O	-0.130165	0.106672	0.881801
O101	O	-0.381795	-0.393394	0.630814
O102	O	0.118205	0.106606	1.130814
C103	C	-0.950489	-0.789066	0.573569
C104	C	-0.450489	-0.289066	1.073569
C105	C	-1.060213	-0.789096	0.573597
C106	C	-0.560213	-0.289096	1.073597
C107	C	-1.060428	-0.722253	0.439089
C108	C	-0.560428	-0.222253	0.939089
C109	C	-0.950706	-0.722221	0.439066
C110	C	-0.450706	-0.222221	0.939066
C111	C	-0.231962	-0.755672	0.506338
C112	C	0.268038	-0.255672	1.006338
C113	C	-0.115185	-0.755692	0.506356
C114	C	0.384815	-0.255692	1.006356
C115	C	-0.505895	-0.755666	0.780330
C116	C	-0.005895	-0.255666	1.280330
C117	C	-0.505852	-0.755683	0.897107
C118	C	-0.005852	-0.255683	1.397107
C119	C	-0.506003	0.108000	0.506339
C120	C	-0.006003	0.608000	1.006339
C121	C	-0.506005	0.049886	0.506356
C122	C	-0.006005	0.549886	1.006356
C123	C	-0.506020	-0.755618	0.233329
C124	C	-0.006020	-0.255618	0.733329
C125	C	-0.505767	-0.755703	0.116553
C126	C	-0.005767	-0.255703	0.616553
C127	C	-0.438646	-0.789137	0.951991
C128	C	0.061354	-0.289137	1.451991
C129	C	-0.438601	-0.789146	1.061715
C130	C	0.061399	-0.289146	1.561715
C131	C	-0.572975	-0.722245	1.061661
C132	C	-0.072975	-0.222245	1.561661
C133	C	-0.573014	-0.722234	0.951939
C134	C	-0.073014	-0.222234	1.451939
H135	H	-0.384252	-0.556645	0.628383
H136	H	0.115748	-0.056645	1.128383
Br137	Br	-0.664124	-0.676855	1.136082
Br138	Br	-0.164124	-0.176855	1.636082
Br139	Br	-0.664193	-0.069001	0.347671
Br140	Br	-0.164193	0.430999	0.847671
Br141	Br	-0.664213	0.059688	0.347714
Br142	Br	-0.164213	0.559688	0.847714
H143	H	-0.383874	-0.816386	1.106397
H144	H	0.116126	-0.316386	1.606397
H145	H	-0.905737	-0.816270	0.628320
H146	H	-0.405737	-0.316270	1.128320
Br147	Br	-0.876397	-0.676835	0.347785
Br148	Br	-0.376397	-0.176835	0.847785
H149	H	-0.694850	-0.206304	0.316869
H150	H	-0.194850	0.293696	0.816869
Br151	Br	-0.664219	-0.676824	0.877446
Br152	Br	-0.164219	-0.176824	1.377446
Br153	Br	-0.280691	-0.320329	0.732260
Br154	Br	0.219309	0.179671	1.232260
Br155	Br	-0.347790	-0.442791	0.664932
Br156	Br	0.152210	0.057209	1.164932
Br157	Br	-1.134512	-0.834470	0.664897
Br158	Br	-0.634512	-0.334470	1.164897
Br159	Br	-0.347496	-0.834530	0.877579
Br160	Br	0.152504	-0.334530	1.377579
H161	H	-0.384238	-0.054299	0.628457
H162	H	0.115762	0.445701	1.128457
Br163	Br	-0.280685	-0.191647	0.732274
Br164	Br	0.219315	0.308353	1.232274
H165	H	-1.105196	-0.695053	0.384344
H166	H	-0.605196	-0.195053	0.884344
H167	H	-0.384246	0.044766	0.628464
H168	H	0.115754	0.544766	1.128464
H169	H	-0.694837	-0.305353	0.316852
H170	H	-0.194837	0.194647	0.816852
Br171	Br	-0.664230	-0.442647	0.347655
Br172	Br	-0.164230	0.057353	0.847655
H173	H	-0.627764	-0.556551	0.384158
H174	H	-0.127764	-0.056551	0.884158
