data_functionalizedCrystal
_audit_creation_method	'MofGen! by Chris Wilmer'
_symmetry_space_group_name_H-M	'P1'
_symmetry_Int_Tables_number	1
_symmetry_cell_setting	triclinic
loop_
_symmetry_equiv_pos_as_xyz
  x,y,z
_cell_length_a	20.919309
_cell_length_b	14.560438
_cell_length_c	14.560438
_cell_angle_alpha	60.006977
_cell_angle_beta	89.999640
_cell_angle_gamma	57.440515
loop_
_atom_site_label
_atom_site_type_symbol
_atom_site_fract_x
_atom_site_fract_y
_atom_site_fract_z
Zr1	Zr	0.641791	0.933436	-0.084523
O2	O	0.535424	1.136913	-0.237085
O3	O	0.674394	0.738206	-0.037775
O4	O	0.674398	0.929790	-0.229349
O5	O	0.535421	0.945328	0.105629
O6	O	0.784027	0.917533	-0.223224
O7	O	0.535420	0.945329	-0.045511
O8	O	0.784020	0.574823	0.119467
O9	O	0.535428	1.288038	-0.237063
O10	O	0.770119	0.806305	-0.013242
O11	O	0.688304	0.815452	0.094981
O12	O	0.688309	1.041018	-0.130573
O13	O	0.606495	1.050165	-0.022350
Zr14	Zr	0.816639	0.913887	0.166295
Zr15	Zr	0.816637	0.913887	-0.074755
Zr16	Zr	0.641793	0.933435	0.156527
Zr17	Zr	0.641798	1.174463	-0.084488
Zr18	Zr	0.816632	0.672860	0.166259
O19	O	0.784036	1.109117	0.119546
O20	O	0.784033	1.109117	-0.223196
O21	O	0.535427	1.136913	0.105658
O22	O	0.923005	0.710409	0.318857
O23	O	0.923003	0.710410	-0.023886
O24	O	0.674397	0.738205	0.304968
O25	O	0.923008	0.901994	-0.023857
O26	O	0.784032	0.917532	0.311121
O27	O	0.674402	0.929789	0.304996
O28	O	0.923009	0.901994	0.127282
O29	O	0.674408	1.272499	-0.229298
O30	O	0.784022	0.574823	0.311070
O31	O	0.923001	0.559284	0.318834
O32	O	0.922999	0.559285	0.127231
O33	O	0.535430	1.288038	-0.045460
O34	O	0.674409	1.272499	-0.037695
O35	O	0.770120	0.806304	0.212345
O36	O	0.851935	0.797157	0.104122
O37	O	0.770125	1.031870	-0.013209
O38	O	0.688311	1.041018	0.095014
C39	C	0.729206	0.622173	0.040841
C40	C	0.729203	0.519851	0.040826
C41	C	0.668811	0.561730	-0.045769
C42	C	0.668824	0.465539	-0.045712
C43	C	0.789624	0.285592	0.127545
C44	C	0.789614	0.381782	0.127483
C45	C	0.608401	0.699800	-0.132426
C46	C	0.548004	0.741686	-0.219027
C47	C	0.548017	0.645495	-0.218970
C48	C	0.608427	0.507419	-0.132311
C49	C	0.510509	0.948114	0.028668
C50	C	0.436282	0.956413	0.024521
C51	C	0.444112	0.837797	0.083812
C52	C	0.374365	0.845603	0.079913
C53	C	0.296789	0.972026	0.016716
C54	C	0.288961	1.090650	-0.042578
C55	C	0.358707	1.082843	-0.038671
C56	C	0.084065	1.001727	0.001864
C57	C	0.014318	1.009526	-0.002041
C58	C	0.099726	0.764477	0.120453
C59	C	0.169470	0.756681	0.124348
C60	C	0.161636	0.875306	0.065059
C61	C	0.225496	0.980007	0.012726
C62	C	0.232929	0.867322	0.069056
C63	C	0.947921	0.899209	0.053104
C64	C	1.022147	0.890910	0.057251
C65	C	0.729212	0.923662	-0.260631
C66	C	0.729211	0.923662	-0.362963
C67	C	0.729223	1.225149	0.040931
C68	C	0.729226	1.327471	0.040946
C69	C	0.686514	1.046180	-0.568439
C70	C	0.686508	1.046181	-0.472288
C71	C	0.771916	0.801133	-0.349791
C72	C	0.771917	0.801134	-0.445942
C73	C	0.643815	1.168707	-0.677762
C74	C	0.601108	1.291236	-0.690941
C75	C	0.601102	1.291238	-0.594790
C76	C	0.643803	1.168710	-0.485460
C77	C	0.729217	0.923661	0.342403
C78	C	0.729218	0.923661	0.444735
C79	C	0.947912	0.597721	0.053059
C80	C	1.022136	0.487100	0.057191
C81	C	0.729209	0.622173	0.342358
C82	C	0.729206	0.519851	0.444675
C83	C	0.947914	0.597720	0.354577
C84	C	1.022139	0.487099	0.461040
C85	C	0.510515	1.249602	-0.272805
C86	C	0.436290	1.360223	-0.379269
C87	C	0.510518	1.249602	0.028712
C88	C	0.436294	1.360223	0.024581
C89	C	0.729221	1.225149	-0.260587
C90	C	0.729223	1.327472	-0.362904
C91	C	1.014285	0.439926	-0.002142
C92	C	1.084019	0.335999	0.001717
C93	C	1.161604	0.279242	0.064917
C94	C	1.169453	0.326426	0.124251
C95	C	1.099719	0.430357	0.120385
C96	C	1.099709	0.430375	0.454546
C97	C	1.169458	0.326447	0.554571
C98	C	1.161635	0.279239	0.661089
C99	C	1.084056	0.335974	0.667581
C100	C	1.014309	0.439906	0.567557
C101	C	0.358720	1.416960	-0.372774
C102	C	0.288972	1.520917	-0.472799
C103	C	0.296795	1.568130	-0.579318
C104	C	0.374373	1.511389	-0.585810
C105	C	0.444120	1.407440	-0.485786
C106	C	0.444145	1.407407	0.083904
C107	C	0.374410	1.511360	0.080018
C108	C	0.296826	1.568120	0.016815
C109	C	0.288976	1.520932	-0.042515
C110	C	0.358710	1.416987	-0.038635
C111	C	0.771914	0.466999	0.554007
C112	C	0.771905	0.370863	0.650141
C113	C	0.686481	0.380433	0.527596
C114	C	0.686485	0.476575	0.431465
C115	C	0.814635	0.510275	0.567217
C116	C	0.857347	0.457422	0.676554
C117	C	0.857338	0.361286	0.772688
C118	C	0.814618	0.318001	0.759484
H119	H	0.507274	0.734849	0.135280
H120	H	1.106095	0.468795	0.367823
H121	H	0.507312	1.361200	0.135378
H122	H	0.951151	0.486079	0.572861
H123	H	0.352327	1.179433	-0.086939
Cl124	Cl	0.608448	0.386495	-0.132253
H125	H	1.077612	0.297596	-0.046601
H126	H	0.296093	0.764390	0.120516
H127	H	0.951118	0.486136	-0.053619
H128	H	0.380817	1.549762	0.128337
H129	H	0.838789	0.347677	0.197997
H130	H	0.892122	0.492679	0.687296
Cl131	Cl	0.209167	1.698791	0.011952
H132	H	0.162326	1.082941	-0.038729
H133	H	0.225798	1.567162	-0.093973
Cl134	Cl	0.348826	1.357675	-0.113213
Cl135	Cl	1.249262	0.148582	0.069768
H136	H	0.806688	0.701368	-0.435211
H137	H	0.239996	1.652773	-0.660755
H138	H	1.232632	0.280199	0.175706
H139	H	0.643786	1.168722	-0.407173
H140	H	0.380747	0.749013	0.128197
Cl141	Cl	0.266991	0.597743	0.203799
H142	H	1.106123	0.468752	0.168708
H143	H	1.232619	0.280263	0.549265
Cl144	Cl	0.547421	1.445262	-0.828379
Cl145	Cl	1.249326	0.148576	0.786825
Cl146	Cl	0.911023	0.294857	0.910135
Cl147	Cl	1.074235	0.276609	0.801500
Cl148	Cl	0.384194	1.570753	-0.719728
Cl149	Cl	0.814650	0.631130	0.446369
Cl150	Cl	0.814602	0.197153	0.880341
Cl151	Cl	0.348864	1.357628	-0.238878
H152	H	0.498844	0.679605	-0.289491
H153	H	0.651701	0.345181	0.516857
Cl154	Cl	-0.083210	1.168469	-0.081507
H155	H	0.225811	1.567099	-0.467491
Cl156	Cl	0.541634	1.336117	-0.493970
H157	H	0.806682	0.701377	-0.260770
H158	H	0.498824	0.854110	-0.289586
Cl159	Cl	0.608377	0.820731	-0.132499
Cl160	Cl	0.865559	0.112018	0.236483
H161	H	0.106095	0.667900	0.168722
Cl162	Cl	0.632793	0.543024	0.294013
H163	H	0.225793	1.193587	-0.094028
Cl164	Cl	0.074208	1.150857	-0.072675
H165	H	0.566322	1.391007	-0.605527
Cl166	Cl	0.643822	1.168713	-0.798642
