data_functionalizedCrystal
_audit_creation_method	'MofGen! by Chris Wilmer'
_symmetry_space_group_name_H-M	'P1'
_symmetry_Int_Tables_number	1
_symmetry_cell_setting	triclinic
loop_
_symmetry_equiv_pos_as_xyz
  x,y,z
_cell_length_a	6.817900
_cell_length_b	16.256208
_cell_length_c	16.255661
_cell_angle_alpha	95.350611
_cell_angle_beta	103.488922
_cell_angle_gamma	103.499088
loop_
_atom_site_label
_atom_site_type_symbol
_atom_site_fract_x
_atom_site_fract_y
_atom_site_fract_z
V1	V	-4.026770	-0.117778	-0.264174
O2	O	-4.014188	0.004956	-0.258835
O3	O	-3.978378	-0.232858	-0.262666
O4	O	-3.978331	-0.116275	-0.379254
O5	O	-4.014235	-0.112433	-0.141440
V6	V	-4.510402	-0.103061	-0.249458
O7	O	-4.287789	-0.150061	-0.296455
O8	O	-4.699579	-0.070778	-0.217177
O9	O	-4.335587	0.012018	-0.250966
O10	O	-4.640380	-0.225796	-0.254797
O11	O	-4.640333	-0.108406	-0.372192
O12	O	-4.335634	-0.104564	-0.134379
C13	C	-3.823382	-0.260902	-0.258575
C14	C	-3.865103	-0.354983	-0.258109
C15	C	-4.180993	-0.643087	-0.261101
C16	C	-4.024588	-0.573415	-0.189040
C17	C	-4.015127	-0.693616	-0.256396
C18	C	-4.097310	-0.595653	-0.329275
C19	C	-3.941426	-0.527235	-0.257239
C20	C	-3.859240	-0.625174	-0.184270
C21	C	-3.932023	-0.647427	-0.324568
C22	C	-3.775481	-0.577774	-0.252486
C23	C	-4.057590	-0.789464	-0.255909
C24	C	-3.898947	-0.431387	-0.257719
C25	C	-3.823321	-0.112188	-0.407294
C26	C	-3.865001	-0.111721	-0.501374
C27	C	-3.775555	-0.106138	-0.724178
C28	C	-3.932006	-0.178197	-0.793840
C29	C	-3.941385	-0.110845	-0.673620
C30	C	-3.859223	-0.037961	-0.771594
C31	C	-4.015152	-0.109994	-0.840001
C32	C	-4.097318	-0.182968	-0.742052
C33	C	-4.024473	-0.042668	-0.719790
C34	C	-4.181062	-0.114748	-0.789432
C35	C	-3.898884	-0.111335	-0.577772
C36	C	-4.057670	-0.109510	-0.935849
C37	C	-4.153925	0.040058	-0.255055
C38	C	-4.091442	0.134138	-0.255526
C39	C	-4.153986	-0.108654	-0.106334
C40	C	-4.091545	-0.109117	-0.012253
H41	H	-3.603799	-0.102591	-0.695688
H42	H	-4.063040	0.014633	-0.687534
H43	H	-4.063276	-0.541196	-0.131743
H44	H	-3.893415	-0.679666	-0.381870
H45	H	-4.197564	-0.582244	-0.390559
C46	C	-3.723786	0.044833	-0.789724
C47	C	-3.744404	0.132588	-0.753866
C48	C	-3.608951	0.215377	-0.771993
C49	C	-3.452880	0.210409	-0.825978
C50	C	-3.432255	0.122650	-0.861838
C51	C	-3.567708	0.039862	-0.843711
H52	H	-3.859943	0.136268	-0.713901
H53	H	-3.624220	0.280342	-0.745447
H54	H	-3.352610	0.271694	-0.839396
H55	H	-3.316716	0.118970	-0.901803
H56	H	-3.552440	-0.025103	-0.870258
H57	H	-4.352936	-0.118407	-0.817788
C58	C	-3.879804	-0.255599	-0.837394
C59	C	-3.713793	-0.241395	-0.888346
C60	C	-3.661571	-0.318793	-0.931896
C61	C	-3.775361	-0.410395	-0.924494
C62	C	-3.941382	-0.424603	-0.873540
C63	C	-3.993604	-0.347205	-0.829990
H64	H	-3.629550	-0.173583	-0.893827
H65	H	-3.538671	-0.308275	-0.969615
H66	H	-3.736703	-0.467690	-0.956732
H67	H	-4.025625	-0.492416	-0.868059
H68	H	-4.116505	-0.357723	-0.792271
C69	C	-4.232747	-0.265850	-0.724081
C70	C	-4.217976	-0.281641	-0.631153
C71	C	-4.353394	-0.364522	-0.613181
C72	C	-4.503583	-0.431613	-0.688137
C73	C	-4.518360	-0.415825	-0.781071
C74	C	-4.382942	-0.332943	-0.799043
H75	H	-4.106792	-0.231974	-0.575661
H76	H	-4.342455	-0.376209	-0.544384
H77	H	-4.603828	-0.492967	-0.674832
H78	H	-4.629545	-0.465492	-0.836563
H79	H	-4.393882	-0.321256	-0.867840
H80	H	-3.603605	-0.549394	-0.248826
H81	H	-3.758996	-0.638474	-0.122924
H82	H	-4.352750	-0.671603	-0.264649
