data_functionalizedCrystal
_audit_creation_method	'MofGen! by Chris Wilmer'
_symmetry_space_group_name_H-M	'P1'
_symmetry_Int_Tables_number	1
_symmetry_cell_setting	triclinic
loop_
_symmetry_equiv_pos_as_xyz
  x,y,z
_cell_length_a	27.732048
_cell_length_b	11.026607
_cell_length_c	9.482900
_cell_angle_alpha	101.363848
_cell_angle_beta	99.251554
_cell_angle_gamma	84.385664
loop_
_atom_site_label
_atom_site_type_symbol
_atom_site_fract_x
_atom_site_fract_y
_atom_site_fract_z
O1	O	0.196163	-1.625408	-0.120955
O2	O	0.173153	-1.272533	-0.120950
O3	O	0.115249	-1.459925	-0.120925
O4	O	0.254067	-1.438015	-0.120980
O5	O	0.127071	-1.421861	0.120862
O6	O	0.184975	-1.234468	0.120837
O7	O	0.207985	-1.587343	0.120832
Cu8	Cu	0.197559	-1.407430	0.142912
Cu9	Cu	0.183578	-1.452446	-0.143030
O10	O	0.265889	-1.399950	0.120807
C11	C	0.103112	-1.440432	-0.000028
C12	C	0.049333	-1.439045	-0.000016
C13	C	0.174819	-1.208369	-0.000055
C14	C	0.162164	-1.073891	-0.000052
C15	C	0.206319	-1.651507	-0.000066
C16	C	0.218973	-1.785986	-0.000079
C17	C	-0.280305	-1.541074	-0.000092
C18	C	-0.482429	-1.535937	-0.000112
O19	O	-0.505292	-1.629234	-0.000177
N20	N	-0.511552	-1.424818	-0.000109
C21	C	-0.490142	-1.314976	-0.000110
O22	O	-0.519552	-1.220347	-0.000123
C23	C	-0.288020	-1.320117	-0.000101
C24	C	-0.258899	-1.431241	-0.000089
C25	C	-0.251184	-1.652189	-0.000082
C26	C	-0.200656	-1.653471	-0.000069
C27	C	-0.179249	-1.543638	-0.000066
C28	C	-0.208371	-1.432523	-0.000076
C29	C	-0.266612	-1.210279	-0.000113
C30	C	-0.216078	-1.211574	-0.000114
C31	C	-0.186957	-1.322698	-0.000102
C32	C	-0.136436	-1.323971	-0.000060
N33	N	-0.107312	-1.435090	-0.000063
C34	C	-0.128719	-1.544923	-0.000066
C35	C	-0.596259	-1.312285	-0.000113
C36	C	-0.646789	-1.310999	-0.000113
C37	C	-0.639072	-1.531960	-0.000117
C38	C	-0.588540	-1.533243	-0.000106
C39	C	-0.567135	-1.423404	-0.000116
C40	C	-0.022606	-1.547607	-0.000037
C41	C	0.027926	-1.548878	-0.000018
C42	C	0.020204	-1.327919	-0.000022
C43	C	-0.030324	-1.326646	-0.000033
C44	C	-0.051728	-1.436501	-0.000046
O45	O	-0.113540	-1.230726	-0.000011
O46	O	-0.099302	-1.639544	-0.000085
C47	C	-0.330833	-1.539792	-0.000105
C48	C	-0.359955	-1.428677	-0.000115
C49	C	-0.338548	-1.318844	-0.000112
C50	C	-0.410485	-1.427391	-0.000115
C51	C	-0.431892	-1.537224	-0.000117
C52	C	-0.402768	-1.648343	-0.000120
C53	C	-0.352240	-1.649625	-0.000107
C54	C	-0.367672	-1.207725	-0.000109
C55	C	-0.418199	-1.206451	-0.000120
C56	C	-0.439606	-1.316285	-0.000123
C57	C	0.278026	-1.419444	-0.000094
C58	C	0.331805	-1.420833	-0.000115
N59	N	0.207393	-1.375777	0.344028
C60	C	0.197105	-0.999433	-0.000067
C61	C	0.184027	-0.860443	-0.000064
N62	N	0.173742	-1.484109	-0.344146
C63	C	0.186476	-1.443101	0.416236
C64	C	0.194662	-1.416774	0.583650
H65	H	0.051636	-1.639372	-0.000005
H66	H	0.144426	-0.821304	-0.000085
H67	H	0.162505	-1.520227	0.354118
H68	H	0.258573	-0.825129	-0.000085
H69	H	0.037643	-1.238495	-0.000014
H70	H	-0.198654	-1.122128	-0.000123
H71	H	0.149769	-1.561239	0.593740
H72	H	0.122566	-1.034746	-0.000074
H73	H	0.218631	-1.339635	0.645764
H74	H	-0.040028	-1.637062	-0.000053
H75	H	-0.268607	-1.741635	-0.000089
H76	H	-0.564832	-1.623730	-0.000098
H77	H	-0.328533	-1.740114	-0.000098
H78	H	0.231360	-1.298642	0.406147
H79	H	-0.176949	-1.743960	-0.000065
H80	H	-0.656509	-1.621391	-0.000118
H81	H	-0.670495	-1.220507	-0.000097
H82	H	-0.290315	-1.119791	-0.000131
H83	H	-0.578836	-1.222836	-0.000120
H84	H	-0.054034	-1.236153	-0.000002
H85	H	0.236702	-1.038583	-0.000074
H86	H	-0.441906	-1.115952	-0.000117
H87	H	-0.420206	-1.737772	-0.000116
H88	H	-0.350248	-1.118283	-0.000110
