data_functionalizedCrystal
_audit_creation_method	'MofGen! by Chris Wilmer'
_symmetry_space_group_name_H-M	'P1'
_symmetry_Int_Tables_number	1
_symmetry_cell_setting	triclinic
loop_
_symmetry_equiv_pos_as_xyz
  x,y,z
_cell_length_a	15.944545
_cell_length_b	10.654541
_cell_length_c	9.130307
_cell_angle_alpha	90.003083
_cell_angle_beta	90.001265
_cell_angle_gamma	96.009950
loop_
_atom_site_label
_atom_site_type_symbol
_atom_site_fract_x
_atom_site_fract_y
_atom_site_fract_z
O1	O	1.115460	-0.161927	-0.121704
O2	O	0.871025	-0.181904	-0.121728
O3	O	0.998864	0.010897	-0.121706
O4	O	0.987622	-0.354728	-0.121725
O5	O	0.998860	0.010899	0.121893
O6	O	0.871021	-0.181902	0.121871
O7	O	1.115456	-0.161925	0.121895
Cu8	Cu	0.993238	-0.171913	0.144126
Cu9	Cu	0.993243	-0.171916	-0.143958
O10	O	0.987618	-0.354726	0.121874
C11	C	0.839724	-0.181075	0.000069
C12	C	0.746464	-0.178593	0.000060
C13	C	0.475097	-0.051669	0.000082
C14	C	0.526031	-0.112861	0.120190
C15	C	0.410769	-0.169741	0.000086
C16	C	0.526015	-0.112894	-0.119980
C17	C	0.575707	-0.174084	0.000071
C18	C	0.460474	-0.230901	0.120292
C19	C	0.460455	-0.230917	-0.119985
C20	C	0.511356	-0.292195	0.000152
C21	C	0.315752	-0.167236	0.000096
C22	C	0.670721	-0.176598	0.000071
C23	C	0.998037	0.057685	0.000092
C24	C	0.995568	0.197097	0.000090
C25	C	1.146757	-0.162754	0.000095
C26	C	1.240018	-0.165236	0.000095
C27	C	0.988445	-0.401514	0.000072
C28	C	0.990913	-0.540926	0.000065
N29	N	0.993241	-0.171911	0.346749
C30	C	1.148434	0.227051	0.000123
C31	C	1.223704	0.307521	0.000142
C32	C	1.221379	0.438509	0.000138
C33	C	1.143777	0.489028	0.000109
C34	C	1.068507	0.408557	0.000089
C35	C	1.070840	0.277568	0.000099
C36	C	0.915643	0.378604	0.000046
C37	C	0.917966	0.247615	0.000061
C38	C	0.838041	0.429122	0.000017
C39	C	0.762769	0.348651	0.000008
C40	C	0.765097	0.217656	0.000014
C41	C	0.842696	0.167145	0.000041
N42	N	0.993247	-0.171908	-0.346581
C43	C	1.106488	-0.001235	0.346757
C44	C	1.163118	0.084100	0.423429
C45	C	1.163126	0.084100	0.576762
C46	C	1.106497	-0.001240	0.653428
C47	C	1.049868	-0.086574	0.576757
C48	C	1.049868	-0.086569	0.423420
C49	C	0.936618	-0.257242	0.576748
C50	C	0.936612	-0.257251	0.423414
C51	C	0.879989	-0.342583	0.653414
C52	C	0.823362	-0.427925	0.576742
C53	C	0.823357	-0.427924	0.423400
C54	C	0.879983	-0.342586	0.346743
H55	H	0.554646	-0.063010	-0.221515
H56	H	0.458856	0.050016	0.000204
C57	C	0.879979	-0.342579	0.178081
H58	H	0.921810	-0.279528	0.143409
H59	H	0.891928	-0.422857	0.143378
H60	H	0.826195	-0.325319	0.143403
H61	H	0.527436	-0.393959	0.000217
H62	H	0.554671	-0.062995	0.221736
H63	H	1.106494	-0.001237	0.221905
H64	H	1.150334	0.120395	0.000147
H65	H	0.431951	-0.280728	0.221943
C66	C	0.761080	-0.521787	0.661074
H67	H	0.769197	-0.509565	0.763374
H68	H	0.704945	-0.508096	0.635947
H69	H	0.770689	-0.605618	0.635947
H70	H	0.777239	-0.497409	0.360982
C71	C	0.421734	-0.298219	-0.257165
H72	H	0.444277	-0.256130	-0.342425
H73	H	0.434766	-0.383195	-0.258032
H74	H	0.362263	-0.296821	-0.255690
H75	H	1.286886	0.266375	0.000179
C76	C	1.304173	0.527029	0.000160
H77	H	1.350723	0.478188	0.000185
H78	H	1.306447	0.578748	-0.084787
H79	H	1.306432	0.578750	0.085120
H80	H	0.879995	-0.342573	0.778266
H81	H	1.209223	0.153585	0.360994
H82	H	0.836154	0.535780	0.000004
C83	C	1.141221	0.633111	0.000093
H84	H	1.197162	0.673800	0.000112
H85	H	1.112469	0.657204	-0.084863
H86	H	1.112463	0.657220	0.085045
H87	H	0.699592	0.389795	-0.000025
H88	H	0.703803	0.152142	-0.000008
H89	H	0.844599	0.060489	0.000056
C90	C	1.225413	0.177965	0.661110
H91	H	1.217300	0.165743	0.763409
H92	H	1.281548	0.164272	0.635980
H93	H	1.215805	0.261796	0.635995
C94	C	1.106493	-0.001226	0.822090
H95	H	1.064655	-0.064264	0.856768
H96	H	1.160272	-0.018463	0.856792
H97	H	1.094529	0.079061	0.856764
