data_functionalizedCrystal
_audit_creation_method	'MofGen! by Chris Wilmer'
_symmetry_space_group_name_H-M	'P1'
_symmetry_Int_Tables_number	1
_symmetry_cell_setting	triclinic
loop_
_symmetry_equiv_pos_as_xyz
  x,y,z
_cell_length_a	10.967874
_cell_length_b	11.026607
_cell_length_c	9.798715
_cell_angle_alpha	89.998891
_cell_angle_beta	77.867610
_cell_angle_gamma	96.380181
loop_
_atom_site_label
_atom_site_type_symbol
_atom_site_fract_x
_atom_site_fract_y
_atom_site_fract_z
O1	O	1.694011	0.170514	-0.511882
O2	O	2.194011	0.670514	-0.011882
O3	O	1.334377	0.186837	-0.427306
O4	O	1.834377	0.686837	0.072694
O5	O	1.484388	0.001775	-0.462579
O6	O	1.984388	0.501775	0.037421
O7	O	1.544000	0.355577	-0.476608
O8	O	2.044000	0.855577	0.023392
O9	O	1.484374	0.001774	-0.235594
O10	O	1.984374	0.501774	0.264406
O11	O	1.334363	0.186837	-0.200320
O12	O	1.834363	0.686837	0.299680
O13	O	1.693996	0.170514	-0.284896
O14	O	2.193996	0.670514	0.215104
Zn15	Zn	1.514177	0.178675	-0.206569
Zn16	Zn	2.014177	0.678675	0.293431
Zn17	Zn	1.514196	0.178676	-0.505633
Zn18	Zn	2.014196	0.678676	-0.005633
O19	O	1.543986	0.355576	-0.249623
O20	O	2.043986	0.855576	0.250377
C21	C	1.287614	0.185649	-0.302817
C22	C	1.787614	0.685649	0.197183
C23	C	1.148291	0.182096	-0.270053
C24	C	1.648291	0.682096	0.229947
C25	C	1.473383	-0.043528	-0.346502
C26	C	1.973383	0.456472	0.153498
C27	C	1.440600	-0.178515	-0.338797
C28	C	1.940600	0.321485	0.161203
C29	C	1.086184	0.180512	-0.373030
C30	C	1.586184	0.680512	0.126970
C31	C	0.942187	0.176839	-0.339169
C32	C	1.442187	0.676839	0.160831
C33	C	1.531121	-0.251567	-0.360087
C34	C	2.031121	0.248433	0.139913
C35	C	1.497240	-0.391084	-0.352124
C36	C	1.997240	0.108916	0.147876
C37	C	1.740760	0.171702	-0.409388
C38	C	2.240760	0.671702	0.090612
C39	C	1.880083	0.175255	-0.442161
C40	C	2.380083	0.675255	0.057839
C41	C	1.554990	0.400879	-0.365703
C42	C	2.054990	0.900879	0.134297
C43	C	1.587774	0.535866	-0.373417
C44	C	2.087774	1.035866	0.126583
N45	N	1.514174	0.178674	-0.002469
N46	N	2.014174	0.678674	0.497531
N47	N	1.514208	0.178667	-0.709735
N48	N	2.014208	0.678667	-0.209735
C49	C	1.577085	0.100629	0.050515
C50	C	2.077085	0.600629	0.550515
C51	C	1.577104	0.100625	0.207674
C52	C	2.077104	0.600625	0.707674
H53	H	1.139618	0.181881	-0.486262
H54	H	1.639618	0.681881	0.013738
F55	F	1.721866	-0.410893	-0.404958
F56	F	2.221866	0.089107	0.095042
H57	H	1.630971	0.033811	0.253293
H58	H	2.130971	0.533811	0.753293
H59	H	1.338018	-0.219260	-0.314682
H60	H	1.838018	0.280740	0.185318
F61	F	1.443810	0.266015	0.230647
F62	F	1.943810	0.766015	0.730647
F63	F	1.665205	-0.198317	-0.391628
F64	F	2.165205	0.301683	0.108372
H65	H	1.460321	0.245484	0.068519
H66	H	1.960321	0.745484	0.568519
H67	H	1.630927	0.033809	-0.020468
H68	H	2.130927	0.533809	0.479532
H69	H	0.888758	0.175483	-0.225930
H70	H	1.388758	0.675483	0.274070
H71	H	1.394651	-0.431823	-0.328007
H72	H	1.894651	0.068177	0.171993
H73	H	0.933511	0.176626	-0.555401
H74	H	1.433511	0.676626	-0.055401
H75	H	1.094858	0.180740	-0.156821
H76	H	1.594858	0.680740	0.343179
