data_functionalizedCrystal
_audit_creation_method	'MofGen! by Chris Wilmer'
_symmetry_space_group_name_H-M	'P1'
_symmetry_Int_Tables_number	1
_symmetry_cell_setting	triclinic
loop_
_symmetry_equiv_pos_as_xyz
  x,y,z
_cell_length_a	6.817900
_cell_length_b	7.190334
_cell_length_c	7.076078
_cell_angle_alpha	96.845175
_cell_angle_beta	62.298625
_cell_angle_gamma	119.388224
loop_
_atom_site_label
_atom_site_type_symbol
_atom_site_fract_x
_atom_site_fract_y
_atom_site_fract_z
V1	V	4.298430	0.663525	-0.291703
V2	V	4.798430	1.163525	0.208297
O3	O	4.202197	0.652430	0.017518
O4	O	4.702197	1.152430	0.517518
O5	O	4.323658	0.657510	-0.581765
O6	O	4.823658	1.157510	-0.081765
O7	O	4.334036	0.953586	-0.285680
O8	O	4.834036	1.453586	0.214320
O9	O	4.191748	0.354305	-0.280616
O10	O	4.691748	0.854305	0.219384
V11	V	4.761632	0.626720	-0.254898
V12	V	5.261632	1.126720	0.245102
O13	O	4.604264	0.744262	-0.372438
O14	O	5.104264	1.244262	0.127562
O15	O	4.905995	0.545983	-0.174164
O16	O	5.405995	1.045983	0.325836
O17	O	4.513196	0.632735	0.035164
O18	O	5.013196	1.132735	0.535164
O19	O	4.975261	0.637815	-0.564119
O20	O	5.475261	1.137815	-0.064119
O21	O	4.985710	0.935940	-0.265985
O22	O	5.485710	1.435940	0.234015
O23	O	4.502819	0.336659	-0.260921
O24	O	5.002819	0.836659	0.239079
C25	C	4.197098	1.024332	-0.274828
C26	C	4.697098	1.524332	0.225172
C27	C	4.310063	1.265905	-0.271763
C28	C	4.810063	1.765905	0.228237
C29	C	4.190829	0.646660	0.347476
C30	C	4.690829	1.146660	0.847476
C31	C	4.316355	0.643595	0.105903
C32	C	4.816355	1.143595	0.605903
