data_functionalizedCrystal
_audit_creation_method	'MofGen! by Chris Wilmer'
_symmetry_space_group_name_H-M	'P1'
_symmetry_Int_Tables_number	1
_symmetry_cell_setting	triclinic
loop_
_symmetry_equiv_pos_as_xyz
  x,y,z
_cell_length_a	18.050591
_cell_length_b	19.120786
_cell_length_c	18.050583
_cell_angle_alpha	87.525261
_cell_angle_beta	89.975765
_cell_angle_gamma	92.460873
loop_
_atom_site_label
_atom_site_type_symbol
_atom_site_fract_x
_atom_site_fract_y
_atom_site_fract_z
Zn1	Zn	1.122716	-0.279681	-0.407401
Zn2	Zn	1.622716	0.220319	0.092599
Zn3	Zn	1.117327	-0.397152	-0.277906
Zn4	Zn	1.617327	0.102848	0.222094
Zn5	Zn	0.998527	-0.279704	-0.283211
Zn6	Zn	1.498527	0.220296	0.216789
Zn7	Zn	0.993193	-0.397095	-0.402044
Zn8	Zn	1.493193	0.102905	0.097956
O9	O	1.057941	-0.338408	-0.342641
O10	O	1.557941	0.161592	0.157359
O11	O	1.225925	-0.295278	-0.390245
O12	O	1.725925	0.204722	0.109755
O13	O	1.101545	-0.381606	-0.174684
O14	O	1.601545	0.118394	0.325316
O15	O	1.019488	-0.181411	-0.304147
O16	O	1.519488	0.318589	0.195853
O17	O	1.221966	-0.381584	-0.295106
O18	O	1.721966	0.118416	0.204894
O19	O	1.110729	-0.181394	-0.395389
O20	O	1.610729	0.318606	0.104611
O21	O	1.014263	-0.295318	-0.178581
O22	O	1.514263	0.204682	0.321419
O23	O	0.893895	-0.295262	-0.298953
O24	O	1.393895	0.204738	0.201047
O25	O	1.010398	-0.381486	-0.506681
O26	O	1.510398	0.118514	-0.006681
O27	O	0.889977	-0.381508	-0.386259
O28	O	1.389977	0.118492	0.113741
O29	O	1.105557	-0.295223	-0.510617
O30	O	1.605557	0.204777	-0.010617
O31	O	1.096372	-0.495435	-0.289912
O32	O	1.596372	0.004565	0.210088
O33	O	1.005172	-0.495393	-0.381115
O34	O	1.505172	0.004607	0.118885
C35	C	0.864990	-0.338382	-0.342601
C36	C	1.364990	0.161618	0.157399
C37	C	0.782444	-0.338388	-0.342601
C38	C	1.282444	0.161612	0.157399
C39	C	0.585105	-0.291433	-0.295240
C40	C	1.085105	0.208567	0.204760
C41	C	0.532798	-0.355499	-0.274071
C42	C	1.032798	0.144501	0.225929
C43	C	0.631312	-0.338409	-0.342633
C44	C	1.131312	0.161591	0.157367
C45	C	0.536537	-0.274365	-0.363800
C46	C	1.036537	0.225635	0.136200
C47	C	0.485327	-0.338424	-0.342664
C48	C	0.985327	0.161576	0.157336
C49	C	0.580091	-0.402509	-0.321427
C50	C	1.080091	0.097491	0.178573
C51	C	0.583836	-0.321332	-0.411189
C52	C	1.083836	0.178668	0.088811
C53	C	0.531549	-0.385442	-0.390044
C54	C	1.031549	0.114558	0.109956
C55	C	0.715411	-0.338400	-0.342614
C56	C	1.215411	0.161600	0.157386
C57	C	0.401229	-0.338441	-0.342683
C58	C	0.901229	0.161559	0.157317
C59	C	1.049629	-0.520899	-0.334373
C60	C	1.549629	-0.020899	0.165627
C61	C	1.046141	-0.598970	-0.330860
C62	C	1.546141	-0.098970	0.169140
C63	C	1.091971	-0.635579	-0.376754
C64	C	1.591971	-0.135579	0.123246
C65	C	1.088691	-0.708934	-0.373455
C66	C	1.588691	-0.208934	0.126545
C67	C	1.039584	-0.745680	-0.324258
C68	C	1.539584	-0.245680	0.175742
C69	C	0.993748	-0.709066	-0.278363
C70	C	1.493748	-0.209066	0.221637
C71	C	0.997025	-0.635712	-0.281666
C72	C	1.497025	-0.135712	0.218334
C73	C	1.027311	-0.967166	-0.311910
C74	C	1.527311	-0.467166	0.188090
C75	C	1.024039	-1.040525	-0.308608
C76	C	1.524039	-0.540525	0.191392
C77	C	1.118981	-1.040388	-0.403701
C78	C	1.618981	-0.540388	0.096299
C79	C	1.122257	-0.967032	-0.406997
C80	C	1.622257	-0.467032	0.093003
C81	C	1.076419	-0.930425	-0.361105
C82	C	1.576419	-0.430425	0.138895
C83	C	1.036231	-0.820661	-0.320883
C84	C	1.536231	-0.320661	0.179117
C85	C	1.079768	-0.855445	-0.364484
C86	C	1.579768	-0.355445	0.135516
C87	C	1.251645	-0.338435	-0.342681
C88	C	1.751645	0.161565	0.157319
C89	C	1.334190	-0.338446	-0.342699
C90	C	1.834190	0.161554	0.157301
C91	C	1.057984	-0.338345	-0.536349
C92	C	1.557984	0.161655	-0.036349
C93	C	1.058002	-0.338319	-0.618896
C94	C	1.558002	0.161681	-0.118896
C95	C	1.066305	-0.155204	-0.350958
C96	C	1.566305	0.344796	0.149042
C97	C	1.069869	-0.077134	-0.354502
C98	C	1.569869	0.422866	0.145498
C99	C	1.109799	-0.291361	-0.869865
C100	C	1.609799	0.208639	-0.369865
C101	C	1.125033	-0.355452	-0.817558
C102	C	1.625033	0.144548	-0.317558
C103	C	1.058052	-0.338274	-0.916019
C104	C	1.558052	0.161726	-0.416019
C105	C	1.042828	-0.274209	-0.821243
C106	C	1.542828	0.225791	-0.321243
C107	C	1.058029	-0.338293	-0.770033
C108	C	1.558029	0.161707	-0.270033
C109	C	1.073320	-0.402398	-0.864798
C110	C	1.573320	0.097602	-0.364798
C111	C	0.991086	-0.321112	-0.868489
C112	C	1.491086	0.178888	-0.368489
C113	C	1.006292	-0.385247	-0.816203
C114	C	1.506292	0.114753	-0.316203
C115	C	1.058067	-0.338262	-1.000118
C116	C	1.558067	0.161738	-0.500118
C117	C	1.058014	-0.338311	-0.685936
C118	C	1.558014	0.161689	-0.185936
C119	C	1.057943	-0.338420	-0.149688
C120	C	1.557943	0.161580	0.350312
C121	C	1.058077	-0.338249	-0.067151
C122	C	1.558077	0.161751	0.432849
H123	H	0.517270	-0.220204	-0.381663
H124	H	1.017270	0.279796	0.118337
C125	C	1.139118	-0.749200	-0.423931
C126	C	1.639118	-0.249200	0.076069
N127	N	1.177105	-0.779528	-0.461950
N128	N	1.677105	-0.279528	0.038050
H129	H	1.131963	-0.605665	-0.416811
H130	H	1.631963	-0.105665	0.083189
H131	H	1.086270	-0.456596	-0.883936
H132	H	1.586270	0.043404	-0.383936
C133	C	0.500048	-0.439181	-0.444199
C134	C	1.000048	0.060819	0.055801
N135	N	0.476318	-0.479659	-0.484985
N136	N	0.976318	0.020341	0.015015
C137	C	1.169395	-1.080662	-0.454185
C138	C	1.669395	-0.580662	0.045815
N139	N	1.207365	-1.110996	-0.492213
N140	N	1.707365	-0.610996	0.007787
C141	C	0.502540	-0.375025	-0.195766
C142	C	1.002540	0.124975	0.304234
N143	N	0.479751	-0.389726	-0.136786
N144	N	0.979751	0.110274	0.363214
C145	C	0.605940	-0.475708	-0.297163
C146	C	1.105940	0.024292	0.202837
N147	N	0.625412	-0.530839	-0.278884
N148	N	1.125412	-0.030839	0.221116
H149	H	0.608548	-0.251749	-0.255114
H150	H	1.108548	0.248251	0.244886
H151	H	1.029961	-0.220023	-0.802012
H152	H	1.529961	0.279977	-0.302012
C153	C	1.176293	-0.926617	-0.461103
C154	C	1.676293	-0.426617	0.038897
N155	N	1.217000	-0.896177	-0.501850
N156	N	1.717000	-0.396177	-0.001850
H157	H	0.606247	-0.306857	-0.469137
H158	H	1.106247	0.193143	0.030863
C159	C	0.947175	-0.438918	-0.784620
C160	C	1.447175	0.061082	-0.284620
N161	N	0.902658	-0.479347	-0.760822
N162	N	1.402658	0.020653	-0.260822
C163	C	0.982281	-0.861089	-0.266702
C164	C	1.482281	-0.361089	0.233298
N165	N	0.941668	-0.891541	-0.225871
N166	N	1.441668	-0.391541	0.274129
C167	C	0.970012	-1.080944	-0.254489
C168	C	1.470012	-0.580944	0.245511
N169	N	0.929321	-1.111388	-0.213729
N170	N	1.429321	-0.611388	0.286271
C171	C	0.939775	-0.749489	-0.224202
C172	C	1.439775	-0.249489	0.275798
N173	N	0.899139	-0.779935	-0.183387
N174	N	1.399139	-0.279935	0.316613
H175	H	0.989989	-0.937366	-0.274541
H176	H	1.489989	-0.437366	0.225459
C177	C	1.168969	-0.237823	-0.901602
C178	C	1.668969	0.262177	-0.401602
N179	N	1.213537	-0.197502	-0.925507
N180	N	1.713537	0.302498	-0.425507
H181	H	0.959704	-0.605906	-0.244296
H182	H	1.459704	-0.105906	0.255704
H183	H	1.119749	-0.825525	-0.404542
H184	H	1.619749	-0.325525	0.095458
H185	H	1.181655	-0.369979	-0.795209
H186	H	1.681655	0.130021	-0.295209
H187	H	0.934481	-0.306565	-0.890854
H188	H	1.434481	0.193435	-0.390854
