data_functionalizedCrystal
_audit_creation_method	'MofGen! by Chris Wilmer'
_symmetry_space_group_name_H-M	'P1'
_symmetry_Int_Tables_number	1
_symmetry_cell_setting	triclinic
loop_
_symmetry_equiv_pos_as_xyz
  x,y,z
_cell_length_a	17.639617
_cell_length_b	10.685383
_cell_length_c	10.686551
_cell_angle_alpha	81.583047
_cell_angle_beta	104.616867
_cell_angle_gamma	75.429920
loop_
_atom_site_label
_atom_site_type_symbol
_atom_site_fract_x
_atom_site_fract_y
_atom_site_fract_z
Zn1	Zn	1.261997	0.009537	1.120766
Zn2	Zn	1.239172	0.246120	0.884227
Zn3	Zn	1.113826	0.077634	0.856648
Zn4	Zn	1.113824	0.273506	1.052548
O5	O	1.182205	0.151699	0.978547
O6	O	1.373438	0.000960	1.129481
O7	O	1.212992	0.240808	0.699592
O8	O	1.143035	-0.112383	0.908691
O9	O	1.356668	0.174776	0.955697
O10	O	1.251896	-0.162413	1.102738
O11	O	1.120902	0.117022	0.679329
O12	O	0.999358	0.143578	0.842542
O13	O	1.143031	0.221452	1.242574
O14	O	0.999356	0.287484	0.986469
O15	O	1.251893	0.027515	1.292694
O16	O	1.212990	0.430736	0.889548
O17	O	1.120898	0.450857	1.013212
C18	C	0.969676	0.225893	0.904111
C19	C	0.878756	0.257661	0.872295
C20	C	0.623351	-0.089700	1.220576
C21	C	0.537914	-0.059814	1.190650
C22	C	0.520476	0.120929	1.009476
C23	C	0.605913	0.091062	1.039390
C24	C	0.657344	-0.014255	1.144941
C25	C	0.639906	0.166507	0.963756
C26	C	0.725335	0.136638	0.993664
C27	C	0.776772	0.031323	1.099207
C28	C	0.742774	-0.044124	1.174849
C29	C	0.588473	0.271818	0.858200
C30	C	0.622466	0.347263	0.782565
C31	C	0.707897	0.317400	0.812479
C32	C	0.759333	0.212085	0.918022
C33	C	0.741895	0.392848	0.736837
C34	C	0.827325	0.362978	0.766745
C35	C	0.844763	0.182216	0.947930
C36	C	1.164491	0.487713	0.947006
C37	C	1.156990	0.631431	0.933582
C38	C	1.395563	0.077217	1.053275
C39	C	1.486483	0.045477	1.085119
C40	C	1.200008	0.119943	1.315872
C41	C	1.207595	0.106410	1.459619
C42	C	1.199980	0.814375	1.010226
C43	C	1.207475	0.670657	1.023669
C44	C	1.164523	0.183223	0.642560
C45	C	1.157113	0.196336	0.498903
H46	H	0.886642	0.096461	1.033883
F47	F	0.863505	0.443284	0.686254
F48	F	1.093037	0.310506	1.399126
F49	F	0.797516	-0.156206	1.287197
F50	F	1.271477	0.570836	1.137920
F51	F	0.497550	0.303599	0.826365
F52	F	1.271682	-0.007757	1.559406
F53	F	0.867695	-0.000475	1.131030
F54	F	0.501741	-0.140127	1.271154
F55	F	0.465731	0.233008	0.897142
F56	F	0.678093	-0.201782	1.332924
F57	F	1.092984	0.731248	0.819348
H58	H	0.580579	0.433008	0.696623
H59	H	0.700007	0.478588	0.650890
