data_functionalizedCrystal
_audit_creation_method	'MofGen! by Chris Wilmer'
_symmetry_space_group_name_H-M	'P1'
_symmetry_Int_Tables_number	1
_symmetry_cell_setting	triclinic
loop_
_symmetry_equiv_pos_as_xyz
  x,y,z
_cell_length_a	10.489741
_cell_length_b	10.489741
_cell_length_c	9.565339
_cell_angle_alpha	89.999484
_cell_angle_beta	89.999100
_cell_angle_gamma	95.460826
loop_
_atom_site_label
_atom_site_type_symbol
_atom_site_fract_x
_atom_site_fract_y
_atom_site_fract_z
O1	O	1.694053	-0.179959	-0.116173
O2	O	1.322857	-0.196852	-0.116194
O3	O	1.516901	-0.002807	-0.116175
O4	O	1.500009	-0.374003	-0.116192
O5	O	1.516886	-0.002819	0.116345
O6	O	1.322842	-0.196864	0.116326
O7	O	1.694038	-0.179971	0.116347
Zn8	Zn	1.508437	-0.188419	0.153254
Zn9	Zn	1.508458	-0.188403	-0.153101
O10	O	1.499993	-0.374015	0.116328
C11	C	1.275318	-0.195582	0.000063
C12	C	1.133688	-0.191765	0.000055
C13	C	1.065548	-0.068300	0.000074
C14	C	0.973429	-0.126617	-0.114571
C15	C	0.973448	-0.126659	0.114676
C16	C	1.043435	-0.250133	-0.114684
C17	C	1.043463	-0.250157	0.114665
C18	C	0.951371	-0.308564	-0.000007
C19	C	1.515618	0.044718	0.000084
C20	C	1.511801	0.186348	0.000082
C21	C	1.741577	-0.181241	0.000087
C22	C	1.883206	-0.185058	0.000086
C23	C	1.501277	-0.421541	0.000066
C24	C	1.505094	-0.563170	0.000059
N25	N	1.508433	-0.188429	0.362334
C26	C	1.388336	0.254488	0.000064
C27	C	1.446652	0.346604	0.114712
C28	C	1.446696	0.346591	-0.114534
C29	C	1.570168	0.276599	0.114824
C30	C	1.570195	0.276576	-0.114525
C31	C	1.628600	0.368665	0.000150
N32	N	1.508472	-0.188383	-0.362180
C33	C	1.418666	-0.278138	0.453528
C34	C	1.534163	-0.303949	0.546712
C35	C	1.392986	-0.162629	0.546704
C36	C	1.623988	-0.214298	0.453466
C37	C	1.482735	-0.072928	0.453451
C38	C	1.598314	-0.098690	0.546593
H39	H	0.942421	-0.074372	-0.211491
H40	H	0.942463	-0.074401	0.211599
O41	O	1.639349	0.235526	-0.242942
H42	H	1.738478	0.283146	-0.243789
H43	H	1.394405	0.377611	0.211633
H44	H	1.730204	0.418089	0.000220
H45	H	1.394447	0.377560	-0.211470
H46	H	1.342823	-0.354073	0.412665
H47	H	1.622356	0.245762	0.211859
O48	O	1.131288	0.066175	-0.000083
H49	H	1.236643	0.062192	0.000888
H50	H	1.555926	-0.401606	0.587676
O51	O	1.753367	-0.243340	0.399464
H52	H	1.752318	-0.243183	0.283432
O53	O	1.698991	0.001828	0.600411
H54	H	1.794687	-0.019880	0.562869
H55	H	1.460936	0.024699	0.412454
O56	O	1.084613	-0.319300	0.243044
H57	H	1.056894	-0.267858	0.338081
O58	O	1.263648	-0.133736	0.600965
H59	H	1.198932	-0.120264	0.511466
O60	O	1.084288	-0.319227	-0.243239
H61	H	1.132980	-0.403987	-0.211162
O62	O	0.885915	-0.443153	-0.000080
H63	H	0.824579	-0.457411	-0.094398
O64	O	1.253881	0.188700	0.000199
H65	H	1.202933	0.216567	0.095511
