data_functionalizedCrystal
_audit_creation_method	'MofGen! by Chris Wilmer'
_symmetry_space_group_name_H-M	'P1'
_symmetry_Int_Tables_number	1
_symmetry_cell_setting	triclinic
loop_
_symmetry_equiv_pos_as_xyz
  x,y,z
_cell_length_a	16.959455
_cell_length_b	29.839131
_cell_length_c	16.959447
_cell_angle_alpha	90.041568
_cell_angle_beta	90.014322
_cell_angle_gamma	90.032176
loop_
_atom_site_label
_atom_site_type_symbol
_atom_site_fract_x
_atom_site_fract_y
_atom_site_fract_z
Zn1	Zn	1.208301	-0.178881	0.446847
Zn2	Zn	1.208188	-0.254014	0.314642
Zn3	Zn	1.076129	-0.178895	0.314684
Zn4	Zn	1.076059	-0.253981	0.446781
O5	O	1.142169	-0.216443	0.380739
O6	O	1.318896	-0.188856	0.429320
O7	O	1.190652	-0.244070	0.204037
O8	O	1.093738	-0.116026	0.332261
O9	O	1.318814	-0.244056	0.332190
O10	O	1.190844	-0.116016	0.429360
O11	O	1.093629	-0.188880	0.204068
O12	O	0.965509	-0.188847	0.332197
O13	O	1.093618	-0.243999	0.557401
O14	O	0.965457	-0.244012	0.429248
O15	O	1.190776	-0.188823	0.557449
O16	O	1.190584	-0.316877	0.332126
O17	O	1.093509	-0.316852	0.429207
C18	C	0.936803	-0.216428	0.380721
C19	C	0.848946	-0.216433	0.380732
C20	C	1.142048	-0.333165	0.380672
C21	C	1.142069	-0.383100	0.380670
C22	C	0.477473	-0.187695	0.330310
C23	C	0.477468	-0.245228	0.431213
C24	C	0.560014	-0.245221	0.431208
C25	C	0.601293	-0.216452	0.380752
C26	C	0.560027	-0.187688	0.330302
C27	C	0.601287	-0.273987	0.481652
C28	C	0.683838	-0.273982	0.481648
C29	C	0.725118	-0.245210	0.431196
C30	C	0.683847	-0.216445	0.380744
C31	C	0.725126	-0.187676	0.330289
C32	C	0.683856	-0.158908	0.279840
C33	C	0.601307	-0.158916	0.279850
C34	C	0.807667	-0.245202	0.431187
C35	C	0.807680	-0.187669	0.330281
C36	C	1.192721	-0.692703	0.431370
C37	C	1.192807	-0.880376	0.431418
O38	O	1.235755	-0.904607	0.474476
N39	N	1.142303	-0.903885	0.380826
C40	C	1.091771	-0.880473	0.330223
O41	O	1.048811	-0.904775	0.287199
C42	C	1.091682	-0.692800	0.330180
C43	C	1.142194	-0.669294	0.380769
C44	C	1.243229	-0.669196	0.481956
C45	C	1.243210	-0.622281	0.481940
C46	C	1.192683	-0.598872	0.431339
C47	C	1.142175	-0.622379	0.380754
C48	C	1.041146	-0.669389	0.279582
C49	C	1.041127	-0.622468	0.279577
C50	C	1.091639	-0.598962	0.330166
C51	C	1.091630	-0.552054	0.330137
N52	N	1.142133	-0.528545	0.380729
C53	C	1.192660	-0.551954	0.431330
C54	C	1.091823	-0.979003	0.330248
C55	C	1.091846	-1.025921	0.330258
C56	C	1.192881	-1.025821	0.431454
C57	C	1.192861	-0.978902	0.431439
C58	C	1.142326	-0.955494	0.380840
C59	C	1.192617	-0.453428	0.431293
C60	C	1.192596	-0.406509	0.431271
C61	C	1.091558	-0.406613	0.330078
C62	C	1.091582	-0.453528	0.330097
C63	C	1.142114	-0.476935	0.380711
O64	O	1.048698	-0.527795	0.287109
O65	O	1.235601	-0.527644	0.474360
C66	C	1.192740	-0.739618	0.431386
C67	C	1.142232	-0.763125	0.380800
C68	C	1.091705	-0.739716	0.330199
C69	C	1.142255	-0.810043	0.380810
C70	C	1.192782	-0.833452	0.431411
C71	C	1.243286	-0.809943	0.482002
C72	C	1.243267	-0.763027	0.481987
C73	C	1.041202	-0.763225	0.279608
C74	C	1.041226	-0.810140	0.279627
C75	C	1.091752	-0.833549	0.330228
C76	C	1.348337	-0.216458	0.380757
C77	C	1.436194	-0.216465	0.380765
C78	C	1.142202	-0.216406	0.586907
C79	C	1.142216	-0.216390	0.674764
C80	C	1.142312	-0.099264	0.380823
C81	C	1.142372	-0.049330	0.380859
C82	C	1.142182	-0.216447	0.175372
C83	C	1.142321	-0.216337	0.087516
C84	C	1.091725	-0.245070	1.046217
C85	C	1.192896	-0.187615	1.046262
C86	C	1.192875	-0.187625	0.963716
C87	C	1.142279	-0.216358	0.922417
C88	C	1.091704	-0.245081	0.963663
C89	C	1.243455	-0.158905	0.922464
C90	C	1.243436	-0.158914	0.839913
C91	C	1.192836	-0.187645	0.798612
C92	C	1.142258	-0.216369	0.839863
C93	C	1.091662	-0.245102	0.798564
C94	C	1.041080	-0.273824	0.839814
C95	C	1.041103	-0.273812	0.922362
C96	C	1.192812	-0.187657	0.716063
C97	C	1.091641	-0.245113	0.716010
H98	H	0.841283	-0.164238	0.289198
H99	H	1.234093	-0.164225	1.079893
H100	H	1.284652	-0.135515	0.956096
C101	C	0.729274	-0.127261	0.224344
N102	N	0.763486	-0.103424	0.182548
C103	C	1.035979	-0.276722	0.670587
N104	N	0.994054	-0.300529	0.636375
C105	C	1.036284	-1.051773	0.274600
N106	N	0.994429	-1.071243	0.232680
C107	C	0.853060	-0.276844	0.486677
N108	N	0.887250	-0.300678	0.528477
H109	H	0.717433	-0.297406	0.522727
H110	H	1.000014	-0.688520	0.238386
C111	C	1.299069	-0.127314	0.794545
N112	N	1.340968	-0.103511	0.760374
H113	H	1.050670	-0.959948	0.289042
C114	C	0.555904	-0.127277	0.224358
N115	N	0.521703	-0.103447	0.182560
C116	C	0.985653	-0.835992	0.223971
N117	N	0.943792	-0.855462	0.182058
C118	C	0.985534	-0.596722	0.223910
N119	N	0.943663	-0.577331	0.181981
C120	C	1.248168	-0.380654	0.486923
N121	N	1.290024	-0.361183	0.528839
H122	H	0.999888	-0.297221	0.806177
H123	H	1.050457	-0.472668	0.288897
H124	H	0.999925	-0.297198	0.955955
C125	C	1.035978	-0.380854	0.274423
N126	N	0.994110	-0.361451	0.232508
C127	C	0.432058	-0.276874	0.486709
N128	N	0.397852	-0.300710	0.528512
H129	H	1.233997	-0.164273	0.682481
H130	H	0.567671	-0.297413	0.522724
C131	C	0.432076	-0.156052	0.274820
N132	N	0.397882	-0.132218	0.233023
C133	C	1.298781	-0.596430	0.537590
N134	N	1.340641	-0.576962	0.579508
C135	C	1.248210	-0.479169	0.486966
N136	N	1.290088	-0.498556	0.528893
H137	H	1.050540	-0.268453	1.079806
H138	H	1.284374	-0.688251	0.523166
C139	C	1.248425	-0.953050	0.487094
N140	N	1.290277	-0.933580	0.529017
H141	H	1.234022	-1.044889	0.472654
H142	H	1.284429	-0.829010	0.523200
C143	C	1.298836	-0.737176	0.537638
N144	N	1.340694	-0.717708	0.579558
H145	H	1.000056	-0.744169	0.238403
