data_functionalizedCrystal
_audit_creation_method	'MofGen! by Chris Wilmer'
_symmetry_space_group_name_H-M	'P1'
_symmetry_Int_Tables_number	1
_symmetry_cell_setting	triclinic
loop_
_symmetry_equiv_pos_as_xyz
  x,y,z
_cell_length_a	16.109301
_cell_length_b	27.731996
_cell_length_c	26.809956
_cell_angle_alpha	90.025346
_cell_angle_beta	90.018047
_cell_angle_gamma	83.041486
loop_
_atom_site_label
_atom_site_type_symbol
_atom_site_fract_x
_atom_site_fract_y
_atom_site_fract_z
O1	O	1.102360	0.062142	0.041459
O2	O	1.435693	0.395475	0.374792
O3	O	1.769026	0.728808	0.708126
O4	O	0.860200	0.069874	0.041467
O5	O	1.193533	0.403207	0.374800
O6	O	1.526866	0.736540	0.708133
O7	O	0.988823	-0.004359	0.041452
O8	O	1.322157	0.328974	0.374785
O9	O	1.655490	0.662307	0.708118
O10	O	0.973736	0.136375	0.041474
O11	O	1.307069	0.469708	0.374807
O12	O	1.640403	0.803041	0.708140
O13	O	0.988778	-0.004380	-0.041508
O14	O	1.322111	0.328954	0.291826
O15	O	1.655444	0.662287	0.625159
O16	O	0.860154	0.069853	-0.041493
O17	O	1.193487	0.403187	0.291841
O18	O	1.526821	0.736520	0.625174
O19	O	1.102314	0.062121	-0.041500
O20	O	1.435648	0.395455	0.291833
O21	O	1.768981	0.728788	0.625166
Zn22	Zn	0.981227	0.065984	-0.054668
Zn23	Zn	1.314560	0.399318	0.278665
Zn24	Zn	1.647894	0.732651	0.611999
Zn25	Zn	0.981287	0.066011	0.054634
Zn26	Zn	1.314620	0.399344	0.387968
Zn27	Zn	1.647954	0.732678	0.721301
O28	O	0.973691	0.136354	-0.041485
O29	O	1.307024	0.469688	0.291848
O30	O	1.640357	0.803021	0.625181
C31	C	0.829206	0.069550	-0.000012
C32	C	1.162539	0.402884	0.333321
C33	C	1.495873	0.736217	0.666655
C34	C	0.736923	0.068611	-0.000010
C35	C	1.070256	0.401945	0.333324
C36	C	1.403589	0.735278	0.666657
C37	C	0.427404	0.109590	-0.000012
C38	C	0.760737	0.442923	0.333321
C39	C	1.094070	0.776257	0.666655
C40	C	0.514113	0.110477	-0.000009
C41	C	0.847446	0.443810	0.333325
C42	C	1.180779	0.777143	0.666658
C43	C	0.535105	0.022402	-0.000016
C44	C	0.868438	0.355735	0.333317
C45	C	1.201771	0.689068	0.666651
C46	C	0.448397	0.021515	-0.000015
C47	C	0.781731	0.354849	0.333318
C48	C	1.115064	0.688182	0.666651
C49	C	0.394549	0.065111	-0.000016
C50	C	0.727882	0.398444	0.333317
C51	C	1.061215	0.731778	0.666651
C52	C	0.567965	0.066884	-0.000013
C53	C	0.901298	0.400218	0.333320
C54	C	1.234632	0.733551	0.666653
C55	C	0.661979	0.067845	-0.000010
C56	C	0.995312	0.401179	0.333323
C57	C	1.328646	0.734512	0.666657
C58	C	0.300529	0.064150	-0.000018
C59	C	0.633862	0.397483	0.333315
C60	C	0.967195	0.730817	0.666648
C61	C	0.988490	-0.022378	-0.000030
C62	C	1.321824	0.310955	0.333304
C63	C	1.655157	0.644289	0.666637
C64	C	0.987557	-0.076038	-0.000035
C65	C	1.320890	0.257295	0.333299
C66	C	1.654224	0.590628	0.666632
C67	C	0.981709	-0.408768	0.045211
C68	C	1.315042	-0.075435	0.378544
C69	C	1.648375	0.257899	0.711878
C70	C	0.978164	-0.610441	0.045220
C71	C	1.311497	-0.277108	0.378553
C72	C	1.644830	0.056226	0.711887
O73	O	0.977691	-0.636504	0.083679
O74	O	1.311024	-0.303171	0.417012
O75	O	1.644358	0.030162	0.750346
N76	N	0.977699	-0.635671	-0.000001
N77	N	1.311032	-0.302338	0.333333
N78	N	1.644365	0.030996	0.666666
C79	C	0.978114	-0.610479	-0.045227
C80	C	1.311448	-0.277146	0.288106
C81	C	1.644781	0.056187	0.621440
O82	O	0.977629	-0.636566	-0.083690
O83	O	1.310962	-0.303233	0.249644
O84	O	1.644295	0.030101	0.582977
C85	C	0.981653	-0.408807	-0.045235
C86	C	1.314987	-0.075473	0.288098
C87	C	1.648320	0.257860	0.621431
C88	C	0.982127	-0.383580	-0.000012
C89	C	1.315460	-0.050247	0.333322
C90	C	1.648793	0.283087	0.666655
C91	C	0.982181	-0.383541	0.090431
C92	C	1.315515	-0.050208	0.423764
C93	C	1.648848	0.283126	0.757098
C94	C	0.983072	-0.333126	0.090428
C95	C	1.316405	0.000207	0.423762
C96	C	1.649739	0.333541	0.757095
C97	C	0.983490	-0.307938	0.045206
C98	C	1.316823	0.025395	0.378539
C99	C	1.650157	0.358728	0.711872
C100	C	0.983017	-0.333165	-0.000014
C101	C	1.316351	0.000168	0.333319
C102	C	1.649684	0.333502	0.666652
C103	C	0.982063	-0.383616	-0.090461
C104	C	1.315396	-0.050282	0.242873
C105	C	1.648730	0.283051	0.576206
C106	C	0.982946	-0.333194	-0.090459
C107	C	1.316279	0.000139	0.242874
C108	C	1.649612	0.333473	0.576208
C109	C	0.983419	-0.307967	-0.045235
C110	C	1.316752	0.025366	0.288098
C111	C	1.650086	0.358699	0.621431
C112	C	0.984326	-0.257562	-0.045240
C113	C	1.317660	0.075771	0.288094
C114	C	1.650993	0.409104	0.621427
N115	N	0.984791	-0.232332	-0.000019
N116	N	1.318125	0.101001	0.333314
N117	N	1.651458	0.434334	0.666648
C118	C	0.984373	-0.257520	0.045204
C119	C	1.317707	0.075813	0.378537
C120	C	1.651040	0.409147	0.711870
C121	C	0.976258	-0.716361	-0.045219
C122	C	1.309591	-0.383027	0.288114
C123	C	1.642925	-0.049694	0.621447
C124	C	0.975375	-0.766779	-0.045217
C125	C	1.308708	-0.433445	0.288116
C126	C	1.642042	-0.100112	0.621449
C127	C	0.975423	-0.766737	0.045230
C128	C	1.308756	-0.433403	0.378563
C129	C	1.642089	-0.100070	0.711896
C130	C	0.976312	-0.716318	0.045227
C131	C	1.309645	-0.382985	0.378560
C132	C	1.642979	-0.049651	0.711894
C133	C	0.976723	-0.691130	0.000001
C134	C	1.310057	-0.357797	0.333335
C135	C	1.643390	-0.024464	0.666668
C136	C	0.986245	-0.151645	0.045195
C137	C	1.319578	0.181688	0.378528
C138	C	1.652911	0.515021	0.711861
C139	C	0.987139	-0.101226	0.045188
C140	C	1.320472	0.232107	0.378521
C141	C	1.653806	0.565440	0.711855
C142	C	0.987086	-0.101272	-0.045259
C143	C	1.320420	0.232061	0.288075
C144	C	1.653753	0.565394	0.621408
C145	C	0.986197	-0.151687	-0.045252
C146	C	1.319530	0.181646	0.288081
C147	C	1.652863	0.514979	0.621414
C148	C	0.985773	-0.176872	-0.000022
C149	C	1.319106	0.156461	0.333312
C150	C	1.652440	0.489794	0.666645
O151	O	0.984790	-0.231467	-0.083678
O152	O	1.318124	0.101866	0.249655
O153	O	1.651457	0.435200	0.582988
O154	O	0.984840	-0.231423	0.083661
O155	O	1.318174	0.101910	0.416994
O156	O	1.651507	0.435243	0.750327
C157	C	0.980818	-0.459183	0.045214
C158	C	1.314151	-0.125850	0.378547
C159	C	1.647485	0.207484	0.711880
C160	C	0.980345	-0.484410	-0.000006
C161	C	1.313679	-0.151076	0.333327
C162	C	1.647012	0.182257	0.666660
C163	C	0.980763	-0.459222	-0.045229
C164	C	1.314097	-0.125888	0.288105
C165	C	1.647430	0.207445	0.621438
C166	C	0.979462	-0.534828	-0.000004
C167	C	1.312795	-0.201495	0.333329
C168	C	1.646129	0.131839	0.666662
C169	C	0.979044	-0.560016	0.045218
C170	C	1.312377	-0.226682	0.378552
C171	C	1.645711	0.106651	0.711885
C172	C	0.979509	-0.534786	0.090439
C173	C	1.312842	-0.201452	0.423772
C174	C	1.646176	0.131881	0.757106
C175	C	0.980400	-0.484371	0.090436
C176	C	1.313733	-0.151038	0.423770
C177	C	1.647067	0.182296	0.757103
C178	C	0.980298	-0.484452	-0.090449
C179	C	1.313632	-0.151119	0.242884
C180	C	1.646965	0.182215	0.576217
C181	C	0.979409	-0.534867	-0.090443
C182	C	1.312742	-0.201534	0.242890
C183	C	1.646075	0.131800	0.576224
C184	C	0.978990	-0.560055	-0.045221
C185	C	1.312324	-0.226722	0.288113
C186	C	1.645657	0.106612	0.621446
C187	C	1.133308	0.062445	-0.000021
C188	C	1.466641	0.395778	0.333313
C189	C	1.799975	0.729111	0.666646
C190	C	1.225591	0.063384	-0.000020
C191	C	1.558925	0.396717	0.333314
C192	C	1.892258	0.730051	0.666647
C193	C	0.974023	0.154373	-0.000003
C194	C	1.307357	0.487707	0.333330
C195	C	1.640690	0.821040	0.666664
C196	C	0.974957	0.208033	0.000005
C197	C	1.308290	0.541367	0.333339
C198	C	1.641623	0.874700	0.666672
N199	N	0.981192	0.065966	-0.129264
N200	N	1.314525	0.399299	0.204069
N201	N	1.647859	0.732632	0.537403
C202	C	0.931237	0.036661	-0.526160
C203	C	1.264570	0.369995	-0.192827
C204	C	1.597903	0.703328	0.140506
C205	C	0.931198	0.036648	-0.317283
C206	C	1.264531	0.369981	0.016051
C207	C	1.597864	0.703315	0.349384
O208	O	0.888668	0.011691	-0.290293
O209	O	1.222001	0.345025	0.043040
O210	O	1.555335	0.678358	0.376374
N211	N	0.981225	0.065973	-0.291143
N212	N	1.314559	0.399307	0.042191
N213	N	1.647892	0.732640	0.375524
C214	C	1.031271	0.095301	-0.317225
C215	C	1.364604	0.428635	0.016108
C216	C	1.697937	0.761968	0.349441
O217	O	1.073828	0.120240	-0.290199
O218	O	1.407161	0.453574	0.043135
O219	O	1.740495	0.786907	0.376468
C220	C	1.031314	0.095312	-0.526102
C221	C	1.364647	0.428645	-0.192769
C222	C	1.697981	0.761979	0.140565
C223	C	0.981276	0.065989	-0.552239
C224	C	1.314610	0.399322	-0.218906
C225	C	1.647943	0.732655	0.114427
C226	C	0.881204	0.007340	-0.552298
C227	C	1.214537	0.340673	-0.218964
C228	C	1.547871	0.674007	0.114369
C229	C	0.881211	0.007346	-0.604514
C230	C	1.214544	0.340679	-0.271181
C231	C	1.547878	0.674012	0.062153
C232	C	0.931251	0.036673	-0.630593
C233	C	1.264584	0.370006	-0.297260
C234	C	1.597917	0.703339	0.036074
C235	C	0.981283	0.065994	-0.604456
C236	C	1.314617	0.399327	-0.271122
C237	C	1.647950	0.732661	0.062211
C238	C	1.081363	0.124637	-0.552184
C239	C	1.414697	0.457971	-0.218850
C240	C	1.748030	0.791304	0.114483
C241	C	1.081371	0.124636	-0.604406
C242	C	1.414705	0.457970	-0.271073
C243	C	1.748038	0.791303	0.062261
C244	C	1.031334	0.095313	-0.630543
C245	C	1.364667	0.428646	-0.297210
C246	C	1.698000	0.761980	0.036123
C247	C	1.031330	0.095327	-0.682751
C248	C	1.364663	0.428660	-0.349417
C249	C	1.697997	0.761993	-0.016084
N250	N	0.981302	0.066002	-0.708891
N251	N	1.314635	0.399335	-0.375557
N252	N	1.647969	0.732668	-0.042224
C253	C	0.931262	0.036675	-0.682812
C254	C	1.264596	0.370008	-0.349479
C255	C	1.597929	0.703341	-0.016145
C256	C	1.031243	0.095295	-0.207562
C257	C	1.364577	0.428628	0.125771
C258	C	1.697910	0.761961	0.459105
C259	C	1.031232	0.095293	-0.155343
C260	C	1.364565	0.428626	0.177990
C261	C	1.697898	0.761959	0.511324
C262	C	0.931159	0.036638	-0.155404
C263	C	1.264493	0.369972	0.177929
C264	C	1.597826	0.703305	0.511263
C265	C	0.931167	0.036643	-0.207624
C266	C	1.264501	0.369977	0.125709
C267	C	1.597834	0.703310	0.459043
C268	C	0.981215	0.065969	-0.233702
C269	C	1.314549	0.399303	0.099631
C270	C	1.647882	0.732636	0.432965
C271	C	0.931280	0.036689	-0.792470
C272	C	1.264613	0.370022	-0.459136
C273	C	1.597947	0.703356	-0.125803
C274	C	0.931289	0.036699	-0.844691
C275	C	1.264622	0.370032	-0.511357
C276	C	1.597955	0.703365	-0.178024
C277	C	1.031364	0.095351	-0.844625
C278	C	1.364697	0.428684	-0.511292
C279	C	1.698031	0.762017	-0.177958
C280	C	1.031352	0.095343	-0.792409
C281	C	1.364686	0.428677	-0.459075
C282	C	1.698019	0.762010	-0.125742
C283	C	0.981308	0.066008	-0.766332
C284	C	1.314641	0.399342	-0.432999
C285	C	1.647975	0.732675	-0.099666
O286	O	1.073844	0.120266	-0.709773
O287	O	1.407177	0.453600	-0.376439
O288	O	1.740511	0.786933	-0.043106
O289	O	0.888725	0.011732	-0.709847
O290	O	1.222059	0.345065	-0.376514
O291	O	1.555392	0.678398	-0.043181
C292	C	0.931230	0.036656	-0.473944
C293	C	1.264563	0.369989	-0.140611
C294	C	1.597897	0.703323	0.192723
C295	C	0.981263	0.065977	-0.447807
C296	C	1.314596	0.399311	-0.114473
C297	C	1.647929	0.732644	0.218860
C298	C	1.031302	0.095304	-0.473886
C299	C	1.364636	0.428638	-0.140552
C300	C	1.697969	0.761971	0.192781
C301	C	0.981251	0.065975	-0.395588
C302	C	1.314584	0.399309	-0.062254
C303	C	1.647918	0.732642	0.271079
C304	C	0.931211	0.036648	-0.369509
C305	C	1.264545	0.369982	-0.036175
C306	C	1.597878	0.703315	0.297158
C307	C	0.881183	0.007323	-0.395649
C308	C	1.214517	0.340657	-0.062315
C309	C	1.547850	0.673990	0.271018
C310	C	0.881190	0.007329	-0.447865
C311	C	1.214524	0.340662	-0.114532
C312	C	1.547857	0.673995	0.218802
C313	C	1.081330	0.124629	-0.447746
C314	C	1.414663	0.457963	-0.114412
C315	C	1.747997	0.791296	0.218921
C316	C	1.081318	0.124622	-0.395529
C317	C	1.414652	0.457955	-0.062196
C318	C	1.747985	0.791288	0.271137
C319	C	1.031279	0.095295	-0.369450
C320	C	1.364612	0.428628	-0.036117
C321	C	1.697945	0.761961	0.297216
N322	N	0.981328	0.066026	0.129230
N323	N	1.314662	0.399359	0.462564
N324	N	1.647995	0.732692	0.795897
H325	H	0.987526	-0.080689	0.082016
H326	H	1.320860	0.252644	0.415349
H327	H	1.654193	0.585978	0.748683
H328	H	1.072103	0.119229	-0.865868
H329	H	1.405436	0.452563	-0.532535
H330	H	1.738770	0.785896	-0.199201
C331	C	0.594346	-0.025551	-0.000024
C332	C	0.927679	0.307783	0.333309
C333	C	1.261012	0.641116	0.666643
N334	N	0.638965	-0.061669	-0.000034
N335	N	0.972299	0.271664	0.333300
N336	N	1.305632	0.604997	0.666633
C337	C	0.987538	-0.073555	-0.095001
C338	C	1.320872	0.259778	0.238332
C339	C	1.654205	0.593111	0.571666
N340	N	0.987870	-0.052677	-0.132468
N341	N	1.321203	0.280657	0.200866
N342	N	1.654536	0.613990	0.534199
H343	H	0.890529	0.012802	-0.771245
H344	H	1.223862	0.346135	-0.437911
H345	H	1.557196	0.679469	-0.104578
C346	C	0.983401	-0.305491	-0.140212
C347	C	1.316735	0.027842	0.193121
C348	C	1.650068	0.361176	0.526454
N349	N	0.983748	-0.284626	-0.177686
N350	N	1.317081	0.048707	0.155647
N351	N	1.650414	0.382040	0.488980
C352	C	0.974956	-0.794452	0.094975
C353	C	1.308289	-0.461119	0.428308
C354	C	1.641623	-0.127786	0.761642
N355	N	0.974597	-0.815329	0.132441
N356	N	1.307931	-0.481996	0.465774
N357	N	1.641264	-0.148663	0.799108
C358	C	1.086270	0.127554	-0.126598
C359	C	1.419604	0.460888	0.206736
C360	C	1.752937	0.794221	0.540069
N361	N	1.127732	0.151852	-0.104949
N362	N	1.461065	0.485186	0.228385
N363	N	1.794399	0.818519	0.561718
C364	C	0.826147	-0.024931	-0.476609
C365	C	1.159480	0.308402	-0.143276
C366	C	1.492814	0.641736	0.190057
N367	N	0.784687	-0.049231	-0.498256
N368	N	1.118020	0.284102	-0.164923
N369	N	1.451353	0.617435	0.168410
H370	H	0.421648	-0.014707	-0.000017
H371	H	0.754981	0.318627	0.333316
H372	H	1.088314	0.651960	0.666650
H373	H	0.981679	-0.404147	-0.127287
H374	H	1.315012	-0.070813	0.206047
H375	H	1.648345	0.262520	0.539380
H376	H	0.985819	-0.172229	-0.082077
H377	H	1.319152	0.161105	0.251256
H378	H	1.652485	0.494438	0.584590
H379	H	0.890539	0.012820	-0.865969
H380	H	1.223872	0.346153	-0.532636
H381	H	1.557205	0.679487	-0.199303
C382	C	0.980915	-0.456628	0.140186
C383	C	1.314248	-0.123294	0.473520
C384	C	1.647582	0.210039	0.806853
N385	N	0.981300	-0.435734	0.177661
N386	N	1.314634	-0.102401	0.510994
N387	N	1.647967	0.230933	0.844327
C388	C	0.985793	-0.179343	0.094951
C389	C	1.319126	0.153991	0.428284
C390	C	1.652460	0.487324	0.761617
N391	N	0.985462	-0.200205	0.132427
N392	N	1.318795	0.133129	0.465760
N393	N	1.652129	0.466462	0.799094
C394	C	0.978886	-0.562611	-0.140196
C395	C	1.312219	-0.229277	0.193137
C396	C	1.645553	0.104056	0.526470
N397	N	0.978483	-0.583505	-0.177669
N398	N	1.311817	-0.250171	0.155664
N399	N	1.645150	0.083162	0.488997
H400	H	0.980640	-0.463949	-0.127276
H401	H	1.313973	-0.130616	0.206057
H402	H	1.647307	0.202718	0.539391
H403	H	1.122129	0.148517	-0.625636
H404	H	1.455462	0.481850	-0.292303
H405	H	1.788795	0.815184	0.041031
H406	H	0.983454	-0.312591	0.127254
H407	H	1.316788	0.020743	0.460587
H408	H	1.650121	0.354076	0.793921
H409	H	1.122063	0.148505	-0.374253
H410	H	1.455396	0.481839	-0.040919
H411	H	1.788730	0.815172	0.292414
H412	H	0.981838	-0.404044	0.127259
H413	H	1.315171	-0.070710	0.460592
H414	H	1.648504	0.262623	0.793925
C415	C	0.826169	-0.024915	-0.633258
C416	C	1.159502	0.308419	-0.299925
C417	C	1.492835	0.641752	0.033409
N418	N	0.784710	-0.049216	-0.654905
N419	N	1.118043	0.284117	-0.321572
N420	N	1.451376	0.617451	0.011762
H421	H	1.072001	0.119177	-0.228790
H422	H	1.405334	0.452510	0.104543
H423	H	1.738667	0.785844	0.437877
C424	C	0.976716	-0.688661	-0.094975
C425	C	1.310049	-0.355328	0.238359
C426	C	1.643383	-0.021994	0.571692
N427	N	0.977065	-0.667800	-0.132451
N428	N	1.310398	-0.334467	0.200883
N429	N	1.643731	-0.001133	0.534216
C430	C	0.976825	-0.688573	0.094976
C431	C	1.310159	-0.355239	0.428309
C432	C	1.643492	-0.021906	0.761643
N433	N	0.977209	-0.667677	0.132449
N434	N	1.310542	-0.334344	0.465783
N435	N	1.643876	-0.001011	0.799116
H436	H	1.122111	0.148515	-0.530912
H437	H	1.455444	0.481848	-0.197578
H438	H	1.788778	0.815181	0.135755
H439	H	0.979172	-0.555303	0.127261
H440	H	1.312506	-0.221970	0.460594
H441	H	1.645839	0.111364	0.793928
C442	C	0.550248	0.159407	-0.000008
C443	C	0.883582	0.492741	0.333325
C444	C	1.216915	0.826074	0.666658
N445	N	0.577465	0.196264	-0.000009
N446	N	0.910798	0.529597	0.333325
N447	N	1.244132	0.862930	0.666658
C448	C	0.826198	-0.024970	-0.366952
C449	C	1.159531	0.308363	-0.033619
C450	C	1.492864	0.641696	0.299715
N451	N	0.784810	-0.049306	-0.345335
N452	N	1.118143	0.284027	-0.012001
N453	N	1.451477	0.617360	0.321332
C454	C	0.974862	-0.794523	-0.094967
C455	C	1.308196	-0.461190	0.238367
C456	C	1.641529	-0.127856	0.571700
N457	N	0.974470	-0.815418	-0.132440
N458	N	1.307803	-0.482085	0.200893
N459	N	1.641137	-0.148751	0.534227
C460	C	0.876128	0.004383	-0.236370
C461	C	1.209461	0.337716	0.096963
C462	C	1.542794	0.671049	0.430297
N463	N	0.834671	-0.019918	-0.258019
N464	N	1.168005	0.313415	0.075314
N465	N	1.501338	0.646748	0.408648
H466	H	0.840456	-0.016544	-0.531070
H467	H	1.173789	0.316789	-0.197736
H468	H	1.507122	0.650123	0.135597
C469	C	1.136359	0.156906	-0.476425
C470	C	1.469692	0.490239	-0.143092
C471	C	1.803025	0.823573	0.190241
N472	N	1.177799	0.181225	-0.498025
N473	N	1.511132	0.514559	-0.164691
N474	N	1.844466	0.847892	0.168642
C475	C	0.876125	0.004373	-0.126708
C476	C	1.209458	0.337706	0.206626
C477	C	1.542791	0.671040	0.539959
N478	N	0.834682	-0.019932	-0.105091
N479	N	1.168015	0.313401	0.228242
N480	N	1.501349	0.646735	0.561576
H481	H	1.072085	0.119228	-0.771127
H482	H	1.405418	0.452561	-0.437793
H483	H	1.738752	0.785894	-0.104460
H484	H	0.383562	0.145088	-0.000012
H485	H	0.716895	0.478422	0.333321
H486	H	1.050229	0.811755	0.666655
