data_functionalizedCrystal
_audit_creation_method	'MofGen! by Chris Wilmer'
_symmetry_space_group_name_H-M	'P1'
_symmetry_Int_Tables_number	1
_symmetry_cell_setting	triclinic
loop_
_symmetry_equiv_pos_as_xyz
  x,y,z
_cell_length_a	18.050591
_cell_length_b	18.050589
_cell_length_c	19.805399
_cell_angle_alpha	89.976299
_cell_angle_beta	89.978048
_cell_angle_gamma	90.024227
loop_
_atom_site_label
_atom_site_type_symbol
_atom_site_fract_x
_atom_site_fract_y
_atom_site_fract_z
Zn1	Zn	1.135300	-0.295745	-0.382836
Zn2	Zn	1.135209	-0.419941	-0.269658
Zn3	Zn	1.011117	-0.295760	-0.269651
Zn4	Zn	1.011067	-0.419889	-0.382795
O5	O	1.073173	-0.357834	-0.326235
O6	O	1.239213	-0.312235	-0.367843
O7	O	1.118730	-0.403495	-0.174941
O8	O	1.027649	-0.191834	-0.284679
O9	O	1.239145	-0.403481	-0.284692
O10	O	1.118886	-0.191823	-0.367836
O11	O	1.027561	-0.312261	-0.174935
O12	O	0.907186	-0.312211	-0.284639
O13	O	1.027565	-0.403394	-0.477517
O14	O	0.907149	-0.403408	-0.367766
O15	O	1.118838	-0.312186	-0.477547
O16	O	1.118682	-0.523858	-0.284652
O17	O	1.027476	-0.523821	-0.367773
C18	C	0.880221	-0.357806	-0.326197
C19	C	0.797675	-0.357812	-0.326198
C20	C	0.598223	-0.308162	-0.281097
C21	C	0.548803	-0.375899	-0.264445
C22	C	0.646545	-0.357835	-0.326228
C23	C	0.548883	-0.290121	-0.342878
C24	C	0.500560	-0.357851	-0.326256
C25	C	0.598212	-0.425608	-0.309544
C26	C	0.598297	-0.339784	-0.388006
C27	C	0.548899	-0.407568	-0.371377
C28	C	0.730643	-0.357825	-0.326210
C29	C	0.416463	-0.357868	-0.326274
C30	C	1.073084	-0.550786	-0.326224
C31	C	1.073113	-0.633332	-0.326241
C32	C	1.023564	-0.832789	-0.371427
C33	C	1.005465	-0.882228	-0.309662
C34	C	1.073186	-0.784462	-0.326250
C35	C	1.091322	-0.882105	-0.388022
C36	C	1.073255	-0.930447	-0.326264
C37	C	1.055051	-0.832814	-0.264453
C38	C	1.140940	-0.832686	-0.342854
C39	C	1.122866	-0.882103	-0.281047
C40	C	1.073144	-0.700364	-0.326243
C41	C	1.073297	-1.014544	-0.326264
C42	C	1.266879	-0.357862	-0.326273
C43	C	1.349425	-0.357874	-0.326289
C44	C	1.073206	-0.357782	-0.502778
C45	C	1.073220	-0.357760	-0.578010
C46	C	1.073283	-0.164128	-0.326261
C47	C	1.073330	-0.081583	-0.326272
C48	C	1.025761	-0.310250	-0.613350
C49	C	1.025772	-0.310236	-0.684039
C50	C	1.073244	-0.357728	-0.719385
C51	C	1.120705	-0.405244	-0.684040
C52	C	1.120690	-0.405262	-0.613352
C53	C	1.120764	-0.405175	-0.969113
C54	C	1.120776	-0.405152	-1.039805
C55	C	1.025845	-0.310149	-1.039800
C56	C	1.025830	-0.310166	-0.969112
C57	C	1.073288	-0.357684	-0.933773
C58	C	1.073275	-0.357700	-0.857124
C59	C	1.073261	-0.357709	-0.796033
C60	C	1.073184	-0.357832	-0.150379
C61	C	1.073314	-0.357644	-0.075147
H62	H	0.620053	-0.324483	-0.440222
H63	H	0.527176	-0.232857	-0.356926
H64	H	1.198191	-0.810911	-0.356915
H65	H	1.106633	-0.903756	-0.440256
O66	O	0.974561	-0.259022	-0.575227
H67	H	0.941559	-0.225987	-0.611681
H68	H	0.987123	-0.271551	-0.712810
O69	O	0.974661	-0.258888	-1.077914
H70	H	0.982641	-0.266853	-1.133006
O71	O	1.034686	-0.804263	-0.195240
H72	H	0.978655	-0.824597	-0.181417
O73	O	0.929611	-0.911055	-0.291054
H74	H	0.888488	-0.891310	-0.328620
O75	O	0.974634	-0.258934	-0.930990
H76	H	0.916341	-0.271658	-0.944538
H77	H	0.981539	-0.811135	-0.409577
H78	H	1.159436	-0.443829	-1.068582
H79	H	1.164860	-0.903620	-0.242805
O80	O	1.171966	-0.456405	-0.931000
H81	H	1.204989	-0.489413	-0.967457
O82	O	1.171912	-0.456469	-0.722158
H83	H	1.163956	-0.448470	-0.777249
H84	H	1.159342	-0.443944	-0.584579
H85	H	0.619880	-0.266200	-0.242890
H86	H	0.619790	-0.482897	-0.295415
O87	O	0.519997	-0.396143	-0.195263
H88	H	0.539744	-0.354824	-0.157877
H89	H	0.527378	-0.449630	-0.409555
