data_functionalizedCrystal
_audit_creation_method	'MofGen! by Chris Wilmer'
_symmetry_space_group_name_H-M	'P1'
_symmetry_Int_Tables_number	1
_symmetry_cell_setting	triclinic
loop_
_symmetry_equiv_pos_as_xyz
  x,y,z
_cell_length_a	21.295417
_cell_length_b	21.295420
_cell_length_c	21.295411
_cell_angle_alpha	89.975408
_cell_angle_beta	89.978356
_cell_angle_gamma	90.026289
loop_
_atom_site_label
_atom_site_type_symbol
_atom_site_fract_x
_atom_site_fract_y
_atom_site_fract_z
Zn1	Zn	-0.250752	0.962355	-0.355912
Zn2	Zn	0.082582	1.295689	-0.022579
Zn3	Zn	0.415915	1.629022	0.310755
Zn4	Zn	-0.356004	0.962258	-0.250637
Zn5	Zn	-0.022670	1.295591	0.082696
Zn6	Zn	0.310663	1.628924	0.416029
Zn7	Zn	-0.250744	0.857079	-0.250657
Zn8	Zn	0.082589	1.190412	0.082676
Zn9	Zn	0.415922	1.523745	0.416010
Zn10	Zn	-0.355979	0.857048	-0.355869
Zn11	Zn	-0.022646	1.190381	-0.022536
Zn12	Zn	0.310687	1.523715	0.310798
O13	O	-0.303370	0.909685	-0.303269
O14	O	0.029964	1.243018	0.030065
O15	O	0.363297	1.576352	0.363398
O16	O	-0.264727	1.050432	-0.341957
O17	O	0.068606	1.383765	-0.008623
O18	O	0.401940	1.717098	0.324710
O19	O	-0.342048	0.948277	-0.162550
O20	O	-0.008715	1.281611	0.170783
O21	O	0.324619	1.614944	0.504116
O22	O	-0.162656	0.871097	-0.264645
O23	O	0.170677	1.204431	0.068688
O24	O	0.504011	1.537764	0.402021
O25	O	-0.342055	1.050360	-0.264612
O26	O	-0.008722	1.383693	0.068721
O27	O	0.324612	1.717027	0.402055
O28	O	-0.162661	0.948444	-0.341976
O29	O	0.170672	1.281777	-0.008642
O30	O	0.504005	1.615110	0.324691
O31	O	-0.264714	0.871003	-0.162565
O32	O	0.068619	1.204336	0.170768
O33	O	0.401952	1.537669	0.504102
O34	O	-0.264691	0.768985	-0.264604
O35	O	0.068642	1.102318	0.068730
O36	O	0.401976	1.435652	0.402063
O37	O	-0.342014	0.871045	-0.443964
O38	O	-0.008680	1.204379	-0.110631
O39	O	0.324653	1.537712	0.222703
O40	O	-0.342006	0.768963	-0.341903
O41	O	-0.008673	1.102296	-0.008569
O42	O	0.324660	1.435629	0.324764
O43	O	-0.264703	0.948414	-0.443996
O44	O	0.068630	1.281747	-0.110662
O45	O	0.401963	1.615081	0.222671
O46	O	-0.444090	0.948248	-0.264570
O47	O	-0.110756	1.281581	0.068763
O48	O	0.222577	1.614914	0.402096
O49	O	-0.444072	0.870951	-0.341884
O50	O	-0.110739	1.204284	-0.008550
O51	O	0.222595	1.537617	0.324783
C52	C	-0.303346	0.746133	-0.303251
C53	C	0.029988	1.079467	0.030082
C54	C	0.363321	1.412800	0.363416
C55	C	-0.303351	0.676165	-0.303258
C56	C	0.029983	1.009499	0.030075
C57	C	0.363316	1.342832	0.363408
C58	C	-0.466921	0.909602	-0.303234
C59	C	-0.133588	1.242936	0.030099
C60	C	0.199745	1.576269	0.363433
C61	C	-0.536890	0.909625	-0.303240
C62	C	-0.203556	1.242958	0.030093
C63	C	0.129777	1.576291	0.363427
C64	C	-0.263200	0.176744	-0.343617
C65	C	0.070133	0.510077	-0.010284
C66	C	0.403467	0.843411	0.323050
C67	C	-0.263195	0.242486	-0.343617
C68	C	0.070138	0.575820	-0.010284
C69	C	0.403471	0.909153	0.323050
C70	C	-0.303389	0.275326	-0.303283
C71	C	0.029944	0.608659	0.030050
C72	C	0.363278	0.941992	0.363383
C73	C	-0.343602	0.242417	-0.262958
C74	C	-0.010268	0.575750	0.070375
C75	C	0.323065	0.909084	0.403708
C76	C	-0.343610	0.176676	-0.262964
C77	C	-0.010276	0.510009	0.070369
C78	C	0.323057	0.843343	0.403703
N79	N	-0.308125	0.378516	-0.248164
N80	N	0.025209	0.711849	0.085170
N81	N	0.358542	1.045182	0.418503
N82	N	-0.308113	0.440967	-0.248160
N83	N	0.025220	0.774300	0.085173
N84	N	0.358553	1.107634	0.418507
C85	C	-0.303368	0.473400	-0.303265
C86	C	0.029965	0.806734	0.030068
C87	C	0.363298	1.140067	0.363402
N88	N	-0.298623	0.441023	-0.358375
N89	N	0.034711	0.774356	-0.025041
N90	N	0.368044	1.107690	0.308292
N91	N	-0.298631	0.378566	-0.358377
N92	N	0.034703	0.711899	-0.025044
N93	N	0.368036	1.045233	0.308289
C94	C	-0.303385	0.346611	-0.303273
C95	C	0.029948	0.679944	0.030060
C96	C	0.363282	1.013278	0.363394
C97	C	-0.263156	0.577587	-0.343591
C98	C	0.070177	0.910920	-0.010257
C99	C	0.403511	1.244253	0.323076
C100	C	-0.263156	0.643330	-0.343592
C101	C	0.070178	0.976664	-0.010258
C102	C	0.403511	1.309997	0.323075
C103	C	-0.343559	0.643260	-0.262927
C104	C	-0.010226	0.976593	0.070406
C105	C	0.323108	1.309926	0.403739
C106	C	-0.343562	0.577517	-0.262932
C107	C	-0.010229	0.910851	0.070402
C108	C	0.323104	1.244184	0.403735
C109	C	-0.303358	0.544685	-0.303263
C110	C	0.029976	0.878018	0.030071
C111	C	0.363309	1.211351	0.363404
C112	C	-0.569745	0.949909	-0.263024
C113	C	-0.236411	1.283242	0.070309
C114	C	0.096922	1.616576	0.403642
C115	C	-0.635487	0.949939	-0.263038
C116	C	-0.302154	1.283272	0.070295
C117	C	0.031180	1.616605	0.403628
C118	C	-0.668372	0.909672	-0.303262
C119	C	-0.335039	1.243006	0.030072
C120	C	-0.001705	1.576339	0.363405
C121	C	-0.635509	0.869385	-0.343485
C122	C	-0.302176	1.202718	-0.010152
C123	C	0.031158	1.536052	0.323181
C124	C	-0.569768	0.869361	-0.343474
C125	C	-0.236434	1.202695	-0.010141
C126	C	0.096899	1.536028	0.323192
N127	N	-0.771635	0.854605	-0.308055
N128	N	-0.438301	1.187939	0.025279
N129	N	-0.104968	1.521272	0.358612
N130	N	-0.834086	0.854630	-0.308061
N131	N	-0.500753	1.187963	0.025272
N132	N	-0.167419	1.521297	0.358605
C133	C	-0.866447	0.909743	-0.303298
C134	C	-0.533113	1.243076	0.030035
C135	C	-0.199780	1.576410	0.363369
N136	N	-0.833997	0.964832	-0.298515
N137	N	-0.500663	1.298165	0.034818
N138	N	-0.167330	1.631498	0.368151
N139	N	-0.771540	0.964807	-0.298505
N140	N	-0.438206	1.298140	0.034828
N141	N	-0.104873	1.631473	0.368161
C142	C	-0.739657	0.909694	-0.303278
C143	C	-0.406324	1.243027	0.030055
C144	C	-0.072991	1.576361	0.363388
C145	C	-0.970587	0.950063	-0.263095
C146	C	-0.637254	1.283396	0.070238
C147	C	-0.303921	1.616729	0.403571
C148	C	-1.036331	0.950093	-0.263114
C149	C	-0.702998	1.283427	0.070219
C150	C	-0.369664	1.616760	0.403553
C151	C	-1.036352	0.869534	-0.343557
C152	C	-0.703018	1.202868	-0.010224
C153	C	-0.369685	1.536201	0.323109
C154	C	-0.970609	0.869509	-0.343542
C155	C	-0.637276	1.202843	-0.010209
C156	C	-0.303943	1.536176	0.323124
C157	C	-0.937731	0.909773	-0.303308
C158	C	-0.604398	1.243106	0.030026
C159	C	-0.271064	1.576439	0.363359
C160	C	-0.139180	0.909785	-0.303318
C161	C	0.194154	1.243118	0.030016
C162	C	0.527487	1.576452	0.363349
C163	C	-0.069211	0.909827	-0.303338
C164	C	0.264122	1.243161	0.029995
C165	C	0.597455	1.576494	0.363328
C166	C	-0.303357	0.909737	-0.467459
C167	C	0.029977	1.243070	-0.134126
C168	C	0.363310	1.576404	0.199208
C169	C	-0.303351	0.909759	-0.537427
C170	C	0.029982	1.243093	-0.204094
C171	C	0.363316	1.576426	0.129239
C172	C	-0.303394	1.073875	-0.303287
C173	C	0.029939	1.407208	0.030046
C174	C	0.363272	1.740542	0.363380
C175	C	-0.303405	1.143843	-0.303295
C176	C	0.029928	1.477177	0.030039
C177	C	0.363262	1.810510	0.363372
C178	C	-0.263094	0.950044	-0.570311
C179	C	0.070240	1.283377	-0.236978
C180	C	0.403573	1.616710	0.096355
C181	C	-0.263066	0.950043	-0.636054
C182	C	0.070267	1.283376	-0.302721
C183	C	0.403600	1.616709	0.030613
C184	C	-0.303308	0.909764	-0.668910
C185	C	0.030026	1.243098	-0.335576
C186	C	0.363359	1.576431	-0.002243
C187	C	-0.343568	0.869472	-0.636018
C188	C	-0.010234	1.202806	-0.302684
C189	C	0.323099	1.536139	0.030649
C190	C	-0.343589	0.869470	-0.570276
C191	C	-0.010256	1.202803	-0.236943
C192	C	0.323077	1.536136	0.096390
N193	N	-0.358375	0.904908	-0.772125
N194	N	-0.025042	1.238241	-0.438792
N195	N	0.308292	1.571574	-0.105459
N196	N	-0.358353	0.904914	-0.834577
N197	N	-0.025019	1.238247	-0.501243
N198	N	0.308314	1.571580	-0.167910
C199	C	-0.303244	0.909768	-0.866985
C200	C	0.030090	1.243102	-0.533651
C201	C	0.363423	1.576435	-0.200318
N202	N	-0.248157	0.914629	-0.834582
N203	N	0.085177	1.247962	-0.501249
N204	N	0.418510	1.581296	-0.167915
N205	N	-0.248180	0.914626	-0.772125
N206	N	0.085153	1.247960	-0.438791
N207	N	0.418487	1.581293	-0.105458
C208	C	-0.303288	0.909762	-0.740195
C209	C	0.030045	1.243095	-0.406862
C210	C	0.363378	1.576429	-0.073529
C211	C	-0.262953	0.950054	-0.971154
C212	C	0.070380	1.283387	-0.637821
C213	C	0.403713	1.616720	-0.304488
C214	C	-0.262925	0.950048	-1.036898
C215	C	0.070408	1.283382	-0.703565
C216	C	0.403742	1.616715	-0.370231
C217	C	-0.343432	0.869481	-1.036861
C218	C	-0.010099	1.202815	-0.703527
C219	C	0.323235	1.536148	-0.370194
C220	C	-0.343455	0.869483	-0.971118
C221	C	-0.010121	1.202816	-0.637785
C222	C	0.323212	1.536150	-0.304452
C223	C	-0.303216	0.909773	-0.938269
C224	C	0.030117	1.243106	-0.604936
C225	C	0.363450	1.576439	-0.271602
C226	C	-0.303338	0.909669	-0.139717
C227	C	0.029996	1.243002	0.193616
C228	C	0.363329	1.576336	0.526949
C229	C	-0.303166	0.909769	-0.069749
C230	C	0.030167	1.243102	0.263584
C231	C	0.363501	1.576435	0.596917
H232	H	-0.230453	0.269279	-0.376452
H233	H	0.102881	0.602613	-0.043118
H234	H	0.436214	0.935946	0.290215
H235	H	-0.542977	0.982695	-0.230265
H236	H	-0.209644	1.316029	0.103069
H237	H	0.123690	1.649362	0.436402
H238	H	-0.230465	0.150016	-0.376460
H239	H	0.102869	0.483349	-0.043127
H240	H	0.436202	0.816682	0.290206
N241	N	-0.384659	0.275968	-0.221766
N242	N	-0.051325	0.609301	0.111567
N243	N	0.282008	0.942635	0.444901
N244	N	-0.384646	0.334665	-0.221766
N245	N	-0.051313	0.667998	0.111568
N246	N	0.282021	1.001332	0.444901
H247	H	-0.413646	0.358361	-0.192675
H248	H	-0.080312	0.691694	0.140659
H249	H	0.253021	1.025028	0.473992
H250	H	-0.376290	0.669997	-0.230092
H251	H	-0.042957	1.003330	0.103242
H252	H	0.290376	1.336664	0.436575
N253	N	-0.669060	0.991075	-0.221944
N254	N	-0.335727	1.324408	0.111389
N255	N	-0.002393	1.657741	0.444722
N256	N	-0.705781	0.968945	-0.181822
N257	N	-0.372447	1.302278	0.151511
N258	N	-0.039114	1.635612	0.484845
H259	H	-0.729492	0.997995	-0.152798
H260	H	-0.396158	1.331328	0.180536
H261	H	-0.062825	1.664661	0.513869
N262	N	-1.069904	0.991236	-0.222031
N263	N	-0.736570	1.324570	0.111303
N264	N	-0.403237	1.657903	0.444636
N265	N	-1.128601	0.991253	-0.222046
N266	N	-0.795267	1.324587	0.111287
N267	N	-0.461934	1.657920	0.444621
H268	H	-1.152313	1.020310	-0.193030
H269	H	-0.818980	1.353643	0.140303
H270	H	-0.485646	1.686977	0.473637
H271	H	-0.376330	0.836675	-0.662773
H272	H	-0.042997	1.170009	-0.329440
H273	H	0.290336	1.503342	0.003893
N274	N	-0.384635	0.543916	-0.221738
N275	N	-0.051302	0.877249	0.111595
N276	N	0.282032	1.210583	0.444928
N277	N	-0.420522	0.573241	-0.185731
N278	N	-0.087189	0.906575	0.147602
N279	N	0.246144	1.239908	0.480936
H280	H	-0.449534	0.549511	-0.156637
H281	H	-0.116201	0.882845	0.176696
H282	H	0.217133	1.216178	0.510029
N283	N	-0.669107	0.828262	-0.384572
N284	N	-0.335773	1.161595	-0.051239
N285	N	-0.002440	1.494929	0.282094
N286	N	-0.727804	0.828288	-0.384577
N287	N	-0.394470	1.161621	-0.051243
N288	N	-0.061137	1.494954	0.282090
H289	H	-0.751533	0.799245	-0.413598
H290	H	-0.418199	1.132579	-0.080264
H291	H	-0.084866	1.465912	0.253069
H292	H	-0.376371	0.836663	-0.543503
H293	H	-0.043037	1.169996	-0.210169
H294	H	0.290296	1.503329	0.123164
N295	N	-0.222094	0.676951	-0.384782
N296	N	0.111239	1.010285	-0.051449
N297	N	0.444573	1.343618	0.281885
N298	N	-0.244294	0.713647	-0.424854
N299	N	0.089040	1.046981	-0.091520
N300	N	0.422373	1.380314	0.241813
H301	H	-0.215294	0.737395	-0.453945
H302	H	0.118040	1.070728	-0.120611
H303	H	0.451373	1.404061	0.212722
N304	N	-0.384686	0.143075	-0.221771
N305	N	-0.051352	0.476408	0.111562
N306	N	0.281981	0.809742	0.444895
N307	N	-0.420575	0.172399	-0.185765
N308	N	-0.087242	0.505733	0.147568
N309	N	0.246091	0.839066	0.480902
H310	H	-0.449586	0.148668	-0.156671
H311	H	-0.116253	0.482002	0.176662
H312	H	0.217081	0.815335	0.509995
N313	N	-0.222101	0.544054	-0.384804
N314	N	0.111232	0.877387	-0.051471
N315	N	0.444565	1.210721	0.281863
N316	N	-0.186219	0.573441	-0.420819
N317	N	0.147114	0.906774	-0.087485
N318	N	0.480447	1.240108	0.245848
H319	H	-0.157229	0.549761	-0.449932
H320	H	0.176104	0.883094	-0.116599
H321	H	0.509438	1.216427	0.216735
H322	H	-0.543017	0.836556	-0.376224
H323	H	-0.209683	1.169890	-0.042890
H324	H	0.123650	1.503223	0.290443
H325	H	-0.943817	0.982850	-0.230336
H326	H	-0.610483	1.316183	0.102997
H327	H	-0.277150	1.649516	0.436331
N328	N	-1.069944	0.828410	-0.384645
N329	N	-0.736611	1.161744	-0.051312
N330	N	-0.403278	1.495077	0.282021
N331	N	-1.128641	0.828438	-0.384652
N332	N	-0.795308	1.161771	-0.051319
N333	N	-0.461974	1.495105	0.282015
H334	H	-1.152370	0.799395	-0.413673
H335	H	-0.819036	1.132728	-0.080339
H336	H	-0.485703	1.466061	0.252994
H337	H	-0.943857	0.836703	-0.376287
H338	H	-0.610524	1.170037	-0.042954
H339	H	-0.277190	1.503370	0.290380
H340	H	-0.230185	0.982856	-0.944407
H341	H	0.103148	1.316190	-0.611074
H342	H	0.436481	1.649523	-0.277740
N343	N	-0.221990	0.991202	-0.536768
N344	N	0.111343	1.324536	-0.203434
N345	N	0.444677	1.657869	0.129899
N346	N	-0.186049	1.027169	-0.566142
N347	N	0.147285	1.360502	-0.232808
N348	N	0.480618	1.693836	0.100525
H349	H	-0.157018	1.056238	-0.542451
H350	H	0.176315	1.389572	-0.209118
H351	H	0.509648	1.722905	0.124216
H352	H	-0.230281	0.982846	-0.662833
H353	H	0.103053	1.316179	-0.329500
H354	H	0.436386	1.649512	0.003833
H355	H	-0.230139	0.982852	-1.063671
H356	H	0.103194	1.316185	-0.730338
H357	H	0.436528	1.649518	-0.397005
H358	H	-0.376191	0.836679	-1.063611
H359	H	-0.042857	1.170013	-0.730278
H360	H	0.290476	1.503346	-0.396945
N361	N	-0.384582	0.828330	-0.937534
N362	N	-0.051249	1.161663	-0.604201
N363	N	0.282085	1.494997	-0.270867
N364	N	-0.420507	0.792367	-0.966874
N365	N	-0.087174	1.125700	-0.633541
N366	N	0.246159	1.459034	-0.300207
H367	H	-0.449554	0.763299	-0.943156
H368	H	-0.116221	1.096632	-0.609823
H369	H	0.217112	1.429966	-0.276489
