data_functionalizedCrystal
_audit_creation_method	'MofGen! by Chris Wilmer'
_symmetry_space_group_name_H-M	'P1'
_symmetry_Int_Tables_number	1
_symmetry_cell_setting	triclinic
loop_
_symmetry_equiv_pos_as_xyz
  x,y,z
_cell_length_a	16.992694
_cell_length_b	14.853567
_cell_length_c	15.455313
_cell_angle_alpha	92.672621
_cell_angle_beta	87.142206
_cell_angle_gamma	87.151577
loop_
_atom_site_label
_atom_site_type_symbol
_atom_site_fract_x
_atom_site_fract_y
_atom_site_fract_z
O1	O	1.044027	0.187488	-0.072010
O2	O	0.815740	0.185390	-0.072036
O3	O	0.935981	0.055640	-0.072025
O4	O	0.923785	0.317238	-0.072021
O5	O	0.929105	0.063027	0.072237
O6	O	0.808864	0.192777	0.072226
O7	O	1.037151	0.194875	0.072251
Cu8	Cu	0.922380	0.194501	0.085411
Cu9	Cu	0.930511	0.185764	-0.085195
O10	O	0.916909	0.324625	0.072241
C11	C	0.783087	0.186385	0.000092
C12	C	0.696034	0.178334	0.000081
C13	C	0.645878	0.256009	0.000083
C14	C	0.564083	0.248440	0.000095
C15	C	0.532445	0.163195	0.000099
C16	C	0.582608	0.085514	0.000100
C17	C	0.664401	0.093084	0.000094
C18	C	0.288813	0.131820	0.000122
C19	C	0.207013	0.124255	0.000125
C20	C	0.188493	0.287183	0.000122
C21	C	0.270290	0.294745	0.000111
C22	C	0.320445	0.217064	0.000116
N23	N	0.448838	0.155456	0.000108
N24	N	0.404050	0.224804	0.000113
C25	C	0.931991	0.025705	0.000103
C26	C	0.930335	-0.074496	0.000096
C27	C	0.851909	-0.492567	0.000103
C28	C	0.994758	-0.503760	0.000119
C29	C	0.996315	-0.409617	0.000114
C30	C	0.925668	-0.356944	0.000105
C31	C	0.853464	-0.398414	0.000101
C32	C	1.068518	-0.368139	0.000127
C33	C	1.070078	-0.273990	0.000123
C34	C	0.999430	-0.221316	0.000108
C35	C	0.927223	-0.262791	0.000103
C36	C	0.856576	-0.210118	0.000094
C37	C	0.784368	-0.251593	0.000082
C38	C	0.782816	-0.345740	0.000086
C39	C	1.000982	-0.127169	0.000105
C40	C	0.858131	-0.115966	0.000091
C41	C	1.069804	0.193880	0.000122
C42	C	1.156857	0.201931	0.000127
C43	C	0.920900	0.354560	0.000110
C44	C	0.922556	0.454760	0.000112
N45	N	0.916666	0.200645	0.205406
N46	N	0.936231	0.179613	-0.205190
C47	C	0.967766	0.145545	0.250805
C48	C	0.963453	0.150201	0.341612
C49	C	0.908042	0.209961	0.387019
C50	C	0.856936	0.265063	0.341614
C51	C	0.861246	0.260402	0.250808
C52	C	0.889436	0.230054	0.658599
C53	C	0.885131	0.234713	0.749411
C54	C	0.991647	0.119849	0.749403
C55	C	0.995956	0.115198	0.658595
C56	C	0.944847	0.170296	0.613198
N57	N	0.903633	0.214723	0.479839
N58	N	0.949253	0.165529	0.520380
H59	H	0.329639	0.068566	0.000127
H60	H	0.296043	0.364161	0.000098
C61	C	0.547809	-0.008255	0.000102
H62	H	0.491912	-0.001640	0.000097
H63	H	0.562627	-0.037911	0.050408
H64	H	0.567412	-0.043059	-0.050213
H65	H	1.012891	0.096886	0.213840
H66	H	1.059772	-0.093404	0.000120
H67	H	0.726847	-0.208694	0.000081
C68	C	0.833240	0.290683	0.608669
H69	H	0.843739	0.279351	0.548085
H70	H	0.841128	0.352233	0.623554
H71	H	0.780184	0.277860	0.623554
H72	H	0.147649	0.350426	0.000119
C73	C	1.149502	-0.228377	0.000124
H74	H	1.191353	-0.273232	0.000124
H75	H	1.150685	-0.189298	0.050426
H76	H	1.155472	-0.194469	-0.050194
C77	C	0.795986	0.330799	0.391559
H78	H	0.800743	0.325692	0.452142
H79	H	0.744349	0.316441	0.376688
H80	H	0.805278	0.390831	0.376668
C81	C	0.805039	0.321011	0.200866
H82	H	0.815537	0.309671	0.140282
H83	H	0.812909	0.382569	0.215738
H84	H	0.751989	0.308170	0.215756
H85	H	0.671631	0.325425	0.000080
H86	H	1.005062	0.105334	0.378575
C87	C	1.047856	0.059236	0.799337
H88	H	1.081475	0.022982	0.759288
H89	H	1.017927	0.021473	0.834768
H90	H	1.078854	0.095863	0.834752
C91	C	0.508915	0.333884	0.000094
H92	H	0.539472	0.385736	0.000080
H93	H	0.474233	0.336899	0.050404
H94	H	0.479013	0.331737	-0.050216
H95	H	0.181257	0.054835	0.000127
C96	C	0.780417	-0.058032	0.000082
H97	H	0.737195	-0.096218	0.000082
H98	H	0.780452	-0.023647	-0.050223
H99	H	0.775656	-0.018499	0.050397
C100	C	1.072463	-0.561697	0.000131
H101	H	1.061195	-0.623708	0.000129
H102	H	1.099670	-0.545989	0.050439
H103	H	1.104460	-0.551151	-0.050181
C104	C	1.056903	0.049456	0.608654
H105	H	1.086715	0.017301	0.648698
H106	H	1.091259	0.082443	0.573221
H107	H	1.030331	0.008052	0.573241
H108	H	0.705238	0.029832	0.000092
C109	C	0.703395	-0.391358	0.000074
H110	H	0.661542	-0.346507	0.000058
H111	H	0.697420	-0.425275	0.050381
H112	H	0.702223	-0.430431	-0.050239
C113	C	0.772486	-0.538183	0.000094
H114	H	0.781674	-0.601797	0.000102
H115	H	0.745790	-0.523027	-0.050214
H116	H	0.741000	-0.517874	0.050406
C117	C	1.146221	-0.426078	0.000144
H118	H	1.134952	-0.488088	0.000134
H119	H	1.173423	-0.410374	0.050456
H120	H	1.178224	-0.415529	-0.050165
C121	C	0.824134	0.300401	0.799358
H122	H	0.794296	0.332528	0.759316
H123	H	0.850657	0.341820	0.834796
H124	H	0.789798	0.267356	0.834766
