data_functionalizedCrystal
_audit_creation_method	'MofGen! by Chris Wilmer'
_symmetry_space_group_name_H-M	'P1'
_symmetry_Int_Tables_number	1
_symmetry_cell_setting	triclinic
loop_
_symmetry_equiv_pos_as_xyz
  x,y,z
_cell_length_a	15.711784
_cell_length_b	23.532407
_cell_length_c	14.750522
_cell_angle_alpha	104.276273
_cell_angle_beta	99.523242
_cell_angle_gamma	101.218739
loop_
_atom_site_label
_atom_site_type_symbol
_atom_site_fract_x
_atom_site_fract_y
_atom_site_fract_z
O1	O	1.160894	0.326300	0.079919
O2	O	1.660894	0.826300	0.579919
O3	O	0.909599	0.283010	0.079905
O4	O	1.409599	0.783010	0.579905
O5	O	1.042820	0.223328	0.079895
O6	O	1.542820	0.723328	0.579895
O7	O	1.027672	0.385983	0.079929
O8	O	1.527672	0.885983	0.579929
O9	O	1.009576	0.194341	-0.079769
O10	O	1.509576	0.694341	0.420231
O11	O	0.876355	0.254024	-0.079759
O12	O	1.376355	0.754024	0.420241
O13	O	1.127649	0.297314	-0.079745
O14	O	1.627649	0.797314	0.420255
Zn15	Zn	0.996724	0.271067	-0.105102
Zn16	Zn	1.496724	0.771067	0.394898
Zn17	Zn	1.040524	0.309257	0.105262
Zn18	Zn	1.540524	0.809257	0.605262
O19	O	0.994428	0.356997	-0.079735
O20	O	1.494428	0.856997	0.420265
C21	C	0.860833	0.261446	0.000071
C22	C	1.360833	0.761446	0.500071
C23	C	0.765054	0.240368	0.000065
C24	C	1.265054	0.740368	0.500065
C25	C	0.640784	0.161017	0.000047
C26	C	1.140784	0.661017	0.500047
C27	C	0.730781	0.180828	0.000053
C28	C	1.230781	0.680828	0.500053
C29	C	0.709337	0.280120	0.000077
C30	C	1.209337	0.780120	0.500077
C31	C	0.619337	0.260317	0.000077
C32	C	1.119337	0.760317	0.500077
C33	C	0.585068	0.200765	0.000061
C34	C	1.085068	0.700765	0.500061
C35	C	0.563621	0.300065	0.000090
C36	C	1.063621	0.800065	0.500090
C37	C	0.473628	0.280263	0.000085
C38	C	0.973628	0.780263	0.500085
C39	C	0.439351	0.220712	0.000066
C40	C	0.939351	0.720712	0.500066
C41	C	0.495075	0.180962	0.000055
C42	C	0.995075	0.680962	0.500055
C43	C	0.597891	0.359616	0.000100
C44	C	1.097891	0.859616	0.500100
C45	C	0.542175	0.399364	0.000113
C46	C	1.042175	0.899364	0.500113
C47	C	0.452181	0.379563	0.000114
C48	C	0.952181	0.879563	0.500114
C49	C	0.417905	0.320013	0.000095
C50	C	0.917905	0.820013	0.500095
C51	C	0.396458	0.419313	0.000125
C52	C	0.896458	0.919313	0.500125
C53	C	0.306465	0.399511	0.000119
C54	C	0.806465	0.899511	0.500119
C55	C	0.327912	0.300210	0.000090
C56	C	0.827912	0.800210	0.500090
C57	C	1.025812	0.187536	0.000060
C58	C	1.525812	0.687536	0.500060
C59	C	1.024650	0.124072	0.000053
C60	C	1.524650	0.624072	0.500053
C61	C	1.096223	-0.259845	0.000109
C62	C	1.596223	0.240155	0.500109
C63	C	1.095146	-0.319473	0.000117
C64	C	1.595146	0.180527	0.500117
O65	O	1.161493	-0.342142	0.000156
O66	O	1.661493	0.157858	0.500156
N67	N	1.015944	-0.358896	0.000112
N68	N	1.515944	0.141104	0.500112
C69	C	0.937815	-0.338687	0.000109
C70	C	1.437815	0.161313	0.500109
O71	O	0.870348	-0.377695	0.000106
O72	O	1.370348	0.122305	0.500106
C73	C	0.938894	-0.279059	0.000109
C74	C	1.438894	0.220941	0.500109
C75	C	1.018099	-0.239641	0.000104
C76	C	1.518099	0.260359	0.500104
C77	C	1.175422	-0.220427	0.000106
C78	C	1.675422	0.279573	0.500106
C79	C	1.176498	-0.160804	0.000097
C80	C	1.676498	0.339196	0.500097
C81	C	1.098374	-0.140599	0.000091
C82	C	1.598374	0.359401	0.500091
C83	C	1.019175	-0.180018	0.000095
C84	C	1.519175	0.319982	0.500095
C85	C	0.860767	-0.258851	0.000113
C86	C	1.360767	0.241149	0.500113
C87	C	0.861852	-0.199218	0.000114
C88	C	1.361852	0.300782	0.500114
C89	C	0.941058	-0.159799	0.000109
C90	C	1.441058	0.340201	0.500109
C91	C	0.942127	-0.100190	0.000081
C92	C	1.442127	0.399810	0.500081
N93	N	1.021329	-0.060767	0.000086
N94	N	1.521329	0.439233	0.500086
C95	C	1.099453	-0.080972	0.000091
C96	C	1.599453	0.419028	0.500091
C97	C	0.935556	-0.463909	0.000112
C98	C	1.435556	0.036091	0.500112
C99	C	0.934475	-0.523537	0.000105
C100	C	1.434475	-0.023537	0.500105
C101	C	1.091807	-0.504318	0.000114
C102	C	1.591807	-0.004318	0.500114
C103	C	1.092886	-0.444690	0.000114
C104	C	1.592886	0.055310	0.500114
C105	C	1.014758	-0.424485	0.000117
C106	C	1.514758	0.075515	0.500117
C107	C	1.101706	0.044240	0.000071
C108	C	1.601706	0.544240	0.500071
C109	C	1.102774	0.103867	0.000058
C110	C	1.602774	0.603867	0.500058
C111	C	0.945443	0.084644	0.000054
C112	C	1.445443	0.584644	0.500054
C113	C	0.944373	0.025021	0.000062
C114	C	1.444373	0.525021	0.500062
C115	C	1.022513	0.004822	0.000074
C116	C	1.522513	0.504822	0.500074
O117	O	0.875816	-0.077478	0.000046
O118	O	1.375816	0.422522	0.500046
O119	O	1.166911	-0.041956	0.000106
O120	O	1.666911	0.458044	0.500106
C121	C	1.176416	0.318879	0.000091
C122	C	1.676416	0.818879	0.500091
C123	C	1.272196	0.339959	0.000103
C124	C	1.772196	0.839959	0.500103
C125	C	1.011437	0.392789	0.000102
C126	C	1.511437	0.892789	0.500102
C127	C	1.012600	0.456254	0.000115
C128	C	1.512600	0.956254	0.500115
N129	N	0.966837	0.245004	-0.248671
N130	N	1.466837	0.745004	0.251329
C131	C	1.153815	0.408108	-0.600410
C132	C	1.653815	0.908108	-0.100410
C133	C	1.132893	0.389840	-0.700918
C134	C	1.632893	0.889840	-0.200918
C135	C	1.028836	0.299042	-0.700924
C136	C	1.528836	0.799042	-0.200924
C137	C	1.049747	0.317304	-0.600414
C138	C	1.549747	0.817304	-0.100414
C139	C	1.112237	0.371837	-0.550165
C140	C	1.612237	0.871837	-0.050165
C141	C	1.008169	0.281032	-0.550170
C142	C	1.508169	0.781032	-0.050170
C143	C	1.029081	0.299291	-0.449668
C144	C	1.529081	0.799291	0.050332
C145	C	1.091571	0.353821	-0.399412
C146	C	1.591571	0.853821	0.100588
C147	C	1.133149	0.390096	-0.449664
C148	C	1.633149	0.890096	0.050336
C149	C	0.945684	0.226497	-0.600421
C150	C	1.445684	0.726497	-0.100421
C151	C	0.904106	0.190226	-0.550176
C152	C	1.404106	0.690226	-0.050176
C153	C	0.925013	0.208487	-0.449673
C154	C	1.425013	0.708487	0.050327
C155	C	0.987503	0.263017	-0.399417
C156	C	1.487503	0.763017	0.100583
C157	C	0.883435	0.172212	-0.399422
C158	C	1.383435	0.672212	0.100578
C159	C	0.904347	0.190471	-0.298920
C160	C	1.404347	0.690471	0.201080
C161	C	1.008415	0.281275	-0.298916
C162	C	1.508415	0.781275	0.201084
N163	N	1.070418	0.335317	0.248831
N164	N	1.570418	0.835317	0.748831
H165	H	1.165335	0.027803	0.000085
H166	H	1.665335	0.527803	0.500085
O167	O	0.742552	0.337942	-0.000074
O168	O	1.242552	0.837942	0.499926
C169	C	0.696803	0.348305	-0.082742
C170	C	1.196803	0.848305	0.417258
H171	H	0.666303	0.303321	-0.140552
H172	H	1.166303	0.803321	0.359448
H173	H	0.745340	0.378813	-0.110487
H174	H	1.245340	0.878813	0.389513
H175	H	0.641772	0.371161	-0.064036
H176	H	1.141772	0.871161	0.435964
O177	O	0.857465	-0.561740	0.000141
O178	O	1.357465	-0.061740	0.500141
C179	C	0.788743	-0.531117	0.000109
C180	C	1.288743	-0.031117	0.500109
H181	H	0.818873	-0.480306	0.030331
H182	H	1.318873	0.019694	0.530331
H183	H	0.743063	-0.546639	0.046463
H184	H	1.243063	-0.046639	0.546463
H185	H	0.748722	-0.541644	-0.076493
H186	H	1.248722	-0.041644	0.423507
O187	O	0.864099	0.155207	-0.250066
O188	O	1.364099	0.655207	0.249934
C189	C	0.929150	0.137974	-0.191899
C190	C	1.429150	0.637974	0.308101
H191	H	0.991558	0.140701	-0.222175
H192	H	1.491558	0.640701	0.277825
H193	H	0.902189	0.089604	-0.190755
H194	H	1.402189	0.589604	0.309245
H195	H	0.946305	0.169682	-0.115734
H196	H	1.446305	0.669682	0.384266
H197	H	0.570089	0.447851	0.000123
H198	H	1.070089	0.947851	0.500123
H199	H	0.424372	0.467799	0.000129
H200	H	0.924372	0.967799	0.500129
H201	H	0.798230	-0.182771	0.000117
H202	H	1.298230	0.317229	0.500117
O203	O	0.925206	0.208738	-0.698049
O204	O	1.425206	0.708738	-0.198049
C205	C	0.833617	0.202836	-0.731639
C206	C	1.333617	0.702836	-0.231639
H207	H	0.796599	0.195207	-0.673729
H208	H	1.296599	0.695207	-0.173729
H209	H	0.806656	0.162661	-0.798876
H210	H	1.306656	0.662661	-0.298876
H211	H	0.823536	0.245867	-0.749474
H212	H	1.323536	0.745867	-0.249474
O213	O	0.252470	0.438207	0.000181
O214	O	0.752470	0.938207	0.500181
C215	C	0.302009	0.495011	0.000177
C216	C	0.802009	0.995011	0.500177
H217	H	0.375598	0.500061	0.030403
H218	H	0.875598	1.000061	0.530403
H219	H	0.278158	0.532426	0.046543
H220	H	0.778158	1.032426	0.546543
H221	H	0.292331	0.498482	-0.076416
H222	H	0.792331	0.998482	0.423584
H223	H	1.166754	0.419382	-0.741823
H224	H	1.666754	0.919382	-0.241823
H225	H	0.796270	-0.290935	0.000123
H226	H	1.296270	0.209065	0.500123
H227	H	0.977959	0.254639	-0.741851
H228	H	1.477959	0.754639	-0.241851
H229	H	0.612883	0.112525	0.000045
H230	H	1.112883	0.612525	0.500045
O231	O	0.859684	-0.444241	-0.000027
O232	O	1.359684	0.055759	0.499973
C233	C	0.838366	-0.425360	-0.082733
C234	C	1.338366	0.074640	0.417267
H235	H	0.901086	-0.413086	-0.110296
H236	H	1.401086	0.086914	0.389704
H237	H	0.809692	-0.384122	-0.064140
H238	H	1.309692	0.115878	0.435860
H239	H	0.787081	-0.463601	-0.140639
H240	H	1.287081	0.036399	0.359361
H241	H	1.155420	-0.520778	0.000122
H242	H	1.655420	-0.020778	0.500122
H243	H	1.167274	0.135960	0.000052
H244	H	1.667274	0.635960	0.500052
H245	H	1.240996	-0.128713	0.000097
H246	H	1.740996	0.371287	0.500097
H247	H	0.853229	0.145823	-0.591103
H248	H	1.353229	0.645823	-0.091103
H249	H	0.879872	-0.007080	0.000039
H250	H	1.379872	0.492920	0.500039
O251	O	1.251388	-0.239958	0.000065
O252	O	1.751388	0.260042	0.500065
C253	C	1.321517	-0.192365	0.000088
C254	C	1.821517	0.307635	0.500088
H255	H	1.292914	-0.158170	-0.030135
H256	H	1.792914	0.341830	0.469865
H257	H	1.366571	-0.211285	-0.046272
H258	H	1.866571	0.288715	0.453728
H259	H	1.361772	-0.169156	0.076686
H260	H	1.861772	0.330844	0.576686
H261	H	1.157382	-0.412598	0.000111
H262	H	1.657382	0.087402	0.500111
H263	H	0.300010	0.251719	0.000087
H264	H	0.800010	0.751719	0.500087
O265	O	0.869645	0.104383	0.000093
O266	O	1.369645	0.604383	0.500093
C267	C	0.887585	0.165460	0.000065
C268	C	1.387585	0.665460	0.500065
H269	H	0.961634	0.187344	0.030287
H270	H	1.461634	0.687344	0.530287
H271	H	0.847418	0.190412	0.046422
H272	H	1.347418	0.690412	0.546422
H273	H	0.868210	0.168012	-0.076535
H274	H	1.368210	0.668012	0.423465
H275	H	1.059291	0.325686	-0.257999
H276	H	1.559291	0.825686	0.242001
H277	H	0.366071	0.204589	0.000052
H278	H	0.866071	0.704589	0.500052
H279	H	0.832562	0.127808	-0.440350
H280	H	1.332562	0.627808	0.059650
H281	H	0.776144	0.148456	0.000045
H282	H	1.276144	0.648456	0.500045
H283	H	1.108598	0.368686	-0.317577
H284	H	1.608598	0.868686	0.182423
H285	H	0.467174	0.132471	0.000052
H286	H	0.967174	0.632471	0.500052
H287	H	1.204691	0.452519	-0.559493
H288	H	1.704691	0.952519	-0.059493
O289	O	0.685352	0.378859	0.000280
O290	O	1.185352	0.878859	0.500280
C291	C	0.738516	0.373243	0.082960
C292	C	1.238516	0.873243	0.582960
H293	H	0.698495	0.373197	0.140750
H294	H	1.198495	0.873197	0.640750
H295	H	0.799876	0.412925	0.110729
H296	H	1.299876	0.912925	0.610729
H297	H	0.760167	0.329068	0.064261
H298	H	1.260167	0.829068	0.564261
H299	H	1.184025	0.434506	-0.408748
H300	H	1.684025	0.934506	0.091252
