data_functionalizedCrystal
_audit_creation_method	'MofGen! by Chris Wilmer'
_symmetry_space_group_name_H-M	'P1'
_symmetry_Int_Tables_number	1
_symmetry_cell_setting	triclinic
loop_
_symmetry_equiv_pos_as_xyz
  x,y,z
_cell_length_a	14.519709
_cell_length_b	13.596369
_cell_length_c	14.519709
_cell_angle_alpha	89.993066
_cell_angle_beta	83.680145
_cell_angle_gamma	90.000291
loop_
_atom_site_label
_atom_site_type_symbol
_atom_site_fract_x
_atom_site_fract_y
_atom_site_fract_z
O1	O	-1.223868	0.081665	-0.120893
O2	O	-0.890535	0.414999	0.212441
O3	O	-0.557202	0.748332	0.545774
O4	O	-0.955392	0.081696	-0.135129
O5	O	-0.622058	0.415029	0.198204
O6	O	-0.288725	0.748362	0.531537
O7	O	-1.096748	0.081671	0.006227
O8	O	-0.763415	0.415004	0.339561
O9	O	-0.430082	0.748338	0.672894
O10	O	-1.082512	0.081690	-0.262249
O11	O	-0.749178	0.415024	0.071084
O12	O	-0.415845	0.748357	0.404417
O13	O	-1.096734	-0.081912	0.006235
O14	O	-0.763401	0.251421	0.339568
O15	O	-0.430067	0.584755	0.672902
O16	O	-0.955377	-0.081887	-0.135122
O17	O	-0.622044	0.251446	0.198212
O18	O	-0.288711	0.584780	0.531545
O19	O	-1.223854	-0.081917	-0.120885
O20	O	-0.890521	0.251416	0.212448
O21	O	-0.557188	0.584749	0.545781
Zn22	Zn	-1.089614	-0.107875	-0.128002
Zn23	Zn	-0.756280	0.225459	0.205331
Zn24	Zn	-0.422947	0.558792	0.538664
Zn25	Zn	-1.089632	0.107653	-0.128012
Zn26	Zn	-0.756299	0.440986	0.205321
Zn27	Zn	-0.422966	0.774320	0.538654
O28	O	-1.082498	-0.081893	-0.262242
O29	O	-0.749164	0.251441	0.071091
O30	O	-0.415831	0.584774	0.404425
C31	C	-0.921025	-0.000092	-0.134462
C32	C	-0.587691	0.333241	0.198871
C33	C	-0.254358	0.666575	0.532205
C34	C	-0.818643	-0.000081	-0.132474
C35	C	-0.485310	0.333253	0.200859
C36	C	-0.151977	0.666586	0.534193
C37	C	-1.258221	-0.000128	-0.121553
C38	C	-0.924888	0.333206	0.211781
C39	C	-0.591554	0.666539	0.545114
C40	C	-1.360602	-0.000132	-0.123541
C41	C	-1.027269	0.333201	0.209793
C42	C	-0.693936	0.666534	0.543126
N43	N	-1.089608	-0.254966	-0.127995
N44	N	-0.756274	0.078367	0.205338
N45	N	-0.422941	0.411700	0.538672
C46	C	-1.096078	-0.000121	0.040591
C47	C	-0.762744	0.333213	0.373924
C48	C	-0.429411	0.666546	0.707258
C49	C	-1.094090	-0.000121	0.142972
C50	C	-0.760756	0.333212	0.476306
C51	C	-0.427423	0.666546	0.809639
C52	C	-0.443748	-0.000126	-0.125154
C53	C	-0.110414	0.333207	0.208179
C54	C	0.222919	0.666541	0.541512
C55	C	-0.548056	-0.000113	-0.127187
C56	C	-0.214722	0.333220	0.206146
C57	C	0.118611	0.666554	0.539480
C58	C	-0.631192	-0.000102	-0.128814
C59	C	-0.297859	0.333231	0.204519
C60	C	0.035474	0.666564	0.537853
C61	C	-0.735507	-0.000091	-0.130847
C62	C	-0.402173	0.333242	0.202486
C63	C	-0.068840	0.666575	0.535820
C64	C	-1.089631	-0.656257	-0.128013
C65	C	-0.756298	-0.322924	0.205320
C66	C	-0.422964	0.010409	0.538653
C67	C	-1.089622	-0.544606	-0.128011
C68	C	-0.756288	-0.211273	0.205322
C69	C	-0.422955	0.122061	0.538655
C70	C	-1.089620	-0.455615	-0.128005
C71	C	-0.756286	-0.122282	0.205329
C72	C	-0.422953	0.211051	0.538662
C73	C	-1.089610	-0.343957	-0.128001
C74	C	-0.756276	-0.010624	0.205332
C75	C	-0.422943	0.322710	0.538665
N76	N	-1.089645	0.254745	-0.128012
N77	N	-0.756312	0.588078	0.205321
N78	N	-0.422979	0.921411	0.538654
C79	C	-1.083168	-0.000099	-0.296605
C80	C	-0.749835	0.333234	0.036728
C81	C	-0.416501	0.666568	0.370061
C82	C	-1.085156	-0.000092	-0.398987
C83	C	-0.751823	0.333241	-0.065653
C84	C	-0.418490	0.666575	0.267680
C85	C	-1.086770	-0.000095	0.517868
C86	C	-0.753437	0.333239	0.851201
C87	C	-0.420103	0.666572	1.184535
C88	C	-1.088803	-0.000102	0.413560
C89	C	-0.755469	0.333231	0.746893
C90	C	-0.422136	0.666564	1.080227
C91	C	-1.090430	-0.000109	0.330423
C92	C	-0.757096	0.333225	0.663757
C93	C	-0.423763	0.666558	0.997090
C94	C	-1.092463	-0.000114	0.226109
C95	C	-0.759129	0.333219	0.559442
C96	C	-0.425796	0.666552	0.892776
