data_functionalizedCrystal
_audit_creation_method	'MofGen! by Chris Wilmer'
_symmetry_space_group_name_H-M	'P1'
_symmetry_Int_Tables_number	1
_symmetry_cell_setting	triclinic
loop_
_symmetry_equiv_pos_as_xyz
  x,y,z
_cell_length_a	21.395362
_cell_length_b	15.297327
_cell_length_c	21.395355
_cell_angle_alpha	99.659679
_cell_angle_beta	89.956060
_cell_angle_gamma	99.725883
loop_
_atom_site_label
_atom_site_type_symbol
_atom_site_fract_x
_atom_site_fract_y
_atom_site_fract_z
Zn1	Zn	0.914743	-0.358918	-0.397693
Zn2	Zn	1.414743	0.141082	0.102307
Zn3	Zn	0.896524	-0.509774	-0.311034
Zn4	Zn	1.396524	-0.009774	0.188966
Zn5	Zn	0.809953	-0.358960	-0.292899
Zn6	Zn	1.309953	0.141040	0.207101
Zn7	Zn	0.791803	-0.509792	-0.415741
Zn8	Zn	1.291803	-0.009792	0.084259
O9	O	0.853256	-0.434361	-0.354342
O10	O	1.353256	0.065639	0.145658
O11	O	1.000007	-0.378904	-0.386234
O12	O	1.500007	0.121096	0.113766
O13	O	0.885011	-0.489778	-0.220951
O14	O	1.385011	0.010222	0.279049
O15	O	0.839075	-0.232697	-0.291658
O16	O	1.339075	0.267303	0.208342
O17	O	0.986621	-0.489737	-0.322566
O18	O	1.486621	0.010263	0.177434
O19	O	0.916063	-0.232666	-0.368649
O20	O	1.416063	0.267334	0.131351
O21	O	0.821408	-0.378975	-0.207628
O22	O	1.321408	0.121025	0.292372
O23	O	0.719864	-0.378993	-0.309158
O24	O	1.219864	0.121007	0.190842
O25	O	0.808140	-0.489769	-0.501023
O26	O	1.308140	0.010231	-0.001023
O27	O	0.706530	-0.489810	-0.399409
O28	O	1.206530	0.010190	0.100591
O29	O	0.898464	-0.378922	-0.487764
O30	O	1.398464	0.121078	0.012236
O31	O	0.867411	-0.636034	-0.340066
O32	O	1.367411	-0.136034	0.159934
O33	O	0.790473	-0.636048	-0.416993
O34	O	1.290473	-0.136048	0.083007
C35	C	0.690462	-0.434409	-0.354275
C36	C	1.190462	0.065591	0.145725
C37	C	0.620816	-0.434451	-0.354263
C38	C	1.120816	0.065549	0.145737
C39	C	0.581167	-0.492229	-0.401206
C40	C	1.081167	0.007771	0.098794
C41	C	0.515734	-0.492207	-0.401232
C42	C	1.015734	0.007793	0.098768
C43	C	0.489952	-0.434416	-0.354304
C44	C	0.989952	0.065584	0.145696
C45	C	0.529610	-0.376627	-0.307357
C46	C	1.029610	0.123373	0.192643
C47	C	0.595042	-0.376644	-0.307337
C48	C	1.095042	0.123356	0.192663
C49	C	0.387100	-0.427148	-0.297026
C50	C	0.887100	0.072852	0.202974
C51	C	0.321669	-0.427137	-0.297046
C52	C	0.821669	0.072863	0.202954
C53	C	0.288138	-0.434357	-0.354366
C54	C	0.788138	0.065643	0.145634
C55	C	0.320045	-0.441608	-0.411670
C56	C	0.820045	0.058392	0.088330
C57	C	0.385477	-0.441625	-0.411650
C58	C	0.885477	0.058375	0.088350
C59	C	0.419003	-0.434390	-0.354321
C60	C	0.919003	0.065610	0.145679
C61	C	0.177539	-0.492115	-0.401340
C62	C	0.677539	0.007885	0.098660
C63	C	0.112106	-0.492086	-0.401366
C64	C	0.612106	0.007914	0.098634
C65	C	0.125983	-0.376510	-0.307486
C66	C	0.625983	0.123490	0.192514
C67	C	0.191415	-0.376534	-0.307465
C68	C	0.691415	0.123466	0.192535
C69	C	0.217189	-0.434341	-0.354392
C70	C	0.717189	0.065659	0.145608
C71	C	0.825013	-0.668778	-0.382470
C72	C	1.325013	-0.168778	0.117530
C73	C	0.812988	-0.769063	-0.394524
C74	C	1.312988	-0.269063	0.105476
C75	C	0.939459	-1.051594	-0.268402
C76	C	1.439459	-0.551594	0.231598
C77	C	0.950757	-0.957372	-0.257073
C78	C	1.450757	-0.457372	0.242927
C79	C	0.916316	-0.910290	-0.291435
C80	C	1.416316	-0.410290	0.208565
C81	C	0.870575	-0.957440	-0.337127
C82	C	1.370575	-0.457440	0.162873
C83	C	0.859272	-1.051671	-0.348454
C84	C	1.359272	-0.551671	0.151546
C85	C	0.836129	-0.910367	-0.371487
C86	C	1.336129	-0.410367	0.128513
C87	C	0.790387	-0.957517	-0.417179
C88	C	1.290387	-0.457517	0.082821
C89	C	0.779087	-1.051739	-0.428503
C90	C	1.279087	-0.551739	0.071497
C91	C	0.813528	-1.098821	-0.394142
C92	C	1.313528	-0.598821	0.105858
C93	C	0.847431	-0.816135	-0.360160
C94	C	1.347431	-0.316135	0.139840
C95	C	0.767244	-0.816212	-0.440212
C96	C	1.267244	-0.316212	0.059788
C97	C	0.755946	-0.910435	-0.451540
C98	C	1.255946	-0.410435	0.048460
C99	C	1.016685	-0.434314	-0.354409
C100	C	1.516685	0.065686	0.145591
C101	C	1.086328	-0.434294	-0.354438
C102	C	1.586328	0.065706	0.145562
C103	C	0.853310	-0.434343	-0.517763
C104	C	1.353310	0.065657	-0.017763
C105	C	0.853333	-0.434335	-0.587403
C106	C	1.353333	0.065665	-0.087403
C107	C	0.881626	-0.199029	-0.326118
C108	C	1.381626	0.300971	0.173882
C109	C	0.893716	-0.098744	-0.314090
C110	C	1.393716	0.401256	0.185910
C111	C	0.900363	-0.376615	-0.613213
C112	C	1.400363	0.123385	-0.113213
C113	C	0.900367	-0.376576	-0.678643
C114	C	1.400367	0.123424	-0.178643
C115	C	0.853345	-0.434273	-0.718264
C116	C	1.353345	0.065727	-0.218264
C117	C	0.806307	-0.491998	-0.692447
C118	C	1.306307	0.008002	-0.192447
C119	C	0.806301	-0.492029	-0.627017
C120	C	1.306301	0.007971	-0.127017
C121	C	0.838610	-0.515514	-0.831685
C122	C	1.338610	-0.015514	-0.331685
C123	C	0.838620	-0.515485	-0.897115
C124	C	1.338620	-0.015485	-0.397115
C125	C	0.853361	-0.434178	-0.920074
C126	C	1.353361	0.065822	-0.420074
C127	C	0.868104	-0.352898	-0.877594
C128	C	1.368104	0.147102	-0.377594
C129	C	0.868098	-0.352928	-0.812164
C130	C	1.368098	0.147072	-0.312164
C131	C	0.853346	-0.434246	-0.789213
C132	C	1.353346	0.065754	-0.289213
C133	C	0.900398	-0.376411	-1.016830
C134	C	1.400398	0.123589	-0.516830
C135	C	0.900397	-0.376370	-1.082262
C136	C	1.400397	0.123630	-0.582262
C137	C	0.806339	-0.491801	-1.096065
C138	C	1.306339	0.008199	-0.596065
C139	C	0.806338	-0.491833	-1.030634
C140	C	1.306338	0.008167	-0.530634
C141	C	0.853370	-0.434139	-0.991020
C142	C	1.353370	0.065861	-0.491020
C143	C	0.853246	-0.434314	-0.191548
C144	C	1.353246	0.065686	0.308452
C145	C	0.853374	-0.434068	-0.121878
C146	C	1.353374	0.065932	0.378122
H147	H	0.627326	-0.329591	-0.269110
H148	H	1.127326	0.170409	0.230890
H149	H	0.739198	-0.777879	-0.468191
H150	H	1.239198	-0.277879	0.031809
H151	H	0.414396	-0.421264	-0.250345
H152	H	0.914396	0.078736	0.249655
H153	H	0.768020	-0.538973	-0.724710
H154	H	1.268020	-0.038973	-0.224710
C155	C	0.097634	-0.312937	-0.255866
C156	C	0.597634	0.187063	0.244134
H157	H	0.130623	-0.278525	-0.227906
H158	H	0.630623	0.221475	0.272094
H159	H	0.067914	-0.347381	-0.232670
H160	H	0.567914	0.152619	0.267330
H161	H	0.076883	-0.273665	-0.275181
H162	H	0.576883	0.226335	0.224819
H163	H	0.826619	-0.581669	-0.931697
H164	H	1.326619	-0.081669	-0.431697
H165	H	0.967493	-1.089937	-0.240426
H166	H	1.467493	-0.589937	0.259574
H167	H	0.079824	-0.539135	-0.439596
H168	H	0.579824	-0.039135	0.060404
H169	H	0.884674	-0.777754	-0.322957
H170	H	1.384674	-0.277754	0.177043
H171	H	0.223698	-0.329489	-0.269237
H172	H	0.723698	0.170511	0.230763
H173	H	0.938660	-0.329635	-0.580963
H174	H	1.438660	0.170365	-0.080963
H175	H	0.880108	-0.286690	-0.896285
H176	H	1.380108	0.213310	-0.396285
H177	H	0.938664	-0.329568	-0.699661
H178	H	1.438664	0.170432	-0.199661
H179	H	0.987999	-0.918986	-0.219871
H180	H	1.487999	-0.418986	0.280129
C181	C	0.728773	-1.103606	-0.478762
C182	C	1.228773	-0.603606	0.021238
H183	H	0.726973	-1.166466	-0.480583
H184	H	1.226973	-0.666466	0.019417
H185	H	0.739782	-1.088120	-0.519008
H186	H	1.239782	-0.588120	-0.019008
H187	H	0.688520	-1.088238	-0.467692
H188	H	1.188520	-0.588238	0.032308
H189	H	0.925517	-0.833570	-0.282208
H190	H	1.425517	-0.333570	0.217792
H191	H	0.804334	-1.175544	-0.403365
H192	H	1.304334	-0.675544	0.096635
H193	H	0.718703	-0.948837	-0.488743
H194	H	1.218703	-0.448837	0.011257
H195	H	0.768000	-0.539030	-0.606004
H196	H	1.268000	-0.039030	-0.106004
H197	H	0.880101	-0.286747	-0.777580
H198	H	1.380101	0.213253	-0.277580
C199	C	0.952121	-0.312937	-0.973251
C200	C	1.452121	0.187063	-0.473251
H201	H	0.980125	-0.278542	-0.997995
H202	H	1.480125	0.221458	-0.497995
H203	H	0.975262	-0.347447	-0.951889
H204	H	1.475262	0.152553	-0.451889
H205	H	0.932881	-0.273645	-0.942990
H206	H	1.432881	0.226355	-0.442990
H207	H	0.938694	-0.329362	-1.103273
H208	H	1.438694	0.170638	-0.603273
C209	C	0.501253	-0.313058	-0.255738
C210	C	1.001253	0.186942	0.244262
H211	H	0.456604	-0.321329	-0.262469
H212	H	0.956604	0.178671	0.237531
H213	H	0.519307	-0.252460	-0.257702
H214	H	1.019307	0.247540	0.242298
H215	H	0.510345	-0.326180	-0.215194
H216	H	1.010345	0.173820	0.284806
H217	H	0.602147	-0.539299	-0.439419
H218	H	1.102147	-0.039299	0.060581
H219	H	0.483445	-0.539257	-0.439461
H220	H	0.983445	-0.039257	0.060539
C221	C	0.754620	-0.555273	-1.139641
C222	C	1.254620	-0.055273	-0.639641
H223	H	0.761361	-0.546994	-1.182307
H224	H	1.261361	-0.046994	-0.682307
H225	H	0.714109	-0.542094	-1.127305
H226	H	1.214109	-0.042094	-0.627305
H227	H	0.756489	-0.615898	-1.136203
H228	H	1.256489	-0.115898	-0.636203
H229	H	0.768044	-0.538841	-1.009621
H230	H	1.268044	-0.038841	-0.509621
C231	C	0.822260	-0.604941	-0.806435
C232	C	1.322260	-0.104941	-0.306435
H233	H	0.813449	-0.653337	-0.841103
H234	H	1.313449	-0.153337	-0.341103
H235	H	0.786062	-0.603662	-0.780780
H236	H	1.286062	-0.103662	-0.280780
H237	H	0.857152	-0.612992	-0.781853
H238	H	1.357152	-0.112992	-0.281853
C239	C	0.286577	-0.419160	-0.234015
C240	C	0.786577	0.080840	0.265985
H241	H	0.315918	-0.414844	-0.199873
H242	H	0.815918	0.085156	0.300127
H243	H	0.254800	-0.470848	-0.234654
H244	H	0.754800	0.029152	0.265346
H245	H	0.267373	-0.366849	-0.228626
H246	H	0.767373	0.133151	0.271374
H247	H	0.292746	-0.447486	-0.458346
H248	H	0.792746	0.052514	0.041654
C249	C	0.420574	-0.449587	-0.474678
C250	C	0.920574	0.050413	0.025322
H251	H	0.391239	-0.453878	-0.508821
H252	H	0.891239	0.046122	-0.008821
H253	H	0.439783	-0.501888	-0.480074
H254	H	0.939783	-0.001888	0.019926
H255	H	0.452350	-0.397887	-0.474026
H256	H	0.952350	0.102113	0.025974
H257	H	0.198525	-0.539180	-0.439553
H258	H	0.698525	-0.039180	0.060447
