data_functionalizedCrystal
_audit_creation_method	'MofGen! by Chris Wilmer'
_symmetry_space_group_name_H-M	'P1'
_symmetry_Int_Tables_number	1
_symmetry_cell_setting	triclinic
loop_
_symmetry_equiv_pos_as_xyz
  x,y,z
_cell_length_a	12.759401
_cell_length_b	12.827892
_cell_length_c	12.759393
_cell_angle_alpha	89.969144
_cell_angle_beta	89.981504
_cell_angle_gamma	90.015553
loop_
_atom_site_label
_atom_site_type_symbol
_atom_site_fract_x
_atom_site_fract_y
_atom_site_fract_z
Zn1	Zn	1.606250	-0.415967	-0.593987
Zn2	Zn	1.606143	-0.590748	-0.418309
Zn3	Zn	1.430552	-0.416022	-0.418326
Zn4	Zn	1.430539	-0.590667	-0.593950
O5	O	1.518371	-0.503351	-0.506143
O6	O	1.753257	-0.439163	-0.570691
O7	O	1.582811	-0.567626	-0.271290
O8	O	1.453910	-0.269778	-0.441650
O9	O	1.753178	-0.567573	-0.441621
O10	O	1.582994	-0.269738	-0.570707
O11	O	1.453805	-0.439256	-0.271303
O12	O	1.283530	-0.439178	-0.441615
O13	O	1.453887	-0.567436	-0.740976
O14	O	1.283520	-0.567489	-0.570645
O15	O	1.582981	-0.439085	-0.741003
O16	O	1.582798	-0.736973	-0.441586
O17	O	1.453782	-0.736914	-0.570629
C18	C	1.245404	-0.503332	-0.506129
C19	C	1.128627	-0.503349	-0.506147
C20	C	1.073787	-0.570267	-0.573222
C21	C	0.964063	-0.570280	-0.573234
C22	C	0.964028	-0.436453	-0.439086
C23	C	1.073750	-0.436436	-0.439081
C24	C	1.073807	-0.647534	-0.650668
C25	C	0.964083	-0.647548	-0.650680
C26	C	1.518305	-0.774861	-0.506124
C27	C	1.518373	-0.891014	-0.506152
C28	C	1.582290	-0.942793	-0.442368
C29	C	1.582362	-1.062843	-0.442395
C30	C	1.792404	-0.503371	-0.506158
C31	C	1.909181	-0.503379	-0.506164
C32	C	1.518445	-0.503245	-0.780176
C33	C	1.518476	-0.503200	-0.896953
C34	C	1.518466	-0.230781	-0.506184
C35	C	1.518506	-0.114628	-0.506202
C36	C	1.585705	-0.436361	-0.951831
C37	C	1.585730	-0.436324	-1.061555
C38	C	1.451294	-0.569973	-1.061514
C39	C	1.451265	-0.570005	-0.951792
C40	C	1.663323	-0.359203	-0.951855
C41	C	1.663348	-0.359165	-1.061579
C42	C	1.518358	-0.503380	-0.233176
C43	C	1.518530	-0.503131	-0.116399
H44	H	0.919334	-0.381975	-0.384484
O45	O	1.385864	-0.634756	-1.114741
C46	C	1.281155	-0.611935	-1.087906
H47	H	1.275873	-0.528460	-1.057761
H48	H	1.229264	-0.620909	-1.160058
H49	H	1.253656	-0.667980	-1.024203
H50	H	1.637080	-1.107373	-0.387784
O51	O	1.647661	-0.889708	-0.377302
C52	C	1.752400	-0.916216	-0.400312
H53	H	1.757710	-0.946218	-0.484229
H54	H	1.804203	-0.844352	-0.391351
H55	H	1.779984	-0.979511	-0.343965
O56	O	1.127072	-0.371314	-0.374083
C57	C	1.190588	-0.303905	-0.434020
H58	H	1.157552	-0.297561	-0.516779
H59	H	1.191830	-0.223434	-0.396170
H60	H	1.273742	-0.336208	-0.437577
O61	O	1.755506	-0.393951	-0.911366
C62	C	1.773907	-0.496838	-0.945543
H63	H	1.728380	-0.511728	-1.020926
H64	H	1.861228	-0.508008	-0.960768
H65	H	1.746994	-0.553973	-0.882573
H66	H	1.463777	-1.070106	-0.560809
H67	H	1.107820	-0.724374	-0.621385
H68	H	0.930085	-0.618659	-0.728031
H69	H	0.934286	-0.728463	-0.628749
O70	O	1.453006	-0.944033	-0.571275
C71	C	1.348264	-0.917569	-0.548224
H72	H	1.345986	-0.838327	-0.507888
H73	H	1.301108	-0.913929	-0.624010
H74	H	1.313001	-0.979048	-0.494138
H75	H	1.396517	-0.624428	-0.907115
O76	O	1.637164	-0.262692	-0.916396
C77	C	1.536550	-0.235998	-0.953337
H78	H	1.491148	-0.310042	-0.972814
H79	H	1.492904	-0.190433	-0.890275
H80	H	1.544239	-0.185935	-1.026790
O81	O	1.109249	-0.621906	-0.747860
C82	C	1.072364	-0.695385	-0.821255
H83	H	0.998959	-0.734857	-0.789258
H84	H	1.052825	-0.654151	-0.897966
H85	H	1.135481	-0.756561	-0.835892
O86	O	1.628455	-0.267514	-1.102250
C87	C	1.539051	-0.286115	-1.164411
H88	H	1.500384	-0.362083	-1.138750
H89	H	1.481265	-0.219070	-1.154528
H90	H	1.563206	-0.292233	-1.250216
O91	O	1.760337	-0.385143	-1.097247
C92	C	1.753563	-0.476291	-1.158578
H93	H	1.670328	-0.485090	-1.189795
H94	H	1.810636	-0.470556	-1.227100
H95	H	1.774249	-0.546929	-1.108435
