data_functionalizedCrystal
_audit_creation_method	'MofGen! by Chris Wilmer'
_symmetry_space_group_name_H-M	'P1'
_symmetry_Int_Tables_number	1
_symmetry_cell_setting	triclinic
loop_
_symmetry_equiv_pos_as_xyz
  x,y,z
_cell_length_a	17.077404
_cell_length_b	17.077402
_cell_length_c	17.077396
_cell_angle_alpha	89.970216
_cell_angle_beta	89.980499
_cell_angle_gamma	90.023108
loop_
_atom_site_label
_atom_site_type_symbol
_atom_site_fract_x
_atom_site_fract_y
_atom_site_fract_z
Zn1	Zn	1.200055	-0.312503	-0.443836
Zn2	Zn	1.199962	-0.443778	-0.312567
Zn3	Zn	1.068786	-0.312531	-0.312584
Zn4	Zn	1.068754	-0.443732	-0.443790
O5	O	1.134389	-0.378136	-0.378194
O6	O	1.309889	-0.329925	-0.426434
O7	O	1.182536	-0.426399	-0.202722
O8	O	1.086252	-0.202680	-0.330021
O9	O	1.309821	-0.426372	-0.329992
O10	O	1.182694	-0.202660	-0.426451
O11	O	1.086162	-0.329972	-0.202734
O12	O	0.958935	-0.329927	-0.329976
O13	O	1.086197	-0.426293	-0.553643
O14	O	0.958912	-0.426320	-0.426373
O15	O	1.182663	-0.329880	-0.553677
O16	O	1.182505	-0.553619	-0.329948
O17	O	1.086107	-0.553585	-0.426357
C18	C	0.930441	-0.378122	-0.378172
C19	C	0.843192	-0.378135	-0.378182
C20	C	0.802210	-0.428402	-0.428295
C21	C	0.720229	-0.428404	-0.428308
C22	C	0.679232	-0.378141	-0.378202
C23	C	0.720220	-0.327869	-0.328087
C24	C	0.802199	-0.327863	-0.328079
C25	C	0.549350	-0.327884	-0.328106
C26	C	0.467365	-0.327890	-0.328112
C27	C	0.467380	-0.428424	-0.428335
C28	C	0.549359	-0.428419	-0.428327
C29	C	0.590341	-0.378147	-0.378210
C30	C	1.134314	-0.582084	-0.378163
C31	C	1.134353	-0.669334	-0.378176
C32	C	1.184598	-0.710316	-0.328029
C33	C	1.184637	-0.792296	-0.328049
C34	C	1.134425	-0.833293	-0.378212
C35	C	1.084178	-0.792305	-0.428364
C36	C	1.084144	-0.710327	-0.428348
C37	C	1.084250	-0.963175	-0.428394
C38	C	1.084283	-1.045160	-0.428410
C39	C	1.184743	-1.045145	-0.328096
C40	C	1.184709	-0.963166	-0.328079
C41	C	1.134461	-0.922184	-0.378230
C42	C	1.339134	-0.378151	-0.378216
C43	C	1.426383	-0.378157	-0.378226
C44	C	1.134437	-0.378078	-0.582938
C45	C	1.134457	-0.378054	-0.670188
C46	C	1.134487	-0.173392	-0.378243
C47	C	1.134528	-0.086142	-0.378263
C48	C	1.184689	-0.327847	-0.711197
C49	C	1.184698	-0.327821	-0.793178
C50	C	1.134479	-0.378006	-0.834148
C51	C	1.084242	-0.428214	-0.793133
C52	C	1.084229	-0.428236	-0.711154
C53	C	1.084274	-0.428167	-0.964003
C54	C	1.084288	-0.428147	-1.045988
C55	C	1.184742	-0.327752	-1.046027
C56	C	1.184730	-0.327774	-0.964048
C57	C	1.134493	-0.377984	-0.923039
C58	C	1.134387	-0.378137	-0.174246
C59	C	1.134519	-0.377941	-0.086997
H60	H	0.582737	-0.469352	-0.469122
H61	H	0.686866	-0.469337	-0.469114
H62	H	0.835565	-0.286927	-0.287275
N63	N	1.238875	-0.273678	-0.837420
H64	H	1.206994	-0.237291	-0.871434
H65	H	1.270684	-0.241941	-0.798986
H66	H	1.043318	-0.469111	-0.677766
N67	N	0.846427	-0.482613	-0.482338
H68	H	0.880411	-0.518948	-0.450368
H69	H	0.807973	-0.514403	-0.514077
N70	N	0.676009	-0.273661	-0.274035
H71	H	0.690258	-0.285787	-0.217931
H72	H	0.690317	-0.217610	-0.286389
N73	N	0.423185	-0.482649	-0.482389
H74	H	0.365030	-0.475025	-0.474795
H75	H	0.437545	-0.470507	-0.538471
N76	N	1.029952	-0.666115	-0.482430
H77	H	1.042116	-0.680332	-0.538531
H78	H	0.973899	-0.680451	-0.470125
H79	H	0.433988	-0.286953	-0.287321
N80	N	1.030020	-0.836526	-0.482465
H81	H	0.973936	-0.822310	-0.470219
H82	H	1.042239	-0.822194	-0.538539
N83	N	1.238886	-0.273645	-0.919851
H84	H	1.275240	-0.305558	-0.885834
H85	H	1.270659	-0.241840	-0.958313
H86	H	1.225645	-0.286868	-1.079420
N87	N	0.593557	-0.273669	-0.274049
H88	H	0.627597	-0.237329	-0.306010
H89	H	0.555100	-0.241882	-0.242315
N90	N	1.030125	-0.482273	-1.090180
H91	H	0.998295	-0.514080	-1.051764
H92	H	0.993825	-0.450304	-1.124198
N93	N	1.030088	-0.482317	-0.919770
H94	H	0.998278	-0.514108	-0.958162
H95	H	1.062019	-0.518654	-0.885752
N96	N	1.238753	-0.666100	-0.273921
H97	H	1.270590	-0.704505	-0.242159
H98	H	1.275047	-0.632034	-0.305902
N99	N	1.030083	-0.482348	-0.837321
H100	H	0.998259	-0.514156	-0.798900
H101	H	0.993777	-0.450386	-0.871339
N102	N	1.238827	-0.836500	-0.273961
H103	H	1.294900	-0.822175	-0.286196
H104	H	1.226590	-0.822268	-0.217883
N105	N	1.238866	-0.918945	-0.273978
H106	H	1.270707	-0.957345	-0.242213
H107	H	1.275156	-0.884882	-0.305965
N108	N	1.030130	-1.089377	-0.482518
H109	H	1.062029	-1.123342	-0.518923
H110	H	0.993794	-1.123396	-0.450535
N111	N	1.238941	-1.089341	-0.274002
H112	H	1.231349	-1.147495	-0.281626
H113	H	1.294990	-1.074953	-0.286265
H114	H	1.043335	-0.929811	-0.469235
H115	H	1.225585	-0.286983	-0.677845
