data_functionalizedCrystal
_audit_creation_method	'MofGen! by Chris Wilmer'
_symmetry_space_group_name_H-M	'P1'
_symmetry_Int_Tables_number	1
_symmetry_cell_setting	triclinic
loop_
_symmetry_equiv_pos_as_xyz
  x,y,z
_cell_length_a	16.974800
_cell_length_b	14.519731
_cell_length_c	13.596369
_cell_angle_alpha	89.993185
_cell_angle_beta	93.650975
_cell_angle_gamma	83.539176
loop_
_atom_site_label
_atom_site_type_symbol
_atom_site_fract_x
_atom_site_fract_y
_atom_site_fract_z
O1	O	1.049322	0.117474	0.001762
O2	O	1.382656	0.450807	0.335096
O3	O	1.715989	0.784141	0.668429
O4	O	0.819138	0.132460	-0.016569
O5	O	1.152471	0.465793	0.316764
O6	O	1.485805	0.799127	0.650098
O7	O	0.940324	-0.009290	-0.006909
O8	O	1.273658	0.324043	0.326424
O9	O	1.606991	0.657377	0.659758
O10	O	0.928136	0.259224	-0.007898
O11	O	1.261469	0.592557	0.325436
O12	O	1.594802	0.925891	0.658769
O13	O	0.940311	-0.009297	0.156673
O14	O	1.273644	0.324037	0.490006
O15	O	1.606978	0.657370	0.823339
O16	O	0.819125	0.132453	0.147013
O17	O	1.152458	0.465787	0.480346
O18	O	1.485791	0.799120	0.813679
O19	O	1.049309	0.117467	0.165344
O20	O	1.382642	0.450801	0.498678
O21	O	1.715976	0.784134	0.832011
Zn22	Zn	0.934215	0.124959	0.182151
Zn23	Zn	1.267548	0.458292	0.515484
Zn24	Zn	1.600881	0.791626	0.848817
Zn25	Zn	0.934232	0.124968	-0.033376
Zn26	Zn	1.267565	0.458302	0.299958
Zn27	Zn	1.600899	0.791635	0.633291
O28	O	0.928122	0.259217	0.155684
O29	O	1.261456	0.592551	0.489018
O30	O	1.594789	0.925884	0.822351
C31	C	0.789672	0.131889	0.062876
C32	C	1.123005	0.465222	0.396209
C33	C	1.456339	0.798556	0.729542
C34	C	0.701893	0.130187	0.055886
C35	C	1.035226	0.463520	0.389219
C36	C	1.368559	0.796853	0.722552
C37	C	0.660651	0.129381	0.141772
C38	C	0.993985	0.462714	0.475106
C39	C	1.327318	0.796048	0.808439
C40	C	0.578175	0.127767	0.135207
C41	C	0.911509	0.461100	0.468540
C42	C	1.244842	0.794433	0.801874
C43	C	0.536941	0.126965	0.042754
C44	C	0.870274	0.460298	0.376087
C45	C	1.203608	0.793632	0.709421
C46	C	0.578188	0.127768	-0.043139
C47	C	0.911522	0.461101	0.290194
C48	C	1.244855	0.794435	0.623528
C49	C	0.660664	0.129376	-0.036573
C50	C	0.993997	0.462709	0.296760
C51	C	1.327331	0.796042	0.630094
C52	C	0.290277	0.122151	0.013554
C53	C	0.623610	0.455485	0.346887
C54	C	0.956944	0.788818	0.680221
C55	C	0.207795	0.120546	0.006994
C56	C	0.541129	0.453880	0.340328
C57	C	0.874462	0.787213	0.673661
C58	C	0.207788	0.120543	0.185341
C59	C	0.541121	0.453877	0.518674
C60	C	0.874455	0.787210	0.852008
C61	C	0.290264	0.122157	0.191899
C62	C	0.623598	0.455490	0.525233
C63	C	0.956931	0.788823	0.858566
C64	C	0.331505	0.122955	0.106006
C65	C	0.664839	0.456288	0.439340
C66	C	0.998172	0.789621	0.772673
N67	N	0.452637	0.125318	0.036041
N68	N	0.785970	0.458651	0.369374
N69	N	1.119303	0.791985	0.702708
N70	N	0.415809	0.124595	0.112720
N71	N	0.749142	0.457928	0.446054
N72	N	1.082475	0.791262	0.779387
C73	C	0.939746	-0.043651	0.074837
C74	C	1.273080	0.289682	0.408170
C75	C	1.606413	0.623016	0.741503
C76	C	0.938035	-0.146026	0.074701
C77	C	1.271368	0.187308	0.408034
C78	C	1.604702	0.520641	0.741368
C79	C	0.936645	-0.229165	0.074588
C80	C	1.269978	0.104168	0.407921
C81	C	1.603311	0.437501	0.741255
C82	C	0.934907	-0.333468	0.074442
C83	C	1.268240	-0.000135	0.407775
C84	C	1.601574	0.333198	0.741109
C85	C	0.933528	-0.416603	0.074326
C86	C	1.266861	-0.083269	0.407659
C87	C	1.600195	0.250064	0.740992
C88	C	0.931791	-0.520913	0.074182
C89	C	1.265124	-0.187579	0.407515
C90	C	1.598457	0.145754	0.740848
C91	C	1.078775	0.118038	0.085897
C92	C	1.412108	0.451372	0.419230
C93	C	1.745441	0.784705	0.752564
C94	C	1.166554	0.119740	0.092881
C95	C	1.499887	0.453074	0.426214
C96	C	1.833221	0.786407	0.759548
C97	C	0.928700	0.293578	0.073936
C98	C	1.262034	0.626912	0.407270
C99	C	1.595367	0.960245	0.740603
C100	C	0.930412	0.395953	0.074066
C101	C	1.263745	0.729286	0.407399
C102	C	1.597078	1.062620	0.740732
N103	N	0.934208	0.124952	0.329242
N104	N	1.267542	0.458286	0.662575
N105	N	1.600875	0.791619	0.995909
C106	C	0.934225	0.124972	0.730534
C107	C	1.267559	0.458305	1.063868
C108	C	1.600892	0.791639	1.397201
C109	C	0.934218	0.124970	0.618882
C110	C	1.267552	0.458303	0.952216
C111	C	1.600885	0.791636	1.285549
C112	C	0.934217	0.124963	0.529892
C113	C	1.267551	0.458296	0.863225
C114	C	1.600884	0.791629	1.196558
C115	C	0.934209	0.124959	0.418233
C116	C	1.267543	0.458292	0.751566
C117	C	1.600876	0.791626	1.084899
N118	N	0.934237	0.124971	0.819533
N119	N	1.267570	0.458305	1.152866
N120	N	1.600904	0.791638	1.486200
H121	H	0.544602	0.127095	0.205145
H122	H	0.877935	0.460429	0.538479
H123	H	1.211269	0.793762	0.871812
H124	H	0.323832	0.122805	0.267184
H125	H	0.657166	0.456138	0.600518
H126	H	0.990499	0.789472	0.933851
O127	O	0.334753	0.123022	-0.079083
O128	O	0.668087	0.456355	0.254251
O129	O	1.001420	0.789689	0.587584
H130	H	0.292221	0.122206	-0.144471
H131	H	0.625554	0.455539	0.188862
H132	H	0.958887	0.788873	0.522196
O133	O	0.163258	0.120150	0.277975
O134	O	0.496592	0.453483	0.611308
O135	O	0.829925	0.786817	0.944642
H136	H	0.098962	0.119064	0.257880
H137	H	0.432296	0.452397	0.591213
H138	H	0.765629	0.785731	0.924546
O139	O	0.533720	0.126907	-0.142860
O140	O	0.867053	0.460240	0.190473
O141	O	1.200387	0.793573	0.523806
H142	H	0.469439	0.125665	-0.132999
H143	H	0.802773	0.458998	0.200334
H144	H	1.136106	0.792331	0.533667
O145	O	0.163323	0.119675	-0.092731
O146	O	0.496656	0.453008	0.240603
O147	O	0.829990	0.786341	0.573936
H148	H	0.118796	0.181775	-0.100551
H149	H	0.452130	0.515108	0.232782
H150	H	0.785463	0.848442	0.566115
O151	O	0.705156	0.130243	-0.129203
O152	O	1.038490	0.463576	0.204130
O153	O	1.371823	0.796909	0.537464
H154	H	0.682382	0.192764	-0.173782
H155	H	1.015715	0.526098	0.159551
H156	H	1.349048	0.859431	0.492884
H157	H	0.694218	0.130041	0.217057
H158	H	1.027551	0.463375	0.550391
H159	H	1.360884	0.796708	0.883724
