data_functionalizedCrystal
_audit_creation_method	'MofGen! by Chris Wilmer'
_symmetry_space_group_name_H-M	'P1'
_symmetry_Int_Tables_number	1
_symmetry_cell_setting	triclinic
loop_
_symmetry_equiv_pos_as_xyz
  x,y,z
_cell_length_a	17.019372
_cell_length_b	17.038272
_cell_length_c	15.500227
_cell_angle_alpha	86.966746
_cell_angle_beta	91.029586
_cell_angle_gamma	92.757136
loop_
_atom_site_label
_atom_site_type_symbol
_atom_site_fract_x
_atom_site_fract_y
_atom_site_fract_z
O1	O	1.053042	-0.099898	0.006440
O2	O	1.386375	0.233435	0.339773
O3	O	1.719708	0.566768	0.673106
O4	O	0.825040	-0.111748	-0.010534
O5	O	1.158374	0.221585	0.322800
O6	O	1.491707	0.554919	0.656133
O7	O	0.937686	0.007996	-0.002141
O8	O	1.271019	0.341329	0.331192
O9	O	1.604352	0.674662	0.664526
O10	O	0.940397	-0.219642	-0.001953
O11	O	1.273730	0.113691	0.331380
O12	O	1.607063	0.447024	0.664714
O13	O	0.930848	0.000758	0.141238
O14	O	1.264182	0.334091	0.474572
O15	O	1.597515	0.667425	0.807905
O16	O	0.818203	-0.118986	0.132846
O17	O	1.151536	0.214347	0.466179
O18	O	1.484870	0.547681	0.799512
O19	O	1.046204	-0.107136	0.149819
O20	O	1.379538	0.226197	0.483152
O21	O	1.712871	0.559530	0.816486
Cu22	Cu	0.931579	-0.113722	0.154424
Cu23	Cu	1.264913	0.219611	0.487757
Cu24	Cu	1.598246	0.552945	0.821091
Cu25	Cu	0.939665	-0.105162	-0.015139
Cu26	Cu	1.272999	0.228171	0.318195
Cu27	Cu	1.606332	0.561504	0.651528
O28	O	0.933559	-0.226880	0.141426
O29	O	1.266892	0.106453	0.474760
O30	O	1.600226	0.439787	0.808093
C31	C	0.792305	-0.114776	0.058973
C32	C	1.125638	0.218557	0.392307
C33	C	1.458971	0.551891	0.725640
C34	C	0.704948	-0.113005	0.052470
C35	C	1.038282	0.220328	0.385804
C36	C	1.371615	0.553661	0.719137
C37	C	0.211070	-0.102765	0.011712
C38	C	0.544404	0.230568	0.345046
C39	C	0.877737	0.563902	0.678379
C40	C	0.293150	-0.104429	0.017834
C41	C	0.626484	0.228904	0.351167
C42	C	0.959817	0.562237	0.684501
C43	C	0.330455	-0.109213	0.099052
C44	C	0.663788	0.224121	0.432385
C45	C	0.997121	0.557454	0.765718
C46	C	0.285675	-0.112324	0.174153
C47	C	0.619009	0.221010	0.507486
C48	C	0.952342	0.554343	0.840819
C49	C	0.203597	-0.110654	0.168030
C50	C	0.536931	0.222679	0.501363
C51	C	0.870264	0.556013	0.834697
C52	C	0.578091	-0.114447	0.121448
C53	C	0.911424	0.218887	0.454782
C54	C	1.244758	0.552220	0.788115
C55	C	0.660175	-0.116119	0.127565
C56	C	0.993508	0.217215	0.460899
C57	C	1.326841	0.550548	0.794232
C58	C	0.667644	-0.108223	-0.028754
C59	C	1.000978	0.225111	0.304580
C60	C	1.334311	0.558444	0.637913
C61	C	0.585564	-0.106558	-0.034869
C62	C	0.918897	0.226775	0.298464
C63	C	1.252231	0.560109	0.631797
C64	C	0.540792	-0.109665	0.040231
C65	C	0.874125	0.223668	0.373565
C66	C	1.207459	0.557001	0.706898
C67	C	0.414353	-0.110916	0.105311
C68	C	0.747687	0.222417	0.438645
C69	C	1.081020	0.555750	0.771978
C70	C	0.456895	-0.107956	0.033971
C71	C	0.790229	0.225377	0.367304
C72	C	1.123562	0.558711	0.700638
C73	C	0.931802	0.033512	0.069365
C74	C	1.265135	0.366845	0.402698
C75	C	1.598469	0.700179	0.736032
C76	C	0.924448	0.120326	0.068817
C77	C	1.257781	0.453659	0.402151
C78	C	1.591115	0.786993	0.735484
C79	C	1.078940	-0.104108	0.080310
C80	C	1.412274	0.229225	0.413643
C81	C	1.745607	0.562558	0.746977
C82	C	1.166297	-0.105878	0.086807
C83	C	1.499630	0.227455	0.420141
C84	C	1.832963	0.560788	0.753474
C85	C	0.939443	-0.252396	0.069918
C86	C	1.272776	0.080937	0.403252
C87	C	1.606109	0.414270	0.736585
C88	C	0.946797	-0.339210	0.070460
C89	C	1.280131	-0.005877	0.403794
C90	C	1.613464	0.327457	0.737127
N91	N	0.925898	-0.119742	0.273686
N92	N	1.259231	0.213592	0.607019
N93	N	1.592564	0.546925	0.940352
C94	C	0.991968	0.170246	0.073845
C95	C	1.325301	0.503580	0.407178
C96	C	1.658634	0.836913	0.740511
C97	C	0.985053	0.251817	0.073322
C98	C	1.318387	0.585151	0.406655
C99	C	1.651720	0.918484	0.739988
C100	C	0.910618	0.283466	0.067777
C101	C	1.243952	0.616799	0.401111
C102	C	1.577285	0.950133	0.734444
C103	C	0.843094	0.233539	0.062747
C104	C	1.176427	0.566873	0.396080
C105	C	1.509760	0.900206	0.729414
C106	C	0.850009	0.151970	0.063264
C107	C	1.183342	0.485304	0.396597
C108	C	1.516676	0.818637	0.729931
C109	C	0.886188	0.529295	0.065947
C110	C	1.219521	0.862628	0.399280
C111	C	1.552855	1.195961	0.732614
C112	C	0.879277	0.610870	0.065433
C113	C	1.212611	0.944203	0.398766
C114	C	1.545944	1.277536	0.732100
C115	C	1.021238	0.629142	0.076006
C116	C	1.354571	0.962475	0.409339
C117	C	1.687905	1.295809	0.742673
C118	C	1.028147	0.547570	0.076528
C119	C	1.361480	0.880904	0.409861
C120	C	1.694813	1.214237	0.743194
C121	C	0.960622	0.497651	0.071493
C122	C	1.293955	0.830985	0.404826
C123	C	1.627289	1.164318	0.738159
C124	C	0.903549	0.366844	0.067246
C125	C	1.236882	0.700177	0.400579
C126	C	1.570215	1.033511	0.733912
C127	C	0.967693	0.414275	0.072019
C128	C	1.301026	0.747608	0.405352
C129	C	1.634359	1.080942	0.738685
N130	N	0.945353	-0.099136	-0.134400
N131	N	1.278686	0.234197	0.198933
N132	N	1.612020	0.567530	0.532267
C133	C	0.973648	-0.069021	0.322520
C134	C	1.306982	0.264312	0.655853
C135	C	1.640315	0.597646	0.989187
C136	C	0.969359	-0.073581	0.412773
C137	C	1.302692	0.259753	0.746106
C138	C	1.636026	0.593086	1.079440
C139	C	0.917323	-0.128866	0.454191
C140	C	1.250656	0.204467	0.787524
C141	C	1.583989	0.537801	1.120857
C142	C	0.869567	-0.179589	0.405350
C143	C	1.202900	0.153744	0.738683
C144	C	1.536233	0.487078	1.072016
C145	C	0.873852	-0.175025	0.315098
C146	C	1.207186	0.158309	0.648431
C147	C	1.540519	0.491642	0.981764
C148	C	0.901883	-0.145295	0.726507
C149	C	1.235216	0.188038	1.059841
C150	C	1.568549	0.521371	1.393174
C151	C	0.897602	-0.149857	0.816766
C152	C	1.230936	0.183476	1.150099
C153	C	1.564269	0.516809	1.483432
C154	C	0.997394	-0.043848	0.824183
C155	C	1.330727	0.289486	1.157516
C156	C	1.664061	0.622819	1.490850
C157	C	1.001679	-0.039291	0.733929
C158	C	1.335012	0.294042	1.067263
C159	C	1.668345	0.627375	1.400596
C160	C	0.953920	-0.090012	0.685096
C161	C	1.287253	0.243322	1.018429
C162	C	1.620586	0.576655	1.351763
C163	C	0.912939	-0.133530	0.546444
C164	C	1.246272	0.199803	0.879777
C165	C	1.579606	0.533137	1.213111
C166	C	0.958300	-0.085343	0.592844
C167	C	1.291633	0.247990	0.926177
C168	C	1.624967	0.581323	1.259511
H169	H	0.555197	-0.102662	-0.101005
H170	H	0.888530	0.230671	0.232328
H171	H	1.221863	0.564005	0.565661
H172	H	0.834968	-0.216326	0.275337
H173	H	1.168301	0.117007	0.608671
H174	H	1.501634	0.450341	0.942004
H175	H	0.444736	-0.114812	0.171439
H176	H	0.778069	0.218521	0.504772
H177	H	1.111402	0.551854	0.838106
H178	H	1.008241	-0.032279	0.452534
H179	H	1.341574	0.301054	0.785867
H180	H	1.674908	0.634387	1.119200
H181	H	0.426519	-0.104058	-0.032156
H182	H	0.759852	0.229275	0.301177
H183	H	1.093185	0.562608	0.634511
H184	H	1.028298	0.388504	0.076514
H185	H	1.361631	0.721838	0.409847
H186	H	1.694965	1.055171	0.743180
H187	H	1.076212	0.669795	0.080104
H188	H	1.409546	1.003128	0.413437
H189	H	1.742879	1.336461	0.746770
F190	F	0.325380	-0.117412	0.260591
F191	F	0.658713	0.215921	0.593924
F192	F	0.992046	0.549255	0.927258
F193	F	1.048217	0.010131	0.876160
F194	F	1.381551	0.343464	1.209493
F195	F	1.714884	0.676797	1.542827
H196	H	0.842943	0.392621	0.062733
H197	H	1.176277	0.725955	0.396067
H198	H	1.509610	1.059288	0.729400
H199	H	0.329602	-0.101889	-0.043316
H200	H	0.662935	0.231444	0.290017
H201	H	0.996269	0.564777	0.623350
H202	H	1.016025	-0.024005	0.288804
H203	H	1.349359	0.309328	0.622138
H204	H	1.682692	0.642661	0.955471
F205	F	0.715300	-0.104912	-0.108675
F206	F	1.048633	0.228422	0.224658
F207	F	1.381966	0.561755	0.557991
F208	F	0.857560	-0.192369	0.590529
F209	F	1.190893	0.140964	0.923862
F210	F	1.524226	0.474297	1.257196
F211	F	0.814321	0.476177	0.060586
F212	F	1.147655	0.809511	0.393919
F213	F	1.480988	1.142844	0.727253
H214	H	0.818660	0.636634	0.060932
H215	H	1.151993	0.969967	0.394265
H216	H	1.485327	1.303300	0.727599
F217	F	0.778145	0.098842	0.057910
F218	F	1.111478	0.432175	0.391244
F219	F	1.444812	0.765508	0.724577
H220	H	0.862997	-0.186595	0.686754
H221	H	1.196330	0.146738	1.020087
H222	H	1.529664	0.480071	1.353421
F223	F	0.171375	-0.097680	-0.074732
F224	F	0.504709	0.235653	0.258602
F225	F	0.838042	0.568987	0.591935
F226	F	1.071192	0.136571	0.079754
F227	F	1.404525	0.469904	0.413087
F228	F	1.737858	0.803238	0.746421
H229	H	1.044051	0.005726	0.700209
H230	H	1.377384	0.339059	1.033543
H231	H	1.710717	0.672393	1.366876
F232	F	0.699875	-0.121209	0.214012
F233	F	1.033208	0.212124	0.547346
F234	F	1.366542	0.545457	0.880679
F235	F	0.530450	-0.117770	0.201378
F236	F	0.863784	0.215563	0.534711
F237	F	1.197117	0.548897	0.868045
F238	F	0.842215	-0.208704	0.860839
F239	F	1.175549	0.124629	1.194173
F240	F	1.508882	0.457962	1.527506
H241	H	0.782487	0.259314	0.058227
H242	H	1.115820	0.592648	0.391561
H243	H	1.449154	0.925981	0.724894
F244	F	1.107372	0.513895	0.082407
F245	F	1.440705	0.847228	0.415740
F246	F	1.774038	1.180562	0.749073
H247	H	0.827193	-0.224601	0.439077
H248	H	1.160527	0.108733	0.772410
H249	H	1.493860	0.442066	1.105743
H250	H	0.167143	-0.113197	0.229180
H251	H	0.500476	0.220136	0.562514
H252	H	0.833809	0.553469	0.895847
H253	H	1.000665	-0.040327	0.559119
H254	H	1.333999	0.293006	0.892452
H255	H	1.667332	0.626339	1.225786
H256	H	1.040035	0.292459	0.077417
H257	H	1.373369	0.625793	0.410751
H258	H	1.706702	0.959126	0.744084
