data_functionalizedCrystal
_audit_creation_method	'MofGen! by Chris Wilmer'
_symmetry_space_group_name_H-M	'P1'
_symmetry_Int_Tables_number	1
_symmetry_cell_setting	triclinic
loop_
_symmetry_equiv_pos_as_xyz
  x,y,z
_cell_length_a	10.489741
_cell_length_b	10.489741
_cell_length_c	9.565339
_cell_angle_alpha	89.999484
_cell_angle_beta	89.999100
_cell_angle_gamma	95.460826
loop_
_atom_site_label
_atom_site_type_symbol
_atom_site_fract_x
_atom_site_fract_y
_atom_site_fract_z
O1	O	1.694053	-0.179959	-0.116173
O2	O	1.322857	-0.196852	-0.116194
O3	O	1.516901	-0.002807	-0.116175
O4	O	1.500009	-0.374003	-0.116192
O5	O	1.516886	-0.002819	0.116345
O6	O	1.322842	-0.196864	0.116326
O7	O	1.694038	-0.179971	0.116347
Zn8	Zn	1.508437	-0.188419	0.153254
Zn9	Zn	1.508458	-0.188403	-0.153101
O10	O	1.499993	-0.374015	0.116328
C11	C	1.275318	-0.195582	0.000063
C12	C	1.133688	-0.191765	0.000055
C13	C	1.065548	-0.068300	0.000074
C14	C	0.973429	-0.126617	-0.114571
C15	C	0.973448	-0.126659	0.114676
C16	C	1.043435	-0.250133	-0.114684
C17	C	1.043463	-0.250157	0.114665
C18	C	0.951371	-0.308564	-0.000007
C19	C	1.515618	0.044718	0.000084
C20	C	1.511801	0.186348	0.000082
C21	C	1.741577	-0.181241	0.000087
C22	C	1.883206	-0.185058	0.000086
C23	C	1.501277	-0.421541	0.000066
C24	C	1.505094	-0.563170	0.000059
N25	N	1.508433	-0.188429	0.362334
C26	C	1.388336	0.254488	0.000064
C27	C	1.446652	0.346604	0.114712
C28	C	1.446696	0.346591	-0.114534
C29	C	1.570168	0.276599	0.114824
C30	C	1.570195	0.276576	-0.114525
C31	C	1.628600	0.368665	0.000150
N32	N	1.508472	-0.188383	-0.362180
C33	C	1.418666	-0.278138	0.453528
C34	C	1.534163	-0.303949	0.546712
C35	C	1.392986	-0.162629	0.546704
C36	C	1.623988	-0.214298	0.453466
C37	C	1.482735	-0.072928	0.453451
C38	C	1.598314	-0.098690	0.546593
H39	H	0.901947	-0.410168	-0.000074
O40	O	1.688820	-0.008018	0.595112
C41	C	1.629690	0.081899	0.676242
H42	H	1.524776	0.080767	0.644746
H43	H	1.680238	0.181583	0.657962
H44	H	1.636240	0.056057	0.791617
H45	H	1.460936	0.024699	0.412454
O46	O	1.276438	-0.136533	0.595326
C47	C	1.194315	-0.119485	0.481546
H48	H	1.253881	-0.091293	0.384771
H49	H	1.130410	-0.040655	0.507358
H50	H	1.132248	-0.212718	0.460503
H51	H	1.394405	0.377611	0.211633
O52	O	1.632287	0.239570	-0.230295
C53	C	1.566890	0.274879	-0.350942
H54	H	1.462798	0.286101	-0.323480
H55	H	1.570719	0.197516	-0.434134
H56	H	1.614271	0.369568	-0.392770
H57	H	1.730204	0.418089	0.000220
O58	O	1.740601	-0.240414	0.405060
C59	C	1.822183	-0.258679	0.518991
H60	H	1.786813	-0.208533	0.615266
H61	H	1.923623	-0.216795	0.492683
H62	H	1.822086	-0.365475	0.541150
O63	O	1.124743	0.052817	-0.000305
C64	C	1.089238	0.117449	-0.121392
H65	H	1.056502	0.044531	-0.205454
H66	H	1.174882	0.182266	-0.161409
H67	H	1.007624	0.177814	-0.095228
H68	H	0.942421	-0.074372	-0.211491
H69	H	1.074269	-0.302328	-0.211717
O70	O	1.267321	0.195045	0.000117
C71	C	1.272551	0.061237	-0.001084
H72	H	1.368419	0.038143	-0.045834
H73	H	1.191491	0.014639	-0.068575
H74	H	1.261969	0.022726	0.110183
O75	O	1.080721	-0.312452	0.230183
C76	C	1.214712	-0.316161	0.227875
H77	H	1.250708	-0.305069	0.115674
H78	H	1.239879	-0.411695	0.271646
H79	H	1.261897	-0.234720	0.294436
H80	H	1.342823	-0.354073	0.412665
H81	H	1.394447	0.377560	-0.211470
H82	H	0.942463	-0.074401	0.211599
O83	O	1.632550	0.239684	0.230445
C84	C	1.740221	0.177908	0.189545
H85	H	1.725242	0.138939	0.078906
H86	H	1.753269	0.095546	0.264348
H87	H	1.829217	0.249280	0.192309
H88	H	1.555926	-0.401606	0.587676
