data_functionalizedCrystal
_audit_creation_method	'MofGen! by Chris Wilmer'
_symmetry_space_group_name_H-M	'P1'
_symmetry_Int_Tables_number	1
_symmetry_cell_setting	triclinic
loop_
_symmetry_equiv_pos_as_xyz
  x,y,z
_cell_length_a	17.699099
_cell_length_b	17.699083
_cell_length_c	16.776229
_cell_angle_alpha	90.007545
_cell_angle_beta	89.993452
_cell_angle_gamma	96.713817
loop_
_atom_site_label
_atom_site_type_symbol
_atom_site_fract_x
_atom_site_fract_y
_atom_site_fract_z
O1	O	1.004071	-0.095769	-0.066279
O2	O	0.783694	-0.108209	-0.066283
O3	O	0.900109	0.008200	-0.066274
O4	O	0.887657	-0.212178	-0.066288
O5	O	0.900093	0.008207	0.066303
O6	O	0.783679	-0.108202	0.066294
O7	O	1.004056	-0.095762	0.066298
Zn8	Zn	0.893865	-0.101981	0.087345
Zn9	Zn	0.893885	-0.101990	-0.087330
O10	O	0.887641	-0.212171	0.066289
C11	C	0.755490	-0.107758	0.000005
C12	C	0.671472	-0.106414	0.000004
C13	C	0.899655	0.036400	0.000015
C14	C	0.898316	0.120419	0.000015
N15	N	0.893857	-0.101974	0.206556
C16	C	1.032260	-0.096213	0.000008
C17	C	1.116278	-0.097556	0.000005
C18	C	1.155753	-0.098192	-0.072264
C19	C	1.234697	-0.099448	-0.072265
C20	C	1.274164	-0.100073	0.000004
C21	C	1.234683	-0.099435	0.072277
C22	C	1.155741	-0.098174	0.072278
C23	C	1.553048	-0.104520	0.072278
C24	C	1.631995	-0.105784	0.072273
C25	C	1.632004	-0.105795	-0.072264
C26	C	1.553062	-0.104533	-0.072264
C27	C	1.513588	-0.103891	0.000010
C28	C	1.427988	-0.102528	0.000010
C29	C	1.359762	-0.101442	0.000004
C30	C	0.888095	-0.240371	-0.000001
C31	C	0.889434	-0.324389	-0.000007
C32	C	0.966649	0.169036	0.000018
C33	C	0.965387	0.247979	0.000011
C34	C	0.895791	0.278304	0.000007
C35	C	0.827453	0.229680	0.000002
C36	C	0.828716	0.150739	0.000003
C37	C	0.822358	0.548044	-0.000005
C38	C	0.821100	0.626992	-0.000004
C39	C	0.959029	0.645284	0.000003
C40	C	0.960292	0.566342	0.000004
C41	C	0.891954	0.517726	-0.000005
C42	C	0.893324	0.432127	0.000001
C43	C	0.894421	0.363902	0.000006
N44	N	0.893899	-0.101991	-0.206541
C45	C	0.945421	-0.050449	0.248278
C46	C	0.945425	-0.050448	0.331730
C47	C	0.893868	-0.101977	0.373459
C48	C	0.842298	-0.153504	0.331732
C49	C	0.842291	-0.153500	0.248282
C50	C	0.842326	-0.153519	0.668280
C51	C	0.842338	-0.153520	0.751736
C52	C	0.945459	-0.050467	0.751728
C53	C	0.945452	-0.050463	0.668277
C54	C	0.893880	-0.101987	0.626557
C55	C	0.893875	-0.101987	0.536069
C56	C	0.893876	-0.101982	0.463946
H57	H	1.123624	-0.097688	-0.131113
H58	H	0.764423	0.651678	-0.000005
N59	N	0.755008	0.098308	0.000014
H60	H	0.752454	0.065156	0.049163
H61	H	0.752498	0.065188	-0.049162
N62	N	1.001084	0.005109	0.796725
H63	H	0.993267	-0.002707	0.855923
H64	H	0.992446	0.058793	0.782148
N65	N	1.001047	0.005110	0.376739
H66	H	1.034490	-0.023792	0.411348
H67	H	0.972144	0.038574	0.411333
N68	N	1.039089	0.300417	0.000023
H69	H	1.041653	0.333570	-0.049125
H70	H	1.083325	0.269173	0.000062
N71	N	0.786694	-0.209080	0.376744
H72	H	0.795306	-0.262787	0.362207
H73	H	0.733019	-0.200361	0.362221
H74	H	1.266835	-0.099961	-0.131113
N75	N	1.032741	0.697718	-0.000001
H76	H	1.063102	0.687984	0.049149
H77	H	1.021325	0.752308	-0.000036
H78	H	0.800352	-0.195482	0.785711
N79	N	0.748654	0.495614	-0.000011
H80	H	0.704376	0.526806	-0.000010
H81	H	0.746167	0.462467	0.049136
N82	N	1.510500	-0.103854	-0.150213
H83	H	1.483970	-0.056430	-0.153427
H84	H	1.471565	-0.150261	-0.153394
H85	H	1.023322	0.144352	0.000026
N86	N	0.786701	-0.209085	0.623288
H87	H	0.754043	-0.241727	0.662388
H88	H	0.815600	-0.242512	0.588646
N89	N	1.001062	0.005110	0.623269
H90	H	1.033729	0.037753	0.662363
H91	H	0.972147	0.038536	0.588658
H92	H	0.770787	0.254377	-0.000006
H93	H	1.016964	0.541657	0.000011
H94	H	1.520919	-0.103987	0.131128
N95	N	1.674579	-0.106483	-0.150219
H96	H	1.730577	-0.107373	-0.139258
H97	H	1.667000	-0.059365	-0.181777
N98	N	1.674565	-0.106461	0.150223
H99	H	1.637581	-0.105861	0.196008
H100	H	1.713542	-0.060085	0.153368
N101	N	1.277247	-0.100107	0.150226
H102	H	1.333246	-0.101006	0.139261
H103	H	1.257221	-0.146786	0.181780
N104	N	0.786672	-0.209069	0.203278
H105	H	0.754012	-0.241714	0.242375
H106	H	0.815576	-0.242495	0.168638
N107	N	1.001033	0.005124	0.203272
H108	H	1.033698	0.037765	0.242369
H109	H	0.972121	0.038552	0.168660
H110	H	1.123600	-0.097664	0.131126
