data_functionalizedCrystal
_audit_creation_method	'MofGen! by Chris Wilmer'
_symmetry_space_group_name_H-M	'P1'
_symmetry_Int_Tables_number	1
_symmetry_cell_setting	triclinic
loop_
_symmetry_equiv_pos_as_xyz
  x,y,z
_cell_length_a	17.699077
_cell_length_b	16.992695
_cell_length_c	16.776229
_cell_angle_alpha	89.993259
_cell_angle_beta	89.993415
_cell_angle_gamma	86.974400
loop_
_atom_site_label
_atom_site_type_symbol
_atom_site_fract_x
_atom_site_fract_y
_atom_site_fract_z
O1	O	1.010253	0.099123	-0.066278
O2	O	0.790677	0.112027	-0.066282
O3	O	0.899585	-0.008566	-0.066274
O4	O	0.901345	0.219716	-0.066287
O5	O	0.899569	-0.008573	0.066302
O6	O	0.790661	0.112020	0.066294
O7	O	1.010237	0.099116	0.066298
Zn8	Zn	0.900447	0.105567	0.087345
Zn9	Zn	0.900468	0.105576	-0.087330
O10	O	0.901329	0.219709	0.066290
C11	C	0.762443	0.111562	0.000005
C12	C	0.678339	0.110177	0.000004
C13	C	0.638822	0.109521	0.072272
C14	C	0.559798	0.108207	0.072273
C15	C	0.520291	0.107555	0.000005
C16	C	0.559814	0.108210	-0.072269
C17	C	0.638837	0.109518	-0.072269
C18	C	0.241122	0.102934	-0.072270
C19	C	0.162093	0.101628	-0.072265
C20	C	0.162083	0.101623	0.072272
C21	C	0.241106	0.102931	0.072272
C22	C	0.280622	0.103581	-0.000001
C23	C	0.366309	0.105004	-0.000002
C24	C	0.434605	0.106138	0.000004
C25	C	0.897312	-0.037778	0.000014
C26	C	0.890555	-0.124809	0.000014
C27	C	0.955753	-0.175175	0.000016
C28	C	0.949399	-0.256949	0.000008
C29	C	0.877847	-0.288356	0.000004
C30	C	0.812644	-0.237983	-0.000000
C31	C	0.818999	-0.156211	0.000002
C32	C	0.851511	-0.531903	-0.000007
C33	C	0.845161	-0.613682	-0.000007
C34	C	0.981917	-0.632642	-0.000000
C35	C	0.988265	-0.550867	0.000007
C36	C	0.923062	-0.500502	-0.000002
N37	N	0.871351	-0.371942	-0.000001
N38	N	0.929559	-0.416917	-0.000002
C39	C	1.038471	0.099581	0.000009
C40	C	1.122575	0.100966	0.000005
C41	C	0.903602	0.248921	-0.000000
C42	C	0.910359	0.335952	-0.000005
N43	N	0.900438	0.105559	0.206557
N44	N	0.900482	0.105577	-0.206541
C45	C	0.948679	0.052183	0.248277
C46	C	0.948683	0.052182	0.331730
C47	C	0.900449	0.105562	0.373460
C48	C	0.852203	0.158942	0.331733
C49	C	0.852195	0.158938	0.248282
C50	C	0.852231	0.158957	0.668280
C51	C	0.852244	0.158958	0.751737
C52	C	0.948719	0.052201	0.751727
C53	C	0.948712	0.052197	0.668277
C54	C	0.900463	0.105574	0.626557
C55	C	0.900458	0.105573	0.536069
C56	C	0.900458	0.105568	0.463946
H57	H	0.129900	0.101090	0.131121
H58	H	0.129929	0.101097	-0.131118
O59	O	0.283738	0.103643	-0.150218
H60	H	0.242988	0.102980	-0.200468
H61	H	0.527642	0.107674	-0.131111
H62	H	0.812911	0.202402	0.214314
H63	H	0.671010	0.110054	-0.131117
H64	H	0.812963	0.202429	0.785712
H65	H	0.987960	0.008718	0.214306
O66	O	1.032927	-0.141301	0.000012
H67	H	1.077195	-0.190066	0.000002
O68	O	0.767984	-0.647561	-0.000020
H69	H	0.723711	-0.598802	-0.000035
O70	O	1.052237	-0.686968	0.000002
H71	H	1.086233	-0.675829	0.054043
H72	H	1.002490	-0.297955	0.000011
H73	H	0.987964	0.008718	0.365698
H74	H	0.987991	0.008733	0.634303
O75	O	0.781185	-0.477591	-0.000013
H76	H	0.797618	-0.415451	-0.000022
O77	O	1.065442	-0.516999	0.000012
H78	H	1.058906	-0.451676	0.000023
O79	O	0.735467	-0.271851	0.000004
H80	H	0.742001	-0.337175	0.000014
O81	O	0.748680	-0.101881	0.000008
H82	H	0.697857	-0.137456	0.000014
H83	H	0.988004	0.008737	0.785704
O84	O	0.800201	0.216531	0.623287
H85	H	0.766672	0.253655	0.666326
O86	O	0.800183	0.216525	0.376736
H87	H	0.761414	0.183578	0.414779
O88	O	0.681428	0.110235	0.150221
H89	H	0.669783	0.056566	0.184881
O90	O	0.517173	0.107507	0.150219
H91	H	0.557919	0.108193	0.200471
H92	H	0.273268	0.103465	0.131120
