data_functionalizedCrystal
_audit_creation_method	'MofGen! by Chris Wilmer'
_symmetry_space_group_name_H-M	'P1'
_symmetry_Int_Tables_number	1
_symmetry_cell_setting	triclinic
loop_
_symmetry_equiv_pos_as_xyz
  x,y,z
_cell_length_a	8.597339
_cell_length_b	11.792241
_cell_length_c	7.681481
_cell_angle_alpha	84.218353
_cell_angle_beta	76.526797
_cell_angle_gamma	95.232808
loop_
_atom_site_label
_atom_site_type_symbol
_atom_site_fract_x
_atom_site_fract_y
_atom_site_fract_z
O1	O	-2.101182	0.156996	0.172281
O2	O	-1.601182	0.656996	0.672281
O3	O	-1.637282	0.175071	0.101912
O4	O	-1.137282	0.675071	0.601912
O5	O	-1.880491	0.000812	0.138817
O6	O	-1.380491	0.500812	0.638817
O7	O	-1.857973	0.331255	0.135376
O8	O	-1.357973	0.831255	0.635376
O9	O	-1.910425	-0.020684	0.436217
O10	O	-1.410425	0.479316	0.936217
O11	O	-1.667216	0.153575	0.399312
O12	O	-1.167216	0.653575	0.899312
O13	O	-2.131116	0.135499	0.469681
O14	O	-1.631116	0.635499	0.969681
Zn15	Zn	-1.903919	0.141124	0.481715
Zn16	Zn	-1.403919	0.641124	0.981715
Zn17	Zn	-1.864479	0.169447	0.089878
Zn18	Zn	-1.364479	0.669447	0.589878
O19	O	-1.887907	0.309758	0.432777
O20	O	-1.387907	0.809758	0.932777
C21	C	-1.592860	0.163577	0.241604
C22	C	-1.092860	0.663577	0.741604
C23	C	-1.415898	0.161342	0.214761
C24	C	-0.915898	0.661342	0.714761
C25	C	-1.894044	-0.052221	0.287302
C26	C	-1.394044	0.447779	0.787302
C27	C	-1.889810	-0.178216	0.286658
C28	C	-1.389810	0.321784	0.786658
C29	C	-1.175540	0.146987	0.329995
C30	C	-0.675540	0.646987	0.829995
C31	C	-1.352506	0.149206	0.356852
C32	C	-0.852506	0.649206	0.856852
C33	C	-1.882023	-0.408891	0.285447
C34	C	-1.382023	0.091109	0.785447
C35	C	-1.886350	-0.280526	0.286120
C36	C	-1.386350	0.219474	0.786120
N37	N	-1.930847	0.121793	0.749136
N38	N	-1.430847	0.621793	1.249136
C39	C	-1.874354	0.362791	0.284288
C40	C	-1.374354	0.862791	0.784288
C41	C	-1.878586	0.488787	0.284920
C42	C	-1.378586	0.988787	0.784920
N43	N	-1.837563	0.188768	-0.177540
N44	N	-1.337563	0.688768	0.322460
H45	H	-1.433624	0.140526	0.499059
H46	H	-0.933624	0.640526	0.999059
H47	H	-1.742339	0.257129	0.732813
H48	H	-1.242339	0.757129	1.232813
H49	H	-2.026090	0.053435	0.838794
H50	H	-1.526090	0.553435	1.338794
H51	H	-1.334790	0.170014	0.072564
H52	H	-0.834790	0.670014	0.572564
