data_functionalizedCrystal
_audit_creation_method	'MofGen! by Chris Wilmer'
_symmetry_space_group_name_H-M	'P1'
_symmetry_Int_Tables_number	1
_symmetry_cell_setting	triclinic
loop_
_symmetry_equiv_pos_as_xyz
  x,y,z
_cell_length_a	6.817900
_cell_length_b	16.418055
_cell_length_c	12.908943
_cell_angle_alpha	95.703866
_cell_angle_beta	100.860631
_cell_angle_gamma	103.389726
loop_
_atom_site_label
_atom_site_type_symbol
_atom_site_fract_x
_atom_site_fract_y
_atom_site_fract_z
V1	V	-3.995725	-0.114839	-0.329045
O2	O	-3.984338	0.006594	-0.322404
O3	O	-3.946965	-0.228741	-0.327156
O4	O	-3.934011	-0.112600	-0.472387
O5	O	-3.997381	-0.110350	-0.176168
V6	V	-4.481125	-0.100370	-0.310715
O7	O	-4.252867	-0.146578	-0.369251
O8	O	-4.674180	-0.068631	-0.270509
O9	O	-4.306678	0.013532	-0.312604
O10	O	-4.609909	-0.221803	-0.317355
O11	O	-4.596866	-0.104858	-0.463592
O12	O	-4.319632	-0.102608	-0.167373
C13	C	-3.792309	-0.256522	-0.322059
C14	C	-3.833640	-0.349635	-0.321470
C15	C	-3.775785	-0.108372	-0.507314
C16	C	-3.806608	-0.107296	-0.624499
C17	C	-4.149136	-0.655611	-0.324894
C18	C	-4.110314	-0.568119	-0.325430
C19	C	-3.747074	-0.559609	-0.314866
C20	C	-3.785896	-0.647097	-0.314323
C21	C	-3.986933	-0.695097	-0.319342
C22	C	-3.909290	-0.520117	-0.320422
C23	C	-3.867196	-0.425255	-0.321003
C24	C	-4.029030	-0.789965	-0.318759
C25	C	-4.227753	-0.113585	-0.855466
C26	C	-4.256724	-0.112574	-0.965572
C27	C	-3.893520	-0.104257	-0.954820
C28	C	-3.864550	-0.105268	-0.844713
C29	C	-4.031675	-0.109933	-0.795041
C30	C	-4.002704	-0.110950	-0.684933
C31	C	-3.639500	-0.102627	-0.674182
C32	C	-3.668471	-0.101616	-0.784288
C33	C	-4.124676	0.041309	-0.317698
C34	C	-4.062583	0.134422	-0.318293
C35	C	-4.141201	-0.106839	-0.132440
C36	C	-4.089616	-0.107911	-0.015254
H37	H	-4.312831	-0.694689	-0.328979
O38	O	-4.285268	-0.525530	-0.331448
H39	H	-4.431581	-0.573611	-0.334864
O40	O	-3.427996	-0.098680	-0.609003
H41	H	-3.434890	-0.156256	-0.570015
H42	H	-3.583392	-0.520517	-0.310781
H43	H	-3.653799	-0.679247	-0.309800
O44	O	-4.182939	-0.115971	-0.631347
H45	H	-4.324146	-0.118328	-0.691865
H46	H	-4.363838	-0.117393	-0.815023
H47	H	-4.416388	-0.115547	-1.014767
O48	O	-3.713278	-0.099224	-1.008403
H49	H	-3.766377	-0.099138	-1.095118
H50	H	-3.532408	-0.097815	-0.824747
