data_functionalizedCrystal
_audit_creation_method	'MofGen! by Chris Wilmer'
_symmetry_space_group_name_H-M	'P1'
_symmetry_Int_Tables_number	1
_symmetry_cell_setting	triclinic
loop_
_symmetry_equiv_pos_as_xyz
  x,y,z
_cell_length_a	12.837943
_cell_length_b	14.044220
_cell_length_c	11.892095
_cell_angle_alpha	94.243827
_cell_angle_beta	85.689438
_cell_angle_gamma	94.008909
loop_
_atom_site_label
_atom_site_type_symbol
_atom_site_fract_x
_atom_site_fract_y
_atom_site_fract_z
O1	O	1.404549	0.242985	-0.093990
O2	O	1.904549	0.742985	0.406010
O3	O	1.101609	0.230709	-0.093996
O4	O	1.601609	0.730709	0.406004
O5	O	1.248531	0.098452	-0.093982
O6	O	1.748531	0.598452	0.406018
O7	O	1.257627	0.375241	-0.094004
O8	O	1.757627	0.875241	0.405996
O9	O	1.236280	0.109461	0.094025
O10	O	1.736280	0.609461	0.594025
O11	O	1.089357	0.241718	0.094010
O12	O	1.589357	0.741718	0.594010
O13	O	1.392297	0.253993	0.094017
O14	O	1.892297	0.753993	0.594017
Zn15	Zn	1.238882	0.249603	0.123864
Zn16	Zn	1.738882	0.749603	0.623864
Zn17	Zn	1.255024	0.235099	-0.123843
Zn18	Zn	1.755024	0.735099	0.376157
O19	O	1.245375	0.386250	0.094002
O20	O	1.745375	0.886250	0.594002
C21	C	1.056479	0.232067	0.000007
C22	C	1.556479	0.732067	0.500007
C23	C	0.940259	0.219699	0.000005
C24	C	1.440259	0.719699	0.500005
C25	C	1.238425	0.068282	0.000022
C26	C	1.738425	0.568282	0.500022
C27	C	1.226550	-0.038016	0.000023
C28	C	1.726550	0.461984	0.500023
C29	C	0.713048	0.368378	0.000009
C30	C	1.213048	0.868378	0.500009
C31	C	0.603848	0.356763	0.000008
C32	C	1.103848	0.856763	0.500008
C33	C	0.612657	0.184853	0.000009
C34	C	1.112657	0.684853	0.500009
C35	C	0.721856	0.196469	0.000011
C36	C	1.221856	0.696469	0.500011
C37	C	0.772048	0.288234	0.000008
C38	C	1.272048	0.788234	0.500008
C39	C	0.881251	0.299849	0.000001
C40	C	1.381251	0.799849	0.500001
C41	C	0.890056	0.127940	0.000011
C42	C	1.390056	0.627940	0.500011
C43	C	0.780857	0.116324	0.000010
C44	C	1.280857	0.616324	0.500010
C45	C	1.204843	-0.232639	0.000006
C46	C	1.704843	0.267361	0.500006
C47	C	1.289060	-0.282665	0.000005
C48	C	1.789060	0.217335	0.500005
C49	C	1.276982	-0.390960	-0.000005
C50	C	1.776982	0.109040	0.499995
C51	C	1.216919	-0.124334	0.000016
C52	C	1.716919	0.375666	0.500016
C53	C	1.437428	0.252635	0.000012
C54	C	1.937428	0.752635	0.500012
C55	C	1.553649	0.265002	0.000006
C56	C	2.053649	0.765002	0.500006
C57	C	1.255482	0.416420	-0.000004
C58	C	1.755482	0.916420	0.499996
C59	C	1.267357	0.522717	-0.000012
C60	C	1.767357	1.022717	0.499988
N61	N	1.227873	0.259502	0.292917
N62	N	1.727873	0.759502	0.792917
N63	N	1.266041	0.225193	-0.292896
N64	N	1.766041	0.725193	0.207104
C65	C	1.342643	0.156258	0.529576
C66	C	1.842643	0.656258	1.029576
C67	C	1.334956	0.163185	0.647917
C68	C	1.834956	0.663185	1.147917
C69	C	1.204807	0.280277	0.647942
C70	C	1.704807	0.780277	1.147942
C71	C	1.212494	0.273350	0.529601
C72	C	1.712494	0.773350	1.029601
C73	C	1.281415	0.211340	0.470422
C74	C	1.781415	0.711340	0.970422
C75	C	1.289107	0.204418	0.352079
C76	C	1.789107	0.704418	0.852079
C77	C	1.158954	0.321505	0.352106
C78	C	1.658954	0.821505	0.852106
C79	C	1.151267	0.328432	0.470447
C80	C	1.651267	0.828432	0.970447
H81	H	0.922115	0.374569	0.000002
H82	H	1.422115	0.874569	0.500002
H83	H	0.753915	0.443098	0.000005
H84	H	1.253915	0.943098	0.500005
N85	N	1.134391	0.343590	0.708411
N86	N	1.634391	0.843590	1.208411
N87	N	1.062414	0.311215	0.774455
N88	N	1.562414	0.811215	1.274455
H89	H	1.012679	0.355927	0.817165
H90	H	1.512679	0.855927	1.317165
H91	H	1.370237	-0.244167	-0.000070
H92	H	1.870237	0.255833	0.499930
H93	H	0.555814	0.422025	0.000011
H94	H	1.055814	0.922025	0.500011
H95	H	1.123677	-0.271140	0.000002
H96	H	1.623677	0.228860	0.500002
N97	N	1.080868	0.391760	0.530919
N98	N	1.580868	0.891760	1.030919
N99	N	1.074009	0.397934	0.636580
N100	N	1.574009	0.897934	1.136580
H101	H	1.024290	0.442662	0.679289
H102	H	1.524290	0.942662	1.179289
N103	N	1.359447	0.141017	0.291643
N104	N	1.859447	0.641017	0.791643
N105	N	1.414061	0.091799	0.344479
N106	N	1.914061	0.591799	0.844479
H107	H	1.463714	0.046994	0.301800
H108	H	1.963714	0.546994	0.801800
N109	N	0.561359	0.091131	0.000024
N110	N	1.061359	0.591131	0.500024
N111	N	0.463859	0.080779	0.000031
N112	N	0.963859	0.580779	0.500031
H113	H	0.427627	0.014587	0.000041
H114	H	0.927627	0.514587	0.500041
N115	N	0.950341	0.046078	0.000002
N116	N	1.450341	0.546078	0.500002
N117	N	1.047840	0.056458	-0.000004
N118	N	1.547840	0.556458	0.499996
H119	H	1.090418	-0.001355	-0.000015
H120	H	1.590418	0.498645	0.499985
N121	N	1.412944	0.092823	0.469136
N122	N	1.912944	0.592823	0.969136
N123	N	1.467540	0.043584	0.521967
N124	N	1.967540	0.543584	1.021967
H125	H	1.517151	-0.001258	0.479284
H126	H	2.017151	0.498742	0.979284
H127	H	0.739974	0.041612	0.000025
H128	H	1.239974	0.541612	0.500025
H129	H	1.384812	0.118331	0.696076
H130	H	1.884812	0.618331	1.196076
H131	H	1.109101	0.366359	0.303930
H132	H	1.609101	0.866359	0.803930
