data_functionalizedCrystal
_audit_creation_method	'MofGen! by Chris Wilmer'
_symmetry_space_group_name_H-M	'P1'
_symmetry_Int_Tables_number	1
_symmetry_cell_setting	triclinic
loop_
_symmetry_equiv_pos_as_xyz
  x,y,z
_cell_length_a	10.654550
_cell_length_b	14.044220
_cell_length_c	9.130313
_cell_angle_alpha	89.997493
_cell_angle_beta	89.996220
_cell_angle_gamma	88.836890
loop_
_atom_site_label
_atom_site_type_symbol
_atom_site_fract_x
_atom_site_fract_y
_atom_site_fract_z
O1	O	1.681222	0.133227	-0.121925
O2	O	2.181222	0.633227	0.378075
O3	O	1.317019	0.145921	-0.121902
O4	O	1.817019	0.645921	0.378098
O5	O	1.493654	0.001554	-0.121899
O6	O	1.993654	0.501554	0.378101
O7	O	1.504587	0.277595	-0.121929
O8	O	2.004587	0.777595	0.378071
O9	O	1.493652	0.001557	0.121700
O10	O	1.993652	0.501557	0.621700
O11	O	1.317017	0.145925	0.121696
O12	O	1.817017	0.645925	0.621696
O13	O	1.681220	0.133231	0.121673
O14	O	2.181220	0.633231	0.621673
Cu15	Cu	1.499119	0.139578	0.143927
Cu16	Cu	1.999119	0.639578	0.643927
Cu17	Cu	1.499121	0.139574	-0.144156
Cu18	Cu	1.999121	0.639574	0.355844
O19	O	1.504585	0.277598	0.121670
O20	O	2.004585	0.777598	0.621670
C21	C	1.270127	0.144991	-0.000100
C22	C	1.770127	0.644991	0.499900
C23	C	1.130403	0.142202	-0.000091
C24	C	1.630403	0.642202	0.499909
C25	C	1.488867	-0.033790	-0.000099
C26	C	1.988867	0.466210	0.499901
C27	C	1.474592	-0.139110	-0.000096
C28	C	1.974592	0.360890	0.499904
C29	C	1.059459	0.227203	-0.000121
C30	C	1.559459	0.727203	0.499879
C31	C	0.928175	0.224578	-0.000146
C32	C	1.428175	0.724578	0.499854
C33	C	0.938790	0.051942	-0.000116
C34	C	1.438790	0.551942	0.499884
C35	C	1.070072	0.054569	-0.000081
C36	C	1.570072	0.554569	0.499919
C37	C	1.119790	0.314837	-0.000131
C38	C	1.619790	0.814837	0.499869
C39	C	1.048846	0.399845	-0.000163
C40	C	1.548846	0.899845	0.499837
C41	C	0.917561	0.397219	-0.000188
C42	C	1.417561	0.897219	0.499812
C43	C	0.857221	0.309585	-0.000181
C44	C	1.357221	0.809585	0.499819
C45	C	1.448493	-0.331943	-0.000116
C46	C	1.948493	0.168057	0.499884
C47	C	1.549741	-0.388911	-0.000126
C48	C	2.049741	0.111089	0.499874
C49	C	1.535219	-0.496210	-0.000137
C50	C	2.035219	0.003790	0.499863
C51	C	1.463013	-0.224634	-0.000105
C52	C	1.963013	0.275366	0.499895
C53	C	1.728113	0.134161	-0.000132
C54	C	2.228113	0.634161	0.499868
C55	C	1.867836	0.136950	-0.000151
C56	C	2.367836	0.636950	0.499849
C57	C	1.509372	0.312942	-0.000133
C58	C	2.009372	0.812942	0.499867
C59	C	1.523648	0.418262	-0.000146
C60	C	2.023648	0.918262	0.499854
N61	N	1.499126	0.139581	0.346550
N62	N	1.999126	0.639581	0.846550
N63	N	1.499122	0.139564	-0.346779
N64	N	1.999122	0.639564	0.153221
C65	C	1.577364	0.075677	0.423203
C66	C	2.077364	0.575677	0.923203
C67	C	1.577359	0.075666	0.576540
C68	C	2.077359	0.575666	1.076540
C69	C	1.420876	0.203470	0.576557
C70	C	1.920876	0.703470	1.076557
C71	C	1.420875	0.203477	0.423223
C72	C	1.920875	0.703477	0.923223
C73	C	1.655615	0.011782	0.346531
C74	C	2.155615	0.511782	0.846531
C75	C	1.733861	-0.052127	0.423184
C76	C	2.233861	0.447873	0.923184
C77	C	1.733856	-0.052138	0.576521
C78	C	2.233856	0.447862	1.076521
C79	C	1.655606	0.011759	0.653204
C80	C	2.155606	0.511759	1.153204
H81	H	1.097984	0.471193	-0.000156
H82	H	1.597984	0.971193	0.499844
C83	C	0.839520	0.490719	-0.000218
C84	C	1.339520	0.990719	0.499782
H85	H	0.752691	0.476607	-0.000223
H86	H	1.252691	0.976607	0.499777
H87	H	0.858875	0.526610	-0.085169
H88	H	1.358875	1.026610	0.414831
H89	H	0.858837	0.526618	0.084738
H90	H	1.358837	1.026618	0.584738
H91	H	1.127836	-0.014647	-0.000060
H92	H	1.627836	0.485353	0.499940
H93	H	1.350913	-0.363754	-0.000113
H94	H	1.850913	0.136246	0.499887
C95	C	1.681573	-0.345941	-0.000102
C96	C	2.181573	0.154059	0.499898
H97	H	1.674169	-0.278415	-0.000077
H98	H	2.174169	0.221585	0.499923
H99	H	1.725957	-0.366434	-0.085044
H100	H	2.225957	0.133566	0.414956
H101	H	1.725917	-0.366453	0.084863
H102	H	2.225917	0.133547	0.584863
C103	C	0.872424	-0.044448	-0.000124
C104	C	1.372424	0.455552	0.499876
H105	H	0.933480	-0.094697	-0.000090
H106	H	1.433480	0.405303	0.499910
H107	H	0.821454	-0.049061	-0.085086
H108	H	1.321454	0.450939	0.414914
H109	H	0.821410	-0.049058	0.084821
H110	H	1.321410	0.450942	0.584821
H111	H	1.655629	0.011787	0.221676
H112	H	2.155629	0.511787	0.721676
C113	C	0.712811	0.306698	-0.000213
C114	C	1.212811	0.806698	0.499787
H115	H	0.679197	0.369873	-0.000240
H116	H	1.179197	0.869873	0.499760
H117	H	0.685046	0.274225	0.084727
H118	H	1.185046	0.774225	0.584727
H119	H	0.685098	0.274226	-0.085180
H120	H	1.185098	0.774226	0.414820
C121	C	1.819933	-0.122403	0.338840
C122	C	2.319933	0.377597	0.838840
H123	H	1.808743	-0.113238	0.236541
H124	H	2.308743	0.386762	0.736541
H125	H	1.799210	-0.185813	0.363958
H126	H	2.299210	0.314187	0.863958
H127	H	1.904962	-0.111499	0.363974
H128	H	2.404962	0.388501	0.863974
C129	C	1.655592	0.011745	0.821872
C130	C	2.155592	0.511745	1.321872
H131	H	1.597783	0.058949	0.856558
H132	H	2.097783	0.558949	1.356558
H133	H	1.737366	0.025287	0.856562
H134	H	2.237366	0.525287	1.356562
H135	H	1.631595	-0.049010	0.856549
H136	H	2.131595	0.450990	1.356549
H137	H	1.797557	-0.104181	0.638931
H138	H	2.297557	0.395819	1.138931
H139	H	1.357169	0.255494	0.639002
H140	H	1.857169	0.755494	1.139002
C141	C	1.334822	0.273774	0.338898
C142	C	1.834822	0.773774	0.838898
H143	H	1.288232	0.311837	0.406520
H144	H	1.788232	0.811837	0.906520
H145	H	1.278690	0.239285	0.279083
H146	H	1.778690	0.739285	0.779083
H147	H	1.384462	0.313583	0.279083
H148	H	1.884462	0.813583	0.779083
H149	H	1.226688	0.316985	-0.000117
H150	H	1.726688	0.816985	0.499883
