data_functionalizedCrystal
_audit_creation_method	'MofGen! by Chris Wilmer'
_symmetry_space_group_name_H-M	'P1'
_symmetry_Int_Tables_number	1
_symmetry_cell_setting	triclinic
loop_
_symmetry_equiv_pos_as_xyz
  x,y,z
_cell_length_a	14.560438
_cell_length_b	14.560438
_cell_length_c	14.560438
_cell_angle_alpha	60.003450
_cell_angle_beta	90.002974
_cell_angle_gamma	59.999405
loop_
_atom_site_label
_atom_site_type_symbol
_atom_site_fract_x
_atom_site_fract_y
_atom_site_fract_z
Zr1	Zr	-0.884785	-1.005230	0.120469
O2	O	-0.929739	-1.005223	0.267112
O3	O	-0.738136	-1.005238	0.075520
O4	O	-0.738135	-1.196830	0.267114
O5	O	-1.080884	-0.662494	-0.075621
O6	O	-0.738136	-1.347967	0.267111
O7	O	-0.929740	-0.813631	0.075518
O8	O	-0.738139	-1.005243	-0.075617
O9	O	-1.080881	-1.005217	0.267107
O10	O	-0.836121	-1.118026	0.056341
O11	O	-0.948917	-0.892443	-0.056449
O12	O	-0.948915	-1.118018	0.169129
O13	O	-1.061711	-0.892434	0.056339
Zr14	Zr	-1.125844	-1.005230	-0.120585
Zr15	Zr	-0.884788	-1.246276	0.120464
Zr16	Zr	-1.125842	-0.764184	-0.120579
Zr17	Zr	-1.125840	-1.005221	0.120461
Zr18	Zr	-0.884790	-1.005239	-0.120576
O19	O	-1.272494	-1.005223	-0.075635
O20	O	-0.929743	-1.347959	0.267104
O21	O	-1.272490	-0.662487	-0.075627
O22	O	-1.080891	-1.005238	-0.267228
O23	O	-0.738140	-1.347974	0.075512
O24	O	-1.080887	-0.662501	-0.267220
O25	O	-0.929746	-1.347967	0.075505
O26	O	-1.272495	-0.813631	-0.267230
O27	O	-1.272493	-0.662494	-0.267226
O28	O	-1.080889	-1.196830	-0.075633
O29	O	-1.080883	-1.196817	0.267103
O30	O	-0.929746	-0.813644	-0.267218
O31	O	-0.929748	-1.005243	-0.267222
O32	O	-0.738141	-1.196843	-0.075621
O33	O	-1.272489	-0.813618	0.075506
O34	O	-1.272491	-1.005217	0.075502
O35	O	-1.061715	-0.892443	-0.169244
O36	O	-0.948919	-1.118026	-0.056454
O37	O	-1.061713	-1.118018	0.056334
O38	O	-1.174508	-0.892434	-0.056457
C39	C	-0.703792	-1.005242	-0.000047
C40	C	-0.601458	-1.005246	-0.000044
C41	C	-1.005312	-0.703719	-0.000051
C42	C	-1.005311	-0.601388	-0.000048
C43	C	-0.494503	-1.122997	0.058832
C44	C	-0.398354	-1.122993	0.058823
C45	C	-0.516127	-0.887476	-0.058940
C46	C	-0.612274	-0.887481	-0.058936
C47	C	-0.306835	-1.005224	-0.000064
C48	C	-0.409161	-1.005236	-0.000056
C49	C	-0.922045	-0.636577	0.083218
C50	C	-0.922042	-0.540424	0.083212
C51	C	-1.088580	-0.373895	-0.083329
C52	C	-1.088578	-0.470047	-0.083328
C53	C	-1.005316	-0.306745	-0.000062
C54	C	-1.005310	-0.409083	-0.000055
C55	C	-1.005320	-1.005242	-0.301569
C56	C	-1.005322	-1.005246	-0.403899
C57	C	-1.088579	-1.005219	-0.548159
C58	C	-1.088584	-1.005239	-0.451998
C59	C	-0.922042	-1.005246	-0.451961
C60	C	-0.922033	-1.005235	-0.548116
C61	C	-1.005309	-1.005219	0.301454
C62	C	-1.005308	-1.005215	0.403784
C63	C	-0.703790	-1.306742	0.301457
C64	C	-0.601455	-1.409072	0.403788
C65	C	-0.703795	-1.306753	-0.000054
C66	C	-0.601463	-1.409088	-0.000053
C67	C	-1.005317	-0.703730	-0.301562
C68	C	-1.005318	-0.601404	-0.403890
C69	C	-1.306834	-0.703707	-0.000061
C70	C	-1.409167	-0.601373	-0.000062
C71	C	-1.306840	-0.703719	-0.301572
C72	C	-1.409174	-0.601388	-0.403903
C73	C	-1.005313	-1.306731	0.301447
C74	C	-1.005312	-1.409057	0.403774
C75	C	-0.612253	-1.457145	0.510738
C76	C	-0.516094	-1.553307	0.606885
C77	C	-0.398345	-1.553311	0.489119
C78	C	-0.494502	-1.457157	0.392974
C79	C	-0.494507	-1.457165	0.058823
C80	C	-0.398358	-1.553327	0.058828
C81	C	-0.516134	-1.553321	-0.058928
C82	C	-0.612281	-1.457168	-0.058926
C83	C	-1.064195	-0.553329	-0.510841
C84	C	-1.064201	-0.457174	-0.606985
C85	C	-0.946443	-0.457179	-0.489212
C86	C	-0.946444	-0.553326	-0.393070
H87	H	-0.485691	-1.218888	0.106784
F88	F	-0.833418	-0.577882	0.171833
H89	H	-0.311268	-1.218876	0.106764
H90	H	-1.156376	-0.266949	-0.151132
F91	F	-0.833425	-1.005259	-0.400765
H92	H	-1.112139	-0.592467	-0.519657
H93	H	-0.524920	-0.791596	-0.106887
F94	F	-0.726114	-0.762147	-0.121611
F95	F	-0.833397	-1.005237	-0.599262
F96	F	-0.726078	-1.405980	0.522250
F97	F	-0.284513	-1.604488	0.477622
F98	F	-0.833422	-0.776358	0.171848
H99	H	-1.156384	-0.441386	-0.151138
F100	F	-0.527636	-1.604496	-0.121586
F101	F	-1.177204	-1.005203	-0.599345
H102	H	-0.524896	-1.592445	0.693965
H103	H	-0.898508	-0.418024	-0.480417
H104	H	-0.485702	-1.418018	0.305885
F105	F	-0.284529	-1.604492	0.121494
F106	F	-1.177212	-1.005245	-0.400855
F107	F	-0.726121	-1.406003	-0.121589
H108	H	-0.485692	-1.418032	0.106772
F109	F	-1.126870	-0.406011	-0.720811
H110	H	-0.898498	-0.592467	-0.305979
