data_functionalizedCrystal
_audit_creation_method	'MofGen! by Chris Wilmer'
_symmetry_space_group_name_H-M	'P1'
_symmetry_Int_Tables_number	1
_symmetry_cell_setting	triclinic
loop_
_symmetry_equiv_pos_as_xyz
  x,y,z
_cell_length_a	19.805407
_cell_length_b	12.645330
_cell_length_c	19.805399
_cell_angle_alpha	89.976144
_cell_angle_beta	89.982197
_cell_angle_gamma	90.009962
loop_
_atom_site_label
_atom_site_type_symbol
_atom_site_fract_x
_atom_site_fract_y
_atom_site_fract_z
Zn1	Zn	1.034800	-0.422140	-0.382705
Zn2	Zn	1.534800	0.077860	0.117295
Zn3	Zn	1.034742	-0.599418	-0.269524
Zn4	Zn	1.534742	-0.099418	0.230476
Zn5	Zn	0.921615	-0.422161	-0.269533
Zn6	Zn	1.421615	0.077839	0.230467
Zn7	Zn	0.921606	-0.599353	-0.382675
Zn8	Zn	1.421606	-0.099353	0.117325
O9	O	0.978191	-0.510768	-0.326109
O10	O	1.478191	-0.010768	0.173891
O11	O	1.129509	-0.445674	-0.367701
O12	O	1.629509	0.054326	0.132299
O13	O	1.019715	-0.575940	-0.174809
O14	O	1.519715	-0.075940	0.325191
O15	O	0.936657	-0.273811	-0.284562
O16	O	1.436657	0.226189	0.215438
O17	O	1.129467	-0.575920	-0.284547
O18	O	1.629467	-0.075920	0.215453
O19	O	1.019814	-0.273795	-0.367709
O20	O	1.519814	0.226205	0.132291
O21	O	0.936601	-0.445710	-0.174815
O22	O	1.436601	0.054290	0.325185
O23	O	0.826897	-0.445647	-0.284533
O24	O	1.326897	0.054353	0.215467
O25	O	0.936642	-0.575810	-0.477395
O26	O	1.436642	-0.075810	0.022605
O27	O	0.826890	-0.575830	-0.367657
O28	O	1.326890	-0.075830	0.132343
O29	O	1.019805	-0.445612	-0.477418
O30	O	1.519805	0.054388	0.022582
O31	O	1.019706	-0.747757	-0.284517
O32	O	1.519706	-0.247757	0.215483
O33	O	0.936585	-0.747709	-0.367648
O34	O	1.436585	-0.247709	0.132352
C35	C	0.802335	-0.510735	-0.326093
C36	C	1.302335	-0.010735	0.173907
C37	C	0.727103	-0.510746	-0.326102
C38	C	1.227103	-0.010746	0.173898
C39	C	0.691782	-0.443047	-0.369466
C40	C	1.191782	0.056953	0.130534
C41	C	0.621093	-0.443053	-0.369468
C42	C	1.121093	0.056947	0.130532
C43	C	0.585727	-0.510763	-0.326110
C44	C	1.085727	-0.010763	0.173890
C45	C	0.621054	-0.578465	-0.282741
C46	C	1.121054	-0.078465	0.217259
C47	C	0.691741	-0.578454	-0.282736
C48	C	1.191741	-0.078454	0.217264
C49	C	0.335980	-0.578513	-0.282762
C50	C	0.835980	-0.078513	0.217238
C51	C	0.265288	-0.578522	-0.282772
C52	C	0.765288	-0.078522	0.217228
C53	C	0.265333	-0.443112	-0.369495
C54	C	0.765333	0.056888	0.130505
C55	C	0.336020	-0.443100	-0.369489
C56	C	0.836020	0.056900	0.130511
C57	C	0.371340	-0.510798	-0.326118
C58	C	0.871340	-0.010798	0.173882
C59	C	0.447988	-0.510790	-0.326115
C60	C	0.947988	-0.010790	0.173885
C61	C	0.509080	-0.510778	-0.326116
C62	C	1.009080	-0.010778	0.173884
C63	C	0.978157	-0.786198	-0.326093
C64	C	1.478157	-0.286198	0.173907
C65	C	0.978204	-0.904028	-0.326109
C66	C	1.478204	-0.404028	0.173891
C67	C	1.030412	-1.071577	-0.273705
C68	C	1.530412	-0.571577	0.226295
C69	C	1.030582	-0.949017	-0.273834
C70	C	1.530582	-0.449017	0.226166
C71	C	0.997546	-0.948417	-0.397456
C72	C	1.497546	-0.448417	0.102544
C73	C	0.997960	-1.071015	-0.397177
C74	C	1.497960	-0.571015	0.102823
C75	C	0.906635	-1.071348	-0.307870
C76	C	1.406635	-0.571348	0.192130
C77	C	0.906978	-0.948744	-0.306270
C78	C	1.406978	-0.448744	0.193730
C79	C	1.154734	-0.510802	-0.326126
C80	C	1.654734	-0.010802	0.173874
C81	C	1.229966	-0.510817	-0.326133
C82	C	1.729966	-0.010817	0.173867
C83	C	0.978229	-0.510701	-0.502652
C84	C	1.478229	-0.010701	-0.002652
C85	C	0.978245	-0.510673	-0.577884
C86	C	1.478245	-0.010673	-0.077884
C87	C	0.978243	-0.234263	-0.326140
C88	C	1.478243	0.265737	0.173860
C89	C	0.978266	-0.116433	-0.326153
C90	C	1.478266	0.383567	0.173847
C91	C	1.021549	-0.442875	-0.613241
C92	C	1.521549	0.057125	-0.113241
C93	C	1.021556	-0.442845	-0.683930
C94	C	1.521556	0.057155	-0.183930
C95	C	0.978262	-0.510617	-0.719260
C96	C	1.478262	-0.010617	-0.219260
C97	C	0.934953	-0.578418	-0.683898
C98	C	1.434953	-0.078418	-0.183898
C99	C	0.934943	-0.578443	-0.613211
C100	C	1.434943	-0.078443	-0.113211
C101	C	0.934991	-0.578319	-0.968971
C102	C	1.434991	-0.078319	-0.468971
C103	C	0.935006	-0.578291	-1.039663
C104	C	1.435006	-0.078291	-0.539663
C105	C	1.021604	-0.442721	-1.039690
C106	C	1.521604	0.057279	-0.539690
C107	C	1.021594	-0.442746	-0.969003
C108	C	1.521594	0.057254	-0.469003
C109	C	0.978283	-0.510542	-0.933647
C110	C	1.478283	-0.010542	-0.433647
C111	C	0.978275	-0.510573	-0.856999
C112	C	1.478275	-0.010573	-0.356999
C113	C	0.978273	-0.510592	-0.795907
C114	C	1.478273	-0.010592	-0.295907
C115	C	0.978192	-0.510758	-0.150253
C116	C	1.478192	-0.010758	0.349747
C117	C	0.978307	-0.510488	-0.075022
C118	C	1.478307	-0.010488	0.424978
H119	H	0.236567	-0.387986	-0.404807
H120	H	0.736567	0.112014	0.095193
F121	F	0.887913	-0.910831	-0.237644
F122	F	1.387913	-0.410831	0.262356
F123	F	0.888923	-0.650428	-1.077263
F124	F	1.388923	-0.150428	-0.577263
F125	F	1.065209	-0.908185	-0.418038
F126	F	1.565209	-0.408185	0.081962
F127	F	1.067676	-0.370616	-0.931406
F128	F	1.567676	0.129384	-0.431406
F129	F	1.066396	-1.108294	-0.417419
F130	F	1.566396	-0.608294	0.082581
H131	H	0.866030	-0.918129	-0.341669
H132	H	1.366030	-0.418129	0.158331
F133	F	0.729414	-0.370984	-0.415618
F134	F	1.229414	0.129016	0.084382
F135	F	1.067670	-0.370721	-0.721556
F136	F	1.567670	0.129279	-0.221556
H137	H	1.056807	-0.387690	-0.584480
H138	H	1.556807	0.112310	-0.084480
H139	H	0.592338	-0.387928	-0.404781
H140	H	1.092338	0.112072	0.095219
H141	H	0.592253	-0.633591	-0.247435
H142	H	1.092253	-0.133591	0.252565
H143	H	0.364811	-0.387967	-0.404798
H144	H	0.864811	0.112033	0.095202
H145	H	1.056868	-0.387515	-1.068485
H146	H	1.556868	0.112485	-0.568485
H147	H	0.720498	-0.633580	-0.247424
H148	H	1.220498	-0.133580	0.252576
H149	H	0.899699	-0.633596	-0.712669
H150	H	1.399699	-0.133596	-0.212669
H151	H	0.236495	-0.633662	-0.247462
H152	H	0.736495	-0.133662	0.252538
H153	H	0.960721	-0.919272	-0.437580
H154	H	1.460721	-0.419272	0.062420
H155	H	0.364729	-0.633637	-0.247448
H156	H	0.864729	-0.133637	0.252552
F157	F	0.888895	-0.650474	-0.931352
F158	F	1.388895	-0.150474	-0.431352
H159	H	0.899673	-0.633640	-0.584424
H160	H	1.399673	-0.133640	-0.084424
H161	H	1.083636	-0.919614	-0.285927
H162	H	1.583636	-0.419614	0.214073
H163	H	1.018481	-0.919009	-0.220931
H164	H	1.518481	-0.419009	0.279069
F165	F	1.014798	-1.110203	-0.204354
F166	F	1.514798	-0.610203	0.295646
H167	H	1.083182	-1.102313	-0.285663
H168	H	1.583182	-0.602313	0.214337
F169	F	0.950466	-1.109798	-0.449991
F170	F	1.450466	-0.609798	0.050009
H171	H	0.889046	-1.102352	-0.256750
H172	H	1.389046	-0.602352	0.243250
H173	H	0.867782	-1.100357	-0.346070
H174	H	1.367782	-0.600357	0.153930
