data_functionalizedCrystal
_audit_creation_method	'MofGen! by Chris Wilmer'
_symmetry_space_group_name_H-M	'P1'
_symmetry_Int_Tables_number	1
_symmetry_cell_setting	triclinic
loop_
_symmetry_equiv_pos_as_xyz
  x,y,z
_cell_length_a	25.639239
_cell_length_b	18.215407
_cell_length_c	18.215399
_cell_angle_alpha	90.017777
_cell_angle_beta	89.969965
_cell_angle_gamma	89.965694
loop_
_atom_site_label
_atom_site_type_symbol
_atom_site_fract_x
_atom_site_fract_y
_atom_site_fract_z
Zn1	Zn	-0.208217	-1.125001	-0.416065
Zn2	Zn	-0.295653	-1.124880	-0.292994
Zn3	Zn	-0.208227	-1.001934	-0.293017
Zn4	Zn	-0.295617	-1.001870	-0.416023
O5	O	-0.251929	-1.063421	-0.354525
O6	O	-0.219827	-1.227969	-0.399747
O7	O	-0.284075	-1.108547	-0.190013
O8	O	-0.135060	-1.018336	-0.309366
O9	O	-0.284066	-1.227880	-0.309327
O10	O	-0.135053	-1.108754	-0.399769
O11	O	-0.219844	-1.018219	-0.190029
O12	O	-0.219808	-0.898941	-0.309326
O13	O	-0.284004	-1.018228	-0.519013
O14	O	-0.284013	-0.898894	-0.399698
O15	O	-0.219792	-1.108692	-0.519044
O16	O	-0.368814	-1.108485	-0.309287
O17	O	-0.368787	-1.018110	-0.399676
C18	C	-0.251908	-0.872215	-0.354510
C19	C	-0.251912	-0.790416	-0.354522
C20	C	-0.218527	-0.602268	-0.401676
C21	C	-0.218530	-0.525409	-0.401678
C22	C	-0.285322	-0.525327	-0.307379
C23	C	-0.285316	-0.602184	-0.307374
C24	C	-0.251920	-0.640653	-0.354527
C25	C	-0.251928	-0.486937	-0.354534
C26	C	-0.251931	-0.403603	-0.354535
C27	C	-0.251916	-0.723992	-0.354524
C28	C	-0.387771	-1.063298	-0.354491
C29	C	-0.445885	-1.063312	-0.354501
C30	C	-0.806250	-1.110602	-0.307539
C31	C	-0.860854	-1.110631	-0.307549
O32	O	-0.889092	-1.150710	-0.267583
N33	N	-0.888168	-1.063551	-0.354573
C34	C	-0.860874	-1.016444	-0.401596
O35	O	-0.889121	-0.976402	-0.441596
C36	C	-0.806271	-1.016420	-0.401590
C37	C	-0.778960	-1.063498	-0.354557
C38	C	-0.778939	-1.157677	-0.260511
C39	C	-0.724338	-1.157647	-0.260500
C40	C	-0.697049	-1.110543	-0.307518
C41	C	-0.724359	-1.063468	-0.354546
C42	C	-0.778978	-0.969318	-0.448616
C43	C	-0.724371	-0.969298	-0.448605
C44	C	-0.697061	-1.016376	-0.401573
C45	C	-0.642469	-1.016334	-0.401553
N46	N	-0.615156	-1.063414	-0.354529
C47	C	-0.642445	-1.110519	-0.307511
C48	C	-0.975545	-1.016500	-0.401608
C49	C	-1.030147	-1.016520	-0.401611
C50	C	-1.030123	-1.110707	-0.307565
C51	C	-0.975520	-1.110683	-0.307558
C52	C	-0.948231	-1.063580	-0.354583
C53	C	-0.527780	-1.110452	-0.307492
C54	C	-0.473175	-1.110416	-0.307484
C55	C	-0.473204	-1.016232	-0.401532
C56	C	-0.527804	-1.016265	-0.401539
C57	C	-0.555091	-1.063381	-0.354516
O58	O	-0.614197	-0.976277	-0.441501
O59	O	-0.614192	-1.150561	-0.267526
C60	C	-0.115556	-1.063566	-0.354575
C61	C	-0.057441	-1.063627	-0.354596
C62	C	-0.251893	-1.063466	-0.546478
C63	C	-0.251877	-1.063485	-0.628277
C64	C	-0.251944	-0.255374	-0.354538
C65	C	-0.251936	-0.337173	-0.354539
C66	C	-0.218411	-1.110607	-0.816488
C67	C	-0.218395	-1.110616	-0.893346
C68	C	-0.285263	-1.016416	-0.893303
C69	C	-0.285275	-1.016404	-0.816446
C70	C	-0.251850	-1.063504	-0.778040
C71	C	-0.251822	-1.063524	-0.931756
C72	C	-0.251806	-1.063533	-1.015090
C73	C	-0.251865	-1.063494	-0.694701
C74	C	-0.251927	-1.063419	-0.163318
C75	C	-0.251795	-1.063543	-0.081520
H76	H	-0.549991	-1.148821	-0.269204
C77	C	-0.181787	-0.644584	-0.453535
C78	C	-0.181778	-0.729124	-0.453534
C79	C	-0.145034	-0.771437	-0.505392
C80	C	-0.108300	-0.729211	-0.557251
C81	C	-0.108308	-0.644666	-0.557254
C82	C	-0.145052	-0.602352	-0.505396
H83	H	-0.208972	-0.760386	-0.415143
H84	H	-0.145029	-0.834023	-0.505389
H85	H	-0.081101	-0.760534	-0.595639
H86	H	-0.081114	-0.613403	-0.595645
H87	H	-0.145058	-0.539766	-0.505399
C88	C	-0.322034	-0.964619	-0.935558
C89	C	-0.363074	-0.996487	-0.988380
C90	C	-0.399847	-0.944694	-1.030635
C91	C	-0.395580	-0.861033	-1.020069
C92	C	-0.354538	-0.829161	-0.967245
C93	C	-0.317765	-0.880954	-0.924989
H94	H	-0.366234	-1.058422	-0.996204
H95	H	-0.430229	-0.968288	-1.069739
H96	H	-0.422802	-0.822692	-1.051349
H97	H	-0.351378	-0.767226	-0.959421
H98	H	-0.287383	-0.857360	-0.885885
H99	H	-0.312505	-0.978042	-0.785141
H100	H	-0.953286	-1.149018	-0.269260
H101	H	-0.191338	-0.494159	-0.440071
H102	H	-0.312512	-0.493997	-0.268989
H103	H	-1.052379	-0.978177	-0.439903
C104	C	-0.181613	-1.162433	-0.935638
C105	C	-0.204265	-1.220194	-0.988478
C106	C	-0.167480	-1.272013	-1.030769
C107	C	-0.108044	-1.266071	-1.020219
C108	C	-0.085389	-1.208307	-0.967377
C109	C	-0.122174	-1.156488	-0.925086
H110	H	-0.248265	-1.224595	-0.996289
H111	H	-0.184250	-1.314773	-1.069886
H112	H	-0.080814	-1.304430	-1.051525
H113	H	-0.041388	-1.203907	-0.959565
H114	H	-0.105403	-1.113728	-0.885969
H115	H	-0.953329	-0.978136	-0.439899
H116	H	-0.801206	-0.930978	-0.486911
H117	H	-0.312508	-0.633438	-0.268975
C118	C	-0.181640	-1.162410	-0.774240
C119	C	-0.181652	-1.162402	-0.689700
C120	C	-0.144879	-1.214205	-0.647455
C121	C	-0.108095	-1.266015	-0.689751
C122	C	-0.108082	-1.266024	-0.774295
C123	C	-0.144854	-1.214221	-0.816540
H124	H	-0.208883	-1.124048	-0.658387
H125	H	-0.144889	-1.214198	-0.584869
H126	H	-0.080873	-1.304362	-0.658478
H127	H	-0.080850	-1.304378	-0.805609
H128	H	-0.144845	-1.214228	-0.879126
H129	H	-0.450940	-1.148753	-0.269181
C130	C	-0.694354	-0.917479	-0.500332
C131	C	-0.701924	-0.833825	-0.494254
C132	C	-0.671908	-0.782005	-0.545978
C133	C	-0.634322	-0.813839	-0.603779
C134	C	-0.626750	-0.897498	-0.609860
C135	C	-0.656766	-0.949317	-0.558136
H136	H	-0.729750	-0.810256	-0.451464
H137	H	-0.677514	-0.720076	-0.541476
H138	H	-0.612102	-0.775479	-0.642068
H139	H	-0.598924	-0.921067	-0.652650
H140	H	-0.651161	-1.011247	-0.562637
H141	H	-0.702105	-1.195984	-0.222205
H142	H	-0.550042	-0.977932	-0.439839
C143	C	-0.808950	-1.209496	-0.208784
C144	C	-0.801472	-1.203527	-0.125118
C145	C	-0.831479	-1.255346	-0.073383
C146	C	-0.868963	-1.313134	-0.105312
C147	C	-0.876443	-1.319106	-0.188982
C148	C	-0.846437	-1.267287	-0.240718
H149	H	-0.773722	-1.160747	-0.101478
H150	H	-0.825942	-1.250926	-0.011444
H151	H	-0.891176	-1.351494	-0.067014
H152	H	-0.904193	-1.361886	-0.212622
H153	H	-0.851974	-1.271707	-0.302656
H154	H	-1.052352	-1.149065	-0.269283
H155	H	-0.450976	-0.977877	-0.439811
