data_functionalizedCrystal
_audit_creation_method	'MofGen! by Chris Wilmer'
_symmetry_space_group_name_H-M	'P1'
_symmetry_Int_Tables_number	1
_symmetry_cell_setting	triclinic
loop_
_symmetry_equiv_pos_as_xyz
  x,y,z
_cell_length_a	16.992701
_cell_length_b	19.188924
_cell_length_c	16.053802
_cell_angle_alpha	92.554672
_cell_angle_beta	87.243340
_cell_angle_gamma	86.904567
loop_
_atom_site_label
_atom_site_type_symbol
_atom_site_fract_x
_atom_site_fract_y
_atom_site_fract_z
O1	O	1.043198	0.145255	-0.069442
O2	O	1.376531	0.478588	0.263892
O3	O	1.709864	0.811921	0.597225
O4	O	0.814918	0.143633	-0.069442
O5	O	1.148251	0.476966	0.263891
O6	O	1.481585	0.810299	0.597225
O7	O	0.935648	0.043174	-0.069432
O8	O	1.268981	0.376507	0.263901
O9	O	1.602315	0.709840	0.597235
O10	O	0.922468	0.245714	-0.069452
O11	O	1.255801	0.579047	0.263882
O12	O	1.589135	0.912380	0.597215
O13	O	0.929003	0.048679	0.069426
O14	O	1.262336	0.382012	0.402760
O15	O	1.595669	0.715346	0.736093
O16	O	0.808273	0.149138	0.069416
O17	O	1.141606	0.482471	0.402750
O18	O	1.474939	0.815805	0.736083
O19	O	1.036553	0.150760	0.069417
O20	O	1.369886	0.484093	0.402750
O21	O	1.703219	0.817427	0.736083
Zn22	Zn	0.921358	0.150823	0.091463
Zn23	Zn	1.254691	0.484156	0.424797
Zn24	Zn	1.588024	0.817490	0.758130
Zn25	Zn	0.930113	0.143570	-0.091489
Zn26	Zn	1.263446	0.476903	0.241845
Zn27	Zn	1.596780	0.810236	0.575178
O28	O	0.915823	0.251219	0.069407
O29	O	1.249156	0.584552	0.402740
O30	O	1.582489	0.917886	0.736073
C31	C	0.782390	0.144297	-0.000013
C32	C	1.115723	0.477630	0.333321
C33	C	1.449057	0.810963	0.666654
C34	C	0.695367	0.138064	-0.000012
C35	C	1.028701	0.471398	0.333321
C36	C	1.362034	0.804731	0.666654
C37	C	0.206553	0.096189	-0.000011
C38	C	0.539886	0.429523	0.333322
C39	C	0.873219	0.762856	0.666655
C40	C	0.288318	0.102051	-0.000007
C41	C	0.621652	0.435384	0.333326
C42	C	0.954985	0.768717	0.666660
C43	C	0.319634	0.168051	-0.000017
C44	C	0.652967	0.501385	0.333316
C45	C	0.986301	0.834718	0.666650
C46	C	0.269178	0.228195	-0.000023
C47	C	0.602512	0.561528	0.333310
C48	C	0.935845	0.894862	0.666643
C49	C	0.187414	0.222333	-0.000022
C50	C	0.520747	0.555667	0.333311
C51	C	0.854080	0.889000	0.666645
C52	C	0.563147	0.192346	-0.000017
C53	C	0.896480	0.525679	0.333316
C54	C	1.229814	0.859013	0.666650
C55	C	0.644918	0.198203	-0.000021
C56	C	0.978252	0.531537	0.333312
C57	C	1.311585	0.864870	0.666646
C58	C	0.664053	0.072058	-0.000003
C59	C	0.997386	0.405392	0.333330
C60	C	1.330719	0.738725	0.666664
C61	C	0.582286	0.066202	-0.000007
C62	C	0.915619	0.399535	0.333327
C63	C	1.248953	0.732869	0.666660
C64	C	0.531837	0.126346	-0.000008
C65	C	0.865171	0.459679	0.333325
C66	C	1.198504	0.793013	0.666658
N67	N	0.403212	0.174044	-0.000015
N68	N	0.736545	0.507378	0.333318
N69	N	1.069879	0.840711	0.666651
N70	N	0.448261	0.120353	-0.000004
N71	N	0.781594	0.453686	0.333329
N72	N	1.114927	0.787019	0.666662
C73	C	0.931899	0.019890	-0.000002
C74	C	1.265233	0.353224	0.333331
C75	C	1.598566	0.686557	0.666665
C76	C	0.930621	-0.057689	0.000000
C77	C	1.263954	0.275644	0.333334
C78	C	1.597287	0.608978	0.666667
C79	C	0.933646	-0.097124	-0.075692
C80	C	1.266979	0.236210	0.257642
C81	C	1.600313	0.569543	0.590975
C82	C	0.932434	-0.170018	-0.075698
C83	C	1.265767	0.163316	0.257635
C84	C	1.599101	0.496649	0.590969
C85	C	0.928212	-0.203475	-0.000008
C86	C	1.261545	0.129858	0.333325
C87	C	1.594878	0.463192	0.666659
C88	C	0.925181	-0.164031	0.075694
C89	C	1.258515	0.169303	0.409027
C90	C	1.591848	0.502636	0.742360
C91	C	0.926386	-0.091138	0.075698
C92	C	1.259719	0.242196	0.409031
C93	C	1.593052	0.575529	0.742365
N94	N	0.968236	-0.318405	0.056326
N95	N	1.301569	0.014928	0.389659
N96	N	1.634903	0.348262	0.722993
N97	N	0.967094	-0.387651	0.056317
N98	N	1.300427	-0.054317	0.389650
N99	N	1.633761	0.279016	0.722984
C100	C	0.924581	-0.423097	-0.000016
C101	C	1.257914	-0.089763	0.333317
C102	C	1.591248	0.243570	0.666650
N103	N	0.883264	-0.386683	-0.056353
N104	N	1.216597	-0.053349	0.276981
N105	N	1.549930	0.279984	0.610314
N106	N	0.884410	-0.317431	-0.056346
N107	N	1.217743	0.015902	0.276987
N108	N	1.551076	0.349236	0.610321
C109	C	0.926905	-0.282515	-0.000004
C110	C	1.260238	0.050819	0.333329
C111	C	1.593571	0.384152	0.666662
C112	C	0.926291	-0.541572	-0.075720
C113	C	1.259624	-0.208238	0.257613
C114	C	1.592958	0.125095	0.590946
C115	C	0.925074	-0.614466	-0.075723
C116	C	1.258407	-0.281133	0.257610
C117	C	1.591740	0.052200	0.590943
C118	C	0.917829	-0.608478	0.075671
C119	C	1.251162	-0.275145	0.409004
C120	C	1.584496	0.058188	0.742337
C121	C	0.919039	-0.535585	0.075672
C122	C	1.252372	-0.202251	0.409005
C123	C	1.585705	0.131082	0.742338
C124	C	0.923273	-0.502136	-0.000026
C125	C	1.256607	-0.168802	0.333307
C126	C	1.589940	0.164531	0.666641
C127	C	1.069081	0.150096	-0.000014
C128	C	1.402414	0.483429	0.333319
C129	C	1.735747	0.816763	0.666652
C130	C	1.156103	0.156328	-0.000020
C131	C	1.489437	0.489662	0.333313
C132	C	1.822770	0.822995	0.666647
C133	C	0.919571	0.274502	-0.000025
C134	C	1.252905	0.607836	0.333308
C135	C	1.586238	0.941169	0.666642
C136	C	0.920850	0.352082	-0.000033
C137	C	1.254184	0.685415	0.333301
C138	C	1.587517	1.018748	0.666634
N139	N	0.915388	0.155773	0.216323
N140	N	1.248721	0.489107	0.549656
N141	N	1.582055	0.822440	0.882990
N142	N	0.936089	0.138614	-0.216348
N143	N	1.269422	0.471948	0.116985
N144	N	1.602755	0.805281	0.450318
C145	C	0.966777	0.113045	0.260021
C146	C	1.300111	0.446378	0.593355
C147	C	1.633444	0.779712	0.926688
C148	C	0.962609	0.116515	0.347428
C149	C	1.295942	0.449848	0.680761
C150	C	1.629276	0.783181	1.014094
C151	C	0.907054	0.162717	0.391134
C152	C	1.240387	0.496050	0.724468
C153	C	1.573721	0.829383	1.057801
C154	C	0.855659	0.205447	0.347430
C155	C	1.188993	0.538780	0.680763
C156	C	1.522326	0.872113	1.014097
C157	C	0.859825	0.201973	0.260025
C158	C	1.193158	0.535306	0.593359
C159	C	1.526491	0.868639	0.926692
C160	C	0.888859	0.177871	0.652543
C161	C	1.222193	0.511204	0.985876
C162	C	1.555526	0.844537	1.319209
C163	C	0.884699	0.181343	0.739953
C164	C	1.218033	0.514676	1.073287
C165	C	1.551366	0.848009	1.406620
C166	C	0.991648	0.092409	0.739945
C167	C	1.324982	0.425743	1.073278
C168	C	1.658315	0.759076	1.406612
C169	C	0.995812	0.088943	0.652539
C170	C	1.329145	0.422276	0.985872
C171	C	1.662479	0.755609	1.319205
C172	C	0.944414	0.131670	0.608842
C173	C	1.277748	0.465003	0.942175
C174	C	1.611081	0.798337	1.275509
N175	N	0.902794	0.166266	0.480478
N176	N	1.236127	0.499599	0.813811
N177	N	1.569460	0.832933	1.147144
N178	N	0.948672	0.128117	0.519500
N179	N	1.282005	0.461450	0.852833
N180	N	1.615339	0.794783	1.186167
H181	H	0.146338	0.271305	-0.000026
H182	H	0.479671	0.604638	0.333307
H183	H	0.813005	0.937972	0.666641
H184	H	0.937092	-0.069894	-0.137331
H185	H	1.270425	0.263439	0.196003
H186	H	1.603759	0.596772	0.529336
Br187	Br	1.032350	0.058523	0.406735
Br188	Br	1.365683	0.391857	0.740069
Br189	Br	1.699016	0.725190	1.073402
Br190	Br	0.164062	0.006612	-0.000004
Br191	Br	0.497395	0.339945	0.333330
Br192	Br	0.830728	0.673279	0.666663
Br193	Br	0.356783	0.020430	0.000013
Br194	Br	0.690116	0.353763	0.333347
Br195	Br	1.023449	0.687096	0.666680
Br196	Br	1.071211	0.026243	0.593221
Br197	Br	1.404544	0.359576	0.926554
Br198	Br	1.737878	0.692910	1.259888
Br199	Br	0.929171	-0.667987	-0.178458
Br200	Br	1.262505	-0.334653	0.154876
Br201	Br	1.595838	-0.001320	0.488209
H202	H	0.916581	-0.503477	0.137308
H203	H	1.249915	-0.170143	0.470642
H204	H	1.583248	0.163190	0.803975
H205	H	0.934893	-0.202131	-0.137337
H206	H	1.268226	0.131202	0.195996
H207	H	1.601560	0.464535	0.529329
H208	H	0.670411	0.251952	-0.000017
H209	H	1.003744	0.585286	0.333316
H210	H	1.337078	0.918619	0.666649
Br211	Br	0.919441	-0.209434	0.178417
Br212	Br	1.252775	0.123899	0.511750
Br213	Br	1.586108	0.457233	0.845083
Br214	Br	1.061397	0.034424	0.799250
Br215	Br	1.394731	0.367757	1.132584
Br216	Br	1.728064	0.701091	1.465917
H217	H	0.839458	0.218969	0.775535
H218	H	1.172791	0.552302	1.108869
H219	H	1.506124	0.885635	1.442202
H220	H	0.847011	0.212662	0.616972
H221	H	1.180344	0.545995	0.950305
H222	H	1.513677	0.879329	1.283638
H223	H	0.923919	-0.059030	0.137337
H224	H	1.257252	0.274304	0.470671
H225	H	1.590585	0.607637	0.804004
H226	H	0.929735	-0.514336	-0.137358
H227	H	1.263068	-0.181003	0.195976
H228	H	1.596401	0.152331	0.529309
H229	H	0.817977	0.236766	0.224447
H230	H	1.151310	0.570099	0.557780
H231	H	1.484644	0.903432	0.891114
Br232	Br	0.912091	-0.653876	0.178395
Br233	Br	1.245424	-0.320543	0.511728
Br234	Br	1.578757	0.012791	0.845061
H235	H	1.012019	0.075426	0.224441
H236	H	1.345352	0.408759	0.557774
H237	H	1.678686	0.742092	0.891108
Br238	Br	0.732522	-0.009560	0.000004
Br239	Br	1.065855	0.323773	0.333337
Br240	Br	1.399188	0.657106	0.666671
Br241	Br	0.539794	-0.023375	-0.000029
Br242	Br	0.873127	0.309958	0.333304
Br243	Br	1.206461	0.643292	0.666637
Br244	Br	0.494692	0.273970	-0.000030
Br245	Br	0.828025	0.607304	0.333304
Br246	Br	1.161358	0.940637	0.666637
H247	H	0.294682	0.281935	-0.000027
H248	H	0.628015	0.615268	0.333307
H249	H	0.961348	0.948601	0.666640
Br250	Br	0.780256	0.268145	0.406743
Br251	Br	1.113589	0.601479	0.740076
Br252	Br	1.446923	0.934812	1.073410
