data_functionalizedCrystal
_audit_creation_method	'MofGen! by Chris Wilmer'
_symmetry_space_group_name_H-M	'P1'
_symmetry_Int_Tables_number	1
_symmetry_cell_setting	triclinic
loop_
_symmetry_equiv_pos_as_xyz
  x,y,z
_cell_length_a	17.699083
_cell_length_b	16.053802
_cell_length_c	17.699083
_cell_angle_alpha	92.559410
_cell_angle_beta	96.716985
_cell_angle_gamma	92.569971
loop_
_atom_site_label
_atom_site_type_symbol
_atom_site_fract_x
_atom_site_fract_y
_atom_site_fract_z
O1	O	1.007269	0.069313	-0.092524
O2	O	0.786892	0.069341	-0.104975
O3	O	0.903307	0.069319	0.011439
O4	O	0.890855	0.069335	-0.208938
O5	O	0.896899	-0.069539	0.005058
O6	O	0.780484	-0.069517	-0.111357
O7	O	1.000862	-0.069544	-0.098905
Zn8	Zn	0.889656	-0.091577	-0.106144
Zn9	Zn	0.898098	0.091374	-0.097736
O10	O	0.884447	-0.069522	-0.215320
C11	C	0.755492	-0.000084	-0.107720
C12	C	0.671474	-0.000074	-0.106380
N13	N	0.883899	-0.216436	-0.111882
C14	C	0.622853	-0.000069	-0.174714
C15	C	0.543909	-0.000080	-0.173452
C16	C	0.513588	-0.000090	-0.103856
C17	C	0.562215	-0.000097	-0.035518
C18	C	0.641157	-0.000092	-0.036780
C19	C	0.243851	-0.000118	-0.030423
C20	C	0.164903	-0.000121	-0.029166
C21	C	0.146603	-0.000106	-0.167095
C22	C	0.225545	-0.000101	-0.168358
C23	C	0.274165	-0.000113	-0.100020
C24	C	0.359765	-0.000103	-0.101389
C25	C	0.427990	-0.000094	-0.102486
C26	C	0.933452	-0.260140	-0.062365
C27	C	0.929432	-0.347546	-0.066386
C28	C	0.875864	-0.391247	-0.119927
C29	C	0.826306	-0.347537	-0.169447
C30	C	0.830322	-0.260133	-0.165422
C31	C	0.858319	-0.652653	-0.137487
C32	C	0.854308	-0.740064	-0.141510
C33	C	0.957434	-0.740066	-0.038447
C34	C	0.961449	-0.652660	-0.034430
C35	C	0.911888	-0.608958	-0.083947
N36	N	0.871755	-0.480590	-0.124040
N37	N	0.915994	-0.519617	-0.079830
C38	C	1.032262	-0.000117	-0.096161
C39	C	1.116280	-0.000122	-0.097500
C40	C	0.899657	-0.000110	0.036445
C41	C	0.898318	-0.000110	0.120464
N42	N	0.903860	0.216233	-0.091993
C43	C	0.888097	-0.000092	-0.240326
C44	C	0.889436	-0.000086	-0.324344
C45	C	0.966651	-0.000120	0.169084
C46	C	0.965389	-0.000112	0.248028
C47	C	0.895793	-0.000101	0.278349
C48	C	0.827455	-0.000089	0.229722
C49	C	0.828718	-0.000090	0.150781
C50	C	0.822360	-0.000081	0.548086
C51	C	0.821102	-0.000082	0.627034
C52	C	0.959031	-0.000103	0.645333
C53	C	0.960294	-0.000105	0.566391
C54	C	0.891957	-0.000088	0.517772
C55	C	0.893326	-0.000095	0.432172
C56	C	0.894423	-0.000100	0.363947
H57	H	0.647534	-0.000061	-0.231387
C58	C	0.258899	-0.000088	-0.244911
H59	H	0.312878	-0.000078	-0.235875
H60	H	0.239975	-0.048508	-0.275268
H61	H	0.244429	0.048344	-0.270812
C62	C	1.034205	-0.000112	0.698814
H63	H	1.075832	-0.000129	0.669447
H64	H	1.038819	0.048311	0.732211
H65	H	1.034343	-0.048540	0.727766
C66	C	0.093119	-0.000104	-0.242267
H67	H	0.041761	-0.000118	-0.231551
H68	H	0.104523	0.048322	-0.268584
H69	H	0.100072	-0.048529	-0.273035
C70	C	0.131551	-0.000140	0.047393
H71	H	0.171812	-0.000154	0.087912
H72	H	0.103364	0.048281	0.052982
H73	H	0.098907	-0.048571	0.048518
C74	C	0.983947	-0.395616	-0.011924
H75	H	1.016434	-0.357071	0.020532
H76	H	0.955223	-0.429724	0.017984
H77	H	1.013832	-0.429700	-0.040692
H78	H	0.789970	-0.224551	-0.205743
C79	C	1.011938	-0.788139	0.016022
H80	H	1.001872	-0.846453	0.005964
H81	H	1.063092	-0.773807	0.008530
H82	H	1.004464	-0.773824	0.067186
H83	H	0.770789	-0.000074	0.254416
C84	C	0.490430	-0.000072	-0.248618
H85	H	0.519795	-0.000055	-0.290247
H86	H	0.457027	-0.048497	-0.253223
H87	H	0.461481	0.048354	-0.248764
H88	H	0.977077	-0.224564	-0.018769
C89	C	0.753552	-0.000082	0.097298
H90	H	0.711921	-0.000082	0.126661
H91	H	0.753413	0.048341	0.068345
H92	H	0.748942	-0.048510	0.063900
H93	H	0.764425	-0.000075	0.651718
H94	H	0.283428	-0.000128	0.025222
H95	H	0.810683	-0.775641	-0.185113
C96	C	1.043208	-0.000132	0.135738
H97	H	1.083723	-0.000129	0.176004
H98	H	1.044335	-0.048555	0.103100
H99	H	1.048801	0.048296	0.107547
H100	H	1.021033	-0.000122	0.287612
H101	H	0.537521	-0.000117	0.021148
H102	H	0.680744	-0.000096	0.018864
C103	C	0.803811	-0.604592	-0.191959
H104	H	0.771340	-0.643139	-0.224428
H105	H	0.773921	-0.570505	-0.163207
H106	H	0.832548	-0.570487	-0.221865
C107	C	1.020370	-0.604594	0.024470
H108	H	1.049303	-0.643142	0.053390
H109	H	1.053390	-0.570486	-0.001145
H110	H	0.994764	-0.570510	0.057514
C111	C	0.747194	-0.000062	0.494611
H112	H	0.757909	-0.000053	0.443253
H113	H	0.716411	-0.048479	0.501564
H114	H	0.720893	0.048373	0.506018
C115	C	0.767382	-0.395606	-0.228343
H116	H	0.772092	-0.453921	-0.223654
H117	H	0.717545	-0.381293	-0.219529
H118	H	0.776171	-0.381268	-0.278188
H119	H	1.016966	-0.000118	0.541708
