data_functionalizedCrystal
_audit_creation_method	'MofGen! by Chris Wilmer'
_symmetry_space_group_name_H-M	'P1'
_symmetry_Int_Tables_number	1
_symmetry_cell_setting	triclinic
loop_
_symmetry_equiv_pos_as_xyz
  x,y,z
_cell_length_a	13.339070
_cell_length_b	15.538191
_cell_length_c	12.376457
_cell_angle_alpha	96.760679
_cell_angle_beta	75.589755
_cell_angle_gamma	81.450694
loop_
_atom_site_label
_atom_site_type_symbol
_atom_site_fract_x
_atom_site_fract_y
_atom_site_fract_z
O1	O	1.207811	0.419051	-0.094003
O2	O	0.934051	0.362493	-0.094002
O3	O	1.124222	0.267570	-0.094008
O4	O	1.017640	0.513974	-0.093997
O5	O	1.076708	0.291259	0.094005
O6	O	0.886537	0.386182	0.094011
O7	O	1.160297	0.442740	0.094010
Zn8	Zn	1.015874	0.418223	0.123862
Zn9	Zn	1.078475	0.387011	-0.123854
O10	O	0.970126	0.537663	0.094016
C11	C	0.876113	0.364784	0.000004
C12	C	0.774268	0.336307	0.000004
C13	C	0.328171	0.557731	-0.000004
C14	C	0.423859	0.584490	-0.000007
C15	C	0.511466	0.522446	-0.000004
C16	C	0.503376	0.433640	0.000002
C17	C	0.407681	0.406878	-0.000004
C18	C	0.590975	0.371593	-0.000004
C19	C	0.582885	0.282786	0.000002
C20	C	0.487198	0.256029	-0.000003
C21	C	0.399592	0.318072	-0.000006
C22	C	0.686670	0.398355	0.000002
C23	C	0.766179	0.247501	0.000002
C24	C	0.670491	0.220743	0.000005
C25	C	1.111617	0.247233	-0.000005
C26	C	1.144835	0.151340	-0.000017
C27	C	0.814845	-0.222695	0.000009
C28	C	0.846079	-0.312797	0.000011
C29	C	1.021762	-0.289322	0.000010
C30	C	0.990545	-0.199217	0.000002
C31	C	0.887085	-0.165911	0.000003
C32	C	1.062785	-0.142432	-0.000004
C33	C	1.031568	-0.052334	-0.000006
C34	C	0.928112	-0.019021	-0.000002
C35	C	0.855868	-0.075813	0.000001
C36	C	1.166243	-0.175739	0.000003
C37	C	1.238482	-0.118955	-0.000003
C38	C	1.207268	-0.028856	-0.000013
C39	C	1.103812	0.004457	-0.000009
C40	C	1.279512	0.027936	-0.000015
C41	C	1.248295	0.118034	-0.000017
C42	C	1.072595	0.094555	-0.000011
C43	C	1.218236	0.440449	0.000001
C44	C	1.320083	0.468926	-0.000006
C45	C	0.982732	0.558000	0.000011
C46	C	0.949516	0.653893	0.000015
N47	N	0.973157	0.439525	0.292922
N48	N	1.121201	0.365704	-0.292914
C49	C	1.220367	0.316238	0.647899
C50	C	1.250259	0.301327	0.529558
C51	C	1.180986	0.335875	0.470393
C52	C	1.081816	0.385337	0.529581
C53	C	1.051923	0.400255	0.647933
C54	C	1.012543	0.419892	0.470427
C55	C	0.913372	0.469354	0.529615
C56	C	0.883485	0.484269	0.647955
C57	C	0.952758	0.449721	0.707120
C58	C	1.042435	0.404974	0.352075
C59	C	0.873991	0.488991	0.352109
C60	C	0.844099	0.503902	0.470450
H61	H	0.480620	0.183715	-0.000011
C62	C	0.432762	0.682166	-0.000016
H63	H	0.502300	0.689217	-0.000026
H64	H	0.384174	0.717039	0.065544
H65	H	0.417319	0.700501	-0.065593
C66	C	0.774406	0.538682	0.713064
H67	H	0.766530	0.542624	0.792019
H68	H	0.721141	0.510771	0.693686
H69	H	0.768264	0.596230	0.693667
H70	H	1.322719	-0.146085	0.000002
C71	C	1.327756	0.180499	-0.000025
H72	H	1.393845	0.147759	-0.000036
H73	H	1.302659	0.224398	0.065539
H74	H	1.335798	0.207869	-0.065599
H75	H	0.988350	0.121673	-0.000019
H76	H	0.787240	-0.359028	0.000032
C77	C	0.661585	0.123060	-0.000001
H78	H	0.592051	0.116011	-0.000013
H79	H	0.677030	0.104711	0.065562
H80	H	0.710173	0.088193	-0.065575
C81	C	0.862536	0.179249	0.000008
H82	H	0.920680	0.207907	0.000023
H83	H	0.879764	0.135610	-0.065557
H84	H	0.846614	0.152137	0.065580
C85	C	0.735022	0.558314	0.535564
H86	H	0.727149	0.562253	0.614518
H87	H	0.681755	0.530405	0.516186
H88	H	0.728879	0.615864	0.516170
H89	H	0.902696	0.054344	0.000003
C90	C	0.742066	-0.039172	-0.000009
H91	H	0.703508	-0.085893	-0.000004
H92	H	0.742813	-0.012774	-0.065574
H93	H	0.709665	0.003751	0.065563
C94	C	0.701043	-0.186054	-0.000001
H95	H	0.662485	-0.232775	0.000004
H96	H	0.701790	-0.159656	-0.065566
H97	H	0.668641	-0.143131	0.065571
H98	H	1.191658	-0.249105	-0.000005
H99	H	1.123180	0.364702	0.303895
H100	H	1.363746	0.000805	-0.000004
C101	C	0.797789	0.527001	0.287040
H102	H	0.829790	0.511027	0.208081
H103	H	0.781848	0.589434	0.306434
H104	H	0.734724	0.503975	0.306446
H105	H	1.276763	0.288119	0.696079
H106	H	0.589378	0.544238	-0.000009
H107	H	0.693245	0.470662	0.000002
H108	H	1.105999	-0.316452	0.000014
C109	C	1.359332	0.246918	0.464460
H110	H	1.396304	0.228471	0.516643
H111	H	1.398053	0.282079	0.418283
H112	H	1.350930	0.196620	0.418303
C113	C	0.231811	0.625967	-0.000008
H114	H	0.173664	0.597309	-0.000004
H115	H	0.247727	0.653084	-0.065570
H116	H	0.214580	0.669605	0.065567
C117	C	1.213862	0.319466	0.340222
H118	H	1.282840	0.285053	0.313445
H119	H	1.213072	0.374331	0.313439
H120	H	1.165961	0.288866	0.313470
H121	H	0.321671	0.296290	-0.000003
H122	H	0.928419	0.461858	0.803483
