data_functionalizedCrystal
_audit_creation_method	'MofGen! by Chris Wilmer'
_symmetry_space_group_name_H-M	'P1'
_symmetry_Int_Tables_number	1
_symmetry_cell_setting	triclinic
loop_
_symmetry_equiv_pos_as_xyz
  x,y,z
_cell_length_a	10.489741
_cell_length_b	10.489741
_cell_length_c	9.565339
_cell_angle_alpha	90.000516
_cell_angle_beta	89.999100
_cell_angle_gamma	84.539174
loop_
_atom_site_label
_atom_site_type_symbol
_atom_site_fract_x
_atom_site_fract_y
_atom_site_fract_z
O1	O	1.694053	0.179959	-0.116173
O2	O	1.322857	0.196852	-0.116194
O3	O	1.516901	0.002807	-0.116175
O4	O	1.500009	0.374003	-0.116192
O5	O	1.516886	0.002819	0.116345
O6	O	1.322842	0.196864	0.116326
O7	O	1.694038	0.179971	0.116347
Zn8	Zn	1.508437	0.188419	0.153254
Zn9	Zn	1.508458	0.188403	-0.153101
O10	O	1.499993	0.374015	0.116328
C11	C	1.275318	0.195582	0.000063
C12	C	1.133688	0.191765	0.000055
C13	C	1.065548	0.068300	0.000074
C14	C	0.973429	0.126617	-0.114571
C15	C	0.973448	0.126659	0.114676
C16	C	1.043435	0.250133	-0.114684
C17	C	1.043463	0.250157	0.114665
C18	C	0.951371	0.308564	-0.000007
C19	C	1.515618	-0.044718	0.000084
C20	C	1.511801	-0.186348	0.000082
C21	C	1.388336	-0.254488	0.000064
C22	C	1.446652	-0.346604	0.114712
C23	C	1.446696	-0.346591	-0.114534
C24	C	1.570168	-0.276599	0.114824
C25	C	1.570195	-0.276576	-0.114525
C26	C	1.628600	-0.368665	0.000150
C27	C	1.741577	0.181241	0.000087
C28	C	1.883206	0.185058	0.000086
C29	C	1.501277	0.421541	0.000066
C30	C	1.505094	0.563170	0.000059
N31	N	1.508433	0.188429	0.362334
N32	N	1.508472	0.188383	-0.362180
C33	C	1.418666	0.278138	0.453528
C34	C	1.534163	0.303949	0.546712
C35	C	1.392986	0.162629	0.546704
C36	C	1.623988	0.214298	0.453466
C37	C	1.482735	0.072928	0.453451
C38	C	1.598314	0.098690	0.546593
H39	H	0.942421	0.074372	-0.211491
H40	H	1.115238	-0.033196	-0.000065
C41	C	1.640668	-0.234943	0.245918
N42	N	1.693762	-0.203564	0.344660
C43	C	1.376104	-0.388447	-0.245477
N44	N	1.322925	-0.419966	-0.344099
H45	H	1.730204	-0.418089	0.000220
H46	H	1.622398	-0.245536	-0.211451
H47	H	1.460936	-0.024699	0.412454
H48	H	0.942463	0.074401	0.211599
H49	H	1.074269	0.302328	-0.211717
C50	C	1.251203	-0.187400	0.000214
N51	N	1.147919	-0.136866	0.000336
H52	H	1.394405	-0.377611	0.211633
C53	C	1.316214	0.380721	0.398306
N54	N	1.239055	0.457988	0.356709
C55	C	1.261067	0.133168	0.602028
N56	N	1.161703	0.110987	0.643691
H57	H	0.901947	0.410168	-0.000074
H58	H	1.074503	0.302360	0.211590
C59	C	1.563556	0.435876	0.602069
N60	N	1.585683	0.535246	0.643763
C61	C	1.755936	0.243916	0.398374
N62	N	1.855315	0.266231	0.356876
C63	C	1.701004	-0.003819	0.601475
N64	N	1.778354	-0.081020	0.642821
