data_functionalizedCrystal
_audit_creation_method	'MofGen! by Chris Wilmer'
_symmetry_space_group_name_H-M	'P1'
_symmetry_Int_Tables_number	1
_symmetry_cell_setting	triclinic
loop_
_symmetry_equiv_pos_as_xyz
  x,y,z
_cell_length_a	27.271600
_cell_length_b	9.582860
_cell_length_c	9.652871
_cell_angle_alpha	89.493185
_cell_angle_beta	112.253171
_cell_angle_gamma	111.206767
loop_
_atom_site_label
_atom_site_type_symbol
_atom_site_fract_x
_atom_site_fract_y
_atom_site_fract_z
V1	V	1.042318	0.206410	0.466326
O2	O	1.028259	-0.010584	0.457731
O3	O	1.039821	0.409915	0.462865
O4	O	1.041255	0.202943	0.669830
O5	O	1.026815	0.197821	0.249333
V6	V	1.160551	0.180489	0.440405
O7	O	1.113442	0.263268	0.523186
O8	O	1.201976	0.123630	0.383545
O9	O	1.107246	-0.023017	0.443865
O10	O	1.203959	0.397483	0.448999
O11	O	1.205403	0.189077	0.657397
O12	O	1.105812	0.183956	0.236900
V13	V	1.292318	0.206410	0.466326
O14	O	1.278259	-0.010584	0.457731
O15	O	1.289821	0.409915	0.462865
O16	O	1.291255	0.202943	0.669830
O17	O	1.276815	0.197821	0.249333
V18	V	1.410551	0.180489	0.440405
O19	O	1.363442	0.263268	0.523186
O20	O	1.451976	0.123630	0.383545
O21	O	1.357246	-0.023017	0.443865
O22	O	1.453959	0.397483	0.448999
O23	O	1.455403	0.189077	0.657397
O24	O	1.355812	0.183956	0.236900
V25	V	0.910547	0.180489	0.440405
O26	O	0.926050	0.189077	0.657397
O27	O	0.911610	0.183956	0.236900
O28	O	0.913044	-0.023017	0.443865
O29	O	0.924606	0.397483	0.448999
V30	V	0.792314	0.206410	0.466326
O31	O	0.839424	0.123630	0.383545
O32	O	0.750889	0.263268	0.523186
O33	O	0.847053	0.202943	0.669830
O34	O	0.747462	0.197821	0.249333
O35	O	0.748906	-0.010584	0.457731
O36	O	0.845619	0.409915	0.462865
V37	V	1.542318	0.206410	0.466326
O38	O	1.528259	-0.010584	0.457731
O39	O	1.539821	0.409915	0.462865
O40	O	1.541255	0.202943	0.669830
O41	O	1.526815	0.197821	0.249333
V42	V	1.660551	0.180489	0.440405
O43	O	1.613442	0.263268	0.523186
O44	O	1.701976	0.123630	0.383545
O45	O	1.607246	-0.023017	0.443865
O46	O	1.703959	0.397483	0.448999
O47	O	1.705403	0.189077	0.657397
O48	O	1.605812	0.183956	0.236900
C49	C	1.003050	0.459535	0.455438
C50	C	1.021403	0.625901	0.453965
C51	C	1.004879	0.195519	0.719441
C52	C	1.024394	0.194031	0.885806
C53	C	1.059853	-0.072628	0.451288
C54	C	1.036310	-0.238993	0.452771
C55	C	1.059764	0.191377	1.187280
C56	C	1.040245	0.192833	1.020911
C57	C	1.253050	0.459535	0.455438
C58	C	1.271403	0.625901	0.453965
C59	C	1.254879	0.195519	0.719441
C60	C	1.274394	0.194031	0.885806
C61	C	1.309853	-0.072628	0.451288
C62	C	1.286310	-0.238993	0.452771
C63	C	1.308024	0.191385	0.187281
C64	C	1.283318	0.192865	0.020915
C65	C	0.947986	0.191385	0.187281
C66	C	0.928470	0.192867	0.020916
C67	C	0.949816	-0.072628	0.451289
C68	C	0.931464	-0.238993	0.452775
C69	C	0.894841	0.195518	0.719441
C70	C	0.919547	0.194028	0.885805
C71	C	0.893012	0.459535	0.455441
C72	C	0.916557	0.625903	0.453974
C73	C	1.503050	0.459535	0.455438
C74	C	1.521403	0.625901	0.453965
C75	C	1.504879	0.195519	0.719441
C76	C	1.524394	0.194031	0.885806
C77	C	1.559853	-0.072628	0.451288
C78	C	1.536310	-0.238993	0.452771
C79	C	1.558024	0.191385	0.187281
C80	C	1.533318	0.192865	0.020915
