data_functionalizedCrystal
_audit_creation_method	'MofGen! by Chris Wilmer'
_symmetry_space_group_name_H-M	'P1'
_symmetry_Int_Tables_number	1
_symmetry_cell_setting	triclinic
loop_
_symmetry_equiv_pos_as_xyz
  x,y,z
_cell_length_a	10.654559
_cell_length_b	23.532407
_cell_length_c	9.730223
_cell_angle_alpha	90.005957
_cell_angle_beta	90.000437
_cell_angle_gamma	83.668681
loop_
_atom_site_label
_atom_site_type_symbol
_atom_site_fract_x
_atom_site_fract_y
_atom_site_fract_z
O1	O	1.665292	0.080007	0.114313
O2	O	1.299574	0.087622	0.114316
O3	O	1.493461	0.000955	0.114289
O4	O	1.471405	0.166675	0.114340
O5	O	1.493459	0.000957	-0.114291
O6	O	1.299572	0.087624	-0.114264
O7	O	1.665290	0.080010	-0.114267
Zn8	Zn	1.482431	0.083817	-0.150558
Zn9	Zn	1.482434	0.083814	0.150606
O10	O	1.471403	0.166677	-0.114240
C11	C	1.252793	0.087063	0.000026
C12	C	1.113403	0.085387	0.000026
C13	C	1.063530	0.032783	0.000006
C14	C	0.932558	0.031212	0.000016
C15	C	0.901342	0.134853	0.000059
C16	C	1.032312	0.136423	0.000059
C17	C	1.081551	-0.027053	-0.000025
C18	C	0.950579	-0.028624	-0.000015
C19	C	1.492899	-0.020263	-0.000004
C20	C	1.491210	-0.083492	-0.000015
C21	C	1.595357	-0.481914	0.000060
C22	C	1.593788	-0.541325	0.000070
O23	O	1.690333	-0.577439	0.000120
N24	N	1.478522	-0.564704	0.000070
C25	C	1.364817	-0.528669	0.000073
O26	O	1.266631	-0.554010	0.000075
C27	C	1.366387	-0.469259	0.000073
C28	C	1.481661	-0.445884	0.000059
C29	C	1.710621	-0.458539	0.000047
C30	C	1.712189	-0.399132	0.000034
C31	C	1.598493	-0.363102	0.000034
C32	C	1.483229	-0.386478	0.000046
C33	C	1.252684	-0.433226	0.000086
C34	C	1.254264	-0.373813	0.000086
C35	C	1.369538	-0.350437	0.000073
C36	C	1.371101	-0.291041	0.000032
N37	N	1.486367	-0.267662	0.000032
C38	C	1.600063	-0.303692	0.000033
C39	C	1.361529	-0.653433	0.000077
C40	C	1.359958	-0.712841	0.000068
C41	C	1.588929	-0.725493	0.000067
C42	C	1.590499	-0.666084	0.000067
C43	C	1.476795	-0.630054	0.000077
C44	C	1.603348	-0.178934	0.000005
C45	C	1.604906	-0.119522	-0.000014
C46	C	1.375935	-0.106875	-0.000006
C47	C	1.374377	-0.166282	0.000005
C48	C	1.488093	-0.202311	0.000015
O49	O	1.274607	-0.254892	-0.000012
O50	O	1.698234	-0.278343	0.000049
C51	C	1.712071	0.080569	0.000026
C52	C	1.851461	0.082245	0.000035
C53	C	1.471965	0.187895	0.000056
C54	C	1.473654	0.251123	0.000076
N55	N	1.482438	0.083819	-0.356094
C56	C	1.568313	0.045456	-0.428032
C57	C	1.568309	0.045449	-0.571915
C58	C	1.396552	0.122173	-0.571909
C59	C	1.396551	0.122177	-0.428029
C60	C	1.667479	0.001161	-0.428036
C61	C	1.667476	0.001154	-0.571919
N62	N	1.482436	0.083808	0.356143
H63	H	1.072912	0.179258	0.000098
H64	H	0.921950	-0.052021	-0.095683
Cl65	Cl	1.288586	0.170392	-0.662350
Cl66	Cl	1.147122	-0.061869	0.147640
H67	H	1.161670	-0.344479	0.000097
H68	H	1.158816	-0.452247	0.000105
Cl69	Cl	1.746308	-0.224218	0.000015
Cl70	Cl	0.896492	-0.058047	0.152352
H71	H	1.647423	-0.042610	-0.388995
Cl72	Cl	1.735419	-0.636704	0.000051
Cl73	Cl	1.807570	0.022584	-0.359119
Cl74	Cl	1.857112	-0.369755	0.000056
Cl75	Cl	1.622380	-0.062703	-0.640833
H76	H	1.283367	-0.077529	-0.000012
H77	H	1.127765	-0.045129	-0.098728
Cl78	Cl	1.731862	-0.770800	0.000078
Cl79	Cl	1.816001	0.016216	-0.632217
H80	H	1.266091	-0.731868	0.000055
H81	H	1.698779	-0.100493	-0.000029
H82	H	0.835302	0.176404	0.000087
H83	H	1.803211	-0.487869	0.000053
H84	H	1.280512	-0.185315	-0.000022
Cl85	Cl	1.218572	-0.608143	0.000075
Cl86	Cl	1.288575	0.170398	-0.337591
