data_functionalizedCrystal
_audit_creation_method	'MofGen! by Chris Wilmer'
_symmetry_space_group_name_H-M	'P1'
_symmetry_Int_Tables_number	1
_symmetry_cell_setting	triclinic
loop_
_symmetry_equiv_pos_as_xyz
  x,y,z
_cell_length_a	15.995300
_cell_length_b	15.995292
_cell_length_c	8.965430
_cell_angle_alpha	90.001738
_cell_angle_beta	90.003866
_cell_angle_gamma	83.470212
loop_
_atom_site_label
_atom_site_type_symbol
_atom_site_fract_x
_atom_site_fract_y
_atom_site_fract_z
O1	O	0.107693	1.110988	-0.124064
O2	O	0.121072	0.867204	-0.124057
O3	O	-0.007509	0.995782	-0.124068
O4	O	0.236275	0.982410	-0.124053
O5	O	-0.007505	0.995788	0.124011
O6	O	0.121076	0.867210	0.124022
O7	O	0.107697	1.110994	0.124014
Cu8	Cu	0.114387	0.989102	0.146670
Cu9	Cu	0.114382	0.989095	-0.146712
O10	O	0.236279	0.982416	0.124026
C11	C	0.120530	0.836011	-0.000017
C12	C	0.118897	0.743058	-0.000014
C13	C	-0.038703	0.995239	-0.000034
C14	C	-0.131655	0.993604	-0.000049
C15	C	0.112896	0.405321	-0.000032
C16	C	0.205702	0.428617	-0.000580
C17	C	0.207466	0.525292	-0.000014
C18	C	0.115874	0.572876	-0.000024
C19	C	0.069477	0.543786	0.141633
C20	C	0.068360	0.446996	0.141746
C21	C	0.066460	0.447134	-0.140367
C22	C	0.069899	0.543626	-0.142232
C23	C	0.117552	0.667572	-0.000015
C24	C	0.111215	0.310626	-0.000031
C25	C	-0.301837	0.990585	-0.000034
C26	C	-0.349322	1.082135	-0.000040
C27	C	-0.446010	1.080465	0.000529
C28	C	-0.469393	0.987613	-0.000021
C29	C	-0.428247	0.942195	0.141365
C30	C	-0.331614	0.944511	0.141478
C31	C	-0.331343	0.943149	-0.140644
C32	C	-0.428287	0.943157	-0.142496
C33	C	-0.564088	0.985928	-0.000009
C34	C	-0.207142	0.992266	-0.000036
C35	C	0.267472	0.982958	-0.000012
C36	C	0.360424	0.984593	-0.000007
C37	C	0.108240	1.142186	-0.000029
C38	C	0.109872	1.235139	-0.000041
N39	N	0.114390	0.989113	0.353019
N40	N	0.114373	0.989091	-0.353061
C41	C	0.054929	1.048596	0.450280
C42	C	0.038682	0.972935	0.549685
C43	C	0.130583	1.064745	0.549741
C44	C	0.098105	0.913414	0.450236
C45	C	0.190039	1.005275	0.450283
C46	C	0.173824	0.929559	0.549643
H47	H	0.243797	0.544309	-0.101563
N48	N	0.104970	0.409704	-0.282595
H49	H	0.074236	0.437433	-0.371220
H50	H	0.100237	0.347285	-0.284454
H51	H	0.103681	0.562187	-0.247029
H52	H	0.144287	1.128715	0.593449
N53	N	-0.019797	0.586023	0.148625
H54	H	-0.048418	0.566401	0.240553
H55	H	-0.051419	0.570894	0.056793
N56	N	-0.304204	0.983065	-0.282646
H57	H	-0.272502	1.032306	-0.257263
H58	H	-0.355489	1.003341	-0.343989
H59	H	-0.443618	0.875464	-0.151456
H60	H	-0.455637	0.976324	-0.247096
H61	H	-0.474483	1.116153	-0.100799
N62	N	0.240419	0.862847	0.607097
H63	H	0.282514	0.890130	0.669152
H64	H	0.270144	0.832388	0.520036
H65	H	0.254002	1.018983	0.406586
H66	H	-0.473862	1.116003	0.102471
H67	H	-0.001852	0.433153	-0.141332
H68	H	0.003046	0.576608	-0.150796
N69	N	-0.446902	0.851823	0.147826
H70	H	-0.482290	0.839424	0.058952
H71	H	-0.478519	0.842350	0.242720
H72	H	0.004619	1.098850	0.406650
H73	H	0.241472	0.400612	-0.102169
N74	N	-0.021770	0.427729	0.150259
H75	H	-0.060599	0.482091	0.153929
H76	H	-0.029702	0.393761	0.243111
H77	H	-0.456604	0.973365	0.246980
H78	H	0.241277	0.399594	0.100443
H79	H	-0.329660	1.118406	0.101121
H80	H	-0.330853	1.118919	-0.101428
N81	N	-0.289222	0.853743	-0.142471
H82	H	-0.333475	0.813487	-0.139397
H83	H	-0.251207	0.844052	-0.052701
H84	H	-0.025300	0.959249	0.593350
H85	H	-0.313299	0.977248	0.247566
H86	H	-0.299327	0.877285	0.147515
H87	H	0.244025	0.543691	0.101709
H88	H	0.084328	0.849429	0.406711
N89	N	0.110927	0.411467	0.282017
H90	H	0.170936	0.425397	0.284418
H91	H	0.110569	0.348372	0.283412
N92	N	0.112152	0.570348	0.281294
H93	H	0.161530	0.601217	0.253126
H94	H	0.132658	0.518884	0.341998
