data_functionalizedCrystal
_audit_creation_method	'MofGen! by Chris Wilmer'
_symmetry_space_group_name_H-M	'P1'
_symmetry_Int_Tables_number	1
_symmetry_cell_setting	triclinic
loop_
_symmetry_equiv_pos_as_xyz
  x,y,z
_cell_length_a	29.839131
_cell_length_b	14.908571
_cell_length_c	14.908308
_cell_angle_alpha	90.175053
_cell_angle_beta	86.738717
_cell_angle_gamma	93.262683
loop_
_atom_site_label
_atom_site_type_symbol
_atom_site_fract_x
_atom_site_fract_y
_atom_site_fract_z
Zn1	Zn	-0.234441	-1.345126	0.587534
Zn2	Zn	0.265559	-0.845126	1.087534
Zn3	Zn	-0.305498	-1.353655	0.437159
Zn4	Zn	0.194502	-0.853655	0.937159
Zn5	Zn	-0.225812	-1.203447	0.428533
Zn6	Zn	0.274188	-0.703447	0.928533
Zn7	Zn	-0.304964	-1.194683	0.578811
Zn8	Zn	0.195036	-0.694683	1.078811
O9	O	-0.267679	-1.274228	0.508009
O10	O	0.232321	-0.774228	1.008009
O11	O	-0.247701	-1.472080	0.574847
O12	O	0.252299	-0.972080	1.074847
O13	O	-0.291540	-1.340967	0.310191
O14	O	0.208460	-0.840967	0.810191
O15	O	-0.164094	-1.222340	0.449665
O16	O	0.335906	-0.722340	0.949665
O17	O	-0.299907	-1.478346	0.464367
O18	O	0.200093	-0.978346	0.964367
O19	O	-0.170433	-1.326430	0.566482
O20	O	0.329567	-0.826430	1.066482
O21	O	-0.232995	-1.230610	0.303854
O22	O	0.267005	-0.730610	0.803854
O23	O	-0.232477	-1.076461	0.441208
O24	O	0.267523	-0.576461	0.941208
O25	O	-0.298997	-1.207402	0.705792
O26	O	0.201003	-0.707402	1.205792
O27	O	-0.290630	-1.070022	0.551616
O28	O	0.209370	-0.570022	1.051616
O29	O	-0.247184	-1.317932	0.712201
O30	O	0.252816	-0.817932	1.212201
O31	O	-0.368290	-1.332468	0.455909
O32	O	0.131710	-0.832468	0.955909
O33	O	-0.367898	-1.215672	0.559980
O34	O	0.132102	-0.715672	1.059980
C35	C	-0.260560	-1.040617	0.494530
C36	C	0.239440	-0.540617	0.994530
C37	C	-0.257526	-0.940676	0.488784
C38	C	0.242474	-0.440676	0.988784
C39	C	-0.384395	-1.274068	0.507955
C40	C	0.115605	-0.774068	1.007955
C41	C	-0.434330	-1.274080	0.507967
C42	C	0.065670	-0.774080	1.007967
C43	C	-0.273993	-1.260738	0.742533
C44	C	0.226007	-0.760738	1.242533
C45	C	-0.276684	-1.254989	0.842474
C46	C	0.223316	-0.754989	1.342474
C47	C	-0.744176	-1.335143	0.453910
C48	C	-0.244176	-0.835143	0.953910
C49	C	-0.931853	-1.335252	0.453951
C50	C	-0.431853	-0.835252	0.953951
O51	O	-0.956286	-1.387043	0.407948
O52	O	-0.456286	-0.887043	0.907948
N53	N	-0.955128	-1.274410	0.508088
N54	N	-0.455128	-0.774410	1.008088
C55	C	-0.931481	-1.213541	0.562223
C56	C	-0.431481	-0.713541	1.062223
O57	O	-0.955585	-1.161800	0.608278
O58	O	-0.455585	-0.661800	1.108278
C59	C	-0.743805	-1.213437	0.562186
C60	C	-0.243805	-0.713437	1.062186
C61	C	-0.720532	-1.274276	0.508038
C62	C	-0.220532	-0.774276	1.008038
C63	C	-0.720903	-1.395978	0.399768
C64	C	-0.220903	-0.895978	0.899768
C65	C	-0.673987	-1.395947	0.399754
C66	C	-0.173987	-0.895947	0.899754
C67	C	-0.650343	-1.335081	0.453883
C68	C	-0.150343	-0.835081	0.953883
C69	C	-0.673615	-1.274245	0.508025
C70	C	-0.173615	-0.774245	1.008025
C71	C	-0.720159	-1.152572	0.616325
C72	C	-0.220159	-0.652572	1.116325
C73	C	-0.673237	-1.152553	0.616312
C74	C	-0.173237	-0.652553	1.116312
C75	C	-0.649964	-1.213393	0.562165
C76	C	-0.149964	-0.713393	1.062165
C77	C	-0.603055	-1.213348	0.562140
C78	C	-0.103055	-0.713348	1.062140
N79	N	-0.579780	-1.274189	0.508003
N80	N	-0.079780	-0.774189	1.008003
C81	C	-0.603424	-1.335056	0.453875
C82	C	-0.103424	-0.835056	0.953875
C83	C	-1.030014	-1.213598	0.562237
C84	C	-0.530014	-0.713598	1.062237
C85	C	-1.076933	-1.213623	0.562245
C86	C	-0.576933	-0.713623	1.062245
C87	C	-1.077302	-1.335336	0.453975
C88	C	-0.577302	-0.835336	0.953975
C89	C	-1.030382	-1.335306	0.453962
C90	C	-0.530382	-0.835306	0.953962
C91	C	-1.006739	-1.274440	0.508100
C92	C	-0.506739	-0.774440	1.008100
C93	C	-0.504895	-1.334986	0.453850
C94	C	-0.004895	-0.834986	0.953850
C95	C	-0.457974	-1.334947	0.453839
C96	C	0.042026	-0.834947	0.953839
C97	C	-0.457609	-1.213238	0.562112
C98	C	0.042391	-0.713238	1.062112
C99	C	-0.504526	-1.213273	0.562121
C100	C	-0.004526	-0.713273	1.062121
C101	C	-0.528168	-1.274154	0.507987
C102	C	-0.028168	-0.774154	1.007987
O103	O	-0.578594	-1.161590	0.608127
O104	O	-0.078594	-0.661590	1.108127
O105	O	-0.579313	-1.386803	0.407842
O106	O	-0.079313	-0.886803	0.907842
C107	C	-0.791093	-1.335174	0.453923
C108	C	-0.291093	-0.835174	0.953923
C109	C	-0.814366	-1.274339	0.508065
C110	C	-0.314366	-0.774339	1.008065
C111	C	-0.790722	-1.213472	0.562194
C112	C	-0.290722	-0.713472	1.062194
C113	C	-0.861284	-1.274363	0.508074
C114	C	-0.361284	-0.774363	1.008074
C115	C	-0.884928	-1.335230	0.453945
C116	C	-0.384928	-0.835230	0.953945
C117	C	-0.861654	-1.396072	0.399808
C118	C	-0.361654	-0.896072	0.899808
C119	C	-0.814737	-1.396041	0.399794
C120	C	-0.314737	-0.896041	0.899794
C121	C	-0.813996	-1.152630	0.616331
C122	C	-0.313996	-0.652630	1.116331
C123	C	-0.860913	-1.152666	0.616339
C124	C	-0.360913	-0.652666	1.116339
C125	C	-0.884557	-1.213532	0.562211
C126	C	-0.384557	-0.713532	1.062211
C127	C	-0.150508	-1.274411	0.508085
C128	C	0.349492	-0.774411	1.008085
C129	C	-0.100577	-1.274490	0.508117
C130	C	0.399423	-0.774490	1.008117
C131	C	-0.274826	-1.508750	0.521542
C132	C	0.225174	-1.008750	1.021542
C133	C	-0.277872	-1.608690	0.527309
C134	C	0.222128	-1.108690	1.027309
C135	C	-0.312463	-0.746229	0.592802
C136	C	0.187537	-0.246229	1.092802
C137	C	-0.309614	-0.652326	0.587407
C138	C	0.190386	-0.152326	1.087407
C139	C	-0.248976	-0.658964	0.472604
C140	C	0.251024	-0.158964	0.972604
C141	C	-0.251825	-0.752867	0.477999
C142	C	0.248175	-0.252867	0.977999
C143	C	-0.283570	-0.796497	0.538099
C144	C	0.216430	-0.296497	1.038099
C145	C	-0.286422	-0.890402	0.543489
C146	C	0.213578	-0.390402	1.043489
C147	C	-0.225781	-0.897038	0.428692
C148	C	0.274219	-0.397038	0.928692
C149	C	-0.222932	-0.803135	0.423297
C150	C	0.277068	-0.303135	0.923297
C151	C	-0.261358	-1.287717	0.274401
C152	C	0.238642	-0.787717	0.774401
C153	C	-0.258546	-1.293639	0.174471
C154	C	0.241454	-0.793639	0.674471
C155	C	-0.227777	-1.359279	1.036946
C156	C	0.272223	-0.859279	1.536946
C157	C	-0.230304	-1.353881	1.130849
C158	C	0.269696	-0.853881	1.630849
C159	C	-0.284262	-1.238790	1.124184
C160	C	0.215738	-0.738790	1.624184
C161	C	-0.281735	-1.244189	1.030281
C162	C	0.218265	-0.744189	1.530281
C163	C	-0.253492	-1.304436	0.986666
C164	C	0.246508	-0.804436	1.486666
C165	C	-0.250968	-1.309839	0.892761
C166	C	0.249032	-0.809839	1.392761
C167	C	-0.304924	-1.194744	0.886097
C168	C	0.195076	-0.694744	1.386097
C169	C	-0.307450	-1.189345	0.980000
C170	C	0.192550	-0.689345	1.480000
H171	H	-0.439027	-1.384490	0.409742
H172	H	0.060973	-0.884490	0.909742
N173	N	-0.332665	-1.135592	0.831867
N174	N	0.167335	-0.635592	1.331867
H175	H	-0.326781	-1.148154	0.765761
H176	H	0.173219	-0.648154	1.265761
H177	H	-0.324161	-1.070441	0.844577
H178	H	0.175839	-0.570441	1.344577
N179	N	-0.530391	-1.400649	0.395465
N180	N	-0.030391	-0.900649	0.895465
H181	H	-0.508522	-1.439177	0.361168
H182	H	-0.008522	-0.939177	0.861168
H183	H	-0.547650	-1.366492	0.351717
H184	H	-0.047650	-0.866492	0.851717
H185	H	-0.655041	-1.445491	0.355666
H186	H	-0.155041	-0.945491	0.855666
H187	H	-1.011436	-1.384847	0.409871
H188	H	-0.511436	-0.884847	0.909871
H189	H	-0.202255	-0.937977	0.384147
H190	H	0.297745	-0.437977	0.884147
H191	H	-0.209362	-1.398538	1.171784
H192	H	0.290638	-0.898538	1.671784
N193	N	-0.340780	-0.598106	0.646398
N194	N	0.159220	-0.098106	1.146398
H195	H	-0.322498	-0.556774	0.685895
H196	H	0.177502	-0.056774	1.185895
H197	H	-0.361317	-0.640056	0.685229
H198	H	0.138683	-0.140056	1.185229
N199	N	-1.102807	-1.400984	0.395589
N200	N	-0.602807	-0.900984	0.895589
H201	H	-1.136061	-1.391762	0.403815
H202	H	-0.636061	-0.891762	0.903815
H203	H	-1.096907	-1.464376	0.413344
H204	H	-0.596907	-0.964376	0.913344
H205	H	-1.095877	-1.164073	0.606329
H206	H	-0.595877	-0.664073	1.106329
H207	H	-0.307256	-1.189739	1.159711
H208	H	0.192744	-0.689739	1.659711
H209	H	-0.740149	-1.445548	0.355689
H210	H	-0.240149	-0.945548	0.855689
N211	N	-0.337901	-1.124349	1.027043
N212	N	0.162099	-0.624349	1.527043
H213	H	-0.335597	-1.129244	1.094160
H214	H	0.164403	-0.629244	1.594160
H215	H	-0.369972	-1.139228	1.011427
H216	H	0.130028	-0.639228	1.511427
H217	H	-0.739099	-1.103026	0.660413
H218	H	-0.239099	-0.603026	1.160413
N219	N	-1.004516	-1.147942	0.620628
N220	N	-0.504516	-0.647942	1.120628
H221	H	-1.026384	-1.109406	0.654916
H222	H	-0.526384	-0.609406	1.154916
H223	H	-0.982826	-1.108457	0.581589
H224	H	-0.482826	-0.608457	1.081589
H225	H	-0.653989	-1.102990	0.660401
H226	H	-0.153989	-0.602990	1.160401
H227	H	-0.312271	-0.925924	0.592424
H228	H	0.187729	-0.425924	1.092424
H229	H	-0.227972	-1.358896	0.857251
H230	H	0.272028	-0.858896	1.357251
N231	N	-0.197322	-1.424265	0.989897
N232	N	0.302678	-0.924265	1.489897
H233	H	-0.181417	-1.458194	1.036000
H234	H	0.318583	-0.958194	1.536000
H235	H	-0.174369	-1.389940	0.948836
H236	H	0.325631	-0.889940	1.448836
N237	N	-0.214753	-0.611901	0.407756
N238	N	0.285247	-0.111901	0.907756
H239	H	-0.217339	-0.544787	0.412631
H240	H	0.282661	-0.044787	0.912631
H241	H	-0.220486	-0.632001	0.344470
H242	H	0.279514	-0.132001	0.844470
N243	N	-0.188703	-0.756070	0.358463
N244	N	0.311297	-0.256070	0.858463
H245	H	-0.167713	-0.715027	0.392825
H246	H	0.332287	-0.215027	0.892825
H247	H	-0.204668	-0.719538	0.314518
H248	H	0.295332	-0.219538	0.814518
N249	N	-0.529630	-1.147646	0.620510
N250	N	-0.029630	-0.647646	1.120510
H251	H	-0.507530	-1.109081	0.654795
H252	H	-0.007530	-0.609081	1.154795
H253	H	-0.551302	-1.181832	0.664269
H254	H	-0.051302	-0.681832	1.164269
H255	H	-0.438351	-1.163678	0.606181
H256	H	0.061649	-0.663678	1.106181
H257	H	-0.795792	-1.445582	0.355703
H258	H	-0.295792	-0.945582	0.855703
H259	H	-0.880912	-1.445629	0.355732
H260	H	-0.380912	-0.945629	0.855732
H261	H	-0.879858	-1.103115	0.660431
H262	H	-0.379858	-0.603115	1.160431
H263	H	-0.338314	-0.781753	0.641733
H264	H	0.161686	-0.281753	1.141733
N265	N	-0.788498	-1.086976	0.674713
N266	N	-0.288498	-0.586976	1.174713
H267	H	-0.810366	-1.048442	0.709005
H268	H	-0.310366	-0.548442	1.209005
H269	H	-0.766810	-1.047489	0.635671
H270	H	-0.266810	-0.547489	1.135671
