data_functionalizedCrystal
_audit_creation_method	'MofGen! by Chris Wilmer'
_symmetry_space_group_name_H-M	'P1'
_symmetry_Int_Tables_number	1
_symmetry_cell_setting	triclinic
loop_
_symmetry_equiv_pos_as_xyz
  x,y,z
_cell_length_a	12.645331
_cell_length_b	12.645330
_cell_length_c	12.645324
_cell_angle_alpha	89.968234
_cell_angle_beta	89.976891
_cell_angle_gamma	90.017906
loop_
_atom_site_label
_atom_site_type_symbol
_atom_site_fract_x
_atom_site_fract_y
_atom_site_fract_z
Zn1	Zn	1.620734	-0.421953	-0.599450
Zn2	Zn	1.620615	-0.599262	-0.422191
Zn3	Zn	1.443448	-0.422014	-0.422194
Zn4	Zn	1.443431	-0.599175	-0.599405
O5	O	1.532057	-0.510601	-0.510810
O6	O	1.769066	-0.445484	-0.575954
O7	O	1.597071	-0.575812	-0.273844
O8	O	1.467023	-0.273658	-0.445728
O9	O	1.768978	-0.575752	-0.445722
O10	O	1.597274	-0.273614	-0.575957
O11	O	1.466907	-0.445588	-0.273846
O12	O	1.295098	-0.445504	-0.445685
O13	O	1.466993	-0.575605	-0.747759
O14	O	1.295086	-0.575664	-0.575881
O15	O	1.597257	-0.445400	-0.747792
O16	O	1.597054	-0.747598	-0.445678
O17	O	1.466877	-0.747534	-0.575877
C18	C	1.256627	-0.510582	-0.510779
C19	C	1.138797	-0.510599	-0.510791
C20	C	1.093888	-0.428588	-0.429018
C21	C	0.971328	-0.428285	-0.429298
C22	C	0.970968	-0.480793	-0.622698
C23	C	1.093566	-0.480180	-0.622187
C24	C	1.093582	-0.622660	-0.481712
C25	C	0.970974	-0.622076	-0.479286
C26	C	1.531980	-0.786031	-0.510795
C27	C	1.532044	-0.903861	-0.510824
C28	C	1.450487	-1.071429	-0.592985
C29	C	1.450070	-0.948869	-0.592721
C30	C	1.501798	-0.948468	-0.399102
C31	C	1.501300	-1.071067	-0.399601
C32	C	1.644345	-1.070946	-0.539480
C33	C	1.643657	-0.948339	-0.541923
C34	C	1.808562	-0.510621	-0.510842
C35	C	1.926392	-0.510630	-0.510856
C36	C	1.532136	-0.510486	-0.787316
C37	C	1.532170	-0.510437	-0.905146
C38	C	1.532164	-0.234096	-0.510848
C39	C	1.532209	-0.116266	-0.510865
C40	C	1.614439	-0.428762	-1.072731
C41	C	1.614175	-0.428467	-0.950171
C42	C	1.420488	-0.480079	-0.949624
C43	C	1.420988	-0.479459	-1.072222
C44	C	1.560678	-0.622588	-1.072344
C45	C	1.563121	-0.622024	-0.949738
C46	C	1.532039	-0.510639	-0.235380
C47	C	1.532210	-0.510390	-0.117551
H48	H	0.942019	-0.345257	-0.448609
H49	H	0.940377	-0.686422	-0.534470
O50	O	1.394348	-0.907931	-0.366405
H51	H	1.340093	-0.975804	-0.353835
O52	O	1.475438	-1.110648	-0.702957
H53	H	1.491302	-1.042197	-0.755612
O54	O	1.339953	-0.910150	-0.567595
H55	H	1.310252	-0.861408	-0.634287
H56	H	1.367874	-1.102332	-0.574270
H57	H	1.122185	-0.398280	-0.646768
O58	O	1.389046	-0.370814	-1.110123
H59	H	1.389088	-0.369293	-1.197886
H60	H	1.122622	-0.683757	-0.541272
H61	H	1.357636	-0.536326	-1.101869
H62	H	1.419328	-1.099761	-0.375360
H63	H	0.940289	-0.399802	-0.647718
O64	O	1.481342	-0.703151	-1.110729
H65	H	1.501967	-0.782142	-1.078469
H66	H	0.941184	-0.446901	-0.346382
O67	O	1.673894	-0.909700	-0.650824
H68	H	1.609708	-0.859023	-0.682676
O69	O	0.932370	-0.651900	-0.370260
H70	H	1.001225	-0.663697	-0.317143
H71	H	1.123290	-0.446990	-0.345820
O72	O	1.132942	-0.555884	-0.705688
H73	H	1.064414	-0.592763	-0.746261
O74	O	1.134449	-0.658762	-0.375479
H75	H	1.109824	-0.601466	-0.313740
H76	H	1.124714	-0.346023	-0.448075
H77	H	1.468994	-0.918705	-0.675562
O78	O	1.576701	-1.110375	-0.315779
H79	H	1.613353	-1.041816	-0.275060
O80	O	1.578130	-0.909857	-0.315827
H81	H	1.638576	-0.858337	-0.353274
O82	O	1.680896	-1.111771	-0.645564
H83	H	1.619537	-1.164825	-0.679079
H84	H	1.707750	-0.917695	-0.486466
O85	O	1.725056	-1.109588	-0.460432
H86	H	1.685558	-1.160793	-0.401026
O87	O	0.932418	-0.557491	-0.705659
H88	H	0.880951	-0.617831	-0.667966
O89	O	1.723873	-0.453626	-0.910325
H90	H	1.777591	-0.466109	-0.978623
O91	O	1.666713	-0.659163	-1.113300
H92	H	1.700309	-0.597772	-1.166340
O93	O	1.671992	-0.652356	-0.911244
H94	H	1.703932	-0.588236	-0.860556
O95	O	1.724496	-0.453610	-1.111823
H96	H	1.747287	-0.534183	-1.085485
O97	O	1.589782	-0.319265	-1.113521
H98	H	1.519217	-0.322727	-1.165579
H99	H	1.595326	-0.345353	-0.920857
H100	H	1.357554	-0.537706	-0.920457
O101	O	1.387934	-0.372644	-0.908989
H102	H	1.451110	-0.340698	-0.857129
H103	H	1.507584	-0.686115	-0.919086
