data_functionalizedCrystal
_audit_creation_method	'MofGen! by Chris Wilmer'
_symmetry_space_group_name_H-M	'P1'
_symmetry_Int_Tables_number	1
_symmetry_cell_setting	triclinic
loop_
_symmetry_equiv_pos_as_xyz
  x,y,z
_cell_length_a	10.967926
_cell_length_b	12.811415
_cell_length_c	9.482900
_cell_angle_alpha	94.039455
_cell_angle_beta	92.549900
_cell_angle_gamma	85.527577
loop_
_atom_site_label
_atom_site_type_symbol
_atom_site_fract_x
_atom_site_fract_y
_atom_site_fract_z
O1	O	1.614832	0.182203	0.259655
O2	O	1.265676	0.184467	0.171879
O3	O	1.445995	0.033466	0.236970
O4	O	1.434513	0.333204	0.194564
O5	O	1.409371	0.064267	0.465525
O6	O	1.229052	0.215268	0.400434
O7	O	1.578208	0.213004	0.488210
Cu8	Cu	1.400286	0.216948	0.465191
Cu9	Cu	1.443598	0.180523	0.194898
O10	O	1.397889	0.364005	0.423119
C11	C	1.202614	0.197375	0.275273
C12	C	1.069271	0.189937	0.242846
C13	C	0.990851	0.202577	0.346787
C14	C	0.853034	0.194890	0.313275
C15	C	1.425917	0.010379	0.355878
C16	C	1.420641	-0.104302	0.369671
C17	C	1.450636	-0.353373	0.146385
C18	C	1.445679	-0.461127	0.159339
C19	C	1.405763	-0.427566	0.408527
C20	C	1.410719	-0.319812	0.395574
C21	C	1.433158	-0.282720	0.264499
C22	C	1.438123	-0.174964	0.251549
C23	C	1.398198	-0.141405	0.500735
C24	C	1.393242	-0.249159	0.513688
C25	C	1.641271	0.200095	0.384813
C26	C	1.774615	0.207532	0.417231
C27	C	1.417967	0.387092	0.304208
C28	C	1.423245	0.501772	0.290406
N29	N	1.369832	0.242568	0.655302
N30	N	1.474062	0.154895	0.004790
C31	C	1.434607	0.188074	0.750917
C32	C	1.409277	0.209398	0.909176
H33	H	1.025743	0.219084	0.460586
H34	H	1.295619	0.305005	0.690604
H35	H	1.456398	-0.144767	0.144823
H36	H	1.383971	-0.083867	0.596913
O37	O	1.320816	0.284017	0.951113
C38	C	1.248550	0.466694	0.955862
C39	C	1.348799	0.382293	0.908255
H40	H	1.271152	0.546174	0.921256
H41	H	1.156447	0.445834	0.905687
H42	H	1.243875	0.470565	1.075991
H43	H	1.353585	0.378378	0.788140
H44	H	1.440852	0.403188	0.958533
H45	H	1.508811	0.125628	0.715615
H46	H	1.468917	-0.323173	0.039662
H47	H	1.459907	-0.518650	0.063157
H48	H	1.548270	0.092446	0.969494
H49	H	0.809498	0.224042	0.531037
O50	O	0.811345	0.175375	0.177496
C51	C	0.681475	0.236801	-0.015867
C52	C	0.728613	0.259043	0.137895
H53	H	0.614558	0.304421	-0.047922
H54	H	0.761899	0.228537	-0.088995
H55	H	0.633007	0.160929	-0.024484
H56	H	0.777064	0.334920	0.146648
H57	H	0.648142	0.267241	0.210951
H58	H	1.387484	-0.457786	0.515240
O59	O	1.027449	0.170290	0.107152
C60	C	0.851971	0.144609	-0.049953
C61	C	0.899162	0.166889	0.103781
H62	H	0.748250	0.141830	-0.052725
H63	H	0.877141	0.209449	-0.117253
H64	H	0.895612	0.065972	-0.093685
H65	H	0.855546	0.245494	0.147642
H66	H	0.874009	0.101987	0.170984
O67	O	1.371519	-0.285376	0.640919
C68	C	1.346134	-0.436498	0.771298
C69	C	1.370764	-0.395630	0.627130
H70	H	1.345490	-0.525640	0.760192
H71	H	1.421023	-0.413157	0.851985
H72	H	1.253557	-0.400933	0.808432
H73	H	1.463303	-0.431174	0.589867
H74	H	1.295802	-0.418958	0.546533
