data_functionalizedCrystal
_audit_creation_method	'MofGen! by Chris Wilmer'
_symmetry_space_group_name_H-M	'P1'
_symmetry_Int_Tables_number	1
_symmetry_cell_setting	triclinic
loop_
_symmetry_equiv_pos_as_xyz
  x,y,z
_cell_length_a	6.817900
_cell_length_b	10.992668
_cell_length_c	10.992410
_cell_angle_alpha	91.832960
_cell_angle_beta	108.764651
_cell_angle_gamma	108.769342
loop_
_atom_site_label
_atom_site_type_symbol
_atom_site_fract_x
_atom_site_fract_y
_atom_site_fract_z
V1	V	-4.114280	-0.177763	-0.400588
O2	O	-4.072374	0.008542	-0.392968
O3	O	-4.091890	-0.352475	-0.397843
O4	O	-4.091871	-0.175029	-0.575300
O5	O	-4.072393	-0.170132	-0.214282
V6	V	-4.591170	-0.155479	-0.378305
O7	O	-4.390089	-0.226646	-0.449467
O8	O	-4.765558	-0.106597	-0.329425
O9	O	-4.390353	0.019232	-0.381050
O10	O	-4.750472	-0.341785	-0.385925
O11	O	-4.750453	-0.163110	-0.564611
O12	O	-4.390371	-0.158213	-0.203592
C13	C	-3.942377	-0.395066	-0.391522
C14	C	-4.005531	-0.537895	-0.390442
C15	C	-3.942352	-0.168714	-0.617885
C16	C	-4.005486	-0.167635	-0.760713
C17	C	-4.252012	-0.600203	-0.397771
C18	C	-4.317510	-0.748689	-0.396139
C19	C	-3.920752	-0.718266	-0.261985
C20	C	-3.856485	-0.569698	-0.263077
C21	C	-3.980036	-0.607725	-0.508433
C22	C	-4.050700	-0.756740	-0.509050
C23	C	-3.872608	-0.157798	-0.955837
C24	C	-3.807058	-0.159453	-0.807354
C25	C	-4.203525	-0.294317	-0.837814
C26	C	-4.267838	-0.293197	-0.986380
C27	C	-4.145561	-0.047894	-0.948356
C28	C	-4.074851	-0.047294	-0.799343
C29	C	-4.203208	0.061817	-0.387367
C30	C	-4.119294	0.204644	-0.388455
C31	C	-4.203232	-0.164532	-0.161001
C32	C	-4.119335	-0.165605	-0.018171
H33	H	-4.369609	-0.581361	-0.489305
N34	N	-4.146107	-0.406394	-0.805698
N35	N	-3.984792	-0.420632	-0.826951
H36	H	-3.944225	-0.499784	-0.804270
N37	N	-4.388516	-0.779799	-0.288309
N38	N	-4.389778	-0.691782	-0.214018
H39	H	-4.439919	-0.713749	-0.137854
H40	H	-3.770509	-0.747089	-0.251787
N41	N	-4.248310	-0.404984	-1.044451
N42	N	-4.292172	-0.424365	-1.164465
H43	H	-4.278369	-0.503315	-1.205474
N44	N	-3.977461	-0.750371	-0.149683
N45	N	-4.138487	-0.729097	-0.135036
H46	H	-4.178553	-0.751769	-0.055727
H47	H	-3.871482	-0.523419	-0.173753
N48	N	-3.872645	-0.797534	-0.511365
N49	N	-3.693625	-0.715363	-0.507536
H50	H	-3.567857	-0.744169	-0.509159
H51	H	-3.847685	-0.242374	-1.003827
N52	N	-3.735341	-0.267028	-0.776230
N53	N	-3.733620	-0.341122	-0.864235
H54	H	-3.682974	-0.417105	-0.842257
N55	N	-4.282664	-0.540003	-0.291417
N56	N	-4.419358	-0.482924	-0.312663
H57	H	-4.441002	-0.440405	-0.237549
H58	H	-3.674642	-0.527088	-0.252431
N59	N	-4.109701	-0.582209	-0.628949
N60	N	-4.110248	-0.629897	-0.733875
H61	H	-4.201840	-0.611878	-0.818986
N62	N	-4.504204	-0.815596	-0.510200
N63	N	-4.491157	-0.802243	-0.620154
H64	H	-4.623021	-0.849489	-0.700712
H65	H	-4.194355	-0.809075	-0.602609
N66	N	-3.755730	-0.556511	-0.503088
N67	N	-3.615075	-0.468973	-0.412865
H68	H	-3.456656	-0.432797	-0.409077
H69	H	-4.353903	-0.304879	-0.809010
N70	N	-3.620806	-0.045176	-0.740452
N71	N	-3.538432	0.036361	-0.803354
H72	H	-3.406883	0.117073	-0.756111
H73	H	-3.755388	-0.066082	-0.974669
N74	N	-4.496149	-0.306994	-1.039847
N75	N	-4.607526	-0.317429	-0.967417
H76	H	-4.768769	-0.327179	-1.005172
H77	H	-4.042629	0.048305	-0.968717
N78	N	-3.895139	0.070284	-0.733685
N79	N	-3.815029	0.151377	-0.797712
H80	H	-3.688101	0.234415	-0.751333
H81	H	-4.216964	-0.045806	-0.766831
N82	N	-4.370096	-0.053678	-0.999600
N83	N	-4.510379	-0.144008	-1.087149
H84	H	-4.668960	-0.148103	-1.123349
