data_functionalizedCrystal
_audit_creation_method	'MofGen! by Chris Wilmer'
_symmetry_space_group_name_H-M	'P1'
_symmetry_Int_Tables_number	1
_symmetry_cell_setting	triclinic
loop_
_symmetry_equiv_pos_as_xyz
  x,y,z
_cell_length_a	16.109302
_cell_length_b	16.109304
_cell_length_c	14.048226
_cell_angle_alpha	89.999870
_cell_angle_beta	90.006634
_cell_angle_gamma	83.462209
loop_
_atom_site_label
_atom_site_type_symbol
_atom_site_fract_x
_atom_site_fract_y
_atom_site_fract_z
O1	O	1.103133	0.106867	0.079197
O2	O	1.603133	0.606867	0.579197
O3	O	0.861071	0.120166	0.079189
O4	O	1.361071	0.620166	0.579189
O5	O	0.988751	-0.007514	0.079194
O6	O	1.488751	0.492486	0.579194
O7	O	0.975454	0.234547	0.079192
O8	O	1.475454	0.734547	0.579192
O9	O	0.988739	-0.007513	-0.079127
O10	O	1.488739	0.492487	0.420873
O11	O	0.861059	0.120167	-0.079132
O12	O	1.361059	0.620167	0.420868
O13	O	1.103121	0.106868	-0.079124
O14	O	1.603121	0.606868	0.420876
Zn15	Zn	0.982088	0.113518	-0.104265
Zn16	Zn	1.482088	0.613518	0.395735
Zn17	Zn	0.982104	0.113516	0.104330
Zn18	Zn	1.482104	0.613516	0.604330
O19	O	0.975442	0.234549	-0.079129
O20	O	1.475442	0.734549	0.420871
C21	C	0.830090	0.119628	0.000027
C22	C	1.330090	0.619628	0.500027
C23	C	0.737795	0.118012	0.000025
C24	C	1.237795	0.618012	0.500025
C25	C	0.525448	0.114278	-0.086267
C26	C	1.025448	0.614278	0.413733
C27	C	0.438728	0.112751	-0.086264
C28	C	0.938728	0.612751	0.413736
C29	C	0.438751	0.112754	0.086347
C30	C	0.938751	0.612754	0.586347
C31	C	0.525470	0.114275	0.086343
C32	C	1.025470	0.614275	0.586343
C33	C	0.568816	0.115041	0.000033
C34	C	1.068816	0.615041	0.500033
C35	C	0.395377	0.111994	0.000041
C36	C	0.895377	0.611994	0.500041
C37	C	0.301351	0.110338	0.000045
C38	C	0.801351	0.610338	0.500045
C39	C	0.662848	0.116695	0.000028
C40	C	1.162848	0.616695	0.500028
C41	C	0.988206	-0.038488	0.000035
C42	C	1.488206	0.461512	0.500035
C43	C	0.986590	-0.130784	0.000042
C44	C	1.486590	0.369216	0.500042
C45	C	0.982863	-0.343122	0.086339
C46	C	1.482863	0.156878	0.586339
C47	C	0.981336	-0.429842	0.086338
C48	C	1.481336	0.070158	0.586338
C49	C	0.981327	-0.429837	-0.086272
C50	C	1.481327	0.070163	0.413728
C51	C	0.982848	-0.343118	-0.086270
C52	C	1.482848	0.156882	0.413730
C53	C	0.983619	-0.299763	0.000038
C54	C	1.483619	0.200237	0.500038
C55	C	0.980573	-0.473202	0.000035
C56	C	1.480573	0.026798	0.500035
C57	C	0.978918	-0.567228	0.000034
C58	C	1.478918	-0.067228	0.500034
C59	C	0.985272	-0.205731	0.000040
C60	C	1.485272	0.294269	0.500040
C61	C	1.134102	0.107407	0.000040
C62	C	1.634102	0.607407	0.500040
C63	C	1.226397	0.109022	0.000049
C64	C	1.726397	0.609022	0.500049
C65	C	0.975987	0.265523	0.000032
C66	C	1.475987	0.765523	0.500032
C67	C	0.977603	0.357818	0.000032
C68	C	1.477603	0.857818	0.500032
N69	N	0.982083	0.113519	-0.246626
N70	N	1.482083	0.613519	0.253374
C71	C	0.931708	0.063067	-0.703495
C72	C	1.431708	0.563067	-0.203495
C73	C	0.931705	0.063064	-0.603837
C74	C	1.431705	0.563064	-0.103837
C75	C	0.982105	0.113509	-0.553996
C76	C	1.482105	0.613509	-0.053996
C77	C	1.032519	0.163954	-0.603817
C78	C	1.532519	0.663954	-0.103817
C79	C	1.032526	0.163951	-0.703473
C80	C	1.532526	0.663951	-0.203473
C81	C	1.032499	0.163957	-0.396103
C82	C	1.532499	0.663957	0.103897
C83	C	1.032491	0.163961	-0.296440
C84	C	1.532491	0.663961	0.203560
C85	C	0.931678	0.063070	-0.296467
C86	C	1.431678	0.563070	0.203533
C87	C	0.931685	0.063068	-0.396123
C88	C	1.431685	0.563068	0.103877
C89	C	0.982097	0.113513	-0.445937
C90	C	1.482097	0.613513	0.054063
N91	N	0.982116	0.113509	0.246691
N92	N	1.482116	0.613509	0.746691
H93	H	0.403449	0.112131	0.156617
H94	H	0.903449	0.612131	0.656617
C95	C	1.087956	0.219449	-0.450897
C96	C	1.587956	0.719449	0.049103
N97	N	1.129723	0.261248	-0.492168
N98	N	1.629723	0.761248	0.007832
C99	C	0.573179	0.115110	0.181284
C100	C	1.073179	0.615110	0.681284
N101	N	0.609114	0.115735	0.252791
N102	N	1.109114	0.615735	0.752791
C103	C	0.983702	-0.295433	0.181281
C104	C	1.483702	0.204567	0.681281
N105	N	0.984331	-0.259515	0.252794
N106	N	1.484331	0.240485	0.752794
C107	C	0.573126	0.115111	-0.181210
C108	C	1.073126	0.615111	0.318790
N109	N	0.609035	0.115734	-0.252724
N110	N	1.109035	0.615734	0.247276
H111	H	0.403421	0.112130	-0.156538
H112	H	0.903421	0.612130	0.343462
C113	C	0.980537	-0.477536	0.181276
C114	C	1.480537	0.022464	0.681276
N115	N	0.979945	-0.513461	0.252788
N116	N	1.479945	-0.013461	0.752788
C117	C	0.980482	-0.477537	-0.181207
C118	C	1.480482	0.022463	0.318793
N119	N	0.979846	-0.513463	-0.252713
N120	N	1.479846	-0.013463	0.247287
C121	C	0.983679	-0.295421	-0.181213
C122	C	1.483679	0.204579	0.318787
N123	N	0.984303	-0.259495	-0.252721
N124	N	1.484303	0.240505	0.247279
H125	H	0.890662	0.021993	-0.744068
H126	H	1.390662	0.521993	-0.244068
C127	C	1.087974	0.219445	-0.758269
C128	C	1.587974	0.719445	-0.258269
N129	N	1.129741	0.261244	-0.799539
N130	N	1.629741	0.761244	-0.299539
C131	C	0.876249	0.007577	-0.549045
C132	C	1.376249	0.507577	-0.049045
N133	N	0.834477	-0.034217	-0.507777
N134	N	1.334477	0.465783	-0.007777
C135	C	0.876158	0.007645	-0.241669
C136	C	1.376158	0.507645	0.258331
N137	N	0.834316	-0.034073	-0.200391
N138	N	1.334316	0.465927	0.299609
H139	H	0.890641	0.021995	-0.436701
H140	H	1.390641	0.521995	0.063299
H141	H	1.073529	0.205040	-0.255862
H142	H	1.573529	0.705040	0.244138
H143	H	1.073559	0.205023	-0.563229
H144	H	1.573559	0.705023	-0.063229
