data_functionalizedCrystal
_audit_creation_method	'MofGen! by Chris Wilmer'
_symmetry_space_group_name_H-M	'P1'
_symmetry_Int_Tables_number	1
_symmetry_cell_setting	triclinic
loop_
_symmetry_equiv_pos_as_xyz
  x,y,z
_cell_length_a	16.959454
_cell_length_b	14.908571
_cell_length_c	14.908294
_cell_angle_alpha	90.175425
_cell_angle_beta	93.269774
_cell_angle_gamma	86.716421
loop_
_atom_site_label
_atom_site_type_symbol
_atom_site_fract_x
_atom_site_fract_y
_atom_site_fract_z
Zn1	Zn	-0.412497	1.345293	-0.587603
Zn2	Zn	0.087503	1.845293	-0.087603
Zn3	Zn	-0.537521	1.353875	-0.437250
Zn4	Zn	-0.037521	1.853875	0.062750
Zn5	Zn	-0.397315	1.203610	-0.428600
Zn6	Zn	0.102685	1.703610	0.071400
Zn7	Zn	-0.536582	1.194902	-0.578901
Zn8	Zn	-0.036582	1.694902	-0.078901
O9	O	-0.470979	1.274420	-0.508089
O10	O	0.029021	1.774420	-0.008089
O11	O	-0.435829	1.472258	-0.574920
O12	O	0.064171	1.972258	-0.074920
O13	O	-0.512962	1.341178	-0.310277
O14	O	-0.012962	1.841178	0.189723
O15	O	-0.288722	1.222457	-0.449714
O16	O	0.211278	1.722457	0.050286
O17	O	-0.527683	1.478563	-0.464456
O18	O	-0.027683	1.978563	0.035544
O19	O	-0.299876	1.326551	-0.566533
O20	O	0.200124	1.826551	-0.066533
O21	O	-0.409952	1.230778	-0.303922
O22	O	0.090048	1.730778	0.196078
O23	O	-0.409042	1.076629	-0.441276
O24	O	0.090958	1.576629	0.058724
O25	O	-0.526083	1.207616	-0.705881
O26	O	-0.026083	1.707616	-0.205881
O27	O	-0.511361	1.070231	-0.551702
O28	O	-0.011361	1.570231	-0.051702
O29	O	-0.434918	1.318108	-0.712274
O30	O	0.065082	1.818108	-0.212274
O31	O	-0.648004	1.332734	-0.456018
O32	O	-0.148004	1.832734	0.043982
O33	O	-0.647314	1.215938	-0.560089
O34	O	-0.147314	1.715938	-0.060089
C35	C	-0.458453	1.040805	-0.494607
C36	C	0.041547	1.540805	0.005393
C37	C	-0.453114	0.940862	-0.488861
C38	C	0.046886	1.440862	0.011139
C39	C	-0.549777	0.746454	-0.592895
C40	C	-0.049777	1.246454	-0.092895
C41	C	-0.544764	0.652548	-0.587499
C42	C	-0.044764	1.152548	-0.087499
C43	C	-0.438071	0.659143	-0.472678
C44	C	0.061929	1.159143	0.027322
C45	C	-0.443084	0.753049	-0.478074
C46	C	0.056916	1.253049	0.021926
C47	C	-0.498940	0.796701	-0.538183
C48	C	0.001060	1.296701	-0.038183
C49	C	-0.503957	0.890608	-0.543574
C50	C	-0.003957	1.390608	-0.043574
C51	C	-0.397261	0.897201	-0.428758
C52	C	0.102739	1.397201	0.071242
C53	C	-0.392247	0.803295	-0.423363
C54	C	0.107753	1.303295	0.076637
C55	C	-0.676340	1.274346	-0.508069
C56	C	-0.176340	1.774346	-0.008069
C57	C	-0.764201	1.274394	-0.508095
C58	C	-0.264201	1.774394	-0.008095
C59	C	-1.135352	1.213688	-0.562277
C60	C	-0.635352	1.713688	-0.062277
C61	C	-1.136020	1.335398	-0.454006
C62	C	-0.636020	1.835398	0.045994
C63	C	-1.053472	1.335367	-0.453996
C64	C	-0.553472	1.835367	0.046004
C65	C	-1.011860	1.274494	-0.508126
C66	C	-0.511860	1.774494	-0.008126
C67	C	-1.052796	1.213653	-0.562267
C68	C	-0.552796	1.713653	-0.062267
C69	C	-1.012529	1.396201	-0.399850
C70	C	-0.512529	1.896201	0.100150
C71	C	-0.929976	1.396172	-0.399837
C72	C	-0.429976	1.896172	0.100163
C73	C	-0.888363	1.335303	-0.453973
C74	C	-0.388363	1.835303	0.046027
C75	C	-0.929305	1.274460	-0.508116
C76	C	-0.429305	1.774460	-0.008116
C77	C	-0.887693	1.213588	-0.562246
C78	C	-0.387693	1.713588	-0.062246
C79	C	-0.928633	1.152748	-0.616395
C80	C	-0.428633	1.652748	-0.116395
C81	C	-1.011184	1.152784	-0.616402
C82	C	-0.511184	1.652784	-0.116402
C83	C	-0.805813	1.335267	-0.453965
C84	C	-0.305813	1.835267	0.046035
C85	C	-0.805137	1.213553	-0.562236
C86	C	-0.305137	1.713553	-0.062236
C87	C	-0.264818	1.274518	-0.508129
C88	C	0.235182	1.774518	-0.008129
C89	C	-0.176964	1.274560	-0.508147
C90	C	0.323036	1.774560	-0.008147
C91	C	-0.482090	1.260933	-0.742615
C92	C	0.017910	1.760933	-0.242615
C93	C	-0.486824	1.255186	-0.842556
C94	C	0.013176	1.755186	-0.342556
C95	C	-0.483554	1.508948	-0.521624
C96	C	0.016446	2.008948	-0.021624
C97	C	-0.488913	1.608890	-0.527391
C98	C	0.011087	2.108890	-0.027391
C99	C	-0.540953	1.189561	-0.980091
C100	C	-0.040953	1.689561	-0.480091
C101	C	-0.536510	1.194959	-0.886187
C102	C	-0.036510	1.694959	-0.386187
C103	C	-0.441577	1.310017	-0.892835
C104	C	0.058423	1.810017	-0.392835
C105	C	-0.446020	1.304619	-0.986738
C106	C	0.053980	1.804619	-0.486738
C107	C	-0.495710	1.244390	-1.030363
C108	C	0.004290	1.744390	-0.530363
C109	C	-0.500157	1.238996	-1.124269
C110	C	-0.000157	1.738996	-0.624269
C111	C	-0.405220	1.354049	-1.130914
C112	C	0.094780	1.854049	-0.630914
C113	C	-0.400777	1.359448	-1.037010
C114	C	0.099223	1.859448	-0.537010
C115	C	-0.459857	1.287906	-0.274478
C116	C	0.040143	1.787906	0.225522
C117	C	-0.454909	1.293827	-0.174547
C118	C	0.045091	1.793827	0.325453
H119	H	-0.355867	0.938122	-0.384206
H120	H	0.144133	1.438122	0.115794
O121	O	-0.585289	1.135806	-0.831959
O122	O	-0.085289	1.635806	-0.331959
H123	H	-0.620583	1.093017	-0.878074
H124	H	-0.120583	1.593017	-0.378074
H125	H	-1.044524	1.103251	-0.660486
H126	H	-0.544524	1.603251	-0.160486
O127	O	-0.883749	1.087084	-0.674768
O128	O	-0.383749	1.587084	-0.174768
H129	H	-0.903730	1.098386	-0.746241
H130	H	-0.403730	1.598386	-0.246241
O131	O	-0.377856	0.612034	-0.407834
O132	O	0.122144	1.112034	0.092166
H133	H	-0.337325	0.566934	-0.445682
H134	H	0.162675	1.066934	0.054318
O135	O	-0.553747	1.174034	-1.171322
O136	O	-0.053747	1.674034	-0.671322
H137	H	-0.517938	1.125852	-1.211473
H138	H	-0.017938	1.625852	-0.711473
O139	O	-0.594547	1.124604	-1.027147
O140	O	-0.094547	1.624604	-0.527147
H141	H	-0.558741	1.076418	-1.067297
H142	H	-0.058741	1.576418	-0.567297
H143	H	-0.360318	1.408482	-1.001478
H144	H	0.139682	1.908482	-0.501478
O145	O	-1.057412	1.461846	-0.341467
O146	O	-0.557412	1.961846	0.158533
H147	H	-1.015077	1.504137	-0.303806
H148	H	-0.515077	2.004137	0.196194
O149	O	-1.179499	1.148058	-0.620668
O150	O	-0.679499	1.648058	-0.120668
H151	H	-1.243893	1.158299	-0.611579
H152	H	-0.743893	1.658299	-0.111579
H153	H	-0.549439	0.926148	-0.592517
H154	H	-0.049439	1.426148	-0.092517
O155	O	-0.387988	1.374979	-0.845777
O156	O	0.112012	1.874979	-0.345777
H157	H	-0.392506	1.369522	-0.772034
H158	H	0.107494	1.869522	-0.272034
H159	H	-0.368382	1.398697	-1.171856
H160	H	0.131618	1.898697	-0.671856
H161	H	-0.896648	1.445711	-0.355748
H162	H	-0.396648	1.945711	0.144252
H163	H	-0.586159	0.611640	-0.632052
H164	H	-0.086159	1.111640	-0.132052
H165	H	-0.772482	1.384797	-0.409874
H166	H	-0.272482	1.884797	0.090126
O167	O	-0.610017	0.793546	-0.657721
O168	O	-0.110017	1.293546	-0.157721
H169	H	-0.644525	0.742828	-0.694863
H170	H	-0.144525	1.242828	-0.194863
O171	O	-0.332027	0.756199	-0.358516
O172	O	0.167973	1.256199	0.141484
H173	H	-0.291491	0.711100	-0.396362
H174	H	0.208509	1.211100	0.103638
O175	O	-0.760254	1.147887	-0.620608
O176	O	-0.260254	1.647887	-0.120608
H177	H	-0.802592	1.105585	-0.658251
H178	H	-0.302592	1.605585	-0.158251
O179	O	-1.180897	1.401074	-0.395650
O180	O	-0.680897	1.901074	0.104350
H181	H	-1.245179	1.390888	-0.404766
H182	H	-0.745179	1.890888	0.095234
