data_functionalizedCrystal
_audit_creation_method	'MofGen! by Chris Wilmer'
_symmetry_space_group_name_H-M	'P1'
_symmetry_Int_Tables_number	1
_symmetry_cell_setting	triclinic
loop_
_symmetry_equiv_pos_as_xyz
  x,y,z
_cell_length_a	21.295417
_cell_length_b	21.295420
_cell_length_c	17.077396
_cell_angle_alpha	89.980351
_cell_angle_beta	89.966808
_cell_angle_gamma	90.026289
loop_
_atom_site_label
_atom_site_type_symbol
_atom_site_fract_x
_atom_site_fract_y
_atom_site_fract_z
Zn1	Zn	-0.250680	0.962325	-0.443820
Zn2	Zn	0.082653	1.295658	-0.110487
Zn3	Zn	0.415987	1.628991	0.222847
Zn4	Zn	-0.355953	0.962236	-0.312543
Zn5	Zn	-0.022620	1.295569	0.020790
Zn6	Zn	0.310714	1.628903	0.354123
Zn7	Zn	-0.250694	0.857057	-0.312568
Zn8	Zn	0.082639	1.190390	0.020766
Zn9	Zn	0.415973	1.523724	0.354099
Zn10	Zn	-0.355908	0.857017	-0.443767
Zn11	Zn	-0.022574	1.190351	-0.110433
Zn12	Zn	0.310759	1.523684	0.222900
O13	O	-0.303309	0.909659	-0.378174
O14	O	0.030025	1.242992	-0.044841
O15	O	0.363358	1.576325	0.288492
O16	O	-0.264658	1.050402	-0.426418
O17	O	0.068675	1.383736	-0.093085
O18	O	0.402009	1.717069	0.240249
O19	O	-0.342015	0.948263	-0.202700
O20	O	-0.008682	1.281597	0.130634
O21	O	0.324652	1.614930	0.463967
O22	O	-0.162603	0.871075	-0.330011
O23	O	0.170731	1.204408	0.003322
O24	O	0.504064	1.537741	0.336655
O25	O	-0.342002	1.050337	-0.329970
O26	O	-0.008668	1.383671	0.003364
O27	O	0.324665	1.717004	0.336697
O28	O	-0.162593	0.948414	-0.426442
O29	O	0.170741	1.281748	-0.093108
O30	O	0.504074	1.615081	0.240225
O31	O	-0.264682	0.870989	-0.202717
O32	O	0.068652	1.204322	0.130616
O33	O	0.401985	1.537655	0.463949
O34	O	-0.264638	0.768962	-0.329959
O35	O	0.068696	1.102296	0.003374
O36	O	0.402029	1.435629	0.336707
O37	O	-0.341924	0.871007	-0.553621
O38	O	-0.008591	1.204340	-0.220287
O39	O	0.324743	1.537674	0.113046
O40	O	-0.341938	0.768933	-0.426351
O41	O	-0.008604	1.102266	-0.093017
O42	O	0.324729	1.435600	0.240316
O43	O	-0.264614	0.948376	-0.553660
O44	O	0.068719	1.281709	-0.220327
O45	O	0.402053	1.615042	0.113007
O46	O	-0.444036	0.948225	-0.329918
O47	O	-0.110703	1.281558	0.003416
O48	O	0.222630	1.614892	0.336749
O49	O	-0.444003	0.870921	-0.426327
O50	O	-0.110670	1.204254	-0.092994
O51	O	0.222664	1.537588	0.240340
C52	C	-0.303285	0.746107	-0.378152
C53	C	0.030049	1.079440	-0.044819
C54	C	0.363382	1.412774	0.288514
C55	C	-0.303289	0.676139	-0.378161
C56	C	0.030044	1.009472	-0.044828
C57	C	0.363377	1.342806	0.288505
C58	C	-0.263131	0.176714	-0.428488
C59	C	0.070203	0.510048	-0.095155
C60	C	0.403536	0.843381	0.238178
C61	C	-0.263126	0.242457	-0.428488
C62	C	0.070207	0.575790	-0.095155
C63	C	0.403541	0.909123	0.238178
C64	C	-0.303328	0.275300	-0.378193
C65	C	0.030006	0.608633	-0.044859
C66	C	0.363339	0.941966	0.288474
C67	C	-0.343549	0.242394	-0.327907
C68	C	-0.010215	0.575728	0.005426
C69	C	0.323118	0.909061	0.338759
C70	C	-0.343557	0.176653	-0.327915
C71	C	-0.010223	0.509987	0.005419
C72	C	0.323110	0.843320	0.338752
N73	N	-0.308075	0.378494	-0.309459
N74	N	0.025259	0.711828	0.023875
N75	N	0.358592	1.045161	0.357208
N76	N	-0.308063	0.440946	-0.309454
N77	N	0.025270	0.774279	0.023879
N78	N	0.358603	1.107612	0.357212
C79	C	-0.303307	0.473374	-0.378170
C80	C	0.030026	0.806708	-0.044836
C81	C	0.363360	1.140041	0.288497
N82	N	-0.298550	0.440992	-0.446891
N83	N	0.034783	0.774326	-0.113558
N84	N	0.368116	1.107659	0.219776
N85	N	-0.298558	0.378535	-0.446895
N86	N	0.034775	0.711868	-0.113561
N87	N	0.368108	1.045202	0.219772
C88	C	-0.303324	0.346585	-0.378180
C89	C	0.030009	0.679918	-0.044846
C90	C	0.363343	1.013252	0.288487
C91	C	-0.263087	0.577557	-0.428455
C92	C	0.070247	0.910890	-0.095122
C93	C	0.403580	1.244224	0.238211
C94	C	-0.263087	0.643301	-0.428457
C95	C	0.070247	0.976634	-0.095123
C96	C	0.403580	1.309967	0.238210
C97	C	-0.343506	0.643237	-0.327869
C98	C	-0.010173	0.976571	0.005465
C99	C	0.323161	1.309904	0.338798
C100	C	-0.343509	0.577495	-0.327874
C101	C	-0.010176	0.910828	0.005459
C102	C	0.323157	1.244161	0.338792
C103	C	-0.303297	0.544659	-0.378167
C104	C	0.030037	0.877992	-0.044833
C105	C	0.363370	1.211325	0.288500
C106	C	-0.466860	0.909576	-0.378131
C107	C	-0.133527	1.242910	-0.044798
C108	C	0.199806	1.576243	0.288536
C109	C	-0.536828	0.909598	-0.378139
C110	C	-0.203495	1.242932	-0.044805
C111	C	0.129838	1.576265	0.288528
C112	C	-0.569692	0.949886	-0.327990
C113	C	-0.236358	1.283220	0.005344
C114	C	0.096975	1.616553	0.338677
C115	C	-0.635434	0.949916	-0.328007
C116	C	-0.302101	1.283249	0.005326
C117	C	0.031233	1.616583	0.338659
C118	C	-0.668311	0.909646	-0.378166
C119	C	-0.334978	1.242980	-0.044832
C120	C	-0.001644	1.576313	0.288501
C121	C	-0.635440	0.869356	-0.428324
C122	C	-0.302106	1.202689	-0.094991
C123	C	0.031227	1.536022	0.238342
C124	C	-0.569699	0.869332	-0.428311
C125	C	-0.236365	1.202665	-0.094977
C126	C	0.096968	1.535998	0.238356
N127	N	-0.771573	0.854579	-0.384142
N128	N	-0.438239	1.187912	-0.050809
N129	N	-0.104906	1.521245	0.282524
N130	N	-0.834024	0.854603	-0.384151
N131	N	-0.500691	1.187937	-0.050817
N132	N	-0.167357	1.521270	0.282516
C133	C	-0.866386	0.909717	-0.378211
C134	C	-0.533052	1.243050	-0.044877
C135	C	-0.199719	1.576383	0.288456
N136	N	-0.833937	0.964806	-0.372247
N137	N	-0.500603	1.298139	-0.038913
N138	N	-0.167270	1.631473	0.294420
N139	N	-0.771479	0.964781	-0.372234
N140	N	-0.438146	1.298114	-0.038901
N141	N	-0.104813	1.631448	0.294432
C142	C	-0.739596	0.909668	-0.378186
C143	C	-0.406263	1.243001	-0.044853
C144	C	-0.072930	1.576335	0.288480
C145	C	-0.970534	0.950040	-0.328078
C146	C	-0.637201	1.283373	0.005255
C147	C	-0.303868	1.616707	0.338588
C148	C	-1.036278	0.950071	-0.328101
C149	C	-0.702945	1.283404	0.005232
C150	C	-0.369611	1.616737	0.338565
C151	C	-1.036282	0.869505	-0.428414
C152	C	-0.702949	1.202838	-0.095081
C153	C	-0.369616	1.536171	0.238253
C154	C	-0.970540	0.869480	-0.428395
C155	C	-0.637207	1.202813	-0.095062
C156	C	-0.303873	1.536146	0.238272
C157	C	-0.937670	0.909747	-0.378223
C158	C	-0.604337	1.243080	-0.044890
C159	C	-0.271003	1.576413	0.288444
C160	C	-0.139118	0.909759	-0.378235
C161	C	0.194215	1.243092	-0.044902
C162	C	0.527548	1.576425	0.288431
C163	C	-0.069150	0.909801	-0.378261
C164	C	0.264183	1.243135	-0.044928
C165	C	0.597516	1.576468	0.288406
C166	C	-0.303333	1.073849	-0.378197
C167	C	0.030000	1.407182	-0.044864
C168	C	0.363333	1.740516	0.288470
C169	C	-0.303344	1.143817	-0.378207
C170	C	0.029990	1.477150	-0.044873
C171	C	0.363323	1.810484	0.288460
C172	C	-0.303262	0.909697	-0.582919
C173	C	0.030071	1.243030	-0.249585
C174	C	0.363404	1.576363	0.083748
C175	C	-0.303243	0.909713	-0.670169
C176	C	0.030091	1.243046	-0.336835
C177	C	0.363424	1.576380	-0.003502
C178	C	-0.262984	0.950000	-0.711181
C179	C	0.070350	1.283334	-0.377847
C180	C	0.403683	1.616667	-0.044514
C181	C	-0.262963	0.950008	-0.793161
C182	C	0.070371	1.283341	-0.459828
C183	C	0.403704	1.616675	-0.126494
C184	C	-0.303204	0.909731	-0.834128
C185	C	0.030129	1.243064	-0.500795
C186	C	0.363462	1.576398	-0.167461
C187	C	-0.343465	0.869439	-0.793110
C188	C	-0.010131	1.202772	-0.459777
C189	C	0.323202	1.536106	-0.126444
C190	C	-0.343482	0.869429	-0.711131
C191	C	-0.010149	1.202762	-0.377798
C192	C	0.323185	1.536095	-0.044465
C193	C	-0.343427	0.869464	-0.963981
C194	C	-0.010094	1.202798	-0.630647
C195	C	0.323240	1.536131	-0.297314
C196	C	-0.343411	0.869475	-1.045965
C197	C	-0.010077	1.202809	-0.712632
C198	C	0.323256	1.536142	-0.379299
C199	C	-0.262908	0.950044	-1.046010
C200	C	0.070426	1.283377	-0.712677
C201	C	0.403759	1.616710	-0.379344
C202	C	-0.262925	0.950033	-0.964031
C203	C	0.070408	1.283367	-0.630698
C204	C	0.403742	1.616700	-0.297365
C205	C	-0.303187	0.909742	-0.923019
C206	C	0.030147	1.243076	-0.589686
C207	C	0.363480	1.576409	-0.256353
C208	C	-0.303309	0.909657	-0.174227
C209	C	0.030024	1.242990	0.159107
C210	C	0.363357	1.576324	0.492440
C211	C	-0.303152	0.909763	-0.086977
C212	C	0.030181	1.243096	0.246356
C213	C	0.363515	1.576429	0.579689
H214	H	-0.230343	0.550820	-0.469406
H215	H	0.102990	0.884154	-0.136073
H216	H	0.436324	1.217487	0.197260
C217	C	-0.218884	0.278651	-0.483800
C218	C	0.114450	0.611984	-0.150467
C219	C	0.447783	0.945318	0.182866
N220	N	-0.185559	0.305911	-0.525460
N221	N	0.147775	0.639244	-0.192127
N222	N	0.481108	0.972577	0.141207
H223	H	-0.376304	0.149869	-0.286968
H224	H	-0.042971	0.483202	0.046365
H225	H	0.290362	0.816535	0.379699
C226	C	-0.387730	0.679360	-0.272544
C227	C	-0.054397	1.012694	0.060789
C228	C	0.278937	1.346027	0.394123
N229	N	-0.421042	0.706572	-0.230873
N230	N	-0.087708	1.039905	0.102460
N231	N	0.245625	1.373238	0.435793
H232	H	-0.376202	0.836645	-0.930591
H233	H	-0.042869	1.169978	-0.597258
H234	H	0.290464	1.503312	-0.263924
H235	H	-1.063050	0.836719	-0.469257
H236	H	-0.729717	1.170052	-0.135924
H237	H	-0.396383	1.503386	0.197409
H238	H	-0.230124	0.982849	-1.079406
H239	H	0.103209	1.316183	-0.746073
H240	H	0.436542	1.649516	-0.412739
H241	H	-0.376177	0.836677	-1.079319
H242	H	-0.042844	1.170010	-0.745985
H243	H	0.290489	1.503343	-0.412652
C244	C	-0.934389	0.825172	-0.483579
C245	C	-0.601056	1.158505	-0.150246
C246	C	-0.267722	1.491839	0.183087
N247	N	-0.907161	0.791805	-0.525156
N248	N	-0.573827	1.125138	-0.191823
N249	N	-0.240494	1.458471	0.141511
H250	H	-0.662196	0.982725	-0.287170
H251	H	-0.328863	1.316059	0.046163
H252	H	0.004470	1.649392	0.379496
C253	C	-0.387768	0.278523	-0.272579
C254	C	-0.054435	0.611856	0.060755
C255	C	0.278898	0.945189	0.394088
N256	N	-0.421076	0.305735	-0.230904
N257	N	-0.087743	0.639068	0.102429
N258	N	0.245590	0.972401	0.435763
C259	C	-0.218845	0.679488	-0.483772
C260	C	0.114488	1.012821	-0.150439
C261	C	0.447821	1.346154	0.182895
N262	N	-0.185520	0.706744	-0.525435
N263	N	0.147813	1.040077	-0.192102
N264	N	0.481146	1.373411	0.141232
C265	C	-0.387771	0.825111	-0.666019
C266	C	-0.054438	1.158444	-0.332685
C267	C	0.278896	1.491777	0.000648
N268	N	-0.421130	0.791727	-0.632041
N269	N	-0.087796	1.125061	-0.298708
N270	N	0.245537	1.458394	0.034626
H271	H	-0.376253	0.550709	-0.286926
H272	H	-0.042919	0.884043	0.046407
H273	H	0.290414	1.217376	0.379741
C274	C	-0.671606	0.825057	-0.483496
C275	C	-0.338272	1.158390	-0.150162
C276	C	-0.004939	1.491723	0.183171
N277	N	-0.698846	0.791690	-0.525053
N278	N	-0.365512	1.125023	-0.191720
N279	N	-0.032179	1.458357	0.141613
C280	C	-0.218714	0.994309	-0.666124
C281	C	0.114620	1.327642	-0.332791
C282	C	0.447953	1.660975	0.000542
N283	N	-0.185366	1.027681	-0.632190
N284	N	0.147968	1.361014	-0.298857
N285	N	0.481301	1.694348	0.034477
H286	H	-0.542931	0.982675	-0.287139
H287	H	-0.209597	1.316009	0.046195
H288	H	0.123736	1.649342	0.379528
C289	C	-0.218901	0.140598	-0.483818
C290	C	0.114433	0.473932	-0.150485
C291	C	0.447766	0.807265	0.182848
N292	N	-0.185588	0.113395	-0.525496
N293	N	0.147746	0.446728	-0.192162
N294	N	0.481079	0.780061	0.141171
C295	C	-0.533548	0.825018	-0.483491
C296	C	-0.200215	1.158351	-0.150157
C297	C	0.133119	1.491684	0.183176
N298	N	-0.506318	0.791642	-0.525056
N299	N	-0.172985	1.124976	-0.191723
N300	N	0.160348	1.458309	0.141611
C301	C	-0.387725	0.825128	-0.838177
C302	C	-0.054391	1.158461	-0.504844
C303	C	0.278942	1.491794	-0.171511
N304	N	-0.421062	0.791751	-0.872121
N305	N	-0.087729	1.125084	-0.538787
N306	N	0.245604	1.458418	-0.205454
H307	H	-0.230182	0.982816	-0.826549
H308	H	0.103152	1.316149	-0.493216
H309	H	0.436485	1.649482	-0.159883
H310	H	-0.943770	0.982830	-0.287227
H311	H	-0.610437	1.316163	0.046106
H312	H	-0.277104	1.649496	0.379439
C313	C	-1.072427	0.994392	-0.272930
C314	C	-0.739094	1.327726	0.060403
C315	C	-0.405761	1.661059	0.393737
N316	N	-1.099655	1.027775	-0.231372
N317	N	-0.766322	1.361109	0.101961
N318	N	-0.432989	1.694442	0.435294
H319	H	-0.230160	0.982834	-0.930678
H320	H	0.103173	1.316167	-0.597345
H321	H	0.436506	1.649501	-0.264011
