data_functionalizedCrystal
_audit_creation_method	'MofGen! by Chris Wilmer'
_symmetry_space_group_name_H-M	'P1'
_symmetry_Int_Tables_number	1
_symmetry_cell_setting	triclinic
loop_
_symmetry_equiv_pos_as_xyz
  x,y,z
_cell_length_a	19.288864
_cell_length_b	23.532407
_cell_length_c	18.366186
_cell_angle_alpha	89.989089
_cell_angle_beta	89.977106
_cell_angle_gamma	82.992461
loop_
_atom_site_label
_atom_site_type_symbol
_atom_site_fract_x
_atom_site_fract_y
_atom_site_fract_z
O1	O	0.921134	0.071045	-0.060790
O2	O	1.421134	0.571045	0.439210
O3	O	0.718843	0.080629	-0.060742
O4	O	1.218843	0.580629	0.439258
O5	O	0.826089	-0.007082	-0.060754
O6	O	1.326089	0.492918	0.439246
O7	O	0.813889	0.158756	-0.060778
O8	O	1.313889	0.658756	0.439222
O9	O	0.826071	-0.007086	0.060345
O10	O	1.326071	0.492914	0.560345
O11	O	0.718825	0.080625	0.060358
O12	O	1.218825	0.580625	0.560358
O13	O	0.921116	0.071041	0.060309
O14	O	1.421116	0.571041	0.560309
Zn15	Zn	0.819968	0.075832	0.079560
Zn16	Zn	1.319968	0.575832	0.579560
Zn17	Zn	0.819991	0.075838	-0.079993
Zn18	Zn	1.319991	0.575838	0.420007
O19	O	0.813870	0.158752	0.060321
O20	O	1.313870	0.658752	0.560321
C21	C	0.692959	0.080319	-0.000186
C22	C	1.192959	0.580319	0.499814
C23	C	0.615858	0.079393	-0.000166
C24	C	1.115858	0.579393	0.499834
C25	C	0.825769	-0.028301	-0.000203
C26	C	1.325769	0.471699	0.499797
C27	C	0.824835	-0.091520	-0.000197
C28	C	1.324835	0.408480	0.499803
C29	C	0.571003	0.130858	-0.000185
C30	C	1.071003	0.630858	0.499815
C31	C	0.498559	0.129988	-0.000193
C32	C	0.998559	0.629988	0.499807
C33	C	0.470973	0.077651	-0.000197
C34	C	0.970973	0.577651	0.499803
C35	C	0.515838	0.026179	-0.000174
C36	C	1.015838	0.526179	0.499826
C37	C	0.588280	0.027050	-0.000159
C38	C	1.088280	0.527050	0.499841
C39	C	0.362844	0.036509	-0.042642
C40	C	0.862844	0.536509	0.457358
C41	C	0.290402	0.035640	-0.042662
C42	C	0.790402	0.535640	0.457338
C43	C	0.247535	0.074961	-0.000240
C44	C	0.747535	0.574961	0.499760
C45	C	0.277118	0.115162	0.042191
C46	C	0.777118	0.615162	0.542191
C47	C	0.349561	0.116033	0.042206
C48	C	0.849561	0.616033	0.542206
C49	C	0.392422	0.076700	-0.000213
C50	C	0.892422	0.576700	0.499787
C51	C	0.124127	0.125487	-0.000267
C52	C	0.624127	0.625487	0.499733
C53	C	0.051682	0.124615	-0.000270
C54	C	0.551682	0.624615	0.499730
C55	C	0.068962	0.020805	-0.000258
C56	C	0.568962	0.520805	0.499742
C57	C	0.141406	0.021678	-0.000248
C58	C	0.641406	0.521678	0.499752
C59	C	0.168984	0.074021	-0.000255
C60	C	0.668984	0.574021	0.499745
C61	C	0.882442	-0.490503	-0.000251
C62	C	1.382442	0.009497	0.499749
C63	C	0.881574	-0.549905	-0.000256
C64	C	1.381574	-0.049905	0.499744
O65	O	0.934976	-0.586539	-0.000296
O66	O	1.434976	-0.086539	0.499704
N67	N	0.817817	-0.572664	-0.000240
N68	N	1.317817	-0.072664	0.499760
C69	C	0.754923	-0.536017	-0.000226
C70	C	1.254923	-0.036017	0.499774
O71	O	0.700613	-0.560829	-0.000214
O72	O	1.200613	-0.060829	0.499786
C73	C	0.755792	-0.476616	-0.000226
C74	C	1.255792	0.023384	0.499774
C75	C	0.819553	-0.453861	-0.000235
C76	C	1.319553	0.046139	0.499765
C77	C	0.946198	-0.467748	-0.000260
C78	C	1.446198	0.032252	0.499740
C79	C	0.947065	-0.408350	-0.000253
C80	C	1.447065	0.091650	0.499747
C81	C	0.884177	-0.371707	-0.000237
C82	C	1.384177	0.128293	0.499763
C83	C	0.820420	-0.394463	-0.000228
C84	C	1.320420	0.105537	0.499772
C85	C	0.692899	-0.439970	-0.000217
C86	C	1.192899	0.060030	0.499783
C87	C	0.693773	-0.380565	-0.000218
C88	C	1.193773	0.119435	0.499782
C89	C	0.757534	-0.357810	-0.000226
C90	C	1.257534	0.142190	0.499774
C91	C	0.758399	-0.298422	-0.000205
C92	C	1.258399	0.201578	0.499795
N93	N	0.822156	-0.275664	-0.000221
N94	N	1.322156	0.224336	0.499779
C95	C	0.885045	-0.312307	-0.000237
C96	C	1.385045	0.187693	0.499763
C97	C	0.753104	-0.660763	-0.000228
C98	C	1.253104	-0.160763	0.499772
C99	C	0.752235	-0.720163	-0.000223
C100	C	1.252235	-0.220163	0.499777
C101	C	0.878886	-0.734047	-0.000254
C102	C	1.378886	-0.234047	0.499746
C103	C	0.879755	-0.674647	-0.000254
C104	C	1.379755	-0.174647	0.499746
C105	C	0.816861	-0.638005	-0.000244
C106	C	1.316861	-0.138005	0.499756
C107	C	0.886862	-0.187566	-0.000222
C108	C	1.386862	0.312434	0.499778
C109	C	0.887724	-0.128162	-0.000213
C110	C	1.387724	0.371838	0.499787
C111	C	0.761073	-0.114283	-0.000185
C112	C	1.261073	0.385717	0.499815
C113	C	0.760211	-0.173681	-0.000191
C114	C	1.260211	0.326319	0.499809
C115	C	0.823111	-0.210322	-0.000212
C116	C	1.323111	0.289678	0.499788
O117	O	0.705025	-0.261754	-0.000168
O118	O	1.205025	0.238246	0.499832
O119	O	0.939346	-0.287486	-0.000259
O120	O	1.439346	0.212514	0.499741
C121	C	0.947000	0.071351	-0.000249
C122	C	1.447000	0.571351	0.499751
C123	C	1.024101	0.072277	-0.000273
C124	C	1.524101	0.572277	0.499727
C125	C	0.814190	0.179971	-0.000232
C126	C	1.314190	0.679971	0.499768
C127	C	0.815124	0.243190	-0.000242
C128	C	1.315124	0.743190	0.499758
N129	N	0.819956	0.075828	0.188452
N130	N	1.319956	0.575828	0.688452
N131	N	0.820008	0.075837	-0.188884
N132	N	1.320008	0.575837	0.311116
C133	C	0.867460	0.037009	0.226546
C134	C	1.367460	0.537009	0.726546
C135	C	0.867464	0.037006	0.302774
C136	C	1.367464	0.537006	0.802774
C137	C	0.819972	0.075833	0.340904
C138	C	1.319972	0.575833	0.840904
C139	C	0.772459	0.114655	0.302800
C140	C	1.272459	0.614655	0.802800
C141	C	0.772452	0.114653	0.226574
C142	C	1.272452	0.614653	0.726574
C143	C	0.810514	0.127724	0.461659
C144	C	1.310514	0.627724	0.961659
C145	C	0.810526	0.127727	0.537884
C146	C	1.310526	0.627727	1.037884
C147	C	0.819991	0.075840	0.576012
C148	C	1.319991	0.575840	1.076012
C149	C	0.829459	0.023947	0.537906
C150	C	1.329459	0.523947	1.037906
C151	C	0.829451	0.023945	0.461679
C152	C	1.329451	0.523945	0.961679
C153	C	0.819975	0.075839	0.423559
C154	C	1.319975	0.575839	0.923559
C155	C	0.867502	0.037014	0.696762
C156	C	1.367502	0.537014	1.196762
C157	C	0.867502	0.037011	0.772991
C158	C	1.367502	0.537011	1.272991
C159	C	0.772500	0.114665	0.773015
C160	C	1.272500	0.614665	1.273015
C161	C	0.772497	0.114663	0.696788
C162	C	1.272497	0.614663	1.196788
C163	C	0.820002	0.075839	0.658665
C164	C	1.320002	0.575839	1.158665
H165	H	0.593452	0.173479	-0.000193
H166	H	1.093452	0.673479	0.499807
C167	C	0.839876	-0.033133	0.579833
C168	C	1.339876	0.466867	1.079833
H169	H	0.845519	-0.064036	0.546222
H170	H	1.345519	0.435964	1.046222
H171	H	0.800216	-0.036214	0.609591
H172	H	1.300216	0.463786	1.109591
H173	H	0.880335	-0.034366	0.609547
H174	H	1.380335	0.465634	1.109547
C175	C	0.691899	-0.073971	-0.000173
C176	C	1.191899	0.426029	0.499827
H177	H	0.653799	-0.096027	-0.000164
H178	H	1.153799	0.403973	0.499836
H179	H	0.689621	-0.050505	-0.042402
H180	H	1.189621	0.449495	0.457598
H181	H	0.689598	-0.050517	0.042064
H182	H	1.189598	0.449483	0.542064
H183	H	0.642556	-0.350733	-0.000211
H184	H	1.142556	0.149267	0.499789
H185	H	0.906139	0.005394	0.195509
H186	H	1.406139	0.505394	0.695509
C187	C	0.449210	0.186601	-0.000225
C188	C	0.949210	0.686601	0.499775
H189	H	0.476010	0.217899	-0.000233
H190	H	0.976010	0.717899	0.499767
H191	H	0.420560	0.188424	0.041995
H192	H	0.920560	0.688424	0.541995
H193	H	0.420621	0.188411	-0.042471
H194	H	0.920621	0.688411	0.457529
H195	H	0.373644	0.148763	0.076758
H196	H	0.873644	0.648763	0.576758
C197	C	0.948065	-0.774359	-0.000277
C198	C	1.448065	-0.274359	0.499723
H199	H	0.986166	-0.752303	-0.000279
H200	H	1.486166	-0.252303	0.499721
H201	H	0.950360	-0.797813	-0.042509
H202	H	1.450360	-0.297813	0.457491
H203	H	0.950350	-0.797827	0.041957
H204	H	1.450350	-0.297827	0.541957
H205	H	0.802821	0.169981	0.568904
H206	H	1.302821	0.669981	1.068904
H207	H	0.708291	-0.192209	-0.000164
H208	H	1.208291	0.307791	0.499836
C209	C	0.622760	-0.464987	-0.000214
C210	C	1.122760	0.035013	0.499786
H211	H	0.585437	-0.434649	-0.000214
H212	H	1.085437	0.065351	0.499786
H213	H	0.619770	-0.487878	0.042013
H214	H	1.119770	0.012122	0.542013
H215	H	0.619797	-0.487860	-0.042453
H216	H	1.119797	0.012140	0.457547
C217	C	0.919744	-0.005696	0.654821
C218	C	1.419744	0.494304	1.154821
H219	H	0.912941	-0.000134	0.603966
H220	H	1.412941	0.499866	1.103966
H221	H	0.912463	-0.043689	0.667328
H222	H	1.412463	0.456311	1.167328
H223	H	0.966060	0.000393	0.667287
H224	H	1.466060	0.500393	1.167287
C225	C	0.409990	-0.006743	-0.089315
C226	C	0.909990	0.493257	0.410685
H227	H	0.381997	-0.030801	-0.114596
H228	H	0.881997	0.469199	0.385404
H229	H	0.442064	-0.029402	-0.058726
H230	H	0.942064	0.470598	0.441274
H231	H	0.434986	0.013296	-0.123427
H232	H	0.934986	0.513296	0.376573
H233	H	0.938081	-0.217393	-0.000242
H234	H	1.438081	0.282607	0.499758
H235	H	0.733789	0.146267	0.333850
H236	H	1.233789	0.646267	0.833850
H237	H	0.733828	0.146276	0.804060
H238	H	1.233828	0.646276	1.304060
C239	C	0.800097	0.184802	0.419721
C240	C	1.300097	0.684802	0.919721
H241	H	0.801440	0.177369	0.368867
H242	H	1.301440	0.677369	0.868867
H243	H	0.836265	0.207045	0.432185
H244	H	1.336265	0.707045	0.932185
H245	H	0.756146	0.205199	0.432233
H246	H	1.256146	0.705199	0.932233
H247	H	0.998986	-0.389829	-0.000263
H248	H	1.498986	0.110171	0.499737
C249	C	0.720257	0.157375	0.654878
C250	C	1.220257	0.657375	1.154878
H251	H	0.727053	0.151812	0.604020
H252	H	1.227053	0.651812	1.104020
H253	H	0.727542	0.195367	0.667359
H254	H	1.227542	0.695367	1.167359
H255	H	0.673941	0.151288	0.667392
H256	H	1.173941	0.651288	1.167392
H257	H	0.837158	-0.018308	0.430657
H258	H	1.337158	0.481692	0.930657
H259	H	0.997412	-0.497577	-0.000276
H260	H	1.497412	0.002423	0.499724
H261	H	0.939648	-0.109639	-0.000218
H262	H	1.439648	0.390361	0.499782
C263	C	0.949891	-0.649621	-0.000270
C264	C	1.449891	-0.149621	0.499730
H265	H	0.987217	-0.679957	-0.000283
H266	H	1.487217	-0.179957	0.499717
H267	H	0.952860	-0.626742	0.041958
H268	H	1.452860	-0.126742	0.541958
H269	H	0.952871	-0.626735	-0.042508
H270	H	1.452871	-0.126735	0.457492
H271	H	0.906183	0.005397	0.804008
H272	H	1.406183	0.505397	1.304008
C273	C	0.720200	0.157360	0.184668
C274	C	1.220200	0.657360	0.684668
H275	H	0.691917	0.180486	0.218291
H276	H	1.191917	0.680486	0.718291
H277	H	0.691430	0.136934	0.154949
H278	H	1.191430	0.636934	0.654949
H279	H	0.745025	0.181017	0.154916
H280	H	1.245025	0.681017	0.654916
H281	H	0.242217	0.147181	0.076735
H282	H	0.742217	0.647181	0.576735
C283	C	0.682098	-0.745187	-0.000207
C284	C	1.182098	-0.245187	0.499793
H285	H	0.644772	-0.714851	-0.000202
H286	H	1.144772	-0.214851	0.499798
H287	H	0.679115	-0.768079	0.042020
H288	H	1.179115	-0.268079	0.542020
H289	H	0.679132	-0.768059	-0.042446
H290	H	1.179132	-0.268059	0.457554
H291	H	0.701886	-0.630931	-0.000213
H292	H	1.201886	-0.130931	0.499787
C293	C	0.190752	-0.034933	-0.000238
C294	C	0.690752	0.465067	0.499762
H295	H	0.237846	-0.026918	-0.000223
H296	H	0.737846	0.473082	0.499777
H297	H	0.182452	-0.056400	-0.042467
H298	H	0.682452	0.443600	0.457533
H299	H	0.182406	-0.056403	0.041998
H300	H	0.682406	0.443597	0.541998
C301	C	0.154467	0.183060	-0.000268
C302	C	0.654467	0.683060	0.499732
H303	H	0.117374	0.213587	-0.000270
H304	H	0.617374	0.713587	0.499730
H305	H	0.182389	0.185560	-0.042494
H306	H	0.682389	0.685560	0.457506
H307	H	0.182345	0.185555	0.041971
H308	H	0.682345	0.685555	0.541971
C309	C	0.002338	0.181228	-0.000292
C310	C	0.502338	0.681228	0.499708
H311	H	-0.044757	0.173214	-0.000291
H312	H	0.455243	0.673214	0.499709
H313	H	0.010683	0.202695	-0.042525
H314	H	0.510683	0.702695	0.457475
H315	H	0.010638	0.202698	0.041940
H316	H	0.510638	0.702698	0.541940
H317	H	0.906149	0.005393	0.333797
H318	H	1.406149	0.505393	0.833797
H319	H	0.046503	-0.021810	-0.000307
H320	H	0.546503	0.478190	0.499693
H321	H	0.266322	0.002909	-0.077215
H322	H	0.766322	0.502909	0.422785
H323	H	0.493372	-0.016435	-0.000187
H324	H	0.993372	0.483565	0.499813
H325	H	0.624802	-0.014860	-0.000144
H326	H	1.124802	0.485140	0.499856
