data_functionalizedCrystal
_audit_creation_method	'MofGen! by Chris Wilmer'
_symmetry_space_group_name_H-M	'P1'
_symmetry_Int_Tables_number	1
_symmetry_cell_setting	triclinic
loop_
_symmetry_equiv_pos_as_xyz
  x,y,z
_cell_length_a	19.188925
_cell_length_b	19.188930
_cell_length_c	9.730223
_cell_angle_alpha	89.993564
_cell_angle_beta	89.998856
_cell_angle_gamma	83.143665
loop_
_atom_site_label
_atom_site_type_symbol
_atom_site_fract_x
_atom_site_fract_y
_atom_site_fract_z
O1	O	0.926143	0.087146	-0.114335
O2	O	1.259477	0.420480	0.218999
O3	O	1.592810	0.753813	0.552332
O4	O	0.722831	0.098885	-0.114333
O5	O	1.056165	0.432218	0.219000
O6	O	1.389498	0.765551	0.552334
O7	O	0.830354	-0.008640	-0.114307
O8	O	1.163688	0.324693	0.219026
O9	O	1.497021	0.658026	0.552359
O10	O	0.818620	0.194671	-0.114361
O11	O	1.151953	0.528005	0.218973
O12	O	1.485287	0.861338	0.552306
O13	O	0.830353	-0.008637	0.114273
O14	O	1.163687	0.324696	0.447606
O15	O	1.497020	0.658029	0.780939
O16	O	0.722830	0.098887	0.114247
O17	O	1.056163	0.432221	0.447580
O18	O	1.389497	0.765554	0.780913
O19	O	0.926142	0.087149	0.114245
O20	O	1.259475	0.420482	0.447578
O21	O	1.592809	0.753816	0.780912
Zn22	Zn	0.824486	0.093019	0.150538
Zn23	Zn	1.157819	0.426352	0.483871
Zn24	Zn	1.491153	0.759685	0.817205
Zn25	Zn	0.824487	0.093015	-0.150626
Zn26	Zn	1.157821	0.426348	0.182707
Zn27	Zn	1.491154	0.759682	0.516041
O28	O	0.818619	0.194674	0.114219
O29	O	1.151952	0.528007	0.447552
O30	O	1.485286	0.861341	0.780886
C31	C	0.696820	0.098507	-0.000043
C32	C	1.030153	0.431840	0.333291
C33	C	1.363486	0.765173	0.666624
C34	C	0.619315	0.097367	-0.000041
C35	C	0.952648	0.430701	0.333293
C36	C	1.285982	0.764034	0.666626
C37	C	0.057545	0.152831	-0.000059
C38	C	0.390878	0.486165	0.333275
C39	C	0.724211	0.819498	0.666608
C40	C	0.130368	0.153908	-0.000066
C41	C	0.463701	0.487241	0.333267
C42	C	0.797035	0.820575	0.666600
C43	C	0.175302	0.090816	-0.000047
C44	C	0.508636	0.424149	0.333286
C45	C	0.841969	0.757482	0.666619
C46	C	0.147408	0.026642	-0.000056
C47	C	0.480742	0.359976	0.333278
C48	C	0.814075	0.693309	0.666611
C49	C	0.074586	0.025568	-0.000062
C50	C	0.407920	0.358901	0.333272
C51	C	0.741253	0.692234	0.666605
N52	N	0.295979	0.045140	0.077775
N53	N	0.629312	0.378474	0.411108
N54	N	0.962646	0.711807	0.744442
N55	N	0.365156	0.046166	0.077784
N56	N	0.698490	0.379499	0.411117
N57	N	1.031823	0.712832	0.744450
C58	C	0.394712	0.094050	-0.000032
C59	C	0.728045	0.427383	0.333302
C60	C	1.061378	0.760716	0.666635
N61	N	0.352475	0.140881	-0.077839
N62	N	0.685808	0.474214	0.255494
N63	N	1.019141	0.807547	0.588827
N64	N	0.283291	0.139857	-0.077842
N65	N	0.616624	0.473191	0.255492
N66	N	0.949957	0.806524	0.588825
C67	C	0.254267	0.091974	-0.000041
C68	C	0.587600	0.425307	0.333292
C69	C	0.920933	0.758641	0.666625
C70	C	0.501561	0.159386	-0.000041
C71	C	0.834894	0.492720	0.333292
C72	C	1.168227	0.826053	0.666625
C73	C	0.574385	0.160460	-0.000058
C74	C	0.907719	0.493794	0.333276
C75	C	1.241052	0.827127	0.666609
C76	C	0.591425	0.033193	-0.000033
C77	C	0.924758	0.366526	0.333300
C78	C	1.258091	0.699859	0.666634
C79	C	0.518601	0.032121	-0.000031
C80	C	0.851934	0.365454	0.333303
C81	C	1.185268	0.698787	0.666636
C82	C	0.473673	0.095220	-0.000028
C83	C	0.807006	0.428553	0.333305
C84	C	1.140340	0.761886	0.666638
C85	C	0.829974	-0.034650	-0.000013
C86	C	1.163307	0.298683	0.333320
C87	C	1.496640	0.632017	0.666653
C88	C	0.828833	-0.112154	-0.000001
C89	C	1.162166	0.221179	0.333332
C90	C	1.495500	0.554512	0.666665
C91	C	0.891924	-0.157079	0.000005
C92	C	1.225257	0.176254	0.333338
C93	C	1.558591	0.509587	0.666671
C94	C	0.890852	-0.229903	-0.000017
C95	C	1.224186	0.103430	0.333316
C96	C	1.557519	0.436763	0.666649
C97	C	0.826686	-0.257799	-0.000018
C98	C	1.160020	0.075535	0.333315
C99	C	1.493353	0.408868	0.666649
C100	C	0.763587	-0.212864	-0.000032
C101	C	1.096920	0.120470	0.333302
C102	C	1.430254	0.453803	0.666635
C103	C	0.764660	-0.140041	-0.000023
C104	C	1.097994	0.193292	0.333310
C105	C	1.431327	0.526625	0.666643
N106	N	0.777638	-0.365802	0.077773
N107	N	1.110972	-0.032468	0.411106
N108	N	1.444305	0.300865	0.744439
N109	N	0.776623	-0.434980	0.077768
N110	N	1.109956	-0.101647	0.411101
N111	N	1.443290	0.231686	0.744434
C112	C	0.823448	-0.477207	-0.000046
C113	C	1.156781	-0.143874	0.333288
C114	C	1.490115	0.189459	0.666621
N115	N	0.871338	-0.447644	-0.077837
N116	N	1.204671	-0.114310	0.255497
N117	N	1.538004	0.219023	0.588830
N118	N	0.872355	-0.378459	-0.077826
N119	N	1.205689	-0.045126	0.255508
N120	N	1.539022	0.288208	0.588841
C121	C	0.825515	-0.336761	-0.000028
C122	C	1.158848	-0.003428	0.333306
C123	C	1.492182	0.329906	0.666639
C124	C	0.885381	-0.601097	-0.000065
C125	C	1.218715	-0.267763	0.333268
C126	C	1.552048	0.065570	0.666601
C127	C	0.884307	-0.673922	-0.000096
C128	C	1.217640	-0.340588	0.333237
C129	C	1.550974	-0.007255	0.666571
C130	C	0.757040	-0.656880	-0.000096
C131	C	1.090373	-0.323547	0.333237
C132	C	1.423706	0.009786	0.666570
C133	C	0.758116	-0.584057	-0.000080
C134	C	1.091449	-0.250724	0.333254
C135	C	1.424782	0.082610	0.666587
C136	C	0.822289	-0.556170	-0.000058
C137	C	1.155622	-0.222837	0.333276
C138	C	1.488955	0.110497	0.666609
C139	C	0.952154	0.087527	-0.000049
C140	C	1.285487	0.420861	0.333285
C141	C	1.618820	0.754194	0.666618
C142	C	1.029658	0.088666	-0.000059
C143	C	1.362992	0.422000	0.333274
C144	C	1.696325	0.755333	0.666607
C145	C	0.819000	0.220684	-0.000078
C146	C	1.152333	0.554017	0.333256
C147	C	1.485666	0.887350	0.666589
C148	C	0.820140	0.298188	-0.000099
C149	C	1.153474	0.631522	0.333235
C150	C	1.486807	0.964855	0.666568
N151	N	0.824490	0.093021	0.356074
N152	N	1.157823	0.426354	0.689408
N153	N	1.491156	0.759687	1.022741
N154	N	0.824489	0.093008	-0.356162
N155	N	1.157822	0.426341	-0.022829
N156	N	1.491156	0.759674	0.310504
C157	C	0.872113	0.045425	0.428012
C158	C	1.205446	0.378758	0.761345
C159	C	1.538780	0.712091	1.094679
C160	C	0.872111	0.045416	0.571895
C161	C	1.205445	0.378749	0.905228
C162	C	1.538778	0.712083	1.238561
C163	C	0.776861	0.140606	0.571890
C164	C	1.110194	0.473939	0.905223
C165	C	1.443527	0.807273	1.238557
C166	C	0.776860	0.140611	0.428010
C167	C	1.110193	0.473944	0.761343
C168	C	1.443526	0.807277	1.094676
C169	C	0.919743	-0.002165	0.356076
C170	C	1.253076	0.331168	0.689410
C171	C	1.586410	0.664501	1.022743
C172	C	0.967371	-0.049765	0.428014
C173	C	1.300704	0.283569	0.761347
C174	C	1.634037	0.616902	1.094681
C175	C	0.967369	-0.049773	0.571897
C176	C	1.300702	0.283560	0.905230
C177	C	1.634036	0.616893	1.238564
C178	C	0.919740	-0.002182	0.643842
C179	C	1.253073	0.331151	0.977176
C180	C	1.586406	0.664484	1.310509
H181	H	0.495896	-0.020129	-0.000023
H182	H	0.829230	0.313204	0.333310
H183	H	1.162563	0.646537	0.666644
Cl184	Cl	0.682921	-0.247931	-0.000043
Cl185	Cl	1.016254	0.085402	0.333290
Cl186	Cl	1.349587	0.418736	0.666623
H187	H	0.704794	-0.679592	-0.000104
H188	H	1.038128	-0.346258	0.333230
H189	H	1.371461	-0.012925	0.666563
H190	H	0.713282	-0.103462	-0.000028
H191	H	1.046616	0.229871	0.333305
H192	H	1.379949	0.563204	0.666639
H193	H	0.937635	-0.578390	-0.000054
H194	H	1.270968	-0.245057	0.333280
H195	H	1.604301	0.088277	0.666613
H196	H	0.738080	0.179367	0.369438
H197	H	1.071413	0.512700	0.702771
H198	H	1.404747	0.846034	1.036104
H199	H	0.183999	-0.024728	-0.000044
H200	H	0.517332	0.308606	0.333289
H201	H	0.850665	0.641939	0.666623
Cl202	Cl	0.716990	0.200433	0.662335
Cl203	Cl	1.050324	0.533766	0.995669
Cl204	Cl	1.383657	0.867099	1.329002
Cl205	Cl	0.001068	0.232156	-0.000074
Cl206	Cl	0.334401	0.565489	0.333259
Cl207	Cl	0.667734	0.898822	0.666592
H208	H	0.628010	-0.018178	-0.000028
H209	H	0.961343	0.315155	0.333305
H210	H	1.294676	0.648489	0.666638
Cl211	Cl	0.678797	-0.527576	-0.000081
Cl212	Cl	1.012130	-0.194243	0.333252
Cl213	Cl	1.345463	0.139090	0.666586
H214	H	0.935686	-0.710500	-0.000099
H215	H	1.269019	-0.377166	0.333235
H216	H	1.602352	-0.043833	0.666568
Cl217	Cl	0.972598	-0.122025	-0.000007
Cl218	Cl	1.305932	0.211308	0.333327
Cl219	Cl	1.639265	0.544641	0.666660
H220	H	0.919750	-0.002161	0.238920
H221	H	1.253084	0.331172	0.572253
H222	H	1.586417	0.664505	0.905586
Cl223	Cl	1.027238	-0.109596	0.337573
Cl224	Cl	1.360572	0.223737	0.670906
Cl225	Cl	1.693905	0.557071	1.004239
H226	H	0.942230	-0.266488	-0.000018
H227	H	1.275564	0.066845	0.333315
H228	H	1.608897	0.400178	0.666649
H229	H	0.919738	-0.002198	0.761002
H230	H	1.253071	0.331135	1.094335
H231	H	1.586404	0.664469	1.427668
Cl232	Cl	0.165434	0.234579	-0.000061
Cl233	Cl	0.498767	0.567912	0.333272
Cl234	Cl	0.832101	0.901245	0.666606
Cl235	Cl	0.039528	-0.055104	-0.000066
Cl236	Cl	0.372861	0.278230	0.333267
Cl237	Cl	0.706194	0.611563	0.666601
H238	H	1.006144	-0.088535	0.630467
H239	H	1.339478	0.244798	0.963801
H240	H	1.672811	0.578132	1.297134
Cl241	Cl	0.609442	0.241132	-0.000071
Cl242	Cl	0.942776	0.574466	0.333262
Cl243	Cl	1.276109	0.907799	0.666595
H244	H	0.464978	0.210765	-0.000042
H245	H	0.798311	0.544098	0.333291
H246	H	1.131645	0.877432	0.666625
