data_functionalizedCrystal
_audit_creation_method	'MofGen! by Chris Wilmer'
_symmetry_space_group_name_H-M	'P1'
_symmetry_Int_Tables_number	1
_symmetry_cell_setting	triclinic
loop_
_symmetry_equiv_pos_as_xyz
  x,y,z
_cell_length_a	18.215407
_cell_length_b	29.839131
_cell_length_c	18.215399
_cell_angle_alpha	90.038527
_cell_angle_beta	90.019833
_cell_angle_gamma	90.035676
loop_
_atom_site_label
_atom_site_type_symbol
_atom_site_fract_x
_atom_site_fract_y
_atom_site_fract_z
Zn1	Zn	1.125019	-0.178853	0.416062
Zn2	Zn	1.458352	0.154481	0.749395
Zn3	Zn	1.791686	0.487814	1.082728
Zn4	Zn	1.124905	-0.253982	0.292973
Zn5	Zn	1.458239	0.079351	0.626306
Zn6	Zn	1.791572	0.412685	0.959639
Zn7	Zn	1.001952	-0.178867	0.293009
Zn8	Zn	1.335285	0.154466	0.626342
Zn9	Zn	1.668618	0.487799	0.959676
Zn10	Zn	1.001895	-0.253957	0.415998
Zn11	Zn	1.335229	0.079376	0.749331
Zn12	Zn	1.668562	0.412710	1.082664
O13	O	1.063443	-0.216415	0.354510
O14	O	1.396776	0.116919	0.687844
O15	O	1.730109	0.450252	1.021177
O16	O	1.227988	-0.188823	0.399745
O17	O	1.561322	0.144510	0.733079
O18	O	1.894655	0.477844	1.066412
O19	O	1.108571	-0.244034	0.189993
O20	O	1.441904	0.089299	0.523327
O21	O	1.775238	0.422632	0.856660
O22	O	1.018348	-0.115998	0.309374
O23	O	1.351681	0.217335	0.642708
O24	O	1.685015	0.550668	0.976041
O25	O	1.227905	-0.244020	0.309312
O26	O	1.561238	0.089313	0.642646
O27	O	1.894571	0.422647	0.975979
O28	O	1.108765	-0.115987	0.399781
O29	O	1.442098	0.217346	0.733114
O30	O	1.775432	0.550679	1.066447
O31	O	1.018238	-0.188848	0.190020
O32	O	1.351571	0.144485	0.523353
O33	O	1.684904	0.477819	0.856687
O34	O	0.898960	-0.188824	0.309312
O35	O	1.232293	0.144510	0.642646
O36	O	1.565627	0.477843	0.975979
O37	O	1.018252	-0.243978	0.518990
O38	O	1.351585	0.089356	0.852324
O39	O	1.684919	0.422689	1.185657
O40	O	0.898918	-0.243992	0.399671
O41	O	1.232252	0.089342	0.733005
O42	O	1.565585	0.422675	1.066338
O43	O	1.108710	-0.188799	0.519038
O44	O	1.442044	0.144535	0.852371
O45	O	1.775377	0.477868	1.185704
O46	O	1.108516	-0.316846	0.309250
O47	O	1.441850	0.016488	0.642584
O48	O	1.775183	0.349821	0.975917
O49	O	1.018142	-0.316827	0.399636
O50	O	1.351475	0.016506	0.732969
O51	O	1.684808	0.349839	1.066303
C52	C	0.872237	-0.216407	0.354489
C53	C	1.205570	0.116926	0.687823
C54	C	1.538903	0.450260	1.021156
C55	C	0.790438	-0.216414	0.354498
C56	C	1.123771	0.116919	0.687831
C57	C	1.457104	0.450252	1.021164
C58	C	0.602241	-0.245186	0.401489
C59	C	0.935575	0.088148	0.734822
C60	C	1.268908	0.421481	1.068155
C61	C	0.525383	-0.245187	0.401498
C62	C	0.858716	0.088146	0.734831
C63	C	1.192049	0.421480	1.068164
C64	C	0.525396	-0.187652	0.307548
C65	C	0.858730	0.145682	0.640881
C66	C	1.192063	0.479015	0.974215
C67	C	0.602254	-0.187648	0.307543
C68	C	0.935587	0.145685	0.640877
C69	C	1.268920	0.479018	0.974210
C70	C	0.640674	-0.216418	0.354512
C71	C	0.974007	0.116915	0.687846
C72	C	1.307341	0.450249	1.021179
C73	C	0.486958	-0.216423	0.354526
C74	C	0.820291	0.116911	0.687860
C75	C	1.153625	0.450244	1.021193
C76	C	0.403624	-0.216424	0.354536
C77	C	0.736958	0.116909	0.687869
C78	C	1.070291	0.450243	1.021203
C79	C	0.724013	-0.216416	0.354504
C80	C	1.057346	0.116917	0.687837
C81	C	1.390680	0.450251	1.021171
C82	C	1.063331	-0.333137	0.354448
C83	C	1.396664	0.000196	0.687782
C84	C	1.729997	0.333529	1.021115
C85	C	1.063350	-0.383072	0.354446
C86	C	1.396683	-0.049738	0.687780
C87	C	1.730017	0.283595	1.021113
C88	C	1.110513	-0.692675	0.401652
C89	C	1.443846	-0.359341	0.734985
C90	C	1.777179	-0.026008	1.068319
C91	C	1.110593	-0.880348	0.401696
C92	C	1.443926	-0.547014	0.735029
C93	C	1.777259	-0.213681	1.068363
O94	O	1.150582	-0.904578	0.441786
O95	O	1.483915	-0.571245	0.775119
O96	O	1.817249	-0.237911	1.108453
N97	N	1.063568	-0.903857	0.354592
N98	N	1.396901	-0.570523	0.687925
N99	N	1.730234	-0.237190	1.021259
C100	C	1.016516	-0.880445	0.307477
C101	C	1.349850	-0.547111	0.640810
C102	C	1.683183	-0.213778	0.974143
O103	O	0.976515	-0.904747	0.267418
O104	O	1.309849	-0.571414	0.600752
O105	O	1.643182	-0.238080	0.934085
C106	C	1.016433	-0.692773	0.307437
C107	C	1.349767	-0.359439	0.640770
C108	C	1.683100	-0.026106	0.974104
C109	C	1.063466	-0.669266	0.354539
C110	C	1.396800	-0.335932	0.687872
C111	C	1.730133	-0.002599	1.021206
C112	C	1.157541	-0.669168	0.448751
C113	C	1.490875	-0.335834	0.782084
C114	C	1.824208	-0.002501	1.115417
C115	C	1.157524	-0.622252	0.448736
C116	C	1.490857	-0.288919	0.782070
C117	C	1.824191	0.044414	1.115403
C118	C	1.110477	-0.598844	0.401623
C119	C	1.443811	-0.265510	0.734957
C120	C	1.777144	0.067823	1.068290
C121	C	1.063449	-0.622350	0.354524
C122	C	1.396782	-0.289017	0.687858
C123	C	1.730115	0.044316	1.021191
C124	C	0.969378	-0.669361	0.260326
C125	C	1.302712	-0.336028	0.593659
C126	C	1.636045	-0.002695	0.926993
C127	C	0.969361	-0.622440	0.260321
C128	C	1.302694	-0.289107	0.593655
C129	C	1.636027	0.044226	0.926988
C130	C	1.016394	-0.598934	0.307423
C131	C	1.349727	-0.265600	0.640757
C132	C	1.683060	0.067733	0.974090
C133	C	1.016385	-0.552026	0.307397
C134	C	1.349718	-0.218693	0.640730
C135	C	1.683051	0.114640	0.974064
N136	N	1.063410	-0.528517	0.354501
N137	N	1.396743	-0.195184	0.687835
N138	N	1.730076	0.138150	1.021168
C139	C	1.110456	-0.551926	0.401614
C140	C	1.443789	-0.218592	0.734948
C141	C	1.777123	0.114741	1.068281
C142	C	1.016564	-0.978975	0.307500
C143	C	1.349897	-0.645642	0.640833
C144	C	1.683231	-0.312309	0.974167
C145	C	1.016586	-1.025893	0.307509
C146	C	1.349919	-0.692560	0.640842
C147	C	1.683252	-0.359226	0.974176
C148	C	1.110661	-1.025793	0.401730
C149	C	1.443995	-0.692459	0.735063
C150	C	1.777328	-0.359126	1.068396
C151	C	1.110643	-0.978874	0.401716
C152	C	1.443976	-0.645541	0.735050
C153	C	1.777310	-0.312207	1.068383
C154	C	1.063589	-0.955466	0.354604
C155	C	1.396922	-0.622133	0.687938
C156	C	1.730256	-0.288799	1.021271
C157	C	1.110416	-0.453400	0.401580
C158	C	1.443749	-0.120067	0.734913
C159	C	1.777083	0.213267	1.068247
C160	C	1.110396	-0.406480	0.401559
C161	C	1.443730	-0.073147	0.734893
C162	C	1.777063	0.260186	1.068226
C163	C	1.016318	-0.406585	0.307342
C164	C	1.349652	-0.073252	0.640675
C165	C	1.682985	0.260082	0.974009
C166	C	1.016340	-0.453500	0.307360
C167	C	1.349674	-0.120167	0.640693
C168	C	1.683007	0.213166	0.974026
C169	C	1.063392	-0.476907	0.354485
C170	C	1.396725	-0.143573	0.687818
C171	C	1.730058	0.189760	1.021151
O172	O	0.976410	-0.527767	0.267334
O173	O	1.309744	-0.194434	0.600667
O174	O	1.643077	0.138900	0.934001
O175	O	1.150439	-0.527615	0.441678
O176	O	1.483773	-0.194282	0.775012
O177	O	1.817106	0.139051	1.108345
C178	C	1.110530	-0.739590	0.401666
C179	C	1.443864	-0.406257	0.735000
C180	C	1.777197	-0.072923	1.068333
C181	C	1.063502	-0.763097	0.354568
C182	C	1.396835	-0.429763	0.687901
C183	C	1.730168	-0.096430	1.021234
C184	C	1.016455	-0.739688	0.307454
C185	C	1.349789	-0.406355	0.640788
C186	C	1.683122	-0.073021	0.974121
C187	C	1.063523	-0.810015	0.354576
C188	C	1.396856	-0.476681	0.687910
C189	C	1.730190	-0.143348	1.021243
C190	C	1.110569	-0.833423	0.401690
C191	C	1.443903	-0.500090	0.735023
C192	C	1.777236	-0.166757	1.068356
C193	C	1.157594	-0.809914	0.448794
C194	C	1.490928	-0.476581	0.782127
C195	C	1.824261	-0.143247	1.115460
C196	C	1.157577	-0.762999	0.448779
C197	C	1.490910	-0.429665	0.782113
C198	C	1.824243	-0.096332	1.115446
C199	C	0.969430	-0.763197	0.260350
C200	C	1.302764	-0.429864	0.593684
C201	C	1.636097	-0.096530	0.927017
C202	C	0.969452	-0.810113	0.260368
C203	C	1.302786	-0.476779	0.593701
C204	C	1.636119	-0.143446	0.927035
C205	C	1.016499	-0.833521	0.307481
C206	C	1.349832	-0.500188	0.640814
C207	C	1.683165	-0.166855	0.974148
C208	C	1.255396	-0.216423	0.354532
C209	C	1.588729	0.116911	0.687865
C210	C	1.922062	0.450244	1.021199
C211	C	1.337195	-0.216426	0.354541
C212	C	1.670528	0.116907	0.687874
C213	C	2.003861	0.450241	1.021208
C214	C	1.063488	-0.216384	0.546463
C215	C	1.396821	0.116950	0.879797
C216	C	1.730154	0.450283	1.213130
C217	C	1.063507	-0.216370	0.628262
C218	C	1.396840	0.116963	0.961596
C219	C	1.730173	0.450296	1.294929
C220	C	1.063576	-0.099236	0.354589
C221	C	1.396909	0.234097	0.687922
C222	C	1.730242	0.567430	1.021255
C223	C	1.063632	-0.049302	0.354622
C224	C	1.396965	0.284032	0.687955
C225	C	1.730299	0.617365	1.021289
C226	C	1.063440	-0.216413	0.163304
C227	C	1.396774	0.116920	0.496637
C228	C	1.730107	0.450254	0.829971
C229	C	1.063564	-0.216300	0.081506
C230	C	1.396897	0.117034	0.414839
C231	C	1.730231	0.450367	0.748172
C232	C	1.110625	-0.187612	0.816482
C233	C	1.443959	0.145721	1.149815
C234	C	1.777292	0.479055	1.483149
C235	C	1.110634	-0.187599	0.893341
C236	C	1.443968	0.145734	1.226674
C237	C	1.777301	0.479068	1.560007
C238	C	1.016440	-0.245059	0.893281
C239	C	1.349773	0.088274	1.226614
C240	C	1.683107	0.421607	1.559947
C241	C	1.016428	-0.245070	0.816423
C242	C	1.349762	0.088263	1.149756
C243	C	1.683095	0.421597	1.483090
C244	C	1.063525	-0.216347	0.778026
C245	C	1.396858	0.116986	1.111359
C246	C	1.730192	0.450320	1.444693
C247	C	1.063546	-0.216323	0.931742
C248	C	1.396879	0.117010	1.265075
C249	C	1.730212	0.450343	1.598409
C250	C	1.063555	-0.216309	1.015076
C251	C	1.396888	0.117024	1.348409
C252	C	1.730222	0.450357	1.681742
C253	C	1.063515	-0.216360	0.694687
C254	C	1.396848	0.116973	1.028020
C255	C	1.730182	0.450307	1.361354
H256	H	0.633521	-0.268610	0.439736
H257	H	0.966855	0.064723	0.773069
H258	H	1.300188	0.398056	1.106402
Cl259	Cl	0.910203	-0.593016	0.201091
Cl260	Cl	1.243537	-0.259683	0.534424
Cl261	Cl	1.576870	0.073650	0.867757
Cl262	Cl	1.169830	-0.151501	0.768214
Cl263	Cl	1.503163	0.181832	1.101547
Cl264	Cl	1.836496	0.515165	1.434880
Cl265	Cl	1.169855	-0.151477	0.941683
Cl266	Cl	1.503189	0.181856	1.275016
Cl267	Cl	1.836522	0.515189	1.608349
Cl268	Cl	0.477070	-0.281353	0.460558
Cl269	Cl	0.810404	0.051980	0.793891
Cl270	Cl	1.143737	0.385314	1.127224
Cl271	Cl	0.957222	-0.483052	0.248136
Cl272	Cl	1.290555	-0.149719	0.581469
Cl273	Cl	1.623888	0.183614	0.914802
H274	H	0.494105	-0.164229	0.269306
H275	H	0.827438	0.169104	0.602640
H276	H	1.160771	0.502437	0.935973
H277	H	0.978246	-0.959920	0.269134
H278	H	1.311580	-0.626586	0.602467
H279	H	1.644913	-0.293253	0.935801
H280	H	0.633546	-0.164220	0.269289
H281	H	0.966880	0.169114	0.602623
H282	H	1.300213	0.502447	0.935956
Cl283	Cl	0.957207	-0.281194	0.768074
Cl284	Cl	1.290540	0.052139	1.101408
Cl285	Cl	1.623874	0.385472	1.434741
H286	H	0.931079	-0.688493	0.221970
H287	H	1.264413	-0.355159	0.555303
H288	H	1.597746	-0.021826	0.888637
Cl289	Cl	1.169529	-0.376932	0.460777
Cl290	Cl	1.502862	-0.043599	0.794110
Cl291	Cl	1.836196	0.289735	1.127444
H292	H	1.148724	-0.472452	0.439959
H293	H	1.482058	-0.139119	0.773292
H294	H	1.815391	0.194215	1.106625
H295	H	0.978097	-0.268446	0.924553
H296	H	1.311431	0.064888	1.257886
H297	H	1.644764	0.398221	1.591220
H298	H	1.195875	-0.743863	0.487134
H299	H	1.529209	-0.410530	0.820468
H300	H	1.862542	-0.077196	1.153801
Cl301	Cl	1.216649	-0.592708	0.507960
Cl302	Cl	1.549982	-0.259375	0.841293
Cl303	Cl	1.883315	0.073959	1.174626
H304	H	1.148941	-0.959738	0.440071
H305	H	1.482274	-0.626404	0.773404
H306	H	1.815608	-0.293071	1.106738
Cl307	Cl	1.216692	-0.698587	0.507989
Cl308	Cl	1.550025	-0.365254	0.841322
Cl309	Cl	1.883358	-0.031921	1.174656
H310	H	1.148969	-1.044860	0.440090
H311	H	1.482303	-0.711527	0.773423
H312	H	1.815636	-0.378193	1.106757
H313	H	0.978016	-0.387518	0.268981
H314	H	1.311349	-0.054185	0.602314
H315	H	1.644682	0.279148	0.935647
H316	H	0.978294	-1.045028	0.269146
H317	H	1.311628	-0.711695	0.602479
H318	H	1.644961	-0.378362	0.935813
H319	H	1.195904	-0.828982	0.487152
H320	H	1.529237	-0.495648	0.820486
H321	H	1.862570	-0.162315	1.153819
H322	H	0.931153	-0.829248	0.222005
H323	H	1.264487	-0.495914	0.555338
H324	H	1.597820	-0.162581	0.888672
Cl325	Cl	0.910277	-0.733776	0.201119
Cl326	Cl	1.243610	-0.400443	0.534453
Cl327	Cl	1.576943	-0.067110	0.867786
