data_functionalizedCrystal
_audit_creation_method	'MofGen! by Chris Wilmer'
_symmetry_space_group_name_H-M	'P1'
_symmetry_Int_Tables_number	1
_symmetry_cell_setting	triclinic
loop_
_symmetry_equiv_pos_as_xyz
  x,y,z
_cell_length_a	17.038272
_cell_length_b	17.019294
_cell_length_c	13.101039
_cell_angle_alpha	89.487532
_cell_angle_beta	86.404528
_cell_angle_gamma	87.244363
loop_
_atom_site_label
_atom_site_type_symbol
_atom_site_fract_x
_atom_site_fract_y
_atom_site_fract_z
O1	O	1.042262	0.166527	-0.099778
O2	O	0.814623	0.163817	-0.099569
O3	O	0.934284	0.051245	-0.089615
O4	O	0.922601	0.279099	-0.109732
O5	O	0.925699	0.059337	0.080100
O6	O	0.806037	0.171909	0.070146
O7	O	1.033676	0.174618	0.069937
Zn8	Zn	0.918494	0.174548	0.096987
Zn9	Zn	0.929806	0.163888	-0.126619
O10	O	0.914015	0.287190	0.059982
C11	C	0.781193	0.165399	-0.014498
C12	C	0.694374	0.158049	-0.013861
C13	C	0.644503	0.225526	-0.019818
C14	C	0.562927	0.218616	-0.019194
C15	C	0.531224	0.144229	-0.012620
C16	C	0.581101	0.076748	-0.006660
C17	C	0.662676	0.083659	-0.007277
C18	C	0.285377	0.119815	-0.010437
C19	C	0.203796	0.112910	-0.009824
C20	C	0.185628	0.254778	-0.022355
C21	C	0.267204	0.261682	-0.022978
C22	C	0.317074	0.194201	-0.017012
C23	C	0.447841	0.137165	-0.011985
C24	C	0.400456	0.201267	-0.017640
C25	C	0.929379	0.025993	-0.002173
C26	C	0.927545	-0.061307	0.005527
C27	C	0.931366	-0.106727	-0.083366
C28	C	0.929637	-0.188754	-0.076127
C29	C	0.924095	-0.225361	0.020005
C30	C	0.920272	-0.179935	0.108905
C31	C	0.921994	-0.097909	0.101665
C32	C	0.918654	-0.472806	0.046492
C33	C	0.916934	-0.554838	0.053725
C34	C	0.926298	-0.563652	-0.131308
C35	C	0.928025	-0.481624	-0.138539
C36	C	0.924198	-0.436205	-0.049640
C37	C	0.922330	-0.309206	0.027406
C38	C	0.925957	-0.352361	-0.057042
C39	C	1.067106	0.173036	-0.015136
C40	C	1.153925	0.180386	-0.015780
C41	C	0.918920	0.312443	-0.027461
C42	C	0.920754	0.399743	-0.035168
N43	N	0.910779	0.181824	0.249592
N44	N	0.937526	0.156606	-0.279224
C45	C	0.900284	0.191729	0.457759
C46	C	0.948019	0.146703	0.512616
C47	C	0.942179	0.152215	0.628447
C48	C	0.906123	0.186218	0.341917
H49	H	0.293011	0.322255	-0.028343
H50	H	0.932540	-0.451825	-0.216821
C51	C	0.340231	0.045590	-0.003883
C52	C	0.403261	0.026630	-0.090708
C53	C	0.458121	-0.047598	-0.084155
C54	C	0.449950	-0.102866	0.009224
C55	C	0.386917	-0.083907	0.096055
C56	C	0.332057	-0.009679	0.089502
H57	H	0.409312	0.067543	-0.159839
H58	H	0.504782	-0.061633	-0.148434
H59	H	0.490561	-0.157814	0.014075
H60	H	0.380866	-0.124821	0.165186
H61	H	0.285396	0.004355	0.153781
C62	C	0.839157	0.249401	0.511822
C63	C	0.832814	0.254356	0.629380
C64	C	0.771691	0.312031	0.683457
C65	C	0.716910	0.364750	0.619975
C66	C	0.723251	0.359796	0.502410
C67	C	0.784375	0.302122	0.448333
H68	H	0.873367	0.215329	0.676380
H69	H	0.766997	0.315697	0.770487
H70	H	0.671663	0.407443	0.660006
H71	H	0.682698	0.398823	0.455410
H72	H	0.789069	0.298456	0.361303
C73	C	0.916218	-0.349462	0.133159
C74	C	0.980413	-0.338936	0.208906
C75	C	0.974288	-0.379188	0.314661
C76	C	0.903967	-0.429968	0.344669
C77	C	0.839767	-0.440496	0.268920
C78	C	0.845892	-0.400244	0.163165
H79	H	1.032473	-0.301344	0.186693
H80	H	1.021813	-0.371394	0.370735
H81	H	0.899433	-0.459765	0.422956
H82	H	0.787707	-0.478088	0.291133
H83	H	0.798367	-0.408038	0.107091
H84	H	0.993273	0.104016	0.472588
H85	H	0.555282	0.016181	-0.001293
H86	H	0.670309	0.286099	-0.025171
C87	C	0.914170	-0.220206	0.214648
C88	C	0.843865	-0.271005	0.244657
C89	C	0.837764	-0.311278	0.350401
C90	C	0.901968	-0.300752	0.426135
C91	C	0.972279	-0.249951	0.396127
C92	C	0.978380	-0.209678	0.290384
H93	H	0.796332	-0.278799	0.188593
H94	H	0.785715	-0.348885	0.372614
H95	H	0.897452	-0.330565	0.504413
H96	H	1.019811	-0.242157	0.452192
H97	H	1.030428	-0.172072	0.268171
C98	C	0.933854	-0.238712	-0.173916
C99	C	1.001796	-0.300695	-0.193978
C100	C	1.006016	-0.350651	-0.291774
C101	C	0.942294	-0.338622	-0.369507
C102	C	0.874347	-0.276636	-0.349448
C103	C	0.870127	-0.226680	-0.251652
H104	H	1.048971	-0.309602	-0.136433
H105	H	1.056315	-0.396537	-0.306623
H106	H	0.945418	-0.375602	-0.441901
H107	H	0.827171	-0.267729	-0.406993
H108	H	0.819827	-0.180794	-0.236803
H109	H	0.915553	-0.435836	0.118881
H110	H	0.426272	0.261833	-0.022987
C111	C	0.508073	0.292844	-0.025752
C112	C	0.453939	0.303398	-0.115178
C113	C	0.399085	0.377630	-0.121736
C114	C	0.398366	0.441308	-0.038869
C115	C	0.452502	0.430756	0.050562
C116	C	0.507355	0.356524	0.057121
H117	H	0.454469	0.256258	-0.176526
H118	H	0.359010	0.385442	-0.187940
H119	H	0.357761	0.496260	-0.043724
H120	H	0.451972	0.477896	0.111911
H121	H	0.547430	0.348712	0.123324
C122	C	0.130769	0.329004	-0.028906
C123	C	0.076634	0.339563	-0.118329
C124	C	0.021775	0.413792	-0.124875
C125	C	0.021050	0.477462	-0.041998
C126	C	0.075187	0.466905	0.047432
C127	C	0.130047	0.392676	0.053978
H128	H	0.077168	0.292428	-0.179686
H129	H	-0.018301	0.421606	-0.191078
H130	H	-0.019560	0.532411	-0.046843
H131	H	0.074653	0.514039	0.108789
H132	H	0.170122	0.384861	0.120181
H133	H	0.918872	-0.060928	0.174052
H134	H	0.703281	0.028712	-0.002427
C135	C	0.937463	-0.066463	-0.189115
C136	C	1.008920	-0.085766	-0.264049
C137	C	1.015015	-0.045505	-0.369800
C138	C	0.949654	0.014059	-0.400617
C139	C	0.878192	0.033364	-0.325681
C140	C	0.872097	-0.006897	-0.219930
H141	H	1.057309	-0.129861	-0.241237
H142	H	1.067916	-0.059796	-0.425272
H143	H	0.954166	0.043863	-0.478901
H144	H	0.829803	0.077460	-0.348493
H145	H	0.819195	0.007395	-0.164458
C146	C	0.168917	0.031081	-0.002580
C147	C	0.183169	-0.022276	0.090642
C148	C	0.148286	-0.104099	0.097885
C149	C	0.099152	-0.132563	0.011906
C150	C	0.084897	-0.079204	-0.081323
C151	C	0.119780	0.002618	-0.088566
H152	H	0.219543	-0.001206	0.154295
H153	H	0.158839	-0.143598	0.166900
H154	H	0.073330	-0.193133	0.017268
H155	H	0.048523	-0.100275	-0.144976
H156	H	0.109228	0.042117	-0.157581
H157	H	0.422017	0.076600	-0.006604
H158	H	0.929413	-0.600640	-0.203685
C159	C	0.910800	-0.595121	0.159466
C160	C	0.839314	-0.575832	0.234357
C161	C	0.833167	-0.616124	0.340086
C162	C	0.898507	-0.675704	0.370925
C163	C	0.969999	-0.694996	0.296032
C164	C	0.976145	-0.654705	0.190303
H165	H	0.790941	-0.531725	0.211530
H166	H	0.780244	-0.601843	0.395526
H167	H	0.893957	-0.705530	0.449192
H168	H	1.018372	-0.739104	0.318860
H169	H	1.029069	-0.668986	0.134863
H170	H	0.930464	-0.322552	-0.135313
