data_functionalizedCrystal
_audit_creation_method	'MofGen! by Chris Wilmer'
_symmetry_space_group_name_H-M	'P1'
_symmetry_Int_Tables_number	1
_symmetry_cell_setting	triclinic
loop_
_symmetry_equiv_pos_as_xyz
  x,y,z
_cell_length_a	12.645331
_cell_length_b	19.120904
_cell_length_c	12.645330
_cell_angle_alpha	92.417999
_cell_angle_beta	90.016671
_cell_angle_gamma	92.422629
loop_
_atom_site_label
_atom_site_type_symbol
_atom_site_fract_x
_atom_site_fract_y
_atom_site_fract_z
Zn1	Zn	1.595103	-0.397144	-0.447663
Zn2	Zn	2.095103	0.102856	0.052337
Zn3	Zn	1.602563	-0.279706	-0.617380
Zn4	Zn	2.102563	0.220294	-0.117380
Zn5	Zn	1.425395	-0.279709	-0.440128
Zn6	Zn	1.925395	0.220291	0.059872
Zn7	Zn	1.417801	-0.397114	-0.624880
Zn8	Zn	1.917801	0.102886	-0.124880
O9	O	1.510215	-0.338418	-0.532513
O10	O	2.010215	0.161582	-0.032513
O11	O	1.744439	-0.381577	-0.470191
O12	O	2.244439	0.118423	0.029809
O13	O	1.585362	-0.181424	-0.587575
O14	O	2.085362	0.318576	-0.087575
O15	O	1.447964	-0.295300	-0.292781
O16	O	1.947964	0.204700	0.207219
O17	O	1.749920	-0.295295	-0.594881
O18	O	2.249920	0.204705	-0.094881
O19	O	1.572647	-0.381579	-0.298317
O20	O	2.072647	0.118421	0.201683
O21	O	1.455198	-0.181426	-0.457349
O22	O	1.955198	0.318574	0.042651
O23	O	1.276042	-0.295272	-0.464621
O24	O	1.776042	0.204728	0.035379
O25	O	1.435020	-0.495401	-0.607664
O26	O	1.935020	0.004599	-0.107664
O27	O	1.270462	-0.381529	-0.600357
O28	O	1.770462	0.118471	-0.100357
O29	O	1.565282	-0.495423	-0.477463
O30	O	2.065282	0.004577	0.022537
O31	O	1.577997	-0.295267	-0.766721
O32	O	2.077997	0.204733	-0.266721
O33	O	1.442254	-0.381526	-0.772231
O34	O	1.942254	0.118474	-0.272231
C35	C	1.234787	-0.338398	-0.532486
C36	C	1.734787	0.161602	-0.032486
C37	C	1.116956	-0.338406	-0.532502
C38	C	1.616956	0.161594	-0.032502
C39	C	1.498472	-0.521608	-0.544241
C40	C	1.998472	-0.021608	-0.044241
C41	C	1.493467	-0.599673	-0.549239
C42	C	1.993467	-0.099673	-0.049239
C43	C	0.952848	-0.284441	-0.446752
C44	C	1.452848	0.215559	0.053248
C45	C	1.075423	-0.284203	-0.446950
C46	C	1.575423	0.215797	0.053050
C47	C	1.073741	-0.318189	-0.642872
C48	C	1.573741	0.181811	-0.142872
C49	C	0.951166	-0.317821	-0.642399
C50	C	1.451166	0.182179	-0.142399
C51	C	0.945006	-0.412796	-0.508956
C52	C	1.445006	0.087204	-0.008956
C53	C	1.067639	-0.412383	-0.506435
C54	C	1.567639	0.087617	-0.006435
C55	C	1.558934	-0.636360	-0.483801
C56	C	2.058934	-0.136360	0.016199
C57	C	1.554218	-0.709710	-0.488493
C58	C	2.054218	-0.209710	0.011507
C59	C	1.484042	-0.746371	-0.558628
C60	C	1.984042	-0.246371	-0.058628
C61	C	1.418568	-0.709679	-0.624068
C62	C	1.918568	-0.209679	-0.124068
C63	C	1.423279	-0.636330	-0.619370
C64	C	1.923279	-0.136330	-0.119370
C65	C	1.466421	-0.967836	-0.576200
C66	C	1.966421	-0.467836	-0.076200
C67	C	1.461718	-1.041190	-0.580895
C68	C	1.961718	-0.541190	-0.080895
C69	C	1.597367	-1.041216	-0.445318
C70	C	2.097367	-0.541216	0.054682
C71	C	1.602076	-0.967866	-0.440630
C72	C	2.102076	-0.467866	0.059370
C73	C	1.536599	-0.931180	-0.506066
C74	C	2.036599	-0.431180	-0.006066
C75	C	1.479223	-0.821347	-0.563428
C76	C	1.979223	-0.321347	-0.063428
C77	C	1.541413	-0.856206	-0.501260
C78	C	2.041413	-0.356206	-0.001260
C79	C	1.786719	-0.338439	-0.532540
C80	C	2.286719	0.161561	-0.032540
C81	C	1.904549	-0.338448	-0.532552
C82	C	2.404549	0.161552	-0.032552
C83	C	1.510139	-0.338408	-0.807942
C84	C	2.010139	0.161592	-0.307942
C85	C	1.510201	-0.338428	-0.925773
C86	C	2.010201	0.161572	-0.425773
C87	C	1.521974	-0.155941	-0.520754
C88	C	2.021974	0.344059	-0.020754
C89	C	1.527184	-0.077877	-0.515458
C90	C	2.027184	0.422123	-0.015458
C91	C	1.425132	-0.392861	-1.096858
C92	C	1.925132	0.107139	-0.596858
C93	C	1.424726	-0.392686	-0.974288
C94	C	1.924726	0.107314	-0.474288
C95	C	1.484733	-0.264410	-0.965595
C96	C	1.984733	0.235590	-0.465595
C97	C	1.484213	-0.264740	-1.088215
C98	C	1.984213	0.235260	-0.588215
C99	C	1.621277	-0.357412	-1.094088
C100	C	2.121277	0.142588	-0.594088
C101	C	1.620485	-0.359031	-0.971586
C102	C	2.120485	0.140969	-0.471586
C103	C	1.510320	-0.338443	-0.256009
C104	C	2.010320	0.161557	0.243991
C105	C	1.510365	-0.338454	-0.138180
C106	C	2.010365	0.161546	0.361820
H107	H	1.104706	-0.296875	-0.364956
H108	H	1.604706	0.203125	0.135044
H109	H	1.422089	-0.851204	-0.620538
H110	H	1.922089	-0.351204	-0.120538
Cl111	Cl	1.340971	-0.590209	-0.701635
Cl112	Cl	1.840971	-0.090209	-0.201635
H113	H	0.922575	-0.296976	-0.364501
H114	H	1.422575	0.203024	0.135499
H115	H	1.639778	-0.413504	-0.945947
H116	H	2.139778	0.086496	-0.445947
H117	H	1.403278	-0.248681	-1.115869
H118	H	1.903278	0.251319	-0.615869
Cl119	Cl	1.111072	-0.435930	-0.381084
Cl120	Cl	1.611072	0.064070	0.118916
Cl121	Cl	1.679672	-1.087339	-0.363057
Cl122	Cl	2.179672	-0.587339	0.136943
Cl123	Cl	1.373483	-1.087277	-0.669066
Cl124	Cl	1.873483	-0.587277	-0.169066
Cl125	Cl	0.896255	-0.474924	-0.605527
Cl126	Cl	1.396255	0.025076	-0.105527
Cl127	Cl	1.384107	-0.921726	-0.658463
Cl128	Cl	1.884107	-0.421726	-0.158463
H129	H	1.361425	-0.739534	-0.681170
H130	H	1.861425	-0.239534	-0.181170
H131	H	1.598546	-0.826353	-0.444152
H132	H	2.098546	-0.326353	0.055848
H133	H	1.659224	-0.938021	-0.383522
H134	H	2.159224	-0.438021	0.116478
Cl135	Cl	1.448469	-0.477423	-0.933191
Cl136	Cl	1.948469	0.022577	-0.433191
H137	H	1.545055	-0.222765	-0.933753
H138	H	2.045055	0.277235	-0.433753
Cl139	Cl	1.647166	-0.590279	-0.395632
Cl140	Cl	2.147166	-0.090279	0.104368
Cl141	Cl	1.110739	-0.477834	-0.596475
Cl142	Cl	1.610739	0.022166	-0.096475
Cl143	Cl	1.448585	-0.477878	-1.147753
Cl144	Cl	1.948585	0.022122	-0.647753
Cl145	Cl	0.895479	-0.441181	-0.387252
Cl146	Cl	1.395479	0.058819	0.112748
H147	H	1.343319	-0.380461	-1.126958
H148	H	1.843319	0.119539	-0.626958
Cl149	Cl	1.297626	-0.373297	-0.927891
Cl150	Cl	1.797626	0.126703	-0.427891
Cl151	Cl	1.636570	-0.755828	-0.406272
Cl152	Cl	2.136570	-0.255828	0.093728
Cl153	Cl	1.126123	-0.199139	-0.470430
Cl154	Cl	1.626123	0.300861	0.029570
Cl155	Cl	1.576287	-0.200015	-1.129837
Cl156	Cl	2.076287	0.299985	-0.629837
H157	H	1.404670	-0.248060	-0.933928
H158	H	1.904670	0.251940	-0.433928
H159	H	1.645443	-0.410468	-1.128353
H160	H	2.145443	0.089532	-0.628353
H161	H	1.107866	-0.264420	-0.663894
H162	H	1.607866	0.235580	-0.163894
Cl163	Cl	0.912350	-0.233905	-0.674154
Cl164	Cl	1.412350	0.266095	-0.174154
Cl165	Cl	0.910659	-0.199880	-0.469927
Cl166	Cl	1.410659	0.300120	0.030073
Cl167	Cl	1.723107	-0.302310	-0.920603
Cl168	Cl	2.223107	0.197690	-0.420603
H169	H	0.919094	-0.355442	-0.708234
H170	H	1.419094	0.144558	-0.208234
H171	H	1.100451	-0.356291	-0.708301
H172	H	1.600451	0.143709	-0.208301
Cl173	Cl	1.719232	-0.296244	-1.134923
Cl174	Cl	2.219232	0.203756	-0.634923
