data_functionalizedCrystal
_audit_creation_method	'MofGen! by Chris Wilmer'
_symmetry_space_group_name_H-M	'P1'
_symmetry_Int_Tables_number	1
_symmetry_cell_setting	triclinic
loop_
_symmetry_equiv_pos_as_xyz
  x,y,z
_cell_length_a	18.215407
_cell_length_b	13.032721
_cell_length_c	18.215407
_cell_angle_alpha	82.830864
_cell_angle_beta	90.010236
_cell_angle_gamma	97.205008
loop_
_atom_site_label
_atom_site_type_symbol
_atom_site_fract_x
_atom_site_fract_y
_atom_site_fract_z
Zn1	Zn	1.087789	-0.416218	0.453336
Zn2	Zn	1.421122	-0.082885	0.786669
Zn3	Zn	1.754456	0.250449	1.120003
Zn4	Zn	1.072097	-0.590939	0.345894
Zn5	Zn	1.405430	-0.257606	0.679227
Zn6	Zn	1.738763	0.075727	1.012561
Zn7	Zn	0.964743	-0.416204	0.330282
Zn8	Zn	1.298077	-0.082871	0.663615
Zn9	Zn	1.631410	0.250463	0.996949
Zn10	Zn	0.949067	-0.590929	0.468918
Zn11	Zn	1.282400	-0.257596	0.802251
Zn12	Zn	1.615734	0.075738	1.135585
O13	O	1.018424	-0.503573	0.399608
O14	O	1.351757	-0.170239	0.732941
O15	O	1.685091	0.163094	1.066274
O16	O	1.188691	-0.439405	0.439096
O17	O	1.522024	-0.106072	0.772429
O18	O	1.855357	0.227262	1.105763
O19	O	1.057849	-0.567759	0.240839
O20	O	1.391183	-0.234425	0.574172
O21	O	1.724516	0.098908	0.907505
O22	O	0.994194	-0.269961	0.333551
O23	O	1.327527	0.063372	0.666884
O24	O	1.660860	0.396705	1.000217
O25	O	1.177162	-0.567772	0.360159
O26	O	1.510495	-0.234439	0.693492
O27	O	1.843828	0.098894	1.026826
O28	O	1.084595	-0.269971	0.423958
O29	O	1.417928	0.063362	0.757291
O30	O	1.751261	0.396695	1.090624
O31	O	0.978977	-0.439382	0.229369
O32	O	1.312311	-0.106048	0.562702
O33	O	1.645644	0.227285	0.896035
O34	O	0.859681	-0.439372	0.348660
O35	O	1.193014	-0.106038	0.681993
O36	O	1.526347	0.227295	1.015327
O37	O	0.967475	-0.567755	0.569835
O38	O	1.300809	-0.234421	0.903169
O39	O	1.634142	0.098912	1.236502
O40	O	0.848163	-0.567741	0.450515
O41	O	1.181496	-0.234408	0.783849
O42	O	1.514830	0.098925	1.117182
O43	O	1.069394	-0.439395	0.558387
O44	O	1.402727	-0.106062	0.891721
O45	O	1.736061	0.227271	1.225054
O46	O	1.042648	-0.737183	0.375268
O47	O	1.375982	-0.403849	0.708602
O48	O	1.709315	-0.070516	1.041935
O49	O	0.952259	-0.737175	0.465654
O50	O	1.285592	-0.403842	0.798987
O51	O	1.618926	-0.070508	1.132320
C52	C	0.827219	-0.503555	0.399585
C53	C	1.160553	-0.170221	0.732918
C54	C	1.493886	0.163112	1.066251
C55	C	0.745419	-0.503572	0.399595
C56	C	1.078752	-0.170239	0.732928
C57	C	1.412086	0.163094	1.066261
C58	C	0.551238	-0.570519	0.452581
C59	C	0.884571	-0.237186	0.785914
C60	C	1.217904	0.096147	1.119248
C61	C	0.474379	-0.570523	0.452591
C62	C	0.807712	-0.237189	0.785924
C63	C	1.141045	0.096144	1.119257
C64	C	0.486361	-0.436645	0.346652
C65	C	0.819694	-0.103311	0.679985
C66	C	1.153027	0.230022	1.013318
C67	C	0.563219	-0.436637	0.346646
C68	C	0.896552	-0.103304	0.679979
C69	C	1.229885	0.230030	1.013313
C70	C	0.595655	-0.503580	0.399610
C71	C	0.928988	-0.170247	0.732944
C72	C	1.262321	0.163086	1.066277
C73	C	0.441938	-0.503591	0.399625
C74	C	0.775271	-0.170258	0.732959
C75	C	1.108604	0.163075	1.066292
C76	C	0.358604	-0.503594	0.399635
C77	C	0.691937	-0.170261	0.732969
C78	C	1.025270	0.163072	1.066302
C79	C	0.678994	-0.503576	0.399601
C80	C	1.012327	-0.170243	0.732935
C81	C	1.345661	0.163091	1.066268
C82	C	0.994070	-0.775098	0.423862
C83	C	1.327403	-0.441765	0.757195
C84	C	1.660736	-0.108432	1.090529
C85	C	0.983718	-0.891258	0.434263
C86	C	1.317052	-0.557925	0.767596
C87	C	1.650385	-0.224592	1.100929
C88	C	1.023866	-0.943015	0.394212
C89	C	1.357199	-0.609682	0.727546
C90	C	1.690532	-0.276348	1.060879
C91	C	1.013168	-1.063072	0.404961
C92	C	1.346501	-0.729739	0.738294
C93	C	1.679835	-0.396406	1.071628
C94	C	1.210375	-0.503591	0.399631
C95	C	1.543709	-0.170258	0.732964
C96	C	1.877042	0.163075	1.066297
C97	C	1.292173	-0.503599	0.399641
C98	C	1.625507	-0.170266	0.732974
C99	C	1.958840	0.163067	1.066307
C100	C	1.018436	-0.503575	0.591561
C101	C	1.351770	-0.170242	0.924894
C102	C	1.685103	0.163091	1.258227
C103	C	1.018442	-0.503577	0.673360
C104	C	1.351775	-0.170243	1.006693
C105	C	1.685108	0.163090	1.340026
C106	C	1.042893	-0.230987	0.375274
C107	C	1.376227	0.102347	0.708608
C108	C	1.709560	0.435680	1.041941
C109	C	1.053321	-0.114827	0.364905
C110	C	1.386654	0.218507	0.698239
C111	C	1.719987	0.551840	1.031572
C112	C	1.071495	-0.436751	0.855595
C113	C	1.404828	-0.103417	1.188928
C114	C	1.738162	0.229916	1.522261
C115	C	1.071491	-0.436750	0.932453
C116	C	1.404824	-0.103417	1.265787
C117	C	1.738158	0.229916	1.599120
C118	C	0.965363	-0.570418	0.944364
C119	C	1.298696	-0.237084	1.277697
C120	C	1.632030	0.096249	1.611030
C121	C	0.965364	-0.570412	0.867506
C122	C	1.298698	-0.237079	1.200839
C123	C	1.632031	0.096255	1.534173
C124	C	1.018435	-0.503580	0.823123
C125	C	1.351768	-0.170247	1.156457
C126	C	1.685101	0.163086	1.489790
C127	C	1.018429	-0.503585	0.976840
C128	C	1.351762	-0.170252	1.310173
C129	C	1.685096	0.163081	1.643507
C130	C	1.018424	-0.503585	1.060174
C131	C	1.351758	-0.170252	1.393507
C132	C	1.685091	0.163081	1.726840
C133	C	1.018439	-0.503579	0.739784
C134	C	1.351772	-0.170245	1.073118
C135	C	1.685105	0.163088	1.406451
C136	C	1.018410	-0.503592	1.208403
C137	C	1.351743	-0.170259	1.541736
C138	C	1.685077	0.163074	1.875070
C139	C	1.018422	-0.503589	1.126604
C140	C	1.351755	-0.170255	1.459937
C141	C	1.685089	0.163078	1.793270
H142	H	0.577645	-0.625026	0.495710
H143	H	0.910978	-0.291693	0.829043
H144	H	1.244311	0.041640	1.162376
Cl145	Cl	0.418543	-0.654677	0.519187
Cl146	Cl	0.751876	-0.321343	0.852520
Cl147	Cl	1.085210	0.011990	1.185854
Cl148	Cl	0.619062	-0.352471	0.280053
Cl149	Cl	0.952396	-0.019138	0.613386
Cl150	Cl	1.285729	0.314196	0.946719
H151	H	0.459942	-0.382144	0.303529
H152	H	0.793275	-0.048810	0.636862
H153	H	1.126608	0.284523	0.970196
H154	H	1.095618	-1.070261	0.322659
H155	H	1.428952	-0.736927	0.655992
H156	H	1.762285	-0.403594	0.989325
Cl157	Cl	0.947872	-1.131874	0.470195
Cl158	Cl	1.281205	-0.798540	0.803529
Cl159	Cl	1.614538	-0.465207	1.136862
H160	H	0.941430	-0.935829	0.476512
H161	H	1.274763	-0.602496	0.809845
H162	H	1.608096	-0.269163	1.143178
H163	H	1.066160	-0.898447	0.351969
H164	H	1.399494	-0.565113	0.685302
H165	H	1.732827	-0.231780	1.018635
Cl166	Cl	1.138209	-0.352729	0.799802
Cl167	Cl	1.471542	-0.019396	1.133135
Cl168	Cl	1.804876	0.313937	1.466469
Cl169	Cl	1.138205	-0.352741	0.973272
Cl170	Cl	1.471538	-0.019408	1.306605
Cl171	Cl	1.804871	0.313926	1.639938
H172	H	0.922157	-0.624832	0.980509
H173	H	1.255490	-0.291499	1.313842
H174	H	1.588823	0.041834	1.647176
Cl175	Cl	0.898650	-0.654428	0.826681
Cl176	Cl	1.231984	-0.321094	1.160015
Cl177	Cl	1.565317	0.012239	1.493348
