data_functionalizedCrystal
_audit_creation_method	'MofGen! by Chris Wilmer'
_symmetry_space_group_name_H-M	'P1'
_symmetry_Int_Tables_number	1
_symmetry_cell_setting	triclinic
loop_
_symmetry_equiv_pos_as_xyz
  x,y,z
_cell_length_a	29.839134
_cell_length_b	29.839131
_cell_length_c	29.839125
_cell_angle_alpha	89.982291
_cell_angle_beta	90.021980
_cell_angle_gamma	89.963719
loop_
_atom_site_label
_atom_site_type_symbol
_atom_site_fract_x
_atom_site_fract_y
_atom_site_fract_z
Zn1	Zn	0.686720	0.178978	0.254125
Zn2	Zn	0.686652	0.254090	0.178995
Zn3	Zn	0.611602	0.178968	0.178995
Zn4	Zn	0.611550	0.254075	0.254083
O5	O	0.649131	0.216528	0.216549
O6	O	0.749578	0.188952	0.244176
O7	O	0.676690	0.244127	0.116128
O8	O	0.621617	0.116102	0.188978
O9	O	0.749528	0.244137	0.188979
O10	O	0.676805	0.116109	0.244176
O11	O	0.621551	0.188935	0.116127
O12	O	0.548728	0.188921	0.188938
O13	O	0.621528	0.244111	0.316956
O14	O	0.548690	0.244101	0.244105
O15	O	0.676755	0.188937	0.316987
O16	O	0.676639	0.316955	0.188938
O17	O	0.621462	0.316944	0.244105
C18	C	0.532408	0.216509	0.216517
C19	C	0.482474	0.216511	0.216514
C20	C	0.649050	0.333250	0.216527
C21	C	0.649056	0.383185	0.216533
C22	C	0.172820	0.245303	0.245240
C23	C	-0.014853	0.245315	0.245260
O24	O	-0.039127	0.269774	0.269665
N25	N	-0.038311	0.216544	0.216583
C26	C	-0.014848	0.187766	0.187902
O27	O	-0.039107	0.163291	0.163514
C28	C	0.172824	0.187751	0.187884
C29	C	0.196280	0.216527	0.216560
C30	C	0.196276	0.274076	0.273913
C31	C	0.243191	0.274075	0.273906
C32	C	0.266651	0.245299	0.245226
C33	C	0.243195	0.216526	0.216553
C34	C	0.196286	0.158971	0.159205
C35	C	0.243207	0.158969	0.159204
C36	C	0.266663	0.187745	0.187880
C37	C	0.313570	0.187749	0.187865
N38	N	0.337029	0.216520	0.216542
C39	C	0.313569	0.245295	0.245222
C40	C	-0.113379	0.187776	0.187912
C41	C	-0.160297	0.187780	0.187916
C42	C	-0.160298	0.245329	0.245275
C43	C	-0.113380	0.245327	0.245269
C44	C	-0.089921	0.216547	0.216589
C45	C	0.412095	0.245290	0.245205
C46	C	0.459014	0.245287	0.245194
C47	C	0.459012	0.187736	0.187837
C48	C	0.412096	0.187740	0.187846
C49	C	0.388639	0.216519	0.216534
O50	O	0.337873	0.163299	0.163477
O51	O	0.337836	0.269759	0.269613
C52	C	0.125905	0.245304	0.245247
C53	C	0.102449	0.216531	0.216574
C54	C	0.125909	0.187755	0.187893
C55	C	0.055531	0.216535	0.216577
C56	C	0.032071	0.245310	0.245258
C57	C	0.055529	0.274082	0.273934
C58	C	0.102445	0.274080	0.273927
C59	C	0.102451	0.158984	0.159217
C60	C	0.055535	0.158989	0.159226
C61	C	0.032075	0.187764	0.187906
C62	C	0.649143	0.216524	0.333728
C63	C	0.649148	0.216522	0.383662
C64	C	0.766309	0.216547	0.216582
C65	C	0.816244	0.216555	0.216596
C66	C	0.649225	0.099349	0.216582
C67	C	0.649265	0.049415	0.216595
C68	C	0.677914	0.692821	0.187866
C69	C	0.677969	0.880494	0.187883
O70	O	0.702441	0.904753	0.163493
N71	N	0.649224	0.903970	0.216583
C72	C	0.620465	0.880524	0.245283
O73	O	0.596020	0.904798	0.269698
C74	C	0.620412	0.692852	0.245268
C75	C	0.649156	0.669379	0.216563
C76	C	0.706656	0.669348	0.159164
C77	C	0.706640	0.622433	0.159158
C78	C	0.677882	0.598990	0.187854
C79	C	0.649140	0.622463	0.216557
C80	C	0.591656	0.669407	0.273969
C81	C	0.591646	0.622486	0.273964
C82	C	0.620390	0.599013	0.245259
C83	C	0.620367	0.552106	0.245248
N84	N	0.649112	0.528630	0.216548
C85	C	0.677869	0.552072	0.187851
C86	C	0.620494	0.979055	0.245289
C87	C	0.620507	1.025973	0.245292
C88	C	0.678012	1.025939	0.187893
C89	C	0.677996	0.979021	0.187887
C90	C	0.649239	0.955579	0.216589
C91	C	0.677834	0.453547	0.187841
C92	C	0.677814	0.406627	0.187836
C93	C	0.620311	0.406664	0.245237
C94	C	0.620329	0.453580	0.245240
C95	C	0.649094	0.477020	0.216540
O96	O	0.595912	0.527818	0.269629
O97	O	0.702318	0.527791	0.163447
C98	C	0.677930	0.739737	0.187872
C99	C	0.649188	0.763210	0.216574
C100	C	0.620430	0.739767	0.245271
C101	C	0.649200	0.810128	0.216578
C102	C	0.677958	0.833570	0.187881
C103	C	0.706703	0.810094	0.159181
C104	C	0.706687	0.763179	0.159175
C105	C	0.591685	0.763243	0.273971
C106	C	0.591703	0.810158	0.273974
C107	C	0.620461	0.833601	0.245277
C108	C	0.649145	0.216499	0.099827
C109	C	0.649227	0.216374	0.049893
C110	C	0.677935	0.187718	0.693325
C111	C	0.677957	0.187680	0.880998
O112	O	0.702399	0.163232	0.905279
N113	N	0.649208	0.216402	0.904448
C114	C	0.620449	0.245133	0.880976
O115	O	0.595993	0.269559	0.905228
C116	C	0.620424	0.245169	0.693304
C117	C	0.649179	0.216448	0.669857
C118	C	0.706687	0.158999	0.669877
C119	C	0.706683	0.159011	0.622962
C120	C	0.677927	0.187741	0.599494
C121	C	0.649175	0.216460	0.622941
C122	C	0.591663	0.273898	0.669833
C123	C	0.591659	0.273903	0.622912
C124	C	0.620414	0.245183	0.599465
C125	C	0.620415	0.245202	0.552558
N126	N	0.649164	0.216480	0.529108
C127	C	0.677920	0.187749	0.552576
C128	C	0.620464	0.245113	0.979507
C129	C	0.620471	0.245105	1.026425
C130	C	0.677979	0.187650	1.026443
C131	C	0.677974	0.187661	0.979524
C132	C	0.649214	0.216391	0.956057
C133	C	0.677910	0.187776	0.454050
C134	C	0.677904	0.187792	0.407130
C135	C	0.620395	0.245244	0.407116
C136	C	0.620401	0.245230	0.454032
C137	C	0.649161	0.216493	0.477497
O138	O	0.595982	0.269633	0.528248
O139	O	0.702366	0.163320	0.528316
C140	C	0.677939	0.187706	0.740240
C141	C	0.649187	0.216425	0.763688
C142	C	0.620431	0.245155	0.740219
C143	C	0.649194	0.216417	0.810605
C144	C	0.677950	0.187686	0.834074
C145	C	0.706699	0.158964	0.810624
C146	C	0.706695	0.158976	0.763708
C147	C	0.591682	0.273877	0.763669
C148	C	0.591689	0.273864	0.810585
C149	C	0.620445	0.245133	0.834053
H150	H	0.478110	0.268721	0.268545
H151	H	0.730047	0.603324	0.135785
H152	H	0.701258	0.472626	0.164472
H153	H	0.121547	0.135551	0.135861
H154	H	-0.094285	0.268759	0.268619
C155	C	-0.174746	0.165784	0.111881
C156	C	-0.186070	0.156152	0.156387
H157	H	-0.190654	0.146253	0.092417
H158	H	-0.182462	0.195954	0.105255
H159	H	-0.143444	0.161668	0.107787
H160	H	-0.217373	0.160270	0.160482
H161	H	-0.178358	0.125974	0.163016
C162	C	0.767126	0.152740	0.710962
C163	C	0.738295	0.127399	0.737936
H164	H	0.786634	0.133242	0.695055
H165	H	0.750002	0.169848	0.690269
H166	H	0.784300	0.172310	0.729269
H167	H	0.721119	0.107831	0.719628
H168	H	0.755421	0.110283	0.758631
H169	H	-0.094283	0.164339	0.164556
C170	C	0.201021	0.102076	0.102522
C171	C	0.170512	0.127334	0.127688
H172	H	0.185108	0.082542	0.083066
H173	H	0.219297	0.121623	0.085299
H174	H	0.219342	0.084929	0.122135
H175	H	0.152193	0.144484	0.108075
H176	H	0.152228	0.107785	0.144912
C177	C	0.295942	0.152628	0.098778
C178	C	0.268995	0.127335	0.127677
H179	H	0.311864	0.133099	0.079317
H180	H	0.277618	0.172171	0.081562
H181	H	0.316626	0.169762	0.115859
H182	H	0.248309	0.110203	0.110596
H183	H	0.287321	0.107783	0.144896
C184	C	0.359377	0.127294	0.181734
C185	C	0.386315	0.156103	0.156329
H186	H	0.343463	0.107760	0.162279
H187	H	0.377707	0.110150	0.201335
H188	H	0.338687	0.144435	0.198810
H189	H	0.407008	0.138963	0.139255
H190	H	0.367983	0.173249	0.136720
H191	H	0.568292	0.829266	0.297349
H192	H	0.478121	0.164309	0.164485
C193	C	0.782792	0.137087	0.825106
C194	C	0.738308	0.127383	0.836427
H195	H	0.802302	0.117591	0.841040
H196	H	0.786906	0.132977	0.793813
H197	H	0.789339	0.167272	0.832794
H198	H	0.731760	0.097198	0.828736
H199	H	0.734192	0.131489	0.867728
H200	H	0.121538	0.297512	0.297278
H201	H	0.701402	0.959912	0.164514
C202	C	0.703433	0.162287	0.335219
C203	C	0.709507	0.156214	0.381357
H204	H	0.722942	0.142792	0.319310
H205	H	0.673254	0.155713	0.327526
H206	H	0.709990	0.192474	0.327531
H207	H	0.702947	0.126027	0.389046
H208	H	0.739692	0.162784	0.389054
H209	H	0.730117	0.829189	0.135814
H210	H	-0.179407	0.268759	0.268628
H211	H	0.596991	0.268621	0.473123
H212	H	0.568274	0.297256	0.829671
C213	C	0.534841	0.330666	0.768373
C214	C	0.560071	0.305461	0.737877
H215	H	0.515328	0.350168	0.752451
H216	H	0.517676	0.311083	0.786667
H217	H	0.554410	0.347845	0.786678
H218	H	0.540502	0.288279	0.719574
H219	H	0.577237	0.325046	0.719575
H220	H	0.262285	0.297506	0.297258
C221	C	-0.016397	0.299630	0.299409
C222	C	0.029736	0.305710	0.305462
H223	H	-0.032321	0.319152	0.318876
H224	H	-0.024101	0.306162	0.269216
H225	H	-0.024057	0.269452	0.306037
H226	H	0.037396	0.335887	0.298831
H227	H	0.037443	0.299182	0.335662
C228	C	0.734817	0.130870	0.984266
C229	C	0.709578	0.156087	0.953754
H230	H	0.754326	0.111374	0.968357
H231	H	0.751987	0.150445	1.002565
H232	H	0.715254	0.113683	1.002566
H233	H	0.729141	0.173277	0.935456
H234	H	0.692406	0.136509	0.935448
H235	H	0.568248	0.297285	0.688916
H236	H	0.393001	0.268723	0.268566
C237	C	0.060261	0.102096	0.102533
C238	C	0.029756	0.127353	0.127704
H239	H	0.044346	0.082563	0.083078
H240	H	0.078537	0.121644	0.085309
H241	H	0.078584	0.084947	0.122143
H242	H	0.011435	0.144505	0.108093
H243	H	0.011473	0.107804	0.144929
C244	C	0.569708	0.608035	0.350015
C245	C	0.560035	0.596720	0.305514
H246	H	0.550191	0.592130	0.369491
H247	H	0.599882	0.600312	0.356616
H248	H	0.565603	0.639338	0.354119
H249	H	0.564143	0.565417	0.301409
H250	H	0.529853	0.604440	0.298911
C251	C	0.767107	0.152762	0.570207
C252	C	0.738275	0.127429	0.597186
H253	H	0.786608	0.133260	0.554297
H254	H	0.749983	0.169874	0.549517
H255	H	0.784288	0.172329	0.588511
H256	H	0.721091	0.107865	0.578881
H257	H	0.755401	0.110309	0.617878
H258	H	0.701220	0.387517	0.164459
H259	H	0.730076	0.688430	0.135795
H260	H	0.568233	0.297294	0.603808
H261	H	0.701327	0.164374	0.473150
H262	H	0.701427	1.045034	0.164527
C263	C	0.534842	0.767998	0.330700
C264	C	0.560068	0.737479	0.305513
H265	H	0.515318	0.752093	0.350170
H266	H	0.554410	0.786268	0.347909
H267	H	0.517685	0.786325	0.311101
H268	H	0.577228	0.719154	0.325111
H269	H	0.540497	0.719202	0.288302
C270	C	0.200999	0.330964	0.330601
C271	C	0.170494	0.305713	0.305440
H272	H	0.185084	0.350500	0.350061
H273	H	0.219314	0.311413	0.347820
H274	H	0.219283	0.348110	0.310986
H275	H	0.152213	0.288564	0.325055
H276	H	0.152171	0.325266	0.288220
C277	C	0.594854	0.270759	0.335182
C278	C	0.588785	0.276821	0.381314
H279	H	0.575334	0.290250	0.319253
H280	H	0.625028	0.277345	0.327504
H281	H	0.588306	0.240571	0.327502
H282	H	0.595335	0.307008	0.388994
H283	H	0.558603	0.270238	0.388994
C284	C	0.563668	1.021281	0.302030
C285	C	0.588908	1.051771	0.276843
H286	H	0.544164	1.037207	0.321512
H287	H	0.546494	1.003007	0.282435
H288	H	0.583232	1.002955	0.319230
H289	H	0.569345	1.070095	0.259640
H290	H	0.606084	1.070053	0.296440
H291	H	0.597076	0.959972	0.268661
C292	C	0.563489	0.448897	0.301979
C293	C	0.588734	0.479384	0.276792
H294	H	0.543989	0.464826	0.321462
H295	H	0.546310	0.430628	0.282383
H296	H	0.583050	0.430567	0.319177
H297	H	0.569173	0.497713	0.259591
H298	H	0.605914	0.497661	0.296390
H299	H	0.568248	0.688511	0.297342
H300	H	0.596895	0.387570	0.268600
C301	C	0.763530	0.767874	0.102443
C302	C	0.738287	0.737381	0.127625
H303	H	0.783041	0.751948	0.082967
H304	H	0.743972	0.786196	0.085241
H305	H	0.780701	0.786151	0.122045
H306	H	0.721113	0.719107	0.108023
H307	H	0.757847	0.719051	0.144828
C308	C	0.703509	0.162122	1.098377
C309	C	0.709582	0.156063	1.052245
H310	H	0.723015	0.142618	1.114307
H311	H	0.710069	0.192302	1.106062
H312	H	0.673326	0.155549	1.106049
H313	H	0.739765	0.162640	1.044572
H314	H	0.703026	0.125877	1.044558
C315	C	0.563624	0.301893	1.021682
C316	C	0.588865	0.276678	1.052195
H317	H	0.544109	0.321382	1.037591
H318	H	0.583183	0.319083	1.003387
H319	H	0.546457	0.282313	1.003379
H320	H	0.606036	0.296258	1.070496
H321	H	0.569305	0.259487	1.070497
H322	H	0.730104	0.135601	0.688980
H323	H	0.597044	0.268511	0.960404
