data_functionalizedCrystal
_audit_creation_method	'MofGen! by Chris Wilmer'
_symmetry_space_group_name_H-M	'P1'
_symmetry_Int_Tables_number	1
_symmetry_cell_setting	triclinic
loop_
_symmetry_equiv_pos_as_xyz
  x,y,z
_cell_length_a	12.759400
_cell_length_b	14.908941
_cell_length_c	14.908858
_cell_angle_alpha	83.249251
_cell_angle_beta	86.673995
_cell_angle_gamma	86.685849
loop_
_atom_site_label
_atom_site_type_symbol
_atom_site_fract_x
_atom_site_fract_y
_atom_site_fract_z
Zn1	Zn	-0.298170	-1.354280	-0.432099
Zn2	Zn	-0.483468	-1.362927	-0.280748
Zn3	Zn	-0.317386	-1.211649	-0.289471
Zn4	Zn	-0.483399	-1.202905	-0.440778
O5	O	-0.395606	-1.282940	-0.360774
O6	O	-0.314736	-1.482088	-0.404739
O7	O	-0.469507	-1.350138	-0.155242
O8	O	-0.167812	-1.230611	-0.308409
O9	O	-0.450874	-1.488441	-0.293542
O10	O	-0.153694	-1.335401	-0.413197
O11	O	-0.347488	-1.238995	-0.161651
O12	O	-0.347421	-1.083828	-0.316825
O13	O	-0.450757	-1.215707	-0.566290
O14	O	-0.469390	-1.077404	-0.427989
O15	O	-0.314670	-1.326922	-0.559913
O16	O	-0.630484	-1.341659	-0.301958
O17	O	-0.630433	-1.224091	-0.419531
C18	C	-0.410484	-1.047774	-0.374296
C19	C	-0.416873	-0.947168	-0.380102
C20	C	-0.301660	-0.764746	-0.275419
C21	C	-0.307660	-0.670218	-0.280872
C22	C	-0.434878	-0.663581	-0.396455
C23	C	-0.428878	-0.758109	-0.391002
C24	C	-0.362266	-0.808689	-0.330483
C25	C	-0.356261	-0.903219	-0.325036
C26	C	-0.483484	-0.896580	-0.440614
C27	C	-0.489484	-0.802052	-0.446066
C28	C	-0.668578	-1.282888	-0.360758
C29	C	-0.785349	-1.282946	-0.360777
C30	C	-0.840194	-1.344224	-0.299617
C31	C	-0.949913	-1.344278	-0.299642
C32	C	-0.949932	-1.221768	-0.421989
C33	C	-0.840214	-1.221719	-0.421968
C34	C	-0.785329	-1.405451	-0.238426
C35	C	-0.840174	-1.466733	-0.177260
C36	C	-0.949893	-1.466787	-0.177285
C37	C	-1.004766	-1.405559	-0.238475
C38	C	-0.121565	-1.283017	-0.360808
C39	C	-0.004785	-1.283049	-0.360823
C40	C	-0.380562	-1.269374	-0.596862
C41	C	-0.374152	-1.263593	-0.697469
C42	C	-0.380660	-0.519025	-0.347193
C43	C	-0.374265	-0.619632	-0.341388
C44	C	-0.301590	-1.197586	-0.842605
C45	C	-0.307611	-1.203014	-0.748076
C46	C	-0.434673	-1.318750	-0.741397
C47	C	-0.428651	-1.313322	-0.835925
C48	C	-0.362109	-1.252737	-0.886527
C49	C	-0.356093	-1.247305	-0.981057
C50	C	-0.483149	-1.363045	-0.974376
C51	C	-0.489171	-1.368473	-0.879847
C52	C	-0.410511	-1.296505	-0.125601
C53	C	-0.416615	-1.302462	-0.024985
H54	H	-0.302015	-0.944399	-0.275764
Cl55	Cl	-0.217913	-0.828334	-0.199349
H56	H	-0.695991	-1.405411	-0.238396
Cl57	Cl	-1.018917	-1.144799	-0.498906
H58	H	-0.489120	-0.622383	-0.445718
H59	H	-0.301911	-1.197972	-1.022256
Cl60	Cl	-0.771192	-1.543709	-0.100348
Cl61	Cl	-0.217933	-1.121429	-0.906221
Cl62	Cl	-1.142746	-1.405277	-0.238151
Cl63	Cl	-0.231524	-1.133680	-0.692864
Cl64	Cl	-0.518298	-1.394926	-0.677768
Cl65	Cl	-0.559656	-0.951826	-0.509860
H66	H	-0.795559	-1.171822	-0.471771
H67	H	-0.543345	-1.417802	-0.838634
H68	H	-0.532423	-1.407958	-1.010146
H69	H	-0.258308	-0.634443	-0.236034
H70	H	-0.543720	-0.760857	-0.495336
H71	H	-0.994544	-1.516692	-0.127487
