data_functionalizedCrystal
_audit_creation_method	'MofGen! by Chris Wilmer'
_symmetry_space_group_name_H-M	'P1'
_symmetry_Int_Tables_number	1
_symmetry_cell_setting	triclinic
loop_
_symmetry_equiv_pos_as_xyz
  x,y,z
_cell_length_a	12.376457
_cell_length_b	8.559649
_cell_length_c	8.559649
_cell_angle_alpha	110.221336
_cell_angle_beta	80.329288
_cell_angle_gamma	80.313712
loop_
_atom_site_label
_atom_site_type_symbol
_atom_site_fract_x
_atom_site_fract_y
_atom_site_fract_z
O1	O	0.093988	-2.161802	-0.089941
O2	O	0.093992	-1.686319	-0.006162
O3	O	0.093988	-1.965951	-0.285793
O4	O	0.093992	-1.882171	0.189691
O5	O	-0.094023	-1.896075	-0.215973
O6	O	-0.094019	-1.616444	0.063659
O7	O	-0.094023	-2.091927	-0.020121
Zn8	Zn	-0.123872	-1.843091	0.032855
Zn9	Zn	0.123841	-1.935155	-0.059137
O10	O	-0.094020	-1.812295	0.259511
C11	C	-0.000013	-1.591073	0.035098
C12	C	-0.000011	-1.411374	0.053996
N13	N	-0.292930	-1.780272	0.095634
C14	C	-0.000015	-1.937363	-0.311193
C15	C	-0.000009	-1.956264	-0.490894
C16	C	-0.647919	-2.143816	-0.267693
C17	C	-0.529580	-2.187774	-0.311631
C18	C	-0.470412	-2.085902	-0.209819
C19	C	-0.529594	-1.940065	-0.064060
C20	C	-0.647945	-1.896110	-0.020110
C21	C	-0.470437	-1.838196	0.037764
C22	C	-0.529620	-1.692359	0.183522
C23	C	-0.647959	-1.648410	0.227465
C24	C	-0.707127	-1.750282	0.125652
C25	C	-0.352086	-1.882151	-0.006187
C26	C	-0.352112	-1.634445	0.241396
C27	C	-0.470451	-1.590487	0.285335
N28	N	0.292898	-1.997988	-0.121930
C29	C	-0.000016	-2.187174	-0.061381
C30	C	-0.000010	-2.366876	-0.080282
C31	C	-0.000014	-1.840884	0.284910
C32	C	-0.000012	-1.821985	0.464608
H33	H	-0.303910	-2.000892	-0.124863
H34	H	-0.481398	-2.306514	-0.430305
H35	H	-0.696145	-1.529672	0.346160
H36	H	-0.000004	-1.311988	0.183421
C37	C	-0.341928	-2.133852	-0.257861
C38	C	-0.302762	-2.283345	-0.407326
C39	C	-0.184405	-2.327556	-0.451657
H40	H	-0.315004	-2.153386	-0.166987
H41	H	-0.315132	-2.042902	-0.277452
H42	H	-0.329546	-2.374275	-0.387726
H43	H	-0.329655	-2.263851	-0.498233
H44	H	-0.157610	-2.236605	-0.471248
H45	H	-0.157493	-2.347081	-0.360773
H46	H	-0.157816	-2.428981	-0.553081
H47	H	-0.000006	-1.466256	-0.209703
H48	H	-0.000019	-2.085689	-0.590279
C49	C	-0.000060	-1.649250	-0.403122
C50	C	-0.000092	-1.529150	-0.480168
C51	C	-0.000150	-1.370002	-0.358359
H52	H	0.065489	-1.660293	-0.359996
H53	H	-0.065647	-1.611700	-0.311361
H54	H	0.065488	-1.566692	-0.571898
H55	H	-0.065636	-1.518054	-0.523286
H56	H	-0.065737	-1.332452	-0.266598
H57	H	0.065400	-1.381063	-0.315240
H58	H	-0.000182	-1.288491	-0.410613
H59	H	-0.696102	-2.226754	-0.350568
H60	H	-0.518652	-1.471743	0.404015
C61	C	-0.835615	-1.702893	0.173128
C62	C	-0.874757	-1.823344	0.052782
C63	C	-0.993114	-1.779764	0.096471
H64	H	-0.862543	-1.592054	0.173511
H65	H	-0.862423	-1.702496	0.284018
H66	H	-0.847961	-1.823724	-0.058078
H67	H	-0.847860	-1.934193	0.052382
H68	H	-1.019922	-1.779366	0.207360
H69	H	-1.020031	-1.668922	0.096853
H70	H	-1.019687	-1.861490	0.014833
H71	H	-0.303938	-1.551494	0.324304
