data_functionalizedCrystal
_audit_creation_method	'MofGen! by Chris Wilmer'
_symmetry_space_group_name_H-M	'P1'
_symmetry_Int_Tables_number	1
_symmetry_cell_setting	triclinic
loop_
_symmetry_equiv_pos_as_xyz
  x,y,z
_cell_length_a	16.109302
_cell_length_b	14.044190
_cell_length_c	14.586319
_cell_angle_alpha	89.991348
_cell_angle_beta	89.994552
_cell_angle_gamma	88.326779
loop_
_atom_site_label
_atom_site_type_symbol
_atom_site_fract_x
_atom_site_fract_y
_atom_site_fract_z
O1	O	1.112198	0.121838	-0.076292
O2	O	0.871264	0.136999	-0.076287
O3	O	0.988112	-0.008565	-0.076271
O4	O	0.995351	0.267402	-0.076308
O5	O	0.988103	-0.008567	0.076209
O6	O	0.871255	0.136997	0.076194
O7	O	1.112189	0.121836	0.076188
Cu8	Cu	0.991721	0.129416	0.090114
Cu9	Cu	0.991732	0.129419	-0.090212
O10	O	0.995342	0.267400	0.076173
C11	C	0.840239	0.136384	-0.000045
C12	C	0.747807	0.134543	-0.000042
C13	C	0.535144	0.130283	0.083067
C14	C	0.448295	0.128542	0.083064
C15	C	0.448315	0.128550	-0.083179
C16	C	0.535164	0.130283	-0.083175
C17	C	0.578576	0.131155	-0.000050
C18	C	0.404878	0.127681	-0.000056
C19	C	0.310712	0.125793	-0.000060
C20	C	0.672748	0.133040	-0.000045
C21	C	0.984940	-0.043879	-0.000028
C22	C	0.975494	-0.149103	-0.000020
C23	C	1.025219	-0.399404	-0.000057
C24	C	0.958238	-0.341755	-0.000049
C25	C	0.967842	-0.234553	-0.000033
C26	C	1.015617	-0.506616	-0.000073
C27	C	1.143214	0.122451	-0.000055
C28	C	1.235646	0.124293	-0.000064
C29	C	0.998513	0.302715	-0.000072
C30	C	1.007959	0.407938	-0.000086
N31	N	0.991720	0.129414	0.216946
N32	N	0.991740	0.129414	-0.217044
C33	C	1.043480	0.064980	0.451959
C34	C	1.043482	0.064977	0.547940
C35	C	0.939973	0.193851	0.547936
C36	C	0.939967	0.193848	0.451957
C37	C	0.991726	0.129414	0.403971
C38	C	0.991734	0.129414	0.595931
C39	C	0.991736	0.129412	0.699998
C40	C	0.991723	0.129414	0.299897
H41	H	0.412937	0.127833	0.150745
H42	H	0.412959	0.127841	-0.150857
H43	H	0.897819	0.246318	0.412882
O44	O	0.582020	0.131220	-0.172824
H45	H	0.562746	0.195458	-0.212690
O46	O	0.581971	0.131225	0.172718
H47	H	0.537176	0.130321	0.230513
O48	O	0.884163	0.263361	0.599691
H49	H	0.840801	0.223458	0.643445
O50	O	0.872721	-0.383011	-0.000041
H51	H	0.878497	-0.461959	-0.000041
O52	O	1.110730	-0.358148	-0.000047
H53	H	1.118284	-0.313656	0.062114
O54	O	1.099292	-0.004524	0.400198
H55	H	1.135273	-0.049336	0.449696
O56	O	1.099314	-0.004507	0.599703
H57	H	1.135308	-0.049302	0.550207
