data_functionalizedCrystal
_audit_creation_method	'MofGen! by Chris Wilmer'
_symmetry_space_group_name_H-M	'P1'
_symmetry_Int_Tables_number	1
_symmetry_cell_setting	triclinic
loop_
_symmetry_equiv_pos_as_xyz
  x,y,z
_cell_length_a	14.044220
_cell_length_b	10.654550
_cell_length_c	9.730223
_cell_angle_alpha	90.004253
_cell_angle_beta	89.998340
_cell_angle_gamma	88.836904
loop_
_atom_site_label
_atom_site_type_symbol
_atom_site_fract_x
_atom_site_fract_y
_atom_site_fract_z
O1	O	-1.259697	-0.302986	-0.114143
O2	O	-0.983656	-0.292052	-0.114178
O3	O	-1.128023	-0.115418	-0.114151
O4	O	-1.115330	-0.479621	-0.114170
O5	O	-1.128014	-0.115411	0.114429
O6	O	-0.983646	-0.292046	0.114402
O7	O	-1.259688	-0.302980	0.114437
Zn8	Zn	-1.121665	-0.297512	0.150711
Zn9	Zn	-1.121678	-0.297520	-0.150453
O10	O	-1.115320	-0.479614	0.114410
C11	C	-0.948305	-0.287263	0.000108
C12	C	-0.842986	-0.272988	0.000095
C13	C	-1.127086	-0.068523	0.000138
C14	C	-1.124298	0.071201	0.000136
C15	C	-1.295038	-0.307769	0.000148
C16	C	-1.400358	-0.322044	0.000152
C17	C	-0.650153	-0.246889	0.000123
C18	C	-0.593185	-0.348137	0.000124
C19	C	-0.485886	-0.333615	0.000140
C20	C	-0.757462	-0.261409	0.000107
C21	C	-1.116257	-0.526509	0.000118
C22	C	-1.119045	-0.666233	0.000111
N23	N	-1.121664	-0.297506	0.356248
C24	C	-1.209299	0.142144	0.000146
C25	C	-1.206673	0.273429	0.000129
C26	C	-1.034038	0.262814	0.000097
C27	C	-1.036665	0.131532	0.000104
N28	N	-1.121687	-0.297517	-0.355989
C29	C	-1.185612	-0.219331	0.428186
C30	C	-1.185621	-0.219332	0.572069
C31	C	-1.057732	-0.375696	0.572063
C32	C	-1.057719	-0.375687	0.428183
H33	H	-0.618342	-0.149310	0.000136
H34	H	-0.624998	-0.445725	0.000112
O35	O	-1.289333	0.342154	0.000204
C36	C	-1.460840	0.338820	0.000160
C37	C	-1.367297	0.260838	0.000110
H38	H	-1.523898	0.273108	0.000056
H39	H	-1.463986	0.400532	0.095837
H40	H	-1.463883	0.400565	-0.095483
H41	H	-1.364192	0.199021	0.095689
H42	H	-1.364190	0.199207	-0.095630
H43	H	-1.280656	0.093027	0.000168
H44	H	-0.962690	0.311952	0.000074
H45	H	-0.967442	0.073767	0.000092
O46	O	-1.247754	-0.143264	0.358520
C47	C	-1.374637	0.011779	0.373718
C48	C	-1.304297	-0.074288	0.452779
H49	H	-1.420384	0.067549	0.449892
H50	H	-1.333317	0.079268	0.306411
H51	H	-1.422329	-0.047840	0.306303
H52	H	-1.256588	-0.014770	0.520269
H53	H	-1.345676	-0.141783	0.519999
O54	O	-0.995492	-0.451500	0.641886
C55	C	-0.831045	-0.506578	0.685871
C56	C	-0.901426	-0.420626	0.606739
H57	H	-0.754978	-0.481665	0.657462
H58	H	-0.841959	-0.493148	0.801080
H59	H	-0.844104	-0.608627	0.657582
H60	H	-0.888410	-0.318545	0.634913
H61	H	-0.890496	-0.434164	0.491550
H62	H	-1.005640	-0.439347	0.369607
H63	H	-1.237692	-0.155673	0.630636
