data_functionalizedCrystal
_audit_creation_method	'MofGen! by Chris Wilmer'
_symmetry_space_group_name_H-M	'P1'
_symmetry_Int_Tables_number	1
_symmetry_cell_setting	triclinic
loop_
_symmetry_equiv_pos_as_xyz
  x,y,z
_cell_length_a	15.624803
_cell_length_b	19.188940
_cell_length_c	14.750779
_cell_angle_alpha	77.400219
_cell_angle_beta	85.131014
_cell_angle_gamma	83.714626
loop_
_atom_site_label
_atom_site_type_symbol
_atom_site_fract_x
_atom_site_fract_y
_atom_site_fract_z
O1	O	1.083552	0.177733	-0.457106
O2	O	0.841717	0.172646	-0.372904
O3	O	0.969611	0.074018	-0.417427
O4	O	0.955658	0.276360	-0.412584
O5	O	1.005765	0.046140	-0.270363
O6	O	0.877871	0.144768	-0.225840
O7	O	1.119706	0.149855	-0.310042
Zn8	Zn	1.004529	0.142885	-0.244591
Zn9	Zn	0.956894	0.179615	-0.438355
O10	O	0.991812	0.248483	-0.265519
C11	C	0.828854	0.156175	-0.288600
C12	C	0.736664	0.148621	-0.256501
C13	C	0.334996	0.199739	-0.551844
C14	C	0.248372	0.192627	-0.521681
C15	C	0.287765	0.162235	-0.361350
C16	C	0.374395	0.169340	-0.391500
C17	C	0.398003	0.188093	-0.486748
C18	C	0.437401	0.157694	-0.326403
C19	C	0.524023	0.164803	-0.356551
C20	C	0.547638	0.183557	-0.451794
C21	C	0.484624	0.195201	-0.516895
C22	C	0.413790	0.138946	-0.231156
C23	C	0.476797	0.127301	-0.166059
C24	C	0.563421	0.134404	-0.196206
C25	C	0.587036	0.153159	-0.291450
C26	C	0.626434	0.122760	-0.131106
C27	C	0.713056	0.129868	-0.161253
C28	C	0.673658	0.160267	-0.321597
C29	C	0.987235	0.034037	-0.343737
C30	C	0.985875	-0.043562	-0.343264
C31	C	0.995901	-0.612687	-0.259751
C32	C	0.997171	-0.539775	-0.260188
C33	C	0.978102	-0.488115	-0.340574
C34	C	0.957740	-0.509371	-0.420522
C35	C	0.956462	-0.582281	-0.420080
N36	N	1.012697	-0.364354	-0.417394
N37	N	1.013914	-0.295093	-0.417809
C38	C	0.981949	-0.268439	-0.341910
N39	N	0.948735	-0.313665	-0.265570
N40	N	0.947522	-0.382933	-0.265154
C41	C	0.979485	-0.409054	-0.341062
C42	C	1.003681	-0.168131	-0.262439
C43	C	1.004945	-0.095217	-0.262878
C44	C	0.965522	-0.064814	-0.423217
C45	C	0.964250	-0.137727	-0.422773
C46	C	0.983334	-0.189382	-0.342383
C47	C	1.132568	0.166326	-0.394349
C48	C	1.224757	0.173881	-0.426453
C49	C	0.974188	0.288464	-0.339211
C50	C	0.975546	0.366064	-0.339690
N51	N	1.037044	0.117818	-0.112355
N52	N	0.924386	0.204677	-0.570594
C53	C	0.833575	0.274656	0.310295
C54	C	0.856366	0.257095	0.402860
C55	C	0.969639	0.169797	0.363390
C56	C	0.946855	0.187347	0.270821
C57	C	0.878823	0.239778	0.244281
C58	C	0.992103	0.152470	0.204807
C59	C	0.969323	0.170022	0.112244
C60	C	0.901296	0.222452	0.085696
C61	C	0.856043	0.257330	0.151719
C62	C	1.060138	0.100043	0.231347
C63	C	1.105386	0.065165	0.165333
C64	C	1.082603	0.082714	0.072770
C65	C	1.014576	0.135144	0.046222
C66	C	1.127855	0.047836	0.006747
C67	C	1.105076	0.065388	-0.085815
C68	C	0.991796	0.152696	-0.046341
H69	H	0.607198	0.107498	-0.053554
F70	F	0.639829	0.191126	-0.483880
F71	F	0.360127	0.219689	-0.653219
F72	F	0.780115	0.117475	-0.091970
F73	F	0.321598	0.131385	-0.199072
H74	H	1.019213	-0.210190	-0.196979
H75	H	0.947681	-0.155027	-0.487870
F76	F	1.016206	-0.667657	-0.174191
H77	H	0.936392	0.195385	-0.067947
F78	F	0.783628	0.313126	0.123475
H79	H	1.013731	-0.522469	-0.195085
F80	F	0.934798	-0.604896	-0.505166
H81	H	0.882752	0.236744	0.010324
H82	H	0.942211	-0.467304	-0.485971
H83	H	1.021519	-0.077919	-0.197779
F84	F	1.177791	0.009368	0.193586
F85	F	0.761159	0.330452	0.282051
H86	H	0.457562	0.112034	-0.088508
H87	H	0.819514	0.285502	0.456608
F88	F	1.042044	0.114000	0.391644
H89	H	1.078685	0.085757	0.306718
H90	H	0.949986	-0.022753	-0.488665
F91	F	0.262628	0.142280	-0.259983
H92	H	1.183253	0.005151	0.028367
H93	H	1.141923	0.036987	-0.139566
H94	H	0.503847	0.210470	-0.594455
F95	F	0.698789	0.180218	-0.422972
F96	F	0.181316	0.205026	-0.590974
