data_functionalizedCrystal
_audit_creation_method	'MofGen! by Chris Wilmer'
_symmetry_space_group_name_H-M	'P1'
_symmetry_Int_Tables_number	1
_symmetry_cell_setting	triclinic
loop_
_symmetry_equiv_pos_as_xyz
  x,y,z
_cell_length_a	14.971486
_cell_length_b	10.723024
_cell_length_c	13.448316
_cell_angle_alpha	89.994589
_cell_angle_beta	89.998199
_cell_angle_gamma	84.040999
loop_
_atom_site_label
_atom_site_type_symbol
_atom_site_fract_x
_atom_site_fract_y
_atom_site_fract_z
O1	O	1.187821	0.162617	-0.082575
O2	O	0.927525	0.182090	-0.082602
O3	O	1.063677	-0.009285	-0.082584
O4	O	1.051669	0.353992	-0.082593
O5	O	1.063660	-0.009297	0.082800
O6	O	0.927508	0.182078	0.082782
O7	O	1.187803	0.162605	0.082809
Cu8	Cu	1.057654	0.172341	0.097896
Cu9	Cu	1.057674	0.172355	-0.097689
O10	O	1.051651	0.353981	0.082791
C11	C	0.894187	0.181213	0.000087
C12	C	0.794876	0.178604	0.000077
C13	C	0.738254	0.291032	0.000075
C14	C	0.644941	0.288572	0.000090
C15	C	0.608252	0.173683	0.000099
C16	C	0.664881	0.061246	0.000104
C17	C	0.758192	0.063707	0.000096
C18	C	0.470391	0.056125	0.000117
C19	C	0.377074	0.053663	0.000123
C20	C	0.357141	0.280990	0.000112
C21	C	0.450452	0.283451	0.000104
C22	C	0.507074	0.171013	0.000106
C23	C	1.062794	-0.055782	0.000107
C24	C	1.060180	-0.194309	0.000103
C25	C	1.136363	-0.270088	0.000109
C26	C	1.133663	-0.413263	0.000106
C27	C	1.221141	0.163482	0.000118
C28	C	1.320452	0.166091	0.000122
C29	C	1.052534	0.400477	0.000098
C30	C	1.055148	0.539004	0.000096
N31	N	1.057646	0.172330	0.235461
N32	N	1.057689	0.172355	-0.235253
C33	C	1.117953	0.087624	0.287509
C34	C	1.117959	0.087623	0.391612
C35	C	1.057661	0.172335	0.443665
C36	C	0.997347	0.257045	0.391610
C37	C	0.997338	0.257039	0.287509
C38	C	0.997372	0.257054	0.608590
C39	C	0.997382	0.257062	0.712698
C40	C	1.117993	0.087637	0.712694
C41	C	1.117984	0.087631	0.608592
C42	C	1.057671	0.172343	0.556544
H43	H	0.768119	0.384588	0.000067
C44	C	1.184310	-0.005549	0.551328
C45	C	1.148769	-0.101058	0.479774
C46	C	1.215094	-0.194241	0.422508
C47	C	1.316961	-0.191914	0.436798
C48	C	1.352508	-0.096402	0.508355
C49	C	1.286182	-0.003219	0.565621
H50	H	1.073356	-0.102783	0.469193
H51	H	1.188780	-0.264946	0.369536
H52	H	1.366059	-0.260894	0.394406
H53	H	1.427920	-0.094676	0.518936
H54	H	1.312497	0.067486	0.618593
H55	H	1.167101	0.018662	0.755077
H56	H	0.311034	0.372540	0.000114
C57	C	0.931047	0.350239	0.769954
C58	C	0.864700	0.443403	0.712700
C59	C	0.798363	0.536582	0.769953
C60	C	0.798372	0.536597	0.884461
C61	C	0.864722	0.443430	0.941721
C62	C	0.931059	0.350251	0.884468
H63	H	0.864691	0.443395	0.627929
H64	H	0.749247	0.605551	0.727565
H65	H	0.749265	0.605574	0.926843
H66	H	0.864731	0.443437	1.026492
H67	H	0.980175	0.281282	0.926857
C68	C	1.184283	-0.005564	0.230256
C69	C	1.250615	-0.098744	0.287514
C70	C	1.316945	-0.191937	0.230264
C71	C	1.316943	-0.191950	0.115757
C72	C	1.250608	-0.098767	0.058493
C73	C	1.184278	-0.005573	0.115742
H74	H	1.250619	-0.098737	0.372285
H75	H	1.366051	-0.260918	0.272656
H76	H	1.366045	-0.260938	0.073378
H77	H	1.250604	-0.098773	-0.026278
H78	H	1.135173	0.063407	0.073351
C79	C	0.967032	-0.373049	0.000088
C80	C	0.899539	-0.378642	-0.085798
C81	C	0.811423	-0.290684	-0.085806
C82	C	0.790799	-0.197134	0.000074
C83	C	0.858293	-0.191537	0.085967
C84	C	0.946409	-0.279495	0.085974
H85	H	0.914805	-0.447896	-0.149377
H86	H	0.761460	-0.294827	-0.149390
H87	H	0.725570	-0.132022	0.000068
H88	H	0.843027	-0.122283	0.149546
H89	H	0.996372	-0.275352	0.149558
H90	H	0.598843	0.380122	0.000088
H91	H	0.480320	0.377003	0.000087
H92	H	0.347205	-0.039889	0.000132
H93	H	1.167065	0.018648	0.433989
H94	H	0.516492	-0.035434	0.000121
H95	H	0.992957	-0.235428	0.000090
H96	H	0.635002	-0.032298	0.000125
H97	H	0.948256	0.326031	0.566216
H98	H	1.198882	-0.478377	0.000115
H99	H	0.804293	-0.027843	0.000096
H100	H	1.203586	-0.228968	0.000122
H101	H	0.948247	0.326015	0.433998
H102	H	0.948229	0.326014	0.245132
