data_functionalizedCrystal
_audit_creation_method	'MofGen! by Chris Wilmer'
_symmetry_space_group_name_H-M	'P1'
_symmetry_Int_Tables_number	1
_symmetry_cell_setting	triclinic
loop_
_symmetry_equiv_pos_as_xyz
  x,y,z
_cell_length_a	8.559649
_cell_length_b	10.654550
_cell_length_c	9.730223
_cell_angle_alpha	90.000193
_cell_angle_beta	90.000348
_cell_angle_gamma	102.868216
loop_
_atom_site_label
_atom_site_type_symbol
_atom_site_fract_x
_atom_site_fract_y
_atom_site_fract_z
O1	O	2.119647	0.042562	-0.114268
O2	O	1.655161	-0.022224	-0.114274
O3	O	1.898084	0.194011	-0.114266
O4	O	1.876725	-0.173674	-0.114276
O5	O	1.898081	0.194006	0.114314
O6	O	1.655158	-0.022230	0.114306
O7	O	2.119644	0.042557	0.114312
Zn8	Zn	1.887401	0.010163	0.150601
Zn9	Zn	1.887405	0.010170	-0.150563
O10	O	1.876722	-0.173679	0.114304
C11	C	1.595684	-0.027137	0.000015
C12	C	1.418466	-0.041751	0.000013
C13	C	1.896514	0.240645	0.000023
C14	C	1.891822	0.379603	0.000018
N15	N	1.887410	0.010160	0.356138
C16	C	2.179121	0.047469	0.000020
C17	C	2.356339	0.062084	0.000014
C18	C	1.878292	-0.220312	0.000013
C19	C	1.882984	-0.359271	0.000008
C20	C	2.034851	0.473864	0.000024
C21	C	2.030432	0.604428	0.000014
C22	C	1.739944	0.546458	-0.000002
C23	C	1.744364	0.415896	-0.000002
C24	C	2.202562	0.507333	0.000039
C25	C	2.198144	0.637898	0.000030
N26	N	1.887408	0.010184	-0.356099
C27	C	1.995004	0.105883	0.428067
C28	C	1.995000	0.105898	0.571950
C29	C	1.779803	-0.085545	0.571961
C30	C	1.779800	-0.085553	0.428081
C31	C	2.119251	0.216409	0.428062
C32	C	2.119247	0.216423	0.571945
H33	H	1.438727	0.162162	0.000010
O34	O	2.273275	0.695607	0.114202
C35	C	2.249738	0.812611	0.322301
C36	C	2.164485	0.747337	0.193043
H37	H	2.161810	0.854429	0.386094
H38	H	2.355011	0.893160	0.290518
H39	H	2.295494	0.738475	0.386032
H40	H	2.118628	0.821377	0.129253
H41	H	2.059289	0.666765	0.224920
H42	H	1.336069	-0.141836	0.000002
O43	O	2.257626	0.194244	0.375039
C44	C	2.517558	0.152413	0.422793
C45	C	2.360949	0.177534	0.483026
H46	H	2.601124	0.138869	0.510071
H47	H	2.578170	0.237914	0.356894
H48	H	2.489264	0.061759	0.356805
H49	H	2.389105	0.268147	0.549076
H50	H	2.300381	0.091963	0.548846
O51	O	2.266373	0.471402	0.117731
C52	C	2.475688	0.383840	0.219554
C53	C	2.403621	0.424378	0.086100
H54	H	2.586684	0.345837	0.194030
H55	H	2.383421	0.305157	0.272764
H56	H	2.510369	0.470611	0.290687
H57	H	2.368945	0.337688	0.014865
H58	H	2.495934	0.503103	0.033000
H59	H	1.627896	0.339151	-0.000026
H60	H	1.619888	0.576024	-0.000019
O61	O	2.280789	0.480589	-0.114174
C62	C	2.419070	0.563073	-0.322183
C63	C	2.330485	0.593532	-0.192916
H64	H	2.459303	0.654373	-0.385868
H65	H	2.335279	0.486935	-0.386067
H66	H	2.528314	0.525366	-0.290256
H67	H	2.221243	0.631291	-0.224720
H68	H	2.414384	0.669623	-0.129064
O69	O	2.258339	0.698611	-0.117781
C70	C	2.207472	0.818127	-0.316759
C71	C	2.139095	0.749389	-0.183394
H72	H	2.111106	0.859223	-0.369830
H73	H	2.247665	0.746488	-0.388092
H74	H	2.314321	0.899642	-0.291029
H75	H	2.032199	0.667879	-0.208996
H76	H	2.099012	0.821110	-0.112100
O77	O	1.675214	-0.178657	0.358420
C78	C	1.461681	-0.368482	0.373620
C79	C	1.580072	-0.263133	0.452681
H80	H	1.384705	-0.436792	0.449796
H81	H	1.531181	-0.424649	0.306299
H82	H	1.381433	-0.321932	0.306220
H83	H	1.660348	-0.309577	0.520156
H84	H	1.510472	-0.206976	0.519916
O85	O	2.086644	0.328250	0.381693
C86	C	2.027445	0.532113	0.441761
C87	C	2.064321	0.405504	0.494461
H88	H	2.009420	0.594620	0.532907
H89	H	1.913835	0.509815	0.376724
H90	H	2.131906	0.585675	0.376620
H91	H	1.959960	0.351879	0.559658
H92	H	2.177986	0.427889	0.559424
O93	O	2.072741	0.320342	0.625234
C94	C	1.882382	0.396403	0.767144
C95	C	1.934849	0.278605	0.706869
H96	H	1.770910	0.362701	0.833182
H97	H	1.854282	0.459353	0.679930
H98	H	1.983200	0.454371	0.833021
H99	H	1.834097	0.220538	0.641007
H100	H	1.963002	0.215750	0.794148
H101	H	1.692189	-0.163471	0.630553
H102	H	2.241903	0.207575	0.610997
