data_functionalizedCrystal
_audit_creation_method	'MofGen! by Chris Wilmer'
_symmetry_space_group_name_H-M	'P1'
_symmetry_Int_Tables_number	1
_symmetry_cell_setting	triclinic
loop_
_symmetry_equiv_pos_as_xyz
  x,y,z
_cell_length_a	12.970454
_cell_length_b	17.917603
_cell_length_c	12.970454
_cell_angle_alpha	90.001405
_cell_angle_beta	59.999320
_cell_angle_gamma	63.035632
loop_
_atom_site_label
_atom_site_type_symbol
_atom_site_fract_x
_atom_site_fract_y
_atom_site_fract_z
Zr1	Zr	1.116711	-0.093880	0.999118
O2	O	1.317443	-0.208089	0.841667
O3	O	0.906023	-0.058869	1.047385
O4	O	1.102351	-0.208090	1.056758
O5	O	1.135915	0.058841	0.824901
O6	O	1.102350	-0.208092	1.226425
O7	O	1.121115	-0.058867	0.832294
O8	O	0.751154	0.058838	1.209659
O9	O	1.487110	-0.208089	0.841667
O10	O	0.996369	-0.043938	1.194592
O11	O	1.007415	0.043907	1.062453
O12	O	1.238566	-0.131782	1.073488
O13	O	1.249612	-0.043937	0.941350
Zr14	Zr	1.140314	0.093848	1.257927
Zr15	Zr	1.116710	-0.093883	1.269718
Zr16	Zr	1.140316	0.093851	0.987327
Zr17	Zr	1.387311	-0.093881	0.999118
Zr18	Zr	0.869715	0.093849	1.257927
O19	O	1.351003	0.058836	1.209660
O20	O	1.317440	-0.208093	1.226425
O21	O	1.351006	0.058840	0.824901
O22	O	0.939583	0.208057	1.415378
O23	O	0.906020	-0.058873	1.432144
O24	O	0.939585	0.208061	1.030619
O25	O	1.121111	-0.058873	1.432144
O26	O	1.154675	0.208058	1.200287
O27	O	1.154676	0.208060	1.030619
O28	O	1.135911	0.058835	1.424751
O29	O	1.487109	-0.208092	1.056758
O30	O	0.769917	0.208060	1.200287
O31	O	0.769916	0.208057	1.415378
O32	O	0.751153	0.058836	1.424750
O33	O	1.505873	-0.058868	0.832294
O34	O	1.505871	-0.058871	1.047385
O35	O	1.018460	0.131750	1.183557
O36	O	1.007413	0.043904	1.315695
O37	O	1.249611	-0.043939	1.194592
O38	O	1.260657	0.043906	1.062453
C39	C	0.790034	-0.000015	1.128522
C40	C	0.675157	-0.000014	1.128522
C41	C	1.098987	-0.234839	1.143272
C42	C	1.088966	-0.314536	1.148277
C43	C	1.070662	-0.460468	1.157447
C44	C	1.186358	-0.539567	1.099601
C45	C	1.176173	-0.620769	1.104703
C46	C	1.080844	-0.379257	1.152346
C47	C	1.466992	-0.000017	1.128523
C48	C	1.581869	-0.000018	1.128523
C49	C	1.128515	-0.000012	0.790043
C50	C	1.128516	-0.000011	0.675166
C51	C	1.158039	0.234807	1.113773
C52	C	1.168060	0.314503	1.108767
C53	C	1.128511	-0.000020	1.467002
C54	C	1.128510	-0.000021	1.581879
C55	C	0.790032	-0.000019	1.467002
C56	C	0.675154	-0.000019	1.581879
C57	C	0.819560	0.234808	1.113773
C58	C	0.714704	0.314505	1.108767
C59	C	0.819557	0.234804	1.452253
C60	C	0.714701	0.314500	1.562124
C61	C	1.437468	-0.234836	0.804792
C62	C	1.542325	-0.314532	0.694921
C63	C	1.466994	-0.000014	0.790043
C64	C	1.581872	-0.000013	0.675166
C65	C	1.437466	-0.234840	1.143272
C66	C	1.542322	-0.314537	1.148277
C67	C	0.671229	0.397793	1.169631
C68	C	0.572721	0.472684	1.164922
C69	C	0.517684	0.464285	1.099357
C70	C	0.561169	0.380989	1.038486
C71	C	0.659681	0.306100	1.043188
C72	C	0.659693	0.306072	1.682707
C73	C	0.561183	0.380947	1.785953
C74	C	0.517676	0.464251	1.768614
C75	C	0.572694	0.472677	1.648018
C76	C	0.671209	0.397803	1.544775
C77	C	1.597346	-0.306104	0.574338
C78	C	1.695889	-0.380979	0.471092
C79	C	1.739403	-0.464283	0.488431
C80	C	1.684377	-0.472709	0.609027
C81	C	1.585843	-0.397835	0.712270
C82	C	1.597329	-0.306111	1.213854
C83	C	1.695839	-0.380987	1.218582
C84	C	1.739347	-0.464290	1.157725
C85	C	1.684330	-0.472715	1.092146
C86	C	1.585815	-0.397839	1.087426
H87	H	1.293057	-0.546302	1.046242
Cl88	Cl	1.863203	-0.558412	1.163665
H89	H	1.541038	-0.404712	1.034021
H90	H	1.819636	-0.525243	0.404353
Cl91	Cl	0.393836	0.558442	1.093460
H92	H	1.740625	-0.374111	1.271981
Cl93	Cl	1.516675	-0.408446	0.863857
H94	H	0.715984	0.404677	1.446594
Cl95	Cl	0.518070	0.577388	1.241458
Cl96	Cl	1.739055	-0.577445	1.015632
Cl97	Cl	1.739089	-0.577441	0.630804
H98	H	0.516396	0.374070	1.884138
Cl99	Cl	1.542652	-0.201397	1.290373
H100	H	0.963971	-0.453734	1.210797
H101	H	1.740675	-0.374101	0.372908
Cl102	Cl	0.714315	0.201398	0.966673
Cl103	Cl	0.393822	0.558372	1.898420
H104	H	0.716030	0.404648	1.223021
Cl105	Cl	0.714377	0.201357	1.704537
H106	H	0.537255	0.540513	1.633918
H107	H	0.516343	0.374164	0.985103
H108	H	1.561923	-0.238281	0.560196
