data_functionalizedCrystal
_audit_creation_method	'MofGen! by Chris Wilmer'
_symmetry_space_group_name_H-M	'P1'
_symmetry_Int_Tables_number	1
_symmetry_cell_setting	triclinic
loop_
_symmetry_equiv_pos_as_xyz
  x,y,z
_cell_length_a	12.837943
_cell_length_b	15.995350
_cell_length_c	11.295483
_cell_angle_alpha	94.097343
_cell_angle_beta	85.461227
_cell_angle_gamma	89.160657
loop_
_atom_site_label
_atom_site_type_symbol
_atom_site_fract_x
_atom_site_fract_y
_atom_site_fract_z
O1	O	1.382434	0.212589	-0.098992
O2	O	1.882434	0.712589	0.401008
O3	O	1.080629	0.201836	-0.099000
O4	O	1.580629	0.701836	0.401000
O5	O	1.239781	0.085983	-0.098995
O6	O	1.739781	0.585983	0.401005
O7	O	1.223282	0.328442	-0.098997
O8	O	1.723282	0.828442	0.401003
O9	O	1.225803	0.096142	0.099056
O10	O	1.725803	0.596142	0.599056
O11	O	1.066650	0.211995	0.099051
O12	O	1.566650	0.711995	0.599051
O13	O	1.368455	0.222747	0.099058
O14	O	1.868455	0.722747	0.599058
Cu15	Cu	1.216276	0.218299	0.117138
Cu16	Cu	1.716276	0.718299	0.617138
Cu17	Cu	1.232808	0.206285	-0.117080
Cu18	Cu	1.732808	0.706285	0.382920
O19	O	1.209303	0.338600	0.099053
O20	O	1.709303	0.838600	0.599053
C21	C	1.035019	0.203283	0.000024
C22	C	1.535019	0.703283	0.500024
C23	C	0.919942	0.192449	0.000021
C24	C	1.419942	0.692449	0.500021
C25	C	0.678983	0.322688	0.000037
C26	C	1.178983	0.822688	0.500037
C27	C	0.570857	0.312513	0.000035
C28	C	1.070857	0.812513	0.500035
C29	C	0.595562	0.161925	0.000024
C30	C	1.095562	0.661925	0.500024
C31	C	0.703688	0.172100	0.000026
C32	C	1.203688	0.672100	0.500026
C33	C	0.745394	0.252484	0.000031
C34	C	1.245394	0.752484	0.500031
C35	C	0.853523	0.262658	0.000024
C36	C	1.353523	0.762658	0.500024
C37	C	0.878225	0.112072	0.000021
C38	C	1.378225	0.612072	0.500021
C39	C	0.770100	0.101896	0.000019
C40	C	1.270100	0.601896	0.500019
C41	C	1.232110	0.059813	0.000028
C42	C	1.732110	0.559813	0.500028
C43	C	1.230066	-0.033301	0.000021
C44	C	1.730066	0.466699	0.500021
C45	C	1.222721	-0.371634	0.000025
C46	C	1.722721	0.128366	0.500025
C47	C	1.109407	-0.333266	-0.000422
C48	C	1.609407	0.166734	0.499578
C49	C	1.111421	-0.236390	0.000025
C50	C	1.611421	0.263610	0.500025
C51	C	1.226364	-0.203783	0.000023
C52	C	1.726364	0.296217	0.500023
C53	C	1.274288	-0.234599	0.113118
C54	C	1.774288	0.265401	0.613118
C55	C	1.271434	-0.331457	0.113213
C56	C	1.771434	0.168543	0.613213
C57	C	1.289672	-0.343180	-0.112007
C58	C	1.789672	0.156820	0.387993
C59	C	1.289750	-0.246314	-0.113502
C60	C	1.789750	0.253686	0.386498
C61	C	1.228429	-0.108920	0.000025
C62	C	1.728429	0.391080	0.500025
C63	C	1.220659	-0.466496	0.000031
C64	C	1.720659	0.033504	0.500031
C65	C	1.414065	0.221301	0.000031
C66	C	1.914065	0.721301	0.500031
C67	C	1.529143	0.232134	0.000027
C68	C	2.029143	0.732134	0.500027
C69	C	1.216974	0.364770	0.000027
C70	C	1.716974	0.864770	0.500027
C71	C	1.219019	0.457884	0.000026
C72	C	1.719019	0.957884	0.500026
N73	N	1.204657	0.226748	0.281874
N74	N	1.704657	0.726748	0.781874
N75	N	1.244436	0.197830	-0.281816
N76	N	1.744436	0.697830	0.218184
C77	C	1.328081	0.136958	0.531167
C78	C	1.828081	0.636958	1.031167
C79	C	1.319308	0.143350	0.655831
C80	C	1.819308	0.643350	1.155831
C81	C	1.178331	0.245919	0.655866
C82	C	1.678331	0.745919	1.155866
C83	C	1.187105	0.239527	0.531203
C84	C	1.687105	0.739527	1.031203
C85	C	1.261983	0.185046	0.468858
C86	C	1.761983	0.685046	0.968858
C87	C	1.270762	0.178659	0.344192
C88	C	1.770762	0.678659	0.844192
C89	C	1.129781	0.281223	0.344230
C90	C	1.629781	0.781223	0.844230
C91	C	1.121007	0.287615	0.468893
C92	C	1.621007	0.787615	0.968893
H93	H	0.712940	0.388139	0.000039
H94	H	1.212940	0.888139	0.500039
H95	H	0.561579	0.096485	0.000118
H96	H	1.061579	0.596485	0.500118
C97	C	1.057082	0.334132	0.275687
C98	C	1.557082	0.834132	0.775687
H99	H	1.073029	0.322524	0.192512
H100	H	1.573029	0.822524	0.692512
H101	H	1.066912	0.391961	0.296128
H102	H	1.566912	0.891961	0.796128
H103	H	0.986453	0.320541	0.296123
H104	H	1.486453	0.820541	0.796123
C105	C	0.899404	0.351073	0.000029
C106	C	1.399404	0.851073	0.500029
H107	H	0.973313	0.347081	0.000018
H108	H	1.473313	0.847081	0.500018
H109	H	0.871735	0.383882	0.069096
H110	H	1.371735	0.883882	0.569096
H111	H	0.881481	0.376801	-0.069041
H112	H	1.381481	0.876801	0.430959
C113	C	0.497809	0.389736	0.000032
C114	C	0.997809	0.889736	0.500032
H115	H	0.538138	0.439063	0.000025
H116	H	1.038138	0.939063	0.500025
H117	H	0.450237	0.392440	0.069092
H118	H	0.950237	0.892440	0.569092
H119	H	0.459995	0.385354	-0.069045
H120	H	0.959995	0.885354	0.430955
C121	C	1.387961	-0.206120	0.118812
C122	C	1.887961	0.293880	0.618812
H123	H	1.407248	-0.175105	0.052109
H124	H	1.907248	0.324895	0.552109
H125	H	1.432983	-0.253874	0.117764
H126	H	1.932983	0.246126	0.617764
H127	H	1.393775	-0.171793	0.190072
H128	H	1.893775	0.328207	0.690072
H129	H	1.373295	-0.368312	-0.112769
H130	H	1.873295	0.131688	0.387231
H131	H	0.736126	0.036451	0.000029
H132	H	1.236126	0.536451	0.500029
H133	H	1.373130	0.104191	0.706560
H134	H	1.873130	0.604191	1.206560
C135	C	1.213812	-0.194622	0.226822
C136	C	1.713812	0.305378	0.726822
H137	H	1.243404	-0.213656	0.294788
H138	H	1.743404	0.286344	0.794788
H139	H	1.142649	-0.210213	0.227838
H140	H	1.642649	0.289787	0.727838
H141	H	1.218086	-0.135330	0.227993
H142	H	1.718086	0.364670	0.727993
H143	H	1.060039	0.331970	0.519669
H144	H	1.560039	0.831970	1.019669
C145	C	1.410445	0.077036	0.462584
C146	C	1.910445	0.577036	0.962584
H147	H	1.448553	0.049310	0.517549
H148	H	1.948553	0.549310	1.017549
H149	H	1.457013	0.108126	0.413941
H150	H	1.957013	0.608126	0.913941
H151	H	1.376574	0.036692	0.413964
H152	H	1.876574	0.536692	0.913964
C153	C	0.951280	0.034844	0.000013
C154	C	1.451280	0.534844	0.500013
H155	H	1.021650	0.052415	0.000019
H156	H	1.521650	0.552415	0.500019
H157	H	0.943505	-0.001298	-0.069054
H158	H	1.443505	0.498702	0.430946
H159	H	0.933765	0.005781	0.069084
H160	H	1.433765	0.505781	0.569084
H161	H	1.073197	-0.215632	-0.081047
H162	H	1.573197	0.284368	0.418953
H163	H	1.224700	-0.348675	0.197755
H164	H	1.724700	0.151325	0.697755
H165	H	1.069828	-0.359572	-0.081525
H166	H	1.569828	0.140428	0.418475
C167	C	1.040776	-0.359009	0.108516
C168	C	1.540776	0.140991	0.608516
H169	H	0.972448	-0.335573	0.107556
H170	H	1.472448	0.164427	0.607556
H171	H	1.070375	-0.338961	0.179348
H172	H	1.570375	0.161039	0.679348
H173	H	1.037151	-0.418385	0.105836
H174	H	1.537151	0.081615	0.605836
C175	C	1.043927	-0.197882	0.109737
C176	C	1.543927	0.302118	0.609737
H177	H	1.015177	-0.241454	0.154213
H178	H	1.515177	0.258546	0.654213
H179	H	0.988977	-0.164730	0.084525
H180	H	1.488977	0.335270	0.584525
H181	H	1.086001	-0.163716	0.158178
H182	H	1.586001	0.336284	0.658178
H183	H	1.117360	0.290270	0.706644
H184	H	1.617360	0.790270	1.206644
H185	H	1.354288	-0.356802	0.118343
H186	H	1.854288	0.143198	0.618343
H187	H	1.258664	-0.371073	-0.197727
H188	H	1.758664	0.128927	0.302273
H189	H	1.374054	-0.224614	-0.120332
H190	H	1.874054	0.275386	0.379668
C191	C	1.242605	-0.219623	-0.226536
C192	C	1.742605	0.280377	0.273464
H193	H	1.281287	-0.245555	-0.294907
H194	H	1.781287	0.254445	0.205093
H195	H	1.245542	-0.160434	-0.228613
H196	H	1.745542	0.339566	0.271387
H197	H	1.171901	-0.236423	-0.225830
H198	H	1.671901	0.263577	0.274170
C199	C	1.353120	0.118730	0.275614
C200	C	1.853120	0.618730	0.775614
H201	H	1.391220	0.091000	0.330582
H202	H	1.891220	0.591000	0.830582
H203	H	1.399696	0.149812	0.226971
H204	H	1.899696	0.649812	0.726971
H205	H	1.319243	0.078388	0.226994
H206	H	1.819243	0.578388	0.726994
