data_functionalizedCrystal
_audit_creation_method	'MofGen! by Chris Wilmer'
_symmetry_space_group_name_H-M	'P1'
_symmetry_Int_Tables_number	1
_symmetry_cell_setting	triclinic
loop_
_symmetry_equiv_pos_as_xyz
  x,y,z
_cell_length_a	29.839131
_cell_length_b	25.639242
_cell_length_c	25.639233
_cell_angle_alpha	90.022166
_cell_angle_beta	89.980415
_cell_angle_gamma	89.963053
loop_
_atom_site_label
_atom_site_type_symbol
_atom_site_fract_x
_atom_site_fract_y
_atom_site_fract_z
Zn1	Zn	-0.178962	-0.799215	-0.295739
Zn2	Zn	0.321038	-0.299215	0.204261
Zn3	Zn	-0.254076	-0.799134	-0.208302
Zn4	Zn	0.245924	-0.299134	0.291698
Zn5	Zn	-0.178955	-0.711791	-0.208303
Zn6	Zn	0.321045	-0.211791	0.291697
Zn7	Zn	-0.254059	-0.711732	-0.295692
Zn8	Zn	0.245941	-0.211732	0.204308
O9	O	-0.216513	-0.755468	-0.252009
O10	O	0.283487	-0.255468	0.247991
O11	O	-0.188935	-0.872370	-0.284160
O12	O	0.311065	-0.372370	0.215840
O13	O	-0.244115	-0.787539	-0.135137
O14	O	0.255885	-0.287539	0.364863
O15	O	-0.116089	-0.723447	-0.219922
O16	O	0.383911	-0.223447	0.280078
O17	O	-0.244122	-0.872310	-0.219920
O18	O	0.255878	-0.372310	0.280080
O19	O	-0.116094	-0.787677	-0.284161
O20	O	0.383906	-0.287677	0.215839
O21	O	-0.188924	-0.723369	-0.135138
O22	O	0.311076	-0.223369	0.364862
O23	O	-0.188908	-0.638618	-0.219876
O24	O	0.311092	-0.138618	0.280124
O25	O	-0.244093	-0.723346	-0.368864
O26	O	0.255907	-0.223346	0.131136
O27	O	-0.244087	-0.638575	-0.284081
O28	O	0.255913	-0.138575	0.215919
O29	O	-0.188919	-0.787619	-0.368898
O30	O	0.311081	-0.287619	0.131102
O31	O	-0.316941	-0.787482	-0.219875
O32	O	0.183059	-0.287482	0.280125
O33	O	-0.316929	-0.723268	-0.284080
O34	O	0.183071	-0.223268	0.215920
C35	C	-0.333236	-0.755374	-0.251983
C36	C	0.166764	-0.255374	0.248017
C37	C	-0.383170	-0.755381	-0.251990
C38	C	0.116830	-0.255381	0.248010
C39	C	-0.216495	-0.619626	-0.251974
C40	C	0.283505	-0.119626	0.248026
C41	C	-0.216499	-0.561512	-0.251971
C42	C	0.283501	-0.061512	0.248029
C43	C	-0.216505	-0.755485	-0.388382
C44	C	0.283495	-0.255485	0.111618
C45	C	-0.216502	-0.755492	-0.446496
C46	C	0.283498	-0.255492	0.053504
C47	C	-0.692807	-0.788965	-0.218627
C48	C	-0.192807	-0.288965	0.281373
C49	C	-0.880480	-0.789030	-0.218647
C50	C	-0.380480	-0.289030	0.281353
O51	O	-0.904740	-0.817509	-0.190260
O52	O	-0.404740	-0.317509	0.309740
N53	N	-0.903955	-0.755577	-0.252049
N54	N	-0.403955	-0.255577	0.247951
C55	C	-0.880509	-0.722108	-0.285450
C56	C	-0.380509	-0.222108	0.214550
O57	O	-0.904782	-0.693659	-0.313865
O58	O	-0.404782	-0.193659	0.186135
C59	C	-0.692837	-0.722046	-0.285432
C60	C	-0.192837	-0.222046	0.214568
C61	C	-0.669364	-0.755498	-0.252024
C62	C	-0.169364	-0.255498	0.247976
C63	C	-0.669335	-0.822415	-0.185222
C64	C	-0.169335	-0.322415	0.314778
C65	C	-0.622419	-0.822396	-0.185215
C66	C	-0.122419	-0.322396	0.314785
C67	C	-0.598976	-0.788928	-0.218613
C68	C	-0.098976	-0.288928	0.281387
C69	C	-0.622449	-0.755479	-0.252018
C70	C	-0.122449	-0.255479	0.247982
C71	C	-0.669391	-0.688580	-0.318836
C72	C	-0.169391	-0.188580	0.181164
C73	C	-0.622470	-0.688568	-0.318829
C74	C	-0.122470	-0.188568	0.181171
C75	C	-0.598998	-0.722020	-0.285422
C76	C	-0.098998	-0.222020	0.214578
C77	C	-0.552090	-0.721993	-0.285409
C78	C	-0.052090	-0.221993	0.214591
N79	N	-0.528615	-0.755446	-0.252007
N80	N	-0.028615	-0.255446	0.247993
C81	C	-0.552058	-0.788914	-0.218609
C82	C	-0.052058	-0.288914	0.281391
C83	C	-0.979039	-0.722141	-0.285457
C84	C	-0.479039	-0.222141	0.214543
C85	C	-1.025957	-0.722156	-0.285461
C86	C	-0.525957	-0.222156	0.214539
C87	C	-1.025925	-0.789079	-0.218658
C88	C	-0.525925	-0.289079	0.281342
C89	C	-0.979007	-0.789062	-0.218652
C90	C	-0.479007	-0.289062	0.281348
C91	C	-0.955565	-0.755595	-0.252055
C92	C	-0.455565	-0.255595	0.247945
C93	C	-0.453533	-0.788872	-0.218597
C94	C	0.046467	-0.288872	0.281403
C95	C	-0.406613	-0.788849	-0.218592
C96	C	0.093387	-0.288849	0.281408
C97	C	-0.406649	-0.721928	-0.285396
C98	C	0.093351	-0.221928	0.214604
C99	C	-0.453564	-0.721949	-0.285400
C100	C	0.046436	-0.221949	0.214600
C101	C	-0.477005	-0.755425	-0.251999
C102	C	0.022995	-0.255425	0.248001
O103	O	-0.527802	-0.693533	-0.313784
O104	O	-0.027802	-0.193533	0.186216
O105	O	-0.527777	-0.817366	-0.190207
O106	O	-0.027777	-0.317366	0.309793
C107	C	-0.739723	-0.788984	-0.218633
C108	C	-0.239723	-0.288984	0.281367
C109	C	-0.763195	-0.755535	-0.252038
C110	C	-0.263195	-0.255535	0.247962
C111	C	-0.739752	-0.722067	-0.285436
C112	C	-0.239752	-0.222067	0.214564
C113	C	-0.810113	-0.755549	-0.252042
C114	C	-0.310113	-0.255549	0.247958
C115	C	-0.833556	-0.789017	-0.218644
C116	C	-0.333556	-0.289017	0.281356
C117	C	-0.810081	-0.822470	-0.185242
C118	C	-0.310081	-0.322470	0.314758
C119	C	-0.763166	-0.822451	-0.185235
C120	C	-0.263166	-0.322451	0.314765
C121	C	-0.763227	-0.688614	-0.318838
C122	C	-0.263227	-0.188614	0.181162
C123	C	-0.810143	-0.688635	-0.318841
C124	C	-0.310143	-0.188635	0.181159
C125	C	-0.833585	-0.722102	-0.285443
C126	C	-0.333585	-0.222102	0.214557
C127	C	-0.099335	-0.755577	-0.252047
C128	C	0.400665	-0.255577	0.247953
C129	C	-0.049400	-0.755624	-0.252063
C130	C	0.450600	-0.255624	0.247937
C131	C	-0.216531	-0.891841	-0.252045
C132	C	0.283469	-0.391841	0.247955
C133	C	-0.216539	-0.949955	-0.252060
C134	C	0.283461	-0.449955	0.247940
C135	C	-0.245293	-0.201135	-0.285409
C136	C	0.254707	0.298865	0.214591
C137	C	-0.245295	-0.146531	-0.285417
C138	C	0.254705	0.353469	0.214583
O139	O	-0.269755	-0.118282	-0.313817
O140	O	0.230245	0.381718	0.186183
N141	N	-0.216525	-0.119229	-0.252043
N142	N	0.283475	0.380771	0.247957
C143	C	-0.187748	-0.146535	-0.218663
C144	C	0.312252	0.353465	0.281337
O145	O	-0.163276	-0.118299	-0.190277
O146	O	0.336724	0.381701	0.309723
C147	C	-0.187743	-0.201138	-0.218658
C148	C	0.312257	0.298862	0.281342
C149	C	-0.216518	-0.228437	-0.252030
C150	C	0.283482	0.271563	0.247970
C151	C	-0.274065	-0.228434	-0.318778
C152	C	0.225935	0.271566	0.181222
C153	C	-0.274063	-0.283034	-0.318769
C154	C	0.225937	0.216966	0.181231
C155	C	-0.245288	-0.310336	-0.285390
C156	C	0.254712	0.189664	0.214610
C157	C	-0.216516	-0.283037	-0.252021
C158	C	0.283484	0.216963	0.247979
C159	C	-0.158963	-0.228443	-0.185281
C160	C	0.341037	0.271557	0.314719
C161	C	-0.158961	-0.283050	-0.185279
C162	C	0.341039	0.216950	0.314721
C163	C	-0.187736	-0.310349	-0.218651
C164	C	0.312264	0.189651	0.281349
C165	C	-0.187739	-0.364940	-0.218633
C166	C	0.312261	0.135060	0.281367
N167	N	-0.216509	-0.392241	-0.252006
N168	N	0.283491	0.107759	0.247994
C169	C	-0.245283	-0.364939	-0.285385
C170	C	0.254717	0.135061	0.214615
C171	C	-0.187759	-0.031864	-0.218677
C172	C	0.312241	0.468136	0.281323
C173	C	-0.187766	0.022738	-0.218679
C174	C	0.312234	0.522738	0.281321
C175	C	-0.245313	0.022739	-0.285434
C176	C	0.254687	0.522739	0.214566
C177	C	-0.245308	-0.031865	-0.285429
C178	C	0.254692	0.468135	0.214571
C179	C	-0.216529	-0.059166	-0.252051
C180	C	0.283471	0.440834	0.247949
C181	C	-0.245277	-0.479604	-0.285363
C182	C	0.254723	0.020396	0.214637
C183	C	-0.245273	-0.534210	-0.285350
C184	C	0.254727	-0.034210	0.214650
C185	C	-0.187724	-0.534206	-0.218597
C186	C	0.312276	-0.034206	0.281403
C187	C	-0.187729	-0.479605	-0.218609
C188	C	0.312271	0.020395	0.281391
C189	C	-0.216507	-0.452306	-0.251996
C190	C	0.283493	0.047694	0.248004
O191	O	-0.163290	-0.393223	-0.190249
O192	O	0.336710	0.106777	0.309751
O193	O	-0.269746	-0.393182	-0.313771
O194	O	0.230254	0.106818	0.186229
C195	C	-0.187687	-0.789002	-0.806883
C196	C	0.312313	-0.289002	-0.306883
C197	C	-0.187675	-0.789008	-0.861488
C198	C	0.312325	-0.289008	-0.361488
O199	O	-0.163229	-0.817457	-0.889744
O200	O	0.336771	-0.317457	-0.389744
N201	N	-0.216396	-0.755550	-0.888779
N202	N	0.283604	-0.255550	-0.388779
C203	C	-0.245129	-0.722079	-0.861463
C204	C	0.254871	-0.222079	-0.361463
O205	O	-0.269558	-0.693621	-0.889691
O206	O	0.230442	-0.193621	-0.389691
C207	C	-0.245139	-0.722071	-0.806860
C208	C	0.254861	-0.222071	-0.306860
C209	C	-0.216419	-0.755535	-0.779571
C210	C	0.283581	-0.255535	-0.279571
C211	C	-0.158969	-0.822463	-0.779594
C212	C	0.341031	-0.322463	-0.279594
C213	C	-0.158982	-0.822457	-0.724994
C214	C	0.341018	-0.322457	-0.224994
C215	C	-0.187714	-0.788990	-0.697682
C216	C	0.312286	-0.288990	-0.197682
C217	C	-0.216432	-0.755529	-0.724971
C218	C	0.283568	-0.255529	-0.224971
C219	C	-0.273869	-0.688598	-0.779545
C220	C	0.226131	-0.188598	-0.279545
C221	C	-0.273876	-0.688592	-0.724938
C222	C	0.226124	-0.188592	-0.224938
C223	C	-0.245156	-0.722056	-0.697650
C224	C	0.254844	-0.222056	-0.197650
C225	C	-0.245176	-0.722056	-0.643058
C226	C	0.254824	-0.222056	-0.143058
N227	N	-0.216455	-0.755514	-0.615767
N228	N	0.283545	-0.255514	-0.115767
C229	C	-0.187723	-0.788981	-0.643079
C230	C	0.312277	-0.288981	-0.143079
C231	C	-0.245106	-0.722100	-0.976134
C232	C	0.254894	-0.222100	-0.476134
C233	C	-0.245099	-0.722110	-1.030736
C234	C	0.254901	-0.222110	-0.530736
C235	C	-0.187644	-0.789039	-1.030757
C236	C	0.312356	-0.289039	-0.530757
C237	C	-0.187653	-0.789030	-0.976153
C238	C	0.312347	-0.289030	-0.476153
C239	C	-0.216384	-0.755558	-0.948843
C240	C	0.283616	-0.255558	-0.448843
C241	C	-0.187753	-0.788967	-0.528414
C242	C	0.312247	-0.288967	-0.028414
C243	C	-0.187770	-0.788959	-0.473808
C244	C	0.312230	-0.288959	0.026192
C245	C	-0.245223	-0.722029	-0.473793
C246	C	0.254777	-0.222029	0.026207
C247	C	-0.245208	-0.722038	-0.528393
C248	C	0.254792	-0.222038	-0.028393
C249	C	-0.216470	-0.755509	-0.555702
C250	C	0.283530	-0.255509	-0.055702
O251	O	-0.269609	-0.693620	-0.614767
O252	O	0.230391	-0.193620	-0.114767
O253	O	-0.163295	-0.817430	-0.614845
O254	O	0.336705	-0.317430	-0.114845
C255	C	-0.216488	-0.755482	-0.116167
C256	C	0.283512	-0.255482	0.383833
C257	C	-0.216365	-0.755576	-0.058053
C258	C	0.283635	-0.255576	0.441947
H259	H	-0.387503	-0.816089	-0.191385
H260	H	0.112497	-0.316089	0.308615
H261	H	-0.135594	-0.849706	-0.702780
H262	H	0.364406	-0.349706	-0.202780
H263	H	-0.164350	-0.816220	-0.550642
H264	H	0.335650	-0.316220	-0.050642
N265	N	-0.158377	0.050611	-0.184579
N266	N	0.341623	0.550611	0.315421
N267	N	-0.132690	0.026221	-0.154779
N268	N	0.367310	0.526221	0.345221
H269	H	-0.111932	0.045905	-0.130695
H270	H	0.388068	0.545905	0.369305
H271	H	-0.268617	-0.694783	-0.451545
H272	H	0.231383	-0.194783	0.048455
N273	N	-0.477465	-0.823069	-0.184475
N274	N	0.022535	-0.323069	0.315525
N275	N	-0.456494	-0.852928	-0.154653
N276	N	0.043506	-0.352928	0.345347
H277	H	-0.473396	-0.877077	-0.130551
H278	H	0.026604	-0.377077	0.369449
N279	N	-1.049931	-0.687974	-0.319574
N280	N	-0.549931	-0.187974	0.180426
N281	N	-1.044727	-0.639730	-0.316051
N282	N	-0.544727	-0.139730	0.183949
H283	H	-1.061657	-0.615588	-0.340146
H284	H	-0.561657	-0.115588	0.159854
H285	H	-0.688495	-0.661337	-0.346038
H286	H	-0.188495	-0.161337	0.153962
N287	N	-0.303225	-0.654393	-0.697050
N288	N	0.196775	-0.154393	-0.197050
N289	N	-0.328862	-0.624518	-0.721426
N290	N	0.171138	-0.124518	-0.221426
H291	H	-0.349590	-0.600365	-0.701731
H292	H	0.150410	-0.100365	-0.201731
N293	N	-0.274703	0.050625	-0.319542
N294	N	0.225297	0.550625	0.180458
N295	N	-0.300389	0.026249	-0.349341
N296	N	0.199611	0.526249	0.150659
H297	H	-0.321145	0.045944	-0.373429
H298	H	0.178855	0.545944	0.126571
N299	N	-0.477552	-0.687778	-0.319514
N300	N	0.022448	-0.187778	0.180486
N301	N	-0.503772	-0.654487	-0.301088
N302	N	-0.003772	-0.154487	0.198912
H303	H	-0.520712	-0.630356	-0.325184
H304	H	-0.020712	-0.130356	0.174816
H305	H	-0.959898	-0.816301	-0.191448
H306	H	-0.459898	-0.316301	0.308552
H307	H	-0.603311	-0.849637	-0.158013
H308	H	-0.103311	-0.349637	0.341987
H309	H	-0.688417	-0.849671	-0.158025
H310	H	-0.188417	-0.349671	0.341975
H311	H	-0.297494	-0.305256	-0.345945
H312	H	0.202506	0.194744	0.154055
N313	N	-0.158320	-0.823209	-0.948273
N314	N	0.341680	-0.323209	-0.448273
N315	N	-0.174133	-0.856508	-0.917808
N316	N	0.325867	-0.356508	-0.417808
H317	H	-0.153415	-0.880647	-0.898118
H318	H	0.346585	-0.380647	-0.398118
H319	H	-0.135522	-0.305276	-0.158101
H320	H	0.364478	0.194724	0.341899
N321	N	-0.303204	-0.654422	-0.807424
N322	N	0.196796	-0.154422	-0.307424
N323	N	-0.331829	-0.672791	-0.837895
N324	N	0.168171	-0.172791	-0.337895
H325	H	-0.352548	-0.648653	-0.857586
H326	H	0.147452	-0.148653	-0.357586
H327	H	-0.135532	-0.206226	-0.158104
H328	H	0.364468	0.293774	0.341896
N329	N	-0.274662	-0.562102	-0.319441
N330	N	0.225338	-0.062102	0.180559
N331	N	-0.274658	-0.610854	-0.319431
N332	N	0.225342	-0.110854	0.180569
H333	H	-0.295413	-0.630553	-0.343507
H334	H	0.204587	-0.130553	0.156493
N335	N	-1.049869	-0.823268	-0.184537
N336	N	-0.549869	-0.323268	0.315463
N337	N	-1.044653	-0.819840	-0.136287
N338	N	-0.544653	-0.319840	0.363713
H339	H	-1.061564	-0.843987	-0.112192
H340	H	-0.561564	-0.343987	0.387808
N341	N	-0.955104	-0.687951	-0.319584
N342	N	-0.455104	-0.187951	0.180416
N343	N	-0.976075	-0.658087	-0.349401
N344	N	-0.476075	-0.158087	0.150599
H345	H	-0.959173	-0.633938	-0.373503
H346	H	-0.459173	-0.133938	0.126497
H347	H	-0.297497	-0.206210	-0.345962
H348	H	0.202503	0.293790	0.154038
H349	H	-0.268599	-0.694794	-0.550613
H350	H	0.231401	-0.194794	-0.050613
N351	N	-0.598532	-0.654381	-0.352958
N352	N	-0.098532	-0.154381	0.147042
N353	N	-0.619499	-0.624521	-0.382782
N354	N	-0.119499	-0.124521	0.117218
H355	H	-0.602595	-0.600376	-0.406885
H356	H	-0.102595	-0.100376	0.093115
H357	H	-0.135570	-0.849716	-0.801826
H358	H	0.364430	-0.349716	-0.301826
H359	H	-0.387554	-0.694677	-0.312587
H360	H	0.112446	-0.194677	0.187413
N361	N	-0.158297	-0.823223	-1.058669
N362	N	0.341703	-0.323223	-0.558669
N363	N	-0.158294	-0.823220	-1.107422
N364	N	0.341706	-0.323220	-0.607422
H365	H	-0.137570	-0.847361	-1.127137
H366	H	0.362430	-0.347361	-0.627137
H367	H	-0.744058	-0.849691	-0.158032
H368	H	-0.244058	-0.349691	0.341968
H369	H	-0.829176	-0.849719	-0.158047
H370	H	-0.329176	-0.349719	0.341953
N371	N	-0.158324	-0.562102	-0.184516
N372	N	0.341676	-0.062102	0.315484
N373	N	-0.116875	-0.556037	-0.188083
N374	N	0.383125	-0.056037	0.311917
H375	H	-0.096107	-0.575741	-0.164017
H376	H	0.403893	-0.075741	0.335983
N377	N	-0.274454	-0.687910	-0.948231
N378	N	0.225546	-0.187910	-0.448231
N379	N	-0.258652	-0.654600	-0.917758
N380	N	0.241348	-0.154600	-0.417758
H381	H	-0.279378	-0.630452	-0.898053
H382	H	0.220622	-0.130452	-0.398053
N383	N	-0.158431	-0.823150	-0.445942
N384	N	0.341569	-0.323150	0.054058
N385	N	-0.132781	-0.853027	-0.470339
N386	N	0.367219	-0.353027	0.029661
H387	H	-0.112060	-0.877174	-0.450661
H388	H	0.387940	-0.377174	0.049339
H389	H	-0.829250	-0.661390	-0.346045
H390	H	-0.329250	-0.161390	0.153955
N391	N	-0.739292	-0.654424	-0.352960
N392	N	-0.239292	-0.154424	0.147040
N393	N	-0.760262	-0.624561	-0.382779
N394	N	-0.260262	-0.124561	0.117221
H395	H	-0.743359	-0.600410	-0.406878
H396	H	-0.243359	-0.100410	0.093122
N397	N	-0.274674	-0.451732	-0.319472
N398	N	0.225326	0.048268	0.180528
N399	N	-0.300359	-0.476121	-0.349261
N400	N	0.199641	0.023879	0.150739
H401	H	-0.321122	-0.456437	-0.373349
H402	H	0.178878	0.043563	0.126651
N403	N	-0.274445	-0.687932	-1.058600
N404	N	0.225555	-0.187932	-0.558600
N405	N	-0.300095	-0.658056	-1.034201
N406	N	0.199905	-0.158056	-0.534201
H407	H	-0.320821	-0.633914	-1.053877
H408	H	0.179179	-0.133914	-0.553877
N409	N	-0.274705	-0.059739	-0.319519
N410	N	0.225295	0.440261	0.180481
N411	N	-0.300396	-0.035349	-0.349315
N412	N	0.199604	0.464651	0.150685
H413	H	-0.321159	-0.055032	-0.373393
H414	H	0.178841	0.444968	0.126607
N415	N	-0.158358	-0.059741	-0.184575
N416	N	0.341642	0.440259	0.315425
N417	N	-0.132674	-0.035354	-0.154783
N418	N	0.367326	0.464646	0.345217
H419	H	-0.111908	-0.055039	-0.130699
H420	H	0.388092	0.444961	0.369301
N421	N	-0.158339	-0.451725	-0.184512
N422	N	0.341661	0.048275	0.315488
N423	N	-0.132651	-0.476111	-0.154711
N424	N	0.367349	0.023889	0.345289
H425	H	-0.111890	-0.456425	-0.130632
H426	H	0.388110	0.043575	0.369368
