data_functionalizedCrystal
_audit_creation_method	'MofGen! by Chris Wilmer'
_symmetry_space_group_name_H-M	'P1'
_symmetry_Int_Tables_number	1
_symmetry_cell_setting	triclinic
loop_
_symmetry_equiv_pos_as_xyz
  x,y,z
_cell_length_a	12.759400
_cell_length_b	12.827893
_cell_length_c	12.827885
_cell_angle_alpha	90.021189
_cell_angle_beta	89.969506
_cell_angle_gamma	89.987106
loop_
_atom_site_label
_atom_site_type_symbol
_atom_site_fract_x
_atom_site_fract_y
_atom_site_fract_z
Zn1	Zn	-0.418266	-1.597675	-0.590897
Zn2	Zn	0.081734	-1.097675	-0.090897
Zn3	Zn	-0.593981	-1.597571	-0.416155
Zn4	Zn	-0.093981	-1.097571	0.083845
Zn5	Zn	-0.418311	-1.422916	-0.416165
Zn6	Zn	0.081689	-0.922916	0.083835
Zn7	Zn	-0.593898	-1.422904	-0.590849
Zn8	Zn	-0.093898	-0.922904	-0.090849
O9	O	-0.506114	-1.510266	-0.503517
O10	O	-0.006114	-1.010266	-0.003517
O11	O	-0.441590	-1.743897	-0.567733
O12	O	0.058410	-1.243897	-0.067733
O13	O	-0.570732	-1.574365	-0.269920
O14	O	-0.070732	-1.074365	0.230080
O15	O	-0.271284	-1.446147	-0.439367
O16	O	0.228716	-0.946147	0.060633
O17	O	-0.570688	-1.743821	-0.439351
O18	O	-0.070688	-1.243821	0.060649
O19	O	-0.271251	-1.574541	-0.567742
O20	O	0.228749	-1.074541	-0.067742
O21	O	-0.441668	-1.446046	-0.269927
O22	O	0.058332	-0.946046	0.230073
O23	O	-0.441587	-1.276678	-0.439321
O24	O	0.058413	-0.776678	0.060679
O25	O	-0.570546	-1.446125	-0.737092
O26	O	-0.070546	-0.946125	-0.237092
O27	O	-0.570590	-1.276669	-0.567661
O28	O	-0.070590	-0.776669	-0.067661
O29	O	-0.441509	-1.574529	-0.737127
O30	O	0.058491	-1.074529	-0.237127
O31	O	-0.740991	-1.574352	-0.439305
O32	O	-0.240991	-1.074352	0.060695
O33	O	-0.740930	-1.446025	-0.567652
O34	O	-0.240930	-0.946025	-0.067652
C35	C	-0.506085	-1.238756	-0.503488
C36	C	-0.006085	-0.738756	-0.003488
C37	C	-0.506098	-1.122603	-0.503500
C38	C	-0.006098	-0.622603	-0.003500
C39	C	-0.442328	-1.070856	-0.567125
C40	C	0.057672	-0.570856	-0.067125
C41	C	-0.442340	-0.950806	-0.567139
C42	C	0.057660	-0.450806	-0.067139
C43	C	-0.779081	-1.510204	-0.503495
C44	C	-0.279081	-1.010204	-0.003495
C45	C	-0.895858	-1.510273	-0.503520
C46	C	-0.395858	-1.010273	-0.003520
C47	C	-0.950717	-1.577168	-0.436764
C48	C	-0.450717	-1.077168	0.063236
C49	C	-1.060441	-1.577232	-0.436796
C50	C	-0.560441	-1.077232	0.063204
C51	C	-1.060437	-1.443499	-0.570344
C52	C	-0.560437	-0.943499	-0.070344
C53	C	-0.950715	-1.443440	-0.570316
C54	C	-0.450715	-0.943440	-0.070316
C55	C	-0.895860	-1.644001	-0.369968
C56	C	-0.395860	-1.144001	0.130032
C57	C	-0.950719	-1.710899	-0.303205
C58	C	-0.450719	-1.210899	0.196795
C59	C	-1.060443	-1.710964	-0.303237
C60	C	-0.560443	-1.210964	0.196763
C61	C	-1.115308	-1.644129	-0.370032
C62	C	-0.615308	-1.144129	0.129968
C63	C	-0.232081	-1.510357	-0.503561
C64	C	0.267919	-1.010357	-0.003561
C65	C	-0.115304	-1.510396	-0.503580
C66	C	0.384696	-1.010396	-0.003580
C67	C	-0.506013	-1.510337	-0.776087
C68	C	-0.006013	-1.010337	-0.276087
C69	C	-0.505970	-1.510368	-0.892240
C70	C	-0.005970	-1.010368	-0.392240
C71	C	-0.506135	-0.782836	-0.503538
C72	C	-0.006135	-0.282836	-0.003538
C73	C	-0.506122	-0.898990	-0.503525
C74	C	-0.006122	-0.398990	-0.003525
C75	C	-0.442106	-1.573913	-0.944042
C76	C	0.057894	-1.073913	-0.444042
C77	C	-0.442060	-1.573946	-1.064093
C78	C	0.057940	-1.073946	-0.564093
C79	C	-0.506139	-1.510256	-0.232007
C80	C	-0.006139	-1.010256	0.267993
C81	C	-0.505886	-1.510428	-0.115854
C82	C	-0.005886	-1.010428	0.384146
H83	H	-0.560726	-0.943484	-0.449057
H84	H	-0.060726	-0.443484	0.050943
H85	H	-0.560701	-1.078029	-0.449037
H86	H	-0.060701	-0.578029	0.050963
H87	H	-0.387720	-1.115430	-0.621582
H88	H	0.112280	-0.615430	-0.121582
H89	H	-0.806517	-1.643953	-0.369931
H90	H	-0.306517	-1.143953	0.130069
H91	H	-0.387461	-1.628288	-0.899515
H92	H	0.112539	-1.128288	-0.399515
H93	H	-0.387748	-0.906304	-0.621614
H94	H	0.112252	-0.406304	-0.121614
H95	H	-0.560605	-1.455982	-0.936767
H96	H	-0.060605	-0.955982	-0.436767
H97	H	-1.105106	-1.765443	-0.248884
H98	H	-0.605106	-1.265443	0.251116
C99	C	-0.890373	-1.784407	-0.229734
C100	C	-0.390373	-1.284407	0.270266
H101	H	-0.817169	-1.774782	-0.239266
H102	H	-0.317169	-1.274782	0.260734
H103	H	-0.908281	-1.854626	-0.245088
H104	H	-0.408281	-1.354626	0.254912
H105	H	-0.908430	-1.769147	-0.159510
H106	H	-0.408430	-1.269147	0.340490
H107	H	-0.560568	-1.456025	-1.071312
H108	H	-0.060568	-0.956025	-0.571312
H109	H	-1.105117	-1.389084	-0.624724
H110	H	-0.605117	-0.889084	-0.124724
C111	C	-1.236002	-1.644205	-0.370072
C112	C	-0.736002	-1.144205	0.129928
H113	H	-1.260819	-1.693616	-0.320745
H114	H	-0.760819	-1.193616	0.179255
H115	H	-1.260753	-1.662252	-0.437532
H116	H	-0.760753	-1.162252	0.062468
H117	H	-1.260892	-1.576789	-0.351939
H118	H	-0.760892	-1.076789	0.148061
C119	C	-0.890366	-1.369863	-0.643751
C120	C	-0.390366	-0.869863	-0.143751
H121	H	-0.938750	-1.330060	-0.683528
H122	H	-0.438750	-0.830060	-0.183528
H123	H	-0.847500	-1.409800	-0.689304
H124	H	-0.347500	-0.909800	-0.189304
H125	H	-0.847627	-1.324324	-0.603724
H126	H	-0.347627	-0.824324	-0.103724
H127	H	-0.387388	-1.628352	-1.108641
H128	H	0.112612	-1.128352	-0.608641
