data_functionalizedCrystal
_audit_creation_method	'MofGen! by Chris Wilmer'
_symmetry_space_group_name_H-M	'P1'
_symmetry_Int_Tables_number	1
_symmetry_cell_setting	triclinic
loop_
_symmetry_equiv_pos_as_xyz
  x,y,z
_cell_length_a	19.288864
_cell_length_b	19.288857
_cell_length_c	17.766277
_cell_angle_alpha	89.991474
_cell_angle_beta	89.976791
_cell_angle_gamma	83.134677
loop_
_atom_site_label
_atom_site_type_symbol
_atom_site_fract_x
_atom_site_fract_y
_atom_site_fract_z
O1	O	0.921351	0.086649	-0.062839
O2	O	1.421351	0.586649	0.437161
O3	O	0.719090	0.098338	-0.062788
O4	O	1.219090	0.598338	0.437212
O5	O	0.826067	-0.008637	-0.062806
O6	O	1.326067	0.491363	0.437194
O7	O	0.814373	0.193624	-0.062821
O8	O	1.314373	0.693624	0.437179
O9	O	0.826049	-0.008643	0.062382
O10	O	1.326049	0.491357	0.562382
O11	O	0.719071	0.098332	0.062400
O12	O	1.219071	0.598332	0.562400
O13	O	0.921332	0.086644	0.062349
O14	O	1.421332	0.586644	0.562349
Cu15	Cu	0.820200	0.092488	0.073806
Cu16	Cu	1.320200	0.592488	0.573806
Cu17	Cu	0.820222	0.092494	-0.074244
Cu18	Cu	1.320222	0.592494	0.425756
O19	O	0.814354	0.193619	0.062367
O20	O	1.314354	0.693619	0.562367
C21	C	0.693204	0.097959	-0.000187
C22	C	1.193204	0.597959	0.499813
C23	C	0.616100	0.096830	-0.000167
C24	C	1.116100	0.596830	0.499833
C25	C	0.571402	0.159598	-0.000184
C26	C	1.071402	0.659598	0.499816
C27	C	0.498955	0.158537	-0.000192
C28	C	0.998955	0.658537	0.499808
C29	C	0.471210	0.094705	-0.000199
C30	C	0.971210	0.594705	0.499801
C31	C	0.515917	0.031929	-0.000178
C32	C	1.015917	0.531929	0.499822
C33	C	0.588363	0.032991	-0.000162
C34	C	1.088363	0.532991	0.499838
C35	C	0.362955	0.044528	-0.044080
C36	C	0.862955	0.544528	0.455920
C37	C	0.290511	0.043468	-0.044100
C38	C	0.790511	0.543468	0.455900
C39	C	0.247764	0.091425	-0.000244
C40	C	0.747764	0.591425	0.499756
C41	C	0.277469	0.140455	0.043622
C42	C	0.777469	0.640455	0.543622
C43	C	0.349914	0.141517	0.043638
C44	C	0.849914	0.641517	0.543638
C45	C	0.392656	0.093546	-0.000216
C46	C	0.892656	0.593546	0.499784
C47	C	0.124510	0.153048	-0.000269
C48	C	0.624510	0.653048	0.499731
C49	C	0.052062	0.151984	-0.000272
C50	C	0.552062	0.651984	0.499728
C51	C	0.069026	0.025374	-0.000266
C52	C	0.569026	0.525374	0.499734
C53	C	0.141472	0.026439	-0.000255
C54	C	0.641472	0.526439	0.499745
C55	C	0.169210	0.090278	-0.000260
C56	C	0.669210	0.590278	0.499740
C57	C	0.825683	-0.034516	-0.000211
C58	C	1.325683	0.465484	0.499789
C59	C	0.824556	-0.111620	-0.000209
C60	C	1.324556	0.388380	0.499791
C61	C	0.824040	-0.147828	-0.068449
C62	C	1.324040	0.352172	0.431551
C63	C	0.822971	-0.220274	-0.068454
C64	C	1.322971	0.279726	0.431546
C65	C	0.822432	-0.256511	-0.000215
C66	C	1.322432	0.243489	0.499785
C67	C	0.822944	-0.220295	0.068034
C68	C	1.322944	0.279705	0.568034
C69	C	0.824006	-0.147849	0.068037
C70	C	1.324006	0.352151	0.568037
C71	C	0.861426	-0.376745	0.052050
C72	C	1.361426	0.123255	0.552050
C73	C	0.860369	-0.449190	0.052044
C74	C	1.360369	0.050810	0.552044
C75	C	0.819155	-0.479957	-0.000223
C76	C	1.319155	0.020043	0.499777
C77	C	0.779007	-0.438272	-0.052496
C78	C	1.279007	0.061728	0.447504
C79	C	0.780069	-0.365827	-0.052493
C80	C	1.280069	0.134173	0.447507
C81	C	0.821281	-0.335066	-0.000211
C82	C	1.321281	0.164934	0.499789
C83	C	0.817479	-0.594719	-0.068474
C84	C	1.317479	-0.094719	0.431526
C85	C	0.816406	-0.667166	-0.068476
C86	C	1.316406	-0.167166	0.431524
C87	C	0.816386	-0.667186	0.068014
C88	C	1.316386	-0.167186	0.568014
C89	C	0.817452	-0.594740	0.068014
C90	C	1.317452	-0.094740	0.568014
C91	C	0.818002	-0.558511	-0.000232
C92	C	1.318002	-0.058511	0.499768
C93	C	0.947218	0.087022	-0.000253
C94	C	1.447218	0.587022	0.499747
C95	C	1.024321	0.088151	-0.000278
C96	C	1.524321	0.588151	0.499722
C97	C	0.814739	0.219498	-0.000229
C98	C	1.314739	0.719498	0.499771
C99	C	0.815866	0.296602	-0.000237
C100	C	1.315866	0.796602	0.499763
N101	N	0.820189	0.092483	0.177936
N102	N	1.320189	0.592483	0.677936
N103	N	0.820238	0.092493	-0.178375
N104	N	1.320238	0.592493	0.321625
C105	C	0.867574	0.045137	0.217315
C106	C	1.367574	0.545137	0.717315
C107	C	0.867578	0.045134	0.296117
C108	C	1.367578	0.545134	0.796117
C109	C	0.820204	0.092488	0.335537
C110	C	1.320204	0.592488	0.835537
C111	C	0.772810	0.139837	0.296148
C112	C	1.272810	0.639837	0.796148
C113	C	0.772803	0.139834	0.217348
C114	C	1.272803	0.639834	0.717348
C115	C	0.810903	0.155776	0.460371
C116	C	1.310903	0.655776	0.960371
C117	C	0.810915	0.155780	0.539170
C118	C	1.310915	0.655780	1.039170
C119	C	0.820222	0.092496	0.578583
C120	C	1.320222	0.592496	1.078583
C121	C	0.829532	0.029207	0.539187
C122	C	1.329532	0.529207	1.039187
C123	C	0.829525	0.029204	0.460387
C124	C	1.329525	0.529204	0.960387
C125	C	0.820206	0.092496	0.420982
C126	C	1.320206	0.592496	0.920982
C127	C	0.867614	0.045144	0.703408
C128	C	1.367614	0.545144	1.203408
C129	C	0.867614	0.045139	0.782211
C130	C	1.367614	0.545139	1.282211
C131	C	0.772849	0.139849	0.782241
C132	C	1.272849	0.639849	1.282241
C133	C	0.772846	0.139847	0.703439
C134	C	1.272846	0.639847	1.203439
C135	C	0.820233	0.092495	0.664027
C136	C	1.320233	0.592495	1.164027
H137	H	0.046436	-0.026600	-0.000318
H138	H	0.546436	0.473400	0.499682
H139	H	0.824486	-0.118335	-0.124020
H140	H	1.324486	0.381665	0.375980
H141	H	0.906157	0.006579	0.185228
H142	H	1.406157	0.506579	0.685228
Cl143	Cl	0.927154	-0.014391	0.345630
Cl144	Cl	1.427154	0.485609	0.845630
Cl145	Cl	0.387256	0.203148	0.098785
Cl146	Cl	0.887256	0.703148	0.598785
Cl147	Cl	0.910842	-0.501587	0.117755
Cl148	Cl	1.410842	-0.001587	0.617755
H149	H	0.824423	-0.118369	0.123608
H150	H	1.324423	0.381631	0.623608
Cl151	Cl	0.841219	-0.050356	0.410863
Cl152	Cl	1.341219	0.449644	0.910863
H153	H	0.177867	-0.024674	-0.000245
H154	H	0.677867	0.475326	0.499755
Cl155	Cl	0.818100	-0.549219	0.153807
Cl156	Cl	1.318100	-0.049219	0.653807
H157	H	0.734273	0.178403	0.814336
H158	H	1.234273	0.678403	1.314336
H159	H	0.147095	0.205029	-0.000262
H160	H	0.647095	0.705029	0.499738
H161	H	0.906198	0.006581	0.814274
H162	H	1.406198	0.506581	1.314274
Cl163	Cl	0.841238	-0.050355	0.588725
Cl164	Cl	1.341238	0.449645	1.088725
H165	H	0.734264	0.178403	0.671375
H166	H	1.234264	0.678403	1.171375
Cl167	Cl	0.822261	-0.265848	0.153820
Cl168	Cl	1.322261	0.234152	0.653820
Cl169	Cl	0.799267	0.235342	0.410832
Cl170	Cl	1.299267	0.735342	0.910832
H171	H	0.397755	0.005473	-0.079797
H172	H	0.897755	0.505473	0.420203
Cl173	Cl	0.799217	0.235343	0.588688
Cl174	Cl	1.299217	0.735343	1.088688
Cl175	Cl	0.913262	-0.338077	0.117746
Cl176	Cl	1.413262	0.161923	0.617746
Cl177	Cl	0.822323	-0.265802	-0.154248
Cl178	Cl	1.322323	0.234198	0.345752
H179	H	0.734236	0.178393	0.328248
H180	H	1.234236	0.678393	0.828248
H181	H	0.906197	0.006585	0.671317
H182	H	1.406197	0.506585	1.171317
Cl183	Cl	-0.004132	0.230901	-0.000289
Cl184	Cl	0.495868	0.730901	0.499711
H185	H	0.242665	0.179506	0.079334
H186	H	0.742665	0.679506	0.579334
Cl187	Cl	0.818165	-0.549170	-0.154266
Cl188	Cl	1.318165	-0.049170	0.345734
H189	H	0.734215	0.178389	0.185285
H190	H	1.234215	0.678389	0.685285
H191	H	0.593981	0.211581	-0.000189
H192	H	1.093981	0.711581	0.499811
Cl193	Cl	0.815753	-0.712684	-0.154272
Cl194	Cl	1.315753	-0.212684	0.345728
H195	H	0.266331	0.003548	-0.079822
H196	H	0.766331	0.503548	0.420178
Cl197	Cl	0.442753	0.237452	-0.000211
Cl198	Cl	0.942753	0.737452	0.499789
H199	H	0.624757	-0.018124	-0.000149
H200	H	1.124757	0.481876	0.499851
H201	H	0.493322	-0.020044	-0.000194
H202	H	0.993322	0.479956	0.499806
H203	H	0.747378	-0.331889	-0.095054
H204	H	1.247378	0.168111	0.404946
H205	H	0.815942	-0.696689	0.123575
H206	H	1.315942	-0.196689	0.623575
Cl207	Cl	0.727188	-0.476942	-0.118204
Cl208	Cl	1.227188	0.023058	0.381796
