data_functionalizedCrystal
_audit_creation_method	'MofGen! by Chris Wilmer'
_symmetry_space_group_name_H-M	'P1'
_symmetry_Int_Tables_number	1
_symmetry_cell_setting	triclinic
loop_
_symmetry_equiv_pos_as_xyz
  x,y,z
_cell_length_a	10.489741
_cell_length_b	9.065218
_cell_length_c	8.965430
_cell_angle_alpha	89.998922
_cell_angle_beta	89.994421
_cell_angle_gamma	84.777530
loop_
_atom_site_label
_atom_site_type_symbol
_atom_site_fract_x
_atom_site_fract_y
_atom_site_fract_z
O1	O	-1.694792	-0.208160	-0.123940
O2	O	-1.323667	-0.227700	-0.123963
O3	O	-1.516901	-0.003251	-0.123948
O4	O	-1.501559	-0.432610	-0.123955
O5	O	-1.516910	-0.003258	0.124131
O6	O	-1.323676	-0.227707	0.124116
O7	O	-1.694802	-0.208167	0.124138
Cu8	Cu	-1.509240	-0.217938	0.146779
Cu9	Cu	-1.509229	-0.217930	-0.146603
O10	O	-1.501568	-0.432617	0.124124
C11	C	-1.276135	-0.226228	0.000073
C12	C	-1.134489	-0.221813	0.000065
C13	C	-1.515431	0.051725	0.000089
C14	C	-1.511022	0.215547	0.000081
C15	C	-1.742334	-0.209640	0.000099
C16	C	-1.883979	-0.214055	0.000098
C17	C	-1.065834	-0.079002	0.000081
C18	C	-0.973946	-0.146461	-0.122233
C19	C	-0.973989	-0.146502	0.122353
C20	C	-1.044467	-0.289330	-0.122350
C21	C	-1.044520	-0.289351	0.122346
C22	C	-0.952660	-0.356914	0.000002
C23	C	-1.503038	-0.487593	0.000083
C24	C	-1.507447	-0.651414	0.000081
N25	N	-1.509257	-0.217943	0.353128
N26	N	-1.509222	-0.217913	-0.352952
C27	C	-1.598650	-0.114150	0.450400
C28	C	-1.483047	-0.084267	0.549798
C29	C	-1.624814	-0.247730	0.549857
C30	C	-1.393595	-0.187994	0.450337
C31	C	-1.535439	-0.351515	0.450387
C32	C	-1.419753	-0.321688	0.549740
H33	H	-1.115099	0.038397	-0.000070
O34	O	-1.453691	0.065374	0.607655
H35	H	-1.358472	0.090863	0.566068
H36	H	-1.722555	-0.272938	0.593572
H37	H	-1.295831	-0.162658	0.406806
O38	O	-1.319496	-0.437933	0.607196
H39	H	-1.223708	-0.412832	0.567128
H40	H	-0.942710	-0.086032	-0.225640
O41	O	-1.085573	-0.369251	-0.259518
H42	H	-1.191155	-0.371834	-0.258494
H43	H	-1.557644	-0.464452	0.406687
H44	H	-1.075788	-0.349731	0.225758
O45	O	-0.887761	-0.512589	-0.000058
H46	H	-0.916008	-0.571496	-0.101684
H47	H	-0.942797	-0.086053	0.225761
O48	O	-1.698690	0.002163	0.392599
H49	H	-1.676625	0.112951	0.432413
