data_functionalizedCrystal
_audit_creation_method	'MofGen! by Chris Wilmer'
_symmetry_space_group_name_H-M	'P1'
_symmetry_Int_Tables_number	1
_symmetry_cell_setting	triclinic
loop_
_symmetry_equiv_pos_as_xyz
  x,y,z
_cell_length_a	14.044220
_cell_length_b	19.288864
_cell_length_c	18.366186
_cell_angle_alpha	90.022894
_cell_angle_beta	89.993222
_cell_angle_gamma	91.837439
loop_
_atom_site_label
_atom_site_type_symbol
_atom_site_fract_x
_atom_site_fract_y
_atom_site_fract_z
O1	O	0.118214	-0.928948	-0.060787
O2	O	0.618214	-0.428948	0.439213
O3	O	0.134161	-0.727712	-0.060738
O4	O	0.634161	-0.227712	0.439262
O5	O	-0.011784	-0.825310	-0.060755
O6	O	0.488216	-0.325310	0.439245
O7	O	0.264160	-0.831351	-0.060770
O8	O	0.764160	-0.331351	0.439230
O9	O	-0.011791	-0.825291	0.060345
O10	O	0.488209	-0.325291	0.560345
O11	O	0.134154	-0.727694	0.060362
O12	O	0.634154	-0.227694	0.560362
O13	O	0.118207	-0.928930	0.060312
O14	O	0.618207	-0.428930	0.560312
Zn15	Zn	0.126180	-0.828309	0.079564
Zn16	Zn	0.626180	-0.328309	0.579564
Zn17	Zn	0.126189	-0.828333	-0.079990
Zn18	Zn	0.626189	-0.328333	0.420010
O19	O	0.264152	-0.831332	0.060329
O20	O	0.764152	-0.331332	0.560329
C21	C	0.133645	-0.701794	-0.000182
C22	C	0.633645	-0.201794	0.499818
C23	C	0.132104	-0.624591	-0.000163
C24	C	0.632104	-0.124591	0.499837
C25	C	-0.047091	-0.822656	-0.000204
C26	C	0.452909	-0.322656	0.499796
C27	C	-0.152283	-0.814768	-0.000201
C28	C	0.347717	-0.314768	0.499799
C29	C	0.118724	-0.954848	-0.000245
C30	C	0.618724	-0.454848	0.499755
C31	C	0.120264	-1.032051	-0.000269
C32	C	0.620264	-0.532051	0.499731
C33	C	-0.344882	-0.800348	-0.000208
C34	C	0.155118	-0.300348	0.499792
C35	C	-0.402755	-0.856291	-0.000224
C36	C	0.097245	-0.356291	0.499776
C37	C	-0.509924	-0.848267	-0.000228
C38	C	-0.009924	-0.348267	0.499772
C39	C	-0.237703	-0.808370	-0.000204
C40	C	0.262297	-0.308370	0.499796
C41	C	0.299459	-0.833986	-0.000223
C42	C	0.799459	-0.333986	0.499777
C43	C	0.404651	-0.841874	-0.000231
C44	C	0.904651	-0.341874	0.499769
N45	N	0.126173	-0.828297	0.188455
N46	N	0.626173	-0.328297	0.688455
C47	C	0.217738	-0.585397	-0.000179
C48	C	0.717738	-0.085397	0.499821
C49	C	0.216291	-0.512857	-0.000187
C50	C	0.716291	-0.012857	0.499813
C51	C	0.129205	-0.479514	-0.000193
C52	C	0.629205	0.020486	0.499807
C53	C	0.043560	-0.518717	-0.000173
C54	C	0.543560	-0.018717	0.499827
C55	C	0.045010	-0.591256	-0.000157
C56	C	0.545010	-0.091256	0.499843
C57	C	0.060749	-0.366860	-0.042640
C58	C	0.560749	0.133140	0.457360
C59	C	0.059303	-0.294322	-0.042660
C60	C	0.559303	0.205678	0.457340
C61	C	0.124731	-0.255781	-0.000237
C62	C	0.624731	0.244219	0.499763
C63	C	0.191621	-0.289785	0.042196
C64	C	0.691621	0.210215	0.542196
C65	C	0.193071	-0.362323	0.042212
C66	C	0.693071	0.137677	0.542212
C67	C	0.127624	-0.400858	-0.000209
C68	C	0.627624	0.099142	0.499791
C69	C	0.208802	-0.137930	-0.000261
C70	C	0.708802	0.362070	0.499739
C71	C	0.207351	-0.065389	-0.000264
C72	C	0.707351	0.434611	0.499736
C73	C	0.034617	-0.071251	-0.000257
C74	C	0.534617	0.428749	0.499743
C75	C	0.036071	-0.143790	-0.000247
C76	C	0.536071	0.356210	0.499753
C77	C	0.123165	-0.177126	-0.000252
C78	C	0.623165	0.322874	0.499748
N79	N	0.126188	-0.828350	-0.188881
N80	N	0.626188	-0.328350	0.311119
C81	C	0.061580	-0.871531	0.226548
C82	C	0.561580	-0.371531	0.726548
C83	C	0.061575	-0.871535	0.302776
C84	C	0.561575	-0.371535	0.802776
C85	C	0.126180	-0.828313	0.340908
C86	C	0.626180	-0.328313	0.840908
C87	C	0.190778	-0.785071	0.302806
C88	C	0.690778	-0.285071	0.802806
C89	C	0.190774	-0.785063	0.226579
C90	C	0.690774	-0.285063	0.726579
C91	C	0.212524	-0.824562	0.461665
C92	C	0.712524	-0.324562	0.961665
C93	C	0.212529	-0.824575	0.537890
C94	C	0.712529	-0.324575	1.037890
C95	C	0.126192	-0.828333	0.576015
C96	C	0.626192	-0.328333	1.076015
C97	C	0.039847	-0.832093	0.537907
C98	C	0.539847	-0.332093	1.037907
C99	C	0.039843	-0.832085	0.461681
C100	C	0.539843	-0.332085	0.961681
C101	C	0.126191	-0.828316	0.423563
C102	C	0.626191	-0.328316	0.923563
C103	C	0.061589	-0.871574	0.696763
C104	C	0.561589	-0.371574	1.196763
C105	C	0.061584	-0.871573	0.772993
C106	C	0.561584	-0.371573	1.272993
C107	C	0.190795	-0.785113	0.773021
C108	C	0.690795	-0.285113	1.273021
C109	C	0.190792	-0.785110	0.696793
C110	C	0.690792	-0.285110	1.196793
C111	C	0.126190	-0.828344	0.658669
C112	C	0.626190	-0.328344	1.158669
H113	H	-0.371814	-0.910212	-0.000286
H114	H	0.128186	-0.410212	0.499714
C115	C	-0.386675	-0.727510	-0.000184
C116	C	0.113325	-0.227510	0.499816
H117	H	-0.454267	-0.731606	-0.000181
H118	H	0.045733	-0.231606	0.499819
H119	H	-0.365771	-0.702996	-0.042403
H120	H	0.134229	-0.202996	0.457597
H121	H	-0.365787	-0.702997	0.042062
H122	H	0.134213	-0.202997	0.542062
C123	C	0.313538	-0.622062	-0.000171
C124	C	0.813538	-0.122062	0.499829
H125	H	0.364332	-0.588326	-0.000175
H126	H	0.864332	-0.088326	0.499825
H127	H	0.317703	-0.650265	-0.042392
H128	H	0.817703	-0.150265	0.457608
H129	H	0.317688	-0.650209	0.042073
H130	H	0.817688	-0.150209	0.542073
C131	C	0.307503	-0.820445	0.579802
C132	C	0.807503	-0.320445	1.079802
H133	H	0.358921	-0.818194	0.546180
H134	H	0.858921	-0.318194	1.046180
H135	H	0.312629	-0.860452	0.609514
H136	H	0.812629	-0.360452	1.109514
H137	H	0.309559	-0.780129	0.609561
H138	H	0.809559	-0.280129	1.109561
H139	H	0.286027	-0.480939	-0.000198
H140	H	0.786027	0.019061	0.499802
H141	H	0.247532	-0.390007	0.076765
H142	H	0.747532	0.109993	0.576765
H143	H	0.244899	-0.258406	0.076742
H144	H	0.744899	0.241594	0.576742
C145	C	0.304600	-0.174602	-0.000259
C146	C	0.804600	0.325398	0.499741
H147	H	0.355395	-0.140867	-0.000260
H148	H	0.855395	0.359133	0.499740
H149	H	0.308759	-0.202799	-0.042485
H150	H	0.808759	0.297201	0.457515
H151	H	0.308751	-0.202755	0.041980
H152	H	0.808751	0.297245	0.541980
C153	C	0.301553	-0.022275	-0.000282
C154	C	0.801553	0.477725	0.499718
H155	H	0.353627	-0.052520	-0.000290
H156	H	0.853627	0.447480	0.499710
H157	H	0.304583	0.006167	0.041942
H158	H	0.804583	0.506167	0.541942
H159	H	0.304573	0.006120	-0.042523
H160	H	0.804573	0.506120	0.457477
H161	H	-0.036290	-0.044104	-0.000308
H162	H	0.463710	0.455896	0.499692
C163	C	-0.058128	-0.186906	-0.000240
C164	C	0.441872	0.313094	0.499760
H165	H	-0.110202	-0.156661	-0.000251
H166	H	0.389798	0.343339	0.499749
H167	H	-0.061158	-0.215303	0.041995
H168	H	0.438842	0.284697	0.541995
H169	H	-0.061147	-0.215347	-0.042471
H170	H	0.438853	0.284653	0.457529
H171	H	-0.027346	-0.491565	-0.000188
H172	H	0.472654	0.008435	0.499812
H173	H	0.008974	-0.906742	0.333797
H174	H	0.508974	-0.406742	0.833797
H175	H	-0.030457	-0.835153	0.568947
H176	H	0.469543	-0.335153	1.068947
C177	C	-0.014265	-0.256921	-0.089337
C178	C	0.485735	0.243079	0.410663
H179	H	-0.005750	-0.208200	-0.083279
H180	H	0.494250	0.291800	0.416721
H181	H	-0.076725	-0.270924	-0.074414
H182	H	0.423275	0.229076	0.425586
H183	H	-0.005692	-0.268558	-0.139123
H184	H	0.494308	0.231442	0.360877
C185	C	-0.011220	-0.409248	-0.089315
C186	C	0.488780	0.090752	0.410685
H187	H	-0.051252	-0.378609	-0.114598
H188	H	0.448748	0.121391	0.385402
H189	H	-0.048924	-0.438830	-0.058728
H190	H	0.451076	0.061170	0.441272
H191	H	0.022124	-0.436449	-0.123427
H192	H	0.522124	0.063551	0.376573
C193	C	-0.049192	-0.634371	-0.000148
C194	C	0.450808	-0.134371	0.499852
H195	H	-0.101267	-0.604127	-0.000157
H196	H	0.398733	-0.104127	0.499843
H197	H	-0.052221	-0.662771	0.042085
H198	H	0.447779	-0.162771	0.542085
H199	H	-0.052210	-0.662809	-0.042381
H200	H	0.447790	-0.162809	0.457619
H201	H	0.008975	-0.906733	0.195510
H202	H	0.508975	-0.406733	0.695510
H203	H	-0.030463	-0.835145	0.430656
H204	H	0.469537	-0.335145	0.930656
H205	H	0.008984	-0.906776	0.665721
H206	H	0.508984	-0.406776	1.165721
H207	H	0.008980	-0.906777	0.804009
H208	H	0.508980	-0.406777	1.304009
C209	C	0.261859	-0.737569	0.814957
C210	C	0.761859	-0.237569	1.314957
H211	H	0.252615	-0.743768	0.865811
H212	H	0.752615	-0.243768	1.365811
H213	H	0.251730	-0.690587	0.802490
H214	H	0.751730	-0.190587	1.302490
H215	H	0.325081	-0.749031	0.802451
H216	H	0.825081	-0.249031	1.302451
H217	H	0.243379	-0.749878	0.333857
H218	H	0.743379	-0.249878	0.833857
C219	C	0.261861	-0.737567	0.654885
C220	C	0.761861	-0.237567	1.154885
H221	H	0.252604	-0.743751	0.604027
H222	H	0.752604	-0.243751	1.104027
H223	H	0.325077	-0.749031	0.667368
H224	H	0.825077	-0.249031	1.167368
H225	H	0.251734	-0.690582	0.667399
H226	H	0.751734	-0.190582	1.167399
H227	H	0.282834	-0.821490	0.430629
H228	H	0.782834	-0.321490	0.930629
C229	C	0.261836	-0.737509	0.184675
C230	C	0.761836	-0.237509	0.684675
H231	H	0.300317	-0.711770	0.218300
H232	H	0.800317	-0.211770	0.718300
H233	H	0.227849	-0.706492	0.154956
H234	H	0.727849	-0.206492	0.654956
H235	H	0.301200	-0.764936	0.154925
H236	H	0.801200	-0.264936	0.654925
