data_functionalizedCrystal
_audit_creation_method	'MofGen! by Chris Wilmer'
_symmetry_space_group_name_H-M	'P1'
_symmetry_Int_Tables_number	1
_symmetry_cell_setting	triclinic
loop_
_symmetry_equiv_pos_as_xyz
  x,y,z
_cell_length_a	15.944551
_cell_length_b	16.109301
_cell_length_c	14.586319
_cell_angle_alpha	89.996867
_cell_angle_beta	90.001139
_cell_angle_gamma	96.519891
loop_
_atom_site_label
_atom_site_type_symbol
_atom_site_fract_x
_atom_site_fract_y
_atom_site_fract_z
O1	O	0.107962	-1.103169	0.076184
O2	O	0.121398	-0.861112	0.076199
O3	O	-0.007597	-0.988750	0.076183
O4	O	0.236957	-0.975530	0.076200
O5	O	-0.007590	-0.988735	-0.076298
O6	O	0.121405	-0.861096	-0.076282
O7	O	0.107969	-1.103154	-0.076296
Cu8	Cu	0.114688	-0.982123	-0.090212
Cu9	Cu	0.114679	-0.982142	0.090114
O10	O	0.236964	-0.975515	-0.076280
C11	C	-0.038887	-0.988194	-0.000057
C12	C	-0.132133	-0.986548	-0.000058
C13	C	0.120857	-0.830129	-0.000039
C14	C	0.119226	-0.737833	-0.000034
C15	C	0.108510	-1.134136	-0.000056
C16	C	0.110141	-1.226432	-0.000055
C17	C	-0.346962	-0.903499	-0.000040
C18	C	-0.407988	-0.942057	-0.075225
C19	C	-0.302858	-0.983572	-0.000051
C20	C	-0.407979	-0.942091	0.075109
C21	C	-0.467769	-0.980691	-0.000040
C22	C	-0.362656	-1.022151	-0.075297
C23	C	-0.362640	-1.022174	0.075104
C24	C	-0.423649	-1.060790	-0.000099
C25	C	-0.207856	-0.985229	-0.000058
C26	C	-0.562770	-0.979039	-0.000039
C27	C	0.268254	-0.976071	-0.000038
C28	C	0.361500	-0.977717	-0.000031
N29	N	0.114694	-0.982116	-0.217044
C30	C	0.191975	-0.515584	-0.000040
C31	C	0.190435	-0.428863	-0.000046
C32	C	0.037387	-0.448688	-0.000053
C33	C	0.038927	-0.535407	-0.000053
C34	C	0.116224	-0.568853	-0.000042
C35	C	0.113143	-0.395412	-0.000047
C36	C	0.111473	-0.301386	-0.000054
C37	C	0.117894	-0.662885	-0.000037
C38	C	0.165642	-1.032556	-0.452049
C39	C	0.165636	-1.032564	-0.548031
C40	C	0.063713	-0.931714	-0.548041
C41	C	0.063715	-0.931710	-0.452062
C42	C	0.114684	-0.982130	-0.404068
C43	C	0.114676	-0.982142	-0.596029
C44	C	0.114670	-0.982151	-0.700096
C45	C	0.114690	-0.982122	-0.299995
N46	N	0.114666	-0.982155	0.216946
H47	H	-0.313632	-0.837035	-0.000111
F48	F	0.271060	-0.372174	-0.000044
H49	H	-0.025546	-0.421446	-0.000067
F50	F	-0.434253	-0.897783	-0.158301
H51	H	0.022217	-0.890663	-0.587129
H52	H	-0.022762	-0.578781	-0.000058
H53	H	0.022215	-0.890647	-0.412995
H54	H	-0.428048	-0.908219	0.138677
H55	H	-0.342673	-1.055984	-0.138930
F56	F	-0.467021	-1.147739	-0.000157
H57	H	0.207129	-1.073627	-0.587093
F58	F	-0.336345	-1.066413	0.158184
F59	F	0.274240	-0.551176	-0.000031
F60	F	0.219882	-1.086221	-0.400974
