data_functionalizedCrystal
_audit_creation_method	'MofGen! by Chris Wilmer'
_symmetry_space_group_name_H-M	'P1'
_symmetry_Int_Tables_number	1
_symmetry_cell_setting	triclinic
loop_
_symmetry_equiv_pos_as_xyz
  x,y,z
_cell_length_a	10.654562
_cell_length_b	27.732048
_cell_length_c	9.130313
_cell_angle_alpha	89.993840
_cell_angle_beta	89.996930
_cell_angle_gamma	83.566379
loop_
_atom_site_label
_atom_site_type_symbol
_atom_site_fract_x
_atom_site_fract_y
_atom_site_fract_z
O1	O	1.664970	0.067913	-0.121913
O2	O	1.299222	0.074374	-0.121897
O3	O	1.493455	0.000818	-0.121878
O4	O	1.470736	0.141469	-0.121932
O5	O	1.493453	0.000820	0.121721
O6	O	1.299219	0.074376	0.121702
O7	O	1.664967	0.067915	0.121686
Cu8	Cu	1.482093	0.071146	0.143936
Cu9	Cu	1.482096	0.071143	-0.144148
O10	O	1.470734	0.141471	0.121666
C11	C	1.252443	0.073900	-0.000095
C12	C	1.113060	0.072476	-0.000087
C13	C	1.047556	0.071813	0.132687
C14	C	0.916590	0.070480	0.132663
C15	C	0.916643	0.070474	-0.132922
C16	C	1.047608	0.071804	-0.132896
C17	C	1.113008	0.072486	0.265496
C18	C	1.047504	0.071823	0.398281
C19	C	0.916538	0.070490	0.398257
C20	C	0.851076	0.069819	0.265448
C21	C	1.492977	-0.017191	-0.000074
C22	C	1.491541	-0.070855	-0.000062
C23	C	1.597280	-0.409010	-0.000142
C24	C	1.591952	-0.610703	-0.000162
O25	O	1.688642	-0.641354	-0.000231
N26	N	1.476779	-0.630546	-0.000156
C27	C	1.362931	-0.599962	-0.000154
O28	O	1.264848	-0.621468	-0.000164
C29	C	1.368260	-0.398270	-0.000144
C30	C	1.483440	-0.378430	-0.000136
C31	C	1.712450	-0.389169	-0.000135
C32	C	1.713781	-0.338749	-0.000122
C33	C	1.599941	-0.308169	-0.000116
C34	C	1.484771	-0.328010	-0.000123
C35	C	1.254413	-0.367687	-0.000152
C36	C	1.255756	-0.317262	-0.000154
C37	C	1.370936	-0.297422	-0.000145
C38	C	1.372262	-0.247010	-0.000103
N39	N	1.487434	-0.227167	-0.000110
C40	C	1.601274	-0.257746	-0.000116
C41	C	1.360141	-0.705853	-0.000156
C42	C	1.358808	-0.756276	-0.000156
C43	C	1.587830	-0.767013	-0.000167
C44	C	1.589161	-0.716590	-0.000157
C45	C	1.475313	-0.686010	-0.000162
C46	C	1.604060	-0.151860	-0.000088
C47	C	1.605381	-0.101435	-0.000068
C48	C	1.376360	-0.090702	-0.000065
C49	C	1.375039	-0.141123	-0.000076
C50	C	1.488899	-0.171701	-0.000093
O51	O	1.275623	-0.216329	-0.000051
O52	O	1.699343	-0.236231	-0.000139
C53	C	1.595949	-0.459430	-0.000155
C54	C	1.480779	-0.479271	-0.000162
C55	C	1.366939	-0.448691	-0.000155
C56	C	1.479446	-0.529693	-0.000162
C57	C	1.593286	-0.560273	-0.000168
C58	C	1.708458	-0.540430	-0.000175
C59	C	1.709789	-0.490010	-0.000161
C60	C	1.251767	-0.468534	-0.000149
C61	C	1.250445	-0.518955	-0.000160
C62	C	1.364285	-0.549534	-0.000167
C63	C	1.711746	0.068390	-0.000120
C64	C	1.851129	0.069813	-0.000137
C65	C	1.471212	0.159480	-0.000140
C66	C	1.472648	0.213144	-0.000162
N67	N	1.482100	0.071147	0.346559
N68	N	1.482099	0.071138	-0.346770
C69	C	1.568128	0.038587	0.423219
C70	C	1.568125	0.038582	0.576556
C71	C	1.396062	0.103699	0.576559
C72	C	1.396060	0.103702	0.423225
C73	C	1.654169	0.006032	0.346554
C74	C	1.740205	-0.026530	0.423214
C75	C	1.740201	-0.026536	0.576551
C76	C	1.654162	0.006021	0.653227
H77	H	1.100813	0.072366	0.506409
H78	H	1.810248	-0.053039	0.360777
C79	C	1.768746	-0.092227	0.748979
C80	C	1.834763	-0.062329	0.660817
H81	H	1.827131	-0.114326	0.800991
H82	H	1.717523	-0.072840	0.816581
H83	H	1.716825	-0.109799	0.689147
H84	H	1.886677	-0.044754	0.720650
H85	H	1.886008	-0.081718	0.593207
H86	H	0.863209	0.069947	0.506377
C87	C	1.178130	0.131294	0.623800
C88	C	1.301498	0.139484	0.660843
H89	H	1.119753	0.153386	0.675841
H90	H	1.165821	0.135959	0.521522
H91	H	1.165145	0.098985	0.648940
H92	H	1.314486	0.171793	0.635693
H93	H	1.313812	0.134823	0.763143
H94	H	1.163045	-0.292366	-0.000161
H95	H	1.100942	0.072346	-0.241013
C96	C	1.320692	0.187112	0.375982
C97	C	1.301506	0.139494	0.338941
H98	H	1.262319	0.209207	0.323939
H99	H	1.308370	0.191769	0.478260
H100	H	1.404396	0.192657	0.350844
H101	H	1.217803	0.133948	0.364090
H102	H	1.313817	0.134835	0.236641
H103	H	1.267427	-0.680960	-0.000160
H104	H	1.219647	0.073573	0.265530
H105	H	0.744435	0.068732	0.265439
H106	H	0.863333	0.069929	-0.241048
C107	C	1.709134	-0.028911	-0.000046
C108	C	1.731994	-0.079627	-0.000064
H109	H	1.787299	-0.015450	-0.000036
H110	H	1.662314	-0.018438	-0.084984
H111	H	1.662304	-0.018450	0.084913
H112	H	1.778817	-0.090088	-0.085029
H113	H	1.778835	-0.090104	0.084883
C114	C	1.830573	-0.157395	-0.000077
C115	C	1.729216	-0.185466	-0.000093
H116	H	1.907836	-0.178143	-0.000064
H117	H	1.826328	-0.137502	-0.085018
H118	H	1.826303	-0.137507	0.084879
H119	H	1.733481	-0.205352	-0.085055
H120	H	1.733463	-0.205367	0.084857
H121	H	1.807572	-0.322600	-0.000122
H122	H	1.682951	-0.700440	-0.000151
C123	C	1.938952	-0.394704	-0.000120
C124	C	1.837598	-0.422777	-0.000130
H125	H	2.016217	-0.415451	-0.000098
H126	H	1.934707	-0.374814	-0.085068
H127	H	1.934677	-0.374813	0.084830
H128	H	1.841868	-0.442666	-0.085085
H129	H	1.841845	-0.442675	0.084827
C130	C	1.120048	-0.418142	-0.125412
C131	C	1.127801	-0.389486	-0.000179
H132	H	1.041880	-0.431600	-0.125425
H133	H	1.125350	-0.398690	-0.210337
H134	H	1.187648	-0.443576	-0.125390
H135	H	1.060206	-0.364050	-0.000206
H136	H	1.122487	-0.408940	0.084767
H137	H	1.680522	-0.791920	-0.000171
H138	H	1.265018	-0.772425	-0.000137
C139	C	1.148795	-0.125442	-0.000079
C140	C	1.248433	-0.162934	-0.000087
H141	H	1.070635	-0.138906	-0.000109
H142	H	1.154070	-0.106009	0.084878
H143	H	1.154099	-0.105989	-0.085019
H144	H	1.243135	-0.182385	0.084859
H145	H	1.243156	-0.182375	-0.085053
H146	H	1.803580	-0.473861	-0.000155
C147	C	1.276737	-0.008636	-0.000068
C148	C	1.251231	-0.057082	-0.000067
H149	H	1.199486	0.012119	-0.000086
H150	H	1.323988	-0.002587	0.084881
H151	H	1.324019	-0.002584	-0.085017
H152	H	1.203957	-0.063135	0.084888
H153	H	1.203960	-0.063134	-0.085024
H154	H	1.801150	-0.565337	-0.000173
C155	C	1.024196	-0.503264	-0.000175
C156	C	1.123827	-0.540759	-0.000174
H157	H	0.946032	-0.516725	-0.000203
H158	H	1.029474	-0.483829	0.084778
H159	H	1.029506	-0.483813	-0.085119
H160	H	1.118522	-0.560207	0.084776
H161	H	1.118547	-0.560201	-0.085136
H162	H	1.159062	-0.443640	-0.000147
H163	H	1.654181	0.006035	0.221699
H164	H	1.654159	0.006010	0.778085
