data_functionalizedCrystal
_audit_creation_method	'MofGen! by Chris Wilmer'
_symmetry_space_group_name_H-M	'P1'
_symmetry_Int_Tables_number	1
_symmetry_cell_setting	triclinic
loop_
_symmetry_equiv_pos_as_xyz
  x,y,z
_cell_length_a	14.044220
_cell_length_b	14.044191
_cell_length_c	9.198806
_cell_angle_alpha	89.997762
_cell_angle_beta	90.001345
_cell_angle_gamma	86.809673
loop_
_atom_site_label
_atom_site_type_symbol
_atom_site_fract_x
_atom_site_fract_y
_atom_site_fract_z
O1	O	-0.230197	1.277173	-0.120815
O2	O	0.103136	1.610506	0.212518
O3	O	0.436470	1.943839	0.545851
O4	O	-0.221884	1.000500	-0.120834
O5	O	0.111449	1.333833	0.212499
O6	O	0.444782	1.667167	0.545833
O7	O	-0.087705	1.134684	-0.120819
O8	O	0.245629	1.468017	0.212515
O9	O	0.578962	1.801350	0.545848
O10	O	-0.364376	1.142989	-0.120831
O11	O	-0.031043	1.476323	0.212502
O12	O	0.302290	1.809656	0.545836
O13	O	-0.087705	1.134670	0.120966
O14	O	0.245628	1.468004	0.454300
O15	O	0.578962	1.801337	0.787633
O16	O	-0.221885	1.000487	0.120951
O17	O	0.111449	1.333820	0.454284
O18	O	0.444782	1.667154	0.787618
O19	O	-0.230197	1.277159	0.120970
O20	O	0.103136	1.610493	0.454303
O21	O	0.436469	1.943826	0.787636
Cu22	Cu	-0.226041	1.138822	0.143037
Cu23	Cu	0.107292	1.472155	0.476371
Cu24	Cu	0.440626	1.805489	0.809704
Cu25	Cu	-0.226041	1.138838	-0.142902
Cu26	Cu	0.107293	1.472171	0.190432
Cu27	Cu	0.440626	1.805504	0.523765
O28	O	-0.364377	1.142976	0.120954
O29	O	-0.031043	1.476309	0.454287
O30	O	0.302290	1.809643	0.787621
C31	C	-0.218248	0.964872	0.000056
C32	C	0.115086	1.298205	0.333389
C33	C	0.448419	1.631538	0.666723
C34	C	-0.207401	0.858728	0.000049
C35	C	0.125933	1.192062	0.333382
C36	C	0.459266	1.525395	0.666716
C37	C	-0.264501	0.613270	0.000061
C38	C	0.068832	0.946603	0.333394
C39	C	0.402166	1.279937	0.666728
C40	C	-0.187585	0.664395	0.000062
C41	C	0.145749	0.997729	0.333395
C42	C	0.479082	1.331062	0.666729
C43	C	-0.198613	0.772532	0.000055
C44	C	0.134720	1.105866	0.333388
C45	C	0.468054	1.439199	0.666721
C46	C	-0.253474	0.505123	0.000068
C47	C	0.079859	0.838457	0.333401
C48	C	0.413192	1.171790	0.666735
C49	C	-0.399998	1.146618	0.000060
C50	C	-0.066665	1.479952	0.333393
C51	C	0.266668	1.813285	0.666727
C52	C	-0.506142	1.157463	0.000056
C53	C	-0.172808	1.490796	0.333389
C54	C	0.160525	1.824130	0.666722
C55	C	-0.700480	1.177289	0.000063
C56	C	-0.367146	1.510623	0.333397
C57	C	-0.033813	1.843956	0.666730
C58	C	-0.751608	1.100375	0.000059
C59	C	-0.418274	1.433708	0.333393
C60	C	-0.084941	1.767041	0.666726
C61	C	-0.859744	1.111406	0.000064
C62	C	-0.526411	1.444740	0.333397
C63	C	-0.193077	1.778073	0.666730
C64	C	-0.592333	1.166259	0.000059
C65	C	-0.259000	1.499592	0.333392
C66	C	0.074333	1.832926	0.666726
C67	C	-0.052083	1.131041	0.000072
C68	C	0.281250	1.464375	0.333406
C69	C	0.614584	1.797708	0.666739
C70	C	0.054060	1.120197	0.000067
C71	C	0.387393	1.453530	0.333401
C72	C	0.720727	1.786863	0.666734
C73	C	-0.233834	1.312788	0.000076
C74	C	0.099500	1.646121	0.333410
C75	C	0.432833	1.979455	0.666743
C76	C	-0.244681	1.418931	0.000074
C77	C	0.088652	1.752264	0.333407
C78	C	0.421986	2.085598	0.666741
N79	N	-0.226041	1.138818	0.344151
N80	N	0.107292	1.472151	0.677484
N81	N	0.440625	1.805484	1.010818
C82	C	-0.169435	1.195136	0.416355
C83	C	0.163899	1.528470	0.749688
C84	C	0.497232	1.861803	1.083021
C85	C	-0.169434	1.195150	0.583767
C86	C	0.163900	1.528483	0.917100
C87	C	0.497233	1.861817	1.250434
N88	N	-0.226040	1.138842	0.655984
N89	N	0.107293	1.472175	0.989318
N90	N	0.440626	1.805508	1.322651
H91	H	-0.338628	0.650711	0.000053
H92	H	-0.005294	0.984045	0.333387
H93	H	0.328039	1.317378	0.666720
C94	C	-0.103959	1.260291	0.667648
C95	C	0.229374	1.593624	1.000981
C96	C	0.562707	1.926957	1.334315
N97	N	-0.054641	1.309355	0.730831
N98	N	0.278692	1.642688	1.064164
N99	N	0.612026	1.976022	1.397498
H100	H	-0.714167	1.026241	0.000055
H101	H	-0.380833	1.359574	0.333389
H102	H	-0.047500	1.692907	0.666722
C103	C	-0.751059	1.277434	0.000094
C104	C	-0.417726	1.610768	0.333428
C105	C	-0.084392	1.944101	0.666761
N106	N	-0.789166	1.352863	0.000128
N107	N	-0.455833	1.686196	0.333461
N108	N	-0.122500	2.019530	0.666795
H109	H	-0.120968	1.243340	0.354234
H110	H	0.212365	1.576674	0.687567
H111	H	0.545699	1.910007	1.020901
H112	H	-0.274510	1.090626	0.593902
H113	H	0.058824	1.423959	0.927235
H114	H	0.392157	1.757293	1.260569
H115	H	-0.274500	1.090607	0.406274
H116	H	0.058833	1.423940	0.739607
H117	H	0.392167	1.757274	1.072940
H118	H	-0.113452	0.626952	-0.000037
H119	H	0.219881	0.960285	0.333296
H120	H	0.553214	1.293619	0.666629
