data_functionalizedCrystal
_audit_creation_method	'MofGen! by Chris Wilmer'
_symmetry_space_group_name_H-M	'P1'
_symmetry_Int_Tables_number	1
_symmetry_cell_setting	triclinic
loop_
_symmetry_equiv_pos_as_xyz
  x,y,z
_cell_length_a	14.044220
_cell_length_b	14.044220
_cell_length_c	9.798715
_cell_angle_alpha	89.995876
_cell_angle_beta	90.001156
_cell_angle_gamma	93.188878
loop_
_atom_site_label
_atom_site_type_symbol
_atom_site_fract_x
_atom_site_fract_y
_atom_site_fract_z
O1	O	1.277167	0.230165	-0.113351
O2	O	1.527167	0.480165	0.136649
O3	O	1.777167	0.730165	0.386649
O4	O	2.027167	0.980165	0.636649
O5	O	1.000495	0.221860	-0.113386
O6	O	1.250495	0.471860	0.136614
O7	O	1.500495	0.721860	0.386614
O8	O	1.750495	0.971860	0.636614
O9	O	1.134678	0.087677	-0.113355
O10	O	1.384678	0.337677	0.136645
O11	O	1.634678	0.587677	0.386645
O12	O	1.884678	0.837677	0.636645
O13	O	1.142984	0.364348	-0.113381
O14	O	1.392984	0.614348	0.136619
O15	O	1.642984	0.864348	0.386619
O16	O	1.892984	1.114348	0.636619
O17	O	1.134667	0.087676	0.113627
O18	O	1.384667	0.337676	0.363627
O19	O	1.634667	0.587676	0.613627
O20	O	1.884667	0.837676	0.863627
O21	O	1.000485	0.221858	0.113597
O22	O	1.250485	0.471858	0.363597
O23	O	1.500485	0.721858	0.613597
O24	O	1.750485	0.971858	0.863597
O25	O	1.277156	0.230164	0.113631
O26	O	1.527156	0.480164	0.363631
O27	O	1.777156	0.730164	0.613631
O28	O	2.027156	0.980164	0.863631
Zn29	Zn	1.138819	0.226011	0.149652
Zn30	Zn	1.388819	0.476011	0.399652
Zn31	Zn	1.638819	0.726011	0.649652
Zn32	Zn	1.888819	0.976011	0.899652
Zn33	Zn	1.138833	0.226013	-0.149407
Zn34	Zn	1.388833	0.476013	0.100593
Zn35	Zn	1.638833	0.726013	0.350593
Zn36	Zn	1.888833	0.976013	0.600593
O37	O	1.142973	0.364347	0.113601
O38	O	1.392973	0.614347	0.363601
O39	O	1.642973	0.864347	0.613601
O40	O	1.892973	1.114347	0.863601
C41	C	0.964868	0.218223	0.000101
C42	C	1.214868	0.468223	0.250101
C43	C	1.464868	0.718223	0.500101
C44	C	1.714868	0.968223	0.750101
C45	C	0.858725	0.207379	0.000088
C46	C	1.108725	0.457379	0.250088
C47	C	1.358725	0.707379	0.500088
C48	C	1.608725	0.957379	0.750088
C49	C	0.664388	0.187553	0.000117
C50	C	0.914388	0.437553	0.250117
C51	C	1.164388	0.687553	0.500117
C52	C	1.414388	0.937553	0.750117
C53	C	0.613258	0.264467	0.000116
C54	C	0.863258	0.514467	0.250116
C55	C	1.113258	0.764467	0.500116
C56	C	1.363258	1.014467	0.750116
C57	C	0.505122	0.253435	0.000132
C58	C	0.755122	0.503435	0.250132
C59	C	1.005122	0.753435	0.500132
C60	C	1.255122	1.003435	0.750132
C61	C	0.772534	0.198583	0.000101
C62	C	1.022534	0.448583	0.250101
C63	C	1.272534	0.698583	0.500101
C64	C	1.522534	0.948583	0.750101
C65	C	1.131037	0.052054	0.000136
C66	C	1.381037	0.302054	0.250136
C67	C	1.631037	0.552054	0.500136
C68	C	1.881037	0.802054	0.750136
C69	C	1.120193	-0.054088	0.000136
C70	C	1.370193	0.195912	0.250136
C71	C	1.620193	0.445912	0.500136
C72	C	1.870193	0.695912	0.750136
C73	C	1.100366	-0.248426	0.000114
C74	C	1.350366	0.001574	0.250114
C75	C	1.600366	0.251574	0.500114
C76	C	1.850366	0.501574	0.750114
C77	C	1.177281	-0.299556	0.000119
C78	C	1.427281	-0.049556	0.250119
C79	C	1.677281	0.200444	0.500119
C80	C	1.927281	0.450444	0.750119
C81	C	1.166249	-0.407692	0.000107
C82	C	1.416249	-0.157692	0.250107
C83	C	1.666249	0.092308	0.500107
C84	C	1.916249	0.342308	0.750107
C85	C	1.111397	-0.140280	0.000126
C86	C	1.361397	0.109720	0.250126
C87	C	1.611397	0.359720	0.500126
C88	C	1.861397	0.609720	0.750126
C89	C	1.312783	0.233800	0.000141
C90	C	1.562783	0.483800	0.250141
C91	C	1.812783	0.733800	0.500141
C92	C	2.062783	0.983800	0.750141
C93	C	1.418926	0.244645	0.000145
C94	C	1.668926	0.494645	0.250145
C95	C	1.918926	0.744645	0.500145
C96	C	2.168926	0.994645	0.750145
C97	C	1.146614	0.399969	0.000107
C98	C	1.396614	0.649969	0.250107
C99	C	1.646614	0.899969	0.500107
C100	C	1.896614	1.149969	0.750107
C101	C	1.157459	0.506112	0.000097
C102	C	1.407459	0.756112	0.250097
C103	C	1.657459	1.006112	0.500097
C104	C	1.907459	1.256112	0.750097
N105	N	1.138816	0.226010	0.353752
N106	N	1.388816	0.476010	0.603752
N107	N	1.638816	0.726010	0.853752
N108	N	1.888816	0.976010	1.103752
N109	N	1.138843	0.226007	-0.353506
N110	N	1.388843	0.476007	-0.103506
N111	N	1.638843	0.726007	0.146494
N112	N	1.888843	0.976007	0.396494
C113	C	1.195135	0.169402	0.421541
C114	C	1.445135	0.419402	0.671541
C115	C	1.695135	0.669402	0.921541
C116	C	1.945135	0.919402	1.171541
C117	C	1.195150	0.169399	0.578704
C118	C	1.445150	0.419399	0.828704
C119	C	1.695150	0.669399	1.078704
C120	C	1.945150	0.919399	1.328704
H121	H	0.650697	0.338600	0.000102
H122	H	0.900697	0.588600	0.250102
H123	H	1.150697	0.838600	0.500102
H124	H	1.400697	1.088600	0.750102
H125	H	1.026239	-0.285863	0.000101
H126	H	1.276239	-0.035863	0.250101
H127	H	1.526239	0.214137	0.500101
H128	H	1.776239	0.464137	0.750101
Cl129	Cl	1.291738	-0.241757	0.000148
Cl130	Cl	1.541738	0.008243	0.250148
Cl131	Cl	1.791738	0.258243	0.500148
Cl132	Cl	2.041738	0.508243	0.750148
Cl133	Cl	1.269332	0.094343	0.331520
Cl134	Cl	1.519332	0.344343	0.581520
Cl135	Cl	1.769332	0.594343	0.831520
Cl136	Cl	2.019332	0.844343	1.081520
H137	H	0.626951	0.113425	0.000132
H138	H	0.876951	0.363425	0.250132
H139	H	1.126951	0.613425	0.500132
H140	H	1.376951	0.863425	0.750132
Cl141	Cl	1.269603	0.094575	0.668703
Cl142	Cl	1.519603	0.344575	0.918703
Cl143	Cl	1.769603	0.594575	1.168703
Cl144	Cl	2.019603	0.844575	1.418703
Cl145	Cl	1.064380	0.300832	0.443774
Cl146	Cl	1.314380	0.550832	0.693774
Cl147	Cl	1.564380	0.800832	0.943774
Cl148	Cl	1.814380	1.050832	1.193774
H149	H	1.090627	0.274478	0.588206
H150	H	1.340627	0.524478	0.838206
H151	H	1.590627	0.774478	1.088206
H152	H	1.840627	1.024478	1.338206
