data_functionalizedCrystal
_audit_creation_method	'MofGen! by Chris Wilmer'
_symmetry_space_group_name_H-M	'P1'
_symmetry_Int_Tables_number	1
_symmetry_cell_setting	triclinic
loop_
_symmetry_equiv_pos_as_xyz
  x,y,z
_cell_length_a	10.686220
_cell_length_b	13.032721
_cell_length_c	10.686551
_cell_angle_alpha	86.664748
_cell_angle_beta	89.691918
_cell_angle_gamma	100.973619
loop_
_atom_site_label
_atom_site_type_symbol
_atom_site_fract_x
_atom_site_fract_y
_atom_site_fract_z
Zn1	Zn	1.936448	-0.254400	0.604121
Zn2	Zn	1.893610	-0.443269	0.425347
Zn3	Zn	1.706806	-0.281093	0.414818
Zn4	Zn	1.700338	-0.441154	0.650778
O5	O	1.809301	-0.354979	0.523766
O6	O	2.107756	-0.269167	0.565287
O7	O	1.853609	-0.433812	0.250383
O8	O	1.757902	-0.131524	0.415997
O9	O	2.076284	-0.407929	0.433943
O10	O	1.926619	-0.111912	0.555077
O11	O	1.716365	-0.314662	0.242647
O12	O	1.528957	-0.312612	0.461238
O13	O	1.746880	-0.404324	0.818156
O14	O	1.524205	-0.430208	0.634597
O15	O	1.920348	-0.267117	0.783878
O16	O	1.847338	-0.589017	0.479184
O17	O	1.705342	-0.587463	0.644807
C18	C	1.480689	-0.374078	0.551838
C19	C	1.340107	-0.382271	0.563881
C20	C	1.771027	-0.626100	0.568225
C21	C	1.754773	-0.742077	0.587276
C22	C	1.817856	-0.794509	0.513873
C23	C	1.801058	-0.914377	0.533562
C24	C	2.139195	-0.335806	0.495585
C25	C	2.279776	-0.327636	0.483576
C26	C	1.837671	-0.332507	0.847280
C27	C	1.849761	-0.322931	0.985142
C28	C	1.847760	-0.082796	0.479158
C29	C	1.864150	0.033193	0.460149
C30	C	1.781124	-0.377284	0.201492
C31	C	1.769320	-0.386552	0.063562
H32	H	1.284201	-0.435326	0.641847
O33	O	1.676281	-0.460325	1.017697
C34	C	1.732278	-0.528697	0.947668
H35	H	1.831659	-0.487644	0.914169
H36	H	1.739567	-0.601800	1.009015
C37	C	1.527294	-0.610509	0.874698
C38	C	1.649351	-0.560084	0.833545
H39	H	1.476139	-0.629875	0.804305
H40	H	1.489566	-0.564449	0.921882
H41	H	1.533386	-0.671422	0.925822
H42	H	1.643260	-0.499165	0.782436
H43	H	1.687076	-0.606134	0.786350
H44	H	1.884306	-0.750658	0.436458
O45	O	1.721793	-0.966846	0.625838
C46	C	1.722685	-1.074845	0.624969
H47	H	1.753739	-1.093858	0.528147
H48	H	1.792143	-1.096671	0.697876
C49	C	1.549739	-1.114298	0.775244
C50	C	1.587871	-1.137652	0.656322
H51	H	1.466582	-1.153042	0.794590
H52	H	1.549141	-1.041537	0.775834
H53	H	1.607632	-1.132487	0.835986
H54	H	1.529988	-1.119450	0.595582
H55	H	1.588456	-1.210412	0.655723
H56	H	1.930604	-0.922959	0.382728
H57	H	1.688334	-0.785929	0.664699
O58	O	1.942855	-0.249229	1.031071
C59	C	1.934626	-0.255760	1.163112
H60	H	1.833715	-0.294408	1.194628
H61	H	2.004988	-0.304442	1.202582
C62	C	2.090846	-0.097460	1.172747
C63	C	1.966902	-0.144919	1.211455
H64	H	2.110760	-0.029089	1.202569
H65	H	2.096395	-0.093061	1.083788
H66	H	2.149466	-0.138039	1.205641
H67	H	1.908283	-0.104347	1.178548
H68	H	1.961344	-0.149309	1.300410
O69	O	1.346367	-0.264477	0.390405
C70	C	1.300094	-0.297552	0.273184
H71	H	1.251378	-0.383450	0.283510
H72	H	1.228570	-0.248220	0.238172
C73	C	1.471807	-0.178787	0.165799
C74	C	1.411982	-0.284291	0.178480
H75	H	1.540822	-0.170603	0.107378
H76	H	1.502980	-0.156500	0.244773
H77	H	1.412191	-0.137689	0.136628
H78	H	1.471593	-0.325385	0.207665
H79	H	1.380821	-0.306584	0.099508
