data_functionalizedCrystal
_audit_creation_method	'MofGen! by Chris Wilmer'
_symmetry_space_group_name_H-M	'P1'
_symmetry_Int_Tables_number	1
_symmetry_cell_setting	triclinic
loop_
_symmetry_equiv_pos_as_xyz
  x,y,z
_cell_length_a	16.625547
_cell_length_b	16.625539
_cell_length_c	17.640280
_cell_angle_alpha	78.776546
_cell_angle_beta	78.799399
_cell_angle_gamma	89.978691
loop_
_atom_site_label
_atom_site_type_symbol
_atom_site_fract_x
_atom_site_fract_y
_atom_site_fract_z
Zn1	Zn	1.297609	-0.391188	-0.314676
Zn2	Zn	1.797609	0.108812	0.185324
Zn3	Zn	1.324804	-0.229131	-0.446852
Zn4	Zn	1.824804	0.270869	0.053148
Zn5	Zn	1.162784	-0.256353	-0.314700
Zn6	Zn	1.662784	0.243647	0.185300
Zn7	Zn	1.190016	-0.363920	-0.446809
Zn8	Zn	1.690016	0.136080	0.053191
O9	O	1.243803	-0.310148	-0.380759
O10	O	1.743803	0.189852	0.119241
O11	O	1.414051	-0.369709	-0.332218
O12	O	1.914051	0.130291	0.167782
O13	O	1.303297	-0.119904	-0.429350
O14	O	1.803297	0.380096	0.070650
O15	O	1.157890	-0.297044	-0.204093
O16	O	1.657890	0.202956	0.295907
O17	O	1.434031	-0.250647	-0.429327
O18	O	1.934031	0.249353	0.070673
O19	O	1.256946	-0.396106	-0.204075
O20	O	1.756946	0.103894	0.295925
O21	O	1.184261	-0.139904	-0.332258
O22	O	1.684261	0.360096	0.167742
O23	O	1.053562	-0.270603	-0.332216
O24	O	1.553562	0.229397	0.167784
O25	O	1.204304	-0.480375	-0.429253
O26	O	1.704304	0.019625	0.070747
O27	O	1.073570	-0.349632	-0.429275
O28	O	1.573570	0.150368	0.070725
O29	O	1.283352	-0.500409	-0.332176
O30	O	1.783352	-0.000409	0.167824
O31	O	1.329703	-0.224206	-0.557450
O32	O	1.829703	0.275794	-0.057450
O33	O	1.230674	-0.323235	-0.557418
O34	O	1.730674	0.176765	-0.057418
C35	C	1.034309	-0.310113	-0.380744
C36	C	1.534309	0.189887	0.119256
C37	C	0.944691	-0.310113	-0.380756
C38	C	1.444691	0.189887	0.119244
C39	C	0.871909	-0.310123	-0.380758
C40	C	1.371909	0.189877	0.119242
C41	C	0.780601	-0.310142	-0.380762
C42	C	1.280601	0.189858	0.119238
C43	C	0.707826	-0.310161	-0.380769
C44	C	1.207826	0.189839	0.119231
C45	C	0.616513	-0.310179	-0.380775
C46	C	1.116513	0.189821	0.119225
C47	C	1.243832	-0.520468	-0.380707
C48	C	1.743832	-0.020468	0.119293
C49	C	1.243844	-0.610093	-0.380685
C50	C	1.743844	-0.110093	0.119315
C51	C	1.243854	-0.682879	-0.380667
C52	C	1.743854	-0.182879	0.119333
C53	C	1.243867	-0.774194	-0.380638
C54	C	1.743867	-0.274194	0.119362
C55	C	1.243880	-0.846976	-0.380610
C56	C	1.743880	-0.346976	0.119390
C57	C	1.243894	-0.938296	-0.380581
C58	C	1.743894	-0.438296	0.119419
C59	C	1.454115	-0.310183	-0.380775
C60	C	1.954115	0.189817	0.119225
C61	C	1.543738	-0.310198	-0.380782
C62	C	2.043738	0.189802	0.119218
C63	C	1.286117	-0.267826	-0.586113
C64	C	1.786117	0.232174	-0.086113
C65	C	1.304292	-0.249747	-0.673964
C66	C	1.804292	0.250253	-0.173964
C67	C	1.243809	-0.100658	-0.380754
C68	C	1.743809	0.399342	0.119246
C69	C	1.243907	-0.011079	-0.380554
C70	C	1.743907	0.488921	0.119446
C71	C	1.106056	-0.447783	-0.962949
C72	C	1.606056	0.052217	-0.462949
C73	C	1.123137	-0.430770	-1.045499
C74	C	1.623137	0.069230	-0.545499
C75	C	1.226319	-0.327755	-1.045467
C76	C	1.726319	0.172245	-0.545467
C77	C	1.209250	-0.344763	-0.962915
C78	C	1.709250	0.155237	-0.462915
C79	C	1.149117	-0.404777	-0.921663
C80	C	1.649117	0.095223	-0.421663
C81	C	1.252311	-0.301757	-0.921629
C82	C	1.752311	0.198243	-0.421629
C83	C	1.235240	-0.318760	-0.839085
C84	C	1.735240	0.181240	-0.339085
C85	C	1.175108	-0.378770	-0.797827
C86	C	1.675108	0.121230	-0.297827
C87	C	1.132046	-0.421780	-0.839119
C88	C	1.632046	0.078220	-0.339119
C89	C	1.312439	-0.241739	-0.962883
C90	C	1.812439	0.258261	-0.462883
C91	C	1.355500	-0.198733	-0.921597
C92	C	1.855500	0.301267	-0.421597
C93	C	1.338434	-0.215740	-0.839052
C94	C	1.838434	0.284260	-0.339052
C95	C	1.278302	-0.275750	-0.797794
C96	C	1.778302	0.224250	-0.297794
C97	C	1.381496	-0.172729	-0.797760
C98	C	1.881496	0.327271	-0.297760
C99	C	1.364425	-0.189733	-0.715216
C100	C	1.864425	0.310267	-0.215216
C101	C	1.261231	-0.292753	-0.715250
C102	C	1.761231	0.207247	-0.215250
C103	C	1.201347	-0.352653	-0.174604
C104	C	1.701347	0.147347	0.325396
C105	C	1.183254	-0.370766	-0.086753
C106	C	1.683254	0.129234	0.413247
H107	H	1.212271	-0.341629	-0.681661
H108	H	1.712271	0.158371	-0.181661
F109	F	1.445486	-0.108856	-0.841674
F110	F	1.945486	0.391144	-0.341674
F111	F	1.410249	-0.143955	-0.671274
F112	F	1.910249	0.356045	-0.171274
H113	H	1.404458	-0.149867	-0.955196
H114	H	1.904458	0.350133	-0.455196
H115	H	1.161205	-0.392607	-0.730615
H116	H	1.661205	0.107393	-0.230615
H117	H	1.088076	-0.465805	-1.079111
H118	H	1.588076	0.034195	-0.579111
F119	F	1.068053	-0.485662	-0.795211
F120	F	1.568053	0.014338	-0.295211
H121	H	1.275276	-0.278890	-1.079065
H122	H	1.775276	0.221110	-0.579065
H123	H	1.057096	-0.496659	-0.929360
H124	H	1.557096	0.003341	-0.429360
F125	F	1.330628	-0.223666	-1.050735
F126	F	1.830628	0.276334	-0.550735
