data_functionalizedCrystal
_audit_creation_method	'MofGen! by Chris Wilmer'
_symmetry_space_group_name_H-M	'P1'
_symmetry_Int_Tables_number	1
_symmetry_cell_setting	triclinic
loop_
_symmetry_equiv_pos_as_xyz
  x,y,z
_cell_length_a	15.995355
_cell_length_b	9.616153
_cell_length_c	10.540539
_cell_angle_alpha	90.003639
_cell_angle_beta	95.990151
_cell_angle_gamma	90.001347
loop_
_atom_site_label
_atom_site_type_symbol
_atom_site_fract_x
_atom_site_fract_y
_atom_site_fract_z
O1	O	-1.111960	0.115504	0.163647
O2	O	-0.868306	0.115536	0.183846
O3	O	-0.995691	0.115517	-0.011036
O4	O	-0.984574	0.115522	0.358529
O5	O	-0.995685	-0.115774	-0.011047
O6	O	-0.868299	-0.115756	0.183835
O7	O	-1.111953	-0.115787	0.163637
Zn8	Zn	-0.990125	-0.152494	0.173734
Zn9	Zn	-0.990134	0.152242	0.173748
O10	O	-0.984567	-0.115769	0.358519
C11	C	-0.837103	-0.000106	0.183005
C12	C	-0.744137	-0.000094	0.180498
N13	N	-0.990125	-0.360469	0.173724
C14	C	-0.573925	-0.000113	0.175948
C15	C	-0.549738	-0.000115	0.035266
C16	C	-0.453045	-0.000648	0.032612
C17	C	-0.406339	-0.000131	0.171467
C18	C	-0.435850	-0.131946	0.242200
C19	C	-0.532651	-0.132048	0.243875
C20	C	-0.532582	0.130983	0.245947
C21	C	-0.436057	0.132707	0.240747
C22	C	-0.311626	-0.000145	0.168942
C23	C	-0.668637	-0.000108	0.178478
C24	C	-1.058306	-0.419477	0.069487
C25	C	-1.058560	-0.580644	0.069770
C26	C	-1.009649	-0.581249	0.306357
C27	C	-1.010131	-0.420032	0.305732
C28	C	-0.902237	-0.419892	0.146548
C29	C	-0.902816	-0.581120	0.143553
C30	C	-0.143157	-0.000144	0.164461
C31	C	-0.236126	-0.000150	0.166918
C32	C	-0.994854	-0.000126	-0.058333
C33	C	-0.992360	-0.000118	-0.199247
N34	N	-0.990140	0.360217	0.173748
C35	C	-0.896777	0.000414	-0.381362
C36	C	-0.899305	-0.000107	-0.234779
C37	C	-1.037138	-0.132202	-0.261525
C38	C	-1.033962	-0.132313	-0.408026
C39	C	-1.035862	0.130708	-0.408558
C40	C	-1.036719	0.132454	-0.261588
C41	C	-0.985404	-0.000123	0.405816
C42	C	-0.987899	-0.000122	0.546729
H43	H	-0.433697	0.093823	-0.022757
O44	O	-0.835021	-0.369341	0.247228
H45	H	-0.773168	-0.411743	0.227392
O46	O	-1.127657	-0.138736	-0.233159
H47	H	-1.138149	-0.236005	-0.180389
H48	H	-0.404614	-0.136476	0.344393
O49	O	-0.408860	-0.262396	0.177913
H50	H	-0.465210	-0.324668	0.143910
O51	O	-1.093618	-0.634697	0.338724
H52	H	-1.092083	-0.750012	0.342937
O53	O	-1.126590	0.143008	-0.230746
H54	H	-1.156014	0.237644	-0.276172
H55	H	-0.961331	-0.619553	0.385820
O56	O	-0.877540	-0.366079	0.021144
H57	H	-0.927639	-0.296371	-0.023215
O58	O	-0.587699	-0.125140	-0.035796
H59	H	-0.570245	-0.124130	-0.134982
O60	O	-0.852619	0.125290	-0.177680
H61	H	-0.828026	0.186850	-0.254757
O62	O	-0.996007	0.263317	-0.449870
H63	H	-1.030973	0.354015	-0.417232
H64	H	-1.003956	0.230167	-0.220276
H65	H	-0.888022	-0.619378	0.045998
H66	H	-0.849670	-0.621371	0.214522
H67	H	-1.006027	-0.230487	-0.218503
H68	H	-1.000863	-0.231041	-0.435776
O69	O	-1.122605	-0.140312	-0.472787
H70	H	-1.121003	-0.140453	-0.577808
H71	H	-0.417194	0.230226	0.189237
O72	O	-1.124892	0.131896	-0.472338
H73	H	-1.134971	0.039813	-0.535585
H74	H	-0.860021	0.095134	-0.409454
H75	H	-0.577422	0.094397	-0.019257
H76	H	-0.559145	-0.230957	0.195457
O77	O	-0.569666	0.263379	0.187160
H78	H	-0.617983	0.237214	0.107386
H79	H	-0.860165	-0.093767	-0.411072
H80	H	-0.863819	-0.094940	-0.192540
H81	H	-0.434276	-0.095693	-0.022506
H82	H	-0.403706	0.141076	0.342064
O83	O	-0.552785	-0.139507	0.380522
H84	H	-0.493401	-0.143037	0.445116
H85	H	-0.547214	0.132255	0.349498
H86	H	-1.046880	-0.620222	-0.028787
H87	H	-1.123147	-0.378943	0.086644
O88	O	-1.043069	-0.368162	-0.061513
H89	H	-1.046041	-0.252853	-0.063435
O90	O	-1.144937	-0.631751	0.092872
H91	H	-1.186687	-0.541315	0.103898
H92	H	-0.962243	-0.380994	0.385469
O93	O	-1.095052	-0.370201	0.337327
H94	H	-1.135390	-0.461252	0.352903
