data_functionalizedCrystal
_audit_creation_method	'MofGen! by Chris Wilmer'
_symmetry_space_group_name_H-M	'P1'
_symmetry_Int_Tables_number	1
_symmetry_cell_setting	triclinic
loop_
_symmetry_equiv_pos_as_xyz
  x,y,z
_cell_length_a	14.185569
_cell_length_b	11.026607
_cell_length_c	11.026607
_cell_angle_alpha	108.586017
_cell_angle_beta	73.887065
_cell_angle_gamma	106.113505
loop_
_atom_site_label
_atom_site_type_symbol
_atom_site_fract_x
_atom_site_fract_y
_atom_site_fract_z
O1	O	0.083415	-1.704139	-0.556200
O2	O	0.083417	-1.337559	-0.495437
O3	O	0.083413	-1.490468	-0.342528
O4	O	0.083420	-1.551230	-0.709110
O5	O	-0.083423	-1.535640	-0.297363
O6	O	-0.083419	-1.382731	-0.450273
O7	O	-0.083420	-1.749311	-0.511036
Cu8	Cu	-0.098653	-1.570145	-0.476530
Cu9	Cu	0.098650	-1.516724	-0.529943
O10	O	-0.083416	-1.596402	-0.663945
C11	C	-0.000001	-1.312485	-0.461645
C12	C	-0.000000	-1.170471	-0.428228
N13	N	-0.237425	-1.607728	-0.438964
C14	C	-0.000004	-1.501844	-0.272286
C15	C	-0.000000	-1.468426	-0.130273
C16	C	-0.605068	-1.368719	-0.677814
C17	C	-0.710091	-1.397198	-0.649369
C18	C	-0.710056	-1.532648	-0.514040
C19	C	-0.605031	-1.504175	-0.542469
C20	C	-0.552546	-1.422211	-0.624358
C21	C	-0.552508	-1.557668	-0.489012
C22	C	-0.447493	-1.529202	-0.517445
C23	C	-0.395000	-1.447245	-0.599334
C24	C	-0.447530	-1.393746	-0.652790
C25	C	-0.604996	-1.639639	-0.407131
C26	C	-0.552473	-1.693132	-0.353675
C27	C	-0.447456	-1.664659	-0.382099
C28	C	-0.394963	-1.582701	-0.463988
C29	C	-0.394926	-1.718158	-0.328643
C30	C	-0.289910	-1.689692	-0.357075
C31	C	-0.289948	-1.554236	-0.492421
N32	N	0.237422	-1.479149	-0.567501
C33	C	-0.000001	-1.774384	-0.544828
C34	C	0.000005	-1.916396	-0.578247
C35	C	0.000002	-1.116821	-0.520499
C36	C	0.000003	-0.970042	-0.485963
C37	C	0.000003	-1.585025	-0.734187
C38	C	0.000006	-1.618441	-0.876202
C39	C	0.000001	-1.560695	-0.076624
C40	C	0.000005	-1.526158	0.070153
H41	H	-0.247212	-1.487481	-0.559092
H42	H	0.000012	-1.421587	0.132880
C43	C	-0.452098	-1.807070	-0.239721
C44	C	-0.555308	-1.820531	-0.226245
C45	C	-0.608004	-1.902415	-0.144327
H46	H	-0.434989	-1.890547	-0.276746
H47	H	-0.434953	-1.769989	-0.156251
H48	H	-0.572446	-1.857616	-0.309699
H49	H	-0.572447	-1.737079	-0.189205
H50	H	-0.590859	-1.865334	-0.060857
H51	H	-0.590887	-1.985885	-0.181361
H52	H	-0.678037	-1.911550	-0.135163
H53	H	-0.309490	-1.424074	-0.622487
H54	H	0.000007	-1.363861	-0.067542
C55	C	-0.766921	-1.621479	-0.424939
C56	C	-0.741358	-1.566534	-0.302116
C57	C	-0.793712	-1.648328	-0.220000
H58	H	-0.837001	-1.630823	-0.415499
H59	H	-0.749678	-1.704894	-0.461986
H60	H	-0.758607	-1.483142	-0.265077
H61	H	-0.671286	-1.557193	-0.311515
H62	H	-0.776469	-1.731743	-0.257047
H63	H	-0.863789	-1.657666	-0.210571
H64	H	-0.776367	-1.611065	-0.136660
H65	H	-0.404795	-1.326991	-0.719462
H66	H	-0.562333	-1.301964	-0.744486
C67	C	-0.000045	-1.757815	0.039965
C68	C	-0.000071	-1.764376	-0.088941
C69	C	-0.000130	-1.892746	-0.166200
H70	H	0.058119	-1.783427	0.041682
H71	H	-0.058248	-1.814833	0.073275
H72	H	0.058126	-1.707377	-0.122242
H73	H	-0.058231	-1.738791	-0.090698
H74	H	-0.058333	-1.949764	-0.132890
H75	H	0.058034	-1.918346	-0.164473
H76	H	-0.000157	-1.897217	-0.253669
C77	C	-0.766935	-1.338919	-0.707472
C78	C	-0.698489	-1.261019	-0.785240
C79	C	-0.750817	-1.207298	-0.838767
H80	H	-0.807903	-1.407322	-0.759557
H81	H	-0.807884	-1.286893	-0.638934
H82	H	-0.657557	-1.313043	-0.853768
H83	H	-0.657519	-1.192595	-0.733185
H84	H	-0.791766	-1.155272	-0.770229
H85	H	-0.791783	-1.275710	-0.890845
H86	H	-0.704384	-1.154428	-0.891528
C87	C	0.000079	-1.000223	-0.717627
C88	C	0.000111	-1.129128	-0.724190
C89	C	0.000202	-1.206378	-0.852568
H90	H	-0.058076	-0.998515	-0.743264
H91	H	0.058290	-0.966899	-0.774624
H92	H	-0.058094	-1.162442	-0.667212
H93	H	0.058262	-1.130876	-0.698578
H94	H	0.058414	-1.173054	-0.909565
H95	H	-0.057954	-1.204660	-0.878194
H96	H	0.000234	-1.293845	-0.857040
H97	H	-0.247146	-1.733253	-0.313546
H98	H	-0.690506	-1.662818	-0.383990
H99	H	0.000027	-0.907306	-0.381400
C100	C	-0.000051	-1.087069	-0.288710
C101	C	-0.000077	-1.165016	-0.210271
C102	C	-0.000137	-1.088238	-0.081734
H103	H	0.058112	-1.018823	-0.287407
H104	H	-0.058254	-1.050374	-0.256020
H105	H	0.058120	-1.201690	-0.242953
H106	H	-0.058236	-1.233260	-0.211535
H107	H	-0.058340	-1.051543	-0.049044
H108	H	0.058027	-1.019995	-0.080445
H109	H	-0.000164	-1.141116	-0.028495
H110	H	-0.000006	-1.665260	-0.139356
H111	H	-0.595219	-1.759872	-0.287003
H112	H	-0.000001	-1.179555	-0.625061
