data_functionalizedCrystal
_audit_creation_method	'MofGen! by Chris Wilmer'
_symmetry_space_group_name_H-M	'P1'
_symmetry_Int_Tables_number	1
_symmetry_cell_setting	triclinic
loop_
_symmetry_equiv_pos_as_xyz
  x,y,z
_cell_length_a	17.019372
_cell_length_b	17.038272
_cell_length_c	10.868271
_cell_angle_alpha	89.994627
_cell_angle_beta	93.872102
_cell_angle_gamma	87.242864
loop_
_atom_site_label
_atom_site_type_symbol
_atom_site_fract_x
_atom_site_fract_y
_atom_site_fract_z
O1	O	1.053348	0.099573	0.009191
O2	O	0.824539	0.112280	-0.015035
O3	O	0.937584	-0.007888	-0.003056
O4	O	0.940304	0.219741	-0.002787
O5	O	0.937574	-0.007892	0.201588
O6	O	0.824529	0.112276	0.189609
O7	O	1.053338	0.099569	0.213835
Zn8	Zn	0.938932	0.105921	0.234213
Zn9	Zn	0.938945	0.105927	-0.035413
O10	O	0.940293	0.219736	0.201856
C11	C	0.795113	0.111797	0.084172
C12	C	0.707447	0.110355	0.074890
C13	C	0.935105	-0.037016	0.099004
C14	C	0.927725	-0.123802	0.098222
C15	C	0.211628	0.102173	0.016717
C16	C	0.293999	0.103528	0.025454
C17	C	0.335171	0.104209	0.141376
C18	C	0.293968	0.103527	0.248566
C19	C	0.211598	0.102166	0.239827
C20	C	0.583874	0.108312	0.173342
C21	C	0.666249	0.109675	0.182073
C22	C	0.666275	0.109675	-0.041040
C23	C	0.583904	0.108319	-0.049768
C24	C	0.542708	0.107633	0.057422
C25	C	0.419368	0.105597	0.150310
C26	C	0.458513	0.106240	0.048487
C27	C	0.995484	-0.173976	0.105398
C28	C	0.988545	-0.255521	0.104651
C29	C	0.913846	-0.286889	0.096738
C30	C	0.846081	-0.236709	0.089558
C31	C	0.853021	-0.155166	0.090296
C32	C	0.889328	-0.532626	0.094125
C33	C	0.882393	-0.614175	0.093392
C34	C	1.024857	-0.632981	0.108483
C35	C	1.031791	-0.551436	0.109227
C36	C	0.964026	-0.501263	0.102041
C37	C	0.906751	-0.370241	0.095979
C38	C	0.971122	-0.417913	0.102791
C39	C	1.082764	0.100052	0.114625
C40	C	1.170430	0.101494	0.123899
C41	C	0.942772	0.248865	0.099794
C42	C	0.950152	0.335651	0.100567
N43	N	0.938928	0.105917	0.418227
N44	N	0.938955	0.105926	-0.219426
C45	C	0.938941	0.105926	0.669235
C46	C	0.938932	0.105923	0.529556
H47	H	0.178111	0.101625	-0.077679
Cl48	Cl	0.718007	0.110530	0.327813
Cl49	Cl	1.073732	-0.318594	0.113676
H50	H	0.327539	0.104077	-0.061825
H51	H	1.092618	-0.525902	0.115671
H52	H	0.550343	0.107742	0.260624
H53	H	1.080027	-0.673841	0.114331
H54	H	0.452899	0.106152	0.244693
H55	H	0.424987	0.105683	-0.045896
H56	H	0.785260	-0.262256	0.083107
Cl57	Cl	0.345727	0.104381	0.394297
H58	H	0.821561	-0.639711	0.086968
H59	H	0.797844	-0.114314	0.084453
Cl60	Cl	0.532151	0.107464	-0.195504
H61	H	1.056312	-0.148443	0.111849
H62	H	1.031941	-0.392369	0.109207
H63	H	0.699826	0.110233	-0.128308
Cl64	Cl	0.159807	0.101305	0.374577
Cl65	Cl	0.804137	-0.469561	0.085088
Cl66	Cl	0.812846	-0.409683	0.086025
