data_functionalizedCrystal
_audit_creation_method	'MofGen! by Chris Wilmer'
_symmetry_space_group_name_H-M	'P1'
_symmetry_Int_Tables_number	1
_symmetry_cell_setting	triclinic
loop_
_symmetry_equiv_pos_as_xyz
  x,y,z
_cell_length_a	28.938199
_cell_length_b	28.937346
_cell_length_c	28.934044
_cell_angle_alpha	60.005004
_cell_angle_beta	60.009897
_cell_angle_gamma	59.994060
loop_
_atom_site_label
_atom_site_type_symbol
_atom_site_fract_x
_atom_site_fract_y
_atom_site_fract_z
O1	O	0.064043	-0.675186	0.564597
O2	O	0.024124	-0.525682	0.454913
O3	O	0.118795	-0.620275	0.454833
O4	O	-0.030629	-0.580593	0.564678
O5	O	0.150204	-0.588870	0.486157
O6	O	0.055533	-0.494276	0.486238
O7	O	0.095452	-0.643780	0.595921
Cu8	Cu	0.078360	-0.566161	0.543940
Cu9	Cu	0.041215	-0.603301	0.506895
O10	O	0.000780	-0.549187	0.596002
N11	N	0.104487	-0.540042	0.569998
N12	N	0.015094	-0.629425	0.480837
C13	C	0.165467	-0.323909	0.630915
C14	C	0.165587	-0.479117	0.786068
C15	C	0.165481	-0.479095	0.630906
C16	C	0.320696	-0.479083	0.630835
C17	C	0.182557	-0.375118	0.647971
C18	C	0.182626	-0.462038	0.734858
C19	C	0.269485	-0.462018	0.647928
C20	C	0.182566	-0.462025	0.647966
C21	C	0.143714	-0.258726	0.609206
C22	C	0.143738	-0.500820	0.609192
C23	C	0.204309	-0.440300	0.669680
C24	C	0.415481	-0.462740	0.580919
C25	C	0.474732	-0.482485	0.561145
C26	C	0.474757	-0.578356	0.597704
C27	C	0.415508	-0.558609	0.617479
C28	C	0.157989	-0.229089	0.550957
C29	C	0.138212	-0.169834	0.531225
C30	C	0.089890	-0.169857	0.627992
C31	C	0.109667	-0.229112	0.647725
C32	C	0.085482	-0.486515	0.623535
C33	C	0.065722	-0.506265	0.603789
C34	C	0.162467	-0.554625	0.555370
C35	C	0.182230	-0.534875	0.575110
C36	C	0.085661	-0.486557	0.880902
C37	C	0.065952	-0.506323	0.940155
C38	C	0.162734	-0.554693	0.940102
C39	C	0.182441	-0.534928	0.880847
C40	C	0.143904	-0.500859	0.851249
C41	C	0.385871	-0.500801	0.609083
C42	C	-0.110907	-0.668480	0.441278
C43	C	-0.024049	-0.668588	0.441475
C44	C	-0.045729	-0.690282	0.419668
C45	C	-0.062146	-0.785032	0.469507
C46	C	-0.042446	-0.844287	0.489286
C47	C	0.053426	-0.844399	0.452899
C48	C	0.033725	-0.785144	0.433120
C49	C	-0.140617	-0.682751	0.499509
C50	C	-0.199867	-0.662928	0.519152
C51	C	-0.199694	-0.614571	0.422330
C52	C	-0.140443	-0.634393	0.402687
C53	C	-0.038320	-0.610337	0.427144
C54	C	-0.018610	-0.590621	0.446974
C55	C	0.029642	-0.687402	0.495454
C56	C	0.009933	-0.707121	0.475630
C57	C	-0.038148	-0.610347	0.324832
C58	C	-0.018301	-0.590634	0.265579
C59	C	0.030035	-0.687421	0.265643
C60	C	0.010190	-0.707133	0.324897
C61	C	-0.023903	-0.668595	0.354491
C62	C	-0.024062	-0.755463	0.441426
N63	N	0.503527	-0.540005	0.569810
O64	O	0.684453	-0.545211	0.434650
O65	O	0.684643	-0.655237	0.584005
O66	O	0.684567	-0.654986	0.489282
O67	O	0.684529	-0.545462	0.529373
O68	O	0.590438	-0.623674	0.520735
O69	O	0.590513	-0.623924	0.615457
O70	O	0.590323	-0.513899	0.466102
Cu71	Cu	0.581823	-0.566053	0.543652
Cu72	Cu	0.693143	-0.603083	0.506456
O73	O	0.590399	-0.514149	0.560825
N74	N	0.771439	-0.629131	0.480292
N75	N	0.104456	-0.141061	0.570015
O76	O	-0.030629	0.039964	0.564688
O77	O	0.118732	0.039984	0.454661
O78	O	0.023980	0.039958	0.454946
O79	O	0.064123	0.039990	0.564403
O80	O	0.055392	-0.054179	0.486321
O81	O	0.150144	-0.054153	0.486036
O82	O	0.000784	-0.054173	0.596063
Cu83	Cu	0.078332	-0.062759	0.543914
Cu84	Cu	0.041183	0.048570	0.506810
O85	O	0.095535	-0.054147	0.595778
N86	N	0.015053	0.126872	0.480710
N87	N	0.104760	-0.540096	0.968910
O88	O	0.099447	-0.675167	1.149923
O89	O	-0.010552	-0.525757	1.149951
O90	O	-0.010297	-0.620493	1.149918
O91	O	0.099192	-0.580431	1.149956
O92	O	0.021064	-0.589100	1.055785
O93	O	0.020809	-0.494365	1.055818
O94	O	0.130808	-0.643774	1.055790
Cu95	Cu	0.078672	-0.566203	1.047209
Cu96	Cu	0.041584	-0.603328	1.158532
O97	O	0.130553	-0.549038	1.055823
N98	N	0.015495	-0.629442	1.236831
C99	C	0.036087	-0.491140	0.455465
C100	C	0.153325	-0.608283	0.455364
C101	C	0.083488	-0.678322	0.595370
C102	C	-0.033750	-0.561180	0.595470
C103	C	0.637601	-0.654732	0.618548
C104	C	0.637509	-0.654422	0.501245
C105	C	0.637362	-0.514403	0.431560
C106	C	0.637458	-0.514713	0.548862
C107	C	0.153215	-0.006966	0.455158
C108	C	0.035916	-0.007114	0.455550
C109	C	-0.033739	-0.007106	0.595527
C110	C	0.083600	-0.007076	0.595174
C111	C	-0.010020	-0.491238	1.102888
C112	C	-0.009698	-0.608550	1.102828
C113	C	0.130276	-0.678293	1.102853
C114	C	0.129961	-0.560974	1.102892
H115	H	0.018524	-0.494668	0.964293
O116	O	0.093741	-0.729596	0.636398
C117	C	0.149369	-0.764698	0.615866
H118	H	0.164297	-0.749274	0.567656
H119	H	0.150139	-0.810068	0.633155
H120	H	0.178652	-0.763138	0.630185
H121	H	-0.044080	-0.617108	1.102779
O122	O	0.171409	-0.729523	1.102866
C123	C	0.151043	-0.764736	1.102831
H124	H	0.102833	-0.749405	1.120653
H125	H	0.168403	-0.810082	1.130150
H126	H	0.165423	-0.763197	1.057665
H127	H	0.196022	-0.006699	0.420530
O128	O	-0.079530	-0.872924	0.516641
C129	C	-0.134762	-0.834019	0.519755
H130	H	-0.137025	-0.791775	0.515810
H131	H	-0.166101	-0.851070	0.562109
H132	H	-0.145823	-0.827754	0.483865
O133	O	0.170985	-0.550813	1.102997
C134	C	0.186239	-0.589626	1.151737
H135	H	0.149986	-0.606216	1.185810
H136	H	0.195414	-0.567572	1.168109
H137	H	0.225652	-0.626475	1.140706
O138	O	-0.111985	-0.715918	0.537048
C139	C	-0.126514	-0.765582	0.571273
H140	H	-0.169512	-0.757583	0.571767
H141	H	-0.128616	-0.778069	0.616236
H142	H	-0.093162	-0.801250	0.553493
H143	H	0.054276	-0.458811	0.856808
H144	H	0.027318	-0.007118	0.421162
O145	O	-0.084870	-0.007209	0.636786
C146	C	-0.077387	-0.055950	0.684484
H147	H	-0.035943	-0.090027	0.670844
H148	H	-0.114097	-0.072321	0.704754
H149	H	-0.076071	-0.044917	0.716422
O150	O	0.200246	-0.587800	0.968766
C151	C	0.255880	-0.596173	0.929887
H152	H	0.255743	-0.589539	0.887655
H153	H	0.284029	-0.641115	0.946984
H154	H	0.272853	-0.564638	0.923585
O155	O	-0.051205	-0.440023	1.102796
C156	C	-0.066415	-0.414972	1.054047
H157	H	-0.030065	-0.433695	1.019968
H158	H	-0.075771	-0.367343	1.037693
H159	H	-0.105707	-0.423622	1.065060
H160	H	0.054136	-0.458786	0.651283
O161	O	0.239017	-0.548889	0.852018
C162	C	0.253317	-0.578700	0.817730
H163	H	0.219921	-0.598756	0.835598
H164	H	0.296340	-0.613227	0.817035
H165	H	0.255255	-0.548225	0.772831
H166	H	0.196241	-0.616742	0.420869
O167	O	-0.084971	-0.550992	0.636570
C168	C	-0.120150	-0.495382	0.616107
H169	H	-0.092896	-0.468503	0.579754
H170	H	-0.147261	-0.476430	0.651626
H171	H	-0.148737	-0.496244	0.600393
H172	H	-0.029909	-0.543201	0.241439
H173	H	0.637649	-0.689271	0.661445
O174	O	0.637500	-0.695401	0.490929
C175	C	0.637457	-0.674786	0.435299
H176	H	0.619594	-0.626574	0.420426
H177	H	0.610136	-0.692041	0.434499
H178	H	0.682604	-0.689072	0.405988
O179	O	0.199888	-0.587624	0.522184
C180	C	0.234124	-0.557696	0.472492
H181	H	0.211228	-0.510291	0.464270
H182	H	0.243065	-0.568288	0.435166
H183	H	0.275762	-0.570308	0.477858
O184	O	0.093955	-0.007101	0.636150
C185	C	0.149586	-0.007080	0.615516
H186	H	0.176347	-0.024894	0.579178
H187	H	0.168653	-0.034413	0.650954
H188	H	0.148744	0.038084	0.599731
O189	O	0.637314	-0.473260	0.380352
C190	C	0.637281	-0.493634	0.345137
H191	H	0.655150	-0.541846	0.360440
H192	H	0.664559	-0.476251	0.299787
H193	H	0.592110	-0.479279	0.346708
O194	O	0.025978	-0.439884	0.414379
C195	C	0.064820	-0.414747	0.399118
H196	H	0.081385	-0.433490	0.435397
H197	H	0.042805	-0.367135	0.389874
H198	H	0.101677	-0.423288	0.359744
H199	H	0.018285	-0.494604	0.615454
H200	H	0.057785	-0.718806	0.241554
H201	H	0.637450	-0.480310	0.557440
H202	H	0.498884	-0.625426	0.604536
O203	O	0.238814	-0.548668	0.561115
C204	C	0.253100	-0.498872	0.531304
H205	H	0.219672	-0.463278	0.511276
H206	H	0.296099	-0.506665	0.496757
H207	H	0.255083	-0.486407	0.561771
H208	H	0.149834	-0.145702	0.483792
H209	H	0.391402	-0.589605	0.640414
H210	H	-0.223743	-0.586821	0.390905
O211	O	0.503473	-0.445477	0.533698
C212	C	0.488947	-0.405244	0.484868
H213	H	0.472643	-0.423503	0.471265
H214	H	0.527897	-0.394395	0.449287
H215	H	0.454555	-0.365302	0.494565
O216	O	0.386603	-0.406599	0.572792
C217	C	0.327957	-0.397329	0.596294
H218	H	0.319864	-0.433546	0.599149
H219	H	0.305417	-0.355712	0.568281
H220	H	0.311167	-0.395234	0.640454
O221	O	0.191035	-0.257767	0.513463
C222	C	0.199400	-0.218900	0.457817
H223	H	0.163667	-0.176667	0.457943
H224	H	0.199691	-0.236017	0.429692
H225	H	0.241604	-0.212588	0.440821
H226	H	0.062174	-0.145744	0.659359
H227	H	-0.224058	-0.674545	0.566571
O228	O	0.095768	-0.257812	0.704327
C229	C	0.061462	-0.218964	0.734090
H230	H	0.069003	-0.176720	0.705832
H231	H	0.072593	-0.236089	0.773622
H232	H	0.015052	-0.212671	0.746882
O233	O	0.109543	-0.873260	0.444936
C234	C	0.117504	-0.907541	0.497869
H235	H	0.079960	-0.889646	0.531995
H236	H	0.158009	-0.908261	0.496296
H237	H	0.120981	-0.952436	0.508120
H238	H	-0.065911	-0.578960	0.348925
H239	H	-0.065985	-0.578958	0.399332
O240	O	0.024060	-0.763737	0.353618
C241	C	0.058414	-0.793522	0.314790
H242	H	0.050932	-0.765263	0.272511
H243	H	0.047278	-0.833034	0.331880
H244	H	0.104809	-0.806352	0.308583
H245	H	-0.030233	-0.543188	0.435308
H246	H	0.021552	-0.754553	0.487300
O247	O	0.062627	-0.724911	0.528642
C248	C	0.071008	-0.780551	0.537020
H249	H	0.035316	-0.780400	0.530311
H250	H	0.071238	-0.808672	0.581986
H251	H	0.113246	-0.797573	0.505540
O252	O	-0.118254	-0.756132	0.477467
C253	C	-0.126205	-0.721876	0.424527
H254	H	-0.085430	-0.713061	0.391577
H255	H	-0.161759	-0.680177	0.427886
H256	H	-0.137857	-0.744689	0.411309
H257	H	-0.116252	-0.622767	0.355267
O258	O	0.070795	-0.756508	0.405875
C259	C	0.126025	-0.795414	0.402777
H260	H	0.123711	-0.837633	0.437777
H261	H	0.150325	-0.778327	0.408208
H262	H	0.148697	-0.801744	0.359844
