data_functionalizedCrystal
_audit_creation_method	'MofGen! by Chris Wilmer'
_symmetry_space_group_name_H-M	'P1'
_symmetry_Int_Tables_number	1
_symmetry_cell_setting	triclinic
loop_
_symmetry_equiv_pos_as_xyz
  x,y,z
_cell_length_a	11.026607
_cell_length_b	16.974885
_cell_length_c	15.455341
_cell_angle_alpha	96.647249
_cell_angle_beta	92.339460
_cell_angle_gamma	95.963696
loop_
_atom_site_label
_atom_site_type_symbol
_atom_site_fract_x
_atom_site_fract_y
_atom_site_fract_z
O1	O	0.154782	1.071294	0.003003
O2	O	0.173436	0.843059	-0.013005
O3	O	-0.012599	0.938261	-0.006324
O4	O	0.340817	0.976092	-0.003677
O5	O	-0.003101	0.945815	0.138467
O6	O	0.182934	0.850613	0.131786
O7	O	0.164279	1.078849	0.147794
Cu8	Cu	0.174474	0.965421	0.153011
Cu9	Cu	0.163242	0.956487	-0.018221
O10	O	0.350314	0.983647	0.141114
C11	C	0.177301	0.817163	0.057310
C12	C	0.174650	0.728744	0.051108
C13	C	-0.053081	0.935059	0.065581
C14	C	-0.187855	0.914253	0.064118
C15	C	0.159133	0.230592	0.007668
C16	C	0.161624	0.313671	0.013507
C17	C	0.168056	0.359322	0.095352
C18	C	0.171984	0.321888	0.171364
C19	C	0.169484	0.238809	0.165525
C20	C	0.176079	0.608231	0.121280
C21	C	0.178582	0.691316	0.127114
C22	C	0.168220	0.683093	-0.030744
C23	C	0.165728	0.600014	-0.036576
C24	C	0.169650	0.562587	0.039435
N25	N	0.170606	0.444243	0.101322
N26	N	0.167091	0.477667	0.033464
C27	C	-0.261495	0.971701	0.068146
C28	C	-0.400791	0.950198	0.066635
C29	C	0.390797	0.986849	0.069207
C30	C	0.525571	1.007654	0.070664
C31	C	0.160415	1.104745	0.077478
C32	C	0.163065	1.193163	0.083674
N33	N	0.182373	0.971711	0.273447
N34	N	0.155333	0.950202	-0.138657
C35	C	0.226156	1.006458	0.819887
C36	C	0.220174	1.001704	0.728747
C37	C	0.143361	0.940698	0.679064
C38	C	0.072536	0.884437	0.720526
C39	C	0.078525	0.889188	0.811665
C40	C	0.117537	0.920200	0.406048
C41	C	0.111550	0.915455	0.314903
C42	C	0.259191	1.032722	0.323129
C43	C	0.265168	1.037470	0.414270
C44	C	0.194348	0.981206	0.455724
N45	N	0.137241	0.935839	0.585904
N46	N	0.200475	0.986062	0.548882
H47	H	0.158415	0.344141	-0.048386
C48	C	0.421822	1.060430	0.704918
C49	C	0.298026	1.063548	0.683186
H50	H	0.469886	1.098615	0.676796
H51	H	0.443183	1.008587	0.686387
H52	H	0.436354	1.071985	0.766309
H53	H	0.283492	1.051986	0.621795
H54	H	0.276657	1.115402	0.701711
C55	C	0.283519	0.525526	0.206705
C56	C	0.180384	0.567088	0.204825
H57	H	0.286166	0.500118	0.258281
H58	H	0.355005	0.561808	0.205995
H59	H	0.279319	0.486455	0.157118
H60	H	0.184589	0.606164	0.254409
H61	H	0.108880	0.530803	0.205543
H62	H	0.288700	1.056138	0.860333
C63	C	0.083140	0.783562	0.224835
C64	C	0.185648	0.741502	0.217083
H65	H	0.087512	0.814550	0.280372
H66	H	0.011228	0.746938	0.219004
H67	H	0.081175	0.817735	0.180393
H68	H	0.187609	0.707325	0.261521
H69	H	0.257580	0.778131	0.222923
H70	H	0.020856	0.843377	0.845417
C71	C	0.155699	0.600233	-0.192027
C72	C	0.158635	0.549836	-0.126544
H73	H	0.151311	0.569252	-0.247569
H74	H	0.227621	0.636849	-0.186195
H75	H	0.086157	0.628766	-0.186733
H76	H	0.228182	0.521307	-0.131834
H77	H	0.086705	0.513206	-0.132379
C78	C	0.410523	1.152896	0.413242
C79	C	0.349615	1.104524	0.468878
H80	H	0.462661	1.194290	0.446957
H81	H	0.352446	1.175588	0.379427
H82	H	0.457786	1.121615	0.375621
H83	H	0.302345	1.135804	0.506495
H84	H	0.407700	1.081831	0.502708
H85	H	0.049001	0.865772	0.274453
H86	H	0.059866	0.874388	0.439789
H87	H	0.153904	0.193429	-0.058980
C88	C	0.285848	0.360429	0.308128
C89	C	0.179050	0.372061	0.261334
H90	H	0.290205	0.391399	0.363675
H91	H	0.354849	0.376408	0.276938
H92	H	0.284906	0.305590	0.315518
H93	H	0.179996	0.426899	0.253938
H94	H	0.110031	0.356087	0.292531
H95	H	-0.221414	1.036803	0.072718
C96	C	-0.360154	0.813298	0.057027
C97	C	-0.454877	0.862305	0.060465
H98	H	-0.393548	0.759038	0.053212
H99	H	-0.308039	0.826434	0.108255
H100	H	-0.314645	0.821177	0.007272
H101	H	-0.500381	0.854430	0.110224
H102	H	-0.507013	0.849164	0.009231
C103	C	-0.002218	0.825093	0.577167
C104	C	-0.011906	0.817381	0.665917
H105	H	-0.054360	0.783699	0.543457
H106	H	0.079797	0.821418	0.562021
H107	H	-0.025542	0.875391	0.565831
H108	H	0.011427	0.767085	0.677254
H109	H	-0.093939	0.821049	0.681068
H110	H	0.316850	1.078527	0.289367
C111	C	0.269283	0.777724	-0.115341
C112	C	0.163897	0.724238	-0.114290
H113	H	0.266604	0.803127	-0.166920
H114	H	0.339242	0.749531	-0.114065
H115	H	0.273460	0.816796	-0.065757
H116	H	0.159724	0.685162	-0.163872
H117	H	0.093919	0.752432	-0.115575
C118	C	0.073285	0.214273	0.297863
C119	C	0.173809	0.197667	0.249074
H120	H	0.075958	0.188878	0.349447
H121	H	0.000027	0.194920	0.264196
H122	H	0.075710	0.270287	0.313047
H123	H	0.171380	0.141653	0.233884
H124	H	0.247086	0.217016	0.282748
H125	H	-0.434361	1.072757	0.075165
H126	H	-0.227936	0.849151	0.059547
