data_functionalizedCrystal
_audit_creation_method	'MofGen! by Chris Wilmer'
_symmetry_space_group_name_H-M	'P1'
_symmetry_Int_Tables_number	1
_symmetry_cell_setting	triclinic
loop_
_symmetry_equiv_pos_as_xyz
  x,y,z
_cell_length_a	18.215405
_cell_length_b	29.839134
_cell_length_c	18.215407
_cell_angle_alpha	89.978475
_cell_angle_beta	90.014818
_cell_angle_gamma	89.979768
loop_
_atom_site_label
_atom_site_type_symbol
_atom_site_fract_x
_atom_site_fract_y
_atom_site_fract_z
Zn1	Zn	-0.293197	-0.686762	0.416324
Zn2	Zn	0.206803	-0.186762	0.916324
Zn3	Zn	-0.416235	-0.686718	0.293252
Zn4	Zn	0.083765	-0.186718	0.793252
Zn5	Zn	-0.293177	-0.611647	0.293247
Zn6	Zn	0.206823	-0.111647	0.793247
Zn7	Zn	-0.416217	-0.611614	0.416253
Zn8	Zn	0.083783	-0.111614	0.916253
O9	O	-0.354706	-0.649185	0.354769
O10	O	0.145294	-0.149185	0.854769
O11	O	-0.309535	-0.749623	0.400030
O12	O	0.190465	-0.249623	0.900030
O13	O	-0.399910	-0.676756	0.190267
O14	O	0.100090	-0.176756	0.690267
O15	O	-0.190195	-0.621643	0.309601
O16	O	0.309805	-0.121643	0.809601
O17	O	-0.399930	-0.749591	0.309610
O18	O	0.100070	-0.249591	0.809610
O19	O	-0.190210	-0.676830	0.400025
O20	O	0.309790	-0.176830	0.900025
O21	O	-0.309500	-0.621601	0.190264
O22	O	0.190500	-0.121601	0.690264
O23	O	-0.309482	-0.548776	0.309532
O24	O	0.190518	-0.048776	0.809532
O25	O	-0.399899	-0.621587	0.519246
O26	O	0.100101	-0.121587	1.019246
O27	O	-0.399879	-0.548751	0.399904
O28	O	0.100121	-0.048751	0.899904
O29	O	-0.309517	-0.676797	0.519299
O30	O	0.190483	-0.176797	1.019299
O31	O	-0.519217	-0.676723	0.309541
O32	O	-0.019217	-0.176723	0.809541
O33	O	-0.519203	-0.621545	0.399909
O34	O	-0.019203	-0.121545	0.899909
C35	C	-0.354677	-0.532463	0.354710
C36	C	0.145323	-0.032463	0.854710
C37	C	-0.354682	-0.482528	0.354703
C38	C	0.145318	0.017472	0.854703
C39	C	-0.545913	-0.649138	0.354734
C40	C	-0.045913	-0.149138	0.854734
C41	C	-0.627712	-0.649159	0.354743
C42	C	-0.127712	-0.149159	0.854743
C43	C	-0.815888	-0.677958	0.307775
C44	C	-0.315888	-0.177958	0.807775
C45	C	-0.892747	-0.677978	0.307793
C46	C	-0.392747	-0.177978	0.807793
C47	C	-0.892773	-0.620470	0.401816
C48	C	-0.392773	-0.120470	0.901816
C49	C	-0.815916	-0.620453	0.401801
C50	C	-0.315916	-0.120453	0.901801
C51	C	-0.777475	-0.649196	0.354777
C52	C	-0.277475	-0.149196	0.854777
C53	C	-0.931191	-0.649233	0.354809
C54	C	-0.431191	-0.149233	0.854809
C55	C	-1.014525	-0.649255	0.354829
C56	C	-0.514525	-0.149255	0.854829
C57	C	-0.694136	-0.649175	0.354758
C58	C	-0.194136	-0.149175	0.854758
C59	C	-0.401852	-0.172882	0.401745
C60	C	0.098148	0.327118	0.901745
C61	C	-0.401876	0.014791	0.401768
C62	C	0.098124	0.514791	0.901768
O63	O	-0.441944	0.039059	0.441745
O64	O	0.058056	0.539059	0.941745
N65	N	-0.354743	0.038257	0.354791
N66	N	0.145257	0.538257	0.854791
C67	C	-0.307598	0.014801	0.307808
C68	C	0.192402	0.514801	0.807808
O69	O	-0.267504	0.039066	0.267857
O70	O	0.232496	0.539066	0.767857
C71	C	-0.307571	-0.172871	0.307788
C72	C	0.192429	0.327129	0.807788
C73	C	-0.354712	-0.196334	0.354764
C74	C	0.145288	0.303666	0.854764
C75	C	-0.448989	-0.196345	0.448716
C76	C	0.051011	0.303655	0.948716
C77	C	-0.448986	-0.243260	0.448707
C78	C	0.051014	0.256740	0.948707
C79	C	-0.401845	-0.266713	0.401726
C80	C	0.098155	0.233287	0.901726
C81	C	-0.354709	-0.243250	0.354754
C82	C	0.145291	0.256750	0.854754
C83	C	-0.260423	-0.196326	0.260810
C84	C	0.239577	0.303674	0.760810
C85	C	-0.260419	-0.243247	0.260810
C86	C	0.239581	0.256753	0.760810
C87	C	-0.307560	-0.266710	0.307785
C88	C	0.192440	0.233290	0.807785
C89	C	-0.307565	-0.313618	0.307764
C90	C	0.192435	0.186382	0.807764
N91	N	-0.354698	-0.337083	0.354741
N92	N	0.145302	0.162917	0.854741
C93	C	-0.401838	-0.313630	0.401722
C94	C	0.098162	0.186370	0.901722
C95	C	-0.307616	0.113332	0.307820
C96	C	0.192384	0.613332	0.807820
C97	C	-0.307623	0.160249	0.307824
C98	C	0.192377	0.660249	0.807824
C99	C	-0.401901	0.160237	0.401786
C100	C	0.098099	0.660237	0.901786
C101	C	-0.401896	0.113318	0.401777
C102	C	0.098104	0.613318	0.901777
C103	C	-0.354749	0.089866	0.354797
C104	C	0.145251	0.589866	0.854797
C105	C	-0.401828	-0.412156	0.401699
C106	C	0.098172	0.087844	0.901699
C107	C	-0.401822	-0.459076	0.401684
C108	C	0.098178	0.040924	0.901684
C109	C	-0.307542	-0.459059	0.307725
C110	C	0.192458	0.040941	0.807725
C111	C	-0.307550	-0.412143	0.307737
C112	C	0.192450	0.087857	0.807737
C113	C	-0.354695	-0.388693	0.354730
C114	C	0.145305	0.111307	0.854730
O115	O	-0.267512	-0.337914	0.267814
O116	O	0.232488	0.162086	0.767814
O117	O	-0.441915	-0.337903	0.441679
O118	O	0.058085	0.162097	0.941679
C119	C	-0.401856	-0.125966	0.401754
C120	C	0.098144	0.374034	0.901754
C121	C	-0.354719	-0.102503	0.354782
C122	C	0.145281	0.397497	0.854782
C123	C	-0.307579	-0.125956	0.307801
C124	C	0.192421	0.374044	0.807801
C125	C	-0.354727	-0.055585	0.354786
C126	C	0.145273	0.444415	0.854786
C127	C	-0.401867	-0.032133	0.401767
C128	C	0.098133	0.467867	0.901767
C129	C	-0.448999	-0.055598	0.448744
C130	C	0.051001	0.444402	0.948744
C131	C	-0.448996	-0.102514	0.448735
C132	C	0.051004	0.397486	0.948735
C133	C	-0.260446	-0.102490	0.260824
C134	C	0.239554	0.397510	0.760824
C135	C	-0.260454	-0.055575	0.260836
C136	C	0.239546	0.444425	0.760836
C137	C	-0.307594	-0.032122	0.307817
C138	C	0.192406	0.467878	0.807817
C139	C	-0.162754	-0.649245	0.354821
C140	C	0.337246	-0.149245	0.854821
C141	C	-0.080955	-0.649271	0.354843
C142	C	0.419045	-0.149271	0.854843
C143	C	-0.354708	-0.649193	0.546722
C144	C	0.145292	-0.149193	1.046722
C145	C	-0.354709	-0.649196	0.628521
C146	C	0.145291	-0.149196	1.128521
C147	C	-0.354740	0.233636	0.354816
C148	C	0.145260	0.733636	0.854816
C149	C	-0.354764	0.183702	0.354805
C150	C	0.145236	0.683702	0.854805
C151	C	-0.307655	-0.677936	0.816743
C152	C	0.192345	-0.177936	1.316743
C153	C	-0.307655	-0.677933	0.893602
C154	C	0.192345	-0.177933	1.393602
C155	C	-0.401774	-0.620442	0.893536
C156	C	0.098226	-0.120442	1.393536
C157	C	-0.401770	-0.620443	0.816679
C158	C	0.098230	-0.120443	1.316679
C159	C	-0.354712	-0.649192	0.778284
C160	C	0.145288	-0.149192	1.278284
C161	C	-0.354715	-0.649189	0.932000
C162	C	0.145285	-0.149189	1.432000
C163	C	-0.354715	-0.649186	1.015334
C164	C	0.145285	-0.149186	1.515334
C165	C	-0.354711	-0.649195	0.694945
C166	C	0.145289	-0.149195	1.194945
C167	C	-0.354720	-0.649178	1.163563
C168	C	0.145280	-0.149178	1.663563
C169	C	-0.354718	-0.649185	1.081764
C170	C	0.145282	-0.149185	1.581764
H171	H	-0.784592	-0.701363	0.269486
H172	H	-0.284592	-0.201363	0.769486
H173	H	-0.924080	-0.597068	0.440100
H174	H	-0.424080	-0.097068	0.940100
C175	C	-0.773658	-0.588813	0.453504
C176	C	-0.273658	-0.088813	0.953504
H177	H	-0.807558	-0.571692	0.481505
H178	H	-0.307558	-0.071692	0.981505
H179	H	-0.743641	-0.605976	0.485595
H180	H	-0.243641	-0.105976	0.985595
H181	H	-0.743713	-0.569244	0.425304
H182	H	-0.243713	-0.069244	0.925304
C183	C	-0.500849	-0.170554	0.500399
C184	C	-0.000849	0.329446	1.000399
H185	H	-0.528919	-0.191254	0.528365
H186	H	-0.028919	0.308746	1.028365
H187	H	-0.472759	-0.152263	0.532523
H188	H	0.027241	0.347737	1.032523
H189	H	-0.532880	-0.152241	0.472188
H190	H	-0.032880	0.347759	0.972188
H191	H	-0.440089	-0.597037	0.924806
H192	H	0.059911	-0.097037	1.424806
C193	C	-0.500852	-0.269065	0.500367
C194	C	-0.000852	0.230935	1.000367
H195	H	-0.494113	-0.300368	0.493633
H196	H	0.005887	0.199632	0.993633
H197	H	-0.490174	-0.261394	0.549838
H198	H	0.009826	0.238606	1.049838
H199	H	-0.550278	-0.261357	0.489486
H200	H	-0.050278	0.238643	0.989486
C201	C	-0.453540	-0.588826	0.774371
C202	C	0.046460	-0.088826	1.274371
H203	H	-0.481575	-0.571710	0.808244
H204	H	0.018425	-0.071710	1.308244
H205	H	-0.425385	-0.569261	0.744383
H206	H	0.074615	-0.069261	1.244383
H207	H	-0.485607	-0.606008	0.744393
H208	H	0.014393	-0.106008	1.244393
C209	C	-0.255890	-0.709554	0.774508
C210	C	0.244110	-0.209554	1.274508
H211	H	-0.262630	-0.705442	0.723226
H212	H	0.237370	-0.205442	1.223226
H213	H	-0.206443	-0.702993	0.787115
H214	H	0.293557	-0.202993	1.287115
H215	H	-0.266671	-0.739738	0.787121
H216	H	0.233329	-0.239738	1.287121
H217	H	-0.269335	-0.701338	0.924912
H218	H	0.230665	-0.201338	1.424912
C219	C	-0.255758	0.087540	0.256131
C220	C	0.244242	0.587540	0.756131
H221	H	-0.227699	0.108239	0.228151
H222	H	0.272301	0.608239	0.728151
H223	H	-0.223728	0.069224	0.284329
H224	H	0.276272	0.569224	0.784329
H225	H	-0.283863	0.069253	0.224008
H226	H	0.216137	0.569253	0.724008
C227	C	-0.934998	-0.709614	0.256088
C228	C	-0.434998	-0.209614	0.756088
H229	H	-0.901094	-0.726726	0.228078
H230	H	-0.401094	-0.226726	0.728078
H231	H	-0.964944	-0.729183	0.284279
H232	H	-0.464944	-0.229183	0.784279
H233	H	-0.965014	-0.692447	0.223994
H234	H	-0.465014	-0.192447	0.723994
H235	H	-0.440213	-0.478177	0.439937
H236	H	0.059787	0.021823	0.939937
C237	C	-0.453663	-0.386367	0.453413
C238	C	0.046337	0.113633	0.953413
H239	H	-0.481728	-0.407066	0.481386
H240	H	0.018272	0.092934	0.981386
H241	H	-0.425546	-0.368087	0.485528
H242	H	0.074454	0.131913	0.985528
H243	H	-0.485700	-0.368044	0.425226
H244	H	0.014300	0.131956	0.925226
H245	H	-0.440284	0.179340	0.440039
H246	H	0.059716	0.679340	0.940039
C247	C	-0.453745	0.087513	0.453455
C248	C	0.046255	0.587513	0.953455
H249	H	-0.481816	0.108204	0.481436
H250	H	0.018184	0.608204	0.981436
H251	H	-0.485765	0.069221	0.425249
H252	H	0.014235	0.569221	0.925249
H253	H	-0.425636	0.069200	0.485576
H254	H	0.074364	0.569200	0.985576
C255	C	-0.255684	-0.484861	0.256056
C256	C	0.244316	0.015139	0.756056
H257	H	-0.227609	-0.464170	0.228077
H258	H	0.272391	0.035830	0.728077
H259	H	-0.223668	-0.503175	0.284275
H260	H	0.276332	-0.003175	0.784275
H261	H	-0.283782	-0.503151	0.223932
H262	H	0.216218	-0.003151	0.723932
C263	C	-0.255773	0.186054	0.256147
C264	C	0.244227	0.686054	0.756147
H265	H	-0.227694	0.165362	0.228174
H266	H	0.272306	0.665362	0.728174
H267	H	-0.283871	0.204371	0.224029
H268	H	0.216129	0.704371	0.724029
H269	H	-0.223750	0.204342	0.284363
H270	H	0.276250	0.704342	0.784363
C271	C	-0.208561	-0.170527	0.209142
C272	C	0.291439	0.329473	0.709142
H273	H	-0.180482	-0.191221	0.181173
H274	H	0.319518	0.308779	0.681173
H275	H	-0.236652	-0.152209	0.177020
H276	H	0.263348	0.347791	0.677020
H277	H	-0.176538	-0.152241	0.237362
H278	H	0.323462	0.347759	0.737362
C279	C	-0.208555	-0.269041	0.209131
C280	C	0.291445	0.230959	0.709131
H281	H	-0.180487	-0.248345	0.181156
H282	H	0.319513	0.251655	0.681156
H283	H	-0.176533	-0.287358	0.237339
H284	H	0.323467	0.212642	0.737339
H285	H	-0.236654	-0.287329	0.177004
H286	H	0.263346	0.212671	0.677004
C287	C	-0.255699	-0.386333	0.256064
C288	C	0.244301	0.113667	0.756064
H289	H	-0.227622	-0.407022	0.228086
H290	H	0.272378	0.092978	0.728086
H291	H	-0.283796	-0.368012	0.223952
H292	H	0.216204	0.131988	0.723952
H293	H	-0.223675	-0.368049	0.284286
H294	H	0.276325	0.131951	0.784286
H295	H	-0.487383	-0.121613	0.486987
H296	H	0.012617	0.378387	0.986987
H297	H	-0.487385	-0.036495	0.486996
H298	H	0.012615	0.463505	0.986996
C299	C	-0.208594	-0.029771	0.209161
C300	C	0.291406	0.470229	0.709161
H301	H	-0.180516	-0.050462	0.181188
H302	H	0.319484	0.449538	0.681188
H303	H	-0.236687	-0.011451	0.177043
H304	H	0.263313	0.488549	0.677043
H305	H	-0.176570	-0.011486	0.237383
H306	H	0.323430	0.488514	0.737383
H307	H	-0.222058	-0.121581	0.222565
H308	H	0.277942	0.378419	0.722565
