data_functionalizedCrystal
_audit_creation_method	'MofGen! by Chris Wilmer'
_symmetry_space_group_name_H-M	'P1'
_symmetry_Int_Tables_number	1
_symmetry_cell_setting	triclinic
loop_
_symmetry_equiv_pos_as_xyz
  x,y,z
_cell_length_a	10.489741
_cell_length_b	10.489741
_cell_length_c	10.868271
_cell_angle_alpha	89.995151
_cell_angle_beta	89.998385
_cell_angle_gamma	84.539174
loop_
_atom_site_label
_atom_site_type_symbol
_atom_site_fract_x
_atom_site_fract_y
_atom_site_fract_z
O1	O	1.694053	0.179969	-0.102245
O2	O	1.322858	0.196862	-0.102265
O3	O	1.516902	0.002817	-0.102247
O4	O	1.500009	0.374013	-0.102263
O5	O	1.516886	0.002810	0.102397
O6	O	1.322841	0.196854	0.102380
O7	O	1.694037	0.179961	0.102399
Zn8	Zn	1.508437	0.188406	0.134881
Zn9	Zn	1.508458	0.188416	-0.134747
O10	O	1.499993	0.374005	0.102382
C11	C	1.275318	0.195582	0.000055
C12	C	1.133688	0.191765	0.000048
C13	C	1.065548	0.068300	0.000065
C14	C	0.973429	0.126627	-0.100835
C15	C	0.973448	0.126649	0.100928
C16	C	1.043435	0.250143	-0.100935
C17	C	1.043463	0.250147	0.100919
C18	C	0.951371	0.308564	-0.000006
C19	C	1.515618	-0.044718	0.000074
C20	C	1.511801	-0.186348	0.000072
C21	C	1.388336	-0.254488	0.000057
C22	C	1.446652	-0.346614	0.100960
C23	C	1.446697	-0.346581	-0.100804
C24	C	1.570167	-0.276609	0.101059
C25	C	1.570195	-0.276566	-0.100796
C26	C	1.628600	-0.368665	0.000132
C27	C	1.741577	0.181241	0.000077
C28	C	1.883206	0.185058	0.000076
C29	C	1.501277	0.421541	0.000058
C30	C	1.505094	0.563170	0.000052
N31	N	1.508432	0.188398	0.318896
N32	N	1.508473	0.188414	-0.318761
C33	C	1.508451	0.188414	0.569902
C34	C	1.508436	0.188409	0.430224
H35	H	1.286824	-0.204837	0.000153
C36	C	1.639603	-0.234949	-0.214577
C37	C	1.557005	-0.149560	-0.283132
C38	C	1.620892	-0.111178	-0.387958
H39	H	1.666018	-0.307842	-0.263363
H40	H	1.712551	-0.193917	-0.190391
H41	H	1.484080	-0.190593	-0.307321
H42	H	1.530586	-0.076648	-0.234384
H43	H	1.693840	-0.070146	-0.363771
H44	H	1.647305	-0.184078	-0.436732
H45	H	1.564863	-0.053229	-0.434479
C46	C	1.639897	-0.235354	0.214788
C47	C	1.746753	-0.173964	0.178923
C48	C	1.811003	-0.135925	0.283655
H49	H	1.667047	-0.308478	0.262992
H50	H	1.583844	-0.178046	0.261952
H51	H	1.802796	-0.231269	0.131780
H52	H	1.719638	-0.100826	0.130734
H53	H	1.754949	-0.078617	0.330819
H54	H	1.838144	-0.209055	0.331851
H55	H	1.883504	-0.094258	0.259335
H56	H	0.942463	0.074383	0.186232
C57	C	1.376753	-0.387880	0.214594
C58	C	1.251009	-0.329577	0.214113
C59	C	1.186569	-0.367567	0.318759
H60	H	1.419637	-0.362774	0.286338
H61	H	1.375435	-0.478314	0.214149
H62	H	1.252333	-0.239163	0.214569
H63	H	1.208090	-0.354675	0.142393
H64	H	1.185250	-0.458001	0.318314
H65	H	1.229463	-0.342460	0.390494
H66	H	1.101241	-0.328024	0.318441
C67	C	1.764158	-0.434368	0.000019
C68	C	1.828983	-0.397184	-0.104706
C69	C	1.953871	-0.457654	-0.104837
H70	H	1.761216	-0.524591	-0.000725
H71	H	1.807853	-0.410364	0.071711
H72	H	1.785299	-0.421197	-0.176379
H73	H	1.831961	-0.306971	-0.103984
H74	H	1.997566	-0.433650	-0.033145
H75	H	1.950916	-0.547875	-0.105577
H76	H	1.997874	-0.432425	-0.175885
H77	H	1.074270	0.302346	-0.186335
H78	H	0.901947	0.410168	-0.000065
C79	C	1.376830	-0.387684	-0.214511
C80	C	1.251110	-0.329317	-0.214040
C81	C	1.186708	-0.367130	-0.318769
H82	H	1.375440	-0.478094	-0.214199
H83	H	1.419807	-0.362491	-0.286191
H84	H	1.208144	-0.354518	-0.142378
H85	H	1.252462	-0.238908	-0.214370
H86	H	1.229685	-0.341937	-0.390450
H87	H	1.185328	-0.457541	-0.318448
H88	H	1.101404	-0.327526	-0.318470
H89	H	1.074502	0.302342	0.186224
H90	H	1.115238	-0.033196	-0.000057
H91	H	0.942422	0.074390	-0.186137
