data_functionalizedCrystal
_audit_creation_method	'MofGen! by Chris Wilmer'
_symmetry_space_group_name_H-M	'P1'
_symmetry_Int_Tables_number	1
_symmetry_cell_setting	triclinic
loop_
_symmetry_equiv_pos_as_xyz
  x,y,z
_cell_length_a	18.426585
_cell_length_b	14.560438
_cell_length_c	14.560438
_cell_angle_alpha	60.000905
_cell_angle_beta	90.003033
_cell_angle_gamma	59.999574
loop_
_atom_site_label
_atom_site_type_symbol
_atom_site_fract_x
_atom_site_fract_y
_atom_site_fract_z
Zr1	Zr	0.699139	1.005239	-0.120457
O2	O	0.583256	1.196849	-0.267110
O3	O	0.734664	0.813636	-0.075502
O4	O	0.734660	1.005240	-0.267103
O5	O	0.583262	1.005242	0.075631
O6	O	0.854091	1.005234	-0.267094
O7	O	0.583259	1.005245	-0.075509
O8	O	0.854098	0.662489	0.075645
O9	O	0.583256	1.347987	-0.267107
O10	O	0.838945	0.892438	-0.056320
O11	O	0.749817	0.892441	0.056468
O12	O	0.749813	1.118030	-0.169117
O13	O	0.660685	1.118033	-0.056329
Zr14	Zr	0.889623	1.005225	0.120609
Zr15	Zr	0.889618	1.005229	-0.120443
Zr16	Zr	0.699144	1.005235	0.120595
Zr17	Zr	0.699140	1.246287	-0.120452
Zr18	Zr	0.889622	0.764177	0.120605
O19	O	0.854098	1.196828	0.075655
O20	O	0.854092	1.196834	-0.267090
O21	O	0.583262	1.196843	0.075635
O22	O	1.005507	0.813616	0.267263
O23	O	1.005500	0.813621	-0.075482
O24	O	0.734671	0.813630	0.267243
O25	O	1.005500	1.005222	-0.075479
O26	O	0.854102	1.005225	0.267255
O27	O	0.734671	1.005231	0.267247
O28	O	1.005503	1.005220	0.075662
O29	O	0.734661	1.347979	-0.267096
O30	O	0.854101	0.662486	0.267249
O31	O	1.005507	0.662478	0.267260
O32	O	1.005503	0.662481	0.075656
O33	O	0.583260	1.347983	-0.075503
O34	O	0.734665	1.347975	-0.075492
O35	O	0.838949	0.892434	0.169269
O36	O	0.928077	0.892432	0.056481
O37	O	0.838945	1.118023	-0.056316
O38	O	0.749817	1.118026	0.056473
C39	C	0.794381	0.703718	0.000071
C40	C	0.794381	0.601387	0.000069
C41	C	0.556121	1.005245	0.000059
C42	C	0.475258	1.005249	0.000053
C43	C	0.840902	0.553310	-0.058806
C44	C	0.840906	0.457150	-0.058795
C45	C	0.747858	0.457159	0.058966
C46	C	0.747861	0.553310	0.058961
C47	C	0.409588	1.005254	0.000053
C48	C	0.327206	1.005249	0.000064
C49	C	0.261548	1.005235	0.000077
C50	C	0.179162	1.005229	0.000086
C51	C	1.032641	1.005219	0.000094
C52	C	1.113504	1.005215	0.000099
C53	C	0.794375	1.005237	-0.301443
C54	C	0.794373	1.005239	-0.403776
C55	C	0.794382	1.306746	0.000082
C56	C	0.794382	1.409077	0.000084
C57	C	0.747848	1.122993	-0.510731
C58	C	0.747858	1.122987	-0.606880
C59	C	0.840920	0.887462	-0.489105
C60	C	0.840914	0.887469	-0.392959
C61	C	0.794387	1.005227	0.301596
C62	C	0.794389	1.005225	0.403929
C63	C	1.032640	0.703706	0.000088
C64	C	1.113503	0.601370	0.000092
C65	C	0.794387	0.703713	0.301590
C66	C	0.794389	0.601381	0.403921
C67	C	1.032646	0.703701	0.301607
C68	C	1.113511	0.601363	0.403944
C69	C	0.556116	1.306764	-0.301455
C70	C	0.475251	1.409101	-0.403792
C71	C	0.556122	1.306759	0.000065
C72	C	0.475259	1.409094	0.000061
C73	C	0.794376	1.306751	-0.301438
C74	C	0.794374	1.409084	-0.403769
C75	C	1.104951	0.553316	-0.058797
C76	C	1.180923	0.457174	-0.058816
C77	C	1.265447	0.409082	0.000061
C78	C	1.273997	0.457146	0.058952
C79	C	1.198026	0.553292	0.058964
C80	C	1.198018	0.553303	0.393128
C81	C	1.274007	0.457160	0.489276
C82	C	1.265487	0.409072	0.596237
C83	C	1.180971	0.457142	0.607051
C84	C	1.104984	0.553290	0.510905
C85	C	0.390744	1.457173	-0.392976
C86	C	0.314755	1.553346	-0.489123
C87	C	0.323276	1.601439	-0.596085
C88	C	0.407791	1.553363	-0.606898
C89	C	0.483778	1.457198	-0.510752
C90	C	0.483811	1.457158	0.058940
C91	C	0.407839	1.553327	0.058932
C92	C	0.323316	1.601422	0.000051
C93	C	0.314765	1.553354	-0.058835
C94	C	0.390737	1.457194	-0.058833
C95	C	0.840915	0.553299	0.510877
C96	C	0.840906	0.457156	0.607024
C97	C	0.747845	0.457180	0.489245
C98	C	0.747848	0.553328	0.393100
H99	H	0.878783	0.592451	-0.106758
Cl100	Cl	0.899406	0.739423	-0.258490
Cl101	Cl	0.998703	0.613760	-0.132830
Cl102	Cl	0.208501	1.613825	-0.132847
H103	H	1.342816	0.418032	0.480451
Cl104	Cl	0.689378	0.613746	0.132989
H105	H	0.709974	1.218875	-0.693964
Cl106	Cl	1.360946	0.288208	0.000038
H107	H	0.878811	0.791578	-0.480311
Cl108	Cl	0.418608	1.613730	0.132973
H109	H	1.173944	0.418053	-0.106772
H110	H	0.709983	0.418003	0.106912
H111	H	0.878807	0.592425	0.519694
H112	H	0.261395	1.679742	-0.674364
H113	H	1.342826	0.417975	0.106888
H114	H	0.245947	1.592473	-0.480296
H115	H	0.709957	0.592480	0.306006
H116	H	0.414718	1.592533	-0.693998
Cl117	Cl	0.590060	1.396722	0.132965
Cl118	Cl	1.208792	0.613683	0.133013
H119	H	1.204972	0.592442	0.306043
Cl120	Cl	1.361023	0.288196	0.717098
H121	H	1.174047	0.417975	0.694152
H122	H	0.383790	1.418021	-0.305891
Cl123	Cl	0.998750	0.613689	0.524522
Cl124	Cl	0.590012	1.396768	-0.524369
Cl125	Cl	0.227817	1.722308	0.000063
Cl126	Cl	0.689347	1.271046	-0.524333
H127	H	0.383761	1.418063	-0.106777
H128	H	0.878791	0.418014	0.694110
H129	H	0.709954	0.418042	0.480449
H130	H	0.878790	0.418007	-0.106734
