data_functionalizedCrystal
_audit_creation_method	'MofGen! by Chris Wilmer'
_symmetry_space_group_name_H-M	'P1'
_symmetry_Int_Tables_number	1
_symmetry_cell_setting	triclinic
loop_
_symmetry_equiv_pos_as_xyz
  x,y,z
_cell_length_a	10.540510
_cell_length_b	10.540539
_cell_length_c	9.798715
_cell_angle_alpha	89.998989
_cell_angle_beta	89.996061
_cell_angle_gamma	84.519401
loop_
_atom_site_label
_atom_site_type_symbol
_atom_site_fract_x
_atom_site_fract_y
_atom_site_fract_z
O1	O	1.685908	0.178718	-0.113493
O2	O	1.316490	0.195613	-0.113493
O3	O	1.509627	0.002458	-0.113491
O4	O	1.492771	0.371873	-0.113494
O5	O	1.509613	0.002457	0.113491
O6	O	1.316476	0.195612	0.113489
O7	O	1.685894	0.178717	0.113490
Zn8	Zn	1.501182	0.187165	0.149528
Zn9	Zn	1.501201	0.187165	-0.149531
O10	O	1.492757	0.371872	0.113488
C11	C	1.508356	-0.044845	-0.000002
C12	C	1.504574	-0.185793	-0.000010
C13	C	1.269179	0.194354	-0.000002
C14	C	1.128229	0.190587	-0.000002
C15	C	1.359655	-0.369204	-0.000519
C16	C	1.363489	-0.222587	-0.000008
C17	C	1.572462	-0.247458	0.129608
C18	C	1.567647	-0.394002	0.129718
C19	C	1.570533	-0.394520	-0.128404
C20	C	1.571833	-0.247538	-0.130117
C21	C	0.910774	0.324771	-0.000525
C22	C	1.057370	0.328789	-0.000005
C23	C	1.083461	0.119840	0.129613
C24	C	0.936700	0.116801	0.129714
C25	C	0.936911	0.113924	-0.128407
C26	C	1.083252	0.120479	-0.130112
C27	C	1.733204	0.179976	-0.000004
C28	C	1.874154	0.183743	-0.000013
C29	C	1.494028	0.419175	-0.000004
C30	C	1.497810	0.560123	-0.000005
N31	N	1.501179	0.187163	0.353628
N32	N	1.501215	0.187157	-0.353631
C33	C	1.582271	0.105705	0.421405
C34	C	1.582292	0.105701	0.578568
H35	H	1.310070	-0.179977	-0.092924
H36	H	0.867261	0.378303	0.091902
H37	H	1.651723	0.035966	0.636854
H38	H	1.431789	0.256904	0.588092
C39	C	1.676025	0.011470	0.342617
N40	N	1.746636	-0.059517	0.283276
H41	H	1.303929	-0.397798	-0.093470
C42	C	1.284675	-0.409965	0.124379
N43	N	1.228209	-0.440655	0.218464
C44	C	1.407399	0.281373	0.432416
N45	N	1.336761	0.352334	0.491757
C46	C	1.508849	-0.437133	-0.261125
N47	N	1.462374	-0.469227	-0.361085
H48	H	1.132320	0.019581	-0.137939
H49	H	1.086721	0.384135	-0.092922
C50	C	1.290805	-0.166164	0.125729
N51	N	1.236058	-0.123667	0.220442
H52	H	1.674695	-0.223328	-0.137944
C53	C	1.125120	0.186223	0.259928
N54	N	1.156491	0.236231	0.358079
H55	H	1.525291	-0.204854	0.226066
C56	C	1.499835	-0.432093	0.260606
N57	N	1.448753	-0.460776	0.359192
C58	C	1.708199	-0.458342	-0.129588
N59	N	1.811884	-0.506421	-0.130471
H60	H	1.669113	-0.441981	0.135598
H61	H	1.676071	-0.225115	0.134428
C62	C	1.504791	-0.192260	-0.259663
N63	N	1.454282	-0.150628	-0.357235
C64	C	1.095742	0.403994	0.125741
N65	N	1.124643	0.460636	0.220462
C66	C	0.882356	0.182141	0.260592
N67	N	0.841428	0.231367	0.359167
H68	H	0.868826	0.378613	-0.093480
H69	H	1.130851	0.018099	0.134435
H70	H	0.894369	0.157507	-0.226650
H71	H	0.914757	0.010162	-0.129283
C72	C	1.121933	0.190009	-0.259657
N73	N	1.151080	0.242379	-0.357228
C74	C	0.905630	-0.022840	0.137676
N75	N	0.882234	-0.128015	0.143681
