data_functionalizedCrystal
_audit_creation_method	'MofGen! by Chris Wilmer'
_symmetry_space_group_name_H-M	'P1'
_symmetry_Int_Tables_number	1
_symmetry_cell_setting	triclinic
loop_
_symmetry_equiv_pos_as_xyz
  x,y,z
_cell_length_a	17.019372
_cell_length_b	23.532357
_cell_length_c	15.500227
_cell_angle_alpha	92.804145
_cell_angle_beta	91.029586
_cell_angle_gamma	83.111120
loop_
_atom_site_label
_atom_site_type_symbol
_atom_site_fract_x
_atom_site_fract_y
_atom_site_fract_z
O1	O	1.045778	0.072754	0.005889
O2	O	0.816915	0.081383	-0.011149
O3	O	0.938267	-0.005823	-0.002097
O4	O	0.924425	0.159960	-0.003163
O5	O	0.930903	-0.000552	0.141242
O6	O	0.809551	0.086654	0.132190
O7	O	1.038414	0.078025	0.149229
Cu8	Cu	0.923310	0.082821	0.153797
Cu9	Cu	0.932019	0.076587	-0.015718
O10	O	0.917062	0.165231	0.140176
C11	C	0.783959	0.083588	0.058341
C12	C	0.696731	0.082299	0.051848
C13	C	0.203598	0.074841	0.011146
C14	C	0.285557	0.076053	0.017259
C15	C	0.322513	0.079537	0.098450
C16	C	0.277508	0.081803	0.173534
C17	C	0.195551	0.080587	0.167420
C18	C	0.569769	0.083349	0.120818
C19	C	0.651731	0.084566	0.126926
C20	C	0.659775	0.078816	-0.029350
C21	C	0.577816	0.077604	-0.035456
C22	C	0.532818	0.079866	0.039627
C23	C	0.406288	0.080778	0.104700
C24	C	0.449045	0.078622	0.033376
C25	C	0.934239	-0.024406	0.069550
C26	C	0.933197	-0.087631	0.069480
C27	C	0.930678	-0.482556	-0.009187
C28	C	0.929688	-0.541962	-0.009266
O29	O	0.932564	-0.575125	-0.075756
N30	N	0.925184	-0.568803	0.068831
C31	C	0.921660	-0.536234	0.147011
O32	O	0.917737	-0.564519	0.213431
C33	C	0.922644	-0.476829	0.147088
C34	C	0.927157	-0.449992	0.068987
C35	C	0.935190	-0.455719	-0.087282
C36	C	0.936180	-0.396317	-0.087203
C37	C	0.932660	-0.363753	-0.009029
C38	C	0.928148	-0.390591	0.069066
C39	C	0.919115	-0.444261	0.225266
C40	C	0.920098	-0.384852	0.225337
C41	C	0.924611	-0.358015	0.147236
C42	C	0.925618	-0.298625	0.147319
N43	N	0.930122	-0.271784	0.069222
C44	C	0.933643	-0.304348	-0.008952
C45	C	0.919593	-0.660988	0.146842
C46	C	0.918615	-0.720393	0.146766
C47	C	0.926642	-0.726116	-0.009511
C48	C	0.927626	-0.666711	-0.009433
C49	C	0.924098	-0.634147	0.068746
C50	C	0.935724	-0.179601	-0.008780
C51	C	0.936718	-0.120195	-0.008694
C52	C	0.928687	-0.114476	0.147582
C53	C	0.927698	-0.173878	0.147497
C54	C	0.931214	-0.206439	0.069309
O55	O	0.922742	-0.265425	0.213775
O56	O	0.937556	-0.276055	-0.075362
C57	C	1.071370	0.075819	0.079736
C58	C	1.158598	0.077109	0.086224
C59	C	0.921090	0.183814	0.068528
C60	C	0.922132	0.247038	0.068592
N61	N	0.917191	0.087205	0.273026
N62	N	0.938144	0.072199	-0.134946
C63	C	0.968630	0.050266	0.322140
C64	C	0.964009	0.053587	0.412368
C65	C	0.907952	0.093850	0.453481
C66	C	0.856508	0.130790	0.404360
C67	C	0.861126	0.127466	0.314133
C68	C	0.891318	0.105815	0.725707
C69	C	0.886705	0.109137	0.815940
C70	C	0.994206	0.031933	0.823941
C71	C	0.998822	0.028615	0.733713
C72	C	0.947375	0.065553	0.684600
C73	C	0.903229	0.097247	0.545708
C74	C	0.952094	0.062153	0.592374
H75	H	0.307605	0.084635	0.239642
C76	C	0.924807	-0.078644	0.233569
N77	N	0.921876	-0.051652	0.298334
C78	C	0.335055	0.073551	-0.065334
N79	N	0.372337	0.071663	-0.127546
H80	H	0.547732	0.074766	-0.101571
C81	C	0.804545	0.168106	0.260109
N82	N	0.761927	0.198718	0.219419
H83	H	0.914952	-0.742239	0.210365
H84	H	0.681818	0.087407	0.193045
C85	C	0.915725	-0.625174	0.232852
N86	N	0.912811	-0.598202	0.297634
C87	C	0.914140	-0.473767	0.311185
N88	N	0.910389	-0.495989	0.375904
H89	H	0.940395	-0.098347	-0.072296
C90	C	0.146051	0.083083	0.250012
N91	N	0.108768	0.084963	0.312223
C92	C	0.446942	0.084647	0.194008
N93	N	0.477562	0.087574	0.261275
C94	C	0.939606	-0.215411	-0.094790
N95	N	0.942539	-0.242384	-0.159572
H96	H	1.005894	0.023508	0.452356
H97	H	1.044467	-0.004170	0.700241
C98	C	1.050787	-0.008701	0.877972
N99	N	1.093404	-0.039310	0.918668
C100	C	0.916221	-0.349035	0.311343
N101	N	0.913303	-0.322060	0.376122
C102	C	0.709280	0.076320	-0.111936
N103	N	0.746569	0.074436	-0.174143
H104	H	0.841055	0.141926	0.849410
H105	H	0.924030	-0.195730	0.211094
H106	H	0.533143	0.085183	0.181957
C107	C	0.834825	0.146523	0.671702
N108	N	0.792308	0.177212	0.631025
H109	H	0.810861	0.163571	0.437839
C110	C	1.013748	0.017861	0.547146
N111	N	1.060186	-0.015501	0.513073
H112	H	1.014280	0.017482	0.288672
H113	H	0.857588	0.130030	0.579190
C114	C	0.932583	-0.637196	-0.095350
N115	N	0.936314	-0.614968	-0.160067
H116	H	0.173513	0.072009	-0.054969
H117	H	0.938054	-0.482226	-0.150945
C118	C	0.930507	-0.761948	-0.095505
N119	N	0.933416	-0.788937	-0.160272
C120	C	0.941136	-0.366804	-0.173122
N121	N	0.944865	-0.344578	-0.237841
H122	H	0.418952	0.075783	-0.032729
