data_functionalizedCrystal
_audit_creation_method	'MofGen! by Chris Wilmer'
_symmetry_space_group_name_H-M	'P1'
_symmetry_Int_Tables_number	1
_symmetry_cell_setting	triclinic
loop_
_symmetry_equiv_pos_as_xyz
  x,y,z
_cell_length_a	14.628931
_cell_length_b	27.440279
_cell_length_c	14.628931
_cell_angle_alpha	60.005384
_cell_angle_beta	90.000118
_cell_angle_gamma	60.013156
loop_
_atom_site_label
_atom_site_type_symbol
_atom_site_fract_x
_atom_site_fract_y
_atom_site_fract_z
Zr1	Zr	0.880955	0.533279	-0.119740
O2	O	0.735058	0.634919	-0.265659
O3	O	0.925635	0.431639	-0.075037
O4	O	0.925700	0.533279	-0.265700
O5	O	0.734994	0.533279	0.075436
O6	O	1.076132	0.533279	-0.265700
O7	O	0.734994	0.533279	-0.074995
O8	O	1.076016	0.351463	0.075362
O9	O	0.735109	0.715095	-0.265626
O10	O	1.057010	0.473445	-0.055936
O11	O	0.944745	0.473445	0.056329
O12	O	0.944820	0.593113	-0.168153
O13	O	0.832555	0.593113	-0.055888
Zr14	Zr	1.120876	0.533279	0.120182
Zr15	Zr	1.120876	0.533279	-0.119739
Zr16	Zr	0.880954	0.533279	0.120181
Zr17	Zr	0.881035	0.661150	-0.119687
Zr18	Zr	1.120795	0.405408	0.120129
O19	O	1.076195	0.634920	0.075479
O20	O	1.076196	0.634919	-0.265658
O21	O	0.735058	0.634920	0.075478
O22	O	1.266772	0.431639	0.266101
O23	O	1.266773	0.431639	-0.075036
O24	O	0.925635	0.431639	0.266100
O25	O	1.266837	0.533279	-0.074994
O26	O	1.076131	0.533280	0.266142
O27	O	0.925699	0.533280	0.266142
O28	O	1.266837	0.533279	0.075437
O29	O	0.925815	0.715095	-0.265626
O30	O	1.076016	0.351463	0.266068
O31	O	1.266722	0.351463	0.266068
O32	O	1.266722	0.351463	0.075363
O33	O	0.735109	0.715095	-0.074921
O34	O	0.925814	0.715095	-0.074920
O35	O	1.057010	0.473445	0.168595
O36	O	1.169276	0.473445	0.056329
O37	O	1.057086	0.593113	-0.055887
O38	O	0.944820	0.593114	0.056378
C39	C	1.000814	0.373332	0.000155
C40	C	1.000780	0.319047	0.000133
C41	C	0.942299	0.084289	0.058829
C42	C	0.942277	0.135319	0.058814
O43	O	0.892461	0.161695	0.108675
N44	N	1.000863	0.160844	0.000199
C45	C	1.059484	0.135331	-0.058397
O46	O	1.109315	0.161727	-0.108254
C47	C	1.059512	0.084298	-0.058375
C48	C	1.000913	0.058781	0.000236
C49	C	0.883706	0.058771	0.117436
C50	C	0.883727	0.007745	0.117448
C51	C	0.942340	-0.017763	0.058855
C52	C	1.000934	0.007755	0.000248
C53	C	1.118139	0.058783	-0.116963
C54	C	1.118163	0.007746	-0.116935
C55	C	1.059564	-0.017771	-0.058325
C56	C	1.059568	-0.068778	-0.058332
N57	N	1.000982	-0.094303	0.000283
C58	C	0.942368	-0.068796	0.058877
C59	C	1.059423	0.242502	-0.058437
C60	C	1.059389	0.293537	-0.058466
C61	C	0.942184	0.293521	0.058747
C62	C	0.942212	0.242488	0.058769
C63	C	1.000837	0.216977	0.000179
C64	C	0.942415	-0.175953	0.058899
C65	C	0.942437	-0.226981	0.058902
C66	C	1.059647	-0.226963	-0.058305
C67	C	1.059620	-0.175936	-0.058314
C68	C	1.001002	-0.150434	0.000296
O69	O	1.109363	-0.095189	-0.108163
O70	O	0.892558	-0.095204	0.108738
C71	C	0.700810	0.533279	0.000220
C72	C	0.598957	0.533279	0.000220
C73	C	0.448283	0.533279	-0.078538
C74	C	0.553553	0.533279	-0.078539
C75	C	1.301021	0.533279	0.000222
C76	C	1.402873	0.533279	0.000222
C77	C	1.000916	0.533279	-0.299884
C78	C	1.000916	0.533279	-0.401737
C79	C	1.001016	0.693227	0.000287
C80	C	1.001051	0.747511	0.000309
C81	C	0.945262	0.592642	-0.502813
C82	C	0.945261	0.592643	-0.608084
C83	C	1.000915	0.533280	0.300326
C84	C	1.000915	0.533280	0.402179
C85	C	1.300919	0.373332	0.000156
C86	C	1.402738	0.319047	0.000134
C87	C	1.000814	0.373332	0.300260
C88	C	1.000779	0.319048	0.402091
C89	C	1.300919	0.373332	0.300261
C90	C	1.402738	0.319048	0.402091
C91	C	0.700911	0.693226	-0.299819
C92	C	0.599093	0.747511	-0.401650
C93	C	0.700911	0.693227	0.000286
C94	C	0.599092	0.747511	0.000308
C95	C	1.001017	0.693226	-0.299818
C96	C	1.001051	0.747511	-0.401649
C97	C	1.391952	0.293554	-0.058488
C98	C	1.487612	0.242555	-0.058531
C99	C	1.594058	0.217046	0.000055
C100	C	1.604842	0.242544	0.058678
C101	C	1.509183	0.293546	0.058714
C102	C	1.059365	0.293555	0.508523
C103	C	1.059328	0.242556	0.604213
C104	C	1.000712	0.217047	0.593468
C105	C	0.942120	0.242545	0.487024
C106	C	0.942150	0.293546	0.391337
C107	C	1.509164	0.293555	0.391311
C108	C	1.604843	0.242556	0.486983
C109	C	1.594092	0.217047	0.593434
C110	C	1.487654	0.242545	0.604212
C111	C	1.391978	0.293547	0.508541
C112	C	0.492666	0.773009	-0.390869
C113	C	0.396988	0.824024	-0.486541
C114	C	0.407738	0.849536	-0.592992
C115	C	0.514176	0.824035	-0.603770
C116	C	0.609852	0.773024	-0.508100
C117	C	0.609879	0.773009	0.058920
C118	C	0.514218	0.824023	0.058937
C119	C	0.407773	0.849533	0.000347
C120	C	0.396989	0.824033	-0.058272
C121	C	0.492648	0.773024	-0.058295
C122	C	1.059679	0.773003	-0.390868
C123	C	1.059733	0.824003	-0.486539
C124	C	1.001152	0.849512	-0.592991
C125	C	0.942523	0.824014	-0.603769
C126	C	0.942476	0.773012	-0.508099
H127	H	0.894714	-0.247754	0.106629
F128	F	1.520631	0.320697	0.278027
F129	F	1.121696	0.215428	0.717487
H130	H	0.559916	0.533276	0.067656
H131	H	1.305324	0.314296	0.517335
H132	H	1.305287	0.314323	-0.106210
H133	H	0.483850	0.752265	-0.106020
F134	F	0.525719	0.851150	0.121334
F135	F	0.880064	0.745891	-0.519590
F136	F	1.121760	0.320693	0.519984
H137	H	0.441927	0.533283	0.067646
H138	H	0.897607	0.643467	-0.694794
F139	F	1.000690	0.162766	0.695318
F140	F	0.283692	0.851189	-0.120620
H141	H	0.894829	0.844791	-0.690455
H142	H	0.329890	0.891068	0.000375
F143	F	1.180508	0.085930	-0.179346
H144	H	0.592607	0.533275	-0.145965
H145	H	0.894396	0.221768	0.478292
F146	F	0.882989	0.659073	-0.514060
H147	H	0.522916	0.844813	-0.690454
H148	H	0.894447	0.314296	0.304678
H149	H	0.894680	-0.155194	0.106622
F150	F	1.122131	0.851133	-0.475044
F151	F	1.063191	0.466845	-0.484490
H152	H	1.048565	0.482456	-0.393137
F153	F	1.695930	0.162766	0.695246
F154	F	0.821364	-0.019410	0.179837
H155	H	1.478810	0.221801	-0.106269
F156	F	1.695858	0.162764	0.000008
H157	H	1.691523	0.221767	0.106377
F158	F	1.520680	0.320668	0.121119
H159	H	1.691500	0.221801	0.478187
F160	F	1.122033	0.745864	-0.277583
F161	F	1.476230	0.215389	0.717514
H162	H	0.483891	0.752241	-0.304200
F163	F	0.397233	0.533284	-0.166679
F164	F	0.821319	0.085909	0.179808
H165	H	0.310331	0.844778	-0.477743
F166	F	1.121976	-0.148772	-0.120705
F167	F	0.305900	0.903826	-0.694805
H168	H	0.696507	0.752264	-0.516891
F169	F	0.723157	0.745870	0.121280
F170	F	1.122021	-0.254117	-0.120665
F171	F	1.001210	0.903794	-0.694803
F172	F	0.879802	0.320677	0.121109
F173	F	0.879845	0.215334	0.121151
H174	H	1.107092	0.314318	-0.106206
H175	H	1.165906	-0.013024	-0.164644
F176	F	1.121813	0.215362	-0.120812
