data_functionalizedCrystal
_audit_creation_method	'MofGen! by Chris Wilmer'
_symmetry_space_group_name_H-M	'P1'
_symmetry_Int_Tables_number	1
_symmetry_cell_setting	triclinic
loop_
_symmetry_equiv_pos_as_xyz
  x,y,z
_cell_length_a	10.654562
_cell_length_b	10.654551
_cell_length_c	9.730223
_cell_angle_alpha	90.001469
_cell_angle_beta	89.996961
_cell_angle_gamma	84.487733
loop_
_atom_site_label
_atom_site_type_symbol
_atom_site_fract_x
_atom_site_fract_y
_atom_site_fract_z
O1	O	1.667825	0.176469	-0.114371
O2	O	1.302349	0.193259	-0.114353
O3	O	1.493489	0.002125	-0.114363
O4	O	1.476685	0.367603	-0.114361
O5	O	1.493487	0.002130	0.114217
O6	O	1.302347	0.193263	0.114227
O7	O	1.667823	0.176474	0.114209
Zn8	Zn	1.485085	0.184869	0.150510
Zn9	Zn	1.485088	0.184863	-0.150654
O10	O	1.476683	0.367607	0.114219
C11	C	1.255550	0.192025	-0.000061
C12	C	1.116108	0.188327	-0.000054
C13	C	1.050576	0.186604	0.124534
C14	C	0.919554	0.183139	0.124511
C15	C	0.919606	0.183125	-0.124700
C16	C	1.050627	0.186581	-0.124675
C17	C	1.116057	0.188350	0.249155
C18	C	1.050524	0.186629	0.373753
C19	C	0.919502	0.183165	0.373730
C20	C	0.854012	0.181421	0.249109
C21	C	1.492254	-0.044670	-0.000076
C22	C	1.488562	-0.184114	-0.000085
C23	C	1.486831	-0.249629	-0.124682
C24	C	1.483351	-0.380649	-0.124675
C25	C	1.483338	-0.380629	0.124535
C26	C	1.486809	-0.249610	0.124527
C27	C	1.488584	-0.184132	-0.249294
C28	C	1.486854	-0.249647	-0.373901
C29	C	1.483374	-0.380668	-0.373894
C30	C	1.481623	-0.446173	-0.249281
C31	C	1.714622	0.177708	-0.000086
C32	C	1.854064	0.181406	-0.000102
C33	C	1.477918	0.414403	-0.000071
C34	C	1.481610	0.553846	-0.000071
N35	N	1.485092	0.184873	0.356046
N36	N	1.485090	0.184850	-0.356190
C37	C	1.569751	0.100268	0.427968
C38	C	1.569747	0.100253	0.571851
C39	C	1.400422	0.269459	0.571878
C40	C	1.400420	0.269467	0.427998
C41	C	1.654422	0.015674	0.356017
C42	C	1.739089	-0.068937	0.427938
C43	C	1.739086	-0.068952	0.571821
C44	C	1.654415	0.015644	0.643783
H45	H	1.491421	-0.077449	-0.249313
H46	H	1.478771	-0.552857	-0.249286
H47	H	1.654435	0.015682	0.238860
N48	N	1.121321	0.188447	-0.259047
H49	H	1.185171	0.112162	-0.264584
H50	H	1.059876	0.186872	-0.337920
N51	N	1.309119	0.360706	0.649491
H52	H	1.255485	0.414305	0.582095
H53	H	1.253187	0.312099	0.709188
N54	N	0.848970	0.181266	-0.259102
H55	H	0.910367	0.182881	-0.338027
H56	H	0.804098	0.102115	-0.264540
N57	N	1.488624	-0.178990	-0.508299
H58	H	1.491059	-0.086045	-0.489400
H59	H	1.565703	-0.211356	-0.562791
H60	H	1.481953	-0.434005	-0.475355
N61	N	1.830381	-0.160202	0.350334
H62	H	1.817534	-0.147361	0.248272
H63	H	1.919603	-0.144881	0.375473
H64	H	1.808016	-0.137853	0.630379
H65	H	1.481913	-0.433974	0.225989
H66	H	1.488192	-0.196263	0.225985
H67	H	1.654411	0.015616	0.760942
N68	N	1.309108	0.360713	0.350413
H69	H	1.255476	0.414307	0.417823
H70	H	1.357665	0.416688	0.290715
H71	H	1.103856	0.188040	0.475215
N72	N	1.257371	0.192086	0.249167
H73	H	1.279428	0.270641	0.298085
H74	H	1.298326	0.115155	0.298071
N75	N	0.848759	0.181116	0.508056
H76	H	0.784828	0.257331	0.513673
H77	H	0.804050	0.101853	0.513318
N78	N	0.712697	0.177666	0.249079
H79	H	0.681117	0.176833	0.346916
H80	H	0.671747	0.254551	0.200089
