data_functionalizedCrystal
_audit_creation_method	'MofGen! by Chris Wilmer'
_symmetry_space_group_name_H-M	'P1'
_symmetry_Int_Tables_number	1
_symmetry_cell_setting	triclinic
loop_
_symmetry_equiv_pos_as_xyz
  x,y,z
_cell_length_a	16.992695
_cell_length_b	16.109302
_cell_length_c	15.186229
_cell_angle_alpha	89.994701
_cell_angle_beta	89.995943
_cell_angle_gamma	87.065002
loop_
_atom_site_label
_atom_site_type_symbol
_atom_site_fract_x
_atom_site_fract_y
_atom_site_fract_z
O1	O	0.100786	1.109856	-0.073269
O2	O	0.113328	0.868631	-0.073263
O3	O	-0.007085	0.988276	-0.073259
O4	O	0.221200	0.990210	-0.073273
O5	O	-0.007087	0.988268	0.073198
O6	O	0.113327	0.868622	0.073195
O7	O	0.100785	1.109847	0.073188
Zn8	Zn	0.107055	0.989233	0.096445
Zn9	Zn	0.107058	0.989245	-0.096519
O10	O	0.221198	0.990202	0.073184
C11	C	0.112819	0.837618	-0.000033
C12	C	0.111296	0.745221	-0.000030
C13	C	0.107772	0.532640	0.079795
C14	C	0.106332	0.445824	0.079792
C15	C	0.106338	0.445844	-0.079884
C16	C	0.107773	0.532659	-0.079880
C17	C	0.108493	0.576054	-0.000038
C18	C	0.105619	0.402423	-0.000045
C19	C	0.104058	0.308293	-0.000048
C20	C	0.110053	0.670190	-0.000034
C21	C	-0.036298	0.985784	-0.000030
C22	C	-0.123340	0.978360	-0.000030
C23	C	-0.173599	1.049986	-0.000031
C24	C	-0.255384	1.043006	-0.000040
C25	C	-0.286908	0.964400	-0.000040
C26	C	-0.236643	0.892768	-0.000042
C27	C	-0.154860	0.899749	-0.000040
C28	C	-0.530499	0.935467	-0.000052
C29	C	-0.612288	0.928491	-0.000051
C30	C	-0.631023	1.078730	-0.000050
C31	C	-0.549237	1.085704	-0.000043
C32	C	-0.498980	1.014073	-0.000049
N33	N	-0.370505	0.957263	-0.000046
N34	N	-0.415384	1.021210	-0.000050
C35	C	0.250411	0.992694	-0.000046
C36	C	0.337453	1.000117	-0.000052
C37	C	0.101294	1.140860	-0.000044
C38	C	0.102817	1.233257	-0.000052
N39	N	0.107053	0.989231	0.228137
N40	N	0.107053	0.989252	-0.228212
C41	C	0.053752	1.042231	0.453862
C42	C	0.053750	1.042233	0.546051
C43	C	0.160357	0.936247	0.546057
C44	C	0.160354	0.936241	0.453869
C45	C	0.107053	0.989238	0.407774
C46	C	0.107054	0.989246	0.592151
C47	C	0.107052	0.989249	0.692108
C48	C	0.107053	0.989234	0.307811
H49	H	-0.147938	1.113997	-0.000025
F50	F	-0.002978	1.098632	0.404807
H51	H	-0.296301	1.101332	-0.000039
H52	H	-0.489588	0.877139	-0.000057
F53	F	-0.515693	1.169368	-0.000065
H54	H	0.108358	0.568008	-0.144893
F55	F	-0.002981	1.098634	0.595098
F56	F	-0.684516	1.154960	-0.000045
F57	F	0.217084	0.879849	0.595121
H58	H	0.203759	0.893084	0.416342
F59	F	0.108536	0.578822	0.164770
F60	F	0.105566	0.399623	0.164761
F61	F	-0.270196	0.809108	-0.000053
H62	H	-0.637952	0.864477	-0.000037
H63	H	0.105752	0.410501	-0.144888
H64	H	-0.113939	0.841423	-0.000039
