data_functionalizedCrystal
_audit_creation_method	'MofGen! by Chris Wilmer'
_symmetry_space_group_name_H-M	'P1'
_symmetry_Int_Tables_number	1
_symmetry_cell_setting	triclinic
loop_
_symmetry_equiv_pos_as_xyz
  x,y,z
_cell_length_a	12.827892
_cell_length_b	16.625548
_cell_length_c	12.827885
_cell_angle_alpha	90.023013
_cell_angle_beta	90.026888
_cell_angle_gamma	90.017190
loop_
_atom_site_label
_atom_site_type_symbol
_atom_site_fract_x
_atom_site_fract_y
_atom_site_fract_z
Zn1	Zn	0.415986	-1.232715	-0.590974
Zn2	Zn	0.915986	-0.732715	-0.090974
Zn3	Zn	0.590764	-1.232628	-0.416243
Zn4	Zn	1.090764	-0.732628	0.083757
Zn5	Zn	0.416037	-1.097875	-0.416236
Zn6	Zn	0.916037	-0.597875	0.083764
Zn7	Zn	0.590686	-1.097859	-0.590932
Zn8	Zn	1.090686	-0.597859	-0.090932
O9	O	0.503368	-1.165269	-0.503596
O10	O	1.003368	-0.665269	-0.003596
O11	O	0.439182	-1.345536	-0.567816
O12	O	0.939182	-0.845536	-0.067816
O13	O	0.567640	-1.214724	-0.270006
O14	O	1.067640	-0.714724	0.229994
O15	O	0.269794	-1.115804	-0.439430
O16	O	0.769794	-0.615804	0.060570
O17	O	0.567591	-1.345472	-0.439442
O18	O	1.067591	-0.845472	0.060558
O19	O	0.269757	-1.214871	-0.567809
O20	O	0.769757	-0.714871	-0.067809
O21	O	0.439269	-1.115721	-0.270001
O22	O	0.939269	-0.615721	0.229999
O23	O	0.439193	-0.985040	-0.439389
O24	O	0.939193	-0.485040	0.060611
O25	O	0.567458	-1.115777	-0.737173
O26	O	1.067458	-0.615777	-0.237173
O27	O	0.567507	-0.985029	-0.567737
O28	O	1.067507	-0.485029	-0.067737
O29	O	0.439107	-1.214855	-0.737205
O30	O	0.939107	-0.714855	-0.237205
O31	O	0.736989	-1.214708	-0.439401
O32	O	1.236989	-0.714708	0.060599
O33	O	0.736932	-1.115694	-0.567744
O34	O	1.236932	-0.615694	-0.067744
C35	C	0.503347	-0.955778	-0.503559
C36	C	1.003347	-0.455778	-0.003559
C37	C	0.503364	-0.866157	-0.503567
C38	C	1.003364	-0.366157	-0.003567
C39	C	0.503362	-0.537982	-0.503599
C40	C	1.003362	-0.037982	-0.003599
C41	C	0.503359	-0.629290	-0.503587
C42	C	1.003359	-0.129290	-0.003587
C43	C	0.503363	-0.702066	-0.503582
C44	C	1.003363	-0.202066	-0.003582
C45	C	0.503360	-0.793381	-0.503572
C46	C	1.003360	-0.293381	-0.003572
C47	C	0.774878	-1.165212	-0.503592
C48	C	1.274878	-0.665212	-0.003592
C49	C	0.891031	-1.165261	-0.503624
C50	C	1.391031	-0.665261	-0.003624
C51	C	0.942810	-1.214313	-0.440189
C52	C	1.442810	-0.714313	0.059811
C53	C	1.062860	-1.214365	-0.440222
C54	C	1.562860	-0.714365	0.059778
C55	C	1.230798	-1.165342	-0.503637
C56	C	1.730798	-0.665342	-0.003637
C57	C	1.114645	-1.165357	-0.503686
C58	C	1.614645	-0.665357	-0.003686
C59	C	0.503383	-0.375578	-0.503625
C60	C	1.003383	0.124422	-0.003625
C61	C	0.503371	-0.465199	-0.503611
C62	C	1.003371	0.034801	-0.003611
C63	C	0.503268	-1.165324	-0.776167
C64	C	1.003268	-0.665324	-0.276167
C65	C	0.503225	-1.165347	-0.892320
C66	C	1.003225	-0.665347	-0.392320
C67	C	0.439700	-1.214380	-0.944120
C68	C	0.939700	-0.714380	-0.444120
C69	C	0.439655	-1.214405	-1.064170
C70	C	0.939655	-0.714405	-0.564170
C71	C	0.503393	-1.165261	-0.232086
C72	C	1.003393	-0.665261	0.267914
C73	C	0.503141	-1.165394	-0.115934
C74	C	1.003141	-0.665394	0.384066
H75	H	0.898265	-1.256274	-0.385859
H76	H	1.398265	-0.756274	0.114141
H77	H	0.385345	-1.256336	-0.899591
H78	H	0.885345	-0.756336	-0.399591
N79	N	0.571420	-1.112702	-0.948154
N80	N	1.071420	-0.612702	-0.448154
N81	N	0.631141	-1.066602	-0.899515
N82	N	1.131141	-0.566602	-0.399515
H83	H	0.679305	-1.029417	-0.938944
H84	H	1.179305	-0.529417	-0.438944
N85	N	0.371439	-1.267071	-1.120061
N86	N	0.871439	-0.767071	-0.620061
N87	N	0.371501	-1.267019	-1.217503
N88	N	0.871501	-0.767019	-0.717503
H89	H	0.323322	-1.304216	-1.256979
H90	H	0.823322	-0.804216	-0.756979
H91	H	0.557533	-1.123416	-1.071394
H92	H	1.057533	-0.623416	-0.571394
N93	N	0.946888	-1.112611	-0.571786
N94	N	1.446888	-0.612611	-0.071786
N95	N	0.898269	-1.066490	-0.631421
N96	N	1.398269	-0.566490	-0.131421
H97	H	0.937715	-1.029303	-0.679563
H98	H	1.437715	-0.529303	-0.179563
N99	N	1.118712	-1.267038	-0.372071
N100	N	1.618712	-0.767038	0.127929
N101	N	1.179713	-1.238677	-0.305515
N102	N	1.679713	-0.738677	0.194485
H103	H	1.219161	-1.275878	-0.257379
H104	H	1.719161	-0.775878	0.242621
N105	N	1.058785	-1.112681	-0.571827
N106	N	1.558785	-0.612681	-0.071827
N107	N	0.997778	-1.141041	-0.638378
N108	N	1.497778	-0.641041	-0.138378
H109	H	0.958319	-1.103840	-0.686504
H110	H	1.458319	-0.603840	-0.186504
