data_functionalizedCrystal
_audit_creation_method	'MofGen! by Chris Wilmer'
_symmetry_space_group_name_H-M	'P1'
_symmetry_Int_Tables_number	1
_symmetry_cell_setting	triclinic
loop_
_symmetry_equiv_pos_as_xyz
  x,y,z
_cell_length_a	10.723022
_cell_length_b	17.038272
_cell_length_c	9.198806
_cell_angle_alpha	89.996565
_cell_angle_beta	89.996352
_cell_angle_gamma	87.789391
loop_
_atom_site_label
_atom_site_type_symbol
_atom_site_fract_x
_atom_site_fract_y
_atom_site_fract_z
O1	O	1.667338	0.109714	-0.120885
O2	O	1.305157	0.120218	-0.120890
O3	O	1.484095	0.001139	-0.120876
O4	O	1.488400	0.228793	-0.120899
O5	O	1.484079	0.001138	0.120909
O6	O	1.305141	0.120218	0.120895
O7	O	1.667322	0.109714	0.120900
Cu8	Cu	1.486231	0.114966	0.142975
Cu9	Cu	1.486249	0.114966	-0.142964
O10	O	1.488385	0.228793	0.120886
C11	C	1.258579	0.119454	0.000002
C12	C	1.119813	0.117167	0.000000
C13	C	0.907579	0.181433	-0.000009
C14	C	1.051001	0.183798	-0.000007
C15	C	1.480171	-0.028011	0.000016
C16	C	1.468489	-0.114869	0.000016
C17	C	1.575745	-0.164390	0.000019
C18	C	1.564761	-0.246002	0.000005
C19	C	1.446520	-0.278090	-0.000002
C20	C	1.339257	-0.228561	-0.000009
C21	C	1.350242	-0.146952	-0.000006
C22	C	1.407711	-0.524062	-0.000022
C23	C	1.396734	-0.605678	-0.000021
C24	C	1.622240	-0.623112	-0.000010
C25	C	1.633215	-0.541500	0.000002
C26	C	1.525951	-0.491979	-0.000013
C27	C	1.435290	-0.361509	-0.000011
C28	C	1.537182	-0.408562	-0.000014
C29	C	1.713900	0.110478	0.000005
C30	C	1.852666	0.112764	-0.000003
C31	C	1.492308	0.257943	-0.000009
C32	C	1.503990	0.344800	-0.000018
N33	N	1.486227	0.114965	0.344089
N34	N	1.486261	0.114961	-0.344078
C35	C	1.561337	0.064747	0.416291
C36	C	1.561357	0.064744	0.583704
H37	H	1.652100	-0.286319	0.000011
O38	O	1.409365	0.166225	0.582027
C39	C	1.284324	0.153026	0.619110
H40	H	1.281070	0.122935	0.729662
H41	H	1.229326	0.211571	0.624171
H42	H	1.241465	0.113902	0.533487
H43	H	1.242982	-0.254694	-0.000024
H44	H	1.421931	0.157954	0.406212
H45	H	0.848413	0.238472	-0.000024
O46	O	1.107159	0.254009	0.000049
C47	C	1.015321	0.315502	0.000002
H48	H	0.924471	0.293175	0.045777
H49	H	1.047973	0.365883	0.070192
H50	H	0.999257	0.337172	-0.115998
H51	H	0.911832	0.055725	-0.000005
O52	O	1.690701	-0.133353	-0.000043
C53	C	1.783010	-0.194567	-0.000012
H54	H	1.742124	-0.250182	-0.045785
H55	H	1.865042	-0.177085	-0.070212
H56	H	1.816507	-0.205932	0.115983
H57	H	1.633453	-0.382432	-0.000040
O58	O	1.320502	-0.392775	-0.000198
C59	C	1.307402	-0.439438	-0.125442
H60	H	1.403655	-0.459223	-0.167199
H61	H	1.251972	-0.493144	-0.097281
H62	H	1.255986	-0.403683	-0.213122
H63	H	1.729498	-0.515381	0.000008
O64	O	1.281894	-0.636883	0.000223
C65	C	1.268789	-0.683585	0.125429
H66	H	1.336069	-0.663939	0.212958
H67	H	1.168937	-0.676800	0.167451
H68	H	1.290761	-0.747777	0.097125
O69	O	1.063606	0.046972	-0.000189
C70	C	1.099815	0.004173	-0.125427
H71	H	1.192451	0.025900	-0.167177
H72	H	1.110838	-0.060883	-0.097260
H73	H	1.025438	0.012892	-0.213113
O74	O	1.726301	-0.671329	-0.000073
C75	C	1.691258	-0.750241	-0.000041
H76	H	1.592861	-0.753894	-0.045815
H77	H	1.759096	-0.786821	-0.070242
H78	H	1.693483	-0.773820	0.115954
O79	O	1.303392	-0.476077	0.000047
C80	C	1.196680	-0.521902	0.000016
H81	H	1.221911	-0.582634	0.045784
H82	H	1.120993	-0.492231	0.070220
H83	H	1.160844	-0.527896	-0.115979
H84	H	1.262903	-0.106631	-0.000008
O85	O	1.637894	0.013452	0.342000
C86	C	1.565653	-0.035033	0.253960
H87	H	1.471339	-0.004289	0.231357
H88	H	1.616316	-0.047093	0.146843
H89	H	1.550890	-0.092922	0.312484
H90	H	1.625667	0.021753	0.645795
