data_functionalizedCrystal
_audit_creation_method	'MofGen! by Chris Wilmer'
_symmetry_space_group_name_H-M	'P1'
_symmetry_Int_Tables_number	1
_symmetry_cell_setting	triclinic
loop_
_symmetry_equiv_pos_as_xyz
  x,y,z
_cell_length_a	17.077404
_cell_length_b	25.639239
_cell_length_c	25.639243
_cell_angle_alpha	90.014282
_cell_angle_beta	90.013398
_cell_angle_gamma	90.038911
loop_
_atom_site_label
_atom_site_type_symbol
_atom_site_fract_x
_atom_site_fract_y
_atom_site_fract_z
Zn1	Zn	1.199921	-0.208234	0.295619
Zn2	Zn	1.199806	-0.295646	0.208183
Zn3	Zn	1.068667	-0.208227	0.208196
Zn4	Zn	1.068585	-0.295641	0.295586
O5	O	1.134245	-0.251937	0.251896
O6	O	1.309753	-0.219835	0.284028
O7	O	1.182396	-0.284049	0.135019
O8	O	1.086161	-0.135063	0.219812
O9	O	1.309668	-0.284056	0.219789
O10	O	1.182593	-0.135068	0.284041
O11	O	1.086049	-0.219823	0.135029
O12	O	0.958809	-0.219817	0.219781
O13	O	1.086021	-0.284047	0.368756
O14	O	0.958749	-0.284040	0.283986
O15	O	1.182513	-0.219830	0.368779
O16	O	1.182317	-0.368811	0.219758
O17	O	1.085909	-0.368807	0.283973
C18	C	0.930297	-0.251928	0.251882
C19	C	0.843047	-0.251936	0.251888
C20	C	0.802046	-0.285427	0.285266
C21	C	0.720065	-0.285428	0.285274
C22	C	0.679088	-0.251941	0.251901
C23	C	0.720094	-0.218446	0.218522
C24	C	0.802073	-0.218443	0.218517
C25	C	0.549224	-0.218456	0.218535
C26	C	0.467240	-0.218460	0.218539
C27	C	0.467216	-0.285442	0.285292
C28	C	0.549195	-0.285439	0.285287
C29	C	0.590197	-0.251944	0.251906
C30	C	1.134113	-0.387780	0.251872
C31	C	1.134128	-0.445894	0.251879
C32	C	1.184575	-0.806246	0.218516
C33	C	1.184606	-0.860851	0.218523
O34	O	1.227361	-0.889078	0.190131
N35	N	1.134383	-0.888176	0.251931
C36	C	1.084132	-0.860895	0.285337
O37	O	1.041416	-0.889151	0.313753
C38	C	1.084106	-0.806291	0.285332
C39	C	1.134326	-0.778969	0.251919
C40	C	1.234792	-0.778923	0.185106
C41	C	1.234761	-0.724323	0.185099
C42	C	1.184512	-0.697045	0.218501
C43	C	1.134295	-0.724368	0.251911
C44	C	1.033859	-0.779011	0.318741
C45	C	1.033838	-0.724404	0.318733
C46	C	1.084059	-0.697081	0.285320
C47	C	1.084014	-0.642490	0.285306
N48	N	1.134237	-0.615164	0.251899
C49	C	1.184486	-0.642442	0.218496
C50	C	1.084191	-0.975565	0.285345
C51	C	1.084212	-1.030168	0.285347
C52	C	1.184687	-1.030120	0.218534
C53	C	1.184661	-0.975516	0.218530
C54	C	1.134414	-0.948240	0.251938
C55	C	1.184415	-0.527777	0.218483
C56	C	1.184377	-0.473171	0.218477
C57	C	1.083905	-0.473224	0.285291
C58	C	1.083940	-0.527825	0.285296
C59	C	1.134202	-0.555100	0.251890
O60	O	1.041283	-0.614227	0.313686
O61	O	1.227201	-0.614179	0.190089
C62	C	1.338989	-0.251947	0.251911
C63	C	1.426239	-0.251951	0.251917
C64	C	1.134270	-0.251939	0.388269
C65	C	1.134281	-0.251939	0.446383
C66	C	1.134399	-0.115564	0.251931
C67	C	1.134464	-0.057450	0.251947
C68	C	1.084068	-0.218501	0.806757
C69	C	1.084062	-0.218502	0.861361
O70	O	1.041381	-0.190077	0.889607
N71	N	1.134225	-0.251939	0.888665
C72	C	1.184391	-0.285382	0.861363
O73	O	1.227058	-0.313824	0.889601
C74	C	1.184393	-0.285384	0.806760
C75	C	1.134232	-0.251940	0.779458
C76	C	1.033911	-0.185061	0.779455
C77	C	1.033918	-0.185059	0.724854
C78	C	1.084083	-0.218499	0.697556
C79	C	1.134240	-0.251939	0.724857
C80	C	1.234555	-0.318829	0.779458
C81	C	1.234551	-0.318828	0.724851
C82	C	1.184391	-0.285384	0.697549
C83	C	1.184411	-0.285377	0.642958
N84	N	1.134248	-0.251939	0.615653
C85	C	1.084084	-0.218500	0.642952
C86	C	1.184384	-0.285377	0.976034
C87	C	1.184387	-0.285373	1.030636
C88	C	1.084057	-0.218493	1.030630
C89	C	1.084058	-0.218495	0.976027
C90	C	1.134221	-0.251939	0.948729
C91	C	1.084103	-0.218500	0.528287
C92	C	1.084117	-0.218500	0.473682
C93	C	1.184444	-0.285382	0.473692
C94	C	1.184434	-0.285380	0.528293
C95	C	1.134257	-0.251937	0.555589
O96	O	1.227068	-0.313788	0.614678
O97	O	1.041417	-0.190068	0.614707
C98	C	1.134218	-0.251945	1.116053
C99	C	1.134219	-0.251936	1.057939
H100	H	0.686686	-0.312701	0.312453
O101	O	1.238551	-0.321445	0.444243
H102	H	1.225043	-0.362479	0.454711
H103	H	1.225241	-0.312600	1.052860
O104	O	0.593451	-0.182331	0.182533
H105	H	0.630769	-0.205691	0.155892
O106	O	1.029984	-0.946144	0.321374
H107	H	0.990064	-0.921300	0.297944
H108	H	0.433878	-0.191185	0.191370
H109	H	1.043213	-0.191262	0.953801
H110	H	0.835404	-0.312699	0.312440
H111	H	1.225242	-0.312608	0.953811
O112	O	1.288637	-0.354913	0.808897
H113	H	1.323500	-0.378171	0.780733
O114	O	0.423001	-0.321566	0.321301
H115	H	0.359112	-0.315938	0.315705
H116	H	0.993069	-0.157828	0.702630
O117	O	0.593398	-0.321554	0.321282
H118	H	0.551117	-0.344842	0.344499
O119	O	1.238557	-0.443703	0.182443
H120	H	1.203446	-0.418861	0.155812
H121	H	0.686724	-0.191177	0.191352
H122	H	0.835455	-0.191168	0.191340
H123	H	0.992921	-0.702198	0.345940
O124	O	1.238617	-0.557192	0.182449
H125	H	1.273521	-0.529012	0.159214
H126	H	1.275657	-0.702080	0.157892
O127	O	1.288988	-0.808341	0.149073
H128	H	1.323892	-0.780159	0.125841
O129	O	1.238835	-0.946047	0.182497
H130	H	1.273781	-0.974194	0.159276
H131	H	1.275406	-0.346060	0.702628
H132	H	1.225605	-1.052339	0.191338
H133	H	1.043049	-0.550072	0.312505
H134	H	1.043310	-1.052409	0.312551
O135	O	1.238535	-0.321448	0.557745
H136	H	1.273415	-0.344701	0.529587
O137	O	0.979697	-0.808473	0.354783
H138	H	0.944766	-0.780323	0.378011
O139	O	1.029712	-0.443799	0.321321
H140	H	1.038140	-0.401240	0.315704
H141	H	1.043270	-0.191264	0.451455
O142	O	1.029993	-0.182426	0.557725
H143	H	0.995128	-0.159171	0.529559
H144	H	0.993058	-0.157830	0.801676
O145	O	1.029947	-0.182425	1.060078
H146	H	1.038373	-0.188048	1.102633
