data_functionalizedCrystal
_audit_creation_method	'MofGen! by Chris Wilmer'
_symmetry_space_group_name_H-M	'P1'
_symmetry_Int_Tables_number	1
_symmetry_cell_setting	triclinic
loop_
_symmetry_equiv_pos_as_xyz
  x,y,z
_cell_length_a	15.995300
_cell_length_b	27.731996
_cell_length_c	14.472310
_cell_angle_alpha	89.992904
_cell_angle_beta	89.985388
_cell_angle_gamma	83.046597
loop_
_atom_site_label
_atom_site_type_symbol
_atom_site_fract_x
_atom_site_fract_y
_atom_site_fract_z
O1	O	1.110198	0.062187	-0.076887
O2	O	0.866315	0.069906	-0.076883
O3	O	0.995853	-0.004320	-0.076865
O4	O	0.980659	0.136413	-0.076905
O5	O	0.995820	-0.004316	0.076817
O6	O	0.866281	0.069911	0.076799
O7	O	1.110165	0.062191	0.076795
Cu8	Cu	0.988220	0.066051	0.090829
Cu9	Cu	0.988259	0.066046	-0.090917
O10	O	0.980626	0.136418	0.076777
C11	C	0.835107	0.069594	-0.000041
C12	C	0.742167	0.068650	-0.000039
C13	C	0.572007	0.066907	-0.000045
C14	C	0.523840	0.119757	-0.000058
C15	C	0.427165	0.118793	-0.000409
C16	C	0.404473	0.065191	-0.000051
C17	C	0.445972	0.038967	-0.087630
C18	C	0.542588	0.040305	-0.087702
C19	C	0.542840	0.039527	0.087070
C20	C	0.445895	0.039532	0.088218
C21	C	0.309790	0.064219	-0.000057
C22	C	0.666689	0.067878	-0.000045
C23	C	0.995525	-0.022326	-0.000021
C24	C	0.994585	-0.075987	-0.000012
C25	C	0.988688	-0.408730	-0.083829
C26	C	0.985118	-0.610403	-0.083845
O27	O	0.984635	-0.636478	-0.155090
N28	N	0.984656	-0.635620	-0.000074
C29	C	0.985082	-0.610415	0.083708
O30	O	0.984599	-0.636490	0.154960
C31	C	0.988646	-0.408742	0.083723
C32	C	0.989116	-0.383529	-0.000054
C33	C	0.989157	-0.383517	-0.167599
C34	C	0.990054	-0.333102	-0.167594
C35	C	0.990482	-0.307900	-0.083819
C36	C	0.990013	-0.333114	-0.000049
C37	C	0.989065	-0.383537	0.167503
C38	C	0.989954	-0.333116	0.167500
C39	C	0.990424	-0.307902	0.083723
C40	C	0.991338	-0.257497	0.083731
N41	N	0.991799	-0.232281	-0.000041
C42	C	0.991371	-0.257482	-0.083815
C43	C	0.983212	-0.716296	0.083694
C44	C	0.982323	-0.766714	0.083690
C45	C	0.982357	-0.766699	-0.083863
C46	C	0.983253	-0.716281	-0.083858
C47	C	0.983674	-0.691080	-0.000078
C48	C	0.993256	-0.151607	-0.083799
C49	C	0.994157	-0.101188	-0.083786
C50	C	0.994118	-0.101207	0.083766
C51	C	0.993222	-0.151622	0.083754
C52	C	0.992788	-0.176821	-0.000036
O53	O	0.991811	-0.231391	0.154939
O54	O	0.991836	-0.231397	-0.155057
C55	C	0.987791	-0.459145	-0.083834
C56	C	0.987322	-0.484359	-0.000064
C57	C	0.987750	-0.459157	0.083711
C58	C	0.986432	-0.534777	-0.000067
C59	C	0.986004	-0.559978	-0.083842
C60	C	0.986466	-0.534761	-0.167613
C61	C	0.987363	-0.484347	-0.167608
C62	C	0.987288	-0.484374	0.167482
C63	C	0.986392	-0.534789	0.167471
C64	C	0.985964	-0.559990	0.083696
C65	C	1.141373	0.062504	-0.000049
C66	C	1.234313	0.063448	-0.000057
C67	C	0.980955	0.154424	-0.000069
C68	C	0.981895	0.208084	-0.000085
N69	N	0.988199	0.066055	0.218660
N70	N	0.988287	0.066039	-0.218748
C71	C	0.988258	0.066044	0.592751
C72	C	0.918716	0.105628	0.553576
C73	C	0.918873	0.105773	0.446488
C74	C	0.988228	0.066050	0.407160
C75	C	1.075449	0.077056	0.445992
C76	C	1.075057	0.077338	0.553114
C77	C	0.971361	0.015336	0.553296
C78	C	0.969353	0.015675	0.446168
C79	C	0.988216	0.066051	0.302272
C80	C	0.988276	0.066043	0.697640
H81	H	0.994541	-0.080662	-0.152011
O82	O	0.933072	0.155617	0.412512
H83	H	0.933226	0.155896	0.335820
O84	O	0.990421	-0.305937	0.257867
H85	H	0.933152	-0.311302	0.298041
H86	H	0.987638	-0.463860	0.235703
O87	O	1.038496	-0.023701	0.586892
H88	H	1.072341	-0.041535	0.526684
O89	O	0.992784	-0.178777	-0.174174
H90	H	1.049463	-0.206069	-0.178193
H91	H	0.560670	0.059201	-0.153428
H92	H	0.399059	0.139306	-0.063567
H93	H	0.542036	0.140998	0.062735
O94	O	0.409325	0.064896	0.174046
H95	H	0.438925	0.046547	0.236123
O96	O	0.389073	0.146087	0.082728
H97	H	0.403169	0.184276	0.079866
O98	O	0.985992	-0.561951	-0.257968
H99	H	0.929078	-0.547952	-0.298132
O100	O	1.145606	0.039886	0.412251
H101	H	1.118989	0.013110	0.367335
O102	O	0.981836	-0.793908	0.174049
H103	H	0.924343	-0.812567	0.178059
O104	O	0.549439	0.147471	-0.083148
H105	H	0.596319	0.123767	-0.124437
O106	O	0.426211	-0.012222	0.095634
H107	H	0.386433	-0.020504	0.036247
H108	H	0.990433	-0.312577	-0.235814
O109	O	0.585631	-0.012085	0.088221
H110	H	0.627474	-0.018231	0.027084
H111	H	0.575376	0.001496	-0.091433
O112	O	0.983679	-0.689124	0.174069
H113	H	0.926990	-0.661840	0.178100
O114	O	0.981866	-0.793881	-0.174225
H115	H	1.039128	-0.788527	-0.214421
O116	O	0.408109	0.062794	-0.174304
H117	H	0.378449	0.035714	-0.215556
O118	O	1.094915	0.126321	0.586195
H119	H	1.104701	0.149586	0.525682
H120	H	0.988805	-0.404030	-0.235822
H121	H	0.988684	-0.404058	0.235723
O122	O	1.145619	0.040606	0.587450
H123	H	1.179875	0.022723	0.527541
H124	H	0.432396	-0.000418	-0.090630
H125	H	1.090816	0.113615	0.419144
O126	O	0.832964	0.097096	0.411705
H127	H	0.785086	0.126330	0.437436
O128	O	0.992717	-0.178822	0.174109
H129	H	0.993162	-0.152825	0.232363
H130	H	0.563095	0.056929	0.153472
H131	H	0.983634	-0.695755	-0.152077
O132	O	0.994578	-0.074022	0.174122
H133	H	0.995271	-0.034727	0.160042
H134	H	0.986016	-0.555314	0.235697
O135	O	1.032165	-0.025169	0.410717
H136	H	0.998512	-0.051363	0.371652
H137	H	0.987745	-0.463822	-0.235828
H138	H	0.929284	0.143046	0.580475
O139	O	0.888973	0.001320	0.589114
H140	H	0.859147	0.030343	0.635443
H141	H	0.853650	0.099180	0.579367
H142	H	0.905196	0.007321	0.420790
