data_functionalizedCrystal
_audit_creation_method	'MofGen! by Chris Wilmer'
_symmetry_space_group_name_H-M	'P1'
_symmetry_Int_Tables_number	1
_symmetry_cell_setting	triclinic
loop_
_symmetry_equiv_pos_as_xyz
  x,y,z
_cell_length_a	12.594510
_cell_length_b	16.959455
_cell_length_c	16.959454
_cell_angle_alpha	90.017022
_cell_angle_beta	90.033496
_cell_angle_gamma	90.021350
loop_
_atom_site_label
_atom_site_type_symbol
_atom_site_fract_x
_atom_site_fract_y
_atom_site_fract_z
Zn1	Zn	-0.601822	-1.208439	0.314678
Zn2	Zn	-0.423845	-1.208345	0.446886
Zn3	Zn	-0.423856	-1.076251	0.314718
Zn4	Zn	-0.601780	-1.076232	0.446811
O5	O	-0.512826	-1.142317	0.380773
O6	O	-0.578227	-1.319037	0.332230
O7	O	-0.274901	-1.190791	0.429401
O8	O	-0.447486	-1.093833	0.204102
O9	O	-0.447468	-1.318968	0.429362
O10	O	-0.578237	-1.190951	0.204072
O11	O	-0.274908	-1.093742	0.332298
O12	O	-0.447444	-0.965637	0.332226
O13	O	-0.750731	-1.093800	0.429235
O14	O	-0.578164	-0.965623	0.429274
O15	O	-0.750763	-1.190932	0.332157
O16	O	-0.447426	-1.190773	0.557487
O17	O	-0.578154	-1.093710	0.557432
C18	C	-0.512808	-1.142250	0.586139
C19	C	-0.512836	-1.142294	0.673996
C20	C	-0.512801	-0.936950	0.380747
C21	C	-0.512816	-0.849094	0.380755
C22	C	-0.790447	-1.142375	0.380683
C23	C	-0.908752	-1.142400	0.380645
C24	C	-1.048786	-1.195248	0.327829
C25	C	-0.977966	-1.214542	0.399954
C26	C	-0.978002	-1.123141	0.308528
C27	C	-1.048717	-1.161764	0.452784
C28	C	-1.048760	-1.070329	0.361310
C29	C	-0.977971	-1.089595	0.433485
C30	C	-0.236285	-1.142304	0.380805
C31	C	-0.117980	-1.142432	0.380621
C32	C	-0.512851	-1.348485	0.380800
C33	C	-0.512862	-1.436341	0.380811
C34	C	-0.444902	-0.477601	0.330199
C35	C	-0.580810	-0.477635	0.431412
C36	C	-0.580804	-0.560181	0.431401
C37	C	-0.512844	-0.601441	0.380789
C38	C	-0.444891	-0.560155	0.330187
C39	C	-0.648748	-0.601473	0.482007
C40	C	-0.648744	-0.684024	0.481998
C41	C	-0.580789	-0.725286	0.431381
C42	C	-0.512834	-0.683994	0.380777
C43	C	-0.444874	-0.725254	0.330165
C44	C	-0.376923	-0.683964	0.279556
C45	C	-0.376936	-0.601416	0.279570
C46	C	-0.580776	-0.807834	0.431367
C47	C	-0.444863	-0.807807	0.330154
C48	C	-0.512867	-1.142405	0.174605
C49	C	-0.512885	-1.142442	0.086748
C50	C	-0.580888	-1.091849	1.045473
C51	C	-0.444872	-1.193004	1.045470
C52	C	-0.444862	-1.192976	0.962924
C53	C	-0.512865	-1.142384	0.921649
C54	C	-0.580878	-1.091818	0.962919
C55	C	-0.376842	-1.243535	0.921647
C56	C	-0.376829	-1.243509	0.839097
C57	C	-0.444838	-1.192919	0.797820
C58	C	-0.512855	-1.142353	0.839095
C59	C	-0.580859	-1.091760	0.797820
C60	C	-0.648882	-1.041197	0.839094
C61	C	-0.648888	-1.041229	0.921642
C62	C	-0.444832	-1.192887	0.715271
C63	C	-0.580849	-1.091729	0.715266
H64	H	-1.079878	-1.239961	0.283229
H65	H	-0.636134	-0.444037	0.472623
Cl66	Cl	-0.291486	-0.735843	0.215937
H67	H	-0.321613	-0.567790	0.238369
H68	H	-0.947074	-1.044917	0.478191
H69	H	-0.946935	-1.106838	0.247550
Cl70	Cl	-0.666350	-1.028127	0.663384
H71	H	-0.704268	-1.000062	0.955255
Cl72	Cl	-0.359489	-0.425697	0.266576
H73	H	-0.704246	-1.000000	0.805478
Cl74	Cl	-0.291365	-1.307138	0.973539
Cl75	Cl	-0.666403	-1.028291	1.097357
Cl76	Cl	-0.734143	-0.549601	0.545655
Cl77	Cl	-0.734168	-0.735924	0.545617
H78	H	-0.389444	-1.234051	0.681670
H79	H	-0.946866	-1.275504	0.416302
H80	H	-1.079881	-1.009384	0.344939
H81	H	-0.389528	-0.841395	0.288933
Cl82	Cl	-0.291326	-1.307080	0.787217
Cl83	Cl	-1.096469	-1.187047	0.546957
Cl84	Cl	-0.666186	-0.859738	0.494988
H85	H	-0.389500	-1.234190	1.079081
