data_functionalizedCrystal
_audit_creation_method	'MofGen! by Chris Wilmer'
_symmetry_space_group_name_H-M	'P1'
_symmetry_Int_Tables_number	1
_symmetry_cell_setting	triclinic
loop_
_symmetry_equiv_pos_as_xyz
  x,y,z
_cell_length_a	27.731994
_cell_length_b	27.731996
_cell_length_c	14.750779
_cell_angle_alpha	77.461457
_cell_angle_beta	102.538091
_cell_angle_gamma	82.620961
loop_
_atom_site_label
_atom_site_type_symbol
_atom_site_fract_x
_atom_site_fract_y
_atom_site_fract_z
O1	O	0.630376	0.067946	-0.079706
O2	O	0.489572	0.076724	-0.079740
O3	O	0.564363	0.001933	-0.079701
O4	O	0.555585	0.142737	-0.079745
O5	O	0.585505	-0.019208	0.079960
O6	O	0.510715	0.055584	0.079922
O7	O	0.651518	0.046806	0.079955
Zn8	Zn	0.584473	0.047838	0.105288
Zn9	Zn	0.556617	0.075691	-0.105072
O10	O	0.576728	0.121597	0.079917
C11	C	0.482136	0.065974	0.000087
C12	C	0.428478	0.065433	0.000075
C13	C	0.107290	0.050489	0.087145
C14	C	-0.094366	0.048426	0.087156
O15	O	-0.110638	0.038338	0.161173
N16	N	-0.131106	0.059693	0.000125
C17	C	-0.117429	0.071474	-0.086915
O18	O	-0.153304	0.081005	-0.160941
C19	C	0.084227	0.073534	-0.086926
C20	C	0.120964	0.062270	0.000111
C21	C	0.144026	0.039226	0.174174
C22	C	0.194437	0.039744	0.174171
C23	C	0.208111	0.051526	0.087137
C24	C	0.171375	0.062789	0.000107
C25	C	0.097904	0.085311	-0.173965
C26	C	0.148323	0.085824	-0.173960
C27	C	0.185060	0.074560	-0.086923
C28	C	0.235460	0.075089	-0.086930
N29	N	0.272199	0.063821	0.000101
C30	C	0.258525	0.052040	0.087135
C31	C	-0.223300	0.070393	-0.086904
C32	C	-0.273714	0.069879	-0.086901
C33	C	-0.250648	0.046830	0.087170
C34	C	-0.200234	0.047347	0.087167
C35	C	-0.186561	0.059125	0.000127
C36	C	0.364390	0.053130	0.087120
C37	C	0.414803	0.053652	0.087109
C38	C	0.391734	0.076699	-0.086963
C39	C	0.341324	0.076180	-0.086952
C40	C	0.327654	0.064393	0.000097
O41	O	0.251768	0.085166	-0.160908
O42	O	0.294409	0.042499	0.161149
C43	C	0.056879	0.049970	0.087148
C44	C	0.020143	0.061233	0.000118
C45	C	0.033818	0.073015	-0.086915
C46	C	-0.030271	0.060719	0.000121
C47	C	-0.043945	0.048938	0.087154
C48	C	-0.007206	0.037670	0.174186
C49	C	0.043205	0.038189	0.174182
C50	C	-0.002922	0.084282	-0.173946
C51	C	-0.053332	0.083763	-0.173935
C52	C	-0.067006	0.071982	-0.086902
C53	C	0.574754	-0.026645	0.000133
C54	C	0.574213	-0.080303	0.000143
C55	C	0.559267	-0.401488	-0.086937
C56	C	0.557204	-0.603144	-0.086954
O57	O	0.547115	-0.619414	-0.160971
N58	N	0.568472	-0.639884	0.000077
C59	C	0.580254	-0.626208	0.087118
O60	O	0.589787	-0.662085	0.161142
C61	C	0.582314	-0.424553	0.087134
C62	C	0.571050	-0.387815	0.000098
C63	C	0.548003	-0.364751	-0.173966
C64	C	0.548522	-0.314341	-0.173960
C65	C	0.560304	-0.300668	-0.086926
C66	C	0.571568	-0.337405	0.000103
C67	C	0.594093	-0.410877	0.174174
C68	C	0.594605	-0.360459	0.174170
C69	C	0.583341	-0.323721	0.087134
C70	C	0.583870	-0.273321	0.087143
N71	N	0.572601	-0.236581	0.000112
C72	C	0.560818	-0.250254	-0.086922
C73	C	0.579173	-0.732080	0.087103
C74	C	0.578659	-0.782493	0.087099
C75	C	0.555607	-0.759425	-0.086973
C76	C	0.556125	-0.709011	-0.086968
C77	C	0.567905	-0.695339	0.000072
C78	C	0.561909	-0.144389	-0.086905
C79	C	0.562430	-0.093976	-0.086892
C80	C	0.585479	-0.117048	0.087179
C81	C	0.584960	-0.167457	0.087167
C82	C	0.573172	-0.181126	0.000117
O83	O	0.593948	-0.257014	0.161121
O84	O	0.551277	-0.214369	-0.160936
C85	C	0.558749	-0.451899	-0.086942
C86	C	0.570013	-0.488636	0.000087
C87	C	0.581795	-0.474963	0.087122
C88	C	0.569499	-0.539050	0.000083
C89	C	0.557716	-0.552723	-0.086951
C90	C	0.546447	-0.515982	-0.173981
C91	C	0.546966	-0.465572	-0.173976
C92	C	0.593064	-0.511703	0.174152
C93	C	0.592545	-0.562113	0.174140
C94	C	0.580762	-0.575786	0.087105
C95	C	0.658955	0.057556	0.000127
C96	C	0.712612	0.058098	0.000132
C97	C	0.566336	0.150175	0.000081
C98	C	0.566876	0.203833	0.000065
N99	N	0.603488	0.028829	0.248854
N100	N	0.537607	0.094697	-0.248638
C101	C	0.484502	0.147766	0.600610
C102	C	0.497830	0.134449	0.701116
C103	C	0.564070	0.068245	0.701113
C104	C	0.550746	0.081556	0.600605
C105	C	0.510962	0.121317	0.550362
C106	C	0.577207	0.055106	0.550357
C107	C	0.563886	0.068417	0.449857
C108	C	0.524104	0.108178	0.399607
C109	C	0.497641	0.134628	0.449862
C110	C	0.616993	0.015348	0.600602
C111	C	0.643453	-0.011102	0.550353
C112	C	0.630130	0.002207	0.449852
C113	C	0.590349	0.041967	0.399602
C114	C	0.656593	-0.024243	0.399596
C115	C	0.643272	-0.010932	0.299097
C116	C	0.577027	0.055278	0.299102
H117	H	0.224345	0.030570	0.245045
O118	O	0.544076	-0.772725	-0.171494
C119	C	0.501214	-0.795409	-0.176683
H120	H	0.478641	-0.782703	-0.127295
H121	H	0.513391	-0.838026	-0.153291
C122	C	0.496163	-0.795389	-0.341321
C123	C	0.468436	-0.779780	-0.280669
H124	H	0.475945	-0.785751	-0.405465
H125	H	0.525041	-0.780108	-0.337825
H126	H	0.506309	-0.830903	-0.321817
H127	H	0.458296	-0.744267	-0.300167
H128	H	0.439556	-0.795055	-0.284170
H129	H	0.444714	0.044481	0.157988
H130	H	0.675847	-0.043475	0.591273
H131	H	0.587839	-0.812403	0.157973
O132	O	0.630014	0.002365	0.698227
C133	C	0.670796	-0.038405	0.731799
H134	H	0.691978	-0.039366	0.673875
H135	H	0.656176	-0.075001	0.749643
C136	C	0.680466	-0.031024	0.893753
C137	C	0.706484	-0.032203	0.822613
H138	H	0.702479	-0.027200	0.949774
H139	H	0.652989	-0.003558	0.871137
H140	H	0.668284	-0.061522	0.908612
H141	H	0.718660	-0.001703	0.807747
H142	H	0.733964	-0.059664	0.845229
H143	H	0.588768	-0.720955	0.157986
O144	O	0.695177	-0.062917	0.448456
C145	C	0.677230	-0.100250	0.506626
H146	H	0.635103	-0.096787	0.476350
H147	H	0.684674	-0.095185	0.582787
C148	C	0.756217	-0.156801	0.545373
C149	C	0.704476	-0.152551	0.508182
H150	H	0.773025	-0.189063	0.546337
H151	H	0.768310	-0.131649	0.506185
H152	H	0.762414	-0.152577	0.608836
H153	H	0.698280	-0.156768	0.444716
H154	H	0.692383	-0.177705	0.547359
O155	O	0.604547	-0.498515	0.258788
C156	C	0.614369	-0.541756	0.335592
H157	H	0.625924	-0.576429	0.310061
H158	H	0.579064	-0.545289	0.362352
C159	C	0.642990	-0.494795	0.449184
C160	C	0.657186	-0.537381	0.417829
H161	H	0.669400	-0.492096	0.499914
H162	H	0.636371	-0.465662	0.397441
H163	H	0.613568	-0.497744	0.471478
H164	H	0.686604	-0.534428	0.395524
H165	H	0.663811	-0.566513	0.469570
H166	H	0.452102	0.180140	0.559700
O167	O	0.550530	-0.157728	-0.171407
C168	C	0.591426	-0.191989	-0.176636
H169	H	0.615317	-0.211500	-0.101072
H170	H	0.615268	-0.170927	-0.219564
C171	C	0.542274	-0.207543	-0.319245
C172	C	0.571615	-0.231511	-0.226435
H173	H	0.530055	-0.231921	-0.349966
H174	H	0.514722	-0.184459	-0.315724
H175	H	0.562147	-0.189992	-0.355005
H176	H	0.551740	-0.249055	-0.190672
H177	H	0.599163	-0.254598	-0.229950
H178	H	0.539347	-0.284432	-0.244834
H179	H	0.664819	-0.032470	0.258184
O180	O	0.130831	0.027793	0.258812
C181	C	0.174076	0.017951	0.335613
H182	H	0.204508	0.037006	0.310072
H183	H	0.188357	-0.024335	0.362392
C184	C	0.123536	0.015179	0.449205
C185	C	0.160912	0.038586	0.417837
H186	H	0.115417	0.027905	0.499927
H187	H	0.094401	0.021808	0.397463
H188	H	0.135443	-0.020058	0.471514
H189	H	0.149003	0.073821	0.395518
H190	H	0.190045	0.031963	0.469577
O191	O	0.472050	0.160098	0.749889
C192	C	0.421005	0.155838	0.725326
H193	H	0.417407	0.120796	0.697701
H194	H	0.398867	0.190461	0.666994
C195	C	0.404430	0.194789	0.848542
C196	C	0.400011	0.151748	0.814619
H197	H	0.391479	0.192269	0.903620
H198	H	0.438819	0.197661	0.865089
H199	H	0.385982	0.223637	0.799923
H200	H	0.418464	0.122902	0.863233
H201	H	0.365625	0.148871	0.798083
H202	H	-0.170325	0.038176	0.158040
H203	H	0.353267	0.043537	0.158004
H204	H	0.603266	-0.440782	0.245048
H205	H	-0.261790	0.037238	0.158037
H206	H	0.544628	0.087652	0.258192
H207	H	-0.212174	0.079984	-0.157786
O208	O	-0.309332	0.080817	-0.171535
C209	C	-0.286446	0.091336	-0.248346
H210	H	-0.245009	0.073014	-0.222819
H211	H	-0.290002	0.133732	-0.275120
C212	C	-0.363513	0.092813	-0.361920
C213	C	-0.312620	0.070305	-0.330569
H214	H	-0.379659	0.079842	-0.412642
H215	H	-0.378932	0.085728	-0.310172
H216	H	-0.366469	0.128142	-0.384225
H217	H	-0.309665	0.034978	-0.308255
H218	H	-0.297201	0.077384	-0.382316
H219	H	0.068001	0.094482	-0.244840
O220	O	0.161514	0.097301	-0.258599
C221	C	0.118277	0.107119	-0.335410
H222	H	0.083602	0.118680	-0.309892
H223	H	0.114746	0.071810	-0.362158
C224	C	0.165249	0.135725	-0.448994
C225	C	0.122660	0.149928	-0.417655
H226	H	0.167952	0.162130	-0.499729
H227	H	0.194379	0.129109	-0.397246
H228	H	0.162301	0.106300	-0.471277
H229	H	0.125611	0.179349	-0.395361
H230	H	0.093530	0.156551	-0.469401
H231	H	0.604191	-0.349331	0.245051
O232	O	-0.020506	0.026141	0.258707
C233	C	-0.043187	-0.016723	0.263904
H234	H	-0.030478	-0.039299	0.214523
H235	H	-0.085804	-0.004549	0.240511
C236	C	-0.043170	-0.021766	0.428539
C237	C	-0.027557	-0.049497	0.367894
H238	H	-0.033532	-0.041982	0.492685
H239	H	-0.027891	0.007113	0.425037
H240	H	-0.078684	-0.011623	0.409033
H241	H	0.007956	-0.059634	0.387394
H242	H	-0.042830	-0.078379	0.371402
O243	O	0.305700	0.087120	-0.171583
C244	C	0.328580	0.097648	-0.248400
H245	H	0.370018	0.079328	-0.222884
H246	H	0.325021	0.140044	-0.275165
C247	C	0.251510	0.099125	-0.361966
C248	C	0.302404	0.076621	-0.330628
H249	H	0.235363	0.086157	-0.412690
H250	H	0.236094	0.092034	-0.310213
H251	H	0.248551	0.134455	-0.384263
H252	H	0.305363	0.041293	-0.308320
H253	H	0.317820	0.083705	-0.382379
O254	O	0.596831	-0.103718	0.171691
C255	C	0.555934	-0.069434	0.176849
H256	H	0.519970	-0.074037	0.127448
H257	H	0.562696	-0.029440	0.153453
C258	C	0.594881	-0.074137	0.341492
C259	C	0.550708	-0.079794	0.280824
H260	H	0.591658	-0.080526	0.405629
H261	H	0.622435	-0.097234	0.338018
H262	H	0.600511	-0.040809	0.321985
H263	H	0.545083	-0.113123	0.300324
H264	H	0.523153	-0.056703	0.284304
H265	H	0.402877	0.086293	-0.157823
H266	H	0.594137	-0.197372	0.158039
H267	H	0.537793	-0.435663	-0.244850
O268	O	0.534916	-0.529286	-0.258499
C269	C	0.492053	-0.551967	-0.263684
H270	H	0.469479	-0.539255	-0.214303
H271	H	0.504229	-0.594584	-0.240282
C272	C	0.487005	-0.551960	-0.428316
C273	C	0.459277	-0.536344	-0.367671
H274	H	0.466788	-0.542325	-0.492461
H275	H	0.515884	-0.536681	-0.424823
H276	H	0.497150	-0.587474	-0.408803
H277	H	0.449138	-0.500831	-0.387178
H278	H	0.430396	-0.551617	-0.371171
H279	H	0.073113	0.029017	0.245056
O280	O	0.603409	-0.597830	0.258637
C281	C	0.561904	-0.621860	0.263832
H282	H	0.537866	-0.617473	0.188257
H283	H	0.538456	-0.604044	0.306748
C284	C	0.610235	-0.683489	0.406445
C285	C	0.580713	-0.678104	0.313622
H286	H	0.621837	-0.718183	0.437161
H287	H	0.638197	-0.667299	0.402948
H288	H	0.590691	-0.668639	0.442197
H289	H	0.600259	-0.692948	0.277868
H290	H	0.552755	-0.694298	0.317114
O291	O	0.551387	-0.058303	-0.171480
C292	C	0.502370	-0.057832	-0.224421
H293	H	0.479708	-0.074378	-0.173480
H294	H	0.504353	-0.081230	-0.278666
C295	C	0.504596	0.016963	-0.340354
C296	C	0.476761	-0.003356	-0.277786
H297	H	0.488799	0.050566	-0.373276
H298	H	0.537621	0.016645	-0.304689
H299	H	0.506247	-0.002541	-0.385549
H300	H	0.475116	0.016144	-0.232585
H301	H	0.443735	-0.003033	-0.313445
O302	O	-0.088950	0.094697	-0.258576
C303	C	-0.066064	0.105217	-0.335388
H304	H	-0.024625	0.086900	-0.309858
H305	H	-0.069625	0.147613	-0.362168
C306	C	-0.143127	0.106680	-0.448959
C307	C	-0.092232	0.084179	-0.417605
H308	H	-0.159269	0.093705	-0.499677
H309	H	-0.158546	0.099594	-0.397211
H310	H	-0.146088	0.142008	-0.471270
H311	H	-0.089272	0.048852	-0.395284
H312	H	-0.076813	0.091258	-0.469352
H313	H	0.513260	0.119016	0.317774
H314	H	0.538406	-0.375876	-0.244843
O315	O	0.459046	0.173311	0.401088
C316	C	0.469778	0.217858	0.425647
H317	H	0.512136	0.214165	0.453271
H318	H	0.450604	0.224521	0.483980
C319	C	0.398157	0.267042	0.302432
C320	C	0.450182	0.262508	0.336353
H321	H	0.386067	0.294585	0.247353
H322	H	0.390925	0.237030	0.285888
H323	H	0.382185	0.272593	0.351051
H324	H	0.466153	0.256952	0.287738
H325	H	0.457416	0.292521	0.352887
H326	H	0.008205	0.093875	-0.244821
H327	H	0.596464	0.035873	0.742033
H328	H	0.546952	-0.679101	-0.157841
