data_functionalizedCrystal
_audit_creation_method	'MofGen! by Chris Wilmer'
_symmetry_space_group_name_H-M	'P1'
_symmetry_Int_Tables_number	1
_symmetry_cell_setting	triclinic
loop_
_symmetry_equiv_pos_as_xyz
  x,y,z
_cell_length_a	15.297327
_cell_length_b	15.297475
_cell_length_c	15.296720
_cell_angle_alpha	91.617114
_cell_angle_beta	107.319222
_cell_angle_gamma	91.625546
loop_
_atom_site_label
_atom_site_type_symbol
_atom_site_fract_x
_atom_site_fract_y
_atom_site_fract_z
Zn1	Zn	0.695081	-1.116342	0.823122
Zn2	Zn	0.823682	-1.116246	0.694497
Zn3	Zn	0.644908	-1.005113	0.644396
Zn4	Zn	0.814903	-0.946204	0.814406
O5	O	0.744644	-1.045976	0.744105
O6	O	0.736812	-1.234042	0.830675
O7	O	0.782644	-1.126118	0.562870
O8	O	0.526600	-1.044561	0.650785
O9	O	0.831295	-1.233972	0.736174
O10	O	0.563461	-1.126281	0.782095
O11	O	0.651299	-1.044469	0.526062
O12	O	0.642787	-0.879585	0.642333
O13	O	0.816332	-0.944159	0.940543
O14	O	0.767682	-0.836305	0.767239
O15	O	0.728299	-1.069159	0.946946
O16	O	0.947482	-1.068996	0.727722
O17	O	0.941032	-0.944066	0.815819
C18	C	0.698838	-0.827423	0.698404
C19	C	0.679267	-0.733917	0.678877
C20	C	0.976666	-1.000147	0.776286
C21	C	1.075946	-0.980613	0.790099
C22	C	0.511723	-1.092003	0.711823
C23	C	0.412466	-1.111617	0.698067
C24	C	1.369169	-1.185880	0.645759
C25	C	1.275889	-1.204235	0.632777
C26	C	1.225899	-1.148331	0.672106
C27	C	1.269198	-1.074069	0.724420
C28	C	1.362485	-1.055710	0.737398
C29	C	1.219215	-1.018160	0.763745
C30	C	1.262513	-0.943898	0.816059
C31	C	1.355791	-0.925542	0.829035
C32	C	1.405781	-0.981446	0.789706
C33	C	1.125928	-1.036520	0.750767
C34	C	1.119243	-0.906349	0.842406
C35	C	1.212523	-0.887995	0.855389
C36	C	0.776933	-1.000098	0.977057
C37	C	0.790693	-0.980548	1.076327
C38	C	0.790629	-1.265382	0.789986
C39	C	0.810225	-1.358880	0.809537
C40	C	0.884531	-0.380296	0.883671
C41	C	0.902925	-0.468149	0.902016
C42	C	0.847012	-0.534595	0.846233
C43	C	0.772701	-0.513180	0.772102
C44	C	0.754309	-0.425318	0.753750
C45	C	0.716791	-0.579617	0.716312
C46	C	0.642480	-0.558202	0.642181
C47	C	0.624091	-0.470348	0.623833
C48	C	0.680004	-0.403902	0.679616
C49	C	0.735183	-0.667479	0.734664
C50	C	0.604961	-0.712501	0.604743
C51	C	0.586567	-0.624648	0.586398
C52	C	0.712426	-1.091736	0.512061
C53	C	0.698449	-1.111499	0.412791
C54	C	0.646151	-1.185768	1.369491
C55	C	0.633225	-1.204141	1.276224
C56	C	0.672591	-1.148244	1.226245
C57	C	0.724884	-1.073971	1.269543
C58	C	0.737817	-1.055600	1.362821
C59	C	0.764257	-1.018076	1.219575
C60	C	0.816551	-0.943803	1.262873
C61	C	0.829480	-0.925434	1.356142
C62	C	0.790115	-0.981331	1.406121
C63	C	0.751324	-1.036448	1.126296
C64	C	0.842991	-0.906280	1.119626
C65	C	0.855916	-0.887906	1.212894
H66	H	1.090683	-1.096984	0.708172
H67	H	0.662064	-1.163209	1.150302
H68	H	0.861993	-0.606128	0.861175
C69	C	0.576324	-1.284657	1.229074
C70	C	0.501694	-1.258865	1.157633
C71	C	0.449247	-1.333011	1.114174
H72	H	0.554634	-1.315355	1.272095
H73	H	0.613063	-1.321746	1.205018
H74	H	0.464961	-1.221791	1.181690
H75	H	0.523357	-1.228177	1.114593
H76	H	0.485986	-1.370100	1.090118
H77	H	0.427563	-1.363704	1.157201
H78	H	0.398609	-1.315522	1.065691
C79	C	0.804341	-0.961353	1.507416
C80	C	0.898135	-0.959913	1.554548
C81	C	0.911272	-0.941504	1.647860
H82	H	0.773484	-1.005240	1.531096
H83	H	0.780496	-0.905941	1.515061
H84	H	0.921968	-1.015317	1.546909
H85	H	0.929011	-0.916025	1.530896
H86	H	0.887428	-0.886092	1.655506
H87	H	0.880412	-0.985393	1.671532
H88	H	0.974912	-0.940517	1.679850
C89	C	1.507024	-0.961338	0.803768
C90	C	1.518037	-0.879670	0.768504
C91	C	1.611290	-0.861114	0.781456
H92	H	1.530701	-1.005182	0.772867
H93	H	1.539134	-0.960290	0.867386
H94	H	1.485939	-0.880725	0.704898
H95	H	1.494381	-0.835808	0.799398
H96	H	1.643401	-0.860066	0.845074
H97	H	1.634959	-0.904964	0.750554
H98	H	1.618776	-0.805698	0.757540
H99	H	0.963431	-0.485578	0.962373
C100	C	0.505946	-0.601518	0.505793
C101	C	0.517457	-0.636486	0.424534
C102	C	0.443203	-0.615206	0.350265
H103	H	0.502927	-0.539700	0.502725
H104	H	0.450784	-0.625197	0.513598
H105	H	0.572604	-0.612802	0.416730
H106	H	0.520466	-0.698302	0.427572
H107	H	0.388041	-0.638885	0.358070
H108	H	0.440190	-0.553388	0.347205
H109	H	0.450999	-0.638935	0.295123
C110	C	0.694379	-1.116995	1.079299
C111	C	0.605328	-1.111654	1.085902
C112	C	0.552835	-1.185836	1.042610
H113	H	0.721297	-1.167980	1.108169
H114	H	0.692247	-1.119943	1.016572
H115	H	0.607464	-1.108715	1.148617
H116	H	0.578384	-1.060684	1.057028
H117	H	0.550703	-1.188784	0.979883
H118	H	0.579761	-1.236816	1.071484
H119	H	0.492407	-1.182218	1.047076
H120	H	0.559433	-0.766603	0.559318
C121	C	1.259691	-0.807386	0.912112
C122	C	1.352076	-0.803267	0.915037
C123	C	1.395552	-0.729017	0.967271
H124	H	1.255363	-0.810764	0.972605
H125	H	1.230849	-0.756429	0.885053
H126	H	1.380909	-0.854211	0.942099
H127	H	1.356431	-0.799876	0.854559
H128	H	1.366711	-0.678061	0.940212
H129	H	1.391217	-0.732402	1.027760
H130	H	1.458237	-0.726209	0.969256
C131	C	0.660004	-0.308556	0.659490
C132	C	0.664752	-0.291771	0.571479
C133	C	0.646320	-0.203951	0.552898
H134	H	0.703903	-0.271949	0.703234
H135	H	0.600367	-0.296981	0.662828
H136	H	0.724380	-0.303337	0.568149
H137	H	0.620854	-0.328357	0.527717
H138	H	0.586683	-0.192377	0.556236
H139	H	0.690222	-0.167352	0.596647
H140	H	0.649531	-0.192554	0.493179
H141	H	0.614111	-1.231275	1.410194
C142	C	0.886254	-0.844732	1.402979
C143	C	0.917941	-0.799698	1.339246
C144	C	0.970233	-0.725346	1.382354
H145	H	0.937012	-0.861944	1.451480
H146	H	0.849462	-0.807622	1.426941
H147	H	0.954732	-0.836802	1.315298
H148	H	0.867202	-0.782466	1.290742
H149	H	0.933441	-0.688235	1.406316
H150	H	1.020986	-0.742566	1.430854
H151	H	0.991732	-0.694777	1.339116
C152	C	1.064832	-0.845779	0.885077
C153	C	0.973880	-0.877765	0.862538
C154	C	0.923727	-0.822001	0.901834
H155	H	1.066406	-0.788809	0.862312
H156	H	1.090929	-0.843238	0.949796
H157	H	0.947790	-0.880297	0.797832
H158	H	0.972278	-0.934728	0.885304
H159	H	0.949823	-0.819460	0.966554
H160	H	0.925308	-0.765034	0.879066
H161	H	0.862012	-0.843700	0.886554
C162	C	0.885671	-0.845436	1.065453
C163	C	0.851948	-0.761576	1.068062
C164	C	0.891253	-0.705509	1.018174
H165	H	0.870510	-0.866889	1.003672
H166	H	0.950378	-0.842824	1.091638
H167	H	0.787255	-0.764190	1.041874
H168	H	0.867108	-0.740097	1.129830
H169	H	0.955960	-0.702897	1.044359
H170	H	0.876089	-0.726970	0.956396
H171	H	0.868384	-0.648601	1.019944
C172	C	1.124644	-1.168434	0.657952
C173	C	1.097430	-1.245446	0.603742
C174	C	1.004160	-1.264004	0.590696
H175	H	1.089968	-1.121433	0.628152
H176	H	1.114514	-1.175800	0.715681
H177	H	1.107550	-1.238075	0.546022
H178	H	1.132081	-1.292463	0.633525
H179	H	0.994031	-1.271370	0.648425
H180	H	0.969493	-1.216998	0.560899
H181	H	0.985686	-1.316262	0.553920
C182	C	1.229060	-1.284928	0.575998
C183	C	1.292807	-1.329971	0.544356
C184	C	1.249705	-1.404322	0.492059
H185	H	1.180585	-1.267714	0.525217
H186	H	1.205067	-1.322033	0.612779
H187	H	1.316787	-1.292873	0.507576
H188	H	1.341285	-1.347207	0.595117
H189	H	1.225711	-1.441428	0.528840
H190	H	1.201230	-1.387100	0.441283
H191	H	1.292952	-1.434897	0.470590
H192	H	0.898494	-0.827432	1.248160
H193	H	1.409877	-1.231385	0.613736
H194	H	1.391038	-0.865066	0.871621
H195	H	0.795687	-0.684906	0.795023
C196	C	0.945098	-0.308032	0.944147
C197	C	0.913072	-0.226509	0.912219
C198	C	0.968842	-0.159918	0.967917
H199	H	1.006291	-0.313060	0.942344
H200	H	0.943445	-0.313124	1.005396
H201	H	0.914734	-0.221419	0.850986
H202	H	0.851887	-0.221453	0.914025
H203	H	0.967190	-0.165010	1.029166
H204	H	1.030033	-0.164954	0.966109
H205	H	0.947116	-0.104598	0.946266
H206	H	0.563590	-0.452917	0.563462
