data_functionalizedCrystal
_audit_creation_method	'MofGen! by Chris Wilmer'
_symmetry_space_group_name_H-M	'P1'
_symmetry_Int_Tables_number	1
_symmetry_cell_setting	triclinic
loop_
_symmetry_equiv_pos_as_xyz
  x,y,z
_cell_length_a	11.792241
_cell_length_b	19.188930
_cell_length_c	10.268362
_cell_angle_alpha	89.989600
_cell_angle_beta	89.999626
_cell_angle_gamma	83.669099
loop_
_atom_site_label
_atom_site_type_symbol
_atom_site_fract_x
_atom_site_fract_y
_atom_site_fract_z
O1	O	1.505476	0.095695	-0.108190
O2	O	1.755476	0.345695	0.141810
O3	O	2.005476	0.595695	0.391810
O4	O	2.255476	0.845695	0.641810
O5	O	1.174988	0.105558	-0.108222
O6	O	1.424988	0.355558	0.141778
O7	O	1.674988	0.605558	0.391778
O8	O	1.924988	0.855558	0.641778
O9	O	1.349769	-0.000975	-0.108179
O10	O	1.599769	0.249025	0.141821
O11	O	1.849769	0.499025	0.391821
O12	O	2.099769	0.749025	0.641821
O13	O	1.330695	0.202228	-0.108232
O14	O	1.580695	0.452228	0.141768
O15	O	1.830695	0.702228	0.391768
O16	O	2.080695	0.952228	0.641768
O17	O	1.349754	-0.000980	0.108421
O18	O	1.599754	0.249020	0.358421
O19	O	1.849754	0.499020	0.608421
O20	O	2.099754	0.749020	0.858421
O21	O	1.174973	0.105553	0.108379
O22	O	1.424973	0.355553	0.358379
O23	O	1.674973	0.605553	0.608379
O24	O	1.924973	0.855553	0.858379
O25	O	1.505461	0.095691	0.108411
O26	O	1.755461	0.345691	0.358411
O27	O	2.005461	0.595691	0.608411
O28	O	2.255461	0.845691	0.858411
Cu29	Cu	1.340216	0.100622	0.128172
Cu30	Cu	1.590216	0.350622	0.378172
Cu31	Cu	1.840216	0.600622	0.628172
Cu32	Cu	2.090216	0.850622	0.878172
Cu33	Cu	1.340233	0.100627	-0.127983
Cu34	Cu	1.590233	0.350627	0.122017
Cu35	Cu	1.840233	0.600627	0.372017
Cu36	Cu	2.090233	0.850627	0.622017
O37	O	1.330680	0.202224	0.108368
O38	O	1.580680	0.452224	0.358368
O39	O	1.830680	0.702224	0.608368
O40	O	2.080680	0.952224	0.858368
C41	C	1.132699	0.104936	0.000075
C42	C	1.382699	0.354936	0.250075
C43	C	1.632699	0.604936	0.500075
C44	C	1.882699	0.854936	0.750075
C45	C	1.006713	0.103082	0.000064
C46	C	1.256713	0.353082	0.250064
C47	C	1.506713	0.603082	0.500064
C48	C	1.756713	0.853082	0.750064
C49	C	0.776051	0.099672	0.000102
C50	C	1.026051	0.349672	0.250102
C51	C	1.276051	0.599672	0.500102
C52	C	1.526051	0.849672	0.750102
C53	C	0.904408	0.101566	0.000081
C54	C	1.154408	0.351566	0.250081
C55	C	1.404408	0.601566	0.500081
C56	C	1.654408	0.851566	0.750081
C57	C	1.349144	-0.026992	0.000125
C58	C	1.599144	0.223008	0.250125
C59	C	1.849144	0.473008	0.500125
C60	C	2.099144	0.723008	0.750125
C61	C	1.347290	-0.104507	0.000136
C62	C	1.597290	0.145493	0.250136
C63	C	1.847290	0.395493	0.500136
C64	C	2.097290	0.645493	0.750136
C65	C	1.449846	-0.148850	0.000152
C66	C	1.699846	0.101150	0.250152
C67	C	1.949846	0.351150	0.500152
C68	C	2.199846	0.601150	0.750152
C69	C	1.448104	-0.221684	0.000131
C70	C	1.698104	0.028316	0.250131
C71	C	1.948104	0.278316	0.500131
C72	C	2.198104	0.528316	0.750131
C73	C	1.343800	-0.250171	0.000120
C74	C	1.593800	-0.000171	0.250120
C75	C	1.843800	0.249829	0.500120
C76	C	2.093800	0.499829	0.750120
C77	C	1.241230	-0.205818	0.000096
C78	C	1.491230	0.044182	0.250096
C79	C	1.741230	0.294182	0.500096
C80	C	1.991230	0.544182	0.750096
C81	C	1.242975	-0.132986	0.000104
C82	C	1.492975	0.117014	0.250104
C83	C	1.742975	0.367014	0.500104
C84	C	1.992975	0.617014	0.750104
N85	N	1.264067	-0.358629	0.073825
N86	N	1.514067	-0.108629	0.323825
N87	N	1.764067	0.141371	0.573825
N88	N	2.014067	0.391371	0.823825
N89	N	1.262416	-0.427817	0.073820
N90	N	1.512416	-0.177817	0.323820
N91	N	1.762416	0.072183	0.573820
N92	N	2.012416	0.322183	0.823820
C93	C	1.338536	-0.469609	0.000093
C94	C	1.588536	-0.219609	0.250093
C95	C	1.838536	0.030391	0.500093
C96	C	2.088536	0.280391	0.750093
N97	N	1.416387	-0.439602	-0.073614
N98	N	1.666387	-0.189602	0.176386
N99	N	1.916387	0.060398	0.426386
N100	N	2.166387	0.310398	0.676386
N101	N	1.418041	-0.370407	-0.073603
N102	N	1.668041	-0.120407	0.176397
N103	N	1.918041	0.129593	0.426397
N104	N	2.168041	0.379593	0.676397
C105	C	1.341896	-0.329144	0.000110
C106	C	1.591896	-0.079144	0.250110
C107	C	1.841896	0.170856	0.500110
C108	C	2.091896	0.420856	0.750110
C109	C	1.439211	-0.592928	0.000084
C110	C	1.689211	-0.342928	0.250084
C111	C	1.939211	-0.092928	0.500084
C112	C	2.189211	0.157072	0.750084
C113	C	1.437464	-0.665762	0.000055
C114	C	1.687464	-0.415762	0.250055
C115	C	1.937464	-0.165762	0.500055
C116	C	2.187464	0.084238	0.750055
C117	C	1.230588	-0.649895	0.000034
C118	C	1.480588	-0.399895	0.250034
C119	C	1.730588	-0.149895	0.500034
C120	C	1.980588	0.100105	0.750034
C121	C	1.232337	-0.577062	0.000050
C122	C	1.482337	-0.327062	0.250050
C123	C	1.732337	-0.077062	0.500050
C124	C	1.982337	0.172938	0.750050
C125	C	1.336652	-0.548583	0.000081
C126	C	1.586652	-0.298583	0.250081
C127	C	1.836652	-0.048583	0.500081
C128	C	2.086652	0.201417	0.750081
C129	C	1.547751	0.096313	0.000111
C130	C	1.797751	0.346313	0.250111
C131	C	2.047751	0.596313	0.500111
C132	C	2.297751	0.846313	0.750111
C133	C	1.673737	0.098167	0.000114
C134	C	1.923737	0.348167	0.250114
C135	C	2.173737	0.598167	0.500114
C136	C	2.423737	0.848167	0.750114
C137	C	1.331305	0.228240	0.000062
C138	C	1.581305	0.478240	0.250062
C139	C	1.831305	0.728240	0.500062
C140	C	2.081305	0.978240	0.750062
C141	C	1.333159	0.305755	0.000042
C142	C	1.583159	0.555755	0.250042
C143	C	1.833159	0.805755	0.500042
C144	C	2.083159	1.055755	0.750042
N145	N	1.340211	0.100617	0.308338
N146	N	1.590211	0.350617	0.558338
N147	N	1.840211	0.600617	0.808338
N148	N	2.090211	0.850617	1.058338
N149	N	1.340247	0.100625	-0.308149
N150	N	1.590247	0.350625	-0.058149
N151	N	1.840247	0.600625	0.191851
N152	N	2.090247	0.850625	0.441851
C153	C	1.340228	0.100625	0.574009
C154	C	1.590228	0.350625	0.824009
C155	C	1.840228	0.600625	1.074009
C156	C	2.090228	0.850625	1.324009
C157	C	1.340215	0.100623	0.426171
C158	C	1.590215	0.350623	0.676171
C159	C	1.840215	0.600623	0.926171
C160	C	2.090215	0.850623	1.176171
H161	H	1.534787	-0.125667	0.000173
H162	H	1.784787	0.124333	0.250173
H163	H	2.034787	0.374333	0.500173
H164	H	2.284787	0.624333	0.750173
F165	F	1.123181	-0.529867	0.000038
F166	F	1.373181	-0.279867	0.250038
F167	F	1.623181	-0.029867	0.500038
F168	F	1.873181	0.220133	0.750038
F169	F	1.550229	-0.562615	0.000124
F170	F	1.800229	-0.312615	0.250124
F171	F	2.050229	-0.062615	0.500124
F172	F	2.300229	0.187385	0.750124
H173	H	1.145661	-0.673089	0.000018
H174	H	1.395661	-0.423089	0.250018
H175	H	1.645661	-0.173089	0.500018
H176	H	1.895661	0.076911	0.750018
H177	H	1.156305	-0.229017	0.000084
H178	H	1.406305	0.020983	0.250084
H179	H	1.656305	0.270983	0.500084
H180	H	1.906305	0.520983	0.750084
H181	H	1.520981	-0.701866	0.000061
H182	H	1.770981	-0.451866	0.250061
H183	H	2.020981	-0.201866	0.500061
H184	H	2.270981	0.048134	0.750061
H185	H	1.531620	-0.257795	0.000139
H186	H	1.781620	-0.007795	0.250139
H187	H	2.031620	0.242205	0.500139
H188	H	2.281620	0.492205	0.750139
H189	H	1.159459	-0.096881	0.000091
H190	H	1.409459	0.153119	0.250091
H191	H	1.659459	0.403119	0.500091
H192	H	1.909459	0.653119	0.750091
