data_functionalizedCrystal
_audit_creation_method	'MofGen! by Chris Wilmer'
_symmetry_space_group_name_H-M	'P1'
_symmetry_Int_Tables_number	1
_symmetry_cell_setting	triclinic
loop_
_symmetry_equiv_pos_as_xyz
  x,y,z
_cell_length_a	25.639239
_cell_length_b	15.298073
_cell_length_c	15.296720
_cell_angle_alpha	91.646683
_cell_angle_beta	99.638856
_cell_angle_gamma	80.304176
loop_
_atom_site_label
_atom_site_type_symbol
_atom_site_fract_x
_atom_site_fract_y
_atom_site_fract_z
Zn1	Zn	-0.155569	-1.253300	-0.727375
Zn2	Zn	-0.225791	-1.278530	-0.580894
Zn3	Zn	-0.150486	-1.132183	-0.555539
Zn4	Zn	-0.255099	-1.106746	-0.701906
O5	O	-0.196736	-1.192690	-0.641428
O6	O	-0.154746	-1.379226	-0.729214
O7	O	-0.201409	-1.280320	-0.454972
O8	O	-0.077991	-1.148336	-0.578381
O9	O	-0.206338	-1.397763	-0.621595
O10	O	-0.081726	-1.237320	-0.704628
O11	O	-0.146083	-1.172800	-0.436344
O12	O	-0.174501	-1.006229	-0.553685
O13	O	-0.256289	-1.104983	-0.827843
O14	O	-0.251360	-0.987541	-0.661220
O15	O	-0.183165	-1.212655	-0.846555
O16	O	-0.302848	-1.255655	-0.596898
O17	O	-0.324381	-1.129447	-0.685806
C18	C	-0.215560	-0.965101	-0.601938
C19	C	-0.223628	-0.867734	-0.585065
C20	C	-0.139177	-0.554611	-0.761984
C21	C	-0.131598	-0.646091	-0.777842
C22	C	-0.154605	-0.701506	-0.729649
C23	C	-0.185191	-0.665432	-0.665595
C24	C	-0.192773	-0.573942	-0.649740
C25	C	-0.208202	-0.720838	-0.617405
C26	C	-0.238788	-0.684764	-0.553351
C27	C	-0.246369	-0.593282	-0.537498
C28	C	-0.223362	-0.537867	-0.585692
C29	C	-0.200620	-0.812328	-0.633260
C30	C	-0.254217	-0.831659	-0.521016
C31	C	-0.261795	-0.740179	-0.505158
C32	C	-0.332587	-1.192549	-0.641363
C33	C	-0.390701	-1.192564	-0.641378
C34	C	-0.739831	-1.258536	-0.595255
C35	C	-0.794434	-1.258568	-0.595273
O36	O	-0.813127	-1.314514	-0.555987
N37	N	-0.832970	-1.192834	-0.641513
C38	C	-0.816901	-1.127068	-0.687746
O39	O	-0.854693	-1.071159	-0.727080
C40	C	-0.762299	-1.127041	-0.687733
C41	C	-0.723765	-1.192774	-0.641483
C42	C	-0.701297	-1.324265	-0.549009
C43	C	-0.646698	-1.324232	-0.548990
C44	C	-0.630633	-1.258470	-0.595218
C45	C	-0.669166	-1.192741	-0.641464
C46	C	-0.746231	-1.061280	-0.733971
C47	C	-0.691625	-1.061258	-0.733955
C48	C	-0.653091	-1.126992	-0.687704
C49	C	-0.598501	-1.126946	-0.687672
N50	N	-0.559965	-1.192680	-0.641432
C51	C	-0.576031	-1.258442	-0.595205
C52	C	-0.931568	-1.127132	-0.687771
C53	C	-0.986168	-1.127155	-0.687780
C54	C	-0.963697	-1.258656	-0.595307
C55	C	-0.909096	-1.258628	-0.595294
C56	C	-0.893032	-1.192866	-0.641531
C57	C	-0.461369	-1.258367	-0.595168
C58	C	-0.406766	-1.258326	-0.595150
C59	C	-0.429242	-1.126828	-0.687626
C60	C	-0.483840	-1.126866	-0.687640
C61	C	-0.499902	-1.192643	-0.641410
O62	O	-0.579768	-1.071030	-0.726941
O63	O	-0.538234	-1.314348	-0.555887
C64	C	-0.060356	-1.192851	-0.641518
C65	C	-0.002239	-1.192920	-0.641556
C66	C	-0.223563	-1.153167	-0.869865
C67	C	-0.234995	-1.136325	-0.967211
C68	C	-0.177834	-0.421168	-0.681065
C69	C	-0.169765	-0.518536	-0.697936
C70	C	-0.114936	-1.313095	-1.280585
C71	C	-0.104195	-1.328924	-1.189124
C72	C	-0.136894	-1.280776	-1.133642
C73	C	-0.180336	-1.216795	-1.169629
C74	C	-0.191080	-1.200969	-1.261099
C75	C	-0.213038	-1.168650	-1.114156
C76	C	-0.256480	-1.104670	-1.150142
C77	C	-0.267222	-1.088846	-1.241604
C78	C	-0.234523	-1.136995	-1.297087
C79	C	-0.202294	-1.184476	-1.022685
C80	C	-0.278438	-1.072351	-1.003199
C81	C	-0.289179	-1.056521	-1.094660
C82	C	-0.169972	-1.232109	-0.413889
C83	C	-0.158379	-1.249120	-0.316573
H84	H	-0.286699	-0.710794	-0.453005
C85	C	-1.027982	-1.055863	-0.738153
C86	C	-1.023277	-1.059882	-0.828117
C87	C	-1.061790	-0.994231	-0.874556
H88	H	-1.022468	-0.999189	-0.715184
H89	H	-1.062816	-1.065290	-0.731609
H90	H	-0.988452	-1.050448	-0.834655
H91	H	-1.028797	-1.116542	-0.851112
H92	H	-1.096624	-1.003658	-0.868013
H93	H	-1.056273	-0.937561	-0.851580
H94	H	-1.058606	-0.996954	-0.935602
C95	C	-0.788038	-0.989996	-0.784360
C96	C	-0.783328	-0.994030	-0.874322
C97	C	-0.821835	-0.928382	-0.920775
H98	H	-0.782523	-0.933319	-0.761399
H99	H	-0.822874	-0.999415	-0.777820
H100	H	-0.748501	-0.984604	-0.880857
H101	H	-0.788849	-1.050692	-0.897309
H102	H	-0.856671	-0.937801	-0.914235
H103	H	-0.816317	-0.871710	-0.897806
H104	H	-0.818648	-0.931116	-0.981819
C105	C	-0.246258	-1.119651	-1.396364
C106	C	-0.291295	-1.053306	-1.416007
C107	C	-0.302116	-1.037300	-1.507450
H108	H	-0.253090	-1.172516	-1.426958
H109	H	-0.216215	-1.100913	-1.414472
H110	H	-0.321331	-1.072047	-1.397908
H111	H	-0.284475	-1.000427	-1.385434
H112	H	-0.272073	-1.018563	-1.525559
H113	H	-0.308945	-1.090170	-1.538037
H114	H	-0.332671	-0.992279	-1.520789
H115	H	-0.068826	-1.381019	-1.159831
H116	H	-0.324549	-1.004428	-1.123973
H117	H	-0.302598	-1.036756	-1.270902
C118	C	-0.674157	-0.989983	-0.784288
C119	C	-0.645274	-1.029799	-0.849066
C120	C	-0.629180	-0.964169	-0.895455
H121	H	-0.652077	-0.957594	-0.744232
H122	H	-0.704916	-0.950849	-0.811887
H123	H	-0.614519	-1.068918	-0.821467
H124	H	-0.667343	-1.062183	-0.889141
H125	H	-0.659940	-0.925035	-0.923054
H126	H	-0.607103	-0.931784	-0.855392
H127	H	-0.609586	-0.991175	-0.939417
C128	C	-0.411823	-1.055310	-0.737692
C129	C	-0.430069	-0.971967	-0.703522
C130	C	-0.414027	-0.906070	-0.749623
H131	H	-0.426596	-1.057795	-0.798776
H132	H	-0.373784	-1.064653	-0.731044
H133	H	-0.468100	-0.962627	-0.710179
H134	H	-0.415298	-0.969453	-0.642443
H135	H	-0.375988	-0.915413	-0.742974
H136	H	-0.428801	-0.908563	-0.810705
H137	H	-0.426401	-0.849515	-0.726440
C138	C	-0.313865	-1.020129	-0.942818
C139	C	-0.295149	-1.047664	-0.855012
C140	C	-0.327764	-0.999576	-0.799358
H141	H	-0.349710	-1.030276	-0.959890
H142	H	-0.312831	-0.958679	-0.947546
H143	H	-0.296188	-1.109100	-0.850287
H144	H	-0.259308	-1.037515	-0.837913
H145	H	-0.326730	-0.938126	-0.804087
H146	H	-0.363608	-1.009726	-0.816438
H147	H	-0.315067	-1.018245	-0.739775
H148	H	-0.175715	-0.841690	-0.685413
C149	C	-0.279301	-0.891750	-0.468786
C150	C	-0.335119	-0.866201	-0.483853
C151	C	-0.358245	-0.921547	-0.435770
H152	H	-0.265993	-0.886971	-0.407339
H153	H	-0.270439	-0.951408	-0.487408
H154	H	-0.343977	-0.806557	-0.465226
H155	H	-0.348443	-0.870984	-0.545290
H156	H	-0.349383	-0.981206	-0.454392
H157	H	-0.344932	-0.916764	-0.374326
H158	H	-0.396120	-0.904225	-0.445993
H159	H	-0.148431	-0.775993	-0.742562
H160	H	-0.106697	-0.675455	-0.829998
C161	C	-0.981137	-1.329976	-0.544990
C162	C	-0.959317	-1.325992	-0.455000
C163	C	-0.975390	-1.391664	-0.408637
H164	H	-0.968807	-1.386641	-0.567966
H165	H	-1.019175	-1.320550	-0.551597
H166	H	-0.921287	-1.335425	-0.448399
H167	H	-0.971644	-1.269343	-0.431999
H168	H	-1.013427	-1.382238	-0.415244
H169	H	-0.963059	-1.448324	-0.431620
H170	H	-0.960591	-1.388965	-0.347574
C171	C	-0.114224	-0.494305	-0.814181
C172	C	-0.127402	-0.406470	-0.786571
C173	C	-0.104418	-0.350893	-0.834631
H174	H	-0.127575	-0.499015	-0.875619
H175	H	-0.076336	-0.511471	-0.804057
H176	H	-0.165282	-0.389309	-0.796701
H177	H	-0.114050	-0.401732	-0.725140
H178	H	-0.066530	-0.368058	-0.824508
H179	H	-0.117771	-0.355610	-0.896067
H180	H	-0.113352	-0.291291	-0.815899
C181	C	-0.079486	-1.365522	-1.340799
C182	C	-0.081104	-1.456024	-1.333598
C183	C	-0.048457	-1.504351	-1.389063
H184	H	-0.043629	-1.355450	-1.323672
H185	H	-0.092108	-1.346993	-1.400445
H186	H	-0.068479	-1.474546	-1.273965
H187	H	-0.116952	-1.466122	-1.350732
H188	H	-0.061079	-1.485822	-1.448709
H189	H	-0.012603	-1.494272	-1.371931
H190	H	-0.049554	-1.565760	-1.384191
C191	C	-0.231633	-0.438569	-0.568317
C192	C	-0.263336	-0.418835	-0.501899
C193	C	-0.270960	-0.327371	-0.485866
H194	H	-0.249096	-0.408004	-0.621151
H195	H	-0.197831	-0.420477	-0.549643
H196	H	-0.297132	-0.436916	-0.520577
H197	H	-0.245882	-0.449377	-0.449053
H198	H	-0.237159	-0.309280	-0.467192
H199	H	-0.288422	-0.296815	-0.538704
H200	H	-0.292467	-0.313971	-0.440795
C201	C	-0.525698	-1.055411	-0.737684
C202	C	-0.555902	-1.007896	-0.678328
C203	C	-0.594457	-0.942061	-0.724402
H204	H	-0.548734	-1.082188	-0.781691
H205	H	-0.508325	-1.016192	-0.765184
H206	H	-0.573274	-1.047108	-0.650842
H207	H	-0.532881	-0.981099	-0.634319
H208	H	-0.577083	-0.902842	-0.751902
H209	H	-0.617488	-0.968846	-0.768408
H210	H	-0.614951	-0.909809	-0.684135
C211	C	-0.365012	-1.329801	-0.544918
C212	C	-0.390774	-1.387412	-0.504461
C213	C	-0.352330	-1.453270	-0.458193
H214	H	-0.342008	-1.303032	-0.500852
H215	H	-0.344467	-1.362178	-0.585050
H216	H	-0.411310	-1.355039	-0.464332
H217	H	-0.413775	-1.414203	-0.548507
H218	H	-0.331785	-1.485647	-0.498325
H219	H	-0.329329	-1.426492	-0.414132
H220	H	-0.369804	-1.492371	-0.430744
H221	H	-0.166923	-1.236569	-0.993394
H222	H	-0.474439	-1.311931	-0.557525
C223	C	-0.604948	-1.395712	-0.498770
C224	C	-0.630716	-1.453318	-0.458319
C225	C	-0.592277	-1.519190	-0.412061
H226	H	-0.581940	-1.368954	-0.454702
H227	H	-0.584408	-1.428090	-0.538908
H228	H	-0.651248	-1.420945	-0.418184
H229	H	-0.653722	-1.480097	-0.502367
H230	H	-0.571737	-1.551568	-0.452199
H231	H	-0.569271	-1.492424	-0.367997
H232	H	-0.609755	-1.558288	-0.384616
H233	H	-0.271279	-0.563913	-0.485348
H234	H	-0.877723	-1.312155	-0.557633
C235	C	-0.718747	-1.395806	-0.499019
C236	C	-0.751206	-1.443358	-0.558432
C237	C	-0.767270	-1.509301	-0.512426
H238	H	-0.738396	-1.369120	-0.455004
H239	H	-0.687973	-1.434983	-0.471535
H240	H	-0.781975	-1.404187	-0.585902
H241	H	-0.731568	-1.470064	-0.602448
H242	H	-0.736496	-1.548478	-0.484942
H243	H	-0.786916	-1.482607	-0.468412
H244	H	-0.789290	-1.541578	-0.552731
C245	C	-0.125268	-1.297778	-1.034309
C246	C	-0.115287	-1.219637	-0.989561
C247	C	-0.104589	-1.235266	-0.898052
H248	H	-0.094712	-1.342735	-1.020678
H249	H	-0.155344	-1.316415	-1.016215
H250	H	-0.085214	-1.201011	-1.007648
H251	H	-0.145837	-1.174669	-1.003165
H252	H	-0.134665	-1.253904	-0.879959
H253	H	-0.074034	-1.280225	-0.884431
H254	H	-0.097821	-1.182249	-0.867679
H255	H	-0.918493	-1.073574	-0.725419
