data_functionalizedCrystal
_audit_creation_method	'MofGen! by Chris Wilmer'
_symmetry_space_group_name_H-M	'P1'
_symmetry_Int_Tables_number	1
_symmetry_cell_setting	triclinic
loop_
_symmetry_equiv_pos_as_xyz
  x,y,z
_cell_length_a	16.109301
_cell_length_b	27.732048
_cell_length_c	14.586319
_cell_angle_alpha	89.991275
_cell_angle_beta	89.999213
_cell_angle_gamma	83.052068
loop_
_atom_site_label
_atom_site_type_symbol
_atom_site_fract_x
_atom_site_fract_y
_atom_site_fract_z
O1	O	1.102362	0.062130	-0.076193
O2	O	0.860204	0.069862	-0.076208
O3	O	0.988804	-0.004369	-0.076183
O4	O	0.973762	0.136361	-0.076218
O5	O	0.988795	-0.004370	0.076298
O6	O	0.860195	0.069861	0.076272
O7	O	1.102353	0.062129	0.076288
Cu8	Cu	0.981273	0.065995	0.090203
Cu9	Cu	0.981283	0.065996	-0.090123
O10	O	0.973753	0.136360	0.076262
C11	C	0.829228	0.069548	0.000030
C12	C	0.736945	0.068609	0.000025
C13	C	0.514154	0.110473	0.000025
C14	C	0.427445	0.109587	0.000031
C15	C	0.448409	0.021514	0.000050
C16	C	0.535117	0.022401	0.000050
C17	C	0.567987	0.066882	0.000033
C18	C	0.394570	0.065109	0.000039
C19	C	0.300556	0.064148	0.000045
C20	C	0.662007	0.067843	0.000028
C21	C	0.988483	-0.022378	0.000060
C22	C	0.987533	-0.076037	0.000068
C23	C	1.057541	-0.414559	0.000025
C24	C	1.054013	-0.616233	0.000012
O25	O	1.118031	-0.647221	-0.000024
N26	N	0.977759	-0.635676	0.000008
C27	C	0.902381	-0.604697	0.000001
O28	O	0.837441	-0.625862	-0.000012
C29	C	0.905910	-0.403024	0.000008
C30	C	0.982169	-0.383584	0.000021
C31	C	1.133794	-0.395119	0.000038
C32	C	1.134675	-0.344703	0.000046
C33	C	1.059303	-0.313728	0.000042
C34	C	0.983050	-0.333168	0.000029
C35	C	0.830533	-0.372045	-0.000006
C36	C	0.831422	-0.321624	-0.000006
C37	C	0.907681	-0.302184	0.000007
C38	C	0.908559	-0.251777	0.000034
N39	N	0.984814	-0.232334	0.000038
C40	C	1.060186	-0.263310	0.000042
C41	C	0.900534	-0.710579	-0.000000
C42	C	0.899652	-0.760997	-0.000000
C43	C	1.051284	-0.772530	0.000009
C44	C	1.052166	-0.722111	0.000016
C45	C	0.976789	-0.691136	0.000004
C46	C	1.062030	-0.157433	0.000060
C47	C	1.062905	-0.107012	0.000072
C48	C	0.911273	-0.095484	0.000058
C49	C	0.910398	-0.145900	0.000051
C50	C	0.985783	-0.176874	0.000049
O51	O	0.844576	-0.220761	0.000059
O52	O	1.125116	-0.242135	0.000035
C53	C	1.056660	-0.464975	0.000017
C54	C	0.980407	-0.484415	0.000005
C55	C	0.905035	-0.453440	0.000001
C56	C	0.979525	-0.534833	0.000005
C57	C	1.054897	-0.565808	0.000009
C58	C	1.131151	-0.546365	0.000013
C59	C	1.132032	-0.495950	0.000021
C60	C	0.828781	-0.472883	-0.000004
C61	C	0.827906	-0.523299	-0.000011
C62	C	0.903278	-0.554274	-0.000007
C63	C	1.133328	0.062443	0.000048
C64	C	1.225612	0.063382	0.000047
C65	C	0.974073	0.154369	0.000017
C66	C	0.975024	0.208028	0.000004
N67	N	0.981272	0.065994	0.217035
N68	N	0.981291	0.065994	-0.216955
C69	C	1.038234	0.033135	0.452053
C70	C	1.038237	0.033134	0.548034
C71	C	0.924323	0.098854	0.548020
C72	C	0.924317	0.098852	0.452041
C73	C	0.981278	0.065993	0.404060
C74	C	0.981286	0.065994	0.596020
C75	C	0.981288	0.065993	0.700087
C76	C	0.981275	0.065994	0.299986
H77	H	0.421636	-0.014700	0.000069
C78	C	0.594337	-0.025552	0.000055
H79	H	0.562344	-0.052170	0.000051
H80	H	0.628598	-0.027038	0.053228
H81	H	0.628596	-0.027033	-0.053125
H82	H	0.877932	0.125610	0.412962
H83	H	1.112655	-0.797759	0.000013
H84	H	1.084615	0.006377	0.587107
H85	H	0.540913	0.146692	0.000018
H86	H	1.084614	0.006379	0.412988
C87	C	0.861679	0.135000	0.600803
H88	H	0.869845	0.130299	0.664839
H89	H	0.806260	0.129743	0.585083
H90	H	0.870300	0.167262	0.585058
H91	H	0.383617	0.145084	0.000026
C92	C	1.146793	-0.085631	0.000081
H93	H	1.191553	-0.111303	0.000073
H94	H	1.150291	-0.066209	0.053257
H95	H	1.150291	-0.066198	-0.053097
H96	H	1.123416	-0.182646	0.000055
H97	H	1.195175	-0.420334	0.000038
C98	C	1.218561	-0.323325	0.000043
H99	H	1.263317	-0.348999	0.000034
H100	H	1.222068	-0.303901	0.053214
H101	H	1.222058	-0.303895	-0.053140
H102	H	1.114263	-0.706287	0.000026
C103	C	0.828370	-0.061405	0.000048
H104	H	0.839824	-0.028595	0.000043
H105	H	0.797062	-0.067299	0.053213
H106	H	0.797085	-0.067292	-0.053140
H107	H	0.837554	-0.776820	0.000005
H108	H	0.839149	-0.685363	-0.000010
H109	H	1.192521	-0.571594	0.000020
H110	H	0.768435	-0.387864	-0.000022
C111	C	0.748505	-0.287555	-0.000016
H112	H	0.702967	-0.306357	-0.000017
H113	H	0.745699	-0.267640	-0.053186
H114	H	0.745690	-0.267654	0.053168
H115	H	0.765802	-0.539121	-0.000014
C116	C	0.826515	-0.167285	0.000034
H117	H	0.781754	-0.141614	0.000027
H118	H	0.823008	-0.186724	0.053197
H119	H	0.823029	-0.186702	-0.053157
H120	H	1.194130	-0.480127	0.000032
C121	C	0.745867	-0.438816	0.000001
H122	H	0.700332	-0.457621	0.000006
H123	H	0.743049	-0.418899	-0.053165
H124	H	0.743057	-0.418918	0.053188
