data_functionalizedCrystal
_audit_creation_method	'MofGen! by Chris Wilmer'
_symmetry_space_group_name_H-M	'P1'
_symmetry_Int_Tables_number	1
_symmetry_cell_setting	triclinic
loop_
_symmetry_equiv_pos_as_xyz
  x,y,z
_cell_length_a	16.992694
_cell_length_b	16.176319
_cell_length_c	17.699083
_cell_angle_alpha	90.007696
_cell_angle_beta	86.975619
_cell_angle_gamma	90.001613
loop_
_atom_site_label
_atom_site_type_symbol
_atom_site_fract_x
_atom_site_fract_y
_atom_site_fract_z
O1	O	1.040089	0.068646	0.160469
O2	O	0.811807	0.068670	0.158709
O3	O	0.932397	0.068650	0.049802
O4	O	0.919498	0.068666	0.269377
O5	O	0.932381	-0.068843	0.049793
O6	O	0.811790	-0.068823	0.158701
O7	O	1.040072	-0.068847	0.160461
Cu8	Cu	0.925930	-0.081389	0.159580
Cu9	Cu	0.925949	0.081212	0.159590
O10	O	0.919482	-0.068827	0.269368
C11	C	0.782590	-0.000073	0.156440
C12	C	0.695559	-0.000064	0.149683
N13	N	0.925922	-0.195755	0.159573
C14	C	0.979335	-0.239028	0.111371
C15	C	0.979339	-0.325575	0.111370
C16	C	0.925933	-0.368847	0.159576
C17	C	0.872513	-0.325568	0.207781
C18	C	0.872506	-0.239022	0.207777
C19	C	0.872540	-0.674596	0.207796
C20	C	0.872553	-0.761148	0.207798
C21	C	0.979373	-0.761148	0.111390
C22	C	0.979366	-0.674603	0.111386
C23	C	0.925944	-0.631331	0.159587
C24	C	0.925940	-0.537487	0.159586
C25	C	0.925940	-0.462690	0.159582
C26	C	0.645194	-0.000060	0.214881
C27	C	0.563420	-0.000072	0.208527
C28	C	0.532012	-0.000082	0.136975
C29	C	0.582383	-0.000089	0.071772
C30	C	0.664156	-0.000083	0.078127
C31	C	0.288464	-0.000106	0.110639
C32	C	0.206685	-0.000110	0.104290
C33	C	0.187727	-0.000095	0.241045
C34	C	0.269503	-0.000084	0.247393
C35	C	0.319867	-0.000095	0.182190
N36	N	0.448425	-0.000092	0.130479
N37	N	0.403451	-0.000091	0.188687
C38	C	1.069289	-0.000102	0.162730
C39	C	1.156320	-0.000105	0.169487
C40	C	0.931927	-0.000097	0.021572
C41	C	0.930540	-0.000097	-0.062533
N42	N	0.925963	0.195578	0.159592
C43	C	1.001324	-0.000105	-0.106747
C44	C	1.000017	-0.000098	-0.185771
C45	C	0.927924	-0.000088	-0.220581
C46	C	0.857135	-0.000077	-0.176361
C47	C	0.858443	-0.000078	-0.097338
C48	C	0.851857	-0.000069	-0.495053
C49	C	0.850554	-0.000070	-0.574082
C50	C	0.993430	-0.000089	-0.583486
C51	C	0.994739	-0.000091	-0.504463
C52	C	0.923950	-0.000075	-0.460250
C53	C	0.925368	-0.000082	-0.374563
C54	C	0.926505	-0.000087	-0.306267
C55	C	0.919952	-0.000079	0.297598
C56	C	0.921339	-0.000073	0.381703
H57	H	1.022828	-0.203801	0.072119
O58	O	0.514607	-0.000030	0.271937
C59	C	0.559864	-0.000036	0.336452
H60	H	0.620932	0.026000	0.320935
H61	H	0.529604	0.039885	0.382439
H62	H	0.565652	-0.065995	0.358151
H63	H	1.060030	-0.000119	-0.078411
H64	H	1.022832	-0.360807	0.072120
H65	H	0.146713	-0.000087	0.294129
H66	H	0.705162	-0.000086	0.025036
H67	H	1.022870	-0.796389	0.072139
O68	O	1.068830	-0.000000	-0.228638
C69	C	1.112614	0.071209	-0.212188
H70	H	1.093250	0.094950	-0.153472
H71	H	1.178010	0.055180	-0.213785
H72	H	1.101989	0.121077	-0.256005
H73	H	0.800803	-0.000071	-0.061339
H74	H	1.022857	-0.639373	0.072135
H75	H	0.829060	-0.796379	0.247055
H76	H	1.053444	-0.000103	-0.476126
O77	O	0.820691	-0.632441	0.254558
C78	C	0.832146	-0.546774	0.244239
H79	H	0.861551	-0.534955	0.185856
H80	H	0.772757	-0.513889	0.249048
H81	H	0.871390	-0.522206	0.289468
H82	H	1.051070	-0.000098	-0.619494
H83	H	0.670760	-0.000051	0.273146
H84	H	0.791844	-0.000064	-0.602420
H85	H	0.798436	-0.000063	-0.204709
O86	O	0.783023	-0.000102	-0.452223
C87	C	0.719115	-0.000078	-0.499896
H88	H	0.739130	-0.026107	-0.557608
H89	H	0.669525	-0.039996	-0.473782
H90	H	0.697013	0.065885	-0.506845
O91	O	0.820524	-0.367565	0.254524
C92	C	0.742942	-0.346417	0.237491
H93	H	0.742679	-0.322636	0.176876
H94	H	0.703586	-0.403337	0.243792
H95	H	0.719825	-0.296177	0.278029
O96	O	0.820700	-0.197021	0.254711
C97	C	0.833284	-0.218166	0.330406
H98	H	0.896052	-0.241948	0.334611
H99	H	0.824186	-0.161243	0.367832
H100	H	0.789791	-0.268403	0.349983
H101	H	0.181116	-0.000117	0.046020
O102	O	0.299905	0.000039	0.316946
C103	C	0.274155	0.071264	0.356973
H104	H	0.217483	0.094992	0.332903
H105	H	0.262670	0.055262	0.419307
H106	H	0.321489	0.121132	0.351078
O107	O	0.337268	-0.000077	0.047227
C108	C	0.292008	-0.000105	-0.017286
H109	H	0.230940	0.025927	-0.001765
H110	H	0.322263	0.039807	-0.063274
H111	H	0.286223	-0.066070	-0.038987
O112	O	0.551745	-0.000063	0.002324
C113	C	0.468770	-0.000086	0.010694
H114	H	0.449452	0.025950	0.068591
H115	H	0.443747	0.039826	-0.035388
H116	H	0.446014	-0.066050	0.005648
