data_functionalizedCrystal
_audit_creation_method	'MofGen! by Chris Wilmer'
_symmetry_space_group_name_H-M	'P1'
_symmetry_Int_Tables_number	1
_symmetry_cell_setting	triclinic
loop_
_symmetry_equiv_pos_as_xyz
  x,y,z
_cell_length_a	19.288840
_cell_length_b	14.519709
_cell_length_c	17.766277
_cell_angle_alpha	90.014774
_cell_angle_beta	89.983415
_cell_angle_gamma	96.596921
loop_
_atom_site_label
_atom_site_type_symbol
_atom_site_fract_x
_atom_site_fract_y
_atom_site_fract_z
O1	O	0.921778	-0.114935	-0.062734
O2	O	1.421778	0.385065	0.437266
O3	O	0.719571	-0.130478	-0.062710
O4	O	1.219571	0.369522	0.437290
O5	O	0.826035	0.011566	-0.062701
O6	O	1.326035	0.511566	0.437299
O7	O	0.815313	-0.256980	-0.062742
O8	O	1.315313	0.243020	0.437258
O9	O	0.826017	0.011574	0.062487
O10	O	1.326017	0.511574	0.562487
O11	O	0.719552	-0.130471	0.062479
O12	O	1.219552	0.369529	0.562479
O13	O	0.921759	-0.114928	0.062455
O14	O	1.421759	0.385072	0.562455
Cu15	Cu	0.820654	-0.122699	0.073898
Cu16	Cu	1.320654	0.377301	0.573898
Cu17	Cu	0.820676	-0.122707	-0.074152
Cu18	Cu	1.320676	0.377293	0.425848
O19	O	0.815294	-0.256973	0.062446
O20	O	1.315294	0.243027	0.562446
C21	C	0.693683	-0.129979	-0.000112
C22	C	1.193683	0.370021	0.499888
C23	C	0.616573	-0.128489	-0.000102
C24	C	1.116573	0.371511	0.499898
C25	C	0.580377	-0.127777	-0.068344
C26	C	1.080377	0.372223	0.431656
C27	C	0.507925	-0.126367	-0.068353
C28	C	1.007925	0.373633	0.431647
C29	C	0.471673	-0.125650	-0.000116
C30	C	0.971673	0.374350	0.499884
C31	C	0.507878	-0.126367	0.068135
C32	C	1.007878	0.373633	0.568135
C33	C	0.580327	-0.127787	0.068142
C34	C	1.080327	0.372213	0.568142
C35	C	0.362135	-0.069381	0.052161
C36	C	0.862135	0.430619	0.552161
C37	C	0.289688	-0.067956	0.052151
C38	C	0.789688	0.432044	0.552151
C39	C	0.248214	-0.121276	-0.000135
C40	C	0.748214	0.378724	0.499865
C41	C	0.279198	-0.176010	-0.052424
C42	C	0.779198	0.323990	0.447576
C43	C	0.351648	-0.177429	-0.052417
C44	C	0.851648	0.322571	0.447583
C45	C	0.393114	-0.124112	-0.000116
C46	C	0.893114	0.375888	0.499884
C47	C	0.133457	-0.119037	-0.068391
C48	C	0.633457	0.380963	0.431609
C49	C	0.061003	-0.117633	-0.068397
C50	C	0.561003	0.382367	0.431603
C51	C	0.060958	-0.117624	0.068093
C52	C	0.560958	0.382376	0.568093
C53	C	0.133410	-0.119037	0.068097
C54	C	0.633410	0.380963	0.568097
C55	C	0.169656	-0.119740	-0.000147
C56	C	0.669656	0.380260	0.499853
C57	C	0.825526	0.045927	-0.000103
C58	C	1.325526	0.545927	0.499897
C59	C	0.824029	0.148298	-0.000092
C60	C	1.324029	0.648298	0.499908
C61	C	0.818516	0.523158	-0.000071
C62	C	1.318516	1.023158	0.499929
C63	C	0.820047	0.418860	-0.000076
C64	C	1.320047	0.918860	0.499924
C65	C	0.821272	0.335732	-0.000080
C66	C	1.321272	0.835732	0.499920
C67	C	0.822804	0.231427	-0.000087
C68	C	1.322804	0.731427	0.499913
C69	C	0.947647	-0.115428	-0.000145
C70	C	1.447647	0.384572	0.499855
C71	C	1.024757	-0.116917	-0.000160
C72	C	1.524757	0.383083	0.499840
C73	C	0.815803	0.708667	-0.000127
C74	C	1.315803	1.208667	0.499873
C75	C	0.817301	0.606296	-0.000063
C76	C	1.317301	1.106296	0.499937
N77	N	0.820643	-0.122692	0.178028
N78	N	1.320643	0.377308	0.678028
N79	N	0.820692	-0.122707	-0.178283
N80	N	1.320692	0.377293	0.321717
C81	C	0.867801	-0.059826	0.217418
C82	C	1.367801	0.440174	0.717418
C83	C	0.867805	-0.059821	0.296220
C84	C	1.367805	0.440179	0.796220
C85	C	0.820658	-0.122700	0.335628
C86	C	1.320658	0.377300	0.835628
C87	C	0.773491	-0.185571	0.296228
C88	C	1.273491	0.314429	0.796228
C89	C	0.773484	-0.185568	0.217428
C90	C	1.273484	0.314432	0.717428
C91	C	0.811661	-0.206729	0.460454
C92	C	1.311661	0.293271	0.960454
C93	C	0.811673	-0.206734	0.539253
C94	C	1.311673	0.293266	1.039253
C95	C	0.820676	-0.122711	0.578675
C96	C	1.320676	0.377289	1.078675
C97	C	0.829682	-0.038679	0.539288
C98	C	1.329682	0.461321	1.039288
C99	C	0.829675	-0.038676	0.460487
C100	C	1.329675	0.461324	0.960487
C101	C	0.820660	-0.122710	0.421074
C102	C	1.320660	0.377290	0.921074
C103	C	0.867841	-0.059834	0.703511
C104	C	1.367841	0.440166	1.203511
C105	C	0.867840	-0.059829	0.782314
C106	C	1.367840	0.440171	1.282314
C107	C	0.773530	-0.185587	0.782321
C108	C	1.273530	0.314413	1.282321
C109	C	0.773527	-0.185584	0.703519
C110	C	1.273527	0.314416	1.203519
C111	C	0.820687	-0.122709	0.664119
C112	C	1.320687	0.377291	1.164119
H113	H	0.162969	-0.119619	-0.123960
H114	H	0.662969	0.380381	0.376040
Cl115	Cl	0.840987	0.066959	0.410975
Cl116	Cl	1.340987	0.566959	0.910975
H117	H	0.609884	-0.128349	-0.123913
H118	H	1.109884	0.371651	0.376087
H119	H	0.906240	-0.008630	0.814387
H120	H	1.406240	0.491370	1.314387
Cl121	Cl	0.462305	-0.125472	0.153919
Cl122	Cl	0.962305	0.374528	0.653919
Cl123	Cl	0.390597	-0.246238	-0.118145
Cl124	Cl	0.890597	0.253762	0.381855
Cl125	Cl	0.462412	-0.125471	-0.154149
Cl126	Cl	0.962412	0.374529	0.345851
Cl127	Cl	0.015391	-0.116732	0.153877
Cl128	Cl	0.515391	0.383268	0.653877
Cl129	Cl	0.178916	-0.119926	0.153892
Cl130	Cl	0.678916	0.380074	0.653892
H131	H	0.245431	-0.219432	-0.094998
H132	H	0.745431	0.280568	0.405002
H133	H	0.735102	-0.236766	0.328318
H134	H	1.235102	0.263234	0.828318
H135	H	0.735139	-0.236780	0.814407
H136	H	1.235139	0.263220	1.314407
Cl137	Cl	0.015499	-0.116746	-0.154196
Cl138	Cl	0.515499	0.383254	0.345804
H139	H	0.906239	-0.008634	0.671430
H140	H	1.406239	0.491366	1.171430
H141	H	0.735081	-0.236762	0.185355
H142	H	1.235081	0.263238	0.685355
H143	H	0.264467	-0.023385	0.094725
H144	H	0.764467	0.476615	0.594725
Cl145	Cl	0.414267	-0.002345	0.117900
Cl146	Cl	0.914267	0.497655	0.617900
Cl147	Cl	0.625833	-0.128680	0.153940
Cl148	Cl	1.125833	0.371320	0.653940
Cl149	Cl	0.841006	0.066957	0.588837
Cl150	Cl	1.341006	0.566957	1.088837
Cl151	Cl	0.714244	-0.264625	0.653995
Cl152	Cl	1.214244	0.235375	1.153995
Cl153	Cl	0.800357	-0.312372	0.588760
Cl154	Cl	1.300357	0.187628	1.088760
Cl155	Cl	0.927082	0.019220	0.167887
Cl156	Cl	1.427082	0.519220	0.667887
Cl157	Cl	0.800407	-0.312371	0.410904
Cl158	Cl	1.300407	0.187629	0.910904
H159	H	0.906208	-0.008626	0.328298
H160	H	1.406208	0.491374	0.828298
