data_functionalizedCrystal
_audit_creation_method	'MofGen! by Chris Wilmer'
_symmetry_space_group_name_H-M	'P1'
_symmetry_Int_Tables_number	1
_symmetry_cell_setting	triclinic
loop_
_symmetry_equiv_pos_as_xyz
  x,y,z
_cell_length_a	14.908571
_cell_length_b	14.908178
_cell_length_c	12.827885
_cell_angle_alpha	86.668630
_cell_angle_beta	86.685814
_cell_angle_gamma	89.820760
loop_
_atom_site_label
_atom_site_type_symbol
_atom_site_fract_x
_atom_site_fract_y
_atom_site_fract_z
Zn1	Zn	1.354014	-0.437398	-0.651962
Zn2	Zn	1.854014	0.062602	-0.151962
Zn3	Zn	1.345238	-0.587788	-0.466567
Zn4	Zn	1.845238	-0.087788	0.033433
Zn5	Zn	1.203644	-0.428752	-0.467775
Zn6	Zn	1.703644	0.071248	0.032225
Zn7	Zn	1.194952	-0.579035	-0.631819
Zn8	Zn	1.694952	-0.079035	-0.131819
O9	O	1.274462	-0.508243	-0.554531
O10	O	1.774462	-0.008243	-0.054531
O11	O	1.478675	-0.464629	-0.635293
O12	O	1.978675	0.035371	-0.135293
O13	O	1.326419	-0.566736	-0.320486
O14	O	1.826419	-0.066736	0.179514
O15	O	1.230901	-0.304066	-0.501143
O16	O	1.730901	0.195934	-0.001143
O17	O	1.472227	-0.575120	-0.499084
O18	O	1.972227	-0.075120	0.000916
O19	O	1.341377	-0.310419	-0.636464
O20	O	1.841377	0.189581	-0.136464
O21	O	1.222391	-0.449893	-0.321373
O22	O	1.722391	0.050107	0.178627
O23	O	1.076665	-0.441406	-0.481612
O24	O	1.576665	0.058594	0.018388
O25	O	1.216088	-0.560202	-0.780733
O26	O	1.716088	-0.060202	-0.280733
O27	O	1.070280	-0.551818	-0.602134
O28	O	1.570280	-0.051818	-0.102134
O29	O	1.332950	-0.456142	-0.795531
O30	O	1.832950	0.043858	-0.295531
O31	O	1.317992	-0.712460	-0.479553
O32	O	1.817992	-0.212460	0.020447
O33	O	1.207577	-0.706029	-0.600963
O34	O	1.707577	-0.206029	-0.100963
C35	C	1.040847	-0.494725	-0.539819
C36	C	1.540847	0.005275	-0.039819
C37	C	0.940904	-0.488963	-0.533549
C38	C	1.440904	0.011037	-0.033549
C39	C	0.746490	-0.593287	-0.647073
C40	C	1.246490	-0.093287	-0.147073
C41	C	0.652585	-0.587876	-0.641185
C42	C	1.152585	-0.087876	-0.141185
C43	C	0.659187	-0.472727	-0.515890
C44	C	1.159187	0.027273	-0.015890
C45	C	0.753093	-0.478137	-0.521778
C46	C	1.253093	0.021863	-0.021778
C47	C	0.796741	-0.538421	-0.587371
C48	C	1.296741	-0.038421	-0.087371
C49	C	0.890647	-0.543835	-0.593253
C50	C	1.390647	-0.043835	-0.093253
C51	C	0.897248	-0.428682	-0.467964
C52	C	1.397248	0.071318	0.032036
C53	C	0.803343	-0.423271	-0.462076
C54	C	1.303343	0.076729	0.037924
C55	C	1.260913	-0.741873	-0.537965
C56	C	1.760913	-0.241873	-0.037965
C57	C	1.255200	-0.841825	-0.530918
C58	C	1.755200	-0.341825	-0.030918
C59	C	1.359415	-1.036106	-0.658725
C60	C	1.859415	-0.536106	-0.158725
C61	C	1.354049	-1.130021	-0.652108
C62	C	1.854049	-0.630021	-0.152108
C63	C	1.239099	-1.123570	-0.511072
C64	C	1.739099	-0.623570	-0.011072
C65	C	1.244465	-1.029655	-0.517690
C66	C	1.744465	-0.529655	-0.017690
C67	C	1.304625	-0.985927	-0.591517
C68	C	1.804625	-0.485927	-0.091517
C69	C	1.309995	-0.892011	-0.598129
C70	C	1.809995	-0.392011	-0.098129
C71	C	1.195041	-0.885562	-0.457099
C72	C	1.695041	-0.385562	0.042901
C73	C	1.189675	-0.979476	-0.450482
C74	C	1.689675	-0.479476	0.049518
C75	C	1.508989	-0.521815	-0.569301
C76	C	2.008989	-0.021815	-0.069301
C77	C	1.608930	-0.527599	-0.575595
C78	C	2.108930	-0.027599	-0.075595
C79	C	1.274528	-0.508161	-0.827111
C80	C	1.774528	-0.008161	-0.327111
C81	C	1.274556	-0.508125	-0.943269
C82	C	1.774556	-0.008125	-0.443269
C83	C	1.288088	-0.273703	-0.571185
C84	C	1.788088	0.226297	-0.071185
C85	C	1.293894	-0.173756	-0.578283
C86	C	1.793894	0.326244	-0.078283
C87	C	1.332390	-0.456623	-1.002377
C88	C	1.832390	0.043377	-0.502377
C89	C	1.332420	-0.456585	-1.122432
C90	C	1.832420	0.043415	-0.622432
C91	C	1.274451	-0.508264	-0.283019
C92	C	1.774451	-0.008264	0.216981
C93	C	1.274612	-0.508056	-0.166891
C94	C	1.774612	-0.008056	0.333109
H95	H	0.782029	-0.642377	-0.700476
H96	H	1.282029	-0.142377	-0.200476
C97	C	0.938660	-0.610140	-0.665405
C98	C	1.438660	-0.110140	-0.165405
H99	H	0.895280	-0.642034	-0.700126
H100	H	1.395280	-0.142034	-0.200126
H101	H	0.973012	-0.651394	-0.624885
H102	H	1.473012	-0.151394	-0.124885
H103	H	0.977297	-0.577889	-0.715737
H104	H	1.477297	-0.077889	-0.215737
C105	C	0.952521	-0.368328	-0.402282
C106	C	1.452521	0.131672	0.097718
H107	H	0.913073	-0.331659	-0.362369
H108	H	1.413073	0.168341	0.137631
H109	H	0.991441	-0.331298	-0.447392
H110	H	1.491441	0.168702	0.052608
H111	H	0.987138	-0.404804	-0.356542
H112	H	1.487138	0.095196	0.143458
H113	H	0.611675	-0.632553	-0.689803
H114	H	1.111675	-0.132553	-0.189803
C115	C	0.611163	-0.406432	-0.443735
C116	C	1.111163	0.093568	0.056265
H117	H	0.548040	-0.411076	-0.448775
H118	H	1.048040	0.088924	0.051225
H119	H	0.630049	-0.346911	-0.464371
H120	H	1.130049	0.153089	0.035629
H121	H	0.625764	-0.420426	-0.373530
H122	H	1.125764	0.079574	0.126470
C123	C	0.755325	-0.356970	-0.389924
C124	C	1.255325	0.143030	0.110076
H125	H	0.692201	-0.361609	-0.394961
H126	H	1.192201	0.138391	0.105039
H127	H	0.774215	-0.297452	-0.410566
H128	H	1.274215	0.202548	0.089434
H129	H	0.769926	-0.370961	-0.319719
H130	H	1.269926	0.129039	0.180281
H131	H	1.381878	-0.412554	-0.964102
H132	H	1.881878	0.087446	-0.464102
H133	H	1.358983	-0.856409	-0.658240
H134	H	1.858983	-0.356409	-0.158240
C135	C	1.425575	-0.988002	-0.739942
C136	C	1.925575	-0.488002	-0.239942
H137	H	1.457431	-1.031338	-0.779029
H138	H	1.957431	-0.531338	-0.279029
H139	H	1.466868	-0.953614	-0.705072
H140	H	1.966868	-0.453614	-0.205072
H141	H	1.393229	-0.949385	-0.785852
H142	H	1.893229	-0.449385	-0.285852
C143	C	1.172920	-1.171677	-0.429879
C144	C	1.672920	-0.671677	0.070121
H145	H	1.141050	-1.128343	-0.390803
H146	H	1.641050	-0.628343	0.109197
H147	H	1.205240	-1.210310	-0.383969
H148	H	1.705240	-0.710310	0.116031
H149	H	1.131627	-1.206047	-0.464782
H150	H	1.631627	-0.706047	0.035218
C151	C	1.414322	-1.185215	-0.726030
C152	C	1.914322	-0.685215	-0.226030
H153	H	1.450923	-1.145719	-0.770938
H154	H	1.950923	-0.645719	-0.270938
H155	H	1.377814	-1.219865	-0.766778
H156	H	1.877814	-0.719865	-0.266778
H157	H	1.451432	-1.224105	-0.685973
H158	H	1.951432	-0.724105	-0.185973
C159	C	1.123502	-1.027578	-0.369278
C160	C	1.623502	-0.527578	0.130722
H161	H	1.091636	-0.984240	-0.330203
H162	H	1.591636	-0.484240	0.169797
H163	H	1.155827	-1.066207	-0.323369
H164	H	1.655827	-0.566207	0.176631
H165	H	1.082204	-1.061952	-0.404170
H166	H	1.582204	-0.561952	0.095830
H167	H	1.150430	-0.844695	-0.402371
H168	H	1.650430	-0.344695	0.097629
H169	H	1.381937	-0.412495	-1.173236
H170	H	1.881937	0.087505	-0.673236
H171	H	1.225099	-0.552155	-1.116093
H172	H	1.725099	-0.052155	-0.616093
H173	H	1.225060	-0.552184	-0.981544
H174	H	1.725060	-0.052184	-0.481544
