data_functionalizedCrystal
_audit_creation_method	'MofGen! by Chris Wilmer'
_symmetry_space_group_name_H-M	'P1'
_symmetry_Int_Tables_number	1
_symmetry_cell_setting	triclinic
loop_
_symmetry_equiv_pos_as_xyz
  x,y,z
_cell_length_a	19.188933
_cell_length_b	18.266242
_cell_length_c	15.944551
_cell_angle_alpha	89.993922
_cell_angle_beta	96.677846
_cell_angle_gamma	90.007525
loop_
_atom_site_label
_atom_site_type_symbol
_atom_site_fract_x
_atom_site_fract_y
_atom_site_fract_z
O1	O	0.926420	0.060858	-0.104873
O2	O	0.723145	0.060865	-0.118989
O3	O	0.830333	0.060855	0.010365
O4	O	0.819231	0.060868	-0.234227
O5	O	0.830315	-0.060907	0.010368
O6	O	0.723127	-0.060897	-0.118985
O7	O	0.926401	-0.060904	-0.104870
Zn8	Zn	0.824761	-0.080233	-0.111927
Zn9	Zn	0.824785	0.080194	-0.111932
O10	O	0.819213	-0.060894	-0.234223
C11	C	0.697124	-0.000015	-0.118529
C12	C	0.619616	-0.000013	-0.117156
N13	N	0.824750	-0.189720	-0.111923
C14	C	0.066345	0.066351	-0.107359
C15	C	0.139172	0.066354	-0.108644
C16	C	0.175581	-0.000018	-0.109289
C17	C	0.139159	-0.066398	-0.108627
C18	C	0.066333	-0.066399	-0.107333
N19	N	0.284722	-0.049419	-0.159115
N20	N	0.353903	-0.049413	-0.160346
C21	C	0.395000	-0.000019	-0.113184
N22	N	0.364301	0.049381	-0.064756
N23	N	0.295113	0.049378	-0.063529
C24	C	0.254548	-0.000024	-0.110691
C25	C	0.510382	0.066360	-0.115234
C26	C	0.583212	0.066360	-0.116513
C27	C	0.583196	-0.066394	-0.116504
C28	C	0.510368	-0.066392	-0.115216
C29	C	0.473966	-0.000013	-0.114585
C30	C	0.867090	-0.228021	-0.162746
C31	C	0.867102	-0.304666	-0.162744
C32	C	0.824760	-0.343007	-0.111928
C33	C	0.782417	-0.304696	-0.061095
C34	C	0.782412	-0.228053	-0.061092
N35	N	0.763607	-0.463357	-0.109858
N36	N	0.763613	-0.536165	-0.109866
C37	C	0.824774	-0.573929	-0.111931
N38	N	0.885928	-0.536134	-0.114006
N39	N	0.885920	-0.463319	-0.114003
C40	C	0.824761	-0.426114	-0.111925
C41	C	0.867130	-0.695337	-0.162755
C42	C	0.867143	-0.771984	-0.162746
C43	C	0.782452	-0.772012	-0.061102
C44	C	0.782445	-0.695368	-0.061105
C45	C	0.824783	-0.657035	-0.111936
C46	C	0.952423	-0.000022	-0.105329
C47	C	1.029931	-0.000020	-0.106702
C48	C	0.829863	-0.000026	0.041659
C49	C	0.828481	-0.000027	0.134899
N50	N	0.824802	0.189681	-0.111929
C51	C	0.819683	-0.000011	-0.265517
C52	C	0.821065	-0.000006	-0.358758
C53	C	0.758738	-0.000014	0.349496
C54	C	0.791116	-0.060051	0.410636
C55	C	0.825982	-0.000021	0.305616
C56	C	0.791150	0.059996	0.410616
C57	C	0.823562	-0.000012	0.470520
C58	C	0.858378	-0.060108	0.365528
C59	C	0.858402	0.059994	0.365501
C60	C	0.890828	-0.000058	0.426624
C61	C	0.827374	-0.000027	0.210619
C62	C	0.822176	-0.000012	0.565516
H63	H	0.036711	0.120403	-0.106842
C64	C	0.735879	-0.814174	-0.005199
H65	H	0.710663	-0.780383	0.025074
H66	H	0.703750	-0.844079	-0.039711
H67	H	0.764499	-0.844067	0.033546
H68	H	0.480719	-0.120439	-0.114684
H69	H	0.168826	0.120404	-0.109184
H70	H	0.946692	-0.000094	0.459991
C71	C	0.913666	-0.185859	-0.218651
H72	H	0.938889	-0.219651	-0.248914
H73	H	0.885056	-0.155959	-0.257391
H74	H	0.945800	-0.155961	-0.184128
C75	C	0.179204	-0.139405	-0.109339
H76	H	0.227792	-0.129899	-0.110213
H77	H	0.172592	-0.166680	-0.060154
H78	H	0.161941	-0.166674	-0.158102
H79	H	0.901605	-0.664125	-0.204144
H80	H	0.612839	-0.120435	-0.117026
H81	H	0.747964	-0.664182	-0.019723
C82	C	0.735819	-0.185916	-0.005206
H83	H	0.741878	-0.134780	-0.012486
H84	H	0.688055	-0.198494	-0.020966
H85	H	0.748786	-0.198471	0.052313
C86	C	0.896751	-0.128754	0.338674
H87	H	0.897369	-0.128352	0.279183
H88	H	0.943531	-0.128933	0.365778
H89	H	0.873010	-0.171333	0.354481
C90	C	0.683342	-0.000090	0.304212
H91	H	0.659556	-0.042800	0.319547
H92	H	0.659220	0.042126	0.320292
H93	H	0.684738	0.000340	0.244851
C94	C	0.913671	-0.346806	-0.218660
H95	H	0.938881	-0.312999	-0.248937
H96	H	0.945806	-0.376707	-0.184153
H97	H	0.885049	-0.376701	-0.257402
H98	H	0.747942	-0.335918	-0.019719
C99	C	0.470336	0.139372	-0.114543
H100	H	0.502457	0.178903	-0.115110
H101	H	0.436609	0.142126	-0.163015
H102	H	0.447245	0.142136	-0.065067
C103	C	0.913720	-0.814115	-0.218655
H104	H	0.938927	-0.780306	-0.248931
H105	H	0.945857	-0.844010	-0.184144
H106	H	0.885105	-0.844016	-0.257398
C107	C	0.752687	-0.128614	0.437665
H108	H	0.705764	-0.128541	0.410989
H109	H	0.776116	-0.171247	0.421471
H110	H	0.752459	-0.128342	0.497213
H111	H	0.886826	0.110751	0.345476
H112	H	0.762707	0.110757	0.430585
C113	C	0.623271	0.139371	-0.117241
H114	H	0.671858	0.129866	-0.118094
H115	H	0.606015	0.166637	-0.166007
H116	H	0.616661	0.166647	-0.068059
C117	C	0.026252	-0.139408	-0.106800
H118	H	-0.022339	-0.129902	-0.105991
H119	H	0.032913	-0.166578	-0.156036
H120	H	0.043442	-0.166782	-0.058086
