data_functionalizedCrystal
_audit_creation_method	'MofGen! by Chris Wilmer'
_symmetry_space_group_name_H-M	'P1'
_symmetry_Int_Tables_number	1
_symmetry_cell_setting	triclinic
loop_
_symmetry_equiv_pos_as_xyz
  x,y,z
_cell_length_a	19.188931
_cell_length_b	14.044220
_cell_length_c	12.503572
_cell_angle_alpha	86.156832
_cell_angle_beta	86.495213
_cell_angle_gamma	91.833171
loop_
_atom_site_label
_atom_site_type_symbol
_atom_site_fract_x
_atom_site_fract_y
_atom_site_fract_z
O1	O	0.937461	-0.112812	-0.089284
O2	O	1.437461	0.387188	0.410716
O3	O	0.735178	-0.128737	-0.089295
O4	O	1.235178	0.371263	0.410705
O5	O	0.833283	0.017197	-0.089279
O6	O	1.333283	0.517197	0.410721
O7	O	0.839357	-0.258746	-0.089300
O8	O	1.339357	0.241254	0.410700
O9	O	0.825906	0.006204	0.089361
O10	O	1.325906	0.506204	0.589361
O11	O	0.727801	-0.139730	0.089345
O12	O	1.227801	0.360270	0.589345
O13	O	0.930085	-0.123805	0.089356
O14	O	1.430085	0.376195	0.589356
Cu15	Cu	0.828269	-0.132771	0.105662
Cu16	Cu	1.328269	0.367229	0.605662
Cu17	Cu	0.836993	-0.119771	-0.105601
Cu18	Cu	1.336993	0.380229	0.394399
O19	O	0.831980	-0.269739	0.089340
O20	O	1.331980	0.230261	0.589340
C21	C	0.826937	0.047004	0.000041
C22	C	1.326937	0.547004	0.500041
C23	C	0.819008	0.152197	0.000042
C24	C	1.319008	0.652197	0.500042
C25	C	0.705446	-0.133718	0.000024
C26	C	1.205446	0.366282	0.500024
C27	C	0.627841	-0.132169	0.000020
C28	C	1.127841	0.367831	0.500020
C29	C	0.959817	-0.118824	0.000035
C30	C	1.459817	0.381176	0.500035
C31	C	1.037422	-0.120372	0.000032
C32	C	1.537422	0.379628	0.500032
C33	C	1.076820	-0.034742	0.000029
C34	C	1.576820	0.465258	0.500029
C35	C	1.149738	-0.036197	0.000035
C36	C	1.649738	0.463803	0.500035
C37	C	1.183255	-0.123285	0.000023
C38	C	1.683255	0.376715	0.500023
C39	C	1.143847	-0.208927	0.000032
C40	C	1.643847	0.291073	0.500032
C41	C	1.070931	-0.207470	0.000036
C42	C	1.570931	0.292530	0.500036
N43	N	1.298057	-0.186112	-0.060795
N44	N	1.798057	0.313888	0.439205
N45	N	1.367324	-0.187490	-0.060801
N46	N	1.867324	0.312510	0.439199
C47	C	1.402947	-0.127679	0.000012
C48	C	1.902947	0.372321	0.500012
N49	N	1.366687	-0.066424	0.060818
N50	N	1.866687	0.433576	0.560818
N51	N	1.297413	-0.065043	0.060820
N52	N	1.797413	0.434957	0.560820
C53	C	1.262320	-0.124874	0.000019
C54	C	1.762320	0.375126	0.500019
C55	C	1.521411	-0.043621	0.000018
C56	C	2.021411	0.456379	0.500018
C57	C	1.594329	-0.045080	0.000031
C58	C	2.094329	0.454920	0.500031
C59	C	1.588438	-0.217812	0.000016
C60	C	2.088438	0.282188	0.500016
C61	C	1.515520	-0.216351	0.000014
C62	C	2.015520	0.283649	0.500014
C63	C	1.482012	-0.129253	0.000010
C64	C	1.982012	0.370747	0.500010
C65	C	0.838326	-0.299546	0.000017
C66	C	1.338326	0.200454	0.500017
C67	C	0.846256	-0.404738	0.000009
C68	C	1.346256	0.095262	0.500009
N69	N	0.822138	-0.141915	0.254254
N70	N	1.322138	0.358085	0.754254
C71	C	0.804513	0.344799	0.000026
C72	C	1.304513	0.844799	0.500026
C73	C	0.860747	0.402665	0.000026
C74	C	1.360747	0.902665	0.500026
C75	C	0.852682	0.509836	0.000017
C76	C	1.352682	1.009836	0.500017
C77	C	0.812577	0.237618	0.000035
C78	C	1.312577	0.737618	0.500035
N79	N	0.843130	-0.110620	-0.254192
N80	N	1.343130	0.389380	0.245808
C81	C	0.813120	-0.155373	0.473367
C82	C	1.313120	0.344627	0.973367
C83	C	0.852146	-0.097164	0.526701
C84	C	1.352146	0.402836	1.026701
C85	C	0.847128	-0.104653	0.648623
C86	C	1.347128	0.395347	1.148623
C87	C	0.818137	-0.147886	0.351434
C88	C	1.318137	0.352114	0.851434
H89	H	1.049542	0.036180	0.000029
H90	H	1.549542	0.536180	0.500029
H91	H	1.171141	-0.279835	0.000024
H92	H	1.671141	0.220165	0.500024
N93	N	0.928739	0.363836	0.000036
N94	N	1.428739	0.863836	0.500036
N95	N	0.935281	0.275568	0.000047
N96	N	1.435281	0.775568	0.500047
H97	H	0.983298	0.248138	0.000058
H98	H	1.483298	0.748138	0.500058
N99	N	1.634587	0.042386	0.000020
N100	N	2.134587	0.542386	0.500020
N101	N	1.699690	0.041075	0.000021
N102	N	2.199690	0.541075	0.500021
H103	H	1.728124	0.102849	0.000013
H104	H	2.228124	0.602849	0.500013
H105	H	0.775943	-0.210828	0.519269
H106	H	1.275943	0.289172	1.019269
H107	H	1.181822	0.033536	0.000030
H108	H	1.681822	0.533536	0.500030
N109	N	1.622676	-0.306765	0.000020
N110	N	2.122676	0.193235	0.500020
N111	N	1.687779	-0.308057	0.000026
N112	N	2.187779	0.191943	0.500026
H113	H	1.711963	-0.370882	0.000035
H114	H	2.211963	0.129118	0.500035
H115	H	0.889326	-0.041707	0.480794
H116	H	1.389326	0.458293	0.980794
N117	N	1.030683	-0.294946	0.000057
N118	N	1.530683	0.205054	0.500057
N119	N	1.033747	-0.357564	0.075360
N120	N	1.533747	0.142436	0.575360
H121	H	1.005321	-0.419345	0.075375
H122	H	1.505321	0.080655	0.575375
N123	N	1.487188	0.045351	0.000017
N124	N	1.987188	0.545351	0.500017
N125	N	1.522378	0.121803	0.000026
N126	N	2.022378	0.621803	0.500026
H127	H	1.498210	0.184641	0.000026
H128	H	1.998210	0.684641	0.500026
N129	N	1.475275	-0.303825	0.000029
N130	N	1.975275	0.196175	0.500029
N131	N	1.478344	-0.366443	0.075331
N132	N	1.978344	0.133557	0.575331
H133	H	1.449921	-0.428227	0.075348
H134	H	1.949921	0.071773	0.575348
N135	N	0.736526	0.383629	0.000015
N136	N	1.236526	0.883629	0.500015
N137	N	0.729990	0.471898	0.000009
N138	N	1.229990	0.971898	0.500009
H139	H	0.681975	0.499332	0.000003
H140	H	1.181975	0.999332	0.500003
