data_functionalizedCrystal
_audit_creation_method	'MofGen! by Chris Wilmer'
_symmetry_space_group_name_H-M	'P1'
_symmetry_Int_Tables_number	1
_symmetry_cell_setting	triclinic
loop_
_symmetry_equiv_pos_as_xyz
  x,y,z
_cell_length_a	8.559649
_cell_length_b	10.868271
_cell_length_c	8.597278
_cell_angle_alpha	82.294856
_cell_angle_beta	102.374898
_cell_angle_gamma	90.004136
loop_
_atom_site_label
_atom_site_type_symbol
_atom_site_fract_x
_atom_site_fract_y
_atom_site_fract_z
O1	O	2.119297	0.096669	0.053142
O2	O	1.655358	0.105251	-0.027759
O3	O	1.896455	0.076620	0.242260
O4	O	1.878199	0.125300	-0.216877
O5	O	1.896435	-0.128026	0.242267
O6	O	1.655337	-0.099395	-0.027752
O7	O	2.119276	-0.107976	0.053149
Zn8	Zn	1.887304	-0.136177	0.012699
Zn9	Zn	1.887330	0.133452	0.012690
O10	O	1.878179	-0.079345	-0.216870
C11	C	1.595913	0.003579	-0.033886
C12	C	1.418819	0.005515	-0.052136
N13	N	1.887297	-0.320192	0.012708
C14	C	1.887322	-0.571197	0.012693
C15	C	1.887303	-0.431520	0.012696
C16	C	2.178721	-0.006302	0.059276
C17	C	2.355815	-0.008230	0.077525
C18	C	1.894483	-0.031875	0.300499
C19	C	1.888618	-0.050265	0.474020
N20	N	1.887349	0.317465	0.012696
C21	C	1.880151	0.029152	-0.275109
C22	C	1.886016	0.047550	-0.448630
H23	H	1.437358	-0.021474	0.202495
N24	N	1.888865	0.170279	0.467948
N25	N	1.886430	0.262242	0.540595
H26	H	1.888445	0.348920	0.481680
H27	H	1.337267	0.018773	-0.177114
H28	H	1.886352	-0.148081	0.540543
