data_functionalizedCrystal
_audit_creation_method	'MofGen! by Chris Wilmer'
_symmetry_space_group_name_H-M	'P1'
_symmetry_Int_Tables_number	1
_symmetry_cell_setting	triclinic
loop_
_symmetry_equiv_pos_as_xyz
  x,y,z
_cell_length_a	18.101395
_cell_length_b	13.032831
_cell_length_c	13.032268
_cell_angle_alpha	90.886977
_cell_angle_beta	82.853748
_cell_angle_gamma	97.164309
loop_
_atom_site_label
_atom_site_type_symbol
_atom_site_fract_x
_atom_site_fract_y
_atom_site_fract_z
Zn1	Zn	-0.500117	-1.498320	0.780796
Zn2	Zn	-0.610451	-1.520028	0.608808
Zn3	Zn	-0.469181	-1.348189	0.587040
Zn4	Zn	-0.606447	-1.326277	0.758934
O5	O	-0.546549	-1.423203	0.683894
O6	O	-0.529375	-1.645116	0.776242
O7	O	-0.580440	-1.515487	0.462005
O8	O	-0.369663	-1.368189	0.612782
O9	O	-0.610437	-1.661064	0.649882
O10	O	-0.392391	-1.478491	0.755134
O11	O	-0.476650	-1.389238	0.446012
O12	O	-0.472767	-1.201366	0.591582
O13	O	-0.603613	-1.330844	0.905750
O14	O	-0.573616	-1.185268	0.717872
O15	O	-0.525493	-1.457244	0.921812
O16	O	-0.713541	-1.494241	0.628683
O17	O	-0.710600	-1.351893	0.738979
C18	C	-0.519401	-1.156001	0.649993
C19	C	-0.507806	-1.041687	0.635514
C20	C	-0.738943	-1.423070	0.683847
C21	C	-0.821262	-1.423102	0.683873
C22	C	-0.567557	-1.389178	0.952140
C23	C	-0.576509	-1.374679	1.066450
C24	C	-1.120381	-1.423321	0.683957
C25	C	-1.087270	-1.333919	0.753573
C26	C	-1.001594	-1.333573	0.753276
C27	C	-0.971985	-1.423212	0.683916
C28	C	-0.991648	-1.407642	0.571811
C29	C	-1.077279	-1.407070	0.572223
C30	C	-1.101951	-1.528588	0.725513
C31	C	-1.016421	-1.527646	0.727809
C32	C	-0.888117	-1.423153	0.683886
C33	C	-1.204247	-1.423378	0.683979
C34	C	-0.353408	-1.423363	0.683968
C35	C	-0.271103	-1.423431	0.684000
C36	C	-0.573804	-1.691449	0.717929
C37	C	-0.585418	-1.805759	0.732432
C38	C	-0.552600	-0.982797	0.691451
C39	C	-0.540618	-0.864648	0.676488
C40	C	-0.525575	-1.457155	0.416700
C41	C	-0.516434	-1.471854	0.302416
C42	C	-0.541848	-1.430755	1.125361
C43	C	-0.551100	-1.415770	1.243507
H44	H	-0.988702	-1.341720	0.835969
Br45	Br	-0.611974	-1.317246	1.305211
Br46	Br	-0.455563	-1.570384	1.240715
Br47	Br	-0.461902	-0.802909	0.578205
H48	H	-0.613028	-1.315571	1.103481
Br49	Br	-0.631309	-1.044540	0.789735
H50	H	-1.115992	-1.341850	0.836504
Br51	Br	-0.664116	-0.867492	0.830745
Br52	Br	-0.951493	-1.203057	0.705592
Br53	Br	-0.429094	-0.979944	0.537236
H54	H	-1.099292	-1.256075	0.725253
Br55	Br	-1.094154	-1.279499	0.516218
Br56	Br	-0.939562	-1.281561	0.515278
H57	H	-0.505321	-1.489853	1.088329
H58	H	-1.098787	-1.470108	0.517844
H59	H	-0.972170	-1.471316	0.517925
H60	H	-1.132313	-1.545469	0.806592
H61	H	-1.004566	-1.539638	0.810379
Br62	Br	-0.984215	-1.642704	0.651297
H63	H	-1.123643	-1.595027	0.674977
