data_functionalizedCrystal
_audit_creation_method	'MofGen! by Chris Wilmer'
_symmetry_space_group_name_H-M	'P1'
_symmetry_Int_Tables_number	1
_symmetry_cell_setting	triclinic
loop_
_symmetry_equiv_pos_as_xyz
  x,y,z
_cell_length_a	25.993459
_cell_length_b	25.993459
_cell_length_c	25.993458
_cell_angle_alpha	89.997327
_cell_angle_beta	59.996389
_cell_angle_gamma	59.999913
loop_
_atom_site_label
_atom_site_type_symbol
_atom_site_fract_x
_atom_site_fract_y
_atom_site_fract_z
O1	O	0.453804	0.352910	-0.015327
O2	O	0.348452	0.278101	0.015215
O3	O	0.453801	0.278097	-0.090136
O4	O	0.348456	0.352914	0.090024
O5	O	0.368235	0.363662	-0.090135
O6	O	0.262887	0.363666	0.015215
O7	O	0.368239	0.438475	-0.015326
Cu8	Cu	0.307750	0.408884	-0.000056
Cu9	Cu	0.408941	0.307693	-0.000056
O10	O	0.262890	0.438479	0.090024
C11	C	0.461550	0.532420	-0.022289
C12	C	0.425436	0.600281	-0.017922
C13	C	0.430878	0.501176	-0.022719
C14	C	0.554710	0.439260	-0.022289
C15	C	0.618205	0.407513	-0.017923
C16	C	0.523897	0.408157	-0.022720
C17	C	0.461545	0.439262	-0.022282
C18	C	0.425427	0.407517	-0.017907
C19	C	0.523901	0.501174	-0.022727
C20	C	0.150817	0.094624	0.036968
C21	C	0.088468	0.125869	0.037402
C22	C	0.150815	0.187785	0.036971
C23	C	0.088465	0.218889	0.037405
C24	C	0.057657	0.187784	0.036968
C25	C	0.181484	0.125870	0.037405
C26	C	0.251747	-0.006063	0.029408
C27	C	0.286046	-0.069687	0.024636
C28	C	0.256608	-0.101597	0.022240
C29	C	0.293796	-0.170582	0.017062
C30	C	0.192866	-0.069889	0.024621
C31	C	0.158567	-0.006268	0.029397
C32	C	0.188010	0.025642	0.031787
C33	C	-0.035468	0.187541	0.029404
C34	C	-0.094318	0.216866	0.024631
C35	C	-0.123834	0.278215	0.022238
C36	C	-0.187641	0.310013	0.017060
C37	C	-0.094511	0.310250	0.024623
C38	C	-0.035666	0.280928	0.029399
C39	C	-0.006145	0.219574	0.031786
C40	C	0.251742	0.187544	0.029415
C41	C	0.286045	0.216868	0.024637
C42	C	0.256605	0.278217	0.022244
C43	C	0.293790	0.310016	0.017070
C44	C	0.192868	0.310248	0.024623
C45	C	0.158566	0.280928	0.029398
C46	C	0.188006	0.219576	0.031794
C47	C	0.659039	0.094625	-0.471255
C48	C	0.628229	0.125870	-0.409340
C49	C	0.565878	0.187786	-0.471253
C50	C	0.535209	0.218890	-0.409339
C51	C	0.565879	0.187785	-0.378094
C52	C	0.628228	0.125871	-0.502359
C53	C	0.752167	-0.006063	-0.564626
C54	C	0.811019	-0.069686	-0.594153
C55	C	0.840535	-0.101596	-0.562321
C56	C	0.904343	-0.170581	-0.594331
C57	C	0.811210	-0.069888	-0.500961
C58	C	0.752363	-0.006268	-0.471436
C59	C	0.722842	0.025642	-0.503269
C60	C	0.558561	0.187542	-0.277406
C61	C	0.524465	0.216868	-0.213782
C62	C	0.460721	0.278217	-0.181872
C63	C	0.423747	0.310015	-0.112886
C64	C	0.431069	0.310252	-0.213579
C65	C	0.465166	0.280930	-0.277200
C66	C	0.528909	0.219575	-0.309111
C67	C	0.558559	0.187545	-0.564622
C68	C	0.524456	0.216868	-0.594145
C69	C	0.460713	0.278217	-0.562310
C70	C	0.423737	0.310016	-0.594319
C71	C	0.431061	0.310249	-0.500953
C72	C	0.465159	0.280928	-0.471428
C73	C	0.528908	0.219576	-0.503265
O74	O	0.791470	0.363662	0.015199
O75	O	0.641853	0.438471	-0.015341
O76	O	0.641836	0.438470	0.090009
O77	O	0.791486	0.363663	-0.090151
O78	O	0.641842	0.352902	0.090002
O79	O	0.641859	0.352903	-0.015349
O80	O	0.791476	0.278094	0.015192
Cu81	Cu	0.716668	0.307685	-0.000079
Cu82	Cu	0.716660	0.408880	-0.000071
O83	O	0.791493	0.278095	-0.090158
O84	O	0.262896	0.806669	0.015202
O85	O	0.368247	0.626511	-0.015340
O86	O	0.262904	0.731846	0.090010
O87	O	0.368239	0.701334	-0.090149
O88	O	0.348474	0.731844	0.090003
O89	O	0.453817	0.626509	-0.015348
O90	O	0.348466	0.806667	0.015194
Cu91	Cu	0.408955	0.716588	-0.000078
Cu92	Cu	0.307758	0.716590	-0.000069
O93	O	0.453809	0.701332	-0.090157
O94	O	0.348447	0.352922	-0.721933
O95	O	0.453796	0.278102	-0.647127
O96	O	0.348446	0.278107	-0.647116
O97	O	0.453797	0.352917	-0.721944
O98	O	0.262882	0.363671	-0.561548
O99	O	0.368232	0.363666	-0.561559
O100	O	0.262883	0.438486	-0.636366
Cu101	Cu	0.307745	0.408889	-0.591150
Cu102	Cu	0.408934	0.307699	-0.692343
O103	O	0.368233	0.438481	-0.636377
O104	O	1.074857	-0.373487	-0.636382
O105	O	0.925229	-0.193330	-0.561570
O106	O	0.925224	-0.298670	-0.561562
O107	O	1.074863	-0.268148	-0.636391
O108	O	0.925225	-0.298671	-0.647128
O109	O	0.925230	-0.193332	-0.647136
O110	O	1.074859	-0.373489	-0.721948
Cu111	Cu	1.000045	-0.283410	-0.692355
Cu112	Cu	1.000043	-0.283409	-0.591163
O113	O	1.074864	-0.268149	-0.721957
C114	C	0.161988	0.532433	0.277276
C115	C	0.098496	0.600295	0.309021
C116	C	0.192797	0.501189	0.308381
C117	C	0.255151	0.439271	0.184116
C118	C	0.291268	0.407523	0.116254
C119	C	0.285818	0.408168	0.215363
C120	C	0.255148	0.439274	0.277278
C121	C	0.291261	0.407529	0.309025
C122	C	0.192801	0.501186	0.215361
C123	C	0.461517	0.439251	0.277255
C124	C	0.425401	0.407502	0.308999
C125	C	0.430842	0.501166	0.308363
C126	C	0.554685	0.439255	0.184097
C127	C	0.618185	0.407510	0.116235
C128	C	0.523869	0.501170	0.215346
C129	C	0.461512	0.532413	0.277261
C130	C	0.425391	0.600275	0.309010
C131	C	0.523874	0.408148	0.215340
C132	C	0.255194	0.738755	0.277249
C133	C	0.291315	0.734380	0.308990
C134	C	0.192847	0.739183	0.308356
C135	C	0.255181	0.738774	0.184096
C136	C	0.291288	0.734418	0.116236
C137	C	0.192833	0.739202	0.215344
C138	C	0.162031	0.738754	0.277257
C139	C	0.098542	0.734377	0.309005
C140	C	0.285855	0.739203	0.215337
C141	C	1.150885	0.094637	-0.471277
C142	C	1.181555	0.125885	-0.502379
C143	C	1.057712	0.187795	-0.378113
C144	C	1.088523	0.218902	-0.409356
C145	C	1.150880	0.187800	-0.471271
C146	C	1.088529	0.125880	-0.409362
C147	C	1.158209	-0.006053	-0.471041
C148	C	1.192311	-0.069677	-0.500369
C149	C	1.256060	-0.101584	-0.561718
C150	C	1.293041	-0.170568	-0.593520
C151	C	1.285713	-0.069873	-0.593750
C152	C	1.251610	-0.006253	-0.564425
C153	C	1.187861	0.025654	-0.503070
C154	C	1.251817	0.187563	-0.564638
C155	C	1.286115	0.216891	-0.594161
C156	C	1.256669	0.278240	-0.562324
C157	C	1.293856	0.310041	-0.594331
C158	C	1.192919	0.310272	-0.500964
C159	C	1.158621	0.280947	-0.471444
C160	C	1.188073	0.219592	-0.503280
C161	C	0.964576	0.187548	-0.277428
C162	C	0.905722	0.216868	-0.213801
C163	C	0.876200	0.278217	-0.181888
C164	C	0.812384	0.310012	-0.112902
C165	C	0.905526	0.310251	-0.213591
C166	C	0.964380	0.280934	-0.277215
C167	C	0.993902	0.219582	-0.309130
O168	O	0.348412	0.806663	0.352878
O169	O	0.453771	0.626507	0.278055
O170	O	0.348429	0.731847	0.278052
O171	O	0.453753	0.701324	0.352881
O172	O	0.262858	0.731841	0.363614
O173	O	0.368199	0.626501	0.363617
O174	O	0.262841	0.806657	0.438440
Cu175	Cu	0.307707	0.716579	0.408841
Cu176	Cu	0.408905	0.716586	0.307654
O177	O	0.368182	0.701318	0.438443
C178	C	0.659005	0.679641	-0.471265
C179	C	0.628186	0.679216	-0.502363
C180	C	0.565851	0.679626	-0.378103
C181	C	0.535175	0.679201	-0.409343
C182	C	0.565836	0.679649	-0.471255
C183	C	0.628202	0.679193	-0.409352
C184	C	0.752141	0.687193	-0.471031
C185	C	0.810992	0.691968	-0.500359
C186	C	0.840500	0.694374	-0.561705
C187	C	0.904308	0.699554	-0.593506
C188	C	0.811167	0.692001	-0.593734
C189	C	0.752321	0.687225	-0.564409
C190	C	0.722808	0.684823	-0.503057
C191	C	0.558502	0.687232	-0.564615
C192	C	0.524397	0.692014	-0.594135
C193	C	0.460654	0.694405	-0.562298
C194	C	0.423670	0.699593	-0.594301
C195	C	0.431010	0.692009	-0.500940
C196	C	0.465115	0.687225	-0.471423
C197	C	0.528858	0.684839	-0.503261
C198	C	0.558549	0.687161	-0.277422
C199	C	0.524455	0.691928	-0.213797
C200	C	0.460711	0.694319	-0.181884
C201	C	0.423745	0.699482	-0.112900
C202	C	0.431052	0.691949	-0.213584
C203	C	0.465141	0.687185	-0.277205
C204	C	0.528890	0.684791	-0.309122
H205	H	0.549682	0.357287	-0.023414
Br206	Br	0.149834	0.542996	0.173543
H207	H	0.610408	0.685285	-0.590545
Br208	Br	0.347216	0.542974	0.393153
H209	H	0.610458	0.685209	-0.303406
H210	H	0.549658	0.526255	0.190259
H211	H	0.834861	0.693910	-0.474272
Br212	Br	0.566854	0.323364	0.173520
Br213	Br	0.369479	0.740371	0.173518
Br214	Br	-0.134113	0.173391	0.021400
H215	H	0.167066	0.739878	0.359228
Br216	Br	0.149834	0.740395	0.173549
Br217	Br	1.045543	0.303688	-0.367542
H218	H	0.231653	0.100783	0.038110
Br219	Br	0.712570	0.036767	-0.388170
Br220	Br	0.564712	0.173393	-0.170758
H221	H	0.380696	0.526269	-0.023405
Br222	Br	0.004130	0.324399	0.032637
Br223	Br	0.645081	0.104285	-0.607835
Br224	Br	0.564696	0.173393	-0.677412
H225	H	1.231738	0.100796	-0.553248
Br226	Br	1.045550	0.084067	-0.367552
H227	H	0.881849	0.190780	-0.187994
H228	H	0.654012	0.100780	-0.553229
H229	H	0.988609	0.137593	-0.303411
Br230	Br	1.071690	0.037248	-0.387775
Br231	Br	1.152065	-0.112705	-0.456902
Br232	Br	0.149831	0.543005	0.393164
H233	H	0.549684	0.526262	-0.023426
H234	H	1.337628	-0.095863	-0.643707
Br235	Br	1.072099	0.324419	-0.388180
H236	H	0.062682	0.269761	0.038105
Br237	Br	0.424887	0.683974	-0.320226
Br238	Br	0.850817	-0.112711	-0.677424
H239	H	1.275755	0.019565	-0.590507
H240	H	0.062682	0.100782	0.038106
Br241	Br	1.291787	0.104296	-0.607848
Br242	Br	0.372544	0.173393	0.021405
H243	H	0.441022	0.307014	-0.303015
Br244	Br	0.072070	0.324396	0.032620
H245	H	0.835203	0.693961	-0.643690
Br246	Br	0.344542	0.393513	-0.457742
H247	H	0.168898	0.360205	0.022671
Br248	Br	0.072062	0.036766	0.032634
H249	H	0.335991	0.357296	0.190275
H250	H	0.275716	0.137590	0.031369
H251	H	0.275722	0.019916	0.031360
H252	H	1.338019	0.190803	-0.644120
Br253	Br	1.152954	0.393540	-0.457758
Br254	Br	1.004184	0.324407	-0.320239
Br255	Br	0.865464	0.393515	-0.170276
H256	H	0.484999	0.678503	-0.384250
Br257	Br	0.372540	-0.112711	0.021412
H258	H	0.728117	0.685234	-0.421077
Br259	Br	0.344531	0.695202	-0.170268
H260	H	0.653995	0.678488	-0.384272
H261	H	0.653973	0.678519	-0.553236
Br262	Br	0.564710	0.695143	-0.170780
H263	H	0.728441	0.685290	-0.590490
H264	H	0.548542	0.693961	-0.644093
H265	H	0.485024	0.269756	-0.384248
Br266	Br	0.424889	0.683974	-0.388157
Br267	Br	0.152912	-0.113201	0.021372
Br268	Br	0.344498	0.695249	-0.457734
H269	H	-0.118554	0.360209	0.022676
Br270	Br	0.004596	0.104273	0.032643
H271	H	0.654020	0.100782	-0.384259
Br272	Br	0.712105	0.037242	-0.607830
H273	H	0.835251	-0.095879	-0.475045
H274	H	0.610467	0.137586	-0.303386
H275	H	0.379162	0.360210	-0.187587
H276	H	0.441010	0.307011	-0.421466
