data_functionalizedCrystal
_audit_creation_method	'MofGen! by Chris Wilmer'
_symmetry_space_group_name_H-M	'P1'
_symmetry_Int_Tables_number	1
_symmetry_cell_setting	triclinic
loop_
_symmetry_equiv_pos_as_xyz
  x,y,z
_cell_length_a	12.759401
_cell_length_b	13.897448
_cell_length_c	12.759393
_cell_angle_alpha	89.966654
_cell_angle_beta	89.981504
_cell_angle_gamma	90.017853
loop_
_atom_site_label
_atom_site_type_symbol
_atom_site_fract_x
_atom_site_fract_y
_atom_site_fract_z
Zn1	Zn	1.606234	-0.383954	-0.593968
Zn2	Zn	2.106234	0.116046	-0.093968
Zn3	Zn	1.606119	-0.545283	-0.418283
Zn4	Zn	2.106119	-0.045283	0.081717
Zn5	Zn	1.430536	-0.384004	-0.418308
Zn6	Zn	1.930536	0.115996	0.081692
Zn7	Zn	1.430515	-0.545209	-0.593924
Zn8	Zn	1.930515	-0.045209	-0.093924
O9	O	1.518351	-0.464613	-0.506121
O10	O	2.018351	0.035387	-0.006121
O11	O	1.753239	-0.405365	-0.570671
O12	O	2.253239	0.094635	-0.070671
O13	O	1.582788	-0.523942	-0.271265
O14	O	2.082788	-0.023942	0.228735
O15	O	1.453899	-0.249016	-0.441638
O16	O	1.953899	0.250984	0.058362
O17	O	1.753155	-0.523893	-0.441596
O18	O	2.253155	-0.023893	0.058404
O19	O	1.582983	-0.248979	-0.570695
O20	O	2.082983	0.251021	-0.070695
O21	O	1.453788	-0.405451	-0.271283
O22	O	1.953788	0.094549	0.228717
O23	O	1.283512	-0.405379	-0.441596
O24	O	1.783512	0.094621	0.058404
O25	O	1.453864	-0.523766	-0.740951
O26	O	1.953864	-0.023766	-0.240951
O27	O	1.283497	-0.523815	-0.570621
O28	O	1.783497	-0.023815	-0.070621
O29	O	1.582964	-0.405293	-0.740984
O30	O	2.082964	0.094707	-0.240984
O31	O	1.582768	-0.680255	-0.441554
O32	O	2.082768	-0.180255	0.058446
O33	O	1.453753	-0.680201	-0.570597
O34	O	1.953753	-0.180201	-0.070597
C35	C	1.245383	-0.464595	-0.506107
C36	C	1.745383	0.035405	-0.006107
C37	C	1.128607	-0.464611	-0.506125
C38	C	1.628607	0.035389	-0.006125
C39	C	1.518274	-0.715227	-0.506090
C40	C	2.018274	-0.215227	-0.006090
C41	C	1.518337	-0.822441	-0.506113
C42	C	2.018337	-0.322441	-0.006113
C43	C	1.073764	-0.526379	-0.573198
C44	C	1.573764	-0.026379	-0.073198
C45	C	0.964040	-0.526391	-0.573209
C46	C	1.464040	-0.026391	-0.073209
C47	C	0.964011	-0.402864	-0.439067
C48	C	1.464011	0.097136	0.060933
C49	C	1.073733	-0.402847	-0.439062
C50	C	1.573733	0.097153	0.060938
C51	C	1.128638	-0.588142	-0.640261
C52	C	1.628638	-0.088142	-0.140261
C53	C	1.073796	-0.649917	-0.707338
C54	C	1.573796	-0.149917	-0.207338
C55	C	0.964072	-0.649929	-0.707349
C56	C	1.464072	-0.149929	-0.207349
C57	C	0.909190	-0.588167	-0.640284
C58	C	1.409190	-0.088167	-0.140284
C59	C	1.518448	-1.018736	-0.506178
C60	C	2.018448	-0.518736	-0.006178
C61	C	1.518383	-0.909503	-0.506145
C62	C	2.018383	-0.409503	-0.006145
C63	C	1.792384	-0.464631	-0.506136
C64	C	2.292384	0.035369	-0.006136
C65	C	1.909161	-0.464639	-0.506142
C66	C	2.409161	0.035361	-0.006142
C67	C	1.518424	-0.464515	-0.780154
C68	C	2.018424	0.035485	-0.280154
C69	C	1.518456	-0.464474	-0.896931
C70	C	2.018456	0.035526	-0.396931
C71	C	1.518456	-0.213020	-0.506174
C72	C	2.018456	0.286980	-0.006174
C73	C	1.518501	-0.105806	-0.506197
C74	C	2.018501	0.394194	-0.006197
C75	C	1.585687	-0.402779	-0.951812
C76	C	2.085687	0.097221	-0.451812
C77	C	1.585712	-0.402744	-1.061536
C78	C	2.085712	0.097256	-0.561536
C79	C	1.451271	-0.526107	-1.061489
C80	C	1.951271	-0.026107	-0.561489
C81	C	1.451242	-0.526137	-0.951767
C82	C	1.951242	-0.026137	-0.451767
C83	C	1.652901	-0.341116	-0.896976
C84	C	2.152901	0.158884	-0.396976
C85	C	1.720139	-0.279417	-0.951856
C86	C	2.220139	0.220583	-0.451856
C87	C	1.720164	-0.279382	-1.061580
C88	C	2.220164	0.220618	-0.561580
C89	C	1.652951	-0.341046	-1.116424
C90	C	2.152951	0.158954	-0.616424
C91	C	1.518338	-0.464640	-0.233154
C92	C	2.018338	0.035360	0.266846
C93	C	1.518510	-0.464410	-0.116377
C94	C	2.018510	0.035590	0.383623
H95	H	1.217981	-0.588141	-0.640258
H96	H	1.717981	-0.088141	-0.140258
F97	F	1.132103	-0.337106	-0.367676
F98	F	1.632103	0.162894	0.132324
F99	F	1.379685	-0.591799	-0.893356
F100	F	1.879685	-0.091799	-0.393356
H101	H	1.118488	-0.700195	-0.761947
H102	H	1.618488	-0.200195	-0.261947
F103	F	0.905707	-0.715666	-0.778745
F104	F	1.405707	-0.215666	-0.278745
H105	H	1.774854	-0.229206	-0.907196
H106	H	2.274854	0.270794	-0.407196
F107	F	1.652968	-0.340994	-1.233204
F108	F	2.152968	0.159006	-0.733204
F109	F	0.792411	-0.588175	-0.640308
F110	F	1.292411	-0.088175	-0.140308
F111	F	1.379746	-0.591733	-1.119861
F112	F	1.879746	-0.091733	-0.619861
F113	F	0.905598	-0.337138	-0.367695
F114	F	1.405598	0.162862	0.132305
F115	F	1.652883	-0.341151	-0.780198
F116	F	2.152883	0.158849	-0.280198
H117	H	1.774904	-0.229136	-1.106261
H118	H	2.274904	0.270864	-0.606261
