data_functionalizedCrystal
_audit_creation_method	'MofGen! by Chris Wilmer'
_symmetry_space_group_name_H-M	'P1'
_symmetry_Int_Tables_number	1
_symmetry_cell_setting	triclinic
loop_
_symmetry_equiv_pos_as_xyz
  x,y,z
_cell_length_a	10.654541
_cell_length_b	15.995292
_cell_length_c	9.130307
_cell_angle_alpha	89.999900
_cell_angle_beta	89.999822
_cell_angle_gamma	83.976272
loop_
_atom_site_label
_atom_site_type_symbol
_atom_site_fract_x
_atom_site_fract_y
_atom_site_fract_z
O1	O	1.666266	0.117595	-0.121743
O2	O	1.300637	0.128801	-0.121755
O3	O	1.493484	0.001365	-0.121751
O4	O	1.473418	0.245031	-0.121747
O5	O	1.493478	0.001364	0.121848
O6	O	1.300630	0.128800	0.121844
O7	O	1.666259	0.117593	0.121856
Cu8	Cu	1.483444	0.123197	0.144093
Cu9	Cu	1.483452	0.123198	-0.143992
O10	O	1.473412	0.245029	0.121852
C11	C	1.253847	0.127978	0.000043
C12	C	1.114436	0.125518	0.000038
C13	C	1.492664	-0.029836	0.000045
C14	C	1.490216	-0.122803	0.000034
C15	C	1.084427	0.277902	0.000022
C16	C	1.003929	0.352935	0.000008
C17	C	0.872942	0.350618	0.000007
C18	C	0.822451	0.273260	0.000024
C19	C	0.902949	0.198227	0.000038
C20	C	1.033938	0.200552	0.000035
C21	C	0.932958	0.045844	0.000064
C22	C	1.063946	0.048159	0.000055
C23	C	0.882468	-0.031514	0.000081
C24	C	0.962966	-0.106549	0.000084
C25	C	1.093960	-0.104228	0.000084
C26	C	1.144443	-0.026873	0.000069
C27	C	1.481215	-0.460594	0.000047
C28	C	1.620407	-0.436474	0.000596
C29	C	1.623052	-0.339783	0.000041
C30	C	1.485681	-0.293012	0.000041
C31	C	1.416095	-0.322516	-0.139063
C32	C	1.414420	-0.419316	-0.139175
C33	C	1.411570	-0.419191	0.137843
C34	C	1.416728	-0.322669	0.139676
C35	C	1.488198	-0.198301	0.000033
C36	C	1.478694	-0.555304	0.000045
C37	C	1.713050	0.118416	0.000055
C38	C	1.852460	0.120877	0.000050
C39	C	1.474232	0.276230	0.000053
C40	C	1.476680	0.369198	0.000054
N41	N	1.483448	0.123195	0.346715
N42	N	1.483458	0.123193	-0.346614
C43	C	1.654284	0.010383	0.346709
C44	C	1.739710	-0.046020	0.423372
C45	C	1.739722	-0.046020	0.576706
C46	C	1.654297	0.010387	0.653379
C47	C	1.568871	0.066790	0.576716
C48	C	1.568870	0.066786	0.423379
C49	C	1.398032	0.179596	0.576722
C50	C	1.398023	0.179602	0.423389
C51	C	1.312607	0.236004	0.653396
C52	C	1.227184	0.292412	0.576732
C53	C	1.227176	0.292411	0.423390
C54	C	1.312597	0.236006	0.346725
H55	H	1.045053	0.415919	-0.000002
H56	H	0.807399	0.411716	0.000006
H57	H	1.251098	-0.024977	0.000052
H58	H	1.316461	-0.290281	0.148077
H59	H	0.715793	0.271380	0.000040
O60	O	1.289390	-0.436694	0.138780
C61	C	1.266849	-0.486073	0.015517
H62	H	1.359865	-0.520136	-0.024557
H63	H	1.222697	-0.443862	-0.075407
C64	C	1.061976	-0.509185	0.107049
C65	C	1.176219	-0.551027	0.057837
H66	H	1.006067	-0.549249	0.133150
H67	H	1.077159	-0.475915	0.190092
H68	H	1.025199	-0.474010	0.031270
H69	H	1.213002	-0.586192	0.133622
H70	H	1.161040	-0.584304	-0.025192
H71	H	0.775810	-0.033395	0.000088
H72	H	1.809260	-0.091948	0.360931
H73	H	0.921845	-0.169528	0.000097
H74	H	1.312603	0.236003	0.221873
H75	H	1.159496	-0.165330	0.000101
H76	H	1.677550	-0.320442	0.099755
H77	H	1.315008	-0.291235	-0.144235
H78	H	1.674055	-0.464160	0.100354
H79	H	1.191082	0.279797	-0.000009
H80	H	1.462617	-0.445852	-0.243158
O81	O	1.683866	-0.470745	-0.117854
C82	C	1.603035	-0.516476	-0.201190
H83	H	1.500707	-0.491933	-0.177538
H84	H	1.619537	-0.585881	-0.170744
C85	C	1.756356	-0.535970	-0.394350
C86	C	1.630676	-0.505821	-0.365310
H87	H	1.773408	-0.529402	-0.495587
H88	H	1.810816	-0.505163	-0.338204
H89	H	1.770092	-0.593806	-0.368968
H90	H	1.616946	-0.447984	-0.390675
H91	H	1.576213	-0.536618	-0.421465
H92	H	1.677877	-0.321060	-0.099845
H93	H	1.464423	-0.302174	-0.242584
O94	O	1.292668	-0.437350	-0.146993
C95	C	1.237008	-0.403084	-0.276772
H96	H	1.313925	-0.393954	-0.360294
H97	H	1.181581	-0.339829	-0.251642
C98	C	1.052710	-0.474648	-0.237076
C99	C	1.147180	-0.463441	-0.339663
H100	H	0.997295	-0.511875	-0.275868
H101	H	1.090206	-0.497731	-0.149638
H102	H	1.006534	-0.421930	-0.216143
H103	H	1.193363	-0.516155	-0.360580
H104	H	1.109689	-0.440367	-0.427106
O105	O	1.144036	0.347113	0.651147
C106	C	1.019735	0.332738	0.613653
H107	H	1.019158	0.265697	0.571487
H108	H	0.982822	0.378926	0.524662
C109	C	0.935309	0.427546	0.801662
C110	C	0.934598	0.345202	0.749883
H111	H	0.882790	0.435238	0.885691
H112	H	1.019052	0.437234	0.826919
H113	H	0.904551	0.466027	0.727489
H114	H	0.965371	0.306724	0.824048
H115	H	0.850858	0.335509	0.724641
H116	H	1.654293	0.010385	0.221857
O117	O	1.822817	-0.100845	0.650957
C118	C	1.898184	-0.150651	0.550414
H119	H	1.899593	-0.116315	0.441109
H120	H	1.857432	-0.213106	0.534111
C121	C	2.031926	-0.209243	0.744512
C122	C	2.033665	-0.167068	0.610265
H123	H	2.115496	-0.219373	0.781432
H124	H	1.981147	-0.175690	0.812252
H125	H	1.997960	-0.261284	0.730908
H126	H	2.067615	-0.115023	0.623874
H127	H	2.084453	-0.200612	0.542529
H128	H	1.467398	-0.303810	0.242585
H129	H	1.455402	-0.447026	0.243284
H130	H	1.654302	0.010376	0.778231
H131	H	1.312615	0.235997	0.778248
H132	H	1.157608	0.338338	0.360978
