data_functionalizedCrystal
_audit_creation_method	'MofGen! by Chris Wilmer'
_symmetry_space_group_name_H-M	'P1'
_symmetry_Int_Tables_number	1
_symmetry_cell_setting	triclinic
loop_
_symmetry_equiv_pos_as_xyz
  x,y,z
_cell_length_a	19.077105
_cell_length_b	21.295417
_cell_length_c	19.076919
_cell_angle_alpha	92.266620
_cell_angle_beta	90.076224
_cell_angle_gamma	87.726672
loop_
_atom_site_label
_atom_site_type_symbol
_atom_site_fract_x
_atom_site_fract_y
_atom_site_fract_z
Zn1	Zn	1.058236	-0.304534	-0.440387
Zn2	Zn	1.558236	0.195466	0.059613
Zn3	Zn	1.062864	-0.405747	-0.322870
Zn4	Zn	1.562864	0.094253	0.177130
Zn5	Zn	0.945454	-0.296102	-0.318181
Zn6	Zn	1.445454	0.203898	0.181819
Zn7	Zn	0.940686	-0.405368	-0.435623
Zn8	Zn	1.440686	0.094632	0.064377
O9	O	1.001810	-0.352938	-0.379265
O10	O	1.501810	0.147062	0.120735
O11	O	1.157181	-0.321649	-0.428754
O12	O	1.657181	0.178351	0.071246
O13	O	1.051222	-0.387832	-0.223917
O14	O	1.551222	0.112168	0.276083
O15	O	0.960474	-0.209134	-0.334424
O16	O	1.460474	0.290866	0.165576
O17	O	1.160581	-0.396009	-0.342415
O18	O	1.660581	0.103991	0.157585
O19	O	1.043334	-0.215330	-0.424208
O20	O	1.543334	0.284670	0.075792
O21	O	0.964962	-0.307276	-0.220472
O22	O	1.464962	0.192724	0.279528
O23	O	0.846490	-0.306908	-0.329804
O24	O	1.346490	0.193092	0.170196
O25	O	0.952346	-0.395362	-0.534586
O26	O	1.452346	0.104638	-0.034586
O27	O	0.842987	-0.387185	-0.416088
O28	O	1.342987	0.112815	0.083912
O29	O	1.038710	-0.321280	-0.538086
O30	O	1.538710	0.178720	-0.038086
O31	O	1.046598	-0.493783	-0.337795
O32	O	1.546598	0.006217	0.162205
O33	O	0.956834	-0.493504	-0.420634
O34	O	1.456834	0.006496	0.079366
C35	C	0.819242	-0.346091	-0.371921
C36	C	1.319242	0.153909	0.128079
C37	C	0.741139	-0.343178	-0.368795
C38	C	1.241139	0.156822	0.131205
C39	C	0.702642	-0.383663	-0.412179
C40	C	1.202642	0.116337	0.087821
C41	C	0.629255	-0.380918	-0.409246
C42	C	1.129255	0.119082	0.090754
C43	C	0.594366	-0.337689	-0.362924
C44	C	1.094366	0.162311	0.137076
C45	C	0.632868	-0.297199	-0.319538
C46	C	1.132868	0.202801	0.180462
C47	C	0.706253	-0.299942	-0.322476
C48	C	1.206253	0.200058	0.177524
C49	C	0.375080	-0.324994	-0.349333
C50	C	0.875080	0.175006	0.150667
C51	C	0.301690	-0.322256	-0.346397
C52	C	0.801690	0.177744	0.153603
C53	C	0.298082	-0.405974	-0.436106
C54	C	0.798082	0.094026	0.063894
C55	C	0.371470	-0.408715	-0.439037
C56	C	0.871470	0.091285	0.060963
C57	C	0.409965	-0.368223	-0.395653
C58	C	0.909965	0.131777	0.104347
N59	N	0.519353	-0.334883	-0.359923
N60	N	1.019353	0.165117	0.140077
N61	N	0.484976	-0.371027	-0.398658
N62	N	0.984976	0.128973	0.101342
C63	C	1.001719	-0.516485	-0.379223
C64	C	1.501719	-0.016485	0.120777
C65	C	1.001744	-0.586454	-0.379231
C66	C	1.501744	-0.086454	0.120769
C67	C	1.048522	-0.619448	-0.336144
C68	C	1.548522	-0.119448	0.163856
C69	C	1.048554	-0.685192	-0.336161
C70	C	1.548554	-0.185192	0.163839
C71	C	1.001796	-0.717939	-0.379257
C72	C	1.501796	-0.217939	0.120743
C73	C	0.955015	-0.684937	-0.422352
C74	C	1.455015	-0.184937	0.077648
C75	C	0.954989	-0.619195	-0.422339
C76	C	1.454989	-0.119195	0.077661
N77	N	0.940111	-0.819089	-0.382141
N78	N	1.440111	-0.319089	0.117859
N79	N	0.940138	-0.881541	-0.382149
N80	N	1.440138	-0.381541	0.117851
C81	C	1.001873	-0.916018	-0.379300
C82	C	1.501873	-0.416018	0.120700
N83	N	1.063583	-0.885683	-0.376429
N84	N	1.563583	-0.385683	0.123571
N85	N	1.063555	-0.823224	-0.376417
N86	N	1.563555	-0.323224	0.123583
C87	C	1.001820	-0.789226	-0.379276
C88	C	1.501820	-0.289226	0.120724
C89	C	1.048690	-1.020300	-0.336230
C90	C	1.548690	-0.520300	0.163770
C91	C	1.048724	-1.086046	-0.336252
C92	C	1.548724	-0.586046	0.163748
C93	C	0.955178	-1.085789	-0.422439
C94	C	1.455178	-0.585789	0.077561
C95	C	0.955151	-1.020045	-0.422421
C96	C	1.455151	-0.520045	0.077579
C97	C	1.001906	-0.987304	-0.379313
C98	C	1.501906	-0.487304	0.120687
C99	C	1.185090	-0.359812	-0.386639
C100	C	1.685090	0.140188	0.113361
C101	C	1.263193	-0.362741	-0.389782
C102	C	1.763193	0.137259	0.110218
C103	C	0.994480	-0.359220	-0.562545
C104	C	1.494480	0.140780	-0.062545
C105	C	0.991356	-0.361897	-0.640648
C106	C	1.491356	0.138103	-0.140648
C107	C	1.001919	-0.188754	-0.379324
C108	C	1.501919	0.311246	0.120676
C109	C	1.001966	-0.118788	-0.379349
C110	C	1.501966	0.381212	0.120651
C111	C	1.034851	-0.324586	-0.679164
C112	C	1.534851	0.175414	-0.179164
C113	C	1.031907	-0.327098	-0.752550
C114	C	1.531907	0.172902	-0.252550
C115	C	0.985472	-0.366925	-0.787418
C116	C	1.485472	0.133075	-0.287418
C117	C	0.941972	-0.404238	-0.748896
C118	C	1.441972	0.095762	-0.248896
C119	C	0.944913	-0.401722	-0.675512
C120	C	1.444913	0.098278	-0.175512
C121	C	0.971853	-0.378584	-1.006698
C122	C	1.471853	0.121416	-0.506698
C123	C	0.968917	-0.381099	-1.080087
C124	C	1.468917	0.118901	-0.580087
C125	C	1.058852	-0.303958	-1.083736
C126	C	1.558852	0.196042	-0.583736
C127	C	1.061791	-0.301448	-1.010350
C128	C	1.561791	0.198552	-0.510350
C129	C	1.018289	-0.338758	-0.971835
C130	C	1.518289	0.161242	-0.471835
N131	N	0.982464	-0.369496	-0.862429
N132	N	1.482464	0.130504	-0.362429
N133	N	1.021294	-0.336183	-0.896824
N134	N	1.521294	0.163817	-0.396824
C135	C	1.009152	-0.346637	-0.196700
C136	C	1.509152	0.153363	0.303300
C137	C	1.012412	-0.343787	-0.118604
C138	C	1.512412	0.156213	0.381396
H139	H	0.273285	-0.287047	-0.308681
H140	H	0.773285	0.212953	0.191319
O141	O	0.591784	-0.420271	-0.451284
O142	O	1.091784	0.079729	0.048716
C143	C	0.550920	-0.457916	-0.409488
C144	C	1.050920	0.042084	0.090512
H145	H	0.542058	-0.433401	-0.355845
H146	H	1.042058	0.066599	0.144155
H147	H	0.498171	-0.465443	-0.436024
H148	H	0.998171	0.034557	0.063976
H149	H	0.579486	-0.505344	-0.402797
H150	H	1.079486	-0.005344	0.097203
O151	O	1.094045	-0.988392	-0.294384
O152	O	1.594045	-0.488392	0.205616
C153	C	1.084000	-0.923291	-0.303620
C154	C	1.584000	-0.423291	0.196380
H155	H	1.028830	-0.913103	-0.324401
H156	H	1.528830	-0.413103	0.175599
H157	H	1.090906	-0.896701	-0.251178
H158	H	1.590906	-0.396701	0.248822
H159	H	1.124141	-0.907426	-0.342747
H160	H	1.624141	-0.407426	0.157253
H161	H	0.399871	-0.443918	-0.476755
H162	H	0.899871	0.056082	0.023245
O163	O	0.412362	-0.285635	-0.307122
O164	O	0.912362	0.214365	0.192878
C165	C	0.365828	-0.246884	-0.265622
C166	C	0.865828	0.253116	0.234378
H167	H	0.313605	-0.270629	-0.261037
H168	H	0.813605	0.229371	0.238963
H169	H	0.389237	-0.238979	-0.211122
H170	H	0.889237	0.261021	0.288878
H171	H	0.357014	-0.199709	-0.291146
H172	H	0.857014	0.300291	0.208854
O173	O	1.106819	-0.262654	-0.976524
O174	O	1.606819	0.237346	-0.476524
C175	C	1.090781	-0.199965	-0.993892
C176	C	1.590781	0.300035	-0.493892
H177	H	1.033836	-0.195386	-1.011796
H178	H	1.533836	0.304614	-0.511796
H179	H	1.098791	-0.167425	-0.945899
H180	H	1.598791	0.332575	-0.445899
H181	H	1.126748	-0.186391	-1.038025
H182	H	1.626748	0.313609	-0.538025
O183	O	1.094083	-0.717194	-0.294339
O184	O	1.594083	-0.217194	0.205661
C185	C	1.163491	-0.704244	-0.312560
C186	C	1.663491	-0.204244	0.187440
H187	H	1.163848	-0.657475	-0.339616
H188	H	1.663848	-0.157475	0.160384
H189	H	1.197056	-0.701446	-0.263133
H190	H	1.697056	-0.201446	0.236867
H191	H	1.185696	-0.743336	-0.349663
H192	H	1.685696	-0.243336	0.150337
O193	O	1.074130	-0.290761	-0.789881
O194	O	1.574130	0.209239	-0.289881
C195	C	1.059524	-0.226834	-0.771357
C196	C	1.559524	0.273166	-0.271357
H197	H	1.034644	-0.222696	-0.716988
H198	H	1.534644	0.277304	-0.216988
H199	H	1.110358	-0.200427	-0.770892
H200	H	1.610358	0.299573	-0.270892
H201	H	1.021760	-0.205687	-0.811209
H202	H	1.521760	0.294313	-0.311209
H203	H	0.266732	-0.438939	-0.471428
H204	H	0.766732	0.061061	0.028572
O205	O	1.094192	-1.117999	-0.294331
O206	O	1.594192	-0.617999	0.205669
C207	C	1.135462	-1.075001	-0.256295
C208	C	1.635462	-0.575001	0.243705
H209	H	1.106760	-1.027001	-0.252672
H210	H	1.606760	-0.527001	0.247328
H211	H	1.145220	-1.092400	-0.201245
H212	H	1.645220	-0.592400	0.298755
H213	H	1.187777	-1.070833	-0.284210
H214	H	1.687777	-0.570833	0.215790
O215	O	1.101032	-0.267734	-1.121256
O216	O	1.601032	0.232266	-0.621256
C217	C	1.088494	-0.278504	-1.193504
C218	C	1.588494	0.221496	-0.693504
H219	H	1.033852	-0.297431	-1.201335
H220	H	1.533852	0.202569	-0.701335
H221	H	1.092172	-0.232488	-1.221602
H222	H	1.592172	0.267512	-0.721602
H223	H	1.129319	-0.314300	-1.215997
H224	H	1.629319	0.185700	-0.715997
O225	O	0.909497	-0.716671	-0.464177
O226	O	1.409497	-0.216671	0.035823
C227	C	0.840085	-0.697529	-0.445934
C228	C	1.340085	-0.197529	0.054066
H229	H	0.839712	-0.648828	-0.418855
H230	H	1.339712	-0.148828	0.081145
H231	H	0.806509	-0.695840	-0.495353
H232	H	1.306509	-0.195840	0.004647
H233	H	0.817905	-0.732439	-0.408845
H234	H	1.317905	-0.232439	0.091155
H235	H	0.909487	-0.432098	-0.644152
H236	H	1.409487	0.067902	-0.144152
O237	O	0.598869	-0.255259	-0.274563
O238	O	1.098869	0.244741	0.225437
C239	C	0.525841	-0.261508	-0.281285
C240	C	1.025841	0.238492	0.218715
H241	H	0.514880	-0.310531	-0.303790
H242	H	1.014880	0.189469	0.196210
H243	H	0.500046	-0.254313	-0.227544
H244	H	1.000046	0.245687	0.272456
H245	H	0.503544	-0.224732	-0.317953
H246	H	1.003544	0.275268	0.182047
O247	O	0.743677	-0.260554	-0.280431
O248	O	1.243677	0.239446	0.219569
C249	C	0.784565	-0.222923	-0.322220
C250	C	1.284565	0.277077	0.177780
H251	H	0.760250	-0.220183	-0.376686
H252	H	1.260250	0.279817	0.123314
H253	H	0.786428	-0.173608	-0.296940
H254	H	1.286428	0.326392	0.203060
H255	H	0.840078	-0.244548	-0.326825
H256	H	1.340078	0.255452	0.173175
H257	H	1.086595	-0.592792	-0.301045
H258	H	1.586595	-0.092792	0.198955
O259	O	0.909784	-1.117688	-0.464241
O260	O	1.409784	-0.617688	0.035759
C261	C	0.919852	-1.182791	-0.455031
C262	C	1.419852	-0.682791	0.044969
H263	H	0.945078	-1.190781	-0.401750
H264	H	1.445078	-0.690781	0.098250
H265	H	0.867037	-1.206010	-0.457647
H266	H	1.367037	-0.706010	0.042353
H267	H	0.955581	-1.204226	-0.498248
H268	H	1.455581	-0.704226	0.001752
O269	O	0.909574	-0.587215	-0.464291
O270	O	1.409574	-0.087215	0.035709
C271	C	0.922092	-0.606196	-0.534959
C272	C	1.422092	-0.106196	-0.034959
H273	H	0.949064	-0.654969	-0.537537
H274	H	1.449064	-0.154969	-0.037537
H275	H	0.870096	-0.607651	-0.564386
H276	H	1.370096	-0.107651	-0.064386
H277	H	0.957237	-0.571318	-0.560097
H278	H	1.457237	-0.071318	-0.060097
H279	H	0.917057	-0.993179	-0.457503
H280	H	1.417057	-0.493179	0.042497
H281	H	1.072666	-0.292156	-0.650780
H282	H	1.572666	0.207844	-0.150780
H283	H	0.931101	-0.413532	-1.108474
H284	H	1.431101	0.086468	-0.608474
O285	O	0.929662	-0.414917	-0.969331
O286	O	1.429662	0.085083	-0.469331
C287	C	0.944235	-0.478846	-0.987871
C288	C	1.444235	0.021154	-0.487871
H289	H	0.999567	-0.484832	-1.010288
H290	H	1.499567	0.015168	-0.510288
H291	H	0.940072	-0.508064	-0.939358
H292	H	1.440072	-0.008064	-0.439358
H293	H	0.904853	-0.495338	-1.028955
H294	H	1.404853	0.004662	-0.528955
O295	O	0.736419	-0.425674	-0.457239
O296	O	1.236419	0.074326	0.042761
C297	C	0.686701	-0.460828	-0.494890
C298	C	1.186701	0.039172	0.005110
H299	H	0.634305	-0.433178	-0.495281
H300	H	1.134305	0.066822	0.004719
H301	H	0.705698	-0.470308	-0.551090
H302	H	1.205698	0.029692	-0.051090
H303	H	0.679899	-0.507424	-0.468748
H304	H	1.179899	-0.007424	0.031252
O305	O	0.896925	-0.442911	-0.782876
O306	O	1.396925	0.057089	-0.282876
C307	C	0.903643	-0.437122	-0.855906
C308	C	1.403643	0.062878	-0.355906
H309	H	0.957484	-0.418886	-0.868122
H310	H	1.457484	0.081114	-0.368122
H311	H	0.897726	-0.485049	-0.883585
H312	H	1.397726	0.014951	-0.383585
H313	H	0.861153	-0.402750	-0.875064
H314	H	1.361153	0.097250	-0.375064
