data_functionalizedCrystal
_audit_creation_method	'MofGen! by Chris Wilmer'
_symmetry_space_group_name_H-M	'P1'
_symmetry_Int_Tables_number	1
_symmetry_cell_setting	triclinic
loop_
_symmetry_equiv_pos_as_xyz
  x,y,z
_cell_length_a	29.839135
_cell_length_b	29.839131
_cell_length_c	16.959447
_cell_angle_alpha	90.041568
_cell_angle_beta	90.018681
_cell_angle_gamma	90.037758
loop_
_atom_site_label
_atom_site_type_symbol
_atom_site_fract_x
_atom_site_fract_y
_atom_site_fract_z
Zn1	Zn	0.686753	-0.178814	0.446939
Zn2	Zn	1.186753	0.321186	0.946939
Zn3	Zn	0.686689	-0.253947	0.314734
Zn4	Zn	1.186689	0.246053	0.814734
Zn5	Zn	0.611632	-0.178836	0.314766
Zn6	Zn	1.111632	0.321164	0.814766
Zn7	Zn	0.611592	-0.253921	0.446863
Zn8	Zn	1.111592	0.246079	0.946863
O9	O	0.649166	-0.216380	0.380826
O10	O	1.149166	0.283620	0.880826
O11	O	0.749612	-0.188783	0.429420
O12	O	1.249612	0.311217	0.929420
O13	O	0.676723	-0.244004	0.204128
O14	O	1.176723	0.255996	0.704128
O15	O	0.621640	-0.115966	0.332344
O16	O	1.121640	0.384034	0.832344
O17	O	0.749565	-0.243983	0.332290
O18	O	1.249565	0.256017	0.832290
O19	O	0.676832	-0.115950	0.429451
O20	O	1.176832	0.384050	0.929451
O21	O	0.621578	-0.188819	0.204151
O22	O	1.121578	0.311181	0.704151
O23	O	0.548759	-0.188794	0.332271
O24	O	1.048759	0.311206	0.832271
O25	O	0.621572	-0.243938	0.557484
O26	O	1.121572	0.256062	1.057484
O27	O	0.548730	-0.243959	0.429322
O28	O	1.048730	0.256041	0.929322
O29	O	0.676793	-0.188757	0.557540
O30	O	1.176793	0.311243	1.057540
O31	O	0.676684	-0.316811	0.332216
O32	O	1.176684	0.183189	0.832216
O33	O	0.621510	-0.316792	0.429291
O34	O	1.121510	0.183208	0.929291
C35	C	0.532444	-0.216376	0.380792
C36	C	1.032444	0.283624	0.880792
C37	C	0.482509	-0.216385	0.380796
C38	C	0.982509	0.283615	0.880796
C39	C	0.172888	-0.187680	0.431476
C40	C	0.672888	0.312320	0.931476
C41	C	-0.014785	-0.187683	0.431498
C42	C	0.485215	0.312317	0.931498
O43	O	-0.039032	-0.163267	0.474550
O44	O	0.460968	0.336733	0.974550
N45	N	-0.038276	-0.216380	0.380855
N46	N	0.461724	0.283620	0.880855
C47	C	-0.014845	-0.245076	0.330198
C48	C	0.485155	0.254924	0.830198
O49	O	-0.039131	-0.269481	0.287117
O50	O	0.460869	0.230519	0.787117
C51	C	0.172828	-0.245070	0.330172
C52	C	0.672828	0.254930	0.830172
C53	C	0.196315	-0.216375	0.380825
C54	C	0.696315	0.283625	0.880825
C55	C	0.196375	-0.158987	0.482124
C56	C	0.696375	0.341013	0.982124
C57	C	0.243291	-0.158988	0.482120
C58	C	0.743291	0.341012	0.982120
C59	C	0.266718	-0.187683	0.431470
C60	C	0.766718	0.312317	0.931470
C61	C	0.243231	-0.216376	0.380822
C62	C	0.743231	0.283624	0.880822
C63	C	0.196258	-0.273763	0.279512
C64	C	0.696258	0.226237	0.779512
C65	C	0.243179	-0.273758	0.279509
C66	C	0.743179	0.226242	0.779509
C67	C	0.266666	-0.245063	0.330162
C68	C	0.766666	0.254937	0.830162
C69	C	0.313574	-0.245072	0.330168
C70	C	0.813574	0.254928	0.830168
N71	N	0.337064	-0.216375	0.380811
N72	N	0.837064	0.283625	0.880811
C73	C	0.313636	-0.187681	0.431462
C74	C	0.813636	0.312319	0.931462
C75	C	-0.113375	-0.245077	0.330216
C76	C	0.386625	0.254923	0.830216
C77	C	-0.160293	-0.245079	0.330224
C78	C	0.339707	0.254921	0.830224
C79	C	-0.160231	-0.187686	0.431523
C80	C	0.339769	0.312314	0.931523
C81	C	-0.113312	-0.187687	0.431519
C82	C	0.386688	0.312313	0.931519
C83	C	-0.089885	-0.216381	0.380860
C84	C	0.410115	0.283619	0.880860
C85	C	0.412162	-0.187686	0.431452
C86	C	0.912162	0.312314	0.931452
C87	C	0.459082	-0.187691	0.431447
C88	C	0.959082	0.312309	0.931447
C89	C	0.459015	-0.245082	0.330145
C90	C	0.959015	0.254918	0.830145
C91	C	0.412100	-0.245079	0.330153
C92	C	0.912100	0.254921	0.830153
C93	C	0.388674	-0.216377	0.380809
C94	C	0.888674	0.283623	0.880809
O95	O	0.337849	-0.269472	0.287132
O96	O	0.837849	0.230528	0.787132
O97	O	0.337930	-0.163272	0.474524
O98	O	0.837930	0.336728	0.974524
C99	C	0.125972	-0.187679	0.431479
C100	C	0.625972	0.312321	0.931479
C101	C	0.102484	-0.216372	0.380831
C102	C	0.602484	0.283628	0.880831
C103	C	0.125912	-0.245067	0.330180
C104	C	0.625912	0.254933	0.830180
C105	C	0.055567	-0.216374	0.380838
C106	C	0.555567	0.283626	0.880838
C107	C	0.032139	-0.187680	0.431489
C108	C	0.532139	0.312320	0.931489
C109	C	0.055629	-0.158983	0.482133
C110	C	0.555629	0.341017	0.982133
C111	C	0.102544	-0.158985	0.482130
C112	C	0.602544	0.341015	0.982130
C113	C	0.102422	-0.273763	0.279537
C114	C	0.602422	0.226237	0.779537
C115	C	0.055507	-0.273760	0.279544
C116	C	0.555507	0.226240	0.779544
C117	C	0.032079	-0.245066	0.330195
C118	C	0.532079	0.254934	0.830195
C119	C	0.649098	-0.333102	0.380759
C120	C	1.149098	0.166898	0.880759
C121	C	0.649110	-0.383037	0.380757
C122	C	1.149110	0.116963	0.880757
C123	C	0.677898	-0.692637	0.431461
C124	C	1.177898	-0.192637	0.931461
C125	C	0.677947	-0.880310	0.431509
C126	C	1.177947	-0.380310	0.931509
O127	O	0.702357	-0.904538	0.474570
O128	O	1.202357	-0.404538	0.974570
N129	N	0.649243	-0.903822	0.380913
N130	N	1.149243	-0.403822	0.880913
C131	C	0.620522	-0.880412	0.330306
C132	C	1.120522	-0.380412	0.830306
O133	O	0.596105	-0.904717	0.287279
O134	O	1.096105	-0.404717	0.787279
C135	C	0.620471	-0.692740	0.330263
C136	C	1.120471	-0.192740	0.830263
C137	C	0.649181	-0.669231	0.380856
C138	C	1.149181	-0.169231	0.880856
C139	C	0.706605	-0.669128	0.482050
C140	C	1.206605	-0.169128	0.982050
C141	C	0.706594	-0.622212	0.482035
C142	C	1.206594	-0.122212	0.982035
C143	C	0.677877	-0.598806	0.431430
C144	C	1.177877	-0.098806	0.931430
C145	C	0.649170	-0.622315	0.380841
C146	C	1.149170	-0.122315	0.880841
C147	C	0.591749	-0.669331	0.279661
C148	C	1.091749	-0.169331	0.779661
C149	C	0.591738	-0.622410	0.279656
C150	C	1.091738	-0.122410	0.779656
C151	C	0.620447	-0.598901	0.330249
C152	C	1.120447	-0.098901	0.830249
C153	C	0.620442	-0.551994	0.330221
C154	C	1.120442	-0.051994	0.830221
N155	N	0.649146	-0.528482	0.380816
N156	N	1.149146	-0.028482	0.880816
C157	C	0.677864	-0.551888	0.431421
C158	C	1.177864	-0.051888	0.931421
C159	C	0.620551	-0.978943	0.330331
C160	C	1.120551	-0.478943	0.830331
C161	C	0.620565	-1.025861	0.330341
C162	C	1.120565	-0.525861	0.830341
C163	C	0.677989	-1.025755	0.431544
C164	C	1.177989	-0.525755	0.931544
C165	C	0.677978	-0.978836	0.431530
C166	C	1.177978	-0.478836	0.931530
C167	C	0.649256	-0.955431	0.380927
C168	C	1.149256	-0.455431	0.880927
C169	C	0.677839	-0.453362	0.431384
C170	C	1.177839	0.046638	0.931384
C171	C	0.677827	-0.406443	0.431362
C172	C	1.177827	0.093557	0.931362
C173	C	0.620401	-0.406552	0.330162
C174	C	1.120401	0.093448	0.830162
C175	C	0.620415	-0.453468	0.330180
C176	C	1.120415	0.046532	0.830180
C177	C	0.649135	-0.476872	0.380798
C178	C	1.149135	0.023128	0.880798
O179	O	0.596041	-0.527737	0.287188
O180	O	1.096041	-0.027737	0.787188
O181	O	0.702270	-0.527576	0.474454
O182	O	1.202270	-0.027576	0.974454
C183	C	0.677909	-0.739552	0.431477
C184	C	1.177909	-0.239552	0.931477
C185	C	0.649202	-0.763062	0.380887
C186	C	1.149202	-0.263062	0.880887
C187	C	0.620485	-0.739655	0.330282
C188	C	1.120485	-0.239655	0.830282
C189	C	0.649216	-0.809979	0.380897
C190	C	1.149216	-0.309979	0.880897
C191	C	0.677933	-0.833386	0.431502
C192	C	1.177933	-0.333386	0.931502
C193	C	0.706637	-0.809874	0.482097
C194	C	1.206637	-0.309874	0.982097
C195	C	0.706627	-0.762958	0.482081
C196	C	1.206627	-0.262958	0.982081
C197	C	0.591781	-0.763167	0.279687
C198	C	1.091781	-0.263167	0.779687
C199	C	0.591794	-0.810083	0.279706
C200	C	1.091794	-0.310083	0.779706
C201	C	0.620511	-0.833489	0.330311
C202	C	1.120511	-0.333489	0.830311
C203	C	0.766345	-0.216383	0.380860
C204	C	1.266345	0.283617	0.880860
C205	C	0.816279	-0.216385	0.380875
C206	C	1.316279	0.283615	0.880875
C207	C	0.649185	-0.216342	0.586994
C208	C	1.149185	0.283658	1.086994
C209	C	0.649193	-0.216327	0.674851
C210	C	1.149193	0.283673	1.174851
C211	C	0.649248	-0.099201	0.380910
C212	C	1.149248	0.400799	0.880910
C213	C	0.649282	-0.049267	0.380946
C214	C	1.149282	0.450733	0.880946
C215	C	0.649174	-0.216384	0.175459
C216	C	1.149174	0.283616	0.675459
C217	C	0.649253	-0.216273	0.087603
C218	C	1.149253	0.283727	0.587603
C219	C	0.620496	-0.245009	1.046300
C220	C	1.120496	0.254991	1.546300
C221	C	0.677998	-0.187549	1.046353
C222	C	1.177998	0.312451	1.546353
C223	C	0.677986	-0.187559	0.963807
C224	C	1.177986	0.312441	1.463807
C225	C	0.649229	-0.216294	0.922504
C226	C	1.149229	0.283706	1.422504
C227	C	0.620484	-0.245021	0.963746
C228	C	1.120484	0.254979	1.463746
C229	C	0.706733	-0.158836	0.922558
C230	C	1.206733	0.341164	1.422558
C231	C	0.706723	-0.158845	0.840007
C232	C	1.206723	0.341155	1.340007
C233	C	0.677963	-0.187579	0.798703
C234	C	1.177963	0.312421	1.298703
C235	C	0.649217	-0.216306	0.839950
C236	C	1.149217	0.283694	1.339950
C237	C	0.620460	-0.245041	0.798647
C238	C	1.120460	0.254959	1.298647
C239	C	0.591711	-0.273767	0.839893
C240	C	1.091711	0.226233	1.339893
C241	C	0.591725	-0.273754	0.922441
C242	C	1.091725	0.226246	1.422441
C243	C	0.677950	-0.187591	0.716154
C244	C	1.177950	0.312409	1.216154
C245	C	0.620448	-0.245053	0.716093
C246	C	1.120448	0.254947	1.216093
H247	H	0.036387	-0.297132	0.238298
H248	H	0.536387	0.202868	0.738298
H249	H	0.729971	-0.603074	0.523234
H250	H	1.229971	-0.103074	1.023234
H251	H	0.730022	-0.828939	0.523298
H252	H	1.230022	-0.328939	1.023298
H253	H	-0.094191	-0.164320	0.472763
H254	H	0.405809	0.335680	0.972763
O255	O	0.708953	-0.156613	0.671664
O256	O	1.208953	0.343387	1.171664
H257	H	0.728951	-0.136629	0.714253
H258	H	1.228951	0.363371	1.214253
O259	O	0.589573	-0.953700	0.275745
O260	O	1.089573	-0.453700	0.775745
H261	H	0.609690	-0.932323	0.235564
H262	H	1.109690	-0.432323	0.735564
H263	H	0.121492	-0.297130	0.238288
H264	H	0.621492	0.202870	0.738288
H265	H	0.729990	-0.688180	0.523264
H266	H	1.229990	-0.188180	1.023264
H267	H	0.597088	-0.268395	1.079886
H268	H	1.097088	0.231605	1.579886
H269	H	0.701413	-0.164156	1.079987
H270	H	1.201413	0.335844	1.579987
H271	H	0.478099	-0.268445	0.288908
H272	H	0.978099	0.231555	0.788908
O273	O	0.484416	-0.156736	0.486073
O274	O	0.984416	0.343264	0.986073
H275	H	0.460240	-0.136779	0.521285
H276	H	0.960240	0.363221	1.021285
O277	O	0.386899	-0.156733	0.486091
O278	O	0.886899	0.343267	0.986091
H279	H	0.411120	-0.136786	0.521310
H280	H	0.911120	0.363214	1.021310
O281	O	0.268622	-0.128030	0.536737
O282	O	0.768622	0.371970	1.036737
H283	H	0.244442	-0.108075	0.571945
H284	H	0.744442	0.391925	1.071945
O285	O	0.708944	-0.953480	0.486094
O286	O	1.208944	-0.453480	0.986094
H287	H	0.728914	-0.977643	0.521281
H288	H	1.228914	-0.477643	1.021281
H289	H	-0.094305	-0.268445	0.288962
H290	H	0.405695	0.231555	0.788962
O291	O	0.708798	-0.381085	0.485922
O292	O	1.208798	0.118915	0.985922
H293	H	0.728767	-0.405246	0.521114
H294	H	1.228767	0.094754	1.021114
H295	H	0.730004	-0.743821	0.523279
H296	H	1.230004	-0.243821	1.023279
H297	H	0.730148	-0.135444	0.956194
H298	H	1.230148	0.364556	1.456194
H299	H	0.701223	-0.472412	0.472607
H300	H	1.201223	0.027588	0.972607
H301	H	0.177305	-0.135618	0.523370
H302	H	0.677305	0.364382	1.023370
O303	O	0.386763	-0.276027	0.275522
O304	O	0.886763	0.223973	0.775522
H305	H	0.395745	-0.311297	0.288949
H306	H	0.895745	0.188703	0.788949
O307	O	0.737727	-0.127863	0.795521
O308	O	1.237727	0.372137	1.295521
H309	H	0.757723	-0.107879	0.838111
H310	H	1.257723	0.392121	1.338111
H311	H	0.568347	-0.603356	0.238449
H312	H	1.068347	-0.103356	0.738449
O313	O	0.589461	-0.478831	0.275600
O314	O	1.089461	0.021169	0.775600
H315	H	0.566596	-0.500212	0.310941
H316	H	1.066596	-0.000212	0.810941
H317	H	0.568416	-0.829220	0.238500
H318	H	1.068416	-0.329220	0.738500
O319	O	0.708959	-1.051004	0.486137
O320	O	1.208959	-0.551004	0.986137
H321	H	0.704139	-1.087577	0.477645
H322	H	1.204139	-0.587577	0.977645
H323	H	-0.179314	-0.164322	0.472765
H324	H	0.320686	0.335678	0.972765
O325	O	0.560690	-0.304757	0.795346
O326	O	1.060690	0.195243	1.295346
H327	H	0.580773	-0.327620	0.757716
H328	H	1.080773	0.172380	1.257716
H329	H	-0.179413	-0.268451	0.288986
H330	H	0.320587	0.231549	0.788986
H331	H	0.568395	-0.744114	0.238479
H332	H	1.068395	-0.244114	0.738479
O333	O	0.589428	-0.276047	0.671551
O334	O	1.089428	0.223953	1.171551
H335	H	0.594247	-0.271228	0.607219
H336	H	1.094247	0.228772	1.107219
H337	H	0.568371	-0.688465	0.238462
H338	H	1.068371	-0.188465	0.738462
H339	H	0.177142	-0.297129	0.238265
H340	H	0.677142	0.202871	0.738265
H341	H	0.036546	-0.135621	0.523377
H342	H	0.536546	0.364379	1.023377
O343	O	0.589427	-0.381304	0.275583
O344	O	1.089427	0.118696	0.775583
H345	H	0.594241	-0.344730	0.284084
H346	H	1.094241	0.155270	0.784084
O347	O	0.560720	-0.304733	0.966932
O348	O	1.060720	0.195267	1.466932
H349	H	0.568394	-0.339995	0.951056
H350	H	1.068394	0.160005	1.451056
O351	O	0.589606	-1.051217	0.275765
O352	O	1.089606	-0.551217	0.775765
H353	H	0.554339	-1.042241	0.289264
H354	H	1.054339	-0.542241	0.789264
O355	O	0.268447	-0.304708	0.224870
O356	O	0.768447	0.195292	0.724870
H357	H	0.244229	-0.324662	0.189657
H358	H	0.744229	0.175338	0.689657
H359	H	0.121664	-0.135618	0.523376
H360	H	0.621664	0.364382	1.023376
