data_functionalizedCrystal
_audit_creation_method	'MofGen! by Chris Wilmer'
_symmetry_space_group_name_H-M	'P1'
_symmetry_Int_Tables_number	1
_symmetry_cell_setting	triclinic
loop_
_symmetry_equiv_pos_as_xyz
  x,y,z
_cell_length_a	12.759401
_cell_length_b	18.050589
_cell_length_c	12.759393
_cell_angle_alpha	89.969581
_cell_angle_beta	90.018496
_cell_angle_gamma	89.965141
loop_
_atom_site_label
_atom_site_type_symbol
_atom_site_fract_x
_atom_site_fract_y
_atom_site_fract_z
Zn1	Zn	1.606109	0.295612	0.593990
Zn2	Zn	1.605942	0.419823	0.418313
Zn3	Zn	1.430411	0.295651	0.418329
Zn4	Zn	1.430339	0.419766	0.593955
O5	O	1.518200	0.357713	0.506147
O6	O	1.753108	0.312097	0.570694
O7	O	1.582618	0.403391	0.271294
O8	O	1.453818	0.191722	0.441652
O9	O	1.752986	0.403354	0.441625
O10	O	1.582903	0.191693	0.570709
O11	O	1.453656	0.312163	0.271306
O12	O	1.283381	0.312108	0.441618
O13	O	1.453695	0.403256	0.740981
O14	O	1.283327	0.403294	0.570650
O15	O	1.582833	0.312041	0.741006
O16	O	1.582548	0.523740	0.441591
O17	O	1.453533	0.523698	0.570634
C18	C	1.245233	0.357699	0.506132
C19	C	1.128456	0.357711	0.506151
C20	C	1.073594	0.405268	0.573227
C21	C	0.963870	0.405277	0.573238
C22	C	0.963880	0.310171	0.439089
C23	C	1.073602	0.310159	0.439084
C24	C	1.128448	0.452821	0.640294
C25	C	1.073586	0.500382	0.707374
C26	C	0.963862	0.500391	0.707385
C27	C	0.909000	0.452839	0.640317
C28	C	1.518043	0.550665	0.506130
C29	C	1.518071	0.633211	0.506158
C30	C	1.447950	0.832666	0.576308
C31	C	1.422328	0.882114	0.480440
C32	C	1.518151	0.784341	0.506173
C33	C	1.543801	0.881974	0.602053
C34	C	1.518225	0.930326	0.506195
C35	C	1.492478	0.832703	0.410254
C36	C	1.613996	0.832558	0.531931
C37	C	1.588410	0.881985	0.435997
C38	C	1.518105	0.700243	0.506161
C39	C	1.518271	1.014423	0.506196
C40	C	1.792234	0.357727	0.506162
C41	C	1.909010	0.357733	0.506168
C42	C	1.518274	0.357638	0.780180
C43	C	1.518305	0.357606	0.896957
C44	C	1.518347	1.164007	0.506187
C45	C	1.518307	1.081462	0.506208
C46	C	1.518188	0.357734	0.233179
C47	C	1.518360	0.357557	0.116403
C48	C	1.585557	0.310106	0.951834
C49	C	1.585582	0.310079	1.061558
C50	C	1.451101	0.405059	1.061518
C51	C	1.451072	0.405081	0.951796
C52	C	1.652791	0.262631	0.896995
C53	C	1.720048	0.215128	0.951872
C54	C	1.720073	0.215101	1.061596
C55	C	1.652841	0.262577	1.116443
H56	H	0.819655	0.452845	0.640340
H57	H	1.652854	0.262543	1.205788
O58	O	0.910429	0.264061	0.373966
C59	C	0.741398	0.221913	0.314552
C60	C	0.801799	0.274179	0.388347
H61	H	0.653561	0.230064	0.326169
H62	H	0.762857	0.234888	0.229783
H63	H	0.763072	0.162048	0.333125
H64	H	0.780157	0.334061	0.369868
H65	H	0.780335	0.261140	0.473095
H66	H	1.396293	0.443749	0.907114
O67	O	1.376898	0.806859	0.646848
C68	C	1.195608	0.802872	0.699396
C69	C	1.275961	0.832134	0.619429
H70	H	1.113986	0.823309	0.677269
H71	H	1.196678	0.739718	0.699257
H72	H	1.216695	0.823969	0.780914
H73	H	1.254929	0.811092	0.537872
H74	H	1.274876	0.895287	0.619660
H75	H	1.396363	0.443712	1.106184
H76	H	1.118272	0.271429	0.384473
H77	H	1.341311	0.903898	0.458674
O78	O	0.910729	0.546656	0.772580
C79	C	0.922306	0.640957	0.905678
C80	C	0.982605	0.588608	0.831883
H81	H	0.980391	0.674878	0.953660
H82	H	0.870919	0.679803	0.857402
H83	H	0.870953	0.606902	0.960658
H84	H	1.034014	0.622603	0.776888
H85	H	1.033925	0.549760	0.880225
H86	H	1.470719	0.811149	0.329156
H87	H	1.774830	0.176416	1.106274
H88	H	1.774780	0.176469	0.907208
H89	H	1.217791	0.452820	0.640290
H90	H	1.647808	0.903503	0.376626
H91	H	1.694994	0.810777	0.553743
O92	O	1.569532	0.907708	0.698851
C93	C	1.524502	0.911866	0.882148
C94	C	1.495266	0.882664	0.772586
H95	H	1.464461	0.891644	0.941789
H96	H	1.605575	0.890611	0.904755
H97	H	1.525079	0.975017	0.880993
H98	H	1.494628	0.819516	0.773658
H99	H	1.414212	0.903977	0.750022
H100	H	1.118261	0.539092	0.761985
H101	H	1.652780	0.262649	0.807652
