data_functionalizedCrystal
_audit_creation_method	'MofGen! by Chris Wilmer'
_symmetry_space_group_name_H-M	'P1'
_symmetry_Int_Tables_number	1
_symmetry_cell_setting	triclinic
loop_
_symmetry_equiv_pos_as_xyz
  x,y,z
_cell_length_a	23.532407
_cell_length_b	27.732048
_cell_length_c	22.010155
_cell_angle_alpha	89.999275
_cell_angle_beta	89.996931
_cell_angle_gamma	82.745667
loop_
_atom_site_label
_atom_site_type_symbol
_atom_site_fract_x
_atom_site_fract_y
_atom_site_fract_z
O1	O	0.755138	0.058672	-0.050456
O2	O	0.589257	0.067162	-0.050475
O3	O	0.677350	-0.007472	-0.050453
O4	O	0.667046	0.133306	-0.050477
O5	O	0.677334	-0.007461	0.050597
O6	O	0.589241	0.067173	0.050576
O7	O	0.755122	0.058683	0.050595
Cu8	Cu	0.672180	0.062929	0.059812
Cu9	Cu	0.672199	0.062916	-0.059692
O10	O	0.667030	0.133317	0.050573
C11	C	0.568033	0.066952	0.000048
C12	C	0.504818	0.066302	0.000042
C13	C	0.105629	0.106391	0.000062
C14	C	0.046230	0.105787	0.000066
O15	O	0.009406	0.142951	0.000082
N16	N	0.023699	0.061418	0.000073
C17	C	0.060570	0.017649	0.000082
O18	O	0.035951	-0.020147	0.000088
C19	C	0.119967	0.018253	0.000082
C20	C	0.142495	0.062626	0.000070
C21	C	0.128158	0.150760	0.000050
C22	C	0.187552	0.151364	0.000045
C23	C	0.224419	0.107599	0.000052
C24	C	0.201890	0.063229	0.000065
C25	C	0.156837	-0.025515	0.000096
C26	C	0.216239	-0.024907	0.000097
C27	C	0.238766	0.019466	0.000084
C28	C	0.298151	0.020068	0.000067
N29	N	0.320683	0.064437	0.000060
C30	C	0.283817	0.108203	0.000053
C31	C	-0.064170	0.016383	0.000082
C32	C	-0.123567	0.015778	0.000077
C33	C	-0.137902	0.103917	0.000062
C34	C	-0.078505	0.104521	0.000063
C35	C	-0.041639	0.060753	0.000075
C36	C	0.408551	0.109467	0.000042
C37	C	0.467951	0.110067	0.000035
C38	C	0.482282	0.021928	0.000052
C39	C	0.422886	0.021328	0.000057
C40	C	0.386021	0.065102	0.000053
O41	O	0.335010	-0.017077	0.000054
O42	O	0.308444	0.145992	0.000054
C43	C	0.677125	-0.025473	0.000074
C44	C	0.676474	-0.079129	0.000079
C45	C	0.724431	-0.417871	0.000053
C46	C	0.722014	-0.619534	0.000044
O47	O	0.765867	-0.650722	0.000023
N48	N	0.669779	-0.638738	0.000039
C49	C	0.618144	-0.607523	0.000032
O50	O	0.573659	-0.628484	0.000021
C51	C	0.620561	-0.405860	0.000036
C52	C	0.672800	-0.386659	0.000048
C53	C	0.776665	-0.398669	0.000064
C54	C	0.777269	-0.348256	0.000069
C55	C	0.725638	-0.317045	0.000064
C56	C	0.673403	-0.336247	0.000053
C57	C	0.568927	-0.374646	0.000025
C58	C	0.569536	-0.324228	0.000024
C59	C	0.621775	-0.305027	0.000036
C60	C	0.622376	-0.254622	0.000053
N61	N	0.674611	-0.235418	0.000059
C62	C	0.726242	-0.266630	0.000064
C63	C	0.616879	-0.713399	0.000031
C64	C	0.616274	-0.763814	0.000031
C65	C	0.720145	-0.775822	0.000042
C66	C	0.720749	-0.725406	0.000046
C67	C	0.669114	-0.694195	0.000036
C68	C	0.727506	-0.160758	0.000076
C69	C	0.728105	-0.110341	0.000084
C70	C	0.624235	-0.098337	0.000069
C71	C	0.623635	-0.148751	0.000065
C72	C	0.675276	-0.179961	0.000066
O73	O	0.578547	-0.223406	0.000068
O74	O	0.770721	-0.245659	0.000061
C75	C	0.723827	-0.468283	0.000047
C76	C	0.671593	-0.487485	0.000037
C77	C	0.619962	-0.456274	0.000031
C78	C	0.670988	-0.537900	0.000037
C79	C	0.722619	-0.569112	0.000042
C80	C	0.774855	-0.549908	0.000047
C81	C	0.775458	-0.499495	0.000053
C82	C	0.567727	-0.475478	0.000026
C83	C	0.567127	-0.525891	0.000021
C84	C	0.618758	-0.557103	0.000026
C85	C	0.776346	0.058894	0.000070
C86	C	0.839562	0.059544	0.000073
C87	C	0.667254	0.151319	0.000045
C88	C	0.667905	0.204975	0.000036
N89	N	0.672171	0.062938	0.143864
N90	N	0.672213	0.062903	-0.143744
C91	C	0.711209	0.029873	0.563653
C92	C	0.711211	0.029869	0.627261
O93	O	0.744380	0.001762	0.660160
N94	N	0.672199	0.062906	0.659071
C95	C	0.633177	0.095945	0.627271
O96	O	0.599994	0.124044	0.660169
C97	C	0.633172	0.095945	0.563665
C98	C	0.672191	0.062910	0.531857
C99	C	0.750224	-0.003160	0.531846
C100	C	0.750222	-0.003156	0.468243
C101	C	0.711205	0.029881	0.436447
C102	C	0.672189	0.062914	0.468254
C103	C	0.594148	0.128981	0.531866
C104	C	0.594147	0.128979	0.468255
C105	C	0.633166	0.095943	0.436447
C106	C	0.633170	0.095955	0.372855
N107	N	0.672182	0.062919	0.341045
C108	C	0.711200	0.029881	0.372840
C109	C	0.633190	0.095940	0.760849
C110	C	0.633197	0.095942	0.824454
C111	C	0.711231	0.029866	0.824440
C112	C	0.711226	0.029867	0.760833
C113	C	0.672202	0.062904	0.729038
C114	C	0.711193	0.029893	0.239269
C115	C	0.711189	0.029901	0.175660
C116	C	0.633153	0.095975	0.175680
C117	C	0.633159	0.095969	0.239284
C118	C	0.672181	0.062924	0.271076
O119	O	0.600017	0.124047	0.339915
O120	O	0.744372	0.001783	0.339935
H121	H	0.098146	0.186402	0.000047
C122	C	0.509959	-0.260566	-0.051932
C123	C	0.512776	-0.289922	0.000013
H124	H	0.474917	-0.239390	-0.051938
H125	H	0.541149	-0.241914	-0.051919
H126	H	0.511892	-0.280488	-0.087167
H127	H	0.510847	-0.270000	0.035249
H128	H	0.481577	-0.308576	0.000007
H129	H	0.404543	-0.014804	0.000058
H130	H	0.562367	0.155881	0.442371
H131	H	0.742965	0.003000	0.149765
C132	C	0.836271	-0.462326	-0.051875
C133	C	0.833426	-0.432970	0.000070
H134	H	0.871318	-0.483497	-0.051869
H135	H	0.805086	-0.480983	-0.051876
H136	H	0.834349	-0.442404	-0.087111
H137	H	0.835344	-0.452892	0.035305
H138	H	0.864619	-0.414311	0.000076
C139	C	0.745414	-0.053965	0.844022
C140	C	0.754118	-0.006453	0.859396
H141	H	0.771893	-0.076384	0.865601
H142	H	0.707457	-0.059046	0.854450
H143	H	0.751000	-0.058687	0.801588
H144	H	0.748528	-0.001729	0.901830
H145	H	0.792085	-0.001371	0.848972
H146	H	0.781997	-0.030065	0.557728
H147	H	0.581099	-0.164385	0.000072
H148	H	0.582198	-0.072916	0.000067
C149	C	0.193594	0.226673	-0.051912
C150	C	0.212302	0.200144	0.000036
H151	H	0.208866	0.256792	-0.051914
H152	H	0.206286	0.208666	-0.087142
H153	H	0.152941	0.232561	-0.051906
H154	H	0.252954	0.194253	0.000027
H155	H	0.199613	0.218155	0.035275
H156	H	0.574829	-0.687991	0.000022
C157	C	0.724121	-0.036003	0.689352
C158	C	0.754094	-0.006479	0.725893
H159	H	0.750582	-0.058449	0.667789
H160	H	0.700556	-0.053255	0.714186
H161	H	0.700905	-0.016326	0.661293
H162	H	0.777307	-0.026155	0.753956
H163	H	0.777669	0.010774	0.701058
H164	H	-0.060167	0.140653	0.000056
C165	C	0.556018	0.161287	0.182068
C166	C	0.590266	0.132289	0.140723
H167	H	0.529542	0.183706	0.160484
H168	H	0.535713	0.141253	0.206878
H169	H	0.579572	0.178575	0.206876
H170	H	0.566712	0.114998	0.115917
H171	H	0.610572	0.152325	0.115903
H172	H	0.601392	0.122874	0.265182
H173	H	0.525681	-0.450070	0.000020
C174	C	0.834433	-0.613570	-0.051901
C175	C	0.831609	-0.584221	0.000049
H176	H	0.869471	-0.634752	-0.051904
H177	H	0.803237	-0.632215	-0.051900
H178	H	0.832516	-0.593644	-0.087133
H179	H	0.833522	-0.604146	0.035281
H180	H	0.862814	-0.565574	0.000054
C181	C	0.556064	0.161253	0.818064
C182	C	0.590309	0.132258	0.859412
H183	H	0.529582	0.183670	0.839645
H184	H	0.579616	0.178539	0.793257
H185	H	0.535761	0.141214	0.793254
H186	H	0.610615	0.152298	0.884220
H187	H	0.566754	0.114971	0.884230
C188	C	0.466321	-0.357692	-0.000005
C189	C	0.511503	-0.395743	0.000006
H190	H	0.430868	-0.370716	-0.000021
H191	H	0.468711	-0.338282	0.035234
H192	H	0.468737	-0.338277	-0.035243
H193	H	0.509090	-0.415156	0.035247
H194	H	0.509112	-0.415161	-0.035236
H195	H	0.817996	-0.483866	0.000062
C196	C	0.620242	0.161790	0.689327
C197	C	0.590299	0.132264	0.725902
H198	H	0.593763	0.184212	0.667753
H199	H	0.643794	0.179070	0.714139
H200	H	0.643470	0.142112	0.661277
H201	H	0.567075	0.151942	0.753955
H202	H	0.566738	0.114983	0.701088
H203	H	0.486290	0.146202	0.000024
H204	H	-0.167930	0.139553	0.000059
H205	H	-0.034156	-0.019261	0.000086
H206	H	0.770646	-0.094710	0.000095
H207	H	0.769556	-0.186164	0.000075
H208	H	0.378542	0.145112	0.000041
C209	C	0.781689	-0.675682	0.051999
C210	C	0.778171	-0.704303	0.000054
H211	H	0.817142	-0.662660	0.052003
H212	H	0.751033	-0.649877	0.051990
H213	H	0.779285	-0.695103	0.087234
H214	H	0.780571	-0.684882	-0.035182
H215	H	0.808835	-0.730112	0.000058
H216	H	0.762185	-0.801243	0.000047
H217	H	-0.141903	-0.020355	0.000078
C218	C	0.176999	-0.112572	0.000133
C219	C	0.132086	-0.074292	0.000119
H220	H	0.161718	-0.142686	0.000153
H221	H	0.199865	-0.110509	-0.035107
H222	H	0.199868	-0.110486	0.035370
H223	H	0.109219	-0.076377	-0.035121
H224	H	0.109210	-0.076356	0.035362
C225	C	0.291355	-0.075371	-0.051840
C226	C	0.256763	-0.073019	0.000107
H227	H	0.316374	-0.105072	-0.051831
H228	H	0.267885	-0.073781	-0.087070
H229	H	0.313273	-0.048858	-0.051841
H230	H	0.234842	-0.099530	0.000106
H231	H	0.280236	-0.074614	0.035347
H232	H	0.562376	0.155881	0.557754
H233	H	0.512309	-0.013704	0.000056
H234	H	0.781993	-0.030058	0.442349
C235	C	0.879876	-0.365205	0.000074
C236	C	0.834692	-0.327155	0.000074
H237	H	0.915328	-0.352179	0.000072
H238	H	0.877473	-0.384616	0.035310
H239	H	0.877475	-0.384618	-0.035167
H240	H	0.837091	-0.307743	0.035317
H241	H	0.837096	-0.307735	-0.035166
H242	H	0.573737	-0.779443	0.000032
C243	C	0.464514	-0.508945	-0.000001
C244	C	0.509701	-0.546993	0.000007
H245	H	0.429064	-0.521973	-0.000018
H246	H	0.466903	-0.489537	0.035240
H247	H	0.466928	-0.489528	-0.035237
H248	H	0.507290	-0.566409	0.035245
H249	H	0.507311	-0.566410	-0.035238
H250	H	0.742967	0.002984	0.265148
