data_functionalizedCrystal
_audit_creation_method	'MofGen! by Chris Wilmer'
_symmetry_space_group_name_H-M	'P1'
_symmetry_Int_Tables_number	1
_symmetry_cell_setting	triclinic
loop_
_symmetry_equiv_pos_as_xyz
  x,y,z
_cell_length_a	6.817900
_cell_length_b	11.168129
_cell_length_c	14.125286
_cell_angle_alpha	94.674868
_cell_angle_beta	100.396688
_cell_angle_gamma	108.508637
loop_
_atom_site_label
_atom_site_type_symbol
_atom_site_fract_x
_atom_site_fract_y
_atom_site_fract_z
V1	V	-4.016801	-0.173730	-0.299999
O2	O	-3.978159	0.009352	-0.294279
O3	O	-3.993723	-0.345442	-0.297955
O4	O	-3.952496	-0.170617	-0.430835
O5	O	-4.019671	-0.166683	-0.160480
V6	V	-4.499208	-0.151883	-0.283310
O7	O	-4.280506	-0.221652	-0.336607
O8	O	-4.685700	-0.103961	-0.246702
O9	O	-4.299079	0.019829	-0.285354
O10	O	-4.655247	-0.334964	-0.289030
O11	O	-4.613734	-0.158930	-0.422829
O12	O	-4.340306	-0.154996	-0.152474
C13	C	-3.845399	-0.387315	-0.293225
C14	C	-3.907711	-0.527689	-0.292426
C15	C	-4.030723	-0.752212	-0.374979
C16	C	-3.966321	-0.607129	-0.375806
C17	C	-3.792808	-0.164307	-0.462725
C18	C	-3.821683	-0.162899	-0.569684
C19	C	-4.060830	-0.165458	-0.817806
C20	C	-3.874560	-0.160153	-0.765491
C21	C	-3.845140	-0.161681	-0.656534
C22	C	-4.090257	-0.163930	-0.926773
C23	C	-4.110747	0.061696	-0.290082
C24	C	-4.027672	0.202069	-0.290886
C25	C	-4.163337	-0.161309	-0.120579
C26	C	-4.113700	-0.162712	-0.013619
H27	H	-3.977390	-0.729664	-0.219505
H28	H	-4.198194	-0.171148	-0.780767
O29	O	-3.904358	-0.579829	-0.197047
H30	H	-4.065951	-0.643881	-0.196130
O31	O	-3.692583	-0.152635	-0.814547
H32	H	-3.744612	-0.152616	-0.893671
H33	H	-4.081026	-0.820480	-0.446361
H34	H	-3.968816	-0.567746	-0.447802
