data_functionalizedCrystal
_audit_creation_method	'MofGen! by Chris Wilmer'
_symmetry_space_group_name_H-M	'P1'
_symmetry_Int_Tables_number	1
_symmetry_cell_setting	triclinic
loop_
_symmetry_equiv_pos_as_xyz
  x,y,z
_cell_length_a	19.288867
_cell_length_b	17.699083
_cell_length_c	17.766277
_cell_angle_alpha	89.992740
_cell_angle_beta	89.992126
_cell_angle_gamma	83.210042
loop_
_atom_site_label
_atom_site_type_symbol
_atom_site_fract_x
_atom_site_fract_y
_atom_site_fract_z
O1	O	0.921464	0.094425	-0.062569
O2	O	1.421464	0.594425	0.437431
O3	O	0.719219	0.107160	-0.062577
O4	O	1.219219	0.607160	0.437423
O5	O	0.826055	-0.009405	-0.062566
O6	O	1.326055	0.490595	0.437434
O7	O	0.814627	0.210989	-0.062580
O8	O	1.314627	0.710989	0.437420
O9	O	0.826036	-0.009411	0.062622
O10	O	1.326036	0.490589	0.562622
O11	O	0.719200	0.107154	0.062612
O12	O	1.219200	0.607154	0.562612
O13	O	0.921445	0.094419	0.062619
O14	O	1.421445	0.594419	0.562619
Cu15	Cu	0.820321	0.100786	0.074046
Cu16	Cu	1.320321	0.600786	0.574046
Cu17	Cu	0.820343	0.100793	-0.074004
Cu18	Cu	1.320343	0.600793	0.425996
O19	O	0.814609	0.210983	0.062609
O20	O	1.314609	0.710983	0.562609
C21	C	0.693332	0.106747	0.000017
C22	C	1.193332	0.606747	0.500017
C23	C	0.616227	0.105516	0.000014
C24	C	1.116227	0.605516	0.500014
C25	C	0.060662	0.096653	-0.068217
C26	C	0.560662	0.596653	0.431783
C27	C	0.133111	0.097805	-0.068220
C28	C	0.633111	0.597805	0.431780
C29	C	0.169330	0.098382	0.000020
C30	C	0.669330	0.598382	0.500020
C31	C	0.133096	0.097786	0.068268
C32	C	0.633096	0.597786	0.568268
C33	C	0.060650	0.096627	0.068269
C34	C	0.560650	0.596627	0.568269
C35	C	0.278704	0.144545	0.052298
C36	C	0.778704	0.644545	0.552298
C37	C	0.351148	0.145709	0.052294
C38	C	0.851148	0.645709	0.552294
C39	C	0.392779	0.101955	0.000020
C40	C	0.892779	0.601955	0.500020
C41	C	0.361956	0.057045	-0.052263
C42	C	0.861956	0.557045	0.447737
C43	C	0.289509	0.055886	-0.052262
C44	C	0.789509	0.555886	0.447738
C45	C	0.247886	0.099638	0.000027
C46	C	0.747886	0.599638	0.500027
C47	C	0.507562	0.103794	-0.068227
C48	C	1.007562	0.603794	0.431773
C49	C	0.580013	0.104941	-0.068227
C50	C	1.080013	0.604941	0.431773
C51	C	0.579996	0.104930	0.068263
C52	C	1.079996	0.604930	0.568263
C53	C	0.507548	0.103775	0.068261
C54	C	1.007548	0.603775	0.568261
C55	C	0.471335	0.103210	0.000014
C56	C	0.971335	0.603210	0.500014
C57	C	0.825636	-0.037604	0.000028
C58	C	1.325636	0.462396	0.500028
C59	C	0.824408	-0.121621	0.000028
C60	C	1.324408	0.378379	0.500028
C61	C	0.887119	-0.170329	0.000032
C62	C	1.387119	0.329671	0.500032
C63	C	0.885960	-0.249271	0.000025
C64	C	1.385960	0.250729	0.500025
C65	C	0.822090	-0.279503	0.000020
C66	C	1.322090	0.220497	0.500020
C67	C	0.759375	-0.230788	0.000015
C68	C	1.259375	0.269212	0.500015
C69	C	0.760534	-0.151848	0.000016
C70	C	1.260534	0.348152	0.500016
C71	C	0.754699	-0.549144	0.000008
C72	C	1.254699	-0.049144	0.500008
C73	C	0.753544	-0.628091	0.000009
C74	C	1.253544	-0.128091	0.500009
C75	C	0.880125	-0.646568	0.000017
C76	C	1.380125	-0.146568	0.500017
C77	C	0.881284	-0.567628	0.000019
C78	C	1.381284	-0.067628	0.500019
C79	C	0.818569	-0.518920	0.000009
C80	C	1.318569	-0.018920	0.500009
C81	C	0.819826	-0.433322	0.000015
C82	C	1.319826	0.066678	0.500015
C83	C	0.820833	-0.365099	0.000020
C84	C	1.320833	0.134901	0.500020
C85	C	0.947331	0.094832	0.000024
C86	C	1.447331	0.594832	0.500024
C87	C	1.024436	0.096062	0.000022
C88	C	1.524436	0.596062	0.500022
C89	C	0.815027	0.239183	0.000013
C90	C	1.315027	0.739183	0.500013
C91	C	0.816256	0.323199	0.000007
C92	C	1.316256	0.823199	0.500007
N93	N	0.820310	0.100780	0.178176
N94	N	1.320310	0.600780	0.678176
N95	N	0.820359	0.100792	-0.178134
N96	N	1.320359	0.600792	0.321866
C97	C	0.867633	0.049191	0.217568
C98	C	1.367633	0.549191	0.717568
C99	C	0.867637	0.049187	0.296370
C100	C	1.367637	0.549187	0.796370
C101	C	0.820325	0.100786	0.335777
C102	C	1.320325	0.600786	0.835777
C103	C	0.772993	0.152380	0.296376
C104	C	1.272993	0.652380	0.796376
C105	C	0.772986	0.152377	0.217576
C106	C	1.272986	0.652377	0.717576
C107	C	0.811108	0.169748	0.460611
C108	C	1.311108	0.669748	0.960611
C109	C	0.811120	0.169752	0.539409
C110	C	1.311120	0.669752	1.039409
C111	C	0.820343	0.100795	0.578823
C112	C	1.320343	0.600795	1.078823
C113	C	0.829570	0.031832	0.539429
C114	C	1.329570	0.531832	1.039429
C115	C	0.829562	0.031829	0.460629
C116	C	1.329562	0.531829	0.960629
C117	C	0.820327	0.100795	0.421223
C118	C	1.320327	0.600795	0.921223
C119	C	0.867673	0.049198	0.703661
C120	C	1.367673	0.549198	1.203661
C121	C	0.867672	0.049193	0.782464
C122	C	1.367672	0.549193	1.282464
C123	C	0.773032	0.152392	0.782469
C124	C	1.273032	0.652392	1.282469
C125	C	0.773030	0.152390	0.703667
C126	C	1.273030	0.652390	1.203667
C127	C	0.820354	0.100794	0.664268
C128	C	1.320354	0.600794	1.164268
H129	H	0.244814	0.180172	0.094874
H130	H	0.744814	0.680172	0.594874
H131	H	0.937026	-0.288927	0.000029
H132	H	1.437026	0.211073	0.500029
H133	H	0.709468	-0.112189	0.000013
H134	H	1.209468	0.387811	0.500013
F135	F	0.949263	-0.535458	0.000023
F136	F	1.449263	-0.035458	0.500023
H137	H	0.031155	0.096149	0.123839
H138	H	0.531155	0.596149	0.623839
F139	F	0.406256	0.010477	-0.107904
F140	F	0.906256	0.510477	0.392096
F141	F	0.469020	0.103189	-0.140860
F142	F	0.969020	0.603189	0.359140
H143	H	0.376237	0.182296	0.094850
H144	H	0.876237	0.682296	0.594850
H145	H	0.703632	-0.509495	0.000001
H146	H	1.203632	-0.009495	0.500001
H147	H	0.939129	-0.145722	0.000040
H148	H	1.439129	0.354278	0.500040
F149	F	0.618540	0.105533	0.140890
F150	F	1.118540	0.605533	0.640890
H151	H	0.162591	0.098254	0.123830
H152	H	0.662591	0.598254	0.623830
F153	F	0.946873	-0.698413	0.000025
F154	F	1.446873	-0.198413	0.500025
F155	F	0.685562	-0.660263	0.000003
F156	F	1.185562	-0.160263	0.500003
F157	F	0.839375	-0.041565	0.418705
F158	F	1.339375	0.458435	0.918705
H159	H	0.837080	-0.024319	0.571518
H160	H	1.337080	0.475681	1.071518
H161	H	0.803585	0.225904	0.428526
H162	H	1.303585	0.725904	0.928526
H163	H	0.707370	-0.255408	0.000006
H164	H	1.207370	0.244592	0.500006
F165	F	0.918036	-0.005719	0.661729
F166	F	1.418036	0.494281	1.161729
F167	F	0.918007	-0.005725	0.338300
F168	F	1.418007	0.494275	0.838300
H169	H	0.906165	0.007176	0.185492
H170	H	1.406165	0.507176	0.685492
F171	F	0.722617	0.207288	0.175650
F172	F	1.222617	0.707288	0.675650
F173	F	0.022126	0.096048	-0.140852
F174	F	0.522126	0.596048	0.359148
H175	H	0.906206	0.007179	0.814537
H176	H	1.406206	0.507179	1.314537
H177	H	0.264416	0.019318	-0.094831
H178	H	0.764416	0.519318	0.405169
F179	F	0.722675	0.207303	0.824405
F180	F	1.222675	0.707303	1.324405
H181	H	0.734498	0.194403	0.671592
H182	H	1.234498	0.694403	1.171592
H183	H	0.162610	0.098291	-0.123790
H184	H	0.662610	0.598291	0.376210
H185	H	0.803612	0.225906	0.571478
H186	H	1.303612	0.725906	1.071478
H187	H	0.609507	0.105416	-0.123797
H188	H	1.109507	0.605416	0.376203
F189	F	0.468991	0.103156	0.140892
F190	F	0.968991	0.603156	0.640892
H191	H	0.734470	0.194392	0.328465
H192	H	1.234470	0.694392	0.828465
