data_functionalizedCrystal
_audit_creation_method	'MofGen! by Chris Wilmer'
_symmetry_space_group_name_H-M	'P1'
_symmetry_Int_Tables_number	1
_symmetry_cell_setting	triclinic
loop_
_symmetry_equiv_pos_as_xyz
  x,y,z
_cell_length_a	14.519709
_cell_length_b	12.996460
_cell_length_c	10.723023
_cell_angle_alpha	90.004801
_cell_angle_beta	95.926154
_cell_angle_gamma	90.000558
loop_
_atom_site_label
_atom_site_type_symbol
_atom_site_fract_x
_atom_site_fract_y
_atom_site_fract_z
O1	O	-1.224704	0.085417	0.163577
O2	O	-0.974704	0.335417	0.413577
O3	O	-0.724704	0.585417	0.663577
O4	O	-0.474704	0.835417	0.913577
O5	O	-0.956325	0.085451	0.182840
O6	O	-0.706325	0.335451	0.432840
O7	O	-0.456325	0.585451	0.682840
O8	O	-0.206325	0.835451	0.932840
O9	O	-1.096706	0.085430	-0.008426
O10	O	-0.846706	0.335430	0.241574
O11	O	-0.596706	0.585430	0.491574
O12	O	-0.346706	0.835430	0.741574
O13	O	-1.084324	0.085438	0.354842
O14	O	-0.834324	0.335438	0.604842
O15	O	-0.584324	0.585438	0.854842
O16	O	-0.334324	0.835438	1.104842
O17	O	-1.096691	-0.085704	-0.008437
O18	O	-0.846691	0.164296	0.241563
O19	O	-0.596691	0.414296	0.491563
O20	O	-0.346691	0.664296	0.741563
O21	O	-0.956311	-0.085683	0.182829
O22	O	-0.706311	0.164317	0.432829
O23	O	-0.456311	0.414317	0.682829
O24	O	-0.206311	0.664317	0.932829
O25	O	-1.224689	-0.085717	0.163566
O26	O	-0.974689	0.164283	0.413566
O27	O	-0.724689	0.414283	0.663566
O28	O	-0.474689	0.664283	0.913566
Cu29	Cu	-1.090498	-0.101326	0.173197
Cu30	Cu	-0.840498	0.148674	0.423197
Cu31	Cu	-0.590498	0.398674	0.673197
Cu32	Cu	-0.340498	0.648674	0.923197
Cu33	Cu	-1.090516	0.101060	0.173209
Cu34	Cu	-0.840516	0.351060	0.423209
Cu35	Cu	-0.590516	0.601060	0.673209
Cu36	Cu	-0.340516	0.851060	0.923209
O37	O	-1.084309	-0.085696	0.354832
O38	O	-0.834309	0.164304	0.604832
O39	O	-0.584309	0.414304	0.854832
O40	O	-0.334309	0.664304	1.104832
C41	C	-0.921954	-0.000112	0.181937
C42	C	-0.671954	0.249888	0.431937
C43	C	-0.421954	0.499888	0.681937
C44	C	-0.171954	0.749888	0.931937
C45	C	-0.819559	-0.000099	0.179247
C46	C	-0.569559	0.249901	0.429247
C47	C	-0.319559	0.499901	0.679247
C48	C	-0.069559	0.749901	0.929247
N49	N	-1.090493	-0.243673	0.173187
N50	N	-0.840493	0.006327	0.423187
N51	N	-0.590493	0.256327	0.673187
N52	N	-0.340493	0.506327	0.923187
C53	C	-1.090515	-0.663487	0.173210
C54	C	-0.840515	-0.413487	0.423210
C55	C	-0.590515	-0.163487	0.673210
C56	C	-0.340515	0.086513	0.923210
C57	C	-1.090506	-0.546682	0.173208
C58	C	-0.840506	-0.296682	0.423208
C59	C	-0.590506	-0.046682	0.673208
C60	C	-0.340506	0.203318	0.923208
C61	C	-1.090504	-0.453584	0.173200
C62	C	-0.840504	-0.203584	0.423200
C63	C	-0.590504	0.046416	0.673200
C64	C	-0.340504	0.296416	0.923200
C65	C	-1.090495	-0.336771	0.173195
C66	C	-0.840495	-0.086771	0.423195
C67	C	-0.590495	0.163229	0.673195
C68	C	-0.340495	0.413229	0.923195
C69	C	-0.444612	-0.000142	0.169343
C70	C	-0.194612	0.249858	0.419343
C71	C	0.055388	0.499858	0.669343
C72	C	0.305388	0.749858	0.919343
C73	C	-0.548934	-0.000129	0.172093
C74	C	-0.298934	0.249871	0.422093
C75	C	-0.048934	0.499871	0.672093
C76	C	0.201066	0.749871	0.922093
C77	C	-0.632082	-0.000119	0.174294
C78	C	-0.382082	0.249881	0.424294
C79	C	-0.132082	0.499881	0.674294
C80	C	0.117918	0.749881	0.924294
C81	C	-0.736411	-0.000109	0.177045
C82	C	-0.486411	0.249891	0.427045
C83	C	-0.236411	0.499891	0.677045
C84	C	0.013589	0.749891	0.927045
C85	C	-0.259061	-0.000149	0.164469
C86	C	-0.009061	0.249851	0.414469
C87	C	0.240939	0.499851	0.664469
C88	C	0.490939	0.749851	0.914469
C89	C	-0.361456	-0.000148	0.167159
C90	C	-0.111456	0.249852	0.417159
C91	C	0.138544	0.499852	0.667159
C92	C	0.388544	0.749852	0.917159
C93	C	-1.095797	-0.000136	-0.054922
C94	C	-0.845797	0.249864	0.195078
C95	C	-0.595797	0.499864	0.445078
C96	C	-0.345797	0.749864	0.695078
C97	C	-1.093102	-0.000131	-0.193452
C98	C	-0.843102	0.249869	0.056548
C99	C	-0.593102	0.499869	0.306548
C100	C	-0.343102	0.749869	0.556548
N101	N	-1.090529	0.243407	0.173209
N102	N	-0.840529	0.493407	0.423209
N103	N	-0.590529	0.743407	0.673209
N104	N	-0.340529	0.993407	0.923209
C105	C	-1.089122	0.088525	-0.398370
C106	C	-0.839122	0.338525	-0.148370
C107	C	-0.589122	0.588525	0.101630
C108	C	-0.339122	0.838525	0.351630
C109	C	-1.091908	0.088523	-0.255193
C110	C	-0.841908	0.338523	-0.005193
C111	C	-0.591908	0.588523	0.244807
C112	C	-0.341908	0.838523	0.494807
C113	C	-1.085217	-0.000128	0.401328
C114	C	-0.835217	0.249872	0.651328
C115	C	-0.585217	0.499872	0.901328
C116	C	-0.335217	0.749872	1.151328
C117	C	-1.087913	-0.000125	0.539857
C118	C	-0.837913	0.249875	0.789857
C119	C	-0.587913	0.499875	1.039857
C120	C	-0.337913	0.749875	1.289857
H121	H	-1.088100	0.164424	-0.451484
H122	H	-0.838100	0.414424	-0.201484
H123	H	-0.588100	0.664424	0.048516
H124	H	-0.338100	0.914424	0.298516
C125	C	-1.093317	0.191057	-0.183440
C126	C	-0.843317	0.441057	0.066560
C127	C	-0.593317	0.691057	0.316560
C128	C	-0.343317	0.941057	0.566560
H129	H	-1.095013	0.177604	-0.096624
H130	H	-0.845013	0.427604	0.153376
H131	H	-0.595013	0.677604	0.403376
H132	H	-0.345013	0.927604	0.653376
H133	H	-1.039224	0.229423	-0.195312
H134	H	-0.789224	0.479423	0.054688
H135	H	-0.539224	0.729423	0.304688
H136	H	-0.289224	0.979423	0.554688
H137	H	-1.146602	0.229397	-0.214105
H138	H	-0.896602	0.479397	0.035895
H139	H	-0.646602	0.729397	0.285895
H140	H	-0.396602	0.979397	0.535895
C141	C	-1.091694	-0.102672	-0.265191
C142	C	-0.841694	0.147328	-0.015191
C143	C	-0.591694	0.397328	0.234809
C144	C	-0.341694	0.647328	0.484809
H145	H	-1.092798	-0.158292	-0.207880
H146	H	-0.842798	0.091708	0.042120
H147	H	-0.592798	0.341708	0.292120
H148	H	-0.342798	0.591708	0.542120
H149	H	-1.144389	-0.106505	-0.325373
H150	H	-0.894389	0.143495	-0.075373
H151	H	-0.644389	0.393495	0.174627
H152	H	-0.394389	0.643495	0.424627
H153	H	-1.037011	-0.106486	-0.306571
H154	H	-0.787011	0.143514	-0.056571
H155	H	-0.537011	0.393514	0.193429
H156	H	-0.287011	0.643514	0.443429
H157	H	-1.088944	-0.076024	-0.407031
H158	H	-0.838944	0.173976	-0.157031
H159	H	-0.588944	0.423976	0.092969
H160	H	-0.338944	0.673976	0.342969
