data_functionalizedCrystal
_audit_creation_method	'MofGen! by Chris Wilmer'
_symmetry_space_group_name_H-M	'P1'
_symmetry_Int_Tables_number	1
_symmetry_cell_setting	triclinic
loop_
_symmetry_equiv_pos_as_xyz
  x,y,z
_cell_length_a	10.686220
_cell_length_b	19.120786
_cell_length_c	10.685880
_cell_angle_alpha	92.083787
_cell_angle_beta	89.641569
_cell_angle_gamma	97.023231
loop_
_atom_site_label
_atom_site_type_symbol
_atom_site_fract_x
_atom_site_fract_y
_atom_site_fract_z
Zn1	Zn	1.954184	-0.219370	-0.546902
Zn2	Zn	1.928964	-0.328648	-0.329442
Zn3	Zn	1.728195	-0.220802	-0.353123
Zn4	Zn	1.733910	-0.346511	-0.553954
O5	O	1.836313	-0.278833	-0.445855
O6	O	2.127046	-0.225791	-0.505193
O7	O	1.889386	-0.307466	-0.157527
O8	O	1.766336	-0.122269	-0.385787
O9	O	2.108517	-0.306077	-0.345426
O10	O	1.932369	-0.121217	-0.528155
O11	O	1.741882	-0.228232	-0.174926
O12	O	1.552746	-0.245552	-0.392626
O13	O	1.776076	-0.336521	-0.728075
O14	O	1.556944	-0.337910	-0.540176
O15	O	1.937910	-0.243111	-0.722893
O16	O	1.894927	-0.429361	-0.352265
O17	O	1.751621	-0.442484	-0.517213
C18	C	1.509156	-0.293825	-0.469736
C19	C	1.369198	-0.300258	-0.479981
C20	C	1.821194	-0.461421	-0.432959
C21	C	1.814844	-0.539530	-0.427476
C22	C	1.898250	-0.575622	-0.499093
C23	C	1.892278	-0.649014	-0.493943
C24	C	1.802906	-0.686311	-0.417169
C25	C	1.719491	-0.650214	-0.345550
C26	C	1.725458	-0.576824	-0.350707
C27	C	1.780564	-0.907931	-0.397892
C28	C	1.774606	-0.981326	-0.392737
C29	C	1.947392	-0.980121	-0.541133
C30	C	1.953356	-0.906730	-0.546277
C31	C	1.869937	-0.870639	-0.474663
C32	C	1.796803	-0.761329	-0.411900
C33	C	1.876035	-0.795623	-0.479939
C34	C	2.164748	-0.263782	-0.421881
C35	C	2.304707	-0.257368	-0.411665
C36	C	1.860444	-0.291649	-0.772143
C37	C	1.870727	-0.297111	-0.911188
C38	C	1.851528	-0.095531	-0.458826
C39	C	1.858012	-0.017418	-0.464354
C40	C	1.812354	-0.266012	-0.120835
C41	C	1.802331	-0.260341	0.018213
H42	H	1.960205	-0.678396	-0.552251
C43	C	1.676298	-1.022354	-0.308280
H44	H	1.684708	-1.071230	-0.315455
H45	H	1.593998	-1.014969	-0.333534
H46	H	1.689566	-1.006182	-0.223734
H47	H	1.971031	-0.545259	-0.561604
H48	H	1.937159	-0.332772	-0.957123
H49	H	1.735897	-0.224685	-0.935858
H50	H	1.356567	-0.215728	-0.345338
H51	H	1.317331	-0.341904	-0.546305
C52	C	2.051659	-0.865705	-0.630732
H53	H	2.043273	-0.816827	-0.623537
H54	H	2.038403	-0.881873	-0.715274
H55	H	2.133959	-0.873097	-0.605464
C56	C	2.039134	-1.019823	-0.619913
H57	H	2.022777	-1.068874	-0.605857
H58	H	2.123387	-1.003161	-0.596351
H59	H	2.027816	-1.011936	-0.706149
H60	H	1.724039	-0.791704	-0.349387
H61	H	1.712643	-0.878552	-0.339578
C62	C	1.621178	-0.691235	-0.261102
H63	H	1.572351	-0.659228	-0.219198
H64	H	1.663032	-0.715502	-0.201103
H65	H	1.567479	-0.724277	-0.310916
H66	H	1.657538	-0.547438	-0.292391
H67	H	1.948798	-0.765254	-0.542454
