data_functionalizedCrystal
_audit_creation_method	'MofGen! by Chris Wilmer'
_symmetry_space_group_name_H-M	'P1'
_symmetry_Int_Tables_number	1
_symmetry_cell_setting	triclinic
loop_
_symmetry_equiv_pos_as_xyz
  x,y,z
_cell_length_a	27.731993
_cell_length_b	10.654554
_cell_length_c	9.730223
_cell_angle_alpha	90.001705
_cell_angle_beta	89.988642
_cell_angle_gamma	96.446383
loop_
_atom_site_label
_atom_site_type_symbol
_atom_site_fract_x
_atom_site_fract_y
_atom_site_fract_z
O1	O	-0.641871	0.149084	-0.113912
O2	O	-0.501216	0.171874	-0.113994
O3	O	-0.574776	-0.022397	-0.113952
O4	O	-0.568311	0.343356	-0.113953
O5	O	-0.574775	-0.022392	0.114628
O6	O	-0.501215	0.171879	0.114586
O7	O	-0.641870	0.149089	0.114668
Zn8	Zn	-0.571543	0.160485	0.150919
Zn9	Zn	-0.571544	0.160479	-0.150245
O10	O	-0.568310	0.343361	0.114627
C11	C	-0.483205	0.171409	0.000285
C12	C	-0.429540	0.170000	0.000253
C13	C	-0.574301	-0.069172	0.000334
C14	C	-0.572879	-0.208555	0.000323
C15	C	-0.659881	0.149554	0.000386
C16	C	-0.713546	0.150963	0.000409
C17	C	-0.046317	0.159787	-0.124279
C18	C	-0.248008	0.165157	-0.124316
O19	O	-0.274085	0.165798	-0.230285
N20	N	-0.273232	0.165831	0.000280
C21	C	-0.248030	0.165155	0.124894
O22	O	-0.274113	0.165839	0.230870
C23	C	-0.046341	0.159776	0.124930
C24	C	-0.021119	0.159115	0.000326
C25	C	-0.021095	0.159124	-0.248873
C26	C	0.029325	0.157788	-0.248862
C27	C	0.054523	0.157116	-0.124258
C28	C	0.029301	0.157779	0.000336
C29	C	-0.021141	0.159091	0.249543
C30	C	0.029285	0.157743	0.249541
C31	C	0.054507	0.157081	0.124937
C32	C	0.104919	0.155771	0.124952
N33	N	0.130143	0.155097	0.000356
C34	C	0.104945	0.155769	-0.124249
C35	C	-0.353920	0.167981	0.124867
C36	C	-0.404342	0.169328	0.124858
C37	C	-0.404316	0.169327	-0.124353
C38	C	-0.353893	0.167989	-0.124343
C39	C	-0.328696	0.167307	0.000271
C40	C	0.210831	0.152966	-0.124217
C41	C	0.261256	0.151635	-0.124196
C42	C	0.261225	0.151629	0.125014
C43	C	0.210805	0.152966	0.124993
C44	C	0.185609	0.153630	0.000366
O45	O	0.131027	0.155115	0.230865
O46	O	0.131036	0.155057	-0.230209
C47	C	-0.096737	0.161122	-0.124289
C48	C	-0.121959	0.161785	0.000305
C49	C	-0.096761	0.161113	0.124909
C50	C	-0.172381	0.163132	0.000296
C51	C	-0.197579	0.163805	-0.124309
C52	C	-0.172355	0.163130	-0.248905
C53	C	-0.121935	0.161795	-0.248894
C54	C	-0.121985	0.161788	0.249506
C55	C	-0.172405	0.163124	0.249485
C56	C	-0.197603	0.163797	0.124880
C57	C	-0.526894	-0.389160	0.000314
C58	C	-0.528230	-0.258195	0.000301
C59	C	-0.616195	-0.289887	0.000345
C60	C	-0.614859	-0.420849	0.000348
C61	C	-0.482242	-0.438793	0.000305
C62	C	-0.438926	-0.357470	0.000281
C63	C	-0.440261	-0.226505	0.000268
C64	C	-0.484913	-0.176864	0.000279
C65	C	-0.568786	0.390136	0.000337
C66	C	-0.570207	0.529518	0.000339
N67	N	-0.571545	0.160488	0.356456
N68	N	-0.571545	0.160465	-0.355781
C69	C	-0.604126	0.074494	0.428400
C70	C	-0.604125	0.074478	0.572283
C71	C	-0.538960	0.246464	0.572264
C72	C	-0.538960	0.246472	0.428384
C73	C	-0.636712	-0.011490	0.356472
C74	C	-0.669296	-0.097491	0.428416
C75	C	-0.669295	-0.097506	0.572299
C76	C	-0.636710	-0.011521	0.644238
H77	H	0.281789	0.151100	-0.225668
H78	H	-0.695823	-0.167505	0.369837
H79	H	-0.041668	0.159626	0.351009
H80	H	-0.402572	-0.397898	0.000261
H81	H	-0.192880	0.163685	-0.350362
H82	H	-0.404991	-0.160295	0.000235
H83	H	-0.192936	0.163673	0.350960
H84	H	-0.636717	-0.011483	0.239315
H85	H	-0.636708	-0.011549	0.761397
H86	H	-0.485997	-0.070222	0.000263
H87	H	-0.512431	0.316471	0.630846
H88	H	-0.333360	0.167451	-0.225807
H89	H	-0.101404	0.161256	-0.350360
H90	H	-0.424873	0.169887	0.226323
H91	H	-0.512429	0.316496	0.369806
H92	H	-0.652549	-0.249457	0.000335
H93	H	0.190323	0.153508	-0.225701
H94	H	-0.650129	-0.487064	0.000361
H95	H	-0.695823	-0.167540	0.630875
H96	H	-0.101474	0.161234	0.350976
H97	H	0.049856	0.157244	-0.350328
H98	H	-0.481150	-0.545429	0.000317
H99	H	-0.424841	0.169879	-0.225811
H100	H	-0.333410	0.167421	0.226348
H101	H	-0.041606	0.159667	-0.350347
H102	H	0.049798	0.157198	0.351019
H103	H	0.281751	0.151087	0.226464
H104	H	0.190269	0.153530	0.226456
