data_functionalizedCrystal
_audit_creation_method	'MofGen! by Chris Wilmer'
_symmetry_space_group_name_H-M	'P1'
_symmetry_Int_Tables_number	1
_symmetry_cell_setting	triclinic
loop_
_symmetry_equiv_pos_as_xyz
  x,y,z
_cell_length_a	19.188930
_cell_length_b	13.101039
_cell_length_c	19.188930
_cell_angle_alpha	86.654199
_cell_angle_beta	83.144779
_cell_angle_gamma	93.360061
loop_
_atom_site_label
_atom_site_type_symbol
_atom_site_fract_x
_atom_site_fract_y
_atom_site_fract_z
O1	O	0.930013	0.085556	0.083287
O2	O	0.726699	0.085488	0.095024
O3	O	0.834222	0.085504	-0.012499
O4	O	0.822489	0.085540	0.190810
O5	O	0.826507	-0.084927	-0.004772
O6	O	0.718984	-0.084943	0.102752
O7	O	0.922298	-0.084875	0.091014
Zn8	Zn	0.819416	-0.111969	0.098110
Zn9	Zn	0.829581	0.112582	0.087929
O10	O	0.814775	-0.084891	0.198538
C11	C	0.696830	0.000263	0.098508
C12	C	0.619324	0.000236	0.097369
N13	N	0.812484	-0.265218	0.105058
C14	C	0.803053	-0.474262	0.114517
C15	C	0.845947	-0.525131	0.071518
C16	C	0.840699	-0.641451	0.076781
C17	C	0.808300	-0.357933	0.109255
C18	C	0.574401	0.000263	0.160458
C19	C	0.501578	0.000274	0.159386
C20	C	0.473682	0.000279	0.095220
C21	C	0.518614	0.000246	0.032122
C22	C	0.591435	0.000224	0.033197
N23	N	0.368329	0.058316	0.043542
N24	N	0.299151	0.058339	0.042525
C25	C	0.254276	0.000341	0.091979
N26	N	0.281191	-0.057668	0.142498
N27	N	0.350375	-0.057686	0.143516
C28	C	0.394720	0.000301	0.094048
C29	C	0.130389	0.000379	0.153911
C30	C	0.057565	0.000383	0.152836
C31	C	0.074603	0.000365	0.025570
C32	C	0.147425	0.000350	0.026647
C33	C	0.175314	0.000362	0.090819
C34	C	0.952167	0.000352	0.087530
C35	C	1.029673	0.000386	0.088669
C36	C	0.829985	0.000285	-0.034646
C37	C	0.828843	0.000276	-0.112151
N38	N	0.836518	0.265831	0.080975
C39	C	0.891935	0.000293	-0.157075
C40	C	0.890864	0.000309	-0.229900
C41	C	0.826697	0.000288	-0.257795
C42	C	0.763597	0.000277	-0.212861
C43	C	0.764671	0.000271	-0.140039
N44	N	0.775024	-0.057730	-0.363170
N45	N	0.774008	-0.057727	-0.432349
C46	C	0.823460	0.000307	-0.477205
N47	N	0.873975	0.058325	-0.450270
N48	N	0.874992	0.058317	-0.381085
C49	C	0.825526	0.000295	-0.336758
C50	C	0.885395	0.000343	-0.601095
C51	C	0.884321	0.000365	-0.673921
C52	C	0.757052	0.000323	-0.656880
C53	C	0.758128	0.000311	-0.584056
C54	C	0.822301	0.000316	-0.556168
C55	C	0.819012	0.000330	0.220685
C56	C	0.820154	0.000346	0.298189
H57	H	0.886611	-0.481323	0.030753
H58	H	0.495897	0.000263	-0.020123
O59	O	0.457865	0.000444	0.220621
C60	C	0.419271	0.088741	0.219801
H61	H	0.417104	0.118153	0.163056
H62	H	0.363551	0.068917	0.246872
H63	H	0.445948	0.150550	0.248810
O64	O	0.634980	0.000250	-0.028158
C65	C	0.594745	0.000225	-0.085024
H66	H	0.541807	0.032504	-0.068601
H67	H	0.623996	0.049695	-0.131460
H68	H	0.585899	-0.081541	-0.100997
H69	H	0.935701	0.000384	-0.710499
H70	H	0.944190	0.000300	-0.134374
H71	H	0.762393	-0.518066	0.155280
O72	O	0.601407	0.000406	0.222835
C73	C	0.582461	0.088702	0.257264
H74	H	0.533356	0.118140	0.237044
H75	H	0.571260	0.068866	0.316338
H76	H	0.627443	0.150496	0.246251
O77	O	0.047399	0.000417	-0.036703
C78	C	-0.026510	0.000412	-0.024123
H79	H	-0.042307	0.032687	0.028953
H80	H	-0.046492	0.049896	-0.067412
H81	H	-0.050496	-0.081347	-0.023740
O82	O	0.157367	0.000334	0.216307
C83	C	0.102097	0.000375	0.271764
H84	H	0.051216	-0.031883	0.253806
H85	H	0.114929	-0.049104	0.318820
H86	H	0.095456	0.082144	0.287509
O87	O	0.013861	0.000548	0.214074
C88	C	-0.024738	0.088840	0.213259
H89	H	-0.026915	0.118251	0.156515
H90	H	-0.080455	0.069010	0.240337
H91	H	0.001940	0.150653	0.242264
H92	H	0.184003	0.000333	-0.024728
H93	H	0.706752	0.000292	-0.547477
H94	H	0.942243	0.000326	-0.266485
H95	H	0.711352	0.000262	-0.235579
H96	H	0.713292	0.000258	-0.103460
O97	O	0.947793	0.000411	-0.574118
C98	C	1.003251	0.000418	-0.629390
H99	H	0.985290	0.032680	-0.680261
H100	H	1.050301	0.049919	-0.616544
H101	H	1.019008	-0.081336	-0.636059
H102	H	0.704806	0.000311	-0.679592
