data_functionalizedCrystal
_audit_creation_method	'MofGen! by Chris Wilmer'
_symmetry_space_group_name_H-M	'P1'
_symmetry_Int_Tables_number	1
_symmetry_cell_setting	triclinic
loop_
_symmetry_equiv_pos_as_xyz
  x,y,z
_cell_length_a	13.033293
_cell_length_b	13.032721
_cell_length_c	13.033109
_cell_angle_alpha	105.143326
_cell_angle_beta	74.800007
_cell_angle_gamma	105.184121
loop_
_atom_site_label
_atom_site_type_symbol
_atom_site_fract_x
_atom_site_fract_y
_atom_site_fract_z
Zn1	Zn	1.665132	-0.311713	-0.842278
Zn2	Zn	1.998465	0.021620	-0.508944
Zn3	Zn	2.331799	0.354953	-0.175611
Zn4	Zn	1.624457	-0.471371	-0.682627
Zn5	Zn	1.957791	-0.138038	-0.349294
Zn6	Zn	2.291124	0.195295	-0.015961
Zn7	Zn	1.464934	-0.311733	-0.642082
Zn8	Zn	1.798267	0.021600	-0.308749
Zn9	Zn	2.131601	0.354934	0.024584
Zn10	Zn	1.464897	-0.511805	-0.842154
Zn11	Zn	1.798230	-0.178472	-0.508820
Zn12	Zn	2.131564	0.154862	-0.175487
O13	O	1.554855	-0.401656	-0.752285
O14	O	1.888188	-0.068322	-0.418952
O15	O	2.221522	0.265011	-0.085618
O16	O	1.810297	-0.315962	-0.838120
O17	O	2.143630	0.017371	-0.504786
O18	O	2.476963	0.350704	-0.171453
O19	O	1.586289	-0.433282	-0.526704
O20	O	1.919622	-0.099948	-0.193371
O21	O	2.252956	0.233385	0.139963
O22	O	1.508529	-0.161182	-0.651722
O23	O	1.841862	0.172151	-0.318389
O24	O	2.175195	0.505484	0.014945
O25	O	1.780413	-0.433262	-0.720825
O26	O	2.113746	-0.099929	-0.387492
O27	O	2.447080	0.233404	-0.054159
O28	O	1.655613	-0.161168	-0.798805
O29	O	1.988947	0.172166	-0.465471
O30	O	2.322280	0.505499	-0.132138
O31	O	1.469088	-0.315996	-0.496916
O32	O	1.802421	0.017337	-0.163582
O33	O	2.135755	0.350671	0.169751
O34	O	1.314369	-0.355203	-0.651602
O35	O	1.647702	-0.021870	-0.318269
O36	O	1.981036	0.311464	0.015065
O37	O	1.508466	-0.502176	-0.992715
O38	O	1.841799	-0.168842	-0.659382
O39	O	2.175132	0.164491	-0.326048
O40	O	1.314342	-0.502195	-0.798594
O41	O	1.647675	-0.168862	-0.465260
O42	O	1.981008	0.164472	-0.131927
O43	O	1.655578	-0.355169	-0.992806
O44	O	1.988911	-0.021836	-0.659473
O45	O	2.322244	0.311497	-0.326139
O46	O	1.586253	-0.627283	-0.720705
O47	O	1.919587	-0.293950	-0.387372
O48	O	2.252920	0.039383	-0.054039
O49	O	1.469025	-0.656990	-0.837909
O50	O	1.802358	-0.323656	-0.504575
O51	O	2.135692	0.009677	-0.171242
C52	C	1.275317	-0.433090	-0.720685
C53	C	1.608650	-0.099756	-0.387352
C54	C	1.941983	0.233577	-0.054019
C55	C	1.155729	-0.446566	-0.707195
C56	C	1.489062	-0.113233	-0.373862
C57	C	1.822396	0.220101	-0.040529
C58	C	1.117199	-0.394649	-0.759329
C59	C	1.450532	-0.061316	-0.425995
C60	C	1.783865	0.272017	-0.092662
C61	C	0.993599	-0.408577	-0.745387
C62	C	1.326932	-0.075243	-0.412054
C63	C	1.660265	0.258090	-0.078721
C64	C	1.523253	-0.681171	-0.783720
C65	C	1.856587	-0.347838	-0.450387
C66	C	2.189920	-0.014505	-0.117053
C67	C	1.509836	-0.800742	-0.797215
C68	C	1.843170	-0.467409	-0.463882
C69	C	2.176503	-0.134076	-0.130548
C70	C	1.561920	-0.839317	-0.745297
C71	C	1.895253	-0.505984	-0.411964
C72	C	2.228587	-0.172650	-0.078630
C73	C	1.548054	-0.962899	-0.759243
C74	C	1.881388	-0.629566	-0.425910
C75	C	2.214721	-0.296233	-0.092577
C76	C	1.835485	-0.370100	-0.784009
C77	C	2.168818	-0.036766	-0.450676
C78	C	2.502152	0.296567	-0.117342
C79	C	1.955073	-0.356653	-0.797528
C80	C	2.288406	-0.023319	-0.464194
C81	C	2.621739	0.310014	-0.130861
C82	C	1.586555	-0.433181	-1.032886
C83	C	1.919888	-0.099847	-0.699553
C84	C	2.253221	0.233486	-0.366220
C85	C	1.600063	-0.446615	-1.152462
C86	C	1.933397	-0.113281	-0.819129
C87	C	2.266730	0.220052	-0.485795
C88	C	1.586612	-0.121048	-0.720755
C89	C	1.919946	0.212285	-0.387421
C90	C	2.253279	0.545619	-0.054088
C91	C	1.600145	-0.001470	-0.707318
C92	C	1.933479	0.331864	-0.373985
C93	C	2.266812	0.665197	-0.040651
C94	C	1.548097	-0.394573	-1.191034
C95	C	1.881430	-0.061240	-0.857700
C96	C	2.214764	0.272093	-0.524367
C97	C	1.562057	-0.408457	-1.314621
C98	C	1.895391	-0.075123	-0.981288
C99	C	2.228724	0.258210	-0.647954
C100	C	1.523350	-0.370169	-0.472774
C101	C	1.856683	-0.036836	-0.139440
C102	C	2.190016	0.296498	0.193893
C103	C	1.510084	-0.356408	-0.353188
C104	C	1.843417	-0.023075	-0.019855
C105	C	2.176750	0.310258	0.313478
H106	H	0.935084	-0.463336	-0.690427
H107	H	1.268418	-0.130003	-0.357093
H108	H	1.601751	0.203330	-0.023760
O109	O	1.634613	-0.761886	-0.672764
O110	O	1.967946	-0.428553	-0.339430
O111	O	2.301280	-0.095219	-0.006097
H112	H	1.634104	-0.676970	-0.673200
H113	H	1.967437	-0.343637	-0.339866
H114	H	2.300771	-0.010304	-0.006533
O115	O	1.194697	-0.322109	-0.832125
O116	O	1.528030	0.011224	-0.498791
O117	O	1.861363	0.344557	-0.165458
H118	H	1.279616	-0.322558	-0.831656
H119	H	1.612949	0.010775	-0.498322
H120	H	1.946282	0.344108	-0.164989
O121	O	1.672693	-0.519248	-1.229901
O122	O	2.006026	-0.185915	-0.896567
O123	O	2.339360	0.147418	-0.563234
H124	H	1.672267	-0.518748	-1.314819
H125	H	2.005601	-0.185415	-0.981486
H126	H	2.338934	0.147919	-0.648152
O127	O	1.032566	-0.284113	-0.870333
O128	O	1.365899	0.049221	-0.536999
O129	O	1.699233	0.382554	-0.203666
H130	H	1.117486	-0.284561	-0.869867
H131	H	1.450819	0.048772	-0.536534
H132	H	1.784152	0.382105	-0.203200
H133	H	1.493199	-1.021363	-0.814026
H134	H	1.826532	-0.688030	-0.480692
H135	H	2.159866	-0.354696	-0.147359
H136	H	1.655010	-0.943007	-0.652545
H137	H	1.988344	-0.609674	-0.319211
H138	H	2.321677	-0.276341	0.014122
O139	O	1.437158	-0.878173	-0.869763
O140	O	1.770492	-0.544840	-0.536430
O141	O	2.103825	-0.211506	-0.203096
H142	H	1.437662	-0.963089	-0.869322
H143	H	1.770995	-0.629756	-0.535988
H144	H	2.104329	-0.296422	-0.202655
O145	O	1.475476	-0.321931	-1.113595
O146	O	1.808809	0.011403	-0.780262
O147	O	2.142143	0.344736	-0.446928
H148	H	1.475916	-0.322417	-1.028677
H149	H	1.809249	0.010916	-0.695343
H150	H	2.142582	0.344249	-0.362010
O151	O	1.634691	-0.481094	-1.392057
O152	O	1.968024	-0.147761	-1.058723
O153	O	2.301358	0.185572	-0.725390
H154	H	1.634265	-0.480594	-1.476975
H155	H	1.967598	-0.147261	-1.143642
H156	H	2.300932	0.186073	-0.810308
O157	O	1.437457	-0.283763	-1.275755
O158	O	1.770791	0.049571	-0.942421
O159	O	2.104124	0.382904	-0.609088
H160	H	1.437895	-0.284248	-1.190835
H161	H	1.771228	0.049086	-0.857502
H162	H	2.104561	0.382419	-0.524169
O163	O	1.078231	-0.519103	-0.634397
O164	O	1.411564	-0.185770	-0.301063
O165	O	1.744897	0.147563	0.032270
H166	H	0.993312	-0.518664	-0.634875
H167	H	1.326645	-0.185331	-0.301542
H168	H	1.659979	0.148003	0.031791
