data_functionalizedCrystal
_audit_creation_method	'MofGen! by Chris Wilmer'
_symmetry_space_group_name_H-M	'P1'
_symmetry_Int_Tables_number	1
_symmetry_cell_setting	triclinic
loop_
_symmetry_equiv_pos_as_xyz
  x,y,z
_cell_length_a	10.654562
_cell_length_b	13.262508
_cell_length_c	9.130313
_cell_angle_alpha	105.917062
_cell_angle_beta	89.996930
_cell_angle_gamma	84.462496
loop_
_atom_site_label
_atom_site_type_symbol
_atom_site_fract_x
_atom_site_fract_y
_atom_site_fract_z
O1	O	1.667059	0.147483	-0.063139
O2	O	1.301510	0.161515	-0.057531
O3	O	1.493480	0.001776	-0.121170
O4	O	1.475088	0.307222	0.000499
O5	O	1.493478	0.001780	0.122431
O6	O	1.301507	0.161519	0.186069
O7	O	1.667057	0.147487	0.180461
Cu8	Cu	1.484282	0.154503	0.205508
Cu9	Cu	1.484284	0.154498	-0.082578
O10	O	1.475086	0.307226	0.244100
C11	C	1.254716	0.160484	0.063860
C12	C	1.115290	0.157393	0.062636
C13	C	1.049765	0.155954	0.194837
C14	C	0.918758	0.153058	0.193659
C15	C	0.918811	0.153045	-0.071931
C16	C	1.049817	0.155933	-0.070755
C17	C	1.115238	0.157413	0.328227
C18	C	1.049713	0.155975	0.460439
C19	C	0.918706	0.153079	0.459261
C20	C	0.853224	0.151621	0.325871
C21	C	1.492448	-0.037333	-0.014952
C22	C	1.489362	-0.153872	-0.061382
C23	C	1.480649	-0.482380	0.338902
C24	C	1.483539	-0.372885	0.382527
C25	C	1.484995	-0.318126	0.271554
C26	C	1.483560	-0.372873	0.116947
C27	C	1.480660	-0.482378	0.073318
C28	C	1.485006	-0.318125	0.005970
C29	C	1.483571	-0.372872	-0.148637
C30	C	1.480671	-0.482366	-0.192258
C31	C	1.479215	-0.537125	-0.081285
C32	C	1.487907	-0.208620	0.049599
C33	C	1.487917	-0.208618	-0.215985
C34	C	1.485027	-0.318114	-0.259610
C35	C	1.713850	0.148518	0.059067
C36	C	1.853276	0.151609	0.060281
C37	C	1.476118	0.346335	0.137879
C38	C	1.479205	0.462874	0.184299
N39	N	1.484289	0.154506	0.408132
N40	N	1.484287	0.154487	-0.285205
C41	C	1.569315	0.083798	0.456614
C42	C	1.569312	0.083786	0.609946
C43	C	1.399252	0.225199	0.666303
C44	C	1.399250	0.225205	0.512972
C45	C	1.654354	0.013100	0.351774
C46	C	1.739388	-0.057613	0.400255
C47	C	1.739385	-0.057626	0.553586
C48	C	1.654347	0.013074	0.658438
H49	H	1.103039	0.157154	0.569037
H50	H	1.654343	0.013051	0.783286
H51	H	1.489064	-0.164054	0.175481
F52	F	0.849116	0.151487	-0.213886
H53	H	1.479454	-0.526973	0.429240
F54	F	1.254666	0.160501	0.329494
F55	F	1.479127	-0.540628	-0.356804
H56	H	1.330018	0.282761	0.751682
F57	F	1.829877	-0.132862	0.288662
F58	F	1.829874	-0.132891	0.605178
H59	H	1.330012	0.282781	0.473499
F60	F	0.848974	0.151541	0.599967
H61	H	1.476868	-0.626285	-0.116797
F62	F	0.713797	0.148514	0.324614
F63	F	1.483502	-0.376393	-0.424151
F64	F	1.119557	0.157463	-0.211459
F65	F	1.489447	-0.150344	-0.334099
F66	F	1.488068	-0.201591	0.317988
H67	H	1.654367	0.013105	0.226922
H68	H	1.484721	-0.328319	0.508407
