data_functionalizedCrystal
_audit_creation_method	'MofGen! by Chris Wilmer'
_symmetry_space_group_name_H-M	'P1'
_symmetry_Int_Tables_number	1
_symmetry_cell_setting	triclinic
loop_
_symmetry_equiv_pos_as_xyz
  x,y,z
_cell_length_a	13.897449
_cell_length_b	13.032318
_cell_length_c	13.033252
_cell_angle_alpha	76.667380
_cell_angle_beta	97.188182
_cell_angle_gamma	82.792964
loop_
_atom_site_label
_atom_site_type_symbol
_atom_site_fract_x
_atom_site_fract_y
_atom_site_fract_z
Zn1	Zn	1.498002	0.346777	0.546808
Zn2	Zn	1.998002	0.846777	1.046808
Zn3	Zn	1.450968	0.546944	0.346621
Zn4	Zn	1.950968	1.046944	0.846621
Zn5	Zn	1.313256	0.369325	0.369209
Zn6	Zn	1.813256	0.869325	0.869209
Zn7	Zn	1.313178	0.524381	0.524191
Zn8	Zn	1.813178	1.024381	1.024191
O9	O	1.393851	0.446857	0.446707
O10	O	1.893851	0.946857	0.946707
O11	O	1.626745	0.373336	0.520265
O12	O	2.126745	0.873336	1.020265
O13	O	1.413049	0.542262	0.200977
O14	O	1.913049	1.042262	0.700977
O15	O	1.357480	0.217672	0.411686
O16	O	1.857480	0.717672	0.911686
O17	O	1.592189	0.520398	0.373188
O18	O	2.092189	1.020398	0.873188
O19	O	1.493212	0.201106	0.542168
O20	O	1.993212	0.701106	1.042168
O21	O	1.311873	0.411766	0.217573
O22	O	1.811873	0.911766	0.717573
O23	O	1.178264	0.389887	0.389755
O24	O	1.678264	0.889887	0.889755
O25	O	1.357347	0.481942	0.675831
O26	O	1.857347	0.981942	1.175831
O27	O	1.178206	0.503806	0.503620
O28	O	1.678206	1.003806	1.003620
O29	O	1.493136	0.351457	0.692448
O30	O	1.993136	0.851457	1.192448
O31	O	1.412973	0.692613	0.351257
O32	O	1.912973	1.192613	0.851257
O33	O	1.311740	0.676036	0.481717
O34	O	1.811740	1.176036	0.981717
C35	C	1.143236	0.446846	0.446685
C36	C	1.643236	0.946846	0.946685
C37	C	1.036021	0.446863	0.446697
C38	C	1.536021	0.946863	0.946697
C39	C	1.357273	0.722868	0.411605
C40	C	1.857273	1.222868	0.911605
C41	C	1.341718	0.840942	0.396623
C42	C	1.841718	1.340942	0.896623
C43	C	0.839729	0.446864	0.446724
C44	C	1.339729	0.946864	0.946724
C45	C	0.948960	0.446861	0.446707
C46	C	1.448960	0.946861	0.946707
C47	C	1.401911	0.885295	0.454567
C48	C	1.901911	1.385295	0.954567
C49	C	1.385835	1.007331	0.439084
C50	C	1.885835	1.507331	0.939084
C51	C	1.645445	0.446869	0.446730
C52	C	2.145445	0.946869	0.946730
C53	C	1.752660	0.446874	0.446740
C54	C	2.252660	0.946874	0.946740
C55	C	1.430480	0.411667	0.723758
C56	C	1.930480	0.911667	1.223758
C57	C	1.446088	0.396672	0.841820
C58	C	1.946088	0.896672	1.341820
C59	C	1.430545	1.169764	0.481980
C60	C	1.930545	1.669764	0.981980
C61	C	1.446036	1.051680	0.497036
C62	C	1.946036	1.551680	0.997036
C63	C	1.385861	0.454548	0.886234
C64	C	1.885861	0.954548	1.386234
C65	C	1.401992	0.439050	1.008258
C66	C	1.901992	0.939050	1.508258
C67	C	1.357358	0.481934	1.170731
C68	C	1.857358	0.981934	1.670731
C69	C	1.341757	0.496934	1.052668
C70	C	1.841757	0.996934	1.552668
H71	H	1.465343	0.832923	0.515642
H72	H	1.965343	1.332923	1.015642
H73	H	1.322392	1.059701	0.378015
H74	H	1.822392	1.559701	0.878015
C75	C	1.203493	0.847288	0.263564
C76	C	1.703493	1.347288	0.763564
C77	C	1.256077	0.911633	0.314179
C78	C	1.756077	1.411633	0.814179
H79	H	1.150618	0.890930	0.212670
H80	H	1.650618	1.390930	0.712670
H81	H	1.245846	0.809153	0.228429
H82	H	1.745846	1.309153	0.728429
H83	H	1.178339	0.798156	0.315266
H84	H	1.678339	1.298156	0.815266
H85	H	1.281238	0.960761	0.262477
H86	H	1.781238	1.460761	0.762477
H87	H	1.213717	0.949786	0.349314
H88	H	1.713717	1.449786	0.849314
H89	H	1.509596	0.335653	0.894132
H90	H	2.009596	0.835653	1.394132
H91	H	1.465504	0.378027	1.060567
H92	H	1.965504	0.878027	1.560567
C93	C	1.167043	0.553008	1.011712
C94	C	1.667043	1.053008	1.511712
C95	C	1.256017	0.579318	0.982064
C96	C	1.756017	1.079318	1.482064
H97	H	1.114114	0.603871	0.968127
H98	H	1.614114	1.103871	1.468127
H99	H	1.160022	0.483924	1.002661
H100	H	1.660022	0.983924	1.502661
H101	H	1.166649	0.553403	1.084453
H102	H	1.666649	1.053403	1.584453
H103	H	1.256414	0.578915	0.909325
H104	H	1.756414	1.078915	1.409325
H105	H	1.263039	0.648420	0.991106
H106	H	1.763039	1.148420	1.491106
C107	C	1.494575	0.908573	0.655675
C108	C	1.994575	1.408573	1.155675
C109	C	1.531679	0.980993	0.579488
C110	C	2.031679	1.480993	1.079488
H111	H	1.547448	0.864931	0.706571
H112	H	2.047448	1.364931	1.206571
H113	H	1.452229	0.946725	0.690803
H114	H	1.952229	1.446725	1.190803
H115	H	1.458896	0.864937	0.621318
H116	H	1.958896	1.364937	1.121318
H117	H	1.567352	1.024635	0.613844
H118	H	2.067352	1.524635	1.113844
H119	H	1.574042	0.942838	0.544356
H120	H	2.074042	1.442838	1.044356
C121	C	1.310542	0.638775	0.828960
C122	C	1.810542	1.138775	1.328960
C123	C	1.300146	0.536943	0.815610
C124	C	1.800146	1.036943	1.315610
H125	H	1.257630	0.689647	0.785351
H126	H	1.757630	1.189647	1.285351
H127	H	1.310116	0.639166	0.901687
H128	H	1.810116	1.139166	1.401687
H129	H	1.370925	0.656580	0.808875
H130	H	1.870925	1.156580	1.308875
H131	H	1.239765	0.519135	0.835702
H132	H	1.739765	1.019135	1.335702
H133	H	1.300562	0.536550	0.742866
H134	H	1.800562	1.036550	1.242866
