data_functionalizedCrystal
_audit_creation_method	'MofGen! by Chris Wilmer'
_symmetry_space_group_name_H-M	'P1'
_symmetry_Int_Tables_number	1
_symmetry_cell_setting	triclinic
loop_
_symmetry_equiv_pos_as_xyz
  x,y,z
_cell_length_a	14.395555
_cell_length_b	20.875641
_cell_length_c	20.875625
_cell_angle_alpha	59.251205
_cell_angle_beta	92.973129
_cell_angle_gamma	62.439513
loop_
_atom_site_label
_atom_site_type_symbol
_atom_site_fract_x
_atom_site_fract_y
_atom_site_fract_z
Zr1	Zr	0.923969	0.702083	-0.109903
O2	O	0.774682	0.835908	-0.217241
O3	O	0.965057	0.568262	-0.073593
O4	O	0.961740	0.702083	-0.212324
O5	O	0.785936	0.702085	0.027051
O6	O	1.114614	0.702079	-0.212319
O7	O	0.777999	0.702087	-0.078510
O8	O	1.120548	0.462697	0.035846
O9	O	0.780001	0.941467	-0.221114
O10	O	1.102319	0.623299	-0.062217
O11	O	0.994154	0.623301	0.016558
O12	O	0.990248	0.780858	-0.146780
O13	O	0.882082	0.780860	-0.068006
Zr14	Zr	1.180444	0.702072	0.058464
Zr15	Zr	1.167786	0.702075	-0.109894
Zr16	Zr	0.936627	0.702079	0.058454
Zr17	Zr	0.932453	0.870436	-0.116079
Zr18	Zr	1.171960	0.533718	0.064640
O19	O	1.139356	0.835892	0.022154
O20	O	1.121358	0.835897	-0.217228
O21	O	0.792680	0.835903	0.022141
O22	O	1.329731	0.568246	0.165802
O23	O	1.311733	0.568251	-0.073580
O24	O	0.983055	0.568257	0.165789
O25	O	1.318477	0.702070	-0.078490
O26	O	1.142673	0.702071	0.160885
O27	O	0.989799	0.702076	0.160880
O28	O	1.326414	0.702068	0.027071
O29	O	0.973803	0.941461	-0.221106
O30	O	1.130610	0.462694	0.169667
O31	O	1.324412	0.462688	0.169675
O32	O	1.314350	0.462690	0.035853
O33	O	0.790063	0.941464	-0.087292
O34	O	0.983864	0.941458	-0.087285
O35	O	1.114165	0.623296	0.095341
O36	O	1.222331	0.623294	0.016566
O37	O	1.110259	0.780853	-0.067997
O38	O	1.002094	0.780855	0.010778
C39	C	1.041594	0.491492	-0.017994
C40	C	1.037992	0.420022	-0.015372
C41	C	1.092758	0.386444	-0.055260
C42	C	1.089377	0.319285	-0.052788
C43	C	1.031223	0.285710	-0.010434
C44	C	0.976456	0.319291	0.029459
C45	C	0.979844	0.386444	0.026992
C46	C	1.015042	0.084866	0.001358
C47	C	1.011655	0.017710	0.003820
C48	C	1.124578	0.017708	-0.078426
C49	C	1.127956	0.084866	-0.080893
C50	C	1.073194	0.118438	-0.040997
N51	N	1.027763	0.217065	-0.007909
N52	N	1.076661	0.187077	-0.043518
C53	C	0.747229	0.702087	-0.025731
C54	C	0.643722	0.702090	-0.025735
C55	C	0.522028	0.787998	-0.071836
C56	C	0.486688	0.745053	-0.101386
C57	C	0.494638	0.745031	0.003810
C58	C	0.609742	0.659145	-0.055329
C59	C	0.617693	0.659135	0.049908
C60	C	0.582425	0.616127	0.020378
C61	C	1.357184	0.702068	-0.025708
C62	C	1.460691	0.702064	-0.025704
C63	C	1.036373	0.702081	-0.236309
C64	C	1.031000	0.702083	-0.307781
C65	C	1.062819	0.912662	-0.033445
C66	C	1.066421	0.984132	-0.036067
C67	C	1.112694	0.702082	-0.341355
C68	C	1.107648	0.702075	-0.408507
C69	C	1.020902	0.702076	-0.442086
C70	C	0.939203	0.702074	-0.408505
C71	C	0.944255	0.702075	-0.341352
C72	C	0.996766	0.702070	-0.642924
C73	C	0.991719	0.702072	-0.710084
C74	C	1.160166	0.702072	-0.710080
C75	C	1.165206	0.702077	-0.642928
C76	C	1.083511	0.702071	-0.609350
N77	N	1.015739	0.702072	-0.510727
N78	N	1.088678	0.702068	-0.540707
C79	C	1.068040	0.702073	0.184870
C80	C	1.073413	0.702071	0.256342
C81	C	1.346572	0.491483	-0.017982
C82	C	1.446477	0.420009	-0.015356
C83	C	1.057427	0.491488	0.192595
C84	C	1.059199	0.420016	0.266690
C85	C	1.362405	0.491479	0.192607
C86	C	1.467683	0.420003	0.266705
C87	C	0.742008	0.912676	-0.244046
C88	C	0.636730	0.984151	-0.318144
C89	C	0.757841	0.912671	-0.033457
C90	C	0.657936	0.984145	-0.036083
C91	C	1.046986	0.912666	-0.244035
C92	C	1.045214	0.984138	-0.318129
C93	C	1.430748	0.386447	-0.055254
C94	C	1.524609	0.319299	-0.052803
C95	C	1.634198	0.285710	-0.010449
C96	C	1.649925	0.319279	0.029450
C97	C	1.556065	0.386430	0.026994
C98	C	1.122676	0.386450	0.342616
C99	C	1.124338	0.319303	0.412241
C100	C	1.062528	0.285721	0.405939
C101	C	0.999043	0.319294	0.330004
C102	C	0.997376	0.386443	0.260380
C103	C	1.573595	0.386437	0.260383
C104	C	1.672524	0.319288	0.329999
C105	C	1.665540	0.285702	0.405937
C106	C	1.559617	0.319275	0.412257
C107	C	1.460690	0.386427	0.342642
C108	C	0.530819	1.017726	-0.311822
C109	C	0.431890	1.084896	-0.381439
C110	C	0.438875	1.118485	-0.457377
C111	C	0.544797	1.084908	-0.463697
C112	C	0.643723	1.017744	-0.394081
C113	C	0.673665	1.017714	0.003808
C114	C	0.579803	1.084881	0.001337
C115	C	0.470214	1.118472	-0.041019
C116	C	0.454487	1.084900	-0.080915
C117	C	0.548348	1.017740	-0.078449
C118	C	1.107036	1.017700	-0.311800
C119	C	1.105394	1.084846	-0.381413
C120	C	1.041922	1.118435	-0.457353
C121	C	0.980097	1.084867	-0.463680
C122	C	0.981747	1.017717	-0.394068
H123	H	0.964293	-0.009623	0.038311
N124	N	0.908650	0.702061	-0.606720
H125	H	0.831166	0.757993	-0.648428
H126	H	0.925102	0.702021	-0.559072
H127	H	1.155738	1.112170	-0.376245
N128	N	1.772246	0.213255	0.481018
H129	H	1.751760	0.197063	0.530088
H130	H	1.820195	0.236674	0.480117
N131	N	1.189345	0.422661	0.349434
H132	H	1.136163	0.490074	0.320925
H133	H	1.246736	0.410907	0.323856
N134	N	0.428829	0.793136	0.036903
H135	H	0.423095	0.749730	0.086561
H136	H	0.350354	0.846416	-0.005159
N137	N	1.206252	0.702089	-0.305145
H138	H	1.257239	0.702086	-0.336605
H139	H	1.251803	0.646157	-0.247261
N140	N	1.581150	0.422661	0.178485
H141	H	1.502415	0.470298	0.135335
H142	H	1.621113	0.371375	0.174147
N143	N	0.531370	0.981524	-0.121462
H144	H	0.607452	0.933878	-0.113476
H145	H	0.486621	1.032813	-0.180853
H146	H	0.674087	0.622857	0.113851
H147	H	0.365247	1.112261	-0.115401
H148	H	0.970455	0.112189	0.033848
H149	H	0.931398	0.990398	-0.399232
N150	N	0.845645	0.702066	-0.444714
H151	H	0.854838	0.702068	-0.492352
H152	H	0.769963	0.757998	-0.462995
N153	N	1.552093	0.283045	0.494164
H154	H	1.630839	0.235409	0.537299
H155	H	1.508165	0.255224	0.501408
H156	H	1.063895	0.231043	0.462637
H157	H	0.592631	1.112204	0.033829
N158	N	0.913741	0.283074	0.075150
H159	H	0.919902	0.235439	0.070660
H160	H	0.831420	0.334365	0.051675
N161	N	1.312557	0.422664	-0.100939
H162	H	1.255471	0.470295	-0.096445
H163	H	1.302600	0.371370	-0.077465
N164	N	0.675347	0.611098	-0.088522
H165	H	0.698343	0.546378	-0.053969
H166	H	0.745247	0.611495	-0.088357
H167	H	0.358314	1.173174	-0.514057
N168	N	0.920766	0.422666	0.070009
H169	H	0.931739	0.470300	0.062022
H170	H	0.953777	0.371377	0.129400
H171	H	1.175310	0.112202	-0.115382
H172	H	1.374457	0.413749	0.347801
H173	H	0.525110	0.990381	-0.249996
H174	H	1.174171	0.702074	-0.435842
N175	N	1.735428	0.213284	-0.007804
H176	H	1.708825	0.197123	-0.039507
H177	H	1.783581	0.157600	0.049954
N178	N	1.768130	0.283031	0.075143
H179	H	1.763864	0.314475	0.100053
H180	H	1.808829	0.294713	0.036959
N181	N	1.258767	0.702078	-0.606712
H182	H	1.309757	0.702075	-0.638171
H183	H	1.304316	0.646145	-0.548829
H184	H	1.158723	0.990362	-0.249972
N185	N	0.489563	0.884218	-0.123542
H186	H	0.441020	0.916558	-0.180671
H187	H	0.560276	0.883472	-0.122714
N188	N	1.192817	0.283098	0.494135
H189	H	1.231727	0.314558	0.487557
H190	H	1.251519	0.215683	0.526268
H191	H	1.169165	-0.009633	-0.110907
N192	N	0.932386	0.283063	0.323213
H193	H	0.943089	0.235428	0.378844
H194	H	0.960034	0.255241	0.294547
N195	N	1.040152	1.190866	-0.532424
H196	H	0.959879	1.246601	-0.566797
H197	H	1.070494	1.167426	-0.563829
N198	N	0.552322	1.121140	-0.545604
H199	H	0.473576	1.168778	-0.588739
H200	H	0.592261	1.069857	-0.549948
H201	H	0.729958	0.990408	-0.399238
H202	H	0.928419	1.112225	-0.525520
H203	H	0.345654	1.112223	-0.376277
N204	N	0.791858	0.981492	0.049495
H205	H	0.787562	1.012962	0.074383
H206	H	0.832550	0.993177	0.011307
H207	H	0.430291	0.781363	-0.165344
N208	N	0.368987	1.190896	-0.043659
H209	H	0.297170	1.207084	-0.076541
H210	H	0.370100	1.246568	-0.069081
N211	N	1.155473	0.422661	-0.100949
H212	H	1.189655	0.391195	-0.125841
H213	H	1.217597	0.410973	-0.062762
N214	N	1.573043	0.422625	0.070029
H215	H	1.496961	0.470266	0.062048
H216	H	1.615828	0.450431	0.047409
H217	H	1.226679	0.702075	-0.737424
H218	H	0.607150	0.543424	0.059371
N219	N	1.148440	0.283070	-0.095813
H220	H	1.231969	0.255211	-0.073224
H221	H	1.115362	0.334349	-0.155213
N222	N	0.898143	0.702086	-0.746311
H223	H	0.847154	0.702084	-0.714851
H224	H	0.932158	0.646160	-0.744162
H225	H	1.758762	0.291959	0.324838
N226	N	0.856147	0.702069	-0.305132
H227	H	0.800426	0.702070	-0.336593
H228	H	0.814787	0.757999	-0.307286
N229	N	1.507632	0.283102	-0.095840
H230	H	1.423964	0.314568	-0.123035
H231	H	1.544833	0.215688	-0.055613
H232	H	0.945689	0.413765	0.198561
