data_functionalizedCrystal
_audit_creation_method	'MofGen! by Chris Wilmer'
_symmetry_space_group_name_H-M	'P1'
_symmetry_Int_Tables_number	1
_symmetry_cell_setting	triclinic
loop_
_symmetry_equiv_pos_as_xyz
  x,y,z
_cell_length_a	11.026607
_cell_length_b	10.066323
_cell_length_c	16.109298
_cell_angle_alpha	81.212695
_cell_angle_beta	83.976898
_cell_angle_gamma	79.309054
loop_
_atom_site_label
_atom_site_type_symbol
_atom_site_fract_x
_atom_site_fract_y
_atom_site_fract_z
O1	O	1.592266	0.113441	-0.357685
O2	O	2.092266	0.613441	0.142315
O3	O	1.238975	0.113448	-0.318044
O4	O	1.738975	0.613448	0.181956
O5	O	1.425326	0.113454	-0.218289
O6	O	1.925326	0.613454	0.281711
O7	O	1.405915	0.113435	-0.457441
O8	O	1.905915	0.613435	0.042559
O9	O	1.460832	-0.113518	-0.199166
O10	O	1.960832	0.386482	0.300834
O11	O	1.274481	-0.113524	-0.298921
O12	O	1.774481	0.386476	0.201079
O13	O	1.627772	-0.113531	-0.338562
O14	O	2.127772	0.386469	0.161438
Zn15	Zn	1.456763	-0.149565	-0.315705
Zn16	Zn	1.956763	0.350435	0.184295
Zn17	Zn	1.409983	0.149481	-0.340901
Zn18	Zn	1.909983	0.649481	0.159099
O19	O	1.441420	-0.113537	-0.438317
O20	O	1.941420	0.386463	0.061683
C21	C	1.211520	-0.000037	-0.301170
C22	C	1.711520	0.499963	0.198830
C23	C	1.076814	-0.000033	-0.279369
C24	C	1.576814	0.499967	0.220631
N25	N	1.488698	-0.353656	-0.298510
N26	N	1.988698	0.146344	0.201490
C27	C	1.421078	-0.421465	-0.334917
C28	C	1.921078	0.078535	0.165083
C29	C	1.445688	-0.578621	-0.321679
C30	C	1.945688	-0.078621	0.178321
C31	C	1.002984	-0.000037	-0.339565
C32	C	1.502984	0.499963	0.160435
C33	C	0.863759	-0.000034	-0.317034
C34	C	1.363759	0.499966	0.182966
C35	C	1.655226	-0.000043	-0.355437
C36	C	2.155226	0.499957	0.144563
C37	C	1.789931	-0.000038	-0.377238
C38	C	2.289931	0.499962	0.122762
C39	C	1.442292	-0.000027	-0.177635
C40	C	1.942292	0.499973	0.322365
C41	C	1.439934	-0.000011	-0.084988
C42	C	1.939934	0.499989	0.415012
N43	N	1.378058	0.353572	-0.358091
N44	N	1.878058	0.853572	0.141909
C45	C	1.424454	-0.000054	-0.478971
C46	C	1.924454	0.499946	0.021029
C47	C	1.426811	-0.000061	-0.571619
C48	C	1.926811	0.499939	-0.071619
C49	C	1.412897	0.123684	0.204811
C50	C	1.912897	0.623684	0.704811
C51	C	1.415125	0.123693	0.117756
C52	C	1.915125	0.623693	0.617756
C53	C	1.453853	-0.123765	0.138588
C54	C	1.953853	0.376235	0.638588
C55	C	1.451633	-0.123773	0.225641
C56	C	1.951633	0.376227	0.725641
C57	C	1.431148	-0.000045	0.258750
C58	C	1.931148	0.499955	0.758750
C59	C	1.435597	-0.000027	0.084643
C60	C	1.935597	0.499973	0.584643
C61	C	1.438013	-0.000017	-0.009746
C62	C	1.938013	0.499983	0.490254
C63	C	1.428734	-0.000054	0.353145
C64	C	1.928734	0.499946	0.853145
H65	H	1.344971	-0.363176	-0.375890
H66	H	1.844971	0.136824	0.124110
C67	C	1.390389	0.259788	0.241226
C68	C	1.890389	0.759788	0.741226
N69	N	1.373446	0.362306	0.268650
N70	N	1.873446	0.862306	0.768650
C71	C	1.471708	-0.259891	0.284979
C72	C	1.971708	0.240109	0.784979
N73	N	1.486830	-0.362410	0.329671
N74	N	1.986830	0.137590	0.829671
H75	H	1.521809	-0.636908	-0.280711
H76	H	2.021809	-0.136908	0.219289
C77	C	1.056834	-0.000050	-0.431722
C78	C	1.556834	0.499950	0.068278
N79	N	1.097391	-0.000059	-0.501138
N80	N	1.597391	0.499941	-0.001138
C81	C	1.395044	0.259805	0.058426
C82	C	1.895044	0.759805	0.558426
N83	N	1.379918	0.362330	0.013739
N84	N	1.879918	0.862330	0.513739
C85	C	1.275226	-0.567691	-0.413443
C86	C	1.775226	-0.067691	0.086557
N87	N	1.197773	-0.508386	-0.455132
N88	N	1.697773	-0.008386	0.044868
C89	C	1.591523	-0.432400	-0.243161
C90	C	2.091523	0.067600	0.256839
N91	N	1.668972	-0.491708	-0.201469
N92	N	2.168972	0.008292	0.298531
C93	C	0.809916	-0.000026	-0.224871
C94	C	1.309916	0.499974	0.275129
N95	N	0.769359	-0.000019	-0.155456
N96	N	1.269359	0.499981	0.344544
H97	H	0.829789	-0.000052	-0.445458
H98	H	1.329789	0.499948	0.054542
C99	C	1.022966	-0.000026	-0.187211
C100	C	1.522966	0.499974	0.312789
N101	N	0.982409	-0.000018	-0.117795
N102	N	1.482409	0.499982	0.382205
H103	H	1.470529	-0.224500	0.111620
H104	H	1.970529	0.275500	0.611620
