data_functionalizedCrystal
_audit_creation_method	'MofGen! by Chris Wilmer'
_symmetry_space_group_name_H-M	'P1'
_symmetry_Int_Tables_number	1
_symmetry_cell_setting	triclinic
loop_
_symmetry_equiv_pos_as_xyz
  x,y,z
_cell_length_a	16.992697
_cell_length_b	10.540539
_cell_length_c	16.053833
_cell_angle_alpha	87.141877
_cell_angle_beta	92.724156
_cell_angle_gamma	92.403029
loop_
_atom_site_label
_atom_site_type_symbol
_atom_site_fract_x
_atom_site_fract_y
_atom_site_fract_z
O1	O	-1.038921	0.264246	0.069302
O2	O	-0.810618	0.261289	0.069330
O3	O	-0.929979	0.078513	0.069314
O4	O	-0.919561	0.447022	0.069318
O5	O	-0.935934	0.088658	-0.069544
O6	O	-0.816574	0.271434	-0.069529
O7	O	-1.044877	0.274391	-0.069557
Zn8	Zn	-0.931671	0.274523	-0.091589
Zn9	Zn	-0.923824	0.261157	0.091363
O10	O	-0.925517	0.457167	-0.069541
C11	C	-0.784362	0.262560	-0.000095
C12	C	-0.697254	0.251218	-0.000085
C13	C	-0.647626	0.360638	-0.000083
C14	C	-0.565781	0.349976	-0.000094
C15	C	-0.533564	0.229892	-0.000099
C16	C	-0.583198	0.120464	-0.000103
C17	C	-0.665043	0.131128	-0.000098
C18	C	-0.289720	0.185693	-0.000118
C19	C	-0.207868	0.175037	-0.000120
C20	C	-0.190457	0.404550	-0.000113
C21	C	-0.272303	0.415203	-0.000103
C22	C	-0.321931	0.305776	-0.000111
N23	N	-0.449904	0.218990	-0.000107
N24	N	-0.405589	0.316679	-0.000109
C25	C	-0.932175	0.036215	-0.000113
C26	C	-0.929838	-0.104937	-0.000109
C27	C	-0.840263	-0.296159	0.000214
C28	C	-0.842646	-0.149312	-0.000099
C29	C	-0.975199	-0.157160	-0.079409
C30	C	-0.972227	-0.303958	-0.079475
C31	C	-0.967227	-0.315858	0.078433
C32	C	-0.967985	-0.168883	0.079481
C33	C	-0.071133	0.273118	-0.000125
C34	C	-0.158241	0.284456	-0.000119
C35	C	-0.923320	0.499465	-0.000111
C36	C	-0.925658	0.640616	-0.000111
N37	N	-0.937033	0.283645	-0.216450
C38	C	-0.964605	0.330735	-0.740082
C39	C	-0.960858	0.324345	-0.652675
C40	C	-0.910980	0.239239	-0.608965
C41	C	-0.864839	0.160526	-0.652666
C42	C	-0.868582	0.166923	-0.740071
C43	C	-0.894635	0.211329	-0.347556
C44	C	-0.890897	0.204936	-0.260145
C45	C	-0.986915	0.368757	-0.260160
C46	C	-0.990657	0.375141	-0.347567
C47	C	-0.944514	0.296433	-0.391260
N48	N	-0.907151	0.232702	-0.519621
N49	N	-0.948339	0.302977	-0.480602
N50	N	-0.918469	0.252026	0.216223
H51	H	-0.150042	0.493639	-0.000108
H52	H	-0.807191	-0.113727	0.056747
C53	C	-0.939237	-0.097214	-0.159124
N54	N	-0.912145	-0.052067	-0.219164
H55	H	-1.005224	0.400033	-0.775665
H56	H	-1.031349	-0.139495	0.084262
C57	C	-0.344299	0.065317	-0.000122
N58	N	-0.385411	-0.025356	-0.000123
H59	H	-0.831012	0.102832	-0.775646
H60	H	-0.525376	0.439077	-0.000092
H61	H	-0.556961	0.022689	-0.000119
H62	H	-0.673850	0.458423	-0.000078
C63	C	-0.307735	0.547305	-0.000110
N64	N	-0.334423	0.646807	-0.000118
C65	C	-0.172433	0.042929	-0.000125
N66	N	-0.145742	-0.056569	-0.000127
H67	H	-0.850276	0.135632	-0.224558
C68	C	-0.719633	0.010757	-0.000097
N69	N	-0.760750	-0.079911	-0.000098
C70	C	-0.790431	-0.344460	0.077035
N71	N	-0.752895	-0.380853	0.134897
C72	C	-1.011616	0.410924	-0.604615
N73	N	-1.049851	0.476138	-0.568416
H74	H	-1.031275	0.444441	-0.383149
H75	H	-0.943758	-0.330518	-0.138746
H76	H	-0.808386	-0.325212	-0.056327
C77	C	-0.801031	-0.091175	-0.077015
N78	N	-0.769686	-0.047387	-0.134952
C79	C	-1.057148	-0.361056	-0.084359
N80	N	-1.121110	-0.404057	-0.088042
C81	C	-1.061869	-0.119137	-0.083416
N82	N	-1.127148	-0.090487	-0.086437
C83	C	-1.037668	0.455332	-0.212090
N84	N	-1.075896	0.520546	-0.175884
H85	H	-0.936429	-0.354251	0.138537
H86	H	-0.857064	0.147236	-0.383120
H87	H	-0.824224	0.091236	-0.617070
H88	H	-0.934767	-0.134975	0.138145
C89	C	-1.052274	-0.372335	0.079147
N90	N	-1.116329	-0.414881	0.079679
