data_functionalizedCrystal
_audit_creation_method	'MofGen! by Chris Wilmer'
_symmetry_space_group_name_H-M	'P1'
_symmetry_Int_Tables_number	1
_symmetry_cell_setting	triclinic
loop_
_symmetry_equiv_pos_as_xyz
  x,y,z
_cell_length_a	11.169417
_cell_length_b	18.050590
_cell_length_c	11.169409
_cell_angle_alpha	89.962075
_cell_angle_beta	89.979747
_cell_angle_gamma	90.019802
loop_
_atom_site_label
_atom_site_type_symbol
_atom_site_fract_x
_atom_site_fract_y
_atom_site_fract_z
Zn1	Zn	1.834903	-0.295575	-0.678486
Zn2	Zn	2.084903	-0.045575	-0.428486
Zn3	Zn	2.334903	0.204425	-0.178486
Zn4	Zn	2.584903	0.454425	0.071514
Zn5	Zn	1.834761	-0.419790	-0.477783
Zn6	Zn	2.084761	-0.169790	-0.227783
Zn7	Zn	2.334761	0.080210	0.022217
Zn8	Zn	2.584761	0.330210	0.272217
Zn9	Zn	1.634186	-0.295621	-0.477821
Zn10	Zn	1.884186	-0.045621	-0.227821
Zn11	Zn	2.134186	0.204379	0.022179
Zn12	Zn	2.384186	0.454379	0.272179
Zn13	Zn	1.634167	-0.419730	-0.678429
Zn14	Zn	1.884167	-0.169730	-0.428429
Zn15	Zn	2.134167	0.080270	-0.178429
Zn16	Zn	2.384167	0.330270	0.071571
O17	O	1.734504	-0.357679	-0.578130
O18	O	1.984504	-0.107679	-0.328130
O19	O	2.234504	0.142321	-0.078130
O20	O	2.484504	0.392321	0.171870
O21	O	2.002833	-0.312058	-0.651870
O22	O	2.252833	-0.062058	-0.401870
O23	O	2.502833	0.187942	-0.151870
O24	O	2.752833	0.437942	0.098130
O25	O	1.808102	-0.403363	-0.309838
O26	O	2.058102	-0.153363	-0.059838
O27	O	2.308102	0.096637	0.190162
O28	O	2.558102	0.346637	0.440162
O29	O	1.660879	-0.191690	-0.504480
O30	O	1.910879	0.058310	-0.254480
O31	O	2.160879	0.308310	-0.004480
O32	O	2.410879	0.558310	0.245520
O33	O	2.002729	-0.403318	-0.504414
O34	O	2.252729	-0.153318	-0.254414
O35	O	2.502729	0.096682	-0.004414
O36	O	2.752729	0.346682	0.245586
O37	O	1.808344	-0.191656	-0.651907
O38	O	2.058344	0.058344	-0.401907
O39	O	2.308344	0.308344	-0.151907
O40	O	2.558344	0.558344	0.098093
O41	O	1.660741	-0.312136	-0.309866
O42	O	1.910741	-0.062136	-0.059866
O43	O	2.160741	0.187864	0.190134
O44	O	2.410741	0.437864	0.440134
O45	O	1.466234	-0.312079	-0.504424
O46	O	1.716234	-0.062079	-0.254424
O47	O	1.966234	0.187921	-0.004424
O48	O	2.216234	0.437921	0.245576
O49	O	1.660847	-0.403217	-0.846386
O50	O	1.910847	-0.153217	-0.596386
O51	O	2.160847	0.096783	-0.346386
O52	O	2.410847	0.346783	-0.096386
O53	O	1.466220	-0.403261	-0.651810
O54	O	1.716220	-0.153261	-0.401810
O55	O	1.966220	0.096739	-0.151810
O56	O	2.216220	0.346739	0.098190
O57	O	1.808326	-0.312000	-0.846428
O58	O	2.058326	-0.062000	-0.596428
O59	O	2.308326	0.188000	-0.346428
O60	O	2.558326	0.438000	-0.096428
O61	O	1.808084	-0.523707	-0.504359
O62	O	2.058084	-0.273707	-0.254359
O63	O	2.308084	-0.023707	-0.004359
O64	O	2.558084	0.226293	0.245641
O65	O	1.660709	-0.523663	-0.651773
O66	O	1.910709	-0.273663	-0.401773
O67	O	2.160709	-0.023663	-0.151773
O68	O	2.410709	0.226337	0.098227
C69	C	1.422679	-0.357669	-0.578116
C70	C	1.672679	-0.107669	-0.328116
C71	C	1.922679	0.142331	-0.078116
C72	C	2.172679	0.392331	0.171884
C73	C	1.289279	-0.357683	-0.578138
C74	C	1.539279	-0.107683	-0.328138
C75	C	1.789279	0.142317	-0.078138
C76	C	2.039279	0.392317	0.171862
C77	C	1.734412	-0.550631	-0.578082
C78	C	1.984412	-0.300631	-0.328082
C79	C	2.234412	-0.050631	-0.078082
C80	C	2.484412	0.199369	0.171918
C81	C	1.734482	-0.633177	-0.578101
C82	C	1.984482	-0.383177	-0.328101
C83	C	2.234482	-0.133177	-0.078101
C84	C	2.484482	0.116823	0.171899
C85	C	1.814791	-0.832624	-0.498050
C86	C	2.064791	-0.582624	-0.248050
C87	C	2.314791	-0.332624	0.001950
C88	C	2.564791	-0.082624	0.251950
C89	C	1.844117	-0.881945	-0.607586
C90	C	2.094117	-0.631945	-0.357586
C91	C	2.344117	-0.381945	-0.107586
C92	C	2.594117	-0.131945	0.142414
C93	C	1.734550	-0.784307	-0.578149
C94	C	1.984550	-0.534307	-0.328149
C95	C	2.234550	-0.284307	-0.078149
C96	C	2.484550	-0.034307	0.171851
C97	C	1.705347	-0.882068	-0.468663
C98	C	1.955347	-0.632068	-0.218663
C99	C	2.205347	-0.382068	0.031337
C100	C	2.455347	-0.132068	0.281337
C101	C	1.734618	-0.930292	-0.578186
C102	C	1.984618	-0.680292	-0.328186
C103	C	2.234618	-0.430292	-0.078186
C104	C	2.484618	-0.180292	0.171814
C105	C	1.763932	-0.832541	-0.687743
C106	C	2.013932	-0.582541	-0.437743
C107	C	2.263932	-0.332541	-0.187743
C108	C	2.513932	-0.082541	0.062257
C109	C	1.625111	-0.832659	-0.548746
C110	C	1.875111	-0.582659	-0.298746
C111	C	2.125111	-0.332659	-0.048746
C112	C	2.375111	-0.082659	0.201254
C113	C	1.654395	-0.881958	-0.658357
C114	C	1.904395	-0.631958	-0.408357
C115	C	2.154395	-0.381958	-0.158357
C116	C	2.404395	-0.131958	0.091643
C117	C	1.734514	-0.700209	-0.578127
C118	C	1.984514	-0.450209	-0.328127
C119	C	2.234514	-0.200209	-0.078127
C120	C	2.484514	0.049791	0.171873
C121	C	1.734654	-1.014389	-0.578221
C122	C	1.984654	-0.764389	-0.328221
C123	C	2.234654	-0.514389	-0.078221
C124	C	2.484654	-0.264389	0.171779
C125	C	2.047546	-0.357690	-0.578144
C126	C	2.297546	-0.107690	-0.328144
C127	C	2.547546	0.142310	-0.078144
C128	C	2.797546	0.392310	0.171856
C129	C	2.180946	-0.357694	-0.578150
C130	C	2.430946	-0.107694	-0.328150
C131	C	2.680946	0.142306	-0.078150
C132	C	2.930946	0.392306	0.171850
C133	C	1.734600	-0.357597	-0.891172
C134	C	1.984600	-0.107597	-0.641172
C135	C	2.234600	0.142403	-0.391172
C136	C	2.484600	0.392403	-0.141172
C137	C	1.734641	-0.357562	-1.024572
C138	C	1.984641	-0.107562	-0.774572
C139	C	2.234641	0.142438	-0.524572
C140	C	2.484641	0.392438	-0.274572
C141	C	1.734629	-0.163973	-0.578204
C142	C	1.984629	0.086027	-0.328204
C143	C	2.234629	0.336027	-0.078204
C144	C	2.484629	0.586027	0.171796
C145	C	1.734683	-0.081428	-0.578236
C146	C	1.984683	0.168572	-0.328236
C147	C	2.234683	0.418572	-0.078236
C148	C	2.484683	0.668572	0.171764
C149	C	1.734477	-0.357707	-0.266305
C150	C	1.984477	-0.107707	-0.016305
C151	C	2.234477	0.142293	0.233695
C152	C	2.484477	0.392293	0.483695
C153	C	1.734669	-0.357533	-0.132905
C154	C	1.984669	-0.107533	0.117095
C155	C	2.234669	0.142467	0.367095
C156	C	2.484669	0.392467	0.617095
H157	H	1.882672	-0.810962	-0.430382
H158	H	2.132672	-0.560962	-0.180382
H159	H	2.382672	-0.310962	0.069618
H160	H	2.632672	-0.060962	0.319618
H161	H	1.586567	-0.903483	-0.726189
H162	H	1.836567	-0.653483	-0.476189
H163	H	2.086567	-0.403483	-0.226189
H164	H	2.336567	-0.153483	0.023811
H165	H	1.532558	-0.810992	-0.523820
H166	H	1.782558	-0.560992	-0.273820
H167	H	2.032558	-0.310992	-0.023820
H168	H	2.282558	-0.060992	0.226180
H169	H	1.680619	-0.903822	-0.376056
H170	H	1.930619	-0.653822	-0.126056
H171	H	2.180619	-0.403822	0.123944
H172	H	2.430619	-0.153822	0.373944
H173	H	1.788568	-0.810879	-0.780429
H174	H	2.038568	-0.560879	-0.530429
H175	H	2.288568	-0.310879	-0.280429
H176	H	2.538568	-0.060879	-0.030429
F177	F	1.965128	-0.910232	-0.640140
F178	F	2.215128	-0.660232	-0.390140
F179	F	2.465128	-0.410232	-0.140140
F180	F	2.715128	-0.160232	0.109860
