data_functionalizedCrystal
_audit_creation_method	'MofGen! by Chris Wilmer'
_symmetry_space_group_name_H-M	'P1'
_symmetry_Int_Tables_number	1
_symmetry_cell_setting	triclinic
loop_
_symmetry_equiv_pos_as_xyz
  x,y,z
_cell_length_a	10.723024
_cell_length_b	10.723024
_cell_length_c	9.798715
_cell_angle_alpha	89.998022
_cell_angle_beta	90.002487
_cell_angle_gamma	95.532131
loop_
_atom_site_label
_atom_site_type_symbol
_atom_site_fract_x
_atom_site_fract_y
_atom_site_fract_z
O1	O	1.657187	-0.175024	0.113450
O2	O	2.157187	0.324976	0.613450
O3	O	1.294035	-0.191778	0.113460
O4	O	1.794035	0.308222	0.613460
O5	O	1.483988	-0.001825	0.113450
O6	O	1.983988	0.498175	0.613450
O7	O	1.467234	-0.364977	0.113460
O8	O	1.967234	0.135023	0.613460
O9	O	1.483974	-0.001824	-0.113532
O10	O	1.983974	0.498176	0.386468
O11	O	1.294021	-0.191777	-0.113522
O12	O	1.794021	0.308223	0.386478
O13	O	1.657173	-0.175024	-0.113532
O14	O	2.157173	0.324976	0.386468
Zn15	Zn	1.475595	-0.183401	-0.149565
Zn16	Zn	1.975595	0.316599	0.350435
Zn17	Zn	1.475613	-0.183401	0.149493
Zn18	Zn	1.975613	0.316599	0.649493
O19	O	1.467220	-0.364977	-0.113522
O20	O	1.967220	0.135023	0.386478
C21	C	1.247528	-0.190558	-0.000029
C22	C	1.747528	0.309442	0.499971
C23	C	1.108974	-0.186911	-0.000025
C24	C	1.608974	0.313089	0.499975
C25	C	1.482762	0.044675	-0.000040
C26	C	1.982762	0.544675	0.499960
C27	C	1.479114	0.183229	-0.000035
C28	C	1.979114	0.683229	0.499965
C29	C	1.703680	-0.176243	-0.000040
C30	C	2.203680	0.323757	0.499960
C31	C	1.842234	-0.179891	-0.000035
C32	C	2.342234	0.320109	0.499965
N33	N	1.475591	-0.183399	-0.353665
N34	N	1.975591	0.316601	0.146335
C35	C	1.917217	-0.073603	-0.000036
C36	C	2.417217	0.426397	0.499964
C37	C	2.060420	-0.077371	-0.000031
C38	C	2.560420	0.422629	0.499969
C39	C	1.468447	-0.411477	-0.000029
C40	C	1.968447	0.088523	0.499971
C41	C	1.472094	-0.550031	-0.000025
C42	C	1.972094	-0.050031	0.499975
C43	C	1.585401	0.258212	-0.000036
C44	C	2.085401	0.758212	0.499964
C45	C	1.581634	0.401415	-0.000031
C46	C	2.081634	0.901415	0.499969
C47	C	1.555347	-0.103292	-0.421446
C48	C	2.055347	0.396708	0.078554
C49	C	1.555367	-0.103288	-0.578609
C50	C	2.055367	0.396712	-0.078609
N51	N	1.475627	-0.183393	0.353593
N52	N	1.975627	0.316607	0.853593
H53	H	1.875395	0.020182	-0.000062
H54	H	2.375395	0.520182	0.499938
C55	C	1.383357	-0.276047	-0.432449
C56	C	1.883357	0.223953	0.067551
N57	N	1.313884	-0.345831	-0.491787
N58	N	1.813884	0.154169	0.008213
H59	H	2.124853	0.013619	-0.000023
H60	H	2.624853	0.513619	0.499977
C61	C	1.704563	0.488458	-0.000033
C62	C	2.204563	0.988458	0.499967
N63	N	1.797157	0.554022	-0.000033
N64	N	2.297157	1.054022	0.499967
H65	H	2.044549	-0.277906	-0.000019
H66	H	2.544549	0.222094	0.499981
C67	C	1.898727	-0.306597	-0.000030
C68	C	2.398727	0.193403	0.499970
N69	N	1.941276	-0.402035	-0.000024
N70	N	2.441276	0.097965	0.499976
H71	H	1.679187	0.216390	-0.000047
H72	H	2.179187	0.716390	0.499953
C73	C	1.349160	0.362934	-0.000022
C74	C	1.849160	0.862934	0.499978
N75	N	1.256566	0.297370	-0.000017
N76	N	1.756566	0.797370	0.499983
H77	H	1.385328	0.225051	-0.000023
H78	H	1.885328	0.725051	0.499977
C79	C	1.647616	-0.010631	-0.657353
C80	C	2.147616	0.489369	-0.157353
N81	N	1.717099	0.059163	-0.716666
N82	N	2.217099	0.559163	-0.216666
C83	C	1.647555	-0.010619	-0.342663
C84	C	2.147555	0.489381	0.157337
N85	N	1.717003	0.059191	-0.283324
N86	N	2.217003	0.559191	0.216676
H87	H	1.407345	-0.251984	-0.588127
H88	H	1.907345	0.248016	-0.088127
