data_functionalizedCrystal
_audit_creation_method	'MofGen! by Chris Wilmer'
_symmetry_space_group_name_H-M	'P1'
_symmetry_Int_Tables_number	1
_symmetry_cell_setting	triclinic
loop_
_symmetry_equiv_pos_as_xyz
  x,y,z
_cell_length_a	29.839131
_cell_length_b	11.169417
_cell_length_c	11.169409
_cell_angle_alpha	90.020564
_cell_angle_beta	89.959939
_cell_angle_gamma	89.957701
loop_
_atom_site_label
_atom_site_type_symbol
_atom_site_fract_x
_atom_site_fract_y
_atom_site_fract_z
Zn1	Zn	-0.178807	-1.834712	-0.678478
Zn2	Zn	-0.253948	-1.834490	-0.477767
Zn3	Zn	-0.178834	-1.633995	-0.477812
Zn4	Zn	-0.253912	-1.633896	-0.678412
O5	O	-0.216375	-1.734273	-0.578117
O6	O	-0.188778	-2.002632	-0.651862
O7	O	-0.244011	-1.807842	-0.309823
O8	O	-0.115963	-1.660755	-0.504477
O9	O	-0.243984	-2.002469	-0.504401
O10	O	-0.115943	-1.808221	-0.651905
O11	O	-0.188825	-1.660540	-0.309856
O12	O	-0.188789	-1.466032	-0.504413
O13	O	-0.243922	-1.660587	-0.846371
O14	O	-0.243949	-1.465960	-0.651794
O15	O	-0.188743	-1.808125	-0.846419
O16	O	-0.316810	-1.807746	-0.504337
O17	O	-0.316784	-1.660371	-0.651750
C18	C	-0.216368	-1.422449	-0.578102
C19	C	-0.216376	-1.289049	-0.578124
C20	C	-0.333098	-1.734057	-0.578058
C21	C	-0.383032	-1.734074	-0.578073
C22	C	-0.216325	-1.734370	-0.891160
C23	C	-0.216304	-1.734411	-1.024560
C24	C	-0.692677	-1.811151	-0.501472
C25	C	-0.880350	-1.811299	-0.501518
O26	O	-0.904616	-1.876661	-0.436344
N27	N	-0.903817	-1.734522	-0.578208
C28	C	-0.880363	-1.657708	-0.654897
O29	O	-0.904630	-1.592417	-0.720136
C30	C	-0.692691	-1.657567	-0.654856
C31	C	-0.669226	-1.734340	-0.578152
C32	C	-0.669212	-1.887919	-0.424776
C33	C	-0.622296	-1.887877	-0.424760
C34	C	-0.598846	-1.811066	-0.501441
C35	C	-0.622311	-1.734298	-0.578137
C36	C	-0.669238	-1.580760	-0.731550
C37	C	-0.622317	-1.580734	-0.731535
C38	C	-0.598852	-1.657507	-0.654831
C39	C	-0.551945	-1.657445	-0.654802
N40	N	-0.528478	-1.734222	-0.578112
C41	C	-0.551928	-1.811033	-0.501432
C42	C	-0.978894	-1.657786	-0.654912
C43	C	-1.025812	-1.657820	-0.654921
C44	C	-1.025795	-1.811413	-0.501543
C45	C	-0.978876	-1.811372	-0.501529
C46	C	-0.955427	-1.734563	-0.578222
C47	C	-0.453402	-1.810937	-0.501404
C48	C	-0.406483	-1.810884	-0.501392
C49	C	-0.406503	-1.657296	-0.654773
C50	C	-0.453419	-1.657344	-0.654782
C51	C	-0.476867	-1.734174	-0.578093
O52	O	-0.527650	-1.592127	-0.719952
O53	O	-0.527653	-1.876333	-0.436221
C54	C	-0.739592	-1.811194	-0.501487
C55	C	-0.763057	-1.734425	-0.578183
C56	C	-0.739607	-1.657615	-0.654864
C57	C	-0.809975	-1.734459	-0.578192
C58	C	-0.833425	-1.811270	-0.501512
C59	C	-0.809958	-1.888047	-0.424822
C60	C	-0.763043	-1.888004	-0.424807
C61	C	-0.763074	-1.580838	-0.731553
C62	C	-0.809989	-1.580885	-0.731562
C63	C	-0.833440	-1.657696	-0.654881
C64	C	-0.099197	-1.734524	-0.578203
C65	C	-0.049262	-1.734630	-0.578240
C66	C	-0.216382	-2.047316	-0.578134
C67	C	-0.216385	-2.180716	-0.578140
C68	C	-0.216392	-1.734247	-0.266293
C69	C	-0.216287	-1.734438	-0.132893
H70	H	-0.387379	-1.873402	-0.438927
H71	H	-0.603227	-1.518188	-0.793991
H72	H	-1.044896	-1.873955	-0.439107
H73	H	-0.688300	-1.950474	-0.362333
H74	H	-0.688335	-1.518237	-0.794004
O75	O	-1.048672	-1.583274	-0.729310
C76	C	-1.120953	-1.515302	-0.797380
C77	C	-1.095122	-1.599760	-0.713042
H78	H	-1.158513	-1.528619	-0.784274
H79	H	-1.111804	-1.418503	-0.776220
H80	H	-1.111662	-1.536316	-0.894154
H81	H	-1.104400	-1.578854	-0.616240
H82	H	-1.104274	-1.696533	-0.734305
O83	O	-0.476106	-1.885602	-0.426793
C84	C	-0.471125	-2.037976	-0.274701
C85	C	-0.445358	-1.953469	-0.359123
H86	H	-0.446276	-2.092886	-0.219986
H87	H	-0.493118	-1.982984	-0.211819
H88	H	-0.493062	-2.100681	-0.329870
H89	H	-0.423397	-1.890746	-0.304050
H90	H	-0.423393	-2.008535	-0.422007
H91	H	-0.603194	-1.950396	-0.362305
H92	H	-0.959774	-1.873888	-0.439071
O93	O	-0.383697	-1.582864	-0.729388
C94	C	-0.330655	-1.566641	-0.891336
C95	C	-0.356465	-1.651061	-0.806921
H96	H	-0.308624	-1.621743	-0.954026
H97	H	-0.355459	-1.511791	-0.946257
H98	H	-0.308748	-1.503875	-0.836151
H99	H	-0.378373	-1.713900	-0.862013
H100	H	-0.331636	-1.705826	-0.751996
O101	O	-0.476197	-1.582893	-0.729454
C102	C	-0.490488	-1.524507	-0.933563
C103	C	-0.464677	-1.608904	-0.849122
H104	H	-0.481177	-1.545491	-1.030331
H105	H	-0.528055	-1.537742	-0.920514
H106	H	-0.481318	-1.427739	-0.912341
H107	H	-0.473810	-1.705705	-0.870292
H108	H	-0.427116	-1.595566	-0.862187
O109	O	-0.740322	-1.962701	-0.350264
C110	C	-0.745275	-2.114996	-0.198087
C111	C	-0.771057	-2.030476	-0.282468
H112	H	-0.770113	-2.169796	-0.143235
H113	H	-0.723281	-2.177793	-0.253174
H114	H	-0.723337	-2.059898	-0.135322
H115	H	-0.793020	-2.085478	-0.345250
H116	H	-0.793023	-1.967675	-0.227307
O117	O	-0.832812	-1.962653	-0.350476
C118	C	-0.905091	-2.030784	-0.282567
C119	C	-0.879263	-1.946233	-0.366812
H120	H	-0.942651	-2.017520	-0.295727
H121	H	-0.895850	-2.127555	-0.303768
H122	H	-0.895889	-2.009810	-0.185765
H123	H	-0.888451	-1.967099	-0.463642
H124	H	-0.888506	-1.849488	-0.345508
H125	H	-0.829091	-1.518357	-0.794022
H126	H	-0.743984	-1.518291	-0.793998
H127	H	-0.959804	-1.595236	-0.717366
