data_functionalizedCrystal
_audit_creation_method	'MofGen! by Chris Wilmer'
_symmetry_space_group_name_H-M	'P1'
_symmetry_Int_Tables_number	1
_symmetry_cell_setting	triclinic
loop_
_symmetry_equiv_pos_as_xyz
  x,y,z
_cell_length_a	19.288840
_cell_length_b	16.974813
_cell_length_c	18.366186
_cell_angle_alpha	86.339196
_cell_angle_beta	89.983729
_cell_angle_gamma	83.260449
loop_
_atom_site_label
_atom_site_type_symbol
_atom_site_fract_x
_atom_site_fract_y
_atom_site_fract_z
O1	O	0.921541	0.098544	-0.066477
O2	O	1.421541	0.598544	0.433523
O3	O	0.719302	0.111871	-0.067237
O4	O	1.219302	0.611871	0.432763
O5	O	0.826059	-0.009917	-0.060070
O6	O	1.326059	0.490083	0.439930
O7	O	0.814784	0.220332	-0.073643
O8	O	1.314784	0.720332	0.426357
O9	O	0.826041	-0.009923	0.061029
O10	O	1.326041	0.490077	0.561029
O11	O	0.719284	0.111865	0.053863
O12	O	1.219284	0.611865	0.553863
O13	O	0.921523	0.098538	0.054623
O14	O	1.421523	0.598538	0.554623
Zn15	Zn	0.820401	0.105200	0.073470
Zn16	Zn	1.320401	0.605200	0.573470
Zn17	Zn	0.820424	0.105208	-0.086084
Zn18	Zn	1.320424	0.605208	0.413916
O19	O	0.814766	0.220326	0.047457
O20	O	1.314766	0.720326	0.547457
C21	C	0.693415	0.111442	-0.006658
C22	C	1.193415	0.611442	0.493342
C23	C	0.616309	0.110165	-0.006573
C24	C	1.116309	0.610165	0.493427
C25	C	0.580114	0.109555	-0.072551
C26	C	1.080114	0.609555	0.427449
C27	C	0.507665	0.108346	-0.072488
C28	C	1.007665	0.608346	0.427512
C29	C	0.471415	0.107731	-0.006444
C30	C	0.971415	0.607731	0.493556
C31	C	0.507618	0.108346	0.059542
C32	C	1.007618	0.608346	0.559542
C33	C	0.580065	0.109563	0.059477
C34	C	1.080065	0.609563	0.559477
C35	C	0.361993	0.059487	0.046961
C36	C	0.861993	0.559487	0.546961
C37	C	0.289548	0.058265	0.047023
C38	C	0.789548	0.558265	0.547023
C39	C	0.247965	0.103981	-0.006242
C40	C	0.747965	0.603981	0.493758
C41	C	0.278836	0.150909	-0.059581
C42	C	0.778836	0.650909	0.440419
C43	C	0.351283	0.152126	-0.059646
C44	C	0.851283	0.652126	0.440354
C45	C	0.392859	0.106412	-0.006367
C46	C	0.892859	0.606412	0.493633
C47	C	0.133212	0.102061	-0.072156
C48	C	0.633212	0.602061	0.427844
C49	C	0.060761	0.100857	-0.072091
C50	C	0.560761	0.600857	0.427909
C51	C	0.060717	0.100849	0.059941
C52	C	0.560717	0.600849	0.559941
C53	C	0.133165	0.102061	0.059874
C54	C	0.633165	0.602061	0.559874
C55	C	0.169409	0.102663	-0.006177
C56	C	0.669409	0.602663	0.493823
C57	C	0.825621	-0.039377	0.002215
C58	C	1.325621	0.460623	0.502215
C59	C	0.824334	-0.127149	0.007385
C60	C	1.324334	0.372851	0.507385
C61	C	0.823741	-0.168377	-0.056197
C62	C	1.323741	0.331623	0.443803
C63	C	0.822527	-0.250848	-0.051337
C64	C	1.322527	0.249152	0.448663
C65	C	0.821911	-0.292090	0.017105
C66	C	1.321911	0.207910	0.517105
C67	C	0.822503	-0.250856	0.080692
C68	C	1.322503	0.249144	0.580692
C69	C	0.823711	-0.168386	0.075832
C70	C	1.323711	0.331614	0.575832
C71	C	0.818291	-0.538738	0.038721
C72	C	1.318291	-0.038738	0.538721
C73	C	0.817084	-0.621214	0.043577
C74	C	1.317084	-0.121214	0.543577
C75	C	0.817107	-0.621200	-0.088453
C76	C	1.317107	-0.121200	0.411547
C77	C	0.818320	-0.538730	-0.093308
C78	C	1.318320	-0.038730	0.406692
C79	C	0.818908	-0.497502	-0.029721
C80	C	1.318908	0.002498	0.470279
N81	N	0.820673	-0.376388	0.022075
N82	N	1.320673	0.123612	0.522075
N83	N	0.820141	-0.413204	-0.034691
N84	N	1.320141	0.086796	0.465309
C85	C	0.947410	0.098966	-0.005957
C86	C	1.447410	0.598966	0.494043
C87	C	1.024516	0.100244	-0.006047
C88	C	1.524516	0.600244	0.493953
C89	C	0.815204	0.249785	-0.014830
C90	C	1.315204	0.749785	0.485170
C91	C	0.816491	0.337558	-0.020005
C92	C	1.316491	0.837558	0.479995
N93	N	0.820389	0.105195	0.182362
N94	N	1.320389	0.605195	0.682362
N95	N	0.820441	0.105208	-0.194975
N96	N	1.320441	0.605208	0.305025
C97	C	0.867677	0.051293	0.223634
C98	C	1.367677	0.551293	0.723634
C99	C	0.867681	0.051290	0.299862
C100	C	1.367681	0.551290	0.799862
C101	C	0.820405	0.105201	0.334814
C102	C	1.320405	0.605201	0.834814
C103	C	0.773108	0.159106	0.293533
C104	C	1.273108	0.659106	0.793533
C105	C	0.773101	0.159103	0.217306
C106	C	1.273101	0.659103	0.717306
C107	C	0.811236	0.177247	0.451328
C108	C	1.311236	0.677247	0.951328
C109	C	0.811249	0.177251	0.527553
C110	C	1.311249	0.677251	1.027553
C111	C	0.820424	0.105211	0.569921
C112	C	1.320424	0.605211	1.069921
C113	C	0.829603	0.033163	0.536055
C114	C	1.329603	0.533163	1.036055
C115	C	0.829595	0.033160	0.459829
C116	C	1.329595	0.533160	0.959829
C117	C	0.820408	0.105210	0.417468
C118	C	1.320408	0.605210	0.917468
C119	C	0.867719	0.051301	0.693849
C120	C	1.367719	0.551301	1.193849
C121	C	0.867719	0.051297	0.770078
C122	C	1.367719	0.551297	1.270078
C123	C	0.773149	0.159120	0.763747
C124	C	1.273149	0.659120	1.263747
C125	C	0.773147	0.159118	0.687519
C126	C	1.273147	0.659118	1.187519
C127	C	0.820435	0.105209	0.652575
C128	C	1.320435	0.605209	1.152575
H129	H	0.244980	0.188138	-0.102953
H130	H	0.744980	0.688138	0.397047
Cl131	Cl	0.841144	-0.057408	0.589310
Cl132	Cl	1.341144	0.442592	1.089310
Cl133	Cl	0.250743	-0.000710	0.114091
Cl134	Cl	0.750743	0.499290	0.614091
Cl135	Cl	0.821783	-0.302674	-0.131273
Cl136	Cl	1.321783	0.197326	0.368727
H137	H	0.818822	-0.505156	-0.149041
H138	H	1.318822	-0.005156	0.350959
H139	H	0.609534	0.110061	0.113205
H140	H	1.109534	0.610061	0.613205
Cl141	Cl	0.390090	0.211121	-0.126694
Cl142	Cl	0.890090	0.711121	0.373306
H143	H	0.803752	0.235915	0.416838
H144	H	1.303752	0.735915	0.916838
H145	H	0.478189	0.107850	-0.126216
H146	H	0.978189	0.607850	0.373784
Cl147	Cl	0.816368	-0.673033	-0.168385
Cl148	Cl	1.316368	-0.173033	0.331615
Cl149	Cl	0.625673	0.110315	-0.155585
Cl150	Cl	1.125673	0.610315	0.344415
Cl151	Cl	0.927164	-0.016473	0.649917
Cl152	Cl	1.427164	0.483527	1.149917
H153	H	0.816579	-0.654791	0.099315
H154	H	1.316579	-0.154791	0.599315
Cl155	Cl	0.821720	-0.302702	0.166735
Cl156	Cl	1.321720	0.197298	0.666735
H157	H	0.824246	-0.134804	-0.111931
H158	H	1.324246	0.365196	0.388069
Cl159	Cl	0.927167	-0.016475	0.821966
Cl160	Cl	1.427167	0.483525	1.321966
H161	H	0.395845	0.022257	0.090340
H162	H	0.895845	0.522257	0.590340
H163	H	0.734614	0.203001	0.321995
H164	H	1.234614	0.703001	0.821995
Cl165	Cl	0.841124	-0.057410	0.417257
Cl166	Cl	1.341124	0.442590	0.917257
H167	H	0.734593	0.202997	0.183702
H168	H	1.234593	0.702997	0.683702
Cl169	Cl	0.819018	-0.486919	0.118660
Cl170	Cl	1.319018	0.013081	0.618660
H171	H	0.162723	0.102560	-0.125939
H172	H	0.662723	0.602560	0.374061
Cl173	Cl	0.824456	-0.116556	0.155767
Cl174	Cl	1.324456	0.383444	0.655767
H175	H	0.478099	0.107848	0.113315
H176	H	0.978099	0.607848	0.613315
Cl177	Cl	0.927120	-0.016480	0.179704
Cl178	Cl	1.427120	0.483520	0.679704
Cl179	Cl	0.927134	-0.016477	0.351755
Cl180	Cl	1.427134	0.483523	0.851755
H181	H	0.031292	0.100365	-0.125820
H182	H	0.531292	0.600365	0.374180
Cl183	Cl	0.713711	0.226889	0.807682
Cl184	Cl	1.213711	0.726889	1.307682
H185	H	0.734643	0.203013	0.653913
H186	H	1.234643	0.703013	1.153913
Cl187	Cl	0.799716	0.267824	0.570119
Cl188	Cl	1.299716	0.767824	1.070119
H189	H	0.031202	0.100354	0.113715
H190	H	0.531202	0.600354	0.613715
H191	H	0.162636	0.102553	0.113600
H192	H	0.662636	0.602553	0.613600
