data_functionalizedCrystal
_audit_creation_method	'MofGen! by Chris Wilmer'
_symmetry_space_group_name_H-M	'P1'
_symmetry_Int_Tables_number	1
_symmetry_cell_setting	triclinic
loop_
_symmetry_equiv_pos_as_xyz
  x,y,z
_cell_length_a	11.792241
_cell_length_b	16.109301
_cell_length_c	15.186229
_cell_angle_alpha	89.994833
_cell_angle_beta	89.999155
_cell_angle_gamma	96.172552
loop_
_atom_site_label
_atom_site_type_symbol
_atom_site_fract_x
_atom_site_fract_y
_atom_site_fract_z
O1	O	1.505908	-0.113953	0.073146
O2	O	1.175464	-0.125697	0.073167
O3	O	1.349763	0.001163	0.073147
O4	O	1.331608	-0.240814	0.073166
O5	O	1.349752	0.001165	-0.073310
O6	O	1.175452	-0.125695	-0.073290
O7	O	1.505896	-0.113951	-0.073311
Zn8	Zn	1.340672	-0.119823	-0.096554
Zn9	Zn	1.340687	-0.119826	0.096410
O10	O	1.331596	-0.240812	-0.073291
C11	C	1.133173	-0.124959	-0.000059
C12	C	1.007179	-0.122751	-0.000051
C13	C	1.349022	0.032142	-0.000082
C14	C	1.346817	0.124448	-0.000083
C15	C	1.332338	-0.271791	-0.000060
C16	C	1.334542	-0.364097	-0.000053
C17	C	0.776502	-0.118690	-0.000077
C18	C	0.904868	-0.120946	-0.000063
C19	C	1.548186	-0.114690	-0.000083
C20	C	1.674181	-0.116898	-0.000085
N21	N	1.340670	-0.119821	-0.228247
C22	C	1.445116	0.346258	-0.000075
C23	C	1.443036	0.432988	-0.000068
C24	C	1.236235	0.414087	-0.000058
C25	C	1.238317	0.327358	-0.000060
C26	C	1.342761	0.293446	-0.000072
C27	C	1.338599	0.466905	-0.000064
C28	C	1.336342	0.560942	-0.000056
C29	C	1.345018	0.199404	-0.000079
C30	C	1.417876	-0.063666	-0.453978
C31	C	1.417880	-0.063664	-0.546168
C32	C	1.263484	-0.175978	-0.546159
C33	C	1.263476	-0.175976	-0.453971
C34	C	1.340678	-0.119821	-0.407883
C35	C	1.340690	-0.119821	-0.592261
C36	C	1.340693	-0.119820	-0.692217
C37	C	1.340674	-0.119821	-0.307921
N38	N	1.340699	-0.119821	0.228102
H39	H	1.530161	0.318650	-0.000084
H40	H	1.526384	0.475984	-0.000069
C41	C	1.121357	0.451393	-0.000057
H42	H	1.134774	0.510610	-0.000066
H43	H	1.079209	0.433294	0.051016
H44	H	1.079218	0.433300	-0.051136
C45	C	1.502795	-0.001896	-0.596873
H46	H	1.491737	-0.009931	-0.658378
H47	H	1.578534	-0.011296	-0.581763
H48	H	1.490482	0.053655	-0.581768
C49	C	1.125720	0.269262	-0.000059
H50	H	1.063219	0.301879	-0.000064
H51	H	1.122237	0.235031	0.051013
H52	H	1.122237	0.235042	-0.051139
C53	C	1.178579	-0.237751	-0.596859
H54	H	1.189647	-0.229718	-0.658365
H55	H	1.102836	-0.228354	-0.581758
H56	H	1.190893	-0.293301	-0.581740
C57	C	1.178565	-0.237753	-0.403259
H58	H	1.189613	-0.229703	-0.341755
H59	H	1.190872	-0.293301	-0.418359
H60	H	1.102819	-0.228351	-0.418368
C61	C	1.502784	-0.001891	-0.403284
H62	H	1.548753	0.031557	-0.443944
H63	H	1.550016	-0.032026	-0.367314
H64	H	1.461959	0.032922	-0.367331
