data_functionalizedCrystal
_audit_creation_method	'MofGen! by Chris Wilmer'
_symmetry_space_group_name_H-M	'P1'
_symmetry_Int_Tables_number	1
_symmetry_cell_setting	triclinic
loop_
_symmetry_equiv_pos_as_xyz
  x,y,z
_cell_length_a	12.594517
_cell_length_b	10.686285
_cell_length_c	10.686551
_cell_angle_alpha	99.084519
_cell_angle_beta	85.602596
_cell_angle_gamma	94.368645
loop_
_atom_site_label
_atom_site_type_symbol
_atom_site_fract_x
_atom_site_fract_y
_atom_site_fract_z
Zn1	Zn	1.700434	0.450169	-0.679064
Zn2	Zn	1.700348	0.678749	-0.450561
Zn3	Zn	1.509753	0.466522	-0.466819
Zn4	Zn	1.535124	0.662366	-0.662759
O5	O	1.611415	0.564452	-0.564801
O6	O	1.849371	0.480504	-0.648772
O7	O	1.664412	0.664297	-0.275087
O8	O	1.524466	0.286731	-0.508601
O9	O	1.849308	0.648440	-0.480892
O10	O	1.664558	0.274716	-0.664536
O11	O	1.524382	0.508375	-0.287032
O12	O	1.364171	0.492489	-0.492792
O13	O	1.567706	0.620517	-0.842553
O14	O	1.382810	0.636374	-0.636748
O15	O	1.689159	0.464617	-0.854532
O16	O	1.689013	0.854199	-0.465083
O17	O	1.567623	0.842162	-0.620984
C18	C	1.631092	0.894234	-0.539527
C19	C	1.639610	1.035312	-0.528758
C20	C	1.334870	0.564429	-0.564766
C21	C	1.216567	0.564448	-0.564778
C22	C	1.631272	0.538916	-0.895888
C23	C	1.639734	0.528034	-1.036977
C24	C	1.137147	0.486060	-0.486651
C25	C	1.071403	0.604238	-0.446565
C26	C	1.071517	0.446325	-0.604881
C27	C	1.152381	0.682691	-0.524627
C28	C	1.152499	0.524696	-0.683003
C29	C	1.086794	0.642950	-0.642955
C30	C	1.889040	0.564475	-0.564837
C31	C	2.007347	0.564485	-0.564853
C32	C	1.591692	0.233380	-0.590201
C33	C	1.583287	0.092297	-0.601025
C34	C	1.591690	0.589797	-0.235009
C35	C	1.583413	0.600321	-0.093948
H36	H	1.035953	0.637884	-0.346615
H37	H	1.187601	0.782639	-0.490629
H38	H	1.064554	0.709339	-0.709050
H39	H	1.694341	1.094463	-0.458632
H40	H	1.187971	0.491017	-0.782926
H41	H	1.159590	0.419848	-0.420488
H42	H	1.036104	0.346431	-0.638724
H43	H	1.694435	0.457821	-1.096146
H44	H	1.528551	1.033155	-0.671138
O45	O	1.518308	0.684161	-1.023228
C46	C	1.579253	0.772010	-0.940286
H47	H	1.656080	0.728752	-0.924006
H48	H	1.531387	0.796127	-0.845696
H49	H	1.599575	0.862187	-0.984084
