data_functionalizedCrystal
_audit_creation_method	'MofGen! by Chris Wilmer'
_symmetry_space_group_name_H-M	'P1'
_symmetry_Int_Tables_number	1
_symmetry_cell_setting	triclinic
loop_
_symmetry_equiv_pos_as_xyz
  x,y,z
_cell_length_a	12.827892
_cell_length_b	11.169417
_cell_length_c	11.169409
_cell_angle_alpha	90.021683
_cell_angle_beta	89.966914
_cell_angle_gamma	89.985670
loop_
_atom_site_label
_atom_site_type_symbol
_atom_site_fract_x
_atom_site_fract_y
_atom_site_fract_z
Zn1	Zn	-0.415978	-1.834920	-0.678596
Zn2	Zn	-0.082645	-1.501587	-0.345263
Zn3	Zn	0.250689	-1.168254	-0.011929
Zn4	Zn	-0.590765	-1.834792	-0.477910
Zn5	Zn	-0.257432	-1.501459	-0.144577
Zn6	Zn	0.075901	-1.168125	0.188756
Zn7	Zn	-0.416036	-1.634206	-0.477924
Zn8	Zn	-0.082702	-1.300873	-0.144591
Zn9	Zn	0.250631	-0.967539	0.188743
Zn10	Zn	-0.590674	-1.634196	-0.678549
Zn11	Zn	-0.257341	-1.300863	-0.345215
Zn12	Zn	0.075992	-0.967529	-0.011882
O13	O	-0.503363	-1.734529	-0.578245
O14	O	-0.170030	-1.401195	-0.244911
O15	O	0.163303	-1.067862	0.088422
O16	O	-0.439178	-2.002853	-0.651989
O17	O	-0.105844	-1.669520	-0.318655
O18	O	0.227489	-1.336186	0.014678
O19	O	-0.567649	-1.808134	-0.309962
O20	O	-0.234316	-1.474801	0.023371
O21	O	0.099017	-1.141468	0.356704
O22	O	-0.269792	-1.660889	-0.504569
O23	O	0.063541	-1.327556	-0.171236
O24	O	0.396875	-0.994223	0.162098
O25	O	-0.567593	-2.002759	-0.504546
O26	O	-0.234260	-1.669425	-0.171212
O27	O	0.099073	-1.336092	0.162121
O28	O	-0.269750	-1.808353	-0.652002
O29	O	0.063584	-1.475020	-0.318669
O30	O	0.396917	-1.141686	0.014665
O31	O	-0.439276	-1.660765	-0.309972
O32	O	-0.105943	-1.327431	0.023361
O33	O	0.227390	-0.994098	0.356694
O34	O	-0.439188	-1.466255	-0.504523
O35	O	-0.105855	-1.132922	-0.171190
O36	O	0.227479	-0.799588	0.162144
O37	O	-0.567438	-1.660872	-0.846505
O38	O	-0.234105	-1.327538	-0.513171
O39	O	0.099228	-0.994205	-0.179838
O40	O	-0.567494	-1.466248	-0.651921
O41	O	-0.234161	-1.132914	-0.318588
O42	O	0.099172	-0.799581	0.014745
O43	O	-0.439090	-1.808343	-0.846540
O44	O	-0.105756	-1.475010	-0.513206
O45	O	0.227577	-1.141676	-0.179873
O46	O	-0.736989	-1.808124	-0.504500
O47	O	-0.403656	-1.474791	-0.171167
O48	O	-0.070323	-1.141458	0.162167
O49	O	-0.736923	-1.660747	-0.651908
O50	O	-0.403589	-1.327414	-0.318575
O51	O	-0.070256	-0.994081	0.014759
C52	C	-0.503338	-1.422704	-0.578219
C53	C	-0.170005	-1.089370	-0.244886
C54	C	0.163328	-0.756037	0.088448
C55	C	-0.503353	-1.289304	-0.578237
C56	C	-0.170020	-0.955971	-0.244903
C57	C	0.163314	-0.622637	0.088430
C58	C	-0.774873	-1.734453	-0.578224
C59	C	-0.441540	-1.401120	-0.244890
C60	C	-0.108207	-1.067787	0.088443
C61	C	-0.891026	-1.734531	-0.578255
C62	C	-0.557693	-1.401198	-0.244921
C63	C	-0.224360	-1.067864	0.088412
C64	C	-0.942810	-1.807545	-0.505393
C65	C	-0.609476	-1.474211	-0.172060
C66	C	-0.276143	-1.140878	0.161273
C67	C	-1.062860	-1.807626	-0.505424
C68	C	-0.729527	-1.474293	-0.172090
C69	C	-0.396193	-1.140960	0.161243
C70	C	-0.230793	-1.734637	-0.578292
C71	C	0.102540	-1.401303	-0.244959
C72	C	0.435873	-1.067970	0.088374
C73	C	-0.114640	-1.734683	-0.578312
C74	C	0.218693	-1.401349	-0.244979
C75	C	0.552027	-1.068016	0.088354
C76	C	-0.503247	-1.734621	-0.891287
C77	C	-0.169914	-1.401287	-0.557954
C78	C	0.163419	-1.067954	-0.224621
C79	C	-0.503198	-1.734660	-1.024687
C80	C	-0.169865	-1.401327	-0.691354
C81	C	0.163469	-1.067993	-0.358021
C82	C	-0.503380	-1.047571	-0.578262
C83	C	-0.170047	-0.714237	-0.244928
C84	C	0.163286	-0.380904	0.088405
C85	C	-0.503365	-1.180971	-0.578244
C86	C	-0.170032	-0.847637	-0.244911
C87	C	0.163301	-0.514304	0.088422
C88	C	-0.503404	-1.734506	-0.266420
C89	C	-0.170070	-1.401172	0.066913
C90	C	0.163263	-1.067839	0.400247
C91	C	-0.503159	-1.734699	-0.133021
C92	C	-0.169825	-1.401366	0.200313
C93	C	0.163508	-1.068032	0.533646
H94	H	-1.107392	-1.870133	-0.443041
H95	H	-0.774059	-1.536799	-0.109708
H96	H	-0.440726	-1.203466	0.223625
O97	O	-0.944270	-1.660194	-0.652764
O98	O	-0.610937	-1.326860	-0.319430
O99	O	-0.277604	-0.993527	0.013903
C100	C	-1.007280	-1.728595	-0.730314
C101	C	-0.673947	-1.395262	-0.396981
C102	C	-0.340613	-1.061929	-0.063647
H103	H	-1.023486	-1.819599	-0.688054
H104	H	-0.690153	-1.486266	-0.354721
H105	H	-0.356820	-1.152933	-0.021387
H106	H	-1.084102	-1.679835	-0.746296
H107	H	-0.750768	-1.346502	-0.412962
H108	H	-0.417435	-1.013169	-0.079629
H109	H	-0.965206	-1.741662	-0.819299
H110	H	-0.631873	-1.408329	-0.485966
H111	H	-0.298540	-1.074996	-0.152633
H112	H	-0.898269	-1.869999	-0.442995
H113	H	-0.564936	-1.536666	-0.109662
H114	H	-0.231602	-1.203332	0.223671
H115	H	-1.070116	-1.672165	-0.640691
H116	H	-0.736782	-1.338831	-0.307357
H117	H	-0.403449	-1.005498	0.025976
