data_functionalizedCrystal
_audit_creation_method	'MofGen! by Chris Wilmer'
_symmetry_space_group_name_H-M	'P1'
_symmetry_Int_Tables_number	1
_symmetry_cell_setting	triclinic
loop_
_symmetry_equiv_pos_as_xyz
  x,y,z
_cell_length_a	10.685980
_cell_length_b	13.897441
_cell_length_c	10.686285
_cell_angle_alpha	94.395280
_cell_angle_beta	90.334291
_cell_angle_gamma	85.604122
loop_
_atom_site_label
_atom_site_type_symbol
_atom_site_fract_x
_atom_site_fract_y
_atom_site_fract_z
Zn1	Zn	1.956340	-0.639584	0.352402
Zn2	Zn	1.972336	-0.466950	0.562209
Zn3	Zn	1.746550	-0.465046	0.368533
Zn4	Zn	1.762649	-0.614961	0.578189
O5	O	1.859469	-0.546635	0.465333
O6	O	2.134015	-0.627785	0.366795
O7	O	1.942342	-0.331710	0.536581
O8	O	1.760947	-0.497706	0.190846
O9	O	2.145767	-0.500952	0.520939
O10	O	1.915079	-0.625938	0.178995
O11	O	1.776458	-0.330310	0.394288
O12	O	1.573133	-0.473831	0.409783
O13	O	1.788386	-0.753216	0.548175
O14	O	1.584961	-0.583973	0.563816
O15	O	1.930690	-0.771305	0.382290
O16	O	1.957952	-0.477077	0.739876
O17	O	1.803896	-0.585820	0.751616
C18	C	1.533528	-0.526024	0.490285
C19	C	1.394092	-0.517228	0.500989
C20	C	1.859549	-0.798240	0.465216
C21	C	1.859584	-0.905459	0.465165
C22	C	1.859611	-1.101761	0.465078
C23	C	1.859592	-0.992524	0.465130
C24	C	2.186682	-0.567327	0.440285
C25	C	2.326121	-0.576145	0.429611
C26	C	1.884441	-0.529006	0.791261
C27	C	1.895239	-0.521504	0.930685
C28	C	1.859454	-0.296019	0.465355
C29	C	1.859636	-0.188835	0.465033
C30	C	1.834433	-0.564356	0.138130
C31	C	1.823765	-0.571908	-0.001304
H32	H	1.754312	-0.620802	0.950261
O33	O	1.329884	-0.441481	0.592791
H34	H	1.275119	-0.477391	0.661220
O35	O	1.390324	-0.651884	0.337809
H36	H	1.493441	-0.647147	0.343527
O37	O	1.987263	-0.456744	0.994834
H38	H	1.981603	-0.460822	1.097949
