data_functionalizedCrystal
_audit_creation_method	'MofGen! by Chris Wilmer'
_symmetry_space_group_name_H-M	'P1'
_symmetry_Int_Tables_number	1
_symmetry_cell_setting	triclinic
loop_
_symmetry_equiv_pos_as_xyz
  x,y,z
_cell_length_a	12.594517
_cell_length_b	12.594516
_cell_length_c	19.805407
_cell_angle_alpha	90.007334
_cell_angle_beta	89.992240
_cell_angle_gamma	90.011939
loop_
_atom_site_label
_atom_site_type_symbol
_atom_site_fract_x
_atom_site_fract_y
_atom_site_fract_z
Zn1	Zn	1.627065	-0.424025	0.382562
Zn2	Zn	2.127065	0.075975	0.882562
Zn3	Zn	1.627015	-0.601977	0.269387
Zn4	Zn	2.127015	-0.101977	0.769387
Zn5	Zn	1.449128	-0.424000	0.269407
Zn6	Zn	1.949128	0.076000	0.769407
Zn7	Zn	1.449051	-0.601949	0.382555
Zn8	Zn	1.949051	-0.101949	0.882555
O9	O	1.538065	-0.512988	0.325978
O10	O	2.038065	-0.012988	0.825978
O11	O	1.776004	-0.447653	0.367544
O12	O	2.276004	0.052347	0.867544
O13	O	1.603430	-0.578369	0.174673
O14	O	2.103430	-0.078369	0.674673
O15	O	1.472785	-0.275057	0.284429
O16	O	1.972785	0.224943	0.784429
O17	O	1.775968	-0.578393	0.284395
O18	O	2.275968	-0.078393	0.784395
O19	O	1.603514	-0.275076	0.367563
O20	O	2.103514	0.224924	0.867563
O21	O	1.472737	-0.447610	0.174688
O22	O	1.972737	0.052390	0.674688
O23	O	1.300172	-0.447583	0.284422
O24	O	1.800172	0.052417	0.784422
O25	O	1.472653	-0.578346	0.477272
O26	O	1.972653	-0.078346	0.977272
O27	O	1.300115	-0.578322	0.367551
O28	O	1.800115	-0.078322	0.867551
O29	O	1.603439	-0.447626	0.477278
O30	O	2.103439	0.052374	0.977278
O31	O	1.603355	-0.750919	0.284388
O32	O	2.103355	-0.250919	0.784388
O33	O	1.472605	-0.750899	0.367531
O34	O	1.972605	-0.250899	0.867531
C35	C	1.261524	-0.512947	0.325988
C36	C	1.761524	-0.012947	0.825988
C37	C	1.143219	-0.512956	0.326009
C38	C	1.643219	-0.012956	0.826009
C39	C	1.073965	-0.584204	0.371135
C40	C	1.573965	-0.084204	0.871135
C41	C	1.003148	-0.487167	0.387780
C42	C	1.503148	0.012833	0.887780
C43	C	1.003237	-0.610073	0.309349
C44	C	1.503237	-0.110073	0.809349
C45	C	1.073959	-0.415867	0.342686
C46	C	1.573959	0.084133	0.842686
C47	C	1.074055	-0.538839	0.264226
C48	C	1.574055	-0.038839	0.764226
C49	C	1.003269	-0.441735	0.280847
C50	C	1.503269	0.058265	0.780847
C51	C	1.537995	-0.789529	0.325971
C52	C	2.037995	-0.289529	0.825971
C53	C	1.538063	-0.907834	0.325991
C54	C	2.038063	-0.407834	0.825991
C55	C	1.466941	-0.977115	0.371181
C56	C	1.966941	-0.477115	0.871181
C57	C	1.441040	-1.047946	0.309422
C58	C	1.941040	-0.547946	0.809422
C59	C	1.564060	-1.047802	0.387761
C60	C	2.064060	-0.547802	0.887761
C61	C	1.512111	-0.977107	0.264199
C62	C	2.012111	-0.477107	0.764199
C63	C	1.635176	-0.976956	0.342579
C64	C	2.135176	-0.476956	0.842579
C65	C	1.609312	-1.047756	0.280778
C66	C	2.109312	-0.547756	0.780778
C67	C	1.815686	-0.513029	0.325968
C68	C	2.315686	-0.013029	0.825968
C69	C	1.933991	-0.513046	0.325964
C70	C	2.433991	-0.013046	0.825964
C71	C	1.538043	-0.512986	0.502521
C72	C	2.038043	-0.012986	1.002521
C73	C	1.538034	-0.512985	0.577753
C74	C	2.038034	-0.012985	1.077753
C75	C	1.538164	-0.235367	0.325999
C76	C	2.038164	0.264633	0.825999
C77	C	1.538206	-0.117061	0.326008
C78	C	2.038206	0.382939	0.826008
C79	C	1.606121	-0.581086	1.039533
C80	C	2.106121	-0.081086	1.539533
C81	C	1.606112	-0.581086	0.968845
C82	C	2.106112	-0.081086	1.468845
C83	C	1.538064	-0.513007	0.933514
C84	C	2.038064	-0.013007	1.433514
C85	C	1.470014	-0.444929	0.968876
C86	C	1.970014	0.055071	1.468876
C87	C	1.470018	-0.444935	1.039563
C88	C	1.970018	0.055065	1.539563
C89	C	1.469992	-0.444907	0.683802
C90	C	1.969992	0.055093	1.183802
C91	C	1.469995	-0.444905	0.613110
C92	C	1.969995	0.055095	1.113110
C93	C	1.606086	-0.581059	0.613084
C94	C	2.106086	-0.081059	1.113084
C95	C	1.606091	-0.581064	0.683772
C96	C	2.106091	-0.081064	1.183772
C97	C	1.538037	-0.512991	0.719127
C98	C	2.038037	-0.012991	1.219127
C99	C	1.538046	-0.512993	0.795775
C100	C	2.038046	-0.012993	1.295775
C101	C	1.538059	-0.512999	0.856867
C102	C	2.038059	-0.012999	1.356867
C103	C	1.538076	-0.513013	1.150122
C104	C	2.038076	-0.013013	1.650122
C105	C	1.538078	-0.513011	1.074890
C106	C	2.038078	-0.013011	1.574890
H107	H	0.972423	-0.381452	0.242666
H108	H	1.472423	0.118548	0.742666
N109	N	1.679514	-0.654512	1.077643
N110	N	2.179514	-0.154512	1.577643
H111	H	1.755569	-0.637995	1.065334
H112	H	2.255569	-0.137995	1.565334
H113	H	1.662862	-0.730529	1.065321
H114	H	2.162862	-0.230529	1.565321
N115	N	1.593114	-1.088946	0.456941
N116	N	2.093114	-0.588946	0.956941
H117	H	1.539283	-1.063251	0.491030
H118	H	2.039283	-0.563251	0.991030
H119	H	1.665909	-1.062007	0.469758
H120	H	2.165909	-0.562007	0.969758
H121	H	1.490085	-0.946183	0.211954
H122	H	1.990085	-0.446183	0.711954
H123	H	1.104896	-0.333750	0.356817
H124	H	1.604896	0.166250	0.856817
N125	N	1.387147	-0.936010	0.421732
N126	N	1.887147	-0.436010	0.921732
H127	H	1.350513	-0.997836	0.444369
H128	H	1.850513	-0.497836	0.944369
H129	H	1.332737	-0.890811	0.397726
H130	H	1.832737	-0.390811	0.897726
H131	H	1.414579	-0.389463	0.584346
H132	H	1.914579	0.110537	1.084346
N133	N	1.689063	-1.088586	0.230111
N134	N	2.189063	-0.588586	0.730111
H135	H	1.651594	-1.133798	0.195375
H136	H	2.151594	-0.633798	0.695375
H137	H	1.744382	-1.132634	0.254142
H138	H	2.244382	-0.632634	0.754142
N139	N	1.679475	-0.654499	0.721881
N140	N	2.179475	-0.154499	1.221881
H141	H	1.728818	-0.611256	0.751209
H142	H	2.228818	-0.111256	1.251209
H143	H	1.722507	-0.697615	0.688715
H144	H	2.222507	-0.197615	1.188715
H145	H	1.414577	-0.389479	0.712580
H146	H	1.914577	0.110521	1.212580
N147	N	1.396612	-0.371504	0.930773
N148	N	1.896612	0.128496	1.430773
H149	H	1.406935	-0.381826	0.880627
H150	H	1.906935	0.118174	1.380627
H151	H	1.413205	-0.295491	0.943137
H152	H	1.913205	0.204509	1.443137
N153	N	1.743851	-0.935620	0.361179
N154	N	2.243851	-0.435620	0.861179
H155	H	1.763372	-0.961288	0.407865
H156	H	2.263372	-0.461288	0.907865
H157	H	1.743077	-0.855440	0.360557
H158	H	2.243077	-0.355440	0.860557
N159	N	1.115358	-0.567836	0.195067
N160	N	1.615358	-0.067836	0.695067
H161	H	1.159484	-0.507413	0.176703
H162	H	1.659484	-0.007413	0.676703
H163	H	1.053568	-0.581752	0.163794
H164	H	1.553568	-0.081752	0.663794
N165	N	0.962086	-0.718810	0.290701
N166	N	1.462086	-0.218810	0.790701
H167	H	0.987805	-0.772533	0.324838
H168	H	1.487805	-0.272533	0.824838
H169	H	0.989000	-0.738780	0.244371
H170	H	1.489000	-0.238780	0.744371
N171	N	0.961878	-0.458206	0.456957
N172	N	1.461878	0.041794	0.956957
H173	H	1.023631	-0.445702	0.488503
H174	H	1.523631	0.054298	0.988503
H175	H	0.916599	-0.518100	0.474877
H176	H	1.416599	-0.018100	0.974877
N177	N	1.679497	-0.654511	0.930708
N178	N	2.179497	-0.154511	1.430708
H179	H	1.722611	-0.697637	0.963814
H180	H	2.222611	-0.197637	1.463814
H181	H	1.728763	-0.611188	0.901376
H182	H	2.228763	-0.111188	1.401376
N183	N	1.332339	-1.089242	0.290831
N184	N	1.832339	-0.589242	0.790831
H185	H	1.278609	-1.063551	0.324984
H186	H	1.778609	-0.563551	0.824984
H187	H	1.333464	-1.169423	0.290531
H188	H	1.833464	-0.669423	0.790531
N189	N	1.679488	-0.654485	0.574951
N190	N	2.179488	-0.154485	1.074951
H191	H	1.669058	-0.644259	0.524810
H192	H	2.169058	-0.144259	1.024810
H193	H	1.662996	-0.730494	0.587370
H194	H	2.162996	-0.230494	1.087370
N195	N	1.396622	-0.371520	1.077702
N196	N	1.896622	0.128480	1.577702
H197	H	1.413170	-0.295468	1.065414
H198	H	1.913170	0.204532	1.565414
H199	H	1.406985	-0.381955	1.127830
H200	H	1.906985	0.118045	1.627830
N201	N	1.115086	-0.663871	0.421742
N202	N	1.615086	-0.163871	0.921742
H203	H	1.089289	-0.644210	0.468383
H204	H	1.589289	-0.144210	0.968383
H205	H	1.195269	-0.663722	0.421040
H206	H	1.695269	-0.163722	0.921040
