data_functionalizedCrystal
_audit_creation_method	'MofGen! by Chris Wilmer'
_symmetry_space_group_name_H-M	'P1'
_symmetry_Int_Tables_number	1
_symmetry_cell_setting	triclinic
loop_
_symmetry_equiv_pos_as_xyz
  x,y,z
_cell_length_a	21.606444
_cell_length_b	27.440280
_cell_length_c	21.606444
_cell_angle_alpha	89.996802
_cell_angle_beta	59.991153
_cell_angle_gamma	59.997005
loop_
_atom_site_label
_atom_site_type_symbol
_atom_site_fract_x
_atom_site_fract_y
_atom_site_fract_z
Zr1	Zr	0.677455	0.469497	-0.081358
O2	O	0.806599	0.391675	-0.180203
O3	O	0.548321	0.493353	-0.051042
O4	O	0.677456	0.493348	-0.180186
O5	O	0.677459	0.391684	0.050796
O6	O	0.677447	0.573550	-0.180189
O7	O	0.677464	0.391679	-0.051058
O8	O	0.446446	0.573558	0.050826
O9	O	0.908459	0.391675	-0.180220
O10	O	0.601425	0.563381	-0.038133
O11	O	0.601429	0.503530	0.037882
O12	O	0.753469	0.503525	-0.114168
O13	O	0.753474	0.443674	-0.038153
Zr14	Zr	0.677432	0.597416	0.081082
Zr15	Zr	0.677439	0.597409	-0.081364
Zr16	Zr	0.677448	0.469503	0.081088
Zr17	Zr	0.839910	0.469497	-0.081385
Zr18	Zr	0.514977	0.597415	0.081109
O19	O	0.806567	0.573560	0.050766
O20	O	0.806577	0.573551	-0.180211
O21	O	0.806589	0.391684	0.050774
O22	O	0.548288	0.675238	0.179927
O23	O	0.548298	0.675228	-0.051050
O24	O	0.548311	0.493362	0.179935
O25	O	0.677428	0.675229	-0.051072
O26	O	0.677431	0.573564	0.179910
O27	O	0.677441	0.493362	0.179913
O28	O	0.677424	0.675233	0.050783
O29	O	0.908447	0.493349	-0.180224
O30	O	0.446441	0.573563	0.179948
O31	O	0.446428	0.675237	0.179944
O32	O	0.446434	0.675232	0.050821
O33	O	0.908454	0.391680	-0.051097
O34	O	0.908441	0.493354	-0.051102
O35	O	0.601418	0.563387	0.113892
O36	O	0.601414	0.623238	0.037877
O37	O	0.753459	0.563382	-0.038158
O38	O	0.753463	0.503531	0.037857
C39	C	0.474237	0.533455	-0.000104
C40	C	0.405271	0.533455	-0.000092
C41	C	0.429013	0.489267	-0.056219
C42	C	0.364224	0.489269	-0.056234
C43	C	0.275693	0.533456	-0.000120
C44	C	0.251950	0.577648	0.056009
C45	C	0.316739	0.577649	0.056021
C46	C	-0.009336	0.577648	0.055961
C47	C	-0.074125	0.577643	0.055946
C48	C	0.038149	0.489268	-0.056294
C49	C	0.102937	0.489268	-0.056282
C50	C	0.079190	0.533462	-0.000156
C51	C	0.149442	0.533461	-0.000140
C52	C	0.205441	0.533456	-0.000132
C53	C	0.677464	0.373457	-0.000131
C54	C	0.677470	0.319154	-0.000128
C55	C	0.677427	-0.017546	-0.056251
C56	C	0.677420	-0.068564	-0.056252
O57	O	0.677390	-0.094940	-0.103957
N58	N	0.677420	-0.094079	-0.000140
C59	C	0.677416	-0.068571	0.055979
O60	O	0.677414	-0.094958	0.103707
C61	C	0.677416	-0.017551	0.055982
C62	C	0.677426	0.007958	-0.000137
C63	C	0.677435	0.007964	-0.112366
C64	C	0.677443	0.058978	-0.112366
C65	C	0.677442	0.084482	-0.056252
C66	C	0.677434	0.058972	-0.000137
C67	C	0.677406	0.007959	0.112105
C68	C	0.677406	0.058982	0.112103
C69	C	0.677415	0.084491	0.055984
C70	C	0.677441	0.135490	0.055977
N71	N	0.677442	0.161005	-0.000135
C72	C	0.677442	0.135501	-0.056249
C73	C	0.677415	-0.175714	0.055970
C74	C	0.677421	-0.226735	0.055965
C75	C	0.677424	-0.226724	-0.056266
C76	C	0.677424	-0.175705	-0.056263
C77	C	0.677416	-0.150199	-0.000142
C78	C	0.677460	0.242634	-0.056245
C79	C	0.677471	0.293650	-0.056242
C80	C	0.677464	0.293636	0.055990
C81	C	0.677457	0.242622	0.055985
C82	C	0.677452	0.217123	-0.000136
O83	O	0.677468	0.161900	0.103660
O84	O	0.677433	0.161899	-0.103963
C85	C	0.880650	0.533457	-0.000172
C86	C	0.949617	0.533457	-0.000184
C87	C	0.677453	0.533448	-0.203333
C88	C	0.677455	0.533445	-0.272295
C89	C	0.677424	0.693456	-0.000145
C90	C	0.677417	0.747758	-0.000148
C91	C	0.756821	0.502201	-0.344383
C92	C	0.756818	0.502206	-0.409178
C93	C	0.677450	0.533452	-0.401883
C94	C	0.598078	0.564701	-0.329787
C95	C	0.598082	0.564699	-0.264994
C96	C	0.598063	0.564710	-0.591090
C97	C	0.598066	0.564709	-0.655891
C98	C	0.756800	0.502217	-0.735274
C99	C	0.756803	0.502215	-0.670481
C100	C	0.677432	0.533466	-0.598391
C101	C	0.677436	0.533461	-0.528134
C102	C	0.677445	0.533454	-0.472139
C103	C	0.677435	0.533464	0.203057
C104	C	0.677432	0.533467	0.272019
C105	C	0.474217	0.693455	-0.000111
C106	C	0.405244	0.747757	-0.000102
C107	C	0.474228	0.533463	0.203091
C108	C	0.405259	0.533466	0.272065
C109	C	0.474209	0.693463	0.203083
C110	C	0.405232	0.747768	0.272055
C111	C	0.880679	0.373449	-0.203359
C112	C	0.949655	0.319145	-0.272331
C113	C	0.880670	0.373458	-0.000165
C114	C	0.949643	0.319155	-0.000174
C115	C	0.880659	0.533449	-0.203367
C116	C	0.949629	0.533447	-0.272341
C117	C	0.372859	0.742013	-0.039781
C118	C	0.308060	0.793031	-0.039788
C119	C	0.275643	0.849792	-0.000111
C120	C	0.308035	0.855534	0.039569
C121	C	0.372837	0.804517	0.039571
C122	C	0.372865	0.564712	0.344139
C123	C	0.308070	0.564712	0.408953
C124	C	0.275666	0.533469	0.401692
C125	C	0.308066	0.502219	0.329610
C126	C	0.372865	0.502216	0.264797
C127	C	0.372838	0.804517	0.264765
C128	C	0.308037	0.855547	0.329565
C129	C	0.275626	0.849827	0.401653
C130	C	0.308027	0.793072	0.408942
C131	C	0.372831	0.742043	0.344142
C132	C	0.982057	0.262396	-0.265041
C133	C	1.046879	0.211366	-0.329841
C134	C	1.079293	0.217086	-0.401929
C135	C	1.046888	0.273841	-0.409217
C136	C	0.982072	0.324870	-0.344418
C137	C	0.982035	0.324899	0.039499
C138	C	1.046852	0.273882	0.039487
C139	C	1.079271	0.217121	-0.000192
C140	C	1.046877	0.211378	-0.039869
C141	C	0.982066	0.262395	-0.039862
C142	C	0.982012	0.564695	-0.265055
C143	C	1.046808	0.564705	-0.329857
C144	C	1.079223	0.533461	-0.401944
C145	C	1.046833	0.502212	-0.409228
C146	C	0.982034	0.502206	-0.344427
H147	H	0.677481	0.314418	-0.101944
H148	H	0.281673	0.476782	0.323709
H149	H	0.955644	0.371112	0.071815
H150	H	1.132044	0.175584	-0.000192
H151	H	0.955675	0.476757	-0.350369
H152	H	0.399252	0.695800	-0.072100
H153	H	1.073252	0.165158	-0.323892
H154	H	0.501097	0.453279	-0.101906
H155	H	0.399198	0.695837	0.350088
H156	H	0.955691	0.371076	-0.350363
H157	H	0.533435	0.590157	-0.532400
C158	C	0.314485	0.912207	0.118030
C159	C	0.272385	0.917929	0.083193
H160	H	0.292472	0.950728	0.144962
H161	H	0.303867	0.891005	0.152274
H162	H	0.375668	0.891013	0.080476
H163	H	0.211202	0.939119	0.120747
H164	H	0.282995	0.939140	0.048946
C165	C	0.677475	0.247779	-0.167187
C166	C	0.677461	0.214607	-0.117938
H167	H	0.677485	0.230472	-0.205277
H168	H	0.626705	0.287666	-0.139461
H169	H	0.728253	0.247685	-0.190233
H170	H	0.626679	0.214704	-0.094888
H171	H	0.728236	0.174710	-0.145667
C172	C	0.366320	0.440461	0.192898
C173	C	0.408457	0.467876	0.185574
H174	H	0.388289	0.419264	0.143989
H175	H	0.376958	0.413495	0.219814
H176	H	0.305137	0.470037	0.219849
H177	H	0.469641	0.438301	0.158628
H178	H	0.397827	0.494845	0.158646
H179	H	1.073282	0.165156	-0.072175
H180	H	0.281663	0.901755	0.323617
H181	H	0.399217	0.809186	0.206073
C182	C	0.527579	0.592458	-0.719967
C183	C	0.510817	0.599060	-0.647871
H184	H	0.473717	0.613661	-0.715015
H185	H	0.560186	0.607883	-0.746891
H186	H	0.560190	0.551350	-0.746884
H187	H	0.478212	0.640168	-0.620955
H188	H	0.478197	0.583638	-0.620935
H189	H	1.073216	0.278569	0.071800
C190	C	0.324472	0.658384	0.083731
C191	C	0.290640	0.626221	0.117718
H192	H	0.308352	0.688375	0.121822
H193	H	0.386462	0.632069	0.050321
H194	H	0.301532	0.676529	0.056011
H195	H	0.313585	0.608073	0.145434
H196	H	0.228637	0.652541	0.151141
C197	C	1.146198	0.474468	-0.543801
C198	C	1.082479	0.467864	-0.488470
H199	H	1.168212	0.453257	-0.592723
H200	H	1.120902	0.515569	-0.538111
H201	H	1.192703	0.459046	-0.538102
H202	H	1.035971	0.483290	-0.494167
H203	H	1.107775	0.426754	-0.494164
H204	H	0.821452	0.476752	-0.350332
C205	C	0.288038	0.814233	0.527861
C206	C	0.272386	0.786795	0.488188
H207	H	0.266025	0.810362	0.576787
H208	H	0.349216	0.795615	0.500935
H209	H	0.259476	0.855331	0.532775
H210	H	0.300954	0.745695	0.483269
H211	H	0.211197	0.805410	0.515120
H212	H	0.955694	0.257710	-0.072166
H213	H	0.821427	0.476773	-0.793980
H214	H	0.955629	0.590137	-0.206364
H215	H	0.399241	0.590153	0.350065
H216	H	0.955669	0.257727	-0.206349
C217	C	1.040283	0.626458	-0.244879
C218	C	1.082412	0.599048	-0.321838
H219	H	1.062268	0.647656	-0.239929
H220	H	0.979108	0.653424	-0.221248
H221	H	1.050916	0.596880	-0.221271
H222	H	1.071774	0.628627	-0.345445
H223	H	1.143601	0.572080	-0.345480
C224	C	0.677371	0.013107	0.223052
C225	C	0.677383	-0.020067	0.173801
H226	H	0.677348	-0.004192	0.261146
H227	H	0.728146	0.013011	0.195329
H228	H	0.626599	0.053001	0.246092
H229	H	0.728159	-0.059960	0.150757
H230	H	0.626602	-0.019977	0.201527
H231	H	1.131987	0.533471	-0.454703
H232	H	0.383564	0.453286	-0.101938
H233	H	0.175022	0.453285	-0.101973
H234	H	0.677433	-0.012795	-0.158061
C235	C	0.030426	0.408523	-0.083990
C236	C	0.064265	0.440680	-0.117989
H237	H	0.046549	0.378526	-0.122075
H238	H	0.053349	0.390392	-0.056260
H239	H	-0.031573	0.434845	-0.050586
H240	H	0.126265	0.414359	-0.151389
H241	H	0.041346	0.458811	-0.145732
C242	C	-0.178609	0.665014	0.166893
C243	C	-0.171445	0.626221	0.117628
H244	H	-0.238689	0.695003	0.204967
H245	H	-0.151018	0.643196	0.189952
H246	H	-0.150990	0.683159	0.139170
H247	H	-0.199059	0.608072	0.145350
H248	H	-0.199048	0.648042	0.094568
C249	C	0.288140	0.559315	0.527861
C250	C	0.272461	0.599067	0.488178
H251	H	0.266162	0.580526	0.576768
H252	H	0.259567	0.540713	0.532820
H253	H	0.349327	0.529752	0.500913
H254	H	0.211273	0.628628	0.515124
H255	H	0.301032	0.617679	0.483223
H256	H	0.222903	0.533477	0.454473
H257	H	-0.028683	0.613634	0.101663
H258	H	0.179862	0.613629	0.101695
C259	C	0.472139	0.754076	0.074838
C260	C	0.408417	0.810836	0.083204
H261	H	0.494103	0.757982	0.101775
H262	H	0.446862	0.732880	0.094432
H263	H	0.518676	0.732875	0.022632
H264	H	0.361877	0.832036	0.135410
H265	H	0.433694	0.832041	0.063613
H266	H	0.677448	0.079746	-0.158061
C267	C	1.172117	0.109974	-0.451522
C268	C	1.150533	0.160990	-0.473154
H269	H	1.216091	0.075342	-0.495492
H270	H	1.193352	0.109986	-0.422218
H271	H	1.121544	0.109991	-0.422196
H272	H	1.201104	0.160975	-0.502475
H273	H	1.129300	0.160977	-0.502470
H274	H	0.677431	-0.154938	-0.101960
H275	H	0.677423	-0.247498	-0.101957
C276	C	1.146241	0.223344	-0.543790
C277	C	1.082516	0.280122	-0.488462
H278	H	1.168229	0.227222	-0.592712
H279	H	1.192754	0.202158	-0.538107
H280	H	1.120952	0.202150	-0.538080
H281	H	1.107807	0.301315	-0.494168
H282	H	1.035995	0.301317	-0.494148
H283	H	0.677427	-0.247507	0.101655
H284	H	0.533455	0.590146	-0.323852
H285	H	0.533454	0.590141	-0.206296
C286	C	0.677436	-0.180868	0.166894
C287	C	0.677429	-0.147690	0.117653
H288	H	0.677451	-0.163570	0.204970
H289	H	0.626662	-0.180772	0.189952
H290	H	0.728209	-0.220760	0.139153
H291	H	0.626652	-0.107798	0.145393
H292	H	0.728209	-0.147779	0.094594
H293	H	0.677462	0.221847	0.101677
C294	C	0.752254	0.086881	0.139784
C295	C	0.677404	0.087019	0.173789
H296	H	0.752251	0.104193	0.177864
H297	H	0.803014	0.046990	0.112069
H298	H	0.752250	0.109377	0.106365
H299	H	0.677411	0.064519	0.207204
H300	H	0.626630	0.126917	0.201516
H301	H	0.821445	0.476765	-0.467874
C302	C	0.677456	0.371848	0.105819
C303	C	0.677456	0.321680	0.117673
H304	H	0.677441	0.389165	0.143905
H305	H	0.728232	0.360215	0.057379
H306	H	0.626685	0.400193	0.108146
H307	H	0.728231	0.293333	0.115340
H308	H	0.626675	0.333312	0.166125
H309	H	0.222858	0.891382	0.454411
H310	H	0.821433	0.476769	-0.676428
H311	H	0.281695	0.788343	-0.072100
H312	H	0.222877	0.891328	-0.000118
