data_functionalizedCrystal
_audit_creation_method	'MofGen! by Chris Wilmer'
_symmetry_space_group_name_H-M	'P1'
_symmetry_Int_Tables_number	1
_symmetry_cell_setting	triclinic
loop_
_symmetry_equiv_pos_as_xyz
  x,y,z
_cell_length_a	16.109301
_cell_length_b	26.210047
_cell_length_c	16.109301
_cell_angle_alpha	90.006022
_cell_angle_beta	83.461481
_cell_angle_gamma	90.013716
loop_
_atom_site_label
_atom_site_type_symbol
_atom_site_fract_x
_atom_site_fract_y
_atom_site_fract_z
O1	O	1.103146	0.042398	0.106865
O2	O	0.861084	0.042407	0.120165
O3	O	0.988765	0.042397	-0.007516
O4	O	0.975466	0.042408	0.234546
O5	O	0.988725	-0.042461	-0.007516
O6	O	0.861044	-0.042451	0.120164
O7	O	1.103106	-0.042460	0.106865
Cu8	Cu	0.982072	-0.050204	0.113515
Cu9	Cu	0.982119	0.050151	0.113515
O10	O	0.975426	-0.042450	0.234546
C11	C	0.830090	-0.000021	0.119626
C12	C	0.737794	-0.000018	0.118011
C13	C	0.515522	-0.000021	0.190018
C14	C	0.428801	-0.000024	0.188494
C15	C	0.448676	-0.000029	0.037006
C16	C	0.535394	-0.000029	0.038530
C17	C	0.568815	-0.000023	0.115039
C18	C	0.395376	-0.000026	0.111990
C19	C	0.301350	-0.000029	0.110337
C20	C	0.662847	-0.000020	0.116693
N21	N	0.982044	-0.120788	0.113514
C22	C	1.032519	-0.473301	0.163947
C23	C	1.032544	-0.686960	0.163946
O24	O	1.075440	-0.714581	0.206817
N25	N	0.982139	-0.713682	0.113507
C26	C	0.931729	-0.686985	0.063059
O27	O	0.888863	-0.714616	0.020151
C28	C	0.931709	-0.473328	0.063056
C29	C	0.982111	-0.446609	0.113505
C30	C	1.082917	-0.446582	0.214391
C31	C	1.082907	-0.393171	0.214394
C32	C	1.032499	-0.366478	0.163953
C33	C	0.982101	-0.393197	0.113508
C34	C	0.881304	-0.446633	0.012605
C35	C	0.881305	-0.393215	0.012607
C36	C	0.931707	-0.366496	0.063056
C37	C	0.931682	-0.313094	0.063070
N38	N	0.982087	-0.286372	0.113510
C39	C	1.032495	-0.313064	0.163951
C40	C	0.931741	-0.799159	0.063066
C41	C	0.931745	-0.852573	0.063068
C42	C	1.032561	-0.852544	0.163954
C43	C	1.032552	-0.799128	0.163956
C44	C	0.982146	-0.772437	0.113506
C45	C	1.032470	-0.200896	0.163954
C46	C	1.032452	-0.147480	0.163955
C47	C	0.931640	-0.147514	0.063067
C48	C	0.931653	-0.200926	0.063068
C49	C	0.982075	-0.227615	0.113515
O50	O	0.888816	-0.285439	0.020215
O51	O	1.075368	-0.285424	0.206839
C52	C	1.032529	-0.526713	0.163944
C53	C	0.982131	-0.553432	0.113499
C54	C	0.931722	-0.526739	0.063058
C55	C	0.982134	-0.606846	0.113501
C56	C	1.032543	-0.633538	0.163943
C57	C	1.082947	-0.606817	0.214382
C58	C	1.082937	-0.553405	0.214385
C59	C	0.881318	-0.553461	0.012618
C60	C	0.881331	-0.606873	0.012620
C61	C	0.931740	-0.633565	0.063061
C62	C	1.134101	-0.000031	0.107404
C63	C	1.226397	-0.000030	0.109019
C64	C	0.988206	-0.000032	-0.038491
C65	C	0.986591	-0.000033	-0.130786
N66	N	0.982153	0.120735	0.113509
C67	C	1.058599	-0.000027	-0.353059
C68	C	1.057075	-0.000023	-0.439779
C69	C	0.905586	-0.000020	-0.419905
C70	C	0.907111	-0.000020	-0.333186
C71	C	0.983620	-0.000027	-0.299766
C72	C	0.980571	-0.000022	-0.473205
C73	C	0.978918	-0.000017	-0.567231
C74	C	0.985273	-0.000030	-0.205734
C75	C	0.975984	-0.000020	0.265521
C76	C	0.977600	-0.000016	0.357816
H77	H	1.073495	-0.125728	0.205041
F78	F	1.136878	-0.000022	-0.496495
F79	F	0.592117	-0.000035	-0.041277
F80	F	0.824164	-0.000013	-0.455481
F81	F	0.551087	-0.000016	0.271446
H82	H	1.073528	-0.222621	0.205032
H83	H	0.385413	-0.000024	0.249550
F84	F	0.413100	-0.000034	-0.044416
H85	H	0.846050	-0.000018	-0.289792
H86	H	1.123953	-0.371421	0.255472
F87	F	1.136574	-0.474982	0.268082
F88	F	1.086199	-0.770697	0.217647
F89	F	1.086211	-0.880961	0.217636
F90	F	1.136578	-0.524975	0.268085
H91	H	0.890693	-0.874323	0.021997
F92	F	0.878075	-0.770758	0.009379
H93	H	0.840257	-0.371485	-0.028477
F94	F	0.827658	-0.475058	-0.041091
F95	F	1.140026	-0.000033	-0.317493
H96	H	0.890602	-0.222681	0.021999
F97	F	0.877992	-0.119097	0.009388
H98	H	0.840280	-0.628623	-0.028460
F99	F	0.827654	-0.525060	-0.041062
F100	F	1.136592	-0.635234	0.268069
