data_functionalizedCrystal
_audit_creation_method	'MofGen! by Chris Wilmer'
_symmetry_space_group_name_H-M	'P1'
_symmetry_Int_Tables_number	1
_symmetry_cell_setting	triclinic
loop_
_symmetry_equiv_pos_as_xyz
  x,y,z
_cell_length_a	19.288864
_cell_length_b	10.489741
_cell_length_c	18.366186
_cell_angle_alpha	89.994090
_cell_angle_beta	89.977106
_cell_angle_gamma	83.837710
loop_
_atom_site_label
_atom_site_type_symbol
_atom_site_fract_x
_atom_site_fract_y
_atom_site_fract_z
O1	O	0.922420	0.159110	-0.060783
O2	O	0.720303	0.180573	-0.060733
O3	O	0.825960	-0.015860	-0.060755
O4	O	0.816762	0.355543	-0.060761
O5	O	0.825942	-0.015870	0.060344
O6	O	0.720285	0.180564	0.060366
O7	O	0.922402	0.159100	0.060316
Zn8	Zn	0.821340	0.169830	0.079568
Zn9	Zn	0.821364	0.169843	-0.079985
O10	O	0.816744	0.355534	0.060338
C11	C	0.694413	0.179878	-0.000177
C12	C	0.617295	0.177805	-0.000158
C13	C	0.573372	0.293063	-0.000171
C14	C	0.500912	0.291115	-0.000179
C15	C	0.472378	0.173903	-0.000189
C16	C	0.516311	0.058629	-0.000171
C17	C	0.588770	0.060580	-0.000156
C18	C	0.363505	0.081764	-0.042638
C19	C	0.291047	0.079818	-0.042658
C20	C	0.248892	0.167880	-0.000233
C21	C	0.279202	0.257911	0.042203
C22	C	0.351661	0.259862	0.042218
C23	C	0.393810	0.171774	-0.000205
C24	C	0.126399	0.281035	-0.000254
C25	C	0.053938	0.279082	-0.000257
C26	C	0.069339	0.046593	-0.000256
C27	C	0.141798	0.048549	-0.000245
C28	C	0.170324	0.165773	-0.000248
C29	C	0.825257	-0.063381	-0.000205
C30	C	0.823178	-0.204964	-0.000206
C31	C	0.755951	-0.271583	-0.000195
C32	C	0.787700	-0.364429	0.059505
C33	C	0.787734	-0.364394	-0.059889
C34	C	0.854954	-0.295944	0.059543
C35	C	0.854979	-0.295900	-0.059905
C36	C	0.886776	-0.388719	-0.000190
C37	C	0.948292	0.159796	-0.000241
C38	C	1.025409	0.161869	-0.000265
C39	C	0.817448	0.403055	-0.000213
C40	C	0.819526	0.544637	-0.000217
N41	N	0.821329	0.169821	0.188460
N42	N	0.821381	0.169842	-0.188876
C43	C	0.868130	0.082883	0.226550
C44	C	0.868134	0.082877	0.302778
C45	C	0.821344	0.169831	0.340912
C46	C	0.774535	0.256776	0.302812
C47	C	0.774527	0.256771	0.226586
C48	C	0.812826	0.286045	0.461672
C49	C	0.812838	0.286052	0.537897
C50	C	0.821364	0.169847	0.576020
C51	C	0.829893	0.053631	0.537908
C52	C	0.829885	0.053626	0.461682
C53	C	0.821347	0.169846	0.423567
C54	C	0.868172	0.082896	0.696766
C55	C	0.868172	0.082888	0.772995
C56	C	0.774576	0.256799	0.773027
C57	C	0.774573	0.256795	0.696800
C58	C	0.821375	0.169845	0.658673
H59	H	0.244881	0.329619	0.076750
H60	H	0.397822	0.010050	-0.077190
F61	F	0.038976	-0.078155	-0.000259
F62	F	0.156760	0.405793	-0.000251
F63	F	0.007190	0.401763	-0.000268
H64	H	0.177562	-0.045307	-0.000238
H65	H	0.736437	0.327574	0.333865
F66	F	0.917949	-0.009659	0.343324
F67	F	0.724713	0.349307	0.186045
H68	H	0.906279	0.012092	0.665722
F69	F	0.485943	-0.066117	-0.000177
F70	F	0.258795	-0.015989	-0.087828
F71	F	0.635518	-0.062099	-0.000141
H72	H	0.700678	-0.220682	-0.000121
H73	H	0.376337	0.333164	0.076773
F74	F	0.892094	-0.256496	0.125587
H75	H	0.759247	-0.394801	0.109991
H76	H	0.906281	0.012086	0.804009
H77	H	0.942099	-0.439394	-0.000170
H78	H	0.596592	0.388516	-0.000175
H79	H	0.465143	0.384976	-0.000188
H80	H	0.736476	0.327594	0.804076
F81	F	0.892138	-0.256155	-0.125897
F82	F	0.750548	-0.404048	-0.125856
F83	F	0.803801	0.409736	0.421106
F84	F	0.917937	-0.009660	0.185975
H85	H	0.836827	-0.041001	0.430655
H86	H	0.736466	0.327594	0.665784
H87	H	0.836835	-0.040993	0.568946
F88	F	0.803767	0.409737	0.578451
