data_functionalizedCrystal
_audit_creation_method	'MofGen! by Chris Wilmer'
_symmetry_space_group_name_H-M	'P1'
_symmetry_Int_Tables_number	1
_symmetry_cell_setting	triclinic
loop_
_symmetry_equiv_pos_as_xyz
  x,y,z
_cell_length_a	19.288864
_cell_length_b	27.732048
_cell_length_c	18.366186
_cell_angle_alpha	89.988789
_cell_angle_beta	89.977106
_cell_angle_gamma	82.889449
loop_
_atom_site_label
_atom_site_type_symbol
_atom_site_fract_x
_atom_site_fract_y
_atom_site_fract_z
O1	O	0.920977	0.060300	-0.060791
O2	O	1.420977	0.560300	0.439209
O3	O	0.718665	0.068434	-0.060742
O4	O	1.218665	0.568434	0.439258
O5	O	0.826104	-0.006011	-0.060754
O6	O	1.326104	0.493989	0.439246
O7	O	0.813538	0.134745	-0.060779
O8	O	1.313538	0.634745	0.439221
O9	O	0.826086	-0.006014	0.060345
O10	O	1.326086	0.493986	0.560345
O11	O	0.718647	0.068430	0.060357
O12	O	1.218647	0.568430	0.560357
O13	O	0.920959	0.060296	0.060309
O14	O	1.420959	0.560296	0.560309
Zn15	Zn	0.819800	0.064363	0.079560
Zn16	Zn	1.319800	0.564363	0.579560
Zn17	Zn	0.819824	0.064368	-0.079994
Zn18	Zn	1.319824	0.564368	0.420006
O19	O	0.813520	0.134741	0.060321
O20	O	1.313520	0.634741	0.560321
C21	C	0.692781	0.068171	-0.000186
C22	C	1.192781	0.568171	0.499814
C23	C	0.615683	0.067385	-0.000167
C24	C	1.115683	0.567385	0.499833
C25	C	0.570714	0.111066	-0.000186
C26	C	1.070714	0.611066	0.499814
C27	C	0.498271	0.110328	-0.000194
C28	C	0.998271	0.610328	0.499806
C29	C	0.470801	0.065906	-0.000197
C30	C	0.970801	0.565906	0.499803
C31	C	0.515780	0.022219	-0.000174
C32	C	1.015780	0.522219	0.499826
C33	C	0.588220	0.022959	-0.000159
C34	C	1.088220	0.522959	0.499841
C35	C	0.362763	0.030987	-0.042642
C36	C	0.862763	0.530987	0.457358
C37	C	0.290323	0.030250	-0.042662
C38	C	0.790323	0.530250	0.457338
C39	C	0.247370	0.063624	-0.000241
C40	C	0.747370	0.563624	0.499759
C41	C	0.276863	0.097744	0.042190
C42	C	0.776863	0.597744	0.542190
C43	C	0.349304	0.098483	0.042206
C44	C	0.849304	0.598483	0.542206
C45	C	0.392252	0.065099	-0.000213
C46	C	0.892252	0.565099	0.499787
C47	C	0.123850	0.106507	-0.000268
C48	C	0.623850	0.606507	0.499732
C49	C	0.051406	0.105767	-0.000271
C50	C	0.551406	0.605767	0.499729
C51	C	0.068916	0.017658	-0.000258
C52	C	0.568916	0.517658	0.499742
C53	C	0.141358	0.018399	-0.000248
C54	C	0.641358	0.518399	0.499752
C55	C	0.168820	0.062825	-0.000256
C56	C	0.668820	0.562825	0.499744
C57	C	0.825831	-0.024020	-0.000202
C58	C	1.325831	0.475980	0.499798
C59	C	0.825037	-0.077678	-0.000196
C60	C	1.325037	0.422322	0.499804
C61	C	0.883526	-0.416316	-0.000248
C62	C	1.383526	0.083684	0.499752
C63	C	0.880579	-0.617985	-0.000257
C64	C	1.380579	-0.117985	0.499743
O65	O	0.934063	-0.649079	-0.000302
O66	O	1.434063	-0.149079	0.499698
N67	N	0.816872	-0.637301	-0.000241
N68	N	1.316872	-0.137301	0.499759
C69	C	0.753897	-0.606196	-0.000227
C70	C	1.253897	-0.106196	0.499773
O71	O	0.699643	-0.627253	-0.000222
O72	O	1.199643	-0.127253	0.499778
C73	C	0.756845	-0.404529	-0.000223
C74	C	1.256845	0.095471	0.499777
C75	C	0.820556	-0.385216	-0.000232
C76	C	1.320556	0.114784	0.499768
C77	C	0.947232	-0.397002	-0.000257
C78	C	1.447232	0.102998	0.499743
C79	C	0.947968	-0.346588	-0.000251
C80	C	1.447968	0.153412	0.499749
C81	C	0.884998	-0.315488	-0.000235
C82	C	1.384998	0.184512	0.499765
C83	C	0.821292	-0.334801	-0.000226
C84	C	1.321292	0.165199	0.499774
C85	C	0.693871	-0.373425	-0.000215
C86	C	1.193871	0.126575	0.499785
C87	C	0.694614	-0.323006	-0.000216
C88	C	1.194614	0.176994	0.499784
C89	C	0.758325	-0.303693	-0.000224
C90	C	1.258325	0.196307	0.499776
C91	C	0.759059	-0.253287	-0.000203
C92	C	1.259059	0.246713	0.499797
N93	N	0.822766	-0.233971	-0.000219
N94	N	1.322766	0.266029	0.499781
C95	C	0.885735	-0.265071	-0.000235
C96	C	1.385735	0.234929	0.499765
C97	C	0.752354	-0.712075	-0.000228
C98	C	1.252354	-0.212075	0.499772
C99	C	0.751617	-0.762492	-0.000228
C100	C	1.251617	-0.262492	0.499772
C101	C	0.878299	-0.774276	-0.000259
C102	C	1.378299	-0.274276	0.499741
C103	C	0.879035	-0.723859	-0.000254
C104	C	1.379035	-0.223859	0.499746
C105	C	0.816061	-0.692759	-0.000244
C106	C	1.316061	-0.192759	0.499756
C107	C	0.887276	-0.159197	-0.000221
C108	C	1.387276	0.340803	0.499779
C109	C	0.888007	-0.108778	-0.000212
C110	C	1.388007	0.391222	0.499788
C111	C	0.761325	-0.096998	-0.000185
C112	C	1.261325	0.403002	0.499815
C113	C	0.760595	-0.147412	-0.000190
C114	C	1.260595	0.352588	0.499810
C115	C	0.823576	-0.178511	-0.000211
C116	C	1.323576	0.321489	0.499789
O117	O	0.705603	-0.222164	-0.000167
O118	O	1.205603	0.277836	0.499833
O119	O	0.939982	-0.244005	-0.000257
O120	O	1.439982	0.255995	0.499743
C121	C	0.882790	-0.466730	-0.000254
C122	C	1.382790	0.033270	0.499746
C123	C	0.819084	-0.486044	-0.000245
C124	C	1.319084	0.013956	0.499755
C125	C	0.756114	-0.454943	-0.000229
C126	C	1.256114	0.045057	0.499771
C127	C	0.818347	-0.536461	-0.000244
C128	C	1.318347	-0.036461	0.499756
C129	C	0.881317	-0.567561	-0.000260
C130	C	1.381317	-0.067561	0.499740
C131	C	0.945023	-0.548245	-0.000276
C132	C	1.445023	-0.048245	0.499724
C133	C	0.945760	-0.497831	-0.000270
C134	C	1.445760	0.002169	0.499730
C135	C	0.692407	-0.474260	-0.000213
C136	C	1.192407	0.025740	0.499787
C137	C	0.691676	-0.524674	-0.000218
C138	C	1.191676	-0.024674	0.499782
C139	C	0.754646	-0.555775	-0.000234
C140	C	1.254646	-0.055775	0.499766
C141	C	0.946842	0.060560	-0.000249
C142	C	1.446842	0.560560	0.499751
C143	C	1.023941	0.061345	-0.000273
C144	C	1.523941	0.561345	0.499727
C145	C	0.813792	0.152751	-0.000233
C146	C	1.313792	0.652751	0.499767
C147	C	0.814587	0.206408	-0.000244
C148	C	1.314587	0.706408	0.499756
N149	N	0.819789	0.064359	0.188451
N150	N	1.319789	0.564359	0.688451
N151	N	0.819841	0.064367	-0.188885
N152	N	1.319841	0.564367	0.311115
C153	C	0.867378	0.031411	0.226546
C154	C	1.367378	0.531411	0.726546
C155	C	0.867383	0.031409	0.302774
C156	C	1.367383	0.531409	0.802774
C157	C	0.819804	0.064363	0.340904
C158	C	1.319804	0.564363	0.840904
C159	C	0.772206	0.097314	0.302800
C160	C	1.272206	0.597314	0.802800
C161	C	0.772198	0.097312	0.226573
C162	C	1.272198	0.597312	0.726573
C163	C	0.810231	0.108406	0.461658
C164	C	1.310231	0.608406	0.961658
C165	C	0.810244	0.108409	0.537883
C166	C	1.310244	0.608409	1.037883
C167	C	0.819824	0.064369	0.576011
C168	C	1.319824	0.564369	1.076011
C169	C	0.829406	0.020325	0.537906
C170	C	1.329406	0.520325	1.037906
C171	C	0.829398	0.020323	0.461679
C172	C	1.329398	0.520323	0.961679
C173	C	0.819807	0.064369	0.423559
C174	C	1.319807	0.564369	0.923559
C175	C	0.867421	0.031416	0.696761
C176	C	1.367421	0.531416	1.196761
C177	C	0.867420	0.031413	0.772991
C178	C	1.367420	0.531413	1.272991
C179	C	0.772247	0.097322	0.773015
C180	C	1.272247	0.597322	1.273015
C181	C	0.772244	0.097321	0.696787
C182	C	1.272244	0.597321	1.196787
C183	C	0.819835	0.064368	0.658665
C184	C	1.319835	0.564368	1.158665
H185	H	0.373315	0.126263	0.076757
H186	H	0.873315	0.626263	0.576757
H187	H	0.733466	0.124145	0.333849
H188	H	1.233466	0.624145	0.833849
H189	H	0.802418	0.144270	0.430620
H190	H	1.302418	0.644270	0.930620
F191	F	0.153080	0.153789	-0.000271
F192	F	0.653080	0.653789	0.499729
F193	F	0.231154	0.133266	0.087341
F194	F	0.731154	0.633266	0.587341
H195	H	0.938562	-0.184513	-0.000241
H196	H	1.438562	0.315487	0.499759
F197	F	1.012041	-0.581353	-0.000289
F198	F	1.512041	-0.081353	0.499711
F199	F	0.721606	0.132392	0.813592
F200	F	1.221606	0.632392	1.313592
F201	F	0.683807	-0.783040	-0.000206
F202	F	1.183807	-0.283040	0.499794
H203	H	0.014793	0.141339	-0.000282
H204	H	0.514793	0.641339	0.499718
F205	F	0.626060	-0.393969	-0.000209
F206	F	1.126060	0.106031	0.499791
H207	H	0.641128	-0.448942	-0.000201
H208	H	1.141128	0.051058	0.499799
F209	F	0.623861	-0.545223	-0.000204
F210	F	1.123861	-0.045223	0.499796
F211	F	0.945316	-0.807384	-0.000277
F212	F	1.445316	-0.307384	0.499723
H213	H	0.906127	0.004578	0.195509
H214	H	1.406127	0.504578	0.695509
F215	F	0.685324	-0.678981	-0.000218
F216	F	1.185324	-0.178981	0.499782
F217	F	0.692787	-0.167968	-0.000168
F218	F	1.192787	0.332032	0.499832
H219	H	0.906137	0.004578	0.333797
H220	H	1.406137	0.504578	0.833797
H221	H	0.837199	-0.015539	0.430657
H222	H	1.337199	0.484461	0.930657
H223	H	0.266315	0.002469	-0.077215
H224	H	0.766315	0.502469	0.422785
F225	F	0.694312	-0.063890	-0.000168
F226	F	1.194312	0.436110	0.499832
F227	F	0.955820	-0.088227	-0.000222
F228	F	1.455820	0.411773	0.499778
F229	F	0.039685	-0.029619	-0.000255
F230	F	0.539685	0.470381	0.499745
H231	H	0.643331	-0.297686	-0.000209
H232	H	1.143331	0.202314	0.499791
H233	H	0.397731	0.003809	-0.077191
H234	H	0.897731	0.503809	0.422809
H235	H	0.177973	-0.017171	-0.000236
H236	H	0.677973	0.482829	0.499764
F237	F	0.486543	-0.025057	-0.000174
F238	F	0.986543	0.474943	0.499826
H239	H	0.906171	0.004580	0.804008
H240	H	1.406171	0.504580	1.304008
F241	F	0.946844	-0.703309	-0.000263
F242	F	1.446844	-0.203309	0.499737
H243	H	0.733495	0.124152	0.665768
H244	H	1.233495	0.624152	1.165768
H245	H	0.999848	-0.330868	-0.000261
H246	H	1.499848	0.169132	0.499739
H247	H	0.733444	0.124142	0.195556
H248	H	1.233444	0.624142	0.695556
F249	F	1.013570	-0.477283	-0.000283
F250	F	1.513570	0.022717	0.499717
F251	F	0.800050	0.155283	0.578431
F252	F	1.300050	0.655283	1.078431
H253	H	0.837207	-0.015536	0.568948
H254	H	1.337207	0.484464	1.068948
H255	H	0.593069	0.147241	-0.000194
H256	H	1.093069	0.647241	0.499806
H257	H	0.906170	0.004583	0.665721
H258	H	1.406170	0.504583	1.165721
F259	F	1.014259	-0.430095	-0.000274
F260	F	1.514259	0.069905	0.499726
H261	H	0.461651	0.145899	-0.000207
H262	H	0.961651	0.645899	0.499793
F263	F	0.636082	-0.023534	-0.000138
F264	F	1.136082	0.476466	0.499862
