data_functionalizedCrystal
_audit_creation_method	'MofGen! by Chris Wilmer'
_symmetry_space_group_name_H-M	'P1'
_symmetry_Int_Tables_number	1
_symmetry_cell_setting	triclinic
loop_
_symmetry_equiv_pos_as_xyz
  x,y,z
_cell_length_a	17.640112
_cell_length_b	15.298530
_cell_length_c	15.296720
_cell_angle_alpha	91.639580
_cell_angle_beta	71.503005
_cell_angle_gamma	112.540939
loop_
_atom_site_label
_atom_site_type_symbol
_atom_site_fract_x
_atom_site_fract_y
_atom_site_fract_z
Zn1	Zn	1.154958	-0.130691	0.221408
Zn2	Zn	1.163150	-0.249685	0.048092
Zn3	Zn	1.041111	-0.135320	0.095998
Zn4	Zn	0.993482	-0.319587	0.225890
O5	O	1.088175	-0.208821	0.147847
O6	O	1.274697	-0.115284	0.176492
O7	O	1.170323	-0.207197	-0.072447
O8	O	1.072718	-0.007791	0.130807
O9	O	1.280715	-0.202709	0.049158
O10	O	1.156361	-0.004390	0.222945
O11	O	1.080661	-0.123174	-0.037250
O12	O	0.916141	-0.190955	0.135153
O13	O	0.991540	-0.321847	0.352189
O14	O	0.881148	-0.326335	0.230584
O15	O	1.110177	-0.183066	0.348896
O16	O	1.124138	-0.385873	0.053504
O17	O	0.999483	-0.437230	0.184131
C18	C	0.867879	-0.266734	0.188554
C19	C	0.773629	-0.291536	0.205987
C20	C	1.057551	-0.444458	0.114121
C21	C	1.044521	-0.545250	0.099709
C22	C	1.044632	-0.259737	0.384364
C23	C	1.026076	-0.281435	0.485154
C24	C	0.554601	-0.020390	0.015419
C25	C	0.466034	-0.043716	0.031810
C26	C	0.429666	-0.184804	0.130959
C27	C	0.518231	-0.161487	0.114581
C28	C	0.580693	-0.079279	0.056809
C29	C	0.544323	-0.220376	0.155970
C30	C	0.632882	-0.197064	0.139589
C31	C	0.695348	-0.114862	0.081818
C32	C	0.669251	-0.055967	0.040428
C33	C	0.481861	-0.302587	0.213736
C34	C	0.507952	-0.361477	0.255126
C35	C	0.596512	-0.338161	0.238750
C36	C	0.658978	-0.255959	0.180979
C37	C	0.622609	-0.397056	0.280140
C38	C	0.711167	-0.373743	0.263758
C39	C	0.747537	-0.232646	0.164597
C40	C	1.309331	-0.150683	0.106981
C41	C	1.403575	-0.125908	0.089567
C42	C	1.118939	0.027738	0.181720
C43	C	1.132049	0.128545	0.196155
C44	C	0.994815	0.405623	0.044952
C45	C	0.982501	0.310912	0.031383
C46	C	1.019886	0.265315	0.072575
C47	C	1.069589	0.314440	0.127338
C48	C	1.081909	0.409163	0.140902
C49	C	1.106981	0.268855	0.168525
C50	C	1.156683	0.317979	0.223288
C51	C	1.169001	0.412693	0.236850
C52	C	1.131616	0.458289	0.195659
C53	C	1.094660	0.174132	0.154961
C54	C	1.181755	0.177671	0.250911
C55	C	1.194069	0.272383	0.264480
C56	C	1.131607	-0.158024	-0.087750
C57	C	1.150359	-0.136028	-0.188533
C58	C	1.220847	-0.053578	0.762403
C59	C	1.238286	-0.033192	0.667705
C60	C	1.185235	-0.095251	0.622063
C61	C	1.114742	-0.177699	0.671128
C62	C	1.097305	-0.198091	0.765833
C63	C	1.061693	-0.239764	0.625493
C64	C	0.991200	-0.322212	0.674558
C65	C	0.973767	-0.342600	0.769254
C66	C	1.026818	-0.280541	0.814897
C67	C	1.079130	-0.219372	0.530787
C68	C	0.955588	-0.363885	0.534217
C69	C	0.938149	-0.384271	0.628915
H70	H	0.767457	-0.095884	0.068479
H71	H	0.457085	-0.428412	0.302161
O72	O	0.369030	-0.264750	0.186963
C73	C	0.313891	-0.435627	0.213709
C74	C	0.382594	-0.345170	0.150184
H75	H	0.324845	-0.500667	0.184008
H76	H	0.246091	-0.442260	0.218302
H77	H	0.319913	-0.430908	0.285892
H78	H	0.376652	-0.349825	0.077970
H79	H	0.450366	-0.338568	0.145671
O80	O	0.958397	0.449907	0.005096
C81	C	0.860132	0.529452	0.029363
C82	C	0.901297	0.479299	0.074625
H83	H	0.813972	0.553247	0.085555
H84	H	0.822427	0.478099	-0.012072
H85	H	0.913579	0.594204	-0.018918
H86	H	0.847905	0.414551	0.122949
H87	H	0.939022	0.530716	0.116003
H88	H	0.720111	0.010986	-0.006601
H89	H	1.141633	0.535409	0.206710
O90	O	0.808196	-0.152870	0.108340
C91	C	0.869366	-0.068277	-0.044494
C92	C	0.800641	-0.158671	0.019110
H93	H	0.863269	-0.072928	-0.116643
H94	H	0.937163	-0.061727	-0.049170
H95	H	0.858504	-0.003217	-0.014726
H96	H	0.811422	-0.223783	-0.010608
H97	H	0.732868	-0.165137	0.023784
O98	O	1.008070	0.173363	0.059302
C99	C	1.075957	0.063795	0.001599
C100	C	1.089470	0.167979	0.016551
H101	H	1.141759	0.059406	-0.032948
H102	H	1.034058	0.036480	-0.044658
H103	H	1.042043	0.018357	0.071406
H104	H	1.123408	0.213492	-0.053211
H105	H	1.131335	0.195218	0.062850
O106	O	1.202018	-0.075518	0.530098
C107	C	1.148815	-0.044328	0.412523
C108	C	1.129685	-0.066681	0.516704
H109	H	1.090354	-0.037157	0.401663
H110	H	1.161950	-0.104434	0.373502
H111	H	1.208342	0.025229	0.385282
H112	H	1.070150	-0.136210	0.544030
H113	H	1.116603	-0.006520	0.555662
O114	O	0.615260	0.059387	-0.040838
C115	C	0.676430	0.143980	-0.193672
C116	C	0.607705	0.053585	-0.130068
H117	H	0.670333	0.139328	-0.265821
H118	H	0.744227	0.150530	-0.198348
H119	H	0.665568	0.209040	-0.163904
H120	H	0.618486	-0.011526	-0.159786
H121	H	0.539932	0.047120	-0.125394
H122	H	1.264038	-0.003063	0.799573
H123	H	1.209480	0.452694	0.281433
H124	H	0.571741	-0.463994	0.327170
H125	H	1.234538	0.312392	0.309068
O126	O	0.903918	-0.424184	0.490019
C127	C	0.759311	-0.499841	0.481349
C128	C	0.817715	-0.431556	0.531506
H129	H	0.689608	-0.505808	0.514858
H130	H	0.761188	-0.573103	0.486771
H131	H	0.783920	-0.471110	0.405231
H132	H	0.793148	-0.460200	0.607641
H133	H	0.815834	-0.358305	0.526008
O134	O	0.395836	-0.325116	0.229754
C135	C	0.275714	-0.276712	0.289103
C136	C	0.373141	-0.251084	0.271034
H137	H	0.257339	-0.216863	0.322462
H138	H	0.235516	-0.345552	0.337541
H139	H	0.262175	-0.286670	0.220612
H140	H	0.386762	-0.241075	0.339477
H141	H	0.413288	-0.182267	0.222555
O142	O	1.046299	0.126279	0.101894
C143	C	0.920125	-0.008083	0.095550
C144	C	0.974832	0.046005	0.155747
H145	H	0.862322	-0.072985	0.139071
H146	H	0.961953	-0.032066	0.034605
H147	H	0.895567	0.040809	0.068418
H148	H	0.999401	-0.002831	0.182945
H149	H	0.932968	0.070001	0.216644
O150	O	0.440642	0.013381	-0.008487
C151	C	0.364702	0.025792	-0.110542
C152	C	0.393426	-0.038965	-0.064996
H153	H	0.326506	-0.016509	-0.156224
H154	H	0.424523	0.088547	-0.154705
H155	H	0.321757	0.053269	-0.054354
H156	H	0.436351	-0.066512	-0.121122
H157	H	0.333566	-0.101668	-0.020812
O158	O	0.934165	0.263320	-0.021800
C159	C	0.849125	0.269829	-0.115584
C160	C	0.903832	0.323832	-0.055356
H161	H	0.824600	0.318736	-0.142747
H162	H	0.791311	0.204886	-0.072143
H163	H	0.891021	0.245898	-0.176508
H164	H	0.862008	0.347828	0.005575
H165	H	0.961651	0.388731	-0.098862
O166	O	0.736566	-0.431004	0.303815
C167	C	0.818496	-0.529678	0.279787
C168	C	0.789781	-0.464864	0.234306
H169	H	0.861540	-0.557056	0.223610
H170	H	0.758673	-0.592488	0.323861
H171	H	0.856584	-0.487411	0.325574
H172	H	0.751711	-0.507050	0.188475
H173	H	0.849638	-0.402053	0.190287
O174	O	1.218165	0.133543	0.290967
C175	C	1.305805	0.147023	0.387614
C176	C	1.264640	0.197125	0.342294
H177	H	1.343375	0.198401	0.429138
H178	H	1.352088	0.123323	0.331479
H179	H	1.252366	0.082220	0.435831
H180	H	1.318019	0.261963	0.294084
H181	H	1.218337	0.220756	0.398478
O182	O	1.147676	-0.139380	0.483056
C183	C	1.283395	-0.074048	0.356696
C184	C	1.205827	-0.164726	0.410683
H185	H	1.330421	-0.094507	0.298158
H186	H	1.318382	-0.033185	0.405528
H187	H	1.258768	-0.027311	0.326395
H188	H	1.230380	-0.211535	0.440988
H189	H	1.170854	-0.205516	0.361811
H190	H	1.295684	0.033936	0.627763
H191	H	1.012623	-0.297135	0.892008
H192	H	0.916372	-0.409740	0.809198
O193	O	0.869736	-0.464342	0.676709
C194	C	0.788100	-0.559761	0.824137
C195	C	0.865616	-0.469061	0.770118
H196	H	0.784732	-0.563596	0.899672
H197	H	0.796890	-0.625006	0.792361
H198	H	0.725246	-0.557795	0.820376
H199	H	0.928504	-0.470934	0.773858
H200	H	0.856749	-0.403855	0.801909
