data_functionalizedCrystal
_audit_creation_method	'MofGen! by Chris Wilmer'
_symmetry_space_group_name_H-M	'P1'
_symmetry_Int_Tables_number	1
_symmetry_cell_setting	triclinic
loop_
_symmetry_equiv_pos_as_xyz
  x,y,z
_cell_length_a	16.120530
_cell_length_b	16.120484
_cell_length_c	16.120297
_cell_angle_alpha	84.385569
_cell_angle_beta	90.128140
_cell_angle_gamma	89.832673
loop_
_atom_site_label
_atom_site_type_symbol
_atom_site_fract_x
_atom_site_fract_y
_atom_site_fract_z
Zn1	Zn	1.224987	0.422264	-0.554813
Zn2	Zn	1.474987	0.672264	-0.304813
Zn3	Zn	1.724987	0.922264	-0.054813
Zn4	Zn	1.974987	1.172264	0.195187
Zn5	Zn	1.224883	0.554948	-0.422118
Zn6	Zn	1.474883	0.804948	-0.172118
Zn7	Zn	1.724883	1.054948	0.077882
Zn8	Zn	1.974883	1.304948	0.327882
Zn9	Zn	1.093726	0.408180	-0.408056
Zn10	Zn	1.343726	0.658180	-0.158056
Zn11	Zn	1.593726	0.908180	0.091944
Zn12	Zn	1.843726	1.158180	0.341944
Zn13	Zn	1.078880	0.554181	-0.554051
Zn14	Zn	1.328880	0.804181	-0.304051
Zn15	Zn	1.578880	1.054181	-0.054051
Zn16	Zn	1.828880	1.304181	0.195949
O17	O	1.155619	0.484893	-0.484760
O18	O	1.405619	0.734893	-0.234760
O19	O	1.655619	0.984893	0.015240
O20	O	1.905619	1.234893	0.265240
O21	O	1.341009	0.446081	-0.543415
O22	O	1.591009	0.696081	-0.293415
O23	O	1.841009	0.946081	-0.043415
O24	O	2.091009	1.196081	0.206585
O25	O	1.213654	0.529906	-0.303620
O26	O	1.463654	0.779906	-0.053620
O27	O	1.713654	1.029906	0.196380
O28	O	1.963654	1.279906	0.446380
O29	O	1.117395	0.293418	-0.421958
O30	O	1.367395	0.543418	-0.171958
O31	O	1.617395	0.793418	0.078042
O32	O	1.867395	1.043418	0.328042
O33	O	1.340932	0.543563	-0.445925
O34	O	1.590932	0.793563	-0.195925
O35	O	1.840932	1.043563	0.054075
O36	O	2.090932	1.293563	0.304075
O37	O	1.213832	0.303765	-0.529780
O38	O	1.463832	0.553765	-0.279780
O39	O	1.713832	0.803765	-0.029780
O40	O	1.963832	1.053765	0.220220
O41	O	1.117294	0.422076	-0.293289
O42	O	1.367294	0.672076	-0.043289
O43	O	1.617294	0.922076	0.206711
O44	O	1.867294	1.172076	0.456711
O45	O	0.975721	0.421332	-0.421218
O46	O	1.225721	0.671332	-0.171218
O47	O	1.475721	0.921332	0.078782
O48	O	1.725721	1.171332	0.328782
O49	O	1.092092	0.542255	-0.670785
O50	O	1.342092	0.792255	-0.420785
O51	O	1.592092	1.042255	-0.170785
O52	O	1.842092	1.292255	0.079215
O53	O	0.964814	0.528598	-0.528480
O54	O	1.214814	0.778598	-0.278480
O55	O	1.464814	1.028598	-0.028480
O56	O	1.714814	1.278598	0.221520
O57	O	1.199436	0.445336	-0.671345
O58	O	1.449436	0.695336	-0.421345
O59	O	1.699436	0.945336	-0.171345
O60	O	1.949436	1.195336	0.078655
O61	O	1.199258	0.671477	-0.445185
O62	O	1.449258	0.921477	-0.195185
O63	O	1.699258	1.171477	0.054815
O64	O	1.949258	1.421477	0.304815
O65	O	1.091990	0.670913	-0.542116
O66	O	1.341990	0.920913	-0.292116
O67	O	1.591990	1.170913	-0.042116
O68	O	1.841990	1.420913	0.207884
C69	C	1.144023	0.701438	-0.495113
C70	C	1.394023	0.951438	-0.245113
C71	C	1.644023	1.201438	0.004887
C72	C	1.894023	1.451438	0.254887
C73	C	1.139137	0.794083	-0.499574
C74	C	1.389137	1.044083	-0.249574
C75	C	1.639137	1.294083	0.000426
C76	C	1.889137	1.544083	0.250426
C77	C	0.940181	0.473354	-0.473241
C78	C	1.190181	0.723354	-0.223241
C79	C	1.440181	0.973354	0.026759
C80	C	1.690181	1.223354	0.276759
C81	C	0.848013	0.468438	-0.468334
C82	C	1.098013	0.718438	-0.218334
C83	C	1.348013	0.968438	0.031666
C84	C	1.598013	1.218438	0.281666
C85	C	1.144119	0.495281	-0.702152
C86	C	1.394119	0.745281	-0.452152
C87	C	1.644119	0.995281	-0.202152
C88	C	1.894119	1.245281	0.047848
C89	C	1.139219	0.499708	-0.794791
C90	C	1.389219	0.749708	-0.544791
C91	C	1.639219	0.999708	-0.294791
C92	C	1.889219	1.249708	-0.044791
C93	C	0.679262	0.459445	-0.459381
C94	C	0.929262	0.709445	-0.209381
C95	C	1.179262	0.959445	0.040619
C96	C	1.429262	1.209445	0.290619
C97	C	0.632810	0.510407	-0.510202
C98	C	0.882810	0.760407	-0.260202
C99	C	1.132810	1.010407	-0.010202
C100	C	1.382810	1.260407	0.239798
C101	C	0.538911	0.505403	-0.505220
C102	C	0.788911	0.755403	-0.255220
C103	C	1.038911	1.005403	-0.005220
C104	C	1.288911	1.255403	0.244780
C105	C	0.773169	0.464448	-0.464361
C106	C	1.023169	0.714448	-0.214361
C107	C	1.273169	0.964448	0.035639
C108	C	1.523169	1.214448	0.285639
C109	C	1.371899	0.496479	-0.496324
C110	C	1.621899	0.746479	-0.246324
C111	C	1.871899	0.996479	0.003676
C112	C	2.121899	1.246479	0.253676
C113	C	1.464064	0.501416	-0.501252
C114	C	1.714064	0.751416	-0.251252
C115	C	1.964064	1.001416	-0.001252
C116	C	2.214064	1.251416	0.248748
C117	C	1.167282	0.267505	-0.474385
C118	C	1.417282	0.517505	-0.224385
C119	C	1.667282	0.767505	0.025615
C120	C	1.917282	1.017505	0.275615
C121	C	1.172251	0.174867	-0.469964
C122	C	1.422251	0.424867	-0.219964
C123	C	1.672251	0.674867	0.030036
C124	C	1.922251	0.924867	0.280036
C125	C	1.130220	0.963706	-0.507736
C126	C	1.380220	1.213706	-0.257736
C127	C	1.630220	1.463706	-0.007736
C128	C	1.880220	1.713706	0.242264
C129	C	1.181166	1.005249	-0.461804
C130	C	1.431166	1.255249	-0.211804
C131	C	1.681166	1.505249	0.038196
C132	C	1.931166	1.755249	0.288196
C133	C	1.176204	1.099633	-0.466346
C134	C	1.426204	1.349633	-0.216346
C135	C	1.676204	1.599633	0.033654
C136	C	1.926204	1.849633	0.283654
C137	C	1.135180	0.869313	-0.503196
C138	C	1.385180	1.119313	-0.253196
C139	C	1.635180	1.369313	-0.003196
C140	C	1.885180	1.619313	0.246804
C141	C	1.130243	0.507770	-0.964403
C142	C	1.380243	0.757770	-0.714403
C143	C	1.630243	1.007770	-0.464403
C144	C	1.880243	1.257770	-0.214403
C145	C	1.181172	0.461776	-1.005965
C146	C	1.431172	0.711776	-0.755965
C147	C	1.681172	0.961776	-0.505965
C148	C	1.931172	1.211776	-0.255965
C149	C	1.176177	0.466262	-1.100342
C150	C	1.426177	0.716262	-0.850342
C151	C	1.676177	0.966262	-0.600342
C152	C	1.926177	1.216262	-0.350342
C153	C	1.135236	0.503285	-0.870017
C154	C	1.385236	0.753285	-0.620017
C155	C	1.635236	1.003285	-0.370017
C156	C	1.885236	1.253285	-0.120017
C157	C	1.167125	0.474489	-0.268213
C158	C	1.417125	0.724489	-0.018213
C159	C	1.667125	0.974489	0.231787
C160	C	1.917125	1.224489	0.481787
C161	C	1.172198	0.469836	-0.175571
C162	C	1.422198	0.719836	0.074429
C163	C	1.672198	0.969836	0.324429
C164	C	1.922198	1.219836	0.574429
H165	H	0.663563	0.557794	-0.557453
H166	H	0.913563	0.807794	-0.307453
H167	H	1.163563	1.057794	-0.057453
H168	H	1.413563	1.307794	0.192547
C169	C	0.551419	0.402850	-0.402945
C170	C	0.801419	0.652850	-0.152945
C171	C	1.051419	0.902850	0.097055
C172	C	1.301419	1.152850	0.347055
C173	C	0.637753	0.395480	-0.395593
C174	C	0.887753	0.645480	-0.145593
C175	C	1.137753	0.895480	0.104407
C176	C	1.387753	1.145480	0.354407
H177	H	0.525789	0.363365	-0.363560
H178	H	0.775789	0.613365	-0.113560
H179	H	1.025789	0.863365	0.136440
H180	H	1.275789	1.113365	0.386440
H181	H	0.534982	0.392671	-0.457644
H182	H	0.784982	0.642671	-0.207644
H183	H	1.034982	0.892671	0.042356
H184	H	1.284982	1.142671	0.292356
H185	H	0.534937	0.457510	-0.392602
H186	H	0.784937	0.707510	-0.142602
H187	H	1.034937	0.957510	0.107398
H188	H	1.284937	1.207510	0.357398
H189	H	0.654236	0.340821	-0.405942
H190	H	0.904236	0.590821	-0.155942
H191	H	1.154236	0.840821	0.094058
H192	H	1.404236	1.090821	0.344058
H193	H	0.654197	0.405652	-0.340882
H194	H	0.904197	0.655652	-0.090882
H195	H	1.154197	0.905652	0.159118
H196	H	1.404197	1.155652	0.409118
H197	H	1.228508	0.969931	-0.419069
H198	H	1.478508	1.219931	-0.169069
H199	H	1.728508	1.469931	0.080931
H200	H	1.978508	1.719931	0.330931
H201	H	1.082881	0.999022	-0.550467
H202	H	1.332881	1.249022	-0.300467
H203	H	1.582881	1.499022	-0.050467
H204	H	1.832881	1.749022	0.199533
H205	H	1.228524	0.419031	-0.970668
H206	H	1.478524	0.669031	-0.720668
H207	H	1.728524	0.919031	-0.470668
H208	H	1.978524	1.169031	-0.220668
H209	H	1.082894	0.550512	-0.999698
H210	H	1.332894	0.800512	-0.749698
H211	H	1.582894	1.050512	-0.499698
H212	H	1.832894	1.300512	-0.249698
