data_functionalizedCrystal
_audit_creation_method	'MofGen! by Chris Wilmer'
_symmetry_space_group_name_H-M	'P1'
_symmetry_Int_Tables_number	1
_symmetry_cell_setting	triclinic
loop_
_symmetry_equiv_pos_as_xyz
  x,y,z
_cell_length_a	19.188930
_cell_length_b	16.992695
_cell_length_c	15.455313
_cell_angle_alpha	87.152573
_cell_angle_beta	92.686066
_cell_angle_gamma	86.906501
loop_
_atom_site_label
_atom_site_type_symbol
_atom_site_fract_x
_atom_site_fract_y
_atom_site_fract_z
O1	O	-0.934752	-0.094420	-0.072413
O2	O	-0.601418	0.238914	0.260920
O3	O	-0.268085	0.572247	0.594253
O4	O	-0.732209	-0.107598	-0.072354
O5	O	-0.398876	0.225736	0.260979
O6	O	-0.065542	0.559069	0.594313
O7	O	-0.832668	0.013131	-0.072377
O8	O	-0.499335	0.346464	0.260957
O9	O	-0.166001	0.679798	0.594290
O10	O	-0.834293	-0.215148	-0.072391
O11	O	-0.500959	0.118185	0.260943
O12	O	-0.167626	0.451518	0.594276
O13	O	-0.826922	0.006255	0.071887
O14	O	-0.493588	0.339589	0.405220
O15	O	-0.160255	0.672922	0.738554
O16	O	-0.726463	-0.114473	0.071909
O17	O	-0.393129	0.218860	0.405243
O18	O	-0.059796	0.552193	0.738576
O19	O	-0.929005	-0.101295	0.071850
O20	O	-0.595672	0.232038	0.405184
O21	O	-0.262339	0.565372	0.738517
Cu22	Cu	-0.827209	-0.108512	0.085052
Cu23	Cu	-0.493876	0.224821	0.418386
Cu24	Cu	-0.160543	0.558155	0.751719
Cu25	Cu	-0.834005	-0.100381	-0.085556
Cu26	Cu	-0.500672	0.232952	0.247777
Cu27	Cu	-0.167338	0.566286	0.581111
O28	O	-0.828546	-0.222024	0.071873
O29	O	-0.495213	0.111310	0.405206
O30	O	-0.161880	0.444643	0.738539
C31	C	-0.827706	0.038899	-0.000244
C32	C	-0.494373	0.372232	0.333089
C33	C	-0.161039	0.705565	0.666422
C34	C	-0.821473	0.125921	-0.000243
C35	C	-0.488139	0.459255	0.333091
C36	C	-0.154806	0.792588	0.666424
C37	C	-0.703300	-0.110609	-0.000215
C38	C	-0.369966	0.222724	0.333119
C39	C	-0.036633	0.556058	0.666452
C40	C	-0.625719	-0.109329	-0.000192
C41	C	-0.292386	0.224004	0.333141
C42	C	0.040948	0.557337	0.666475
C43	C	-0.957915	-0.098284	-0.000291
C44	C	-0.624581	0.235050	0.333042
C45	C	-0.291248	0.568383	0.666376
C46	C	-1.035495	-0.099563	-0.000320
C47	C	-0.702162	0.233770	0.333014
C48	C	-0.368829	0.567104	0.666347
C49	C	-0.584941	-0.180168	-0.000210
C50	C	-0.251608	0.153166	0.333123
C51	C	0.081725	0.486499	0.666457
C52	C	-0.512047	-0.178964	-0.000219
C53	C	-0.178714	0.154369	0.333114
C54	C	0.154619	0.487703	0.666447
C55	C	-0.479935	-0.106917	-0.000228
C56	C	-0.146602	0.226416	0.333105
C57	C	0.186731	0.559750	0.666438
C58	C	-0.520722	-0.036070	-0.000205
C59	C	-0.187389	0.297263	0.333128
C60	C	0.145944	0.630597	0.666461
C61	C	-0.593614	-0.037276	-0.000187
C62	C	-0.260281	0.296057	0.333146
C63	C	0.073052	0.629391	0.666480
N64	N	-0.370689	-0.049505	-0.049359
N65	N	-0.037356	0.283828	0.283975
N66	N	0.295977	0.617161	0.617308
N67	N	-0.301445	-0.048364	-0.049378
N68	N	0.031888	0.284969	0.283955
N69	N	0.365222	0.618302	0.617289
C70	C	-0.260316	-0.103279	-0.000281
C71	C	0.073017	0.230055	0.333052
C72	C	0.406351	0.563388	0.666386
N73	N	-0.291047	-0.159389	0.048825
N74	N	0.042286	0.173944	0.382158
N75	N	0.375620	0.507278	0.715491
N76	N	-0.360298	-0.160532	0.048840
N77	N	-0.026965	0.172801	0.382173
N78	N	0.306369	0.506134	0.715507
C79	C	-0.400897	-0.105601	-0.000247
C80	C	-0.067563	0.227732	0.333086
C81	C	0.265770	0.561065	0.666419
C82	C	-0.140498	-0.172817	-0.000308
C83	C	0.192836	0.160517	0.333025
C84	C	0.526169	0.493850	0.666359
C85	C	-0.067603	-0.171610	-0.000312
C86	C	0.265731	0.161723	0.333021
C87	C	0.599064	0.495056	0.666354
C88	C	-0.076279	-0.028714	-0.000307
C89	C	0.257054	0.304619	0.333027
C90	C	0.590387	0.637953	0.666360
C91	C	-0.149173	-0.029923	-0.000294
C92	C	0.184161	0.303411	0.333039
C93	C	0.517494	0.636744	0.666373
C94	C	-0.181278	-0.101976	-0.000299
C95	C	0.152056	0.231357	0.333035
C96	C	0.485389	0.564691	0.666368
C97	C	-0.833508	-0.247791	-0.000261
C98	C	-0.500175	0.085542	0.333072
C99	C	-0.166842	0.418875	0.666405
C100	C	-0.839742	-0.334814	-0.000269
C101	C	-0.506408	-0.001480	0.333065
C102	C	-0.173075	0.331853	0.666398
N103	N	-0.822435	-0.114230	0.205049
N104	N	-0.489101	0.219103	0.538382
N105	N	-0.155768	0.552436	0.871715
C106	C	-0.881613	0.176369	-0.000259
C107	C	-0.548280	0.509702	0.333074
C108	C	-0.214946	0.843035	0.666407
C109	C	-0.875753	0.258136	-0.000266
C110	C	-0.542419	0.591469	0.333067
C111	C	-0.209086	0.924802	0.666401
C112	C	-0.809751	0.289453	-0.000250
C113	C	-0.476418	0.622786	0.333084
C114	C	-0.143084	0.956120	0.666417
C115	C	-0.749607	0.238999	-0.000235
C116	C	-0.416273	0.572332	0.333098
C117	C	-0.082940	0.905666	0.666431
C118	C	-0.755468	0.157234	-0.000235
C119	C	-0.422135	0.490568	0.333098
C120	C	-0.088801	0.823901	0.666431
C121	C	-0.785458	0.532968	-0.000254
C122	C	-0.452125	0.866301	0.333079
C123	C	-0.118792	1.199634	0.666412
C124	C	-0.779602	0.614739	-0.000252
C125	C	-0.446268	0.948072	0.333081
C126	C	-0.112935	1.281406	0.666415
C127	C	-0.905748	0.633870	-0.000284
C128	C	-0.572415	0.967203	0.333049
C129	C	-0.239082	1.300536	0.666383
C130	C	-0.911604	0.552102	-0.000279
C131	C	-0.578270	0.885435	0.333055
C132	C	-0.244937	1.218769	0.666388
C133	C	-0.851459	0.501656	-0.000269
C134	C	-0.518126	0.834989	0.333064
C135	C	-0.184793	1.168322	0.666398
N136	N	-0.803759	0.373031	-0.000253
N137	N	-0.470426	0.706365	0.333080
N138	N	-0.137093	1.039698	0.666413
N139	N	-0.857452	0.418079	-0.000271
N140	N	-0.524119	0.751412	0.333062
N141	N	-0.190785	1.084746	0.666395
N142	N	-0.838785	-0.094656	-0.205553
N143	N	-0.505451	0.238677	0.127781
N144	N	-0.172118	0.572010	0.461114
C145	C	-0.865130	-0.062959	0.250433
C146	C	-0.531797	0.270374	0.583767
C147	C	-0.198463	0.603707	0.917100
C148	C	-0.861526	-0.067291	0.341242
C149	C	-0.528193	0.266042	0.674575
C150	C	-0.194859	0.599376	1.007909
C151	C	-0.815230	-0.122898	0.386664
C152	C	-0.481896	0.210435	0.719998
C153	C	-0.148563	0.543768	1.053331
C154	C	-0.772530	-0.174172	0.341274
C155	C	-0.439196	0.159162	0.674607
C156	C	-0.105863	0.492495	1.007940
C157	C	-0.776131	-0.169835	0.250467
C158	C	-0.442797	0.163498	0.583800
C159	C	-0.109464	0.496831	0.917133
C160	C	-0.799686	-0.141593	0.658249
C161	C	-0.466352	0.191740	0.991583
C162	C	-0.133019	0.525073	1.324916
C163	C	-0.796089	-0.145927	0.749063
C164	C	-0.462756	0.187406	1.082396
C165	C	-0.129423	0.520739	1.415729
C166	C	-0.885085	-0.039045	0.749025
C167	C	-0.551752	0.294288	1.082358
C168	C	-0.218419	0.627621	1.415692
C169	C	-0.888685	-0.034717	0.658216
C170	C	-0.555352	0.298616	0.991550
C171	C	-0.222018	0.631949	1.324883
C172	C	-0.845982	-0.085988	0.612833
C173	C	-0.512649	0.247346	0.946167
C174	C	-0.179316	0.580679	1.279500
N175	N	-0.811546	-0.127329	0.479486
N176	N	-0.478213	0.206004	0.812819
N177	N	-0.144880	0.539338	1.146152
N178	N	-0.849663	-0.081553	0.520014
N179	N	-0.516329	0.251781	0.853347
N180	N	-0.182996	0.585114	1.186681
H181	H	-0.611076	-0.238839	-0.000215
H182	H	-0.277743	0.094494	0.333118
H183	H	0.055590	0.427828	0.666451
O184	O	-0.926626	0.010801	0.792976
O185	O	-0.593293	0.344134	1.126310
O186	O	-0.259959	0.677468	1.459643
C187	C	-0.968243	0.060828	0.733412
C188	C	-0.634910	0.394161	1.066746
C189	C	-0.301576	0.727494	1.400079
H190	H	-0.973396	0.031775	0.668677
H191	H	-0.640063	0.365108	1.002011
H192	H	-0.306730	0.698442	1.335344
H193	H	-1.022282	0.071702	0.759621
H194	H	-0.688949	0.405036	1.092954
H195	H	-0.355615	0.738369	1.426288
H196	H	-0.942705	0.119457	0.723774
H197	H	-0.609371	0.452790	1.057107
H198	H	-0.276038	0.786124	1.390441
O199	O	-0.751046	-0.199962	0.793053
O200	O	-0.417713	0.133371	1.126387
O201	O	-0.084379	0.466704	1.459720
C202	C	-0.714136	-0.244295	0.733526
C203	C	-0.380803	0.089038	1.066860
C204	C	-0.047469	0.422371	1.400193
H205	H	-0.714126	-0.209069	0.668800
H206	H	-0.380793	0.124264	1.002134
H207	H	-0.047460	0.457598	1.335467
H208	H	-0.658013	-0.257649	0.759797
H209	H	-0.324680	0.075685	1.093130
H210	H	0.008653	0.409018	1.426463
H211	H	-0.740420	-0.302016	0.723847
H212	H	-0.407087	0.031317	1.057180
H213	H	-0.073753	0.364650	1.390514
O214	O	-0.188687	0.038965	-0.000325
O215	O	0.144647	0.372298	0.333009
O216	O	0.477980	0.705631	0.666342
C217	C	-0.144715	0.102814	-0.000312
C218	C	0.188618	0.436148	0.333021
C219	C	0.521951	0.769481	0.666355
H220	H	-0.092581	0.084031	-0.027637
H221	H	0.240752	0.417364	0.305696
H222	H	0.574086	0.750698	0.639029
H223	H	-0.170493	0.154430	-0.042188
H224	H	0.162841	0.487763	0.291145
H225	H	0.496174	0.821097	0.624478
H226	H	-0.135516	0.121612	0.068898
H227	H	0.197817	0.454946	0.402231
H228	H	0.531150	0.788279	0.735564
O229	O	-0.715432	0.645033	-0.000284
O230	O	-0.382099	0.978367	0.333049
O231	O	-0.048765	1.311700	0.666383
C232	C	-0.663602	0.582975	-0.000258
C233	C	-0.330269	0.916308	0.333075
C234	C	0.003064	1.249642	0.666409
H235	H	-0.687358	0.528793	-0.027572
H236	H	-0.354024	0.862126	0.305761
H237	H	-0.020691	1.195459	0.639095
H238	H	-0.619472	0.601907	-0.042137
H239	H	-0.286139	0.935240	0.291196
H240	H	0.047195	1.268574	0.624529
H241	H	-0.642066	0.568043	0.068954
H242	H	-0.308732	0.901377	0.402288
H243	H	0.024601	1.234710	0.735621
H244	H	-0.924725	0.299207	-0.000278
H245	H	-0.591392	0.632541	0.333056
H246	H	-0.258059	0.965874	0.666389
H247	H	-0.706495	0.116160	-0.000222
H248	H	-0.373162	0.449493	0.333112
H249	H	-0.039828	0.782827	0.666445
O250	O	-0.903033	-0.017604	0.385428
O251	O	-0.569700	0.315730	0.718762
O252	O	-0.236367	0.649063	1.052095
C253	C	-0.946362	-0.061982	0.437907
C254	C	-0.613029	0.271351	0.771240
C255	C	-0.279696	0.604684	1.104573
H256	H	-0.921435	-0.124052	0.451509
H257	H	-0.588101	0.209281	0.784843
H258	H	-0.254768	0.542614	1.118176
H259	H	-0.953049	-0.032282	0.501765
H260	H	-0.619715	0.301052	0.835098
H261	H	-0.286382	0.634385	1.168431
H262	H	-0.999640	-0.065498	0.402883
H263	H	-0.666307	0.267835	0.736216
H264	H	-0.332973	0.601168	1.069550
O265	O	-0.945749	0.145995	-0.000431
O266	O	-0.612416	0.479328	0.332903
O267	O	-0.279082	0.812661	0.666236
C268	C	-0.985666	0.175368	-0.075148
C269	C	-0.652333	0.508701	0.258185
C270	C	-0.319000	0.842034	0.591519
H271	H	-0.949229	0.194731	-0.127357
H272	H	-0.615896	0.528065	0.205977
H273	H	-0.282563	0.861398	0.539310
H274	H	-1.019129	0.127130	-0.100238
H275	H	-0.685796	0.460463	0.233096
H276	H	-0.352463	0.793797	0.566429
H277	H	-1.020919	0.227991	-0.058269
H278	H	-0.687586	0.561324	0.275064
H279	H	-0.354252	0.894658	0.608398
O280	O	-0.758144	-0.191294	0.614128
O281	O	-0.424810	0.142039	0.947462
O282	O	-0.091477	0.475373	1.280795
C283	C	-0.714828	-0.146931	0.561615
C284	C	-0.381494	0.186402	0.894949
C285	C	-0.048161	0.519736	1.228282
H286	H	-0.709107	-0.086416	0.588993
H287	H	-0.375773	0.246917	0.922326
H288	H	-0.042440	0.580250	1.255659
H289	H	-0.661171	-0.179032	0.560607
H290	H	-0.327838	0.154302	0.893941
H291	H	0.005495	0.487635	1.227274
H292	H	-0.739178	-0.139473	0.492784
H293	H	-0.405844	0.193861	0.826117
H294	H	-0.072511	0.527194	1.159451
H295	H	-0.734830	-0.219446	0.378262
H296	H	-0.401497	0.113888	0.711595
H297	H	-0.068164	0.447221	1.044928
O298	O	-0.734631	-0.219724	0.206511
O299	O	-0.401297	0.113609	0.539845
O300	O	-0.067964	0.446942	0.873178
C301	C	-0.692984	-0.269723	0.266072
C302	C	-0.359651	0.063611	0.599405
C303	C	-0.026317	0.396944	0.932739
H304	H	-0.719087	-0.273621	0.330786
H305	H	-0.385754	0.059712	0.664119
H306	H	-0.052421	0.393046	0.997452
H307	H	-0.686864	-0.331106	0.239826
H308	H	-0.353531	0.002227	0.573160
H309	H	-0.020197	0.335560	0.906493
H310	H	-0.639326	-0.244872	0.275766
H311	H	-0.305992	0.088461	0.609100
H312	H	0.027341	0.421794	0.942433
O313	O	-0.975773	0.521815	-0.000330
O314	O	-0.642440	0.855148	0.333003
O315	O	-0.309106	1.188482	0.666337
C316	C	-1.027598	0.583875	-0.000320
C317	C	-0.694265	0.917208	0.333013
C318	C	-0.360932	1.250542	0.666346
H319	H	-1.006023	0.640655	-0.027635
H320	H	-0.672689	0.973988	0.305698
H321	H	-0.339356	1.307321	0.639032
H322	H	-1.075076	0.568932	-0.042208
H323	H	-0.741743	0.902265	0.291125
H324	H	-0.408409	1.235598	0.624459
H325	H	-1.043604	0.592222	0.068887
H326	H	-0.710271	0.925555	0.402220
H327	H	-0.376938	1.258888	0.735553
O328	O	-0.910120	-0.008873	0.206448
O329	O	-0.576787	0.324461	0.539782
O330	O	-0.243453	0.657794	0.873115
C331	C	-0.947042	0.035438	0.265983
C332	C	-0.613709	0.368772	0.599317
C333	C	-0.280376	0.702105	0.932650
H334	H	-0.915805	0.033152	0.330730
H335	H	-0.582471	0.366485	0.664063
H336	H	-0.249138	0.699818	0.997396
H337	H	-0.955241	0.099329	0.239755
H338	H	-0.621908	0.432662	0.573088
H339	H	-0.288575	0.765995	0.906422
H340	H	-0.999936	0.009668	0.275606
H341	H	-0.666602	0.343001	0.608940
H342	H	-0.333269	0.676334	0.942273
O343	O	-0.964100	0.682987	-0.000339
O344	O	-0.630766	1.016320	0.332994
O345	O	-0.297433	1.349654	0.666327
C346	C	-0.944777	0.761870	-0.000315
C347	C	-0.611444	1.095203	0.333019
C348	C	-0.278110	1.428537	0.666352
H349	H	-0.890859	0.766116	-0.027609
H350	H	-0.557525	1.099450	0.305724
H351	H	-0.224192	1.432783	0.639058
H352	H	-0.984499	0.801047	-0.042212
H353	H	-0.651166	1.134380	0.291121
H354	H	-0.317832	1.467714	0.624455
H355	H	-0.943349	0.782234	0.068894
H356	H	-0.610016	1.115567	0.402228
H357	H	-0.276682	1.448901	0.735561
H358	H	-0.034402	-0.229298	-0.000322
H359	H	0.298932	0.104035	0.333011
H360	H	0.632265	0.437369	0.666345
O361	O	-0.044984	0.041206	-0.000356
O362	O	0.288349	0.374540	0.332978
O363	O	0.621683	0.707873	0.666311
C364	C	0.028098	0.027082	-0.000351
C365	C	0.361432	0.360415	0.332982
C366	C	0.694765	0.693748	0.666316
H367	H	0.040685	-0.032854	-0.027666
H368	H	0.374018	0.300479	0.305667
H369	H	0.707352	0.633812	0.639001
H370	H	0.051348	0.075164	-0.042241
H371	H	0.384682	0.408497	0.291093
H372	H	0.718015	0.741831	0.624426
H373	H	0.051358	0.027515	0.068855
H374	H	0.384692	0.360848	0.402188
H375	H	0.718025	0.694181	0.735521
H376	H	-0.494572	0.022592	-0.000224
H377	H	-0.161239	0.355925	0.333109
H378	H	0.172094	0.689258	0.666442
O379	O	-0.472531	-0.247849	-0.000283
O380	O	-0.139198	0.085484	0.333050
O381	O	0.194136	0.418818	0.666384
C382	C	-0.516497	-0.311703	-0.000260
C383	C	-0.183164	0.021630	0.333073
C384	C	0.150169	0.354963	0.666406
H385	H	-0.570829	-0.290317	-0.027550
H386	H	-0.237496	0.043017	0.305783
H387	H	0.095838	0.376350	0.639117
H388	H	-0.494087	-0.359319	-0.042163
H389	H	-0.160753	-0.025985	0.291171
H390	H	0.172580	0.307348	0.624504
H391	H	-0.520129	-0.337109	0.068948
H392	H	-0.186796	-0.003776	0.402281
H393	H	0.146538	0.329557	0.735614
H394	H	-0.166638	-0.231487	-0.000299
H395	H	0.166695	0.101846	0.333034
H396	H	0.500028	0.435179	0.666367
O397	O	-0.933394	0.019639	0.614195
O398	O	-0.600061	0.352972	0.947529
O399	O	-0.266728	0.686306	1.280862
C400	C	-0.895127	0.070369	0.561996
C401	C	-0.561794	0.403702	0.895329
C402	C	-0.228460	0.737036	1.228663
H403	H	-0.842945	0.039369	0.548231
H404	H	-0.509612	0.372702	0.881564
H405	H	-0.176278	0.706035	1.214897
H406	H	-0.926060	0.086394	0.498202
H407	H	-0.592727	0.419727	0.831535
H408	H	-0.259393	0.753060	1.164869
H409	H	-0.885433	0.126365	0.597344
H410	H	-0.552100	0.459699	0.930677
H411	H	-0.218766	0.793032	1.264011
H412	H	-0.626816	0.020411	-0.000173
H413	H	-0.293483	0.353744	0.333160
H414	H	0.039851	0.687077	0.666494
H415	H	-0.736484	0.491903	-0.000246
H416	H	-0.403151	0.825237	0.333087
H417	H	-0.069818	1.158570	0.666420
H418	H	-0.695867	0.264504	-0.000228
H419	H	-0.362533	0.597838	0.333106
H420	H	-0.029200	0.931171	0.666439
