data_functionalizedCrystal
_audit_creation_method	'MofGen! by Chris Wilmer'
_symmetry_space_group_name_H-M	'P1'
_symmetry_Int_Tables_number	1
_symmetry_cell_setting	triclinic
loop_
_symmetry_equiv_pos_as_xyz
  x,y,z
_cell_length_a	20.919287
_cell_length_b	20.919320
_cell_length_c	14.809374
_cell_angle_alpha	69.826305
_cell_angle_beta	86.882901
_cell_angle_gamma	55.758717
loop_
_atom_site_label
_atom_site_type_symbol
_atom_site_fract_x
_atom_site_fract_y
_atom_site_fract_z
Zr1	Zr	0.599210	0.682646	-0.116215
O2	O	0.501758	0.797695	-0.234886
O3	O	0.633112	0.553984	-0.084795
O4	O	0.641936	0.661518	-0.251630
O5	O	0.481393	0.711575	0.069192
O6	O	0.747929	0.660338	-0.259197
O7	O	0.492934	0.690161	-0.068051
O8	O	0.732145	0.467980	0.039240
O9	O	0.497177	0.903933	-0.229245
O10	O	0.721806	0.611066	-0.071050
O11	O	0.634091	0.627928	0.037020
O12	O	0.644480	0.754535	-0.159407
O13	O	0.556765	0.771397	-0.051337
Zr14	Zr	0.749850	0.714917	0.090605
Zr15	Zr	0.768257	0.680764	-0.128283
Zr16	Zr	0.580803	0.716799	0.102672
Zr17	Zr	0.591904	0.852085	-0.107218
Zr18	Zr	0.757156	0.545479	0.081607
O19	O	0.715948	0.843579	0.059185
O20	O	0.742121	0.795018	-0.252045
O21	O	0.475585	0.846256	0.076344
O22	O	0.847302	0.599869	0.209276
O23	O	0.873475	0.551308	-0.101954
O24	O	0.606939	0.602545	0.226435
O25	O	0.867667	0.685989	-0.094802
O26	O	0.707124	0.736046	0.226020
O27	O	0.601131	0.737226	0.233586
O28	O	0.856126	0.707403	0.042441
O29	O	0.631547	0.902437	-0.238837
O30	O	0.717513	0.495127	0.213227
O31	O	0.851883	0.493630	0.203634
O32	O	0.866515	0.466483	0.029648
O33	O	0.482545	0.931080	-0.055258
O34	O	0.616915	0.929584	-0.064851
O35	O	0.704580	0.643028	0.133796
O36	O	0.792295	0.626167	0.025726
O37	O	0.714969	0.769635	-0.062630
O38	O	0.627254	0.786497	0.045440
C39	C	0.683669	0.486841	-0.024059
C40	C	0.686771	0.414910	-0.027879
C41	C	0.706615	0.007649	-0.052347
C42	C	0.703696	0.075237	-0.048755
C43	C	0.656453	0.117826	0.009459
C44	C	0.612122	0.092829	0.064077
C45	C	0.615038	0.025245	0.060479
C46	C	0.645355	0.322329	0.023141
C47	C	0.642445	0.389915	0.026737
C48	C	0.734018	0.372319	-0.086097
C49	C	0.736933	0.304732	-0.089685
C50	C	0.692598	0.279744	-0.035072
C51	C	0.653470	0.186911	0.013135
C52	C	0.695578	0.210663	-0.038753
C53	C	0.463078	0.701136	0.002290
C54	C	0.391313	0.701935	0.007413
C55	C	0.363955	0.690516	-0.065791
C56	C	0.296527	0.691263	-0.060973
C57	C	0.256453	0.703435	0.017047
C58	C	0.283816	0.714853	0.090257
C59	C	0.351247	0.714100	0.085442
C60	C	0.052541	0.706293	0.035372
C61	C	-0.014895	0.707048	0.040180
C62	C	-0.002179	0.683456	-0.111049
C63	C	0.065249	0.682709	-0.115861
C64	C	0.092609	0.694122	-0.042647
C65	C	0.187529	0.704201	0.021972
C66	C	0.161535	0.693350	-0.047570
C67	C	0.885982	0.696427	-0.027900
C68	C	0.957747	0.695628	-0.033023
C69	C	0.697555	0.656062	-0.286600
C70	C	0.705370	0.641563	-0.379524
C71	C	0.665391	0.910723	-0.001551
C72	C	0.662289	0.982654	0.002269
C73	C	0.670494	0.706269	-0.464783
C74	C	0.678570	0.691286	-0.560825
C75	C	0.651505	0.741502	0.260990
C76	C	0.643690	0.756001	0.353913
C77	C	0.895122	0.484486	-0.039154
C78	C	0.969988	0.411756	-0.048097
C79	C	0.660644	0.529561	0.249735
C80	C	0.655932	0.472128	0.338839
C81	C	0.872097	0.527206	0.234641
C82	C	0.939149	0.468975	0.318621
C83	C	0.476963	0.870357	-0.260251
C84	C	0.409911	0.928589	-0.344232
C85	C	0.453938	0.913077	0.013544
C86	C	0.379072	0.985807	0.022487
C87	C	0.688416	0.868003	-0.275346
C88	C	0.693128	0.925435	-0.364450
C89	C	0.968353	0.369718	-0.102822
C90	C	1.038693	0.301386	-0.111244
C91	C	1.110668	0.275091	-0.064935
C92	C	1.112301	0.317137	-0.010208
C93	C	1.041962	0.385470	-0.001792
C94	C	0.690512	0.453041	0.431209
C95	C	0.686080	0.399089	0.514941
C96	C	0.647072	0.364219	0.506300
C97	C	0.612487	0.383311	0.413921
C98	C	0.616915	0.437268	0.330192
C99	C	1.016431	0.432827	0.301648
C100	C	1.079440	0.378121	0.380548
C101	C	1.065166	0.359559	0.476422
C102	C	0.987876	0.395713	0.493394
C103	C	0.924868	0.450423	0.414495
C104	C	0.332629	0.964745	-0.327258
C105	C	0.269618	1.019472	-0.406157
C106	C	0.283892	1.038038	-0.502030
C107	C	0.361182	1.001879	-0.519003
C108	C	0.424191	0.947157	-0.440104
C109	C	0.380707	1.027851	0.077203
C110	C	0.310368	1.096198	0.085602
C111	C	0.238394	1.122495	0.039290
C112	C	0.236761	1.080447	-0.015434
C113	C	0.307099	1.012106	-0.023838
C114	C	0.732143	0.960288	-0.355778
C115	C	0.736586	1.014244	-0.439494
C116	C	0.702009	1.033350	-0.531880
C117	C	0.662994	0.998491	-0.540550
C118	C	0.658556	0.944531	-0.456836
H119	H	0.739789	0.095587	-0.093228
H120	H	0.722276	0.481428	0.438263
H121	H	0.178150	1.101869	-0.053138
H122	H	0.775402	0.270057	-0.137088
H123	H	0.626783	0.916159	-0.463909
Br124	Br	0.738313	0.580454	-0.557655
H125	H	0.643472	0.320286	0.574485
H126	H	0.770112	0.392672	-0.130562
Br127	Br	1.209987	0.281437	0.052638
Br128	Br	0.819987	0.499471	0.437548
Br129	Br	0.164734	1.068532	-0.383100
Br130	Br	0.304865	0.955050	-0.098096
H131	H	1.116479	0.315009	0.540658
H132	H	0.705628	1.077289	-0.600037
Br133	Br	0.610769	0.817096	-0.467947
H134	H	0.634844	1.014056	-0.615782
H135	H	0.232579	1.082596	-0.566266
Br136	Br	0.559550	0.335981	0.402211
H137	H	0.181126	1.178144	0.046141
Br138	Br	0.585189	0.288422	0.097264
Br139	Br	0.583963	0.866833	-0.649261
Br140	Br	0.569982	0.463161	0.204836
H141	H	1.043304	0.419691	0.042776
H142	H	0.745089	-0.027027	-0.099747
Br143	Br	0.733022	0.373189	0.640299
H144	H	1.028068	0.447931	0.223589
Br145	Br	0.765110	0.530736	-0.376360
H146	H	1.142368	0.348688	0.366711
Br147	Br	1.206122	0.182350	-0.076366
Br148	Br	0.313236	0.939559	-0.197153
H149	H	0.909756	0.391124	-0.140546
H150	H	-0.024461	0.674162	-0.170655
Br151	Br	1.036458	0.244337	-0.185517
H152	H	0.976266	0.380591	0.571464
H153	H	0.372795	1.017002	-0.597072
Br154	Br	0.529073	0.898089	-0.463159
H155	H	0.615007	0.221593	0.060535
H156	H	0.439305	1.006448	0.114924
H157	H	0.760299	0.944742	-0.280560
H158	H	0.373521	0.723397	0.145053
Br159	Br	0.789534	1.061546	-0.427704
Br160	Br	0.312604	1.153247	0.159875
H161	H	0.573652	0.127514	0.111472
Br162	Br	0.578323	0.447717	0.105744
H163	H	0.154894	0.714115	0.085495
H164	H	0.578940	0.004898	0.104951
H165	H	0.396577	0.680609	-0.129325
Br166	Br	0.759685	0.152868	-0.117762
H167	H	0.274254	0.681963	-0.120580
H168	H	-0.047522	0.716961	0.103717
Br169	Br	0.089667	0.721785	0.134728
Br170	Br	0.119633	0.666194	-0.221747
Br171	Br	0.229438	0.731364	0.196149
H172	H	0.194167	0.683435	-0.111090
