data_functionalizedCrystal
_audit_creation_method	'MofGen! by Chris Wilmer'
_symmetry_space_group_name_H-M	'P1'
_symmetry_Int_Tables_number	1
_symmetry_cell_setting	triclinic
loop_
_symmetry_equiv_pos_as_xyz
  x,y,z
_cell_length_a	27.732048
_cell_length_b	27.732048
_cell_length_c	18.366186
_cell_angle_alpha	89.996446
_cell_angle_beta	89.998500
_cell_angle_gamma	97.357346
loop_
_atom_site_label
_atom_site_type_symbol
_atom_site_fract_x
_atom_site_fract_y
_atom_site_fract_z
O1	O	-0.057518	0.640930	-0.060444
O2	O	0.275816	0.974264	0.272889
O3	O	0.609149	1.307597	0.606222
O4	O	-0.066263	0.500137	-0.060465
O5	O	0.267070	0.833470	0.272869
O6	O	0.600404	1.166803	0.606202
O7	O	0.008506	0.574906	-0.060463
O8	O	0.341840	0.908240	0.272870
O9	O	0.675173	1.241573	0.606203
O10	O	-0.132287	0.566161	-0.060445
O11	O	0.201046	0.899494	0.272888
O12	O	0.534380	1.232827	0.606221
O13	O	0.008510	0.574894	0.060636
O14	O	0.341843	0.908227	0.393969
O15	O	0.675177	1.241560	0.727303
O16	O	-0.066260	0.500124	0.060635
O17	O	0.267074	0.833458	0.393968
O18	O	0.600407	1.166791	0.727302
O19	O	-0.057514	0.640918	0.060655
O20	O	0.275819	0.974251	0.393988
O21	O	0.609153	1.307584	0.727322
Zn22	Zn	-0.061886	0.570519	0.079872
Zn23	Zn	0.271447	0.903852	0.413205
Zn24	Zn	0.604780	1.237186	0.746539
Zn25	Zn	-0.061891	0.570535	-0.079682
Zn26	Zn	0.271442	0.903869	0.253652
Zn27	Zn	0.604776	1.237202	0.586985
O28	O	-0.132284	0.566148	0.060654
O29	O	0.201050	0.899481	0.393987
O30	O	0.534383	1.232815	0.727321
C31	C	-0.066078	0.482124	0.000082
C32	C	0.267256	0.815457	0.333416
C33	C	0.600589	1.148790	0.666749
C34	C	-0.065525	0.428469	0.000074
C35	C	0.267808	0.761802	0.333407
C36	C	0.601142	1.095135	0.666741
C37	C	-0.106229	0.089654	0.000111
C38	C	0.227105	0.422987	0.333444
C39	C	0.560438	0.756320	0.666777
C40	C	-0.104178	-0.112006	0.000117
C41	C	0.229156	0.221327	0.333450
C42	C	0.562489	0.554661	0.666784
O43	O	-0.141398	-0.143262	0.000153
O44	O	0.191935	0.190072	0.333487
O45	O	0.525268	0.523405	0.666820
N46	N	-0.059843	-0.131130	0.000110
N47	N	0.273491	0.202204	0.333443
N48	N	0.606824	0.535537	0.666777
C49	C	-0.016017	-0.099835	0.000106
C50	C	0.317316	0.233498	0.333440
C51	C	0.650650	0.566832	0.666773
O52	O	0.021740	-0.120728	0.000108
O53	O	0.355073	0.212605	0.333441
O54	O	0.688407	0.545938	0.666775
C55	C	-0.018068	0.101824	0.000105
C56	C	0.315265	0.435157	0.333439
C57	C	0.648598	0.768490	0.666772
C58	C	-0.062407	0.120944	0.000105
C59	C	0.270927	0.454278	0.333438
C60	C	0.604260	0.787611	0.666771
C61	C	-0.150563	0.108775	0.000111
C62	C	0.182770	0.442108	0.333444
C63	C	0.516103	0.775442	0.666778
C64	C	-0.151075	0.159187	0.000106
C65	C	0.182258	0.492520	0.333439
C66	C	0.515591	0.825853	0.666772
C67	C	-0.107253	0.190477	0.000100
C68	C	0.226080	0.523811	0.333433
C69	C	0.559413	0.857144	0.666766
C70	C	-0.062919	0.171356	0.000099
C71	C	0.270415	0.504690	0.333433
C72	C	0.603748	0.838023	0.666766
C73	C	0.025757	0.133117	0.000107
C74	C	0.359090	0.466451	0.333440
C75	C	0.692423	0.799784	0.666773
C76	C	0.025240	0.183535	0.000108
C77	C	0.358573	0.516868	0.333442
C78	C	0.691906	0.850201	0.666775
C79	C	-0.019098	0.202655	0.000108
C80	C	0.314235	0.535989	0.333441
C81	C	0.647568	0.869322	0.666774
C82	C	-0.019609	0.253059	0.000088
C83	C	0.313724	0.586392	0.333421
C84	C	0.647058	0.919725	0.666754
N85	N	-0.063944	0.272183	0.000095
N86	N	0.269389	0.605516	0.333428
N87	N	0.602723	0.938849	0.666761
C88	C	-0.107766	0.240892	0.000101
C89	C	0.225567	0.574225	0.333434
C90	C	0.558900	0.907559	0.666767
C91	C	-0.014943	-0.205709	0.000105
C92	C	0.318390	0.127624	0.333439
C93	C	0.651724	0.460957	0.666772
C94	C	-0.014430	-0.256124	0.000104
C95	C	0.318903	0.077210	0.333438
C96	C	0.652237	0.410543	0.666771
C97	C	-0.102591	-0.268291	0.000116
C98	C	0.230742	0.065042	0.333450
C99	C	0.564076	0.398376	0.666783
C100	C	-0.103104	-0.217876	0.000112
C101	C	0.230230	0.115458	0.333446
C102	C	0.563563	0.448791	0.666779
C103	C	-0.059278	-0.186585	0.000112
C104	C	0.274055	0.146748	0.333446
C105	C	0.607388	0.480081	0.666779
C106	C	-0.108839	0.346761	0.000088
C107	C	0.224495	0.680094	0.333422
C108	C	0.557828	1.013428	0.666755
C109	C	-0.109347	0.397178	0.000080
C110	C	0.223986	0.730511	0.333413
C111	C	0.557319	1.063845	0.666747
C112	C	-0.021186	0.409341	0.000072
C113	C	0.312147	0.742674	0.333405
C114	C	0.645480	1.076008	0.666738
C115	C	-0.020678	0.358929	0.000076
C116	C	0.312656	0.692262	0.333410
C117	C	0.645989	1.025595	0.666743
C118	C	-0.064508	0.327639	0.000087
C119	C	0.268825	0.660973	0.333421
C120	C	0.602159	0.994306	0.666754
O121	O	0.017592	0.284343	0.000060
O122	O	0.350925	0.617676	0.333393
O123	O	0.684259	0.951009	0.666726
O124	O	-0.145518	0.261794	0.000115
O125	O	0.187816	0.595128	0.333448
O126	O	0.521149	0.928461	0.666782
C127	C	-0.105716	0.039242	0.000116
C128	C	0.227617	0.372575	0.333450
C129	C	0.560950	0.705908	0.666783
C130	C	-0.061382	0.020120	0.000116
C131	C	0.271951	0.353454	0.333449
C132	C	0.605285	0.686787	0.666782
C133	C	-0.017560	0.051411	0.000110
C134	C	0.315774	0.384744	0.333443
C135	C	0.649107	0.718078	0.666777
C136	C	-0.060869	-0.030294	0.000115
C137	C	0.272464	0.303039	0.333448
C138	C	0.605798	0.636373	0.666781
C139	C	-0.104691	-0.061585	0.000121
C140	C	0.228642	0.271749	0.333454
C141	C	0.561975	0.605082	0.666787
C142	C	-0.149026	-0.042461	0.000128
C143	C	0.184307	0.290872	0.333461
C144	C	0.517640	0.624206	0.666794
C145	C	-0.149539	0.007951	0.000122
C146	C	0.183795	0.341284	0.333455
C147	C	0.517128	0.674618	0.666789
C148	C	0.026775	0.032287	0.000103
C149	C	0.360109	0.365621	0.333436
C150	C	0.693442	0.698954	0.666770
C151	C	0.027284	-0.018125	0.000108
C152	C	0.360617	0.315208	0.333441
C153	C	0.693951	0.648541	0.666774
C154	C	-0.016538	-0.049416	0.000114
C155	C	0.316795	0.283917	0.333447
C156	C	0.650129	0.617251	0.666780
C157	C	-0.150292	0.566338	0.000107
C158	C	0.183041	0.899671	0.333440
C159	C	0.516374	1.233005	0.666773
C160	C	-0.203947	0.566891	0.000114
C161	C	0.129386	0.900224	0.333447
C162	C	0.462720	1.233557	0.666781
C163	C	-0.542762	0.526187	0.000073
C164	C	-0.209429	0.859520	0.333406
C165	C	0.123904	1.192854	0.666740
C166	C	-0.744422	0.528238	0.000065
C167	C	-0.411088	0.861571	0.333398
C168	C	-0.077755	1.194905	0.666731
O169	O	-0.775677	0.491017	0.000027
O170	O	-0.442344	0.824351	0.333361
O171	O	-0.109011	1.157684	0.666694
N172	N	-0.763546	0.572573	0.000072
N173	N	-0.430212	0.905907	0.333405
N174	N	-0.096879	1.239240	0.666739
C175	C	-0.732251	0.616399	0.000077
C176	C	-0.398918	0.949732	0.333410
C177	C	-0.065584	1.283065	0.666743
O178	O	-0.753144	0.654156	0.000075
O179	O	-0.419811	0.987489	0.333409
O180	O	-0.086477	1.320822	0.666742
C181	C	-0.530592	0.614347	0.000080
C182	C	-0.197259	0.947681	0.333413
C183	C	0.136074	1.281014	0.666747
C184	C	-0.511472	0.570009	0.000080
C185	C	-0.178138	0.903343	0.333413
C186	C	0.155195	1.236676	0.666747
C187	C	-0.523641	0.481853	0.000072
C188	C	-0.190308	0.815186	0.333405
C189	C	0.143026	1.148519	0.666739
C190	C	-0.473229	0.481340	0.000078
C191	C	-0.139896	0.814674	0.333412
C192	C	0.193438	1.148007	0.666745
C193	C	-0.441938	0.525162	0.000085
C194	C	-0.108605	0.858496	0.333418
C195	C	0.224728	1.191829	0.666752
C196	C	-0.461060	0.569497	0.000086
C197	C	-0.127726	0.902830	0.333419
C198	C	0.205607	1.236164	0.666753
C199	C	-0.499299	0.658172	0.000080
C200	C	-0.165965	0.991506	0.333413
C201	C	0.167368	1.324839	0.666746
C202	C	-0.448881	0.657656	0.000078
C203	C	-0.115548	0.990989	0.333412
C204	C	0.217785	1.324322	0.666745
C205	C	-0.429761	0.613317	0.000078
C206	C	-0.096427	0.946651	0.333412
C207	C	0.236906	1.279984	0.666745
C208	C	-0.379357	0.612807	0.000099
C209	C	-0.046024	0.946140	0.333432
C210	C	0.287310	1.279474	0.666766
N211	N	-0.360233	0.568472	0.000092
N212	N	-0.026900	0.901805	0.333425
N213	N	0.306433	1.235138	0.666758
C214	C	-0.391524	0.524649	0.000085
C215	C	-0.058191	0.857983	0.333418
C216	C	0.275143	1.191316	0.666751
C217	C	-0.838125	0.617473	0.000077
C218	C	-0.504792	0.950806	0.333410
C219	C	-0.171458	1.284139	0.666743
C220	C	-0.888539	0.617986	0.000077
C221	C	-0.555206	0.951319	0.333410
C222	C	-0.221873	1.284652	0.666744
C223	C	-0.900707	0.529825	0.000064
C224	C	-0.567374	0.863158	0.333397
C225	C	-0.234040	1.196491	0.666730
C226	C	-0.850291	0.529312	0.000068
C227	C	-0.516958	0.862646	0.333402
C228	C	-0.183625	1.195979	0.666735
C229	C	-0.819001	0.573138	0.000069
C230	C	-0.485668	0.906471	0.333402
C231	C	-0.152335	1.239804	0.666736
C232	C	-0.285655	0.523577	0.000098
C233	C	0.047679	0.856910	0.333431
C234	C	0.381012	1.190244	0.666765
C235	C	-0.235238	0.523069	0.000107
C236	C	0.098096	0.856402	0.333440
C237	C	0.431429	1.189735	0.666774
C238	C	-0.223075	0.611229	0.000117
C239	C	0.110259	0.944563	0.333450
C240	C	0.443592	1.277896	0.666783
C241	C	-0.273487	0.611738	0.000112
C242	C	0.059846	0.945071	0.333445
C243	C	0.393179	1.278405	0.666778
C244	C	-0.304777	0.567908	0.000100
C245	C	0.028557	0.901241	0.333433
C246	C	0.361890	1.234575	0.666766
O247	O	-0.348073	0.650008	0.000128
O248	O	-0.014740	0.983341	0.333461
O249	O	0.318594	1.316674	0.666795
O250	O	-0.370621	0.486898	0.000070
O251	O	-0.037288	0.820231	0.333403
O252	O	0.296045	1.153565	0.666737
C253	C	-0.593174	0.526699	0.000067
C254	C	-0.259841	0.860033	0.333400
C255	C	0.073493	1.193366	0.666734
C256	C	-0.612295	0.571034	0.000068
C257	C	-0.278962	0.904367	0.333401
C258	C	0.054371	1.237700	0.666734
C259	C	-0.581005	0.614856	0.000075
C260	C	-0.247671	0.948189	0.333408
C261	C	0.085662	1.281523	0.666741
C262	C	-0.662710	0.571547	0.000068
C263	C	-0.329377	0.904880	0.333402
C264	C	0.003957	1.238213	0.666735
C265	C	-0.694001	0.527725	0.000061
C266	C	-0.360667	0.861058	0.333395
C267	C	-0.027334	1.194391	0.666728
C268	C	-0.674877	0.483389	0.000054
C269	C	-0.341543	0.816723	0.333387
C270	C	-0.008210	1.150056	0.666721
C271	C	-0.624465	0.482877	0.000060
C272	C	-0.291131	0.816210	0.333393
C273	C	0.042202	1.149544	0.666727
C274	C	-0.600129	0.659191	0.000082
C275	C	-0.266795	0.992525	0.333416
C276	C	0.066538	1.325858	0.666749
C277	C	-0.650541	0.659700	0.000077
C278	C	-0.317208	0.993033	0.333410
C279	C	0.016126	1.326367	0.666744
C280	C	-0.681832	0.615878	0.000070
C281	C	-0.348498	0.949211	0.333403
C282	C	-0.015165	1.282544	0.666737
C283	C	0.026515	0.574716	0.000082
C284	C	0.359848	0.908050	0.333416
C285	C	0.693182	1.241383	0.666749
C286	C	0.080170	0.574164	0.000070
C287	C	0.413503	0.907497	0.333403
C288	C	0.746837	1.240830	0.666737
C289	C	-0.057699	0.658931	0.000107
C290	C	0.275634	0.992264	0.333440
C291	C	0.608967	1.325598	0.666773
C292	C	-0.058252	0.712586	0.000110
C293	C	0.275081	1.045919	0.333444
C294	C	0.608414	1.379252	0.666777
N295	N	-0.061883	0.570511	0.188763
N296	N	0.271451	0.903844	0.522097
N297	N	0.604784	1.237178	0.855430
N298	N	-0.061891	0.570547	-0.188573
N299	N	0.271443	0.903880	0.144761
N300	N	0.604776	1.237214	0.478094
C301	C	-0.028791	0.603630	0.226864
C302	C	0.304542	0.936963	0.560197
C303	C	0.637876	1.270296	0.893531
C304	C	-0.028789	0.603633	0.303092
C305	C	0.304545	0.936966	0.636425
C306	C	0.637878	1.270299	0.969759
C307	C	-0.061887	0.570522	0.341216
C308	C	0.271447	0.903855	0.674549
C309	C	0.604780	1.237188	1.007883
C310	C	-0.094981	0.537397	0.303106
C311	C	0.238352	0.870730	0.636439
C312	C	0.571686	1.204064	0.969773
C313	C	-0.094979	0.537392	0.226880
C314	C	0.238354	0.870725	0.560213
C315	C	0.571688	1.204058	0.893546
C316	C	-0.105958	0.563860	0.461981
C317	C	0.227375	0.897193	0.795315
C318	C	0.560708	1.230526	1.128648
C319	C	-0.105961	0.563869	0.538206
C320	C	0.227372	0.897202	0.871540
C321	C	0.560706	1.230535	1.204873
C322	C	-0.061893	0.570536	0.576324
C323	C	0.271441	0.903869	0.909657
C324	C	0.604774	1.237202	1.242990
C325	C	-0.017820	0.577204	0.538206
C326	C	0.315514	0.910537	0.871540
C327	C	0.648847	1.243871	1.204873
C328	C	-0.017818	0.577199	0.461980
C329	C	0.315515	0.910532	0.795313
C330	C	0.648849	1.243865	1.128647
C331	C	-0.061892	0.570524	0.423871
C332	C	0.271441	0.903857	0.757204
C333	C	0.604774	1.237190	1.090537
C334	C	-0.028796	0.603659	0.697079
C335	C	0.304538	0.936993	1.030413
C336	C	0.637871	1.270326	1.363746
C337	C	-0.028793	0.603659	0.773309
C338	C	0.304540	0.936992	1.106642
C339	C	0.637874	1.270326	1.439975
C340	C	-0.094989	0.537426	0.773321
C341	C	0.238344	0.870759	1.106654
C342	C	0.571677	1.204092	1.439988
C343	C	-0.094988	0.537424	0.697093
C344	C	0.238345	0.870757	1.030427
C345	C	0.571679	1.204090	1.363760
C346	C	-0.061892	0.570543	0.658977
C347	C	0.271442	0.903876	0.992310
C348	C	0.604775	1.237210	1.325644
H349	H	0.061861	0.117558	0.000108
H350	H	0.395195	0.450892	0.333441
H351	H	0.728528	0.784225	0.666774
H352	H	-0.185643	0.023514	0.000123
H353	H	0.147690	0.356847	0.333456
H354	H	0.481023	0.690181	0.666789
Cl355	Cl	-0.204116	-0.081807	0.000132
Cl356	Cl	0.129217	0.251526	0.333465
Cl357	Cl	0.462550	0.584859	0.666799
Cl358	Cl	-0.205662	0.069446	0.000117
Cl359	Cl	0.127671	0.402779	0.333450
Cl360	Cl	0.461005	0.736113	0.666783
H361	H	-0.197589	0.646908	0.000126
H362	H	0.135744	0.980241	0.333459
H363	H	0.469078	1.313575	0.666793
Cl364	Cl	0.083029	-0.042156	0.000099
Cl365	Cl	0.416363	0.291178	0.333432
Cl366	Cl	0.749696	0.624511	0.666765
Cl367	Cl	-0.523323	0.713915	0.000062
Cl368	Cl	-0.189990	1.047249	0.333395
Cl369	Cl	0.143343	1.380582	0.666729
H370	H	-0.141846	0.558422	0.430953
H371	H	0.191487	0.891756	0.764286
H372	H	0.524820	1.225089	1.097619
H373	H	-0.001843	0.630627	0.804331
H374	H	0.331490	0.963960	1.137664
H375	H	0.664824	1.297293	1.470998
H376	H	-0.926193	0.494143	0.000061
H377	H	-0.592859	0.827476	0.333394
H378	H	-0.259526	1.160810	0.666728
Cl379	Cl	-0.158845	-0.193844	0.000114
Cl380	Cl	0.174489	0.139490	0.333448
Cl381	Cl	0.507822	0.472823	0.666781
Cl382	Cl	-0.674571	0.715445	0.000076
Cl383	Cl	-0.341238	1.048778	0.333409
Cl384	Cl	-0.007905	1.382112	0.666743
H385	H	-0.121929	0.510437	0.334150
H386	H	0.211404	0.843770	0.667484
H387	H	0.544738	1.177103	1.000817
Cl388	Cl	-0.165091	0.421212	0.000077
Cl389	Cl	0.168243	0.754545	0.333411
Cl390	Cl	0.501576	1.087878	0.666744
H391	H	-0.121927	0.510422	0.195857
H392	H	0.211406	0.843755	0.529190
H393	H	0.544740	1.177089	0.862524
H394	H	-0.001841	0.630596	0.195832
H395	H	0.331493	0.963930	0.529165
H396	H	0.664826	1.297263	0.862499
H397	H	-0.608902	0.446773	0.000061
H398	H	-0.275568	0.780106	0.333394
H399	H	0.057765	1.113439	0.666727
Cl400	Cl	-0.826260	0.473571	0.000066
Cl401	Cl	-0.492926	0.806905	0.333399
Cl402	Cl	-0.159593	1.140238	0.666733
H403	H	0.062462	0.057760	0.000100
H404	H	0.395795	0.391093	0.333433
H405	H	0.729128	0.724427	0.666767
Cl406	Cl	0.033901	0.448687	0.000068
Cl407	Cl	0.367235	0.782020	0.333401
Cl408	Cl	0.700568	1.115354	0.666734
H409	H	-0.904103	0.654090	0.000089
H410	H	-0.570769	0.987424	0.333422
H411	H	-0.237436	1.320757	0.666755
Cl412	Cl	0.035062	0.334890	0.000080
Cl413	Cl	0.368395	0.668224	0.333414
Cl414	Cl	0.701729	1.001557	0.666747
Cl415	Cl	-0.136594	0.495789	0.649190
Cl416	Cl	0.196740	0.829123	0.982524
Cl417	Cl	0.530073	1.162456	1.315857
Cl418	Cl	-0.157681	-0.307637	0.000127
Cl419	Cl	0.175652	0.025696	0.333460
Cl420	Cl	0.508985	0.359030	0.666793
H421	H	0.021674	-0.271687	0.000093
H422	H	0.355008	0.061646	0.333427
H423	H	0.688341	0.394980	0.666760
H424	H	-0.121937	0.510464	0.804361
H425	H	0.211397	0.843797	1.137694
H426	H	0.544730	1.177131	1.471028
H427	H	-0.700363	0.447708	0.000053
H428	H	-0.367029	0.781041	0.333386
H429	H	-0.033696	1.114375	0.666719
Cl430	Cl	-0.560799	0.714288	0.000094
Cl431	Cl	-0.227465	1.047621	0.333427
Cl432	Cl	0.105868	1.380955	0.666760
Cl433	Cl	-0.562970	0.426754	0.000062
Cl434	Cl	-0.229636	0.760087	0.333396
Cl435	Cl	0.103697	1.093421	0.666729
Cl436	Cl	-0.211204	0.467325	0.000108
Cl437	Cl	0.122129	0.800658	0.333442
Cl438	Cl	0.455463	1.133992	0.666775
H439	H	0.020747	-0.180236	0.000105
H440	H	0.354080	0.153097	0.333439
H441	H	0.687414	0.486430	0.666772
H442	H	-0.001840	0.630603	0.334119
H443	H	0.331493	0.963936	0.667453
H444	H	0.664826	1.297269	1.000786
H445	H	-0.423407	0.693344	0.000075
H446	H	-0.090073	1.026678	0.333409
H447	H	0.243260	1.360011	0.666742
Cl448	Cl	-0.798795	0.672573	0.000083
Cl449	Cl	-0.465462	1.005907	0.333416
Cl450	Cl	-0.132128	1.339240	0.666750
Cl451	Cl	-0.163940	0.307434	0.000101
Cl452	Cl	0.169393	0.640767	0.333434
Cl453	Cl	0.502726	0.974100	0.666768
Cl454	Cl	-0.449199	0.425598	0.000069
Cl455	Cl	-0.115866	0.758931	0.333402
Cl456	Cl	0.217467	1.092265	0.666736
H457	H	0.018065	0.582633	0.569240
H458	H	0.351398	0.915966	0.902573
H459	H	0.684731	1.249299	1.235906
Cl460	Cl	-0.206818	0.183216	0.000110
Cl461	Cl	0.126515	0.516550	0.333444
Cl462	Cl	0.459849	0.849883	0.666777
Cl463	Cl	0.037585	0.585576	0.414064
Cl464	Cl	0.370918	0.918909	0.747397
Cl465	Cl	0.704252	1.252243	1.080730
H466	H	-0.311125	0.487886	0.000088
H467	H	0.022208	0.821220	0.333421
H468	H	0.355542	1.154553	0.666755
Cl469	Cl	0.080338	0.222868	0.000110
Cl470	Cl	0.413671	0.556201	0.333443
Cl471	Cl	0.747005	0.889535	0.666776
H472	H	-0.141847	0.558442	0.569235
H473	H	0.191486	0.891775	0.902569
H474	H	0.524819	1.225108	1.235902
H475	H	-0.289056	0.647842	0.000122
H476	H	0.044277	0.981175	0.333455
H477	H	0.377611	1.314508	0.666789
Cl478	Cl	0.012813	0.645292	0.649161
Cl479	Cl	0.346147	0.978626	0.982494
Cl480	Cl	0.679480	1.311959	1.315827
