data_functionalizedCrystal
_audit_creation_method	'MofGen! by Chris Wilmer'
_symmetry_space_group_name_H-M	'P1'
_symmetry_Int_Tables_number	1
_symmetry_cell_setting	triclinic
loop_
_symmetry_equiv_pos_as_xyz
  x,y,z
_cell_length_a	19.288864
_cell_length_b	19.288864
_cell_length_c	17.766277
_cell_angle_alpha	90.028157
_cell_angle_beta	89.976791
_cell_angle_gamma	96.863758
loop_
_atom_site_label
_atom_site_type_symbol
_atom_site_fract_x
_atom_site_fract_y
_atom_site_fract_z
O1	O	-0.921353	0.086649	0.062871
O2	O	-0.719092	0.098337	0.062825
O3	O	-0.826067	-0.008637	0.062803
O4	O	-0.814378	0.193623	0.062893
O5	O	-0.826048	-0.008643	-0.062386
O6	O	-0.719074	0.098332	-0.062364
O7	O	-0.921334	0.086643	-0.062317
Cu8	Cu	-0.820202	0.092487	-0.073771
Cu9	Cu	-0.820224	0.092494	0.074279
O10	O	-0.814360	0.193618	-0.062295
C11	C	-0.693207	0.097959	0.000224
C12	C	-0.616103	0.096830	0.000203
C13	C	-0.825682	-0.034516	0.000198
C14	C	-0.824553	-0.111620	0.000167
C15	C	-0.947220	0.087022	0.000286
C16	C	-1.024324	0.088151	0.000311
C17	C	-0.814745	0.219497	0.000311
C18	C	-0.815874	0.296601	0.000347
C19	C	-0.571407	0.159598	0.000243
C20	C	-0.498960	0.158537	0.000251
C21	C	-0.471212	0.094705	0.000234
C22	C	-0.515918	0.031929	0.000190
C23	C	-0.588364	0.032991	0.000175
C24	C	-0.362957	0.044527	0.044096
C25	C	-0.290512	0.043468	0.044116
C26	C	-0.247767	0.091425	0.000278
C27	C	-0.277473	0.140454	-0.043570
C28	C	-0.349918	0.141517	-0.043585
C29	C	-0.392658	0.093546	0.000250
C30	C	-0.124514	0.153047	0.000326
C31	C	-0.052066	0.151984	0.000329
C32	C	-0.069026	0.025374	0.000275
C33	C	-0.141473	0.026439	0.000265
C34	C	-0.169212	0.090278	0.000293
N35	N	-0.820192	0.092482	-0.177902
C36	C	-0.753106	0.341297	0.000317
C37	C	-0.754167	0.413744	0.000301
C38	C	-0.817999	0.441492	0.000298
C39	C	-0.880775	0.396786	0.000332
C40	C	-0.879713	0.324340	0.000357
C41	C	-0.868172	0.549740	-0.043589
C42	C	-0.869231	0.622184	-0.043618
C43	C	-0.821279	0.664937	0.000227
C44	C	-0.772254	0.635238	0.044091
C45	C	-0.771192	0.562793	0.044115
C46	C	-0.819158	0.520046	0.000273
C47	C	-0.759657	0.788190	0.000180
C48	C	-0.760720	0.860638	0.000168
C49	C	-0.887330	0.843677	0.000192
C50	C	-0.886265	0.771231	0.000212
C51	C	-0.822426	0.743492	0.000202
C52	C	-0.867575	0.045137	-0.217298
C53	C	-0.867579	0.045134	-0.296100
C54	C	-0.820206	0.092488	-0.335502
C55	C	-0.772814	0.139837	-0.296096
C56	C	-0.772807	0.139834	-0.217296
C57	C	-0.810908	0.155775	-0.460313
C58	C	-0.810920	0.155779	-0.539112
C59	C	-0.820225	0.092496	-0.578548
C60	C	-0.829533	0.029207	-0.539176
C61	C	-0.829525	0.029204	-0.460376
C62	C	-0.820209	0.092496	-0.420948
C63	C	-0.867616	0.045143	-0.703391
C64	C	-0.867615	0.045139	-0.782194
C65	C	-0.772853	0.139848	-0.782189
C66	C	-0.772850	0.139846	-0.703387
C67	C	-0.820235	0.092495	-0.663993
N68	N	-0.820241	0.092493	0.178409
H69	H	-0.462561	0.209652	0.000282
H70	H	-0.624756	-0.018124	0.000143
H71	H	-0.177866	-0.024674	0.000236
H72	H	-0.734220	0.178389	-0.185218
H73	H	-0.906198	0.006585	-0.671315
O74	O	-0.261775	-0.004223	0.086725
C75	C	-0.315035	-0.046320	0.125418
H76	H	-0.366648	-0.045476	0.094391
H77	H	-0.301550	-0.102215	0.128226
H78	H	-0.319976	-0.025313	0.184925
O79	O	-0.725694	0.676677	0.086797
C80	C	-0.734617	0.657804	0.163158
H81	H	-0.760525	0.601634	0.167259
H82	H	-0.681528	0.662448	0.192106
H83	H	-0.769012	0.694070	0.191855
H84	H	-0.937377	0.734838	0.000231
O85	O	-0.916910	0.650915	-0.086251
C86	C	-0.958999	0.597649	-0.124955
H87	H	-0.958168	0.546043	-0.093915
H88	H	-1.014890	0.611139	-0.127794
H89	H	-0.937973	0.592693	-0.184449
H90	H	-0.907226	0.514935	-0.079291
H91	H	-0.593987	0.211580	0.000268
H92	H	-0.242670	0.179505	-0.079268
H93	H	-0.703052	0.450143	0.000275
O94	O	-0.942738	0.423819	0.000429
C95	C	-0.947156	0.465252	0.065260
H96	H	-0.892356	0.483482	0.086860
H97	H	-0.974692	0.512597	0.050665
H98	H	-0.977992	0.433183	0.110679
H99	H	-0.046435	-0.026600	0.000308
H100	H	-0.493322	-0.020044	0.000187
H101	H	-0.397755	0.005473	0.079799
O102	O	-0.913714	-0.000880	-0.820350
C103	C	-0.955522	-0.042681	-0.768678
H104	H	-0.956208	-0.014205	-0.712490
H105	H	-1.011026	-0.053410	-0.791422
H106	H	-0.933142	-0.094228	-0.760338
H107	H	-0.734278	0.178402	-0.814269
O108	O	-0.726800	0.185911	-0.665229
C109	C	-0.684975	0.227696	-0.716901
H110	H	-0.713453	0.228410	-0.773057
H111	H	-0.674201	0.283193	-0.694107
H112	H	-0.633451	0.205273	-0.725322
H113	H	-0.701124	0.318717	0.000316
O114	O	-0.801841	0.217317	-0.577238
C115	C	-0.793633	0.273171	-0.525536
H116	H	-0.774606	0.254005	-0.469387
H117	H	-0.753773	0.316496	-0.548302
H118	H	-0.845881	0.294179	-0.517111
H119	H	-0.930828	0.287948	0.000382
O120	O	-0.838448	-0.032260	-0.577503
C121	C	-0.779520	-0.037714	-0.623130
H122	H	-0.732652	-0.002966	-0.599392
H123	H	-0.767782	-0.094247	-0.624054
H124	H	-0.790475	-0.020340	-0.682839
H125	H	-0.374102	0.181436	-0.079290
O126	O	-0.913625	-0.000931	-0.179149
C127	C	-0.955460	-0.042709	-0.230826
H128	H	-0.926991	-0.043417	-0.287014
H129	H	-0.966231	-0.098209	-0.208088
H130	H	-1.006984	-0.020285	-0.239163
H131	H	-0.803318	0.207311	-0.428211
O132	O	-0.838435	-0.032296	-0.422172
C133	C	-0.784605	-0.072458	-0.441506
H134	H	-0.737584	-0.036584	-0.463173
H135	H	-0.768842	-0.101728	-0.389715
H136	H	-0.803860	-0.111537	-0.487262
H137	H	-0.734241	0.178392	-0.328181
H138	H	-0.147101	0.205028	0.000338
H139	H	-0.731276	0.538615	0.079832
H140	H	-0.707675	0.765603	0.000168
O141	O	-0.913642	-0.000764	-0.334460
C142	C	-0.956385	0.036333	-0.379980
H143	H	-0.928545	0.090754	-0.391769
H144	H	-0.967474	0.007315	-0.435403
H145	H	-1.007698	0.040925	-0.349578
O146	O	-0.699808	0.904157	0.000175
C147	C	-0.714432	0.974049	0.000143
H148	H	-0.768983	0.976672	0.023855
H149	H	-0.674411	1.007021	0.036471
H150	H	-0.711727	0.994970	-0.059923
H151	H	-0.939303	0.866269	0.000245
H152	H	-0.015674	0.203099	0.000357
