data_functionalizedCrystal
_audit_creation_method	'MofGen! by Chris Wilmer'
_symmetry_space_group_name_H-M	'P1'
_symmetry_Int_Tables_number	1
_symmetry_cell_setting	triclinic
loop_
_symmetry_equiv_pos_as_xyz
  x,y,z
_cell_length_a	12.759401
_cell_length_b	12.594516
_cell_length_c	12.594509
_cell_angle_alpha	89.973801
_cell_angle_beta	89.980736
_cell_angle_gamma	90.015344
loop_
_atom_site_label
_atom_site_type_symbol
_atom_site_fract_x
_atom_site_fract_y
_atom_site_fract_z
Zn1	Zn	1.606239	-0.423730	-0.601816
Zn2	Zn	1.606131	-0.601740	-0.423844
Zn3	Zn	1.430543	-0.423774	-0.423852
Zn4	Zn	1.430525	-0.601665	-0.601781
O5	O	1.518359	-0.512727	-0.512823
O6	O	1.753245	-0.447357	-0.578220
O7	O	1.582801	-0.578183	-0.274899
O8	O	1.453901	-0.274822	-0.447477
O9	O	1.753166	-0.578140	-0.447465
O10	O	1.582985	-0.274790	-0.578227
O11	O	1.453797	-0.447432	-0.274905
O12	O	1.283519	-0.447358	-0.447443
O13	O	1.453872	-0.578011	-0.750731
O14	O	1.283506	-0.578054	-0.578166
O15	O	1.582968	-0.447284	-0.750758
O16	O	1.582784	-0.750676	-0.447430
O17	O	1.453767	-0.750621	-0.578159
C18	C	1.245392	-0.512704	-0.512802
C19	C	1.128615	-0.512719	-0.512818
C20	C	1.518290	-0.789268	-0.512813
C21	C	1.518357	-0.907574	-0.512844
C22	C	0.963998	-0.444601	-0.444891
C23	C	1.073722	-0.444576	-0.444875
C24	C	1.073779	-0.580883	-0.580790
C25	C	0.964057	-0.580902	-0.580810
C26	C	1.223665	-0.318977	-0.407029
C27	C	1.278498	-0.250825	-0.339048
C28	C	1.242835	-0.234362	-0.235226
C29	C	1.152341	-0.286066	-0.199363
C30	C	1.097514	-0.354226	-0.267338
C31	C	1.133176	-0.370669	-0.371175
C32	C	0.814112	-0.706503	-0.618645
C33	C	0.759283	-0.774669	-0.686616
C34	C	0.794943	-0.791143	-0.790440
C35	C	0.885440	-0.739458	-0.826298
C36	C	0.940269	-0.671292	-0.758328
C37	C	0.904601	-0.654816	-0.654505
C38	C	1.448178	-0.976835	-0.583898
C39	C	1.422580	-1.047700	-0.486775
C40	C	1.544051	-1.047508	-0.609983
C41	C	1.492708	-0.976881	-0.415670
C42	C	1.614224	-0.976682	-0.538943
C43	C	1.588662	-1.047515	-0.441754
C44	C	1.792392	-0.512752	-0.512845
C45	C	1.909169	-0.512763	-0.512855
C46	C	1.518430	-0.512634	-0.790444
C47	C	1.518460	-0.512594	-0.908750
C48	C	1.518457	-0.235107	-0.512857
C49	C	1.518499	-0.116801	-0.512871
C50	C	1.448266	-0.583657	-0.977989
C51	C	1.544132	-0.609664	-1.048777
C52	C	1.422669	-0.486523	-1.048761
C53	C	1.614375	-0.538653	-0.977979
C54	C	1.492848	-0.415466	-0.977958
C55	C	1.588779	-0.441437	-1.048714
C56	C	1.518350	-0.512743	-0.236282
C57	C	1.518523	-0.512483	-0.117977
H58	H	0.919312	-0.389113	-0.389562
Br59	Br	1.580300	-0.746487	-1.100624
Br60	Br	1.349091	-0.925105	-0.683906
H61	H	1.118481	-0.636362	-0.636115
H62	H	1.388953	-0.643846	-0.946936
Br63	Br	1.456431	-0.925394	-0.278727
Br64	Br	1.063091	-0.601147	-0.806992
Br65	Br	1.749479	-0.575496	-0.926384
Br66	Br	1.456639	-0.278678	-0.926068
Br67	Br	1.287607	-0.449845	-1.100588
Br68	Br	1.687870	-0.341194	-1.100154
Br69	Br	1.287556	-1.099689	-0.449985
H70	H	1.023837	-0.396324	-0.238139
H71	H	1.123319	-0.272665	-0.114816
Br72	Br	1.317255	-0.141873	-0.142967
H73	H	0.914479	-0.752874	-0.910839
Br74	Br	0.636481	-0.844842	-0.637939
Br75	Br	1.580175	-1.099225	-0.746881
H76	H	0.785054	-0.693076	-0.534110
Br77	Br	1.401307	-0.180659	-0.387716
H78	H	1.252704	-0.332365	-0.491572
Br79	Br	0.720538	-0.883666	-0.882682
H80	H	1.695213	-0.945466	-0.561042
Br81	Br	1.687687	-1.098916	-0.341515
