data_functionalizedCrystal
_audit_creation_method	'MofGen! by Chris Wilmer'
_symmetry_space_group_name_H-M	'P1'
_symmetry_Int_Tables_number	1
_symmetry_cell_setting	triclinic
loop_
_symmetry_equiv_pos_as_xyz
  x,y,z
_cell_length_a	19.077105
_cell_length_b	12.594516
_cell_length_c	19.076919
_cell_angle_alpha	87.724265
_cell_angle_beta	89.923776
_cell_angle_gamma	87.708332
loop_
_atom_site_label
_atom_site_type_symbol
_atom_site_fract_x
_atom_site_fract_y
_atom_site_fract_z
Zn1	Zn	1.058345	-0.514931	0.440441
Zn2	Zn	1.391678	-0.181598	0.773775
Zn3	Zn	1.725011	0.151735	1.107108
Zn4	Zn	1.063009	-0.686070	0.322942
Zn5	Zn	1.396342	-0.352737	0.656276
Zn6	Zn	1.729676	-0.019404	0.989609
Zn7	Zn	0.945560	-0.500673	0.318234
Zn8	Zn	1.278894	-0.167339	0.651567
Zn9	Zn	1.612227	0.165994	0.984901
Zn10	Zn	0.940831	-0.685429	0.435695
Zn11	Zn	1.274164	-0.352095	0.769028
Zn12	Zn	1.607497	-0.018762	1.102362
O13	O	1.001936	-0.596776	0.379328
O14	O	1.335269	-0.263442	0.712661
O15	O	1.668603	0.069891	1.045995
O16	O	1.157296	-0.543869	0.428812
O17	O	1.490629	-0.210536	0.762145
O18	O	1.823963	0.122797	1.095478
O19	O	1.051361	-0.655778	0.223986
O20	O	1.384694	-0.322445	0.557320
O21	O	1.718027	0.010888	0.890653
O22	O	0.960549	-0.353621	0.334461
O23	O	1.293882	-0.020288	0.667794
O24	O	1.627215	0.313046	1.001128
O25	O	1.160723	-0.669604	0.342486
O26	O	1.494056	-0.336271	0.675819
O27	O	1.827390	-0.002938	1.009152
O28	O	1.043411	-0.364097	0.424246
O29	O	1.376744	-0.030764	0.757580
O30	O	1.710077	0.302570	1.090913
O31	O	0.965072	-0.519568	0.220527
O32	O	1.298405	-0.186234	0.553860
O33	O	1.631738	0.147099	0.887194
O34	O	0.846600	-0.518945	0.329859
O35	O	1.179934	-0.185612	0.663192
O36	O	1.513267	0.147722	0.996525
O37	O	0.952488	-0.668510	0.534656
O38	O	1.285821	-0.335177	0.867989
O39	O	1.619154	-0.001844	1.201323
O40	O	0.843125	-0.654684	0.416157
O41	O	1.176459	-0.321351	0.749490
O42	O	1.509792	0.011982	1.082823
O43	O	1.038825	-0.543247	0.538143
O44	O	1.372158	-0.209914	0.871477
O45	O	1.705491	0.123420	1.204810
O46	O	1.046775	-0.834928	0.337883
O47	O	1.380108	-0.501595	0.671217
O48	O	1.713441	-0.168262	1.004550
O49	O	0.957011	-0.834457	0.420722
O50	O	1.290344	-0.501123	0.754055
O51	O	1.623677	-0.167790	1.087389
C52	C	0.819366	-0.585199	0.371982
C53	C	1.152700	-0.251865	0.705315
C54	C	1.486033	0.081468	1.038649
C55	C	0.741261	-0.580272	0.368856
C56	C	1.074595	-0.246939	0.702189
C57	C	1.407928	0.086394	1.035523
C58	C	0.702780	-0.648729	0.412248
C59	C	1.036113	-0.315395	0.745581
C60	C	1.369446	0.017938	1.078914
C61	C	0.629392	-0.644086	0.409314
C62	C	0.962725	-0.310753	0.742647
C63	C	1.296058	0.022580	1.075980
C64	C	0.594487	-0.570992	0.362984
C65	C	0.927820	-0.237659	0.696318
C66	C	1.261154	0.095675	1.029651
C67	C	0.632974	-0.502528	0.319591
C68	C	0.966307	-0.169195	0.652924
C69	C	1.299641	0.164138	0.986258
C70	C	0.706360	-0.507166	0.322529
C71	C	1.039694	-0.173833	0.655862
C72	C	1.373027	0.159500	0.989196
C73	C	0.375197	-0.549527	0.349391
C74	C	0.708530	-0.216193	0.682724
C75	C	1.041863	0.117140	1.016057
C76	C	0.301805	-0.544896	0.346455
C77	C	0.635138	-0.211562	0.679788
C78	C	0.968472	0.121771	1.013121
C79	C	0.298228	-0.686453	0.436179
C80	C	0.631561	-0.353120	0.769512
C81	C	0.964894	-0.019786	1.102845
C82	C	0.371616	-0.691089	0.439109
C83	C	0.704949	-0.357756	0.772443
C84	C	1.038283	-0.024422	1.105776
C85	C	0.410096	-0.622622	0.395719
C86	C	0.743430	-0.289288	0.729052
C87	C	1.076763	0.044045	1.062385
N88	N	0.519473	-0.566247	0.359983
N89	N	0.852806	-0.232914	0.693316
N90	N	1.186139	0.100420	1.026649
N91	N	0.485109	-0.627362	0.398724
N92	N	0.818442	-0.294029	0.732058
N93	N	1.151776	0.039305	1.065391
C94	C	1.001904	-0.873314	0.379315
C95	C	1.335237	-0.539981	0.712648
C96	C	1.668571	-0.206647	1.045981
C97	C	1.001954	-0.991624	0.379335
C98	C	1.335287	-0.658290	0.712668
C99	C	1.668620	-0.324957	1.046002
C100	C	1.050829	-1.061101	0.334331
C101	C	1.384162	-0.727768	0.667664
C102	C	1.717495	-0.394434	1.000998
C103	C	1.065420	-1.136633	0.399156
C104	C	1.398753	-0.803300	0.732489
C105	C	1.732087	-0.469966	1.065823
C106	C	0.987449	-1.126899	0.314555
C107	C	1.320782	-0.793565	0.647888
C108	C	1.654115	-0.460232	0.981221
C109	C	1.016576	-1.065601	0.444195
C110	C	1.349910	-0.732268	0.777528
C111	C	1.683243	-0.398935	1.110861
C112	C	0.938577	-1.055856	0.359549
C113	C	1.271910	-0.722523	0.692882
C114	C	1.605244	-0.389190	1.026215
C115	C	0.953142	-1.131357	0.424417
C116	C	1.286475	-0.798024	0.757750
C117	C	1.619809	-0.464691	1.091083
C118	C	1.185219	-0.608399	0.386703
C119	C	1.518552	-0.275066	0.720037
C120	C	1.851886	0.058268	1.053370
C121	C	1.263323	-0.613352	0.389846
C122	C	1.596656	-0.280019	0.723179
C123	C	1.929990	0.053315	1.056513
C124	C	0.994608	-0.607398	0.562609
C125	C	1.327942	-0.274064	0.895942
C126	C	1.661275	0.059269	1.229275
C127	C	0.991485	-0.611924	0.640712
C128	C	1.324819	-0.278591	0.974045
C129	C	1.658152	0.054743	1.307379
C130	C	1.001987	-0.319160	0.379358
C131	C	1.335320	0.014173	0.712691
C132	C	1.668654	0.347507	1.046025
C133	C	1.002008	-0.200856	0.379371
C134	C	1.335342	0.132477	0.712704
C135	C	1.668675	0.465810	1.046037
C136	C	1.009276	-0.586121	0.196762
C137	C	1.342609	-0.252788	0.530095
C138	C	1.675943	0.080546	0.863429
C139	C	1.012535	-0.581304	0.118665
C140	C	1.345868	-0.247970	0.451998
C141	C	1.679201	0.085363	0.785331
C142	C	1.034967	-0.548835	0.679222
C143	C	1.368300	-0.215502	1.012555
C144	C	1.701634	0.117831	1.345888
C145	C	1.032024	-0.553084	0.752608
C146	C	1.365358	-0.219750	1.085941
C147	C	1.698691	0.113583	1.419274
C148	C	0.985603	-0.620427	0.787483
C149	C	1.318937	-0.287094	1.120816
C150	C	1.652270	0.046240	1.454150
C151	C	0.942117	-0.683518	0.748968
C152	C	1.275450	-0.350185	1.082301
C153	C	1.608783	-0.016851	1.415634
C154	C	0.945056	-0.679263	0.675583
C155	C	1.278390	-0.345930	1.008916
C156	C	1.611723	-0.012597	1.342250
C157	C	0.971988	-0.640140	1.006765
C158	C	1.305321	-0.306806	1.340098
C159	C	1.638655	0.026527	1.673432
C160	C	0.969053	-0.644392	1.080155
C161	C	1.302386	-0.311059	1.413488
C162	C	1.635720	0.022275	1.746822
C163	C	1.058960	-0.513956	1.083790
C164	C	1.392294	-0.180623	1.417123
C165	C	1.725627	0.152711	1.750457
C166	C	1.061899	-0.509712	1.010404
C167	C	1.395232	-0.176379	1.343737
C168	C	1.728565	0.156955	1.677070
C169	C	1.018410	-0.572799	0.971895
C170	C	1.351743	-0.239465	1.305228
C171	C	1.685076	0.093868	1.638562
N172	N	0.982596	-0.624774	0.862495
N173	N	1.315929	-0.291440	1.195829
N174	N	1.649262	0.041893	1.529162
N175	N	1.021414	-0.568446	0.896884
N176	N	1.354748	-0.235112	1.230217
N177	N	1.688081	0.098221	1.563550
H178	H	0.273387	-0.485361	0.308732
H179	H	0.606721	-0.152028	0.642065
H180	H	0.940054	0.181305	0.975399
H181	H	1.094366	-0.462593	1.115151
H182	H	1.427699	-0.129260	1.448485
H183	H	1.761032	0.204074	1.781818
H184	H	0.936587	-0.691526	0.975420
H185	H	1.269920	-0.358192	1.308754
H186	H	1.603253	-0.024859	1.642087
H187	H	1.028812	-1.038647	0.499038
H188	H	1.362145	-0.705314	0.832371
H189	H	1.695479	-0.371981	1.165705
O190	O	0.416683	-0.475687	0.302577
O191	O	0.750016	-0.142354	0.635911
O192	O	1.083350	0.190979	0.969244
H193	H	0.448865	-0.425527	0.335417
H194	H	0.782199	-0.092194	0.668750
H195	H	1.115532	0.241140	1.002083
H196	H	1.067433	-0.501713	0.783959
H197	H	1.400767	-0.168380	1.117293
H198	H	1.734100	0.164954	1.450626
H199	H	0.909642	-0.730626	0.644229
H200	H	1.242975	-0.397292	0.977562
H201	H	1.576309	-0.063959	1.310896
H202	H	1.119040	-1.171951	0.415911
H203	H	1.452373	-0.838617	0.749244
H204	H	1.785706	-0.505284	1.082577
O205	O	0.898418	-1.171981	0.474902
O206	O	1.231751	-0.838647	0.808236
O207	O	1.565085	-0.505314	1.141569
H208	H	0.910649	-1.147416	0.528622
H209	H	1.243982	-0.814083	0.861955
H210	H	1.577316	-0.480750	1.195289
H211	H	0.904317	-0.738346	0.777369
H212	H	1.237650	-0.405013	1.110702
H213	H	1.570984	-0.071680	1.444035
H214	H	0.604548	-0.443009	0.281872
H215	H	0.937882	-0.109675	0.615205
H216	H	1.271215	0.223658	0.948538
H217	H	0.598063	-0.699832	0.444647
H218	H	0.931396	-0.366498	0.777980
H219	H	1.264730	-0.033165	1.111314
H220	H	0.400030	-0.750613	0.476834
H221	H	0.733364	-0.417279	0.810167
H222	H	1.066697	-0.083946	1.143501
O223	O	0.747872	-0.433344	0.275721
O224	O	1.081205	-0.100011	0.609054
O225	O	1.414538	0.233322	0.942387
H226	H	0.711273	-0.381747	0.243004
H227	H	1.044606	-0.048414	0.576337
H228	H	1.377940	0.284919	0.909671
O229	O	1.105577	-1.020218	0.283966
O230	O	1.438910	-0.686884	0.617299
O231	O	1.772244	-0.353551	0.950632
H232	H	1.158161	-1.052720	0.300575
H233	H	1.491494	-0.719387	0.633909
H234	H	1.824828	-0.386053	0.967242
H235	H	0.884974	-1.020516	0.342776
H236	H	1.218307	-0.687182	0.676109
H237	H	1.551640	-0.353849	1.009442
H238	H	1.099702	-0.454877	0.982014
H239	H	1.433035	-0.121544	1.315347
H240	H	1.766368	0.211790	1.648680
H241	H	0.975157	-1.153984	0.259756
H242	H	1.308491	-0.820650	0.593089
H243	H	1.641824	-0.487317	0.926422
O244	O	1.085036	-0.476201	0.641607
O245	O	1.418369	-0.142867	0.974940
O246	O	1.751703	0.190466	1.308274
H247	H	1.114772	-0.433038	0.680717
H248	H	1.448105	-0.099705	1.014051
H249	H	1.781439	0.233628	1.347384
O250	O	0.918978	-0.717022	1.117775
O251	O	1.252311	-0.383689	1.451108
O252	O	1.585644	-0.050355	1.784441
H253	H	0.889225	-0.760168	1.078669
H254	H	1.222558	-0.426834	1.412002
H255	H	1.555892	-0.093501	1.745336
H256	H	0.731194	-0.708254	0.449972
H257	H	1.064527	-0.374920	0.783305
H258	H	1.397860	-0.041587	1.116638
O259	O	0.256726	-0.760287	0.482985
O260	O	0.590059	-0.426954	0.816318
O261	O	0.923392	-0.093620	1.149652
H262	H	0.199831	-0.744778	0.473166
H263	H	0.533164	-0.411445	0.806500
H264	H	0.866498	-0.078112	1.139833
