data_functionalizedCrystal
_audit_creation_method	'MofGen! by Chris Wilmer'
_symmetry_space_group_name_H-M	'P1'
_symmetry_Int_Tables_number	1
_symmetry_cell_setting	triclinic
loop_
_symmetry_equiv_pos_as_xyz
  x,y,z
_cell_length_a	29.839131
_cell_length_b	15.297475
_cell_length_c	15.296720
_cell_angle_alpha	88.382886
_cell_angle_beta	99.637563
_cell_angle_gamma	99.656911
loop_
_atom_site_label
_atom_site_type_symbol
_atom_site_fract_x
_atom_site_fract_y
_atom_site_fract_z
Zn1	Zn	-0.349614	-1.253182	-0.726505
Zn2	Zn	0.150386	-0.753182	-0.226505
Zn3	Zn	-0.414299	-1.278404	-0.580004
Zn4	Zn	0.085701	-0.778404	-0.080004
Zn5	Zn	-0.324378	-1.132076	-0.554753
Zn6	Zn	0.175622	-0.632076	-0.054753
Zn7	Zn	-0.409883	-1.106633	-0.701134
Zn8	Zn	0.090117	-0.606633	-0.201134
O9	O	-0.374544	-1.192574	-0.640599
O10	O	0.125456	-0.692574	-0.140599
O11	O	-0.370604	-1.379098	-0.728258
O12	O	0.129396	-0.879098	-0.228258
O13	O	-0.393657	-1.280197	-0.454082
O14	O	0.106343	-0.780197	0.045918
O15	O	-0.264871	-1.148233	-0.577587
O16	O	0.235129	-0.648233	-0.077587
O17	O	-0.418128	-1.397629	-0.620623
O18	O	0.081872	-0.897629	-0.120623
O19	O	-0.283412	-1.237209	-0.703773
O20	O	0.216588	-0.737209	-0.203773
O21	O	-0.327593	-1.172690	-0.435530
O22	O	0.172407	-0.672690	0.064470
O23	O	-0.323311	-1.006131	-0.552985
O24	O	0.176689	-0.506131	-0.052985
O25	O	-0.410602	-1.104870	-0.827071
O26	O	0.089398	-0.604870	-0.327071
O27	O	-0.386132	-0.987438	-0.660530
O28	O	0.113868	-0.487438	-0.160530
O29	O	-0.366323	-1.212539	-0.845712
O30	O	0.133677	-0.712539	-0.345712
O31	O	-0.476568	-1.255527	-0.596021
O32	O	0.023432	-0.755527	-0.096021
O33	O	-0.473324	-1.129327	-0.685015
O34	O	0.026676	-0.629327	-0.185015
C35	C	-0.491247	-1.192423	-0.640528
C36	C	0.008753	-0.692423	-0.140528
C37	C	-0.541184	-1.192434	-0.640541
C38	C	-0.041184	-0.692434	-0.140541
C39	C	-0.351504	-0.965003	-0.601265
C40	C	0.148496	-0.465003	-0.101265
C41	C	-0.341660	-0.867644	-0.584458
C42	C	0.158340	-0.367644	-0.084458
C43	C	-0.390785	-1.153053	-0.869062
C44	C	0.109215	-0.653053	-0.369062
C45	C	-0.397706	-1.136212	-0.966419
C46	C	0.102294	-0.636212	-0.466419
C47	C	-0.852537	-1.258374	-0.594359
C48	C	-0.352537	-0.758374	-0.094359
C49	C	-1.040223	-1.258476	-0.594412
C50	C	-0.540223	-0.758476	-0.094412
O51	O	-1.065927	-1.314421	-0.555092
O52	O	-0.565927	-0.814421	-0.055092
N53	N	-1.062009	-1.192744	-0.640696
N54	N	-0.562009	-0.692744	-0.140696
C55	C	-1.036871	-1.126986	-0.686975
C56	C	-0.536871	-0.626986	-0.186975
O57	O	-1.059708	-1.071084	-0.726352
O58	O	-0.559708	-0.571084	-0.226352
C59	C	-0.849186	-1.126888	-0.686927
C60	C	-0.349186	-0.626888	-0.186927
C61	C	-0.827402	-1.192619	-0.640633
C62	C	-0.327402	-0.692619	-0.140633
C63	C	-0.830753	-1.324100	-0.548069
C64	C	-0.330753	-0.824100	-0.048069
C65	C	-0.783833	-1.324071	-0.548053
C66	C	-0.283833	-0.824071	-0.048053
C67	C	-0.758698	-1.258316	-0.594326
C68	C	-0.258698	-0.758316	-0.094326
C69	C	-0.780482	-1.192590	-0.640616
C70	C	-0.280482	-0.692590	-0.140616
C71	C	-0.824049	-1.061134	-0.733211
C72	C	-0.324049	-0.561134	-0.233211
C73	C	-0.777125	-1.061116	-0.733197
C74	C	-0.277125	-0.561116	-0.233197
C75	C	-0.755341	-1.126847	-0.686902
C76	C	-0.255341	-0.626847	-0.186902
C77	C	-0.708428	-1.126806	-0.686873
C78	C	-0.208428	-0.626806	-0.186873
N79	N	-0.686642	-1.192537	-0.640589
N80	N	-0.186642	-0.692537	-0.140589
C81	C	-0.711777	-1.258292	-0.594315
C82	C	-0.211777	-0.758292	-0.094315
C83	C	-1.135408	-1.127041	-0.686996
C84	C	-0.635408	-0.627041	-0.186996
C85	C	-1.182328	-1.127064	-0.687007
C86	C	-0.682328	-0.627064	-0.187007
C87	C	-1.185678	-1.258556	-0.594445
C88	C	-0.685678	-0.758556	-0.094445
C89	C	-1.138756	-1.258528	-0.594429
C90	C	-0.638756	-0.758528	-0.094429
C91	C	-1.113622	-1.192772	-0.640712
C92	C	-0.613622	-0.692772	-0.140712
C93	C	-0.613243	-1.258226	-0.594283
C94	C	-0.113243	-0.758226	-0.094283
C95	C	-0.566319	-1.258189	-0.594268
C96	C	-0.066319	-0.758189	-0.094268
C97	C	-0.562974	-1.126701	-0.686833
C98	C	-0.062974	-0.626701	-0.186833
C99	C	-0.609893	-1.126734	-0.686845
C100	C	-0.109893	-0.626734	-0.186845
C101	C	-0.635027	-1.192505	-0.640569
C102	C	-0.135027	-0.692505	-0.140569
O103	O	-0.682697	-1.070896	-0.726181
O104	O	-0.182697	-0.570896	-0.226181
O105	O	-0.688934	-1.314197	-0.554961
O106	O	-0.188934	-0.814197	-0.054961
C107	C	-0.899456	-1.258403	-0.594376
C108	C	-0.399456	-0.758403	-0.094376
C109	C	-0.921240	-1.192677	-0.640666
C110	C	-0.421240	-0.692677	-0.140666
C111	C	-0.896105	-1.126922	-0.686939
C112	C	-0.396105	-0.626922	-0.186939
C113	C	-0.968161	-1.192700	-0.640677
C114	C	-0.468161	-0.692700	-0.140677
C115	C	-0.993296	-1.258455	-0.594404
C116	C	-0.493296	-0.758455	-0.094404
C117	C	-0.971511	-1.324187	-0.548119
C118	C	-0.471511	-0.824187	-0.048119
C119	C	-0.924591	-1.324158	-0.548103
C120	C	-0.424591	-0.824158	-0.048103
C121	C	-0.917891	-1.061190	-0.733224
C122	C	-0.417891	-0.561190	-0.233224
C123	C	-0.964810	-1.061224	-0.733236
C124	C	-0.464810	-0.561224	-0.233236
C125	C	-0.989946	-1.126979	-0.686962
C126	C	-0.489946	-0.626979	-0.186962
C127	C	-0.257388	-1.192746	-0.640693
C128	C	0.242612	-0.692746	-0.140693
C129	C	-0.207464	-1.192819	-0.640733
C130	C	0.292536	-0.692819	-0.140733
C131	C	-0.397674	-1.421033	-0.680087
C132	C	0.102326	-0.921033	-0.180087
C133	C	-0.407530	-1.518389	-0.696915
C134	C	0.092470	-1.018389	-0.196915
C135	C	-0.444905	-0.554433	-0.760721
C136	C	0.055095	-0.054433	-0.260721
C137	C	-0.454157	-0.645908	-0.776509
C138	C	0.045843	-0.145908	-0.276509
C139	C	-0.426033	-0.701346	-0.728498
C140	C	0.073967	-0.201346	-0.228498
C141	C	-0.388656	-0.665301	-0.664695
C142	C	0.111344	-0.165301	-0.164695
C143	C	-0.379405	-0.573819	-0.648901
C144	C	0.120595	-0.073819	-0.148901
C145	C	-0.360534	-0.720732	-0.616678
C146	C	0.139466	-0.220732	-0.116678
C147	C	-0.323157	-0.684687	-0.552875
C148	C	0.176843	-0.184687	-0.052875
C149	C	-0.313908	-0.593213	-0.537084
C150	C	0.186092	-0.093213	-0.037084
C151	C	-0.342031	-0.537775	-0.585095
C152	C	0.157969	-0.037775	-0.085095
C153	C	-0.369785	-0.812214	-0.632472
C154	C	0.130215	-0.312214	-0.132472
C155	C	-0.304286	-0.831600	-0.520652
C156	C	0.195714	-0.331600	-0.020652
C157	C	-0.295034	-0.740125	-0.504864
C158	C	0.204966	-0.240125	-0.004864
C159	C	-0.325003	-1.312975	-1.279676
C160	C	0.174997	-0.812975	-0.779676
C161	C	-0.318502	-1.328804	-1.188205
C162	C	0.181498	-0.828804	-0.688205
C163	C	-0.338302	-1.280657	-1.132754
C164	C	0.161698	-0.780657	-0.632754
C165	C	-0.364605	-1.216679	-1.168783
C166	C	0.135395	-0.716679	-0.668783
C167	C	-0.371110	-1.200853	-1.260264
C168	C	0.128890	-0.700853	-0.760264
C169	C	-0.384409	-1.168535	-1.113342
C170	C	0.115591	-0.668535	-0.613342
C171	C	-0.410712	-1.104557	-1.149371
C172	C	0.089288	-0.604557	-0.649371
C173	C	-0.417215	-1.088734	-1.240843
C174	C	0.082785	-0.588734	-0.740843
C175	C	-0.397415	-1.136881	-1.296294
C176	C	0.102585	-0.636881	-0.796294
C177	C	-0.377904	-1.184361	-1.021861
C178	C	0.122096	-0.684361	-0.521861
C179	C	-0.424011	-1.072239	-1.002450
C180	C	0.075989	-0.572239	-0.502450
C181	C	-0.430512	-1.056410	-1.093921
C182	C	0.069488	-0.556410	-0.593921
C183	C	-0.358339	-1.231992	-0.413033
C184	C	0.141661	-0.731992	0.086967
C185	C	-0.351308	-1.249003	-0.315706
C186	C	0.148692	-0.749003	0.184294
H187	H	-0.548584	-1.311715	-0.556566
H188	H	-0.048584	-0.811715	-0.056566
Cl189	Cl	-0.450291	-1.008319	-1.286138
Cl190	Cl	0.049709	-0.508319	-0.786138
Cl191	Cl	-0.248047	-0.694801	-0.424658
Cl192	Cl	0.251953	-0.194801	0.075342
H193	H	-0.333007	-1.293549	-1.058275
H194	H	0.166993	-0.793549	-0.558275
H195	H	-0.451928	-1.004318	-1.123269
H196	H	0.048072	-0.504318	-0.623269
Cl197	Cl	-0.862343	-1.406775	-0.489889
Cl198	Cl	-0.362343	-0.906775	0.010111
H199	H	-0.400218	-0.841552	-0.684422
H200	H	0.099782	-0.341552	-0.184422
Cl201	Cl	-0.330399	-0.422772	-0.565255
Cl202	Cl	0.169601	0.077228	-0.065255
Cl203	Cl	-0.344838	-1.264787	-0.976578
Cl204	Cl	0.155162	-0.764787	-0.476578
H205	H	-0.467801	-0.509289	-0.799799
H206	H	0.032199	-0.009289	-0.299799
H207	H	-0.433569	-0.775828	-0.741357
H208	H	0.066431	-0.275828	-0.241357
Cl209	Cl	-0.268930	-0.901288	-0.460288
Cl210	Cl	0.231070	-0.401288	0.039712
Cl211	Cl	-0.266922	-0.547903	-0.456868
Cl212	Cl	0.233078	-0.047903	0.043132
Cl213	Cl	-0.285437	-1.409230	-1.142917
Cl214	Cl	0.214563	-0.909230	-0.642917
Cl215	Cl	-0.644832	-1.340908	-0.536104
Cl216	Cl	-0.144832	-0.840908	-0.036104
Cl217	Cl	-0.756457	-1.406720	-0.489866
Cl218	Cl	-0.256457	-0.906720	0.010134
H219	H	-0.542501	-1.073161	-0.724506
H220	H	-0.042501	-0.573161	-0.224506
H221	H	-0.308888	-1.352175	-1.324832
H222	H	0.191112	-0.852175	-0.824832
Cl223	Cl	-1.111375	-1.341165	-0.536230
Cl224	Cl	-0.611375	-0.841165	-0.036230
Cl225	Cl	-0.501143	-0.691215	-0.856713
Cl226	Cl	-0.001143	-0.191215	-0.356713
H227	H	-0.440135	-1.033035	-0.957301
H228	H	0.059865	-0.533035	-0.457301
H229	H	-0.402707	-1.123997	-1.370778
H230	H	0.097293	-0.623997	-0.870778
H231	H	-1.206151	-1.312096	-0.556767
H232	H	-0.706151	-0.812096	-0.056767
H233	H	-0.982542	-1.007690	-0.770932
H234	H	-0.482542	-0.507690	-0.270932
H235	H	-0.991984	-1.377725	-0.510439
H236	H	-0.491984	-0.877725	-0.010439
H237	H	-1.200060	-1.073532	-0.724695
H238	H	-0.700060	-0.573532	-0.224695
H239	H	-0.841777	-1.007605	-0.770904
H240	H	-0.341777	-0.507605	-0.270904
Cl241	Cl	-0.745532	-0.978448	-0.791386
Cl242	Cl	-0.245532	-0.478448	-0.291386
Cl243	Cl	-0.637277	-1.044086	-0.745024
Cl244	Cl	-0.137277	-0.544086	-0.245024
Cl245	Cl	-0.897213	-1.406799	-0.489905
Cl246	Cl	-0.397213	-0.906799	0.010095
Cl247	Cl	-1.103817	-1.044366	-0.745183
Cl248	Cl	-0.603817	-0.544366	-0.245183
Cl249	Cl	-0.886299	-0.978517	-0.791402
Cl250	Cl	-0.386299	-0.478517	-0.291402
