data_functionalizedCrystal
_audit_creation_method	'MofGen! by Chris Wilmer'
_symmetry_space_group_name_H-M	'P1'
_symmetry_Int_Tables_number	1
_symmetry_cell_setting	triclinic
loop_
_symmetry_equiv_pos_as_xyz
  x,y,z
_cell_length_a	11.026607
_cell_length_b	23.532407
_cell_length_c	10.065875
_cell_angle_alpha	98.729142
_cell_angle_beta	79.302338
_cell_angle_gamma	95.717347
loop_
_atom_site_label
_atom_site_type_symbol
_atom_site_fract_x
_atom_site_fract_y
_atom_site_fract_z
O1	O	1.625135	0.231639	-0.113547
O2	O	1.272155	0.204517	-0.113543
O3	O	1.459285	0.136267	-0.113520
O4	O	1.438005	0.299889	-0.113570
O5	O	1.423601	0.149349	0.113464
O6	O	1.236471	0.217598	0.113442
O7	O	1.589451	0.244720	0.113437
Zn8	Zn	1.407295	0.233236	0.149478
Zn9	Zn	1.454310	0.216001	-0.149584
O10	O	1.402321	0.312970	0.113415
C11	C	1.209162	0.206054	-0.000050
C12	C	1.074627	0.191139	-0.000047
C13	C	1.000327	0.232323	-0.000060
C14	C	0.861279	0.216908	-0.000057
C15	C	1.440900	0.121535	-0.000024
C16	C	1.439269	0.058147	-0.000014
C17	C	1.539800	-0.330388	-0.000090
C18	C	1.538287	-0.389948	-0.000100
O19	O	1.631478	-0.416895	-0.000152
N20	N	1.427036	-0.424275	-0.000098
C21	C	1.317292	-0.399040	-0.000099
O22	O	1.222526	-0.433707	-0.000099
C23	C	1.318808	-0.339482	-0.000099
C24	C	1.430064	-0.305157	-0.000087
C25	C	1.651047	-0.296063	-0.000080
C26	C	1.652559	-0.236507	-0.000067
C27	C	1.542823	-0.211276	-0.000064
C28	C	1.431575	-0.245600	-0.000074
C29	C	1.209067	-0.314248	-0.000109
C30	C	1.210592	-0.254685	-0.000110
C31	C	1.321848	-0.220360	-0.000098
C32	C	1.323351	-0.160813	-0.000058
N33	N	1.434602	-0.126486	-0.000061
C34	C	1.544338	-0.151717	-0.000064
C35	C	1.314119	-0.524117	-0.000103
C36	C	1.312601	-0.583674	-0.000093
C37	C	1.533597	-0.574578	-0.000097
C38	C	1.535112	-0.515019	-0.000097
C39	C	1.425370	-0.489790	-0.000105
C40	C	1.547504	-0.026645	-0.000035
C41	C	1.549005	0.032916	-0.000017
C42	C	1.328011	0.023814	-0.000020
C43	C	1.326508	-0.035742	-0.000032
C44	C	1.436265	-0.060970	-0.000044
O45	O	1.230210	-0.133827	-0.000012
O46	O	1.639092	-0.117045	-0.000081
C47	C	1.652444	0.243183	-0.000059
C48	C	1.786980	0.258098	-0.000071
C49	C	1.420706	0.327702	-0.000084
C50	C	1.422339	0.391089	-0.000104
N51	N	1.375217	0.244999	0.353580
N52	N	1.486398	0.204235	-0.353685
C53	C	1.443142	0.220090	0.421367
C54	C	1.418463	0.229148	0.578531
H55	H	0.821959	0.170232	-0.000078
H56	H	1.562822	0.176198	0.588003
H57	H	1.035302	0.144465	-0.000068
C58	C	1.267571	0.284493	0.572750
C59	C	1.272047	0.282844	0.432293
H60	H	1.203880	0.307860	0.621339
H61	H	1.250987	0.246527	0.596105
H62	H	1.344807	0.300220	0.596065
H63	H	1.194813	0.267113	0.408977
H64	H	1.288623	0.320817	0.408929
C65	C	0.930159	0.325469	-0.116811
C66	C	0.840043	0.321109	-0.000114
H67	H	0.962909	0.364369	-0.116845
H68	H	0.994792	0.301638	-0.116783
H69	H	0.893884	0.313365	-0.195948
H70	H	0.876321	0.333209	0.079024
H71	H	0.775400	0.344948	-0.000129
C72	C	1.143535	0.299696	-0.116762
C73	C	1.053409	0.295330	-0.000077
H74	H	1.176296	0.338596	-0.116773
H75	H	1.208158	0.275858	-0.116743
H76	H	1.107266	0.287603	-0.195907
H77	H	1.089680	0.307419	0.079069
H78	H	0.988775	0.319176	-0.000084
H79	H	1.342031	0.257180	0.636843
C80	C	1.178239	-0.101284	0.116642
C81	C	1.204210	-0.073472	-0.000030
H82	H	1.102732	-0.124570	0.116635
H83	H	1.243366	-0.124838	0.116621
H84	H	1.170984	-0.073302	0.195796
H85	H	1.211473	-0.101454	-0.079185
H86	H	1.139066	-0.049916	-0.000021
C87	C	1.767305	0.035915	-0.000032
C88	C	1.671308	0.070645	-0.000016
H89	H	1.842807	0.059206	-0.000043
H90	H	1.749676	0.017052	0.079114
H91	H	1.774547	0.007938	-0.079196
H92	H	1.664060	0.098619	0.079153
H93	H	1.688941	0.089517	-0.079170
H94	H	1.636880	-0.047179	-0.000051
C95	C	1.870846	-0.233518	-0.000086
C96	C	1.774859	-0.198783	-0.000073
H97	H	1.946354	-0.210231	-0.000101
H98	H	1.853213	-0.252378	0.079064
H99	H	1.878080	-0.261497	-0.079246
H100	H	1.767619	-0.170807	0.079093
H101	H	1.792497	-0.179914	-0.079231
C102	C	1.795934	-0.364472	-0.116766
C103	C	1.771686	-0.323789	-0.000083
H104	H	1.870421	-0.381581	-0.116762
H105	H	1.729483	-0.393443	-0.116758
H106	H	1.804365	-0.345979	-0.195912
H107	H	1.763246	-0.342283	0.079064
H108	H	1.838154	-0.294813	-0.000078
C109	C	1.753401	-0.512025	-0.000110
C110	C	1.657411	-0.477293	-0.000105
H111	H	1.828906	-0.488736	-0.000128
H112	H	1.735769	-0.530882	0.079044
H113	H	1.760638	-0.540006	-0.079265
H114	H	1.650167	-0.449315	0.079056
H115	H	1.675046	-0.458426	-0.079268
H116	H	1.622951	-0.595132	-0.000105
C117	C	1.219885	0.078805	-0.116713
C118	C	1.207394	0.051556	-0.000027
H119	H	1.145418	0.095929	-0.116726
H120	H	1.286355	0.107766	-0.116692
H121	H	1.236332	0.051196	-0.195857
H122	H	1.190956	0.079166	0.079118
H123	H	1.140903	0.022592	-0.000035
C124	C	1.142116	-0.616468	-0.116778
C125	C	1.190304	-0.621400	-0.000095
H126	H	1.066617	-0.639761	-0.116786
H127	H	1.127323	-0.577389	-0.116759
H128	H	1.199723	-0.628920	-0.195924
H129	H	1.132701	-0.608944	0.079052
H130	H	1.205091	-0.660488	-0.000102
C131	C	1.205923	-0.469140	-0.116777
C132	C	1.193475	-0.496387	-0.000093
H133	H	1.131439	-0.452027	-0.116774
H134	H	1.272377	-0.440171	-0.116768
H135	H	1.222374	-0.496748	-0.195923
H136	H	1.177032	-0.468779	0.079054
H137	H	1.127000	-0.525360	-0.000090
H138	H	1.118471	-0.342186	-0.000127
C139	C	1.041035	-0.250822	-0.116803
C140	C	1.089955	-0.226955	-0.000115
H141	H	0.966556	-0.233705	-0.116798
H142	H	1.099126	-0.243743	-0.195938
H143	H	1.024226	-0.291206	-0.116796
H144	H	1.106772	-0.186571	-0.000128
H145	H	1.031851	-0.234030	0.079040
H146	H	1.519561	0.192055	0.363052
