data_functionalizedCrystal
_audit_creation_method	'MofGen! by Chris Wilmer'
_symmetry_space_group_name_H-M	'P1'
_symmetry_Int_Tables_number	1
_symmetry_cell_setting	triclinic
loop_
_symmetry_equiv_pos_as_xyz
  x,y,z
_cell_length_a	14.853567
_cell_length_b	11.026607
_cell_length_c	10.065875
_cell_angle_alpha	79.268236
_cell_angle_beta	81.243377
_cell_angle_gamma	83.889526
loop_
_atom_site_label
_atom_site_type_symbol
_atom_site_fract_x
_atom_site_fract_y
_atom_site_fract_z
O1	O	1.232226	-0.140674	-0.113393
O2	O	0.972815	-0.159549	-0.113416
O3	O	1.081021	0.026577	-0.113401
O4	O	1.124021	-0.326800	-0.113407
O5	O	1.060410	-0.009057	0.113585
O6	O	0.952205	-0.195183	0.113570
O7	O	1.211616	-0.176308	0.113593
Zn8	Zn	1.078638	-0.191404	0.149621
Zn9	Zn	1.105793	-0.144454	-0.149443
O10	O	1.103411	-0.362435	0.113579
C11	C	0.928784	-0.176510	0.000074
C12	C	0.828287	-0.173946	0.000066
N13	N	1.060112	-0.223445	0.353724
C14	C	1.062783	0.053985	0.000089
C15	C	1.039136	0.188740	0.000083
C16	C	0.396161	-0.052551	0.000098
C17	C	0.410561	-0.273675	0.000093
C18	C	0.504984	-0.276084	0.000089
C19	C	0.545000	-0.166725	0.000087
C20	C	0.490593	-0.054956	0.000090
C21	C	0.559400	-0.387849	0.000072
C22	C	0.653829	-0.390263	0.000066
C23	C	0.693846	-0.280904	0.000074
C24	C	0.639432	-0.169130	0.000078
C25	C	0.679448	-0.059771	0.000077
C26	C	0.625035	0.052002	0.000091
C27	C	0.530610	0.054403	0.000098
C28	C	0.788271	-0.283305	0.000067
C29	C	0.773880	-0.062177	0.000068
C30	C	1.255648	-0.159347	0.000100
C31	C	1.356145	-0.161910	0.000100
C32	C	1.121649	-0.389842	0.000085
C33	C	1.145297	-0.524595	0.000083
C34	C	1.104431	0.262435	0.000086
C35	C	1.079992	0.401711	0.000079
N36	N	1.124325	-0.112403	-0.353546
C37	C	1.099340	-0.155594	0.421508
C38	C	1.085091	-0.180263	0.578673
H39	H	0.806453	0.026878	0.000072
H40	H	0.965143	0.228758	0.000067
H41	H	1.040950	-0.256617	0.636988
Br42	Br	0.505092	-0.536251	0.000045
H43	H	1.168458	-0.036041	0.588139
H44	H	0.486296	0.145398	0.000142
H45	H	0.657629	0.141043	0.000080
Br46	Br	0.322320	0.099132	0.000129
Br47	Br	1.172625	-0.028025	0.324316
H48	H	0.377976	-0.362708	0.000083
Br49	Br	0.727667	-0.541950	0.000047
H50	H	1.015974	-0.299793	0.412044
H51	H	0.832570	-0.374309	0.000058
Br52	Br	0.956656	0.468393	0.000049
Br53	Br	1.227766	0.195753	0.000083
H54	H	1.219305	0.435411	-0.000013
