data_functionalizedCrystal
_audit_creation_method	'MofGen! by Chris Wilmer'
_symmetry_space_group_name_H-M	'P1'
_symmetry_Int_Tables_number	1
_symmetry_cell_setting	triclinic
loop_
_symmetry_equiv_pos_as_xyz
  x,y,z
_cell_length_a	16.959455
_cell_length_b	16.959454
_cell_length_c	19.076919
_cell_angle_alpha	92.276329
_cell_angle_beta	87.718266
_cell_angle_gamma	89.977637
loop_
_atom_site_label
_atom_site_type_symbol
_atom_site_fract_x
_atom_site_fract_y
_atom_site_fract_z
Zn1	Zn	1.190424	0.332666	0.397963
Zn2	Zn	1.195646	0.459539	0.280278
Zn3	Zn	1.063559	0.327378	0.280283
Zn4	Zn	1.058212	0.464804	0.397936
O5	O	1.126960	0.396097	0.339115
O6	O	1.301727	0.349506	0.382361
O7	O	1.182548	0.437591	0.181790
O8	O	1.080440	0.217469	0.295906
O9	O	1.305564	0.442719	0.295899
O10	O	1.173647	0.221354	0.382365
O11	O	1.085504	0.340492	0.181793
O12	O	0.952239	0.345598	0.295880
O13	O	1.071327	0.451693	0.496429
O14	O	0.948311	0.446564	0.382319
O15	O	1.168463	0.354611	0.496448
O16	O	1.177363	0.570848	0.295873
O17	O	1.076391	0.574716	0.382315
C18	C	0.921595	0.396079	0.339098
C19	C	0.833738	0.396091	0.339107
C20	C	0.794462	0.444548	0.294026
C21	C	0.790459	0.347641	0.384193
C22	C	0.707913	0.347647	0.384202
C23	C	0.668638	0.396104	0.339121
C24	C	0.711909	0.444554	0.294031
C25	C	0.664636	0.299192	0.429285
C26	C	0.582085	0.299196	0.429295
C27	C	0.542808	0.347658	0.384217
C28	C	0.586084	0.396110	0.339126
C29	C	0.546808	0.444567	0.294045
C30	C	0.590083	0.493025	0.248958
C31	C	0.672632	0.493016	0.248954
C32	C	0.460259	0.347667	0.384221
C33	C	0.464255	0.444574	0.294051
C34	C	1.126884	0.601463	0.339106
C35	C	1.126923	0.689320	0.339126
C36	C	1.074424	1.062840	0.384130
C37	C	1.179646	1.058755	0.294191
C38	C	1.179623	0.976209	0.294183
C39	C	1.126999	0.936974	0.339149
C40	C	1.074397	0.980286	0.384123
C41	C	1.232218	0.932891	0.249205
C42	C	1.232196	0.850340	0.249195
C43	C	1.179575	0.811104	0.294165
C44	C	1.126972	0.854420	0.339141
C45	C	1.074348	0.815186	0.384107
C46	C	1.021748	0.858501	0.429087
C47	C	1.021776	0.941050	0.429093
C48	C	1.179547	0.728555	0.294160
C49	C	1.074321	0.732632	0.384099
C50	C	1.333128	0.396115	0.339133
C51	C	1.420984	0.396123	0.339140
C52	C	1.118716	0.404329	0.522690
C53	C	1.115202	0.407837	0.600919
C54	C	1.127045	1.189930	0.339143
C55	C	1.127048	1.102074	0.339164
C56	C	1.135218	0.387839	0.156254
C57	C	1.138884	0.384109	0.078026
C58	C	1.164123	0.358943	0.637682
C59	C	1.160812	0.362236	0.711186
C60	C	1.108584	0.414428	0.747926
C61	C	1.059659	0.463325	0.711157
C62	C	1.062966	0.460027	0.637654
C63	C	1.093266	0.429707	0.967754
C64	C	1.089964	0.433003	1.041262
C65	C	1.191117	0.331913	1.041286
C66	C	1.194423	0.328623	0.967782
C67	C	1.145494	0.377517	0.931020
N68	N	1.105201	0.417798	0.823059
N69	N	1.148874	0.374143	0.855888
H70	H	0.707873	0.532465	0.212244
H71	H	1.023122	0.499834	0.607722
H72	H	0.822442	0.308185	0.420893
N73	N	0.421895	0.496843	0.245431
H74	H	0.461837	0.527536	0.216870
H75	H	0.389112	0.463158	0.212906
H76	H	0.696620	0.259738	0.465985
N77	N	0.535413	0.246927	0.477915
H78	H	0.572821	0.216226	0.506469
H79	H	0.499697	0.280611	0.510446
N80	N	1.017688	1.109553	0.432636
H81	H	0.984347	1.072169	0.461118
H82	H	1.048378	1.145232	0.465239
N83	N	1.288937	0.803627	0.200693
H84	H	1.280939	0.745379	0.207512
H85	H	1.278946	0.815820	0.150417
N86	N	0.413584	0.295403	0.432839
H87	H	0.450991	0.264701	0.461393
H88	H	0.377870	0.329089	0.465369
N89	N	1.017565	0.690316	0.432602
H90	H	0.984250	0.730284	0.461095
H91	H	0.982286	0.654816	0.403920
H92	H	0.558094	0.532475	0.212250
H93	H	0.978897	0.826546	0.465696
N94	N	1.003330	0.519612	0.750792
H95	H	1.016150	0.575517	0.737998
H96	H	0.947457	0.506687	0.737983
N97	N	0.841129	0.496812	0.245398
H98	H	0.899384	0.489459	0.252233
H99	H	0.828950	0.482170	0.195152
H100	H	1.053437	0.469532	0.937831
H101	H	0.978951	0.976324	0.465712
N102	N	1.236391	1.101067	0.245682
H103	H	1.228421	1.159934	0.252508
H104	H	1.292338	1.087096	0.256675
N105	N	1.288958	0.975217	0.200703
H106	H	1.324287	1.010719	0.229336
H107	H	1.322221	0.935211	0.172210
N108	N	1.236278	0.681839	0.245656
H109	H	1.228280	0.623591	0.252476
H110	H	1.226282	0.694032	0.195382
N111	N	1.220459	0.302654	0.598058
H112	H	1.250946	0.272179	0.632504
H113	H	1.189676	0.264703	0.567561
N114	N	1.033633	0.489301	1.080891
H115	H	1.003138	0.519775	1.046450
H116	H	0.995702	0.458490	1.111390
N117	N	1.213560	0.309485	0.750839
H118	H	1.247146	0.275920	0.716412
H119	H	1.248754	0.343018	0.781346
N120	N	1.250756	0.272333	0.928157
H121	H	1.281246	0.241857	0.962601
H122	H	1.219973	0.234382	0.897659
N123	N	1.243885	0.279179	1.080936
H124	H	1.233867	0.289185	1.133075
H125	H	1.232186	0.222150	1.068093
