data_functionalizedCrystal
_audit_creation_method	'MofGen! by Chris Wilmer'
_symmetry_space_group_name_H-M	'P1'
_symmetry_Int_Tables_number	1
_symmetry_cell_setting	triclinic
loop_
_symmetry_equiv_pos_as_xyz
  x,y,z
_cell_length_a	15.297327
_cell_length_b	12.759401
_cell_length_c	12.759393
_cell_angle_alpha	89.980324
_cell_angle_beta	99.642973
_cell_angle_gamma	99.706828
loop_
_atom_site_label
_atom_site_type_symbol
_atom_site_fract_x
_atom_site_fract_y
_atom_site_fract_z
Zn1	Zn	-0.359107	1.533810	-0.666301
Zn2	Zn	-0.509992	1.503258	-0.521006
Zn3	Zn	-0.359152	1.358100	-0.490649
Zn4	Zn	-0.509926	1.327671	-0.696634
O5	O	-0.434544	1.430710	-0.593647
O6	O	-0.379131	1.676777	-0.647037
O7	O	-0.490029	1.483951	-0.369967
O8	O	-0.232901	1.406929	-0.488551
O9	O	-0.489986	1.654330	-0.540290
O10	O	-0.232868	1.536023	-0.617601
O11	O	-0.379208	1.377304	-0.347664
O12	O	-0.379144	1.207044	-0.517963
O13	O	-0.489873	1.355067	-0.839622
O14	O	-0.489917	1.184688	-0.669299
O15	O	-0.379067	1.506517	-0.817336
O16	O	-0.636229	1.454445	-0.569702
O17	O	-0.636180	1.325441	-0.698735
C18	C	-0.434529	1.157745	-0.593629
C19	C	-0.434544	1.040966	-0.593651
C20	C	-0.376926	0.997771	-0.649359
C21	C	-0.376935	0.888046	-0.649368
C22	C	-0.492188	0.864716	-0.537959
C23	C	-0.492173	0.974441	-0.537945
C24	C	-0.668939	1.383354	-0.640827
C25	C	-0.769214	1.363191	-0.661046
C26	C	-1.051847	1.575249	-0.449499
C27	C	-0.957634	1.594192	-0.430497
C28	C	-0.910524	1.536444	-0.488132
C29	C	-0.957637	1.459749	-0.564773
C30	C	-1.051859	1.440797	-0.583771
C31	C	-0.910536	1.401993	-0.622405
C32	C	-0.957649	1.325297	-0.699046
C33	C	-1.051862	1.306350	-0.718041
C34	C	-1.098972	1.364098	-0.660405
C35	C	-0.816314	1.420944	-0.603407
C36	C	-0.816326	1.286492	-0.737680
C37	C	-0.910539	1.267549	-0.756682
C38	C	-0.199235	1.478279	-0.546306
C39	C	-0.098960	1.498550	-0.526132
C40	C	-0.434458	1.430806	-0.867663
C41	C	-0.434421	1.430847	-0.984433
C42	C	-0.434561	1.704740	-0.593666
C43	C	-0.434568	1.821515	-0.593674
C44	C	-0.376715	1.509714	-1.027690
C45	C	-0.376676	1.509739	-1.137407
C46	C	-0.492057	1.352027	-1.160599
C47	C	-0.492091	1.351997	-1.050884
C48	C	-0.434566	1.430687	-0.320684
C49	C	-0.434348	1.430901	-0.203864
H50	H	-0.539109	0.810539	-0.492606
H51	H	-0.539094	1.009610	-0.492575
C52	C	-0.764501	1.505309	-0.519105
N53	N	-0.725476	1.568859	-0.455605
H54	H	-0.329684	1.573959	-1.172621
H55	H	-0.330016	0.852883	-0.694729
H56	H	-0.539011	1.287832	-1.214717
C57	C	-1.103674	1.638751	-0.386097
N58	N	-1.142711	1.686583	-0.338336
C59	C	-0.962376	1.183177	-0.840976
N60	N	-1.001420	1.119626	-0.904465
C61	C	-0.905817	1.678537	-0.346176
N62	N	-0.866788	1.742064	-0.282656
H63	H	-0.833812	1.551872	-0.472655
C64	C	-0.555572	1.265231	-1.003298
N65	N	-0.603382	1.199878	-0.967455
C66	C	-1.103684	1.221973	-0.802338
N67	N	-1.142714	1.158420	-0.865832
C68	C	-0.313524	1.070946	-0.710627
N69	N	-0.265765	1.126060	-0.756771
H70	H	-1.175688	1.348681	-0.675875
H71	H	-0.777970	1.239466	-0.784610
C72	C	-0.313269	1.596442	-0.954596
N73	N	-0.265476	1.661766	-0.899543
