data_functionalizedCrystal
_audit_creation_method	'MofGen! by Chris Wilmer'
_symmetry_space_group_name_H-M	'P1'
_symmetry_Int_Tables_number	1
_symmetry_cell_setting	triclinic
loop_
_symmetry_equiv_pos_as_xyz
  x,y,z
_cell_length_a	16.992694
_cell_length_b	8.559649
_cell_length_c	15.455313
_cell_angle_alpha	92.289439
_cell_angle_beta	87.142206
_cell_angle_gamma	80.223444
loop_
_atom_site_label
_atom_site_type_symbol
_atom_site_fract_x
_atom_site_fract_y
_atom_site_fract_z
O1	O	1.023967	0.329735	-0.072017
O2	O	0.795905	0.326044	-0.072043
O3	O	0.930028	0.097853	-0.072027
O4	O	0.889844	0.557925	-0.072033
O5	O	0.922362	0.110845	0.072234
O6	O	0.788239	0.339035	0.072218
O7	O	1.016301	0.342726	0.072244
Cu8	Cu	0.901570	0.342067	0.085403
Cu9	Cu	0.910636	0.326703	-0.085202
O10	O	0.882177	0.570917	0.072228
C11	C	0.763145	0.327794	0.000084
C12	C	0.676954	0.313635	0.000075
C13	C	0.618488	0.450242	0.000073
C14	C	0.537502	0.436931	0.000086
C15	C	0.514985	0.287010	0.000093
C16	C	0.573459	0.150392	0.000096
C17	C	0.654442	0.163706	0.000090
C18	C	0.274709	0.231831	0.000117
C19	C	0.193718	0.218527	0.000120
C20	C	0.157767	0.505067	0.000111
C21	C	0.238755	0.518367	0.000099
C22	C	0.297221	0.381750	0.000108
N23	N	0.432205	0.273400	0.000102
N24	N	0.379998	0.395362	0.000104
C25	C	0.929241	0.045208	0.000102
C26	C	0.938306	-0.131015	0.000099
C27	C	1.049061	0.340976	0.000115
C28	C	1.135252	0.355134	0.000119
C29	C	0.882965	0.623562	0.000097
C30	C	0.873900	0.799784	0.000095
N31	N	0.895199	0.352873	0.205398
N32	N	0.917014	0.315885	-0.205197
C33	C	0.952194	0.255970	0.250799
C34	C	0.947382	0.264158	0.341606
C35	C	0.885578	0.369258	0.387011
C36	C	0.828576	0.466164	0.341604
C37	C	0.833386	0.457968	0.250798
C38	C	0.864822	0.404595	0.658590
C39	C	0.860018	0.412788	0.749402
C40	C	0.978824	0.210778	0.749398
C41	C	0.983631	0.202598	0.658591
C42	C	0.926627	0.299499	0.613191
N43	N	0.880659	0.377633	0.479831
N44	N	0.931543	0.291114	0.520373
H45	H	0.489900	0.548172	0.000084
H46	H	1.000384	-0.206593	0.000112
H47	H	0.811825	-0.124646	0.000091
H48	H	0.818408	0.483499	0.621633
O49	O	1.012264	0.153738	0.206831
C50	C	1.129619	-0.045701	0.216422
C51	C	1.061621	0.069986	0.266320
H52	H	1.169552	-0.113422	0.264497
H53	H	1.103098	-0.133186	0.173944
H54	H	1.166579	0.023953	0.173875
H55	H	1.024636	0.000464	0.308914
H56	H	1.088194	0.157470	0.308743
H57	H	0.778250	0.551733	0.378578
H58	H	0.993792	0.185251	0.378571
H59	H	0.175390	0.096437	0.000125
O60	O	0.711139	0.030841	0.000048
C61	C	0.738254	-0.254767	0.000106
C62	C	0.673965	-0.104426	0.000129
H63	H	0.708221	-0.364166	0.000190
H64	H	0.780260	-0.261249	-0.060284
H65	H	0.773878	-0.250170	0.060462
H66	H	0.638283	-0.108920	-0.060186
H67	H	0.632013	-0.097999	0.060559
H68	H	0.257081	0.640447	0.000084
O69	O	0.777976	0.552265	0.206827
C70	C	0.659603	0.753428	0.216408
C71	C	0.722316	0.646757	0.266312
H72	H	0.614576	0.829828	0.264480
H73	H	0.690624	0.833242	0.173907
H74	H	0.627151	0.676089	0.173884
H75	H	0.754788	0.723972	0.308883
H76	H	0.691250	0.566934	0.308758
H77	H	1.033957	0.117017	0.621624
O78	O	0.331395	0.098961	0.000083
C79	C	0.358497	-0.186647	0.000146
C80	C	0.294214	-0.036297	0.000163
H81	H	0.328460	-0.296039	0.000230
H82	H	0.400507	-0.193139	-0.060241
H83	H	0.394118	-0.182052	0.060506
H84	H	0.258535	-0.040789	-0.060155
H85	H	0.252259	-0.029860	0.060590
O86	O	1.034171	0.116410	0.793407
C87	C	1.094850	-0.150936	0.821244
C88	C	1.032154	-0.044235	0.771335
H89	H	1.093228	-0.280839	0.803431
H90	H	1.156895	-0.123999	0.803367
H91	H	1.080801	-0.126947	0.893939
H92	H	1.046128	-0.068164	0.698628
H93	H	0.970127	-0.071192	0.789284
H94	H	0.636813	0.572324	0.000067
H95	H	0.809687	0.498379	0.786366
H96	H	0.555118	0.028324	0.000115
O97	O	0.101078	0.637926	0.000071
C98	C	0.073965	0.923544	0.000120
C99	C	0.138248	0.773202	0.000141
H100	H	0.103991	1.032954	0.000196
H101	H	0.038358	0.919152	-0.060264
H102	H	0.031942	0.929822	0.060482
H103	H	0.180324	0.766828	-0.060179
H104	H	0.173795	0.777656	0.060566
