data_functionalizedCrystal
_audit_creation_method	'MofGen! by Chris Wilmer'
_symmetry_space_group_name_H-M	'P1'
_symmetry_Int_Tables_number	1
_symmetry_cell_setting	triclinic
loop_
_symmetry_equiv_pos_as_xyz
  x,y,z
_cell_length_a	29.839131
_cell_length_b	19.121102
_cell_length_c	19.121324
_cell_angle_alpha	90.119300
_cell_angle_beta	87.529164
_cell_angle_gamma	92.404422
loop_
_atom_site_label
_atom_site_type_symbol
_atom_site_fract_x
_atom_site_fract_y
_atom_site_fract_z
Zn1	Zn	-0.195635	-1.054770	-0.442047
Zn2	Zn	0.304365	-0.554770	0.057953
Zn3	Zn	-0.274094	-1.059652	-0.324799
Zn4	Zn	0.225906	-0.559652	0.175201
Zn5	Zn	-0.195914	-0.942536	-0.319829
Zn6	Zn	0.304086	-0.442536	0.180171
Zn7	Zn	-0.267670	-0.937469	-0.437004
Zn8	Zn	0.232330	-0.437469	0.062996
O9	O	-0.233328	-0.998607	-0.380920
O10	O	0.266672	-0.498607	0.119080
O11	O	-0.208615	-1.153522	-0.430684
O12	O	0.291385	-0.653522	0.069316
O13	O	-0.266529	-1.048280	-0.226033
O14	O	0.233471	-0.548280	0.273967
O15	O	-0.133011	-0.957502	-0.336072
O16	O	0.366989	-0.457502	0.163928
O17	O	-0.266259	-1.157109	-0.344543
O18	O	0.233741	-0.657109	0.155457
O19	O	-0.132806	-1.039960	-0.425865
O20	O	0.367194	-0.539960	0.074135
O21	O	-0.209090	-0.962235	-0.222381
O22	O	0.290910	-0.462235	0.277619
O23	O	-0.202861	-0.843760	-0.331182
O24	O	0.297139	-0.343760	0.168818
O25	O	-0.255310	-0.948866	-0.535780
O26	O	0.244690	-0.448866	-0.035780
O27	O	-0.255580	-0.840037	-0.417270
O28	O	0.244420	-0.340037	0.082730
O29	O	-0.202386	-1.035047	-0.539485
O30	O	0.297614	-0.535047	-0.039485
O31	O	-0.336108	-1.043367	-0.339653
O32	O	0.163892	-0.543367	0.160347
O33	O	-0.331388	-0.953600	-0.422090
O34	O	0.168612	-0.453600	0.077910
C35	C	-0.228554	-0.816461	-0.373140
C36	C	0.271446	-0.316461	0.126860
C37	C	-0.226521	-0.738537	-0.369828
C38	C	0.273479	-0.238537	0.130172
C39	C	-0.350049	-0.998482	-0.380880
C40	C	0.149951	-0.498482	0.119120
C41	C	-0.399983	-0.998492	-0.380889
C42	C	0.100017	-0.498492	0.119111
C43	C	-0.228100	-0.990847	-0.563782
C44	C	0.271900	-0.490847	-0.063782
C45	C	-0.225872	-0.987540	-0.641707
C46	C	0.274128	-0.487540	-0.141707
C47	C	-0.712074	-1.045428	-0.338064
C48	C	-0.212074	-0.545428	0.161936
C49	C	-0.899749	-1.045513	-0.338095
C50	C	-0.399749	-0.545513	0.161905
O51	O	-0.926092	-1.085320	-0.301653
O52	O	-0.426092	-0.585320	0.198347
N53	N	-0.920773	-0.998750	-0.380979
N54	N	-0.420773	-0.498750	0.119021
C55	C	-0.894875	-0.951966	-0.423861
C56	C	-0.394875	-0.451966	0.076139
O57	O	-0.917064	-0.912198	-0.460343
O58	O	-0.417064	-0.412198	0.039657
C59	C	-0.707202	-0.951884	-0.423834
C60	C	-0.207202	-0.451884	0.076166
C61	C	-0.686180	-0.998645	-0.380942
C62	C	-0.186180	-0.498645	0.119058
C63	C	-0.691052	-1.092185	-0.295176
C64	C	-0.191052	-0.592185	0.204824
C65	C	-0.644136	-1.092161	-0.295166
C66	C	-0.144136	-0.592161	0.204834
C67	C	-0.618242	-1.045379	-0.338044
C68	C	-0.118242	-0.545379	0.161956
C69	C	-0.639264	-0.998621	-0.380932
C70	C	-0.139264	-0.498621	0.119068
C71	C	-0.681305	-0.905104	-0.466720
C72	C	-0.181305	-0.405104	0.033280
C73	C	-0.634384	-0.905089	-0.466710
C74	C	-0.134384	-0.405089	0.033290
C75	C	-0.613362	-0.951850	-0.423818
C76	C	-0.113362	-0.451850	0.076182
C77	C	-0.566455	-0.951814	-0.423799
C78	C	-0.066455	-0.451814	0.076201
N79	N	-0.545430	-0.998577	-0.380915
N80	N	-0.045430	-0.498577	0.119085
C81	C	-0.571324	-1.045359	-0.338038
C82	C	-0.071324	-0.545359	0.161962
C83	C	-0.993407	-0.952011	-0.423872
C84	C	-0.493407	-0.452011	0.076128
C85	C	-1.040325	-0.952030	-0.423878
C86	C	-0.540325	-0.452030	0.076122
C87	C	-1.045195	-1.045579	-0.338112
C88	C	-0.545195	-0.545579	0.161888
C89	C	-0.998276	-1.045555	-0.338103
C90	C	-0.498276	-0.545555	0.161897
C91	C	-0.972383	-0.998774	-0.380988
C92	C	-0.472383	-0.498774	0.119012
C93	C	-0.472797	-1.045304	-0.338019
C94	C	0.027203	-0.545304	0.161981
C95	C	-0.425877	-1.045274	-0.338011
C96	C	0.074123	-0.545274	0.161989
C97	C	-0.421011	-0.951728	-0.423779
C98	C	0.078989	-0.451728	0.076221
C99	C	-0.467927	-0.951756	-0.423785
C100	C	0.032073	-0.451756	0.076215
C101	C	-0.493819	-0.998550	-0.380903
C102	C	0.006181	-0.498550	0.119097
O103	O	-0.540083	-0.912033	-0.460228
O104	O	-0.040083	-0.412033	0.039772
O105	O	-0.549127	-1.085132	-0.301573
O106	O	-0.049127	-0.585132	0.198427
C107	C	-0.758990	-1.045452	-0.338074
C108	C	-0.258990	-0.545452	0.161926
C109	C	-0.780012	-0.998694	-0.380962
C110	C	-0.280012	-0.498694	0.119038
C111	C	-0.754118	-0.951912	-0.423840
C112	C	-0.254118	-0.451912	0.076160
C113	C	-0.826930	-0.998714	-0.380968
C114	C	-0.326930	-0.498714	0.119032
C115	C	-0.852824	-1.045496	-0.338090
C116	C	-0.352824	-0.545496	0.161910
C117	C	-0.831800	-1.092259	-0.295206
C118	C	-0.331800	-0.592259	0.204794
C119	C	-0.784884	-1.092234	-0.295196
C120	C	-0.284884	-0.592234	0.204804
C121	C	-0.775142	-0.905149	-0.466724
C122	C	-0.275142	-0.405149	0.033276
C123	C	-0.822058	-0.905177	-0.466730
C124	C	-0.322058	-0.405177	0.033270
C125	C	-0.847952	-0.951959	-0.423852
C126	C	-0.347952	-0.451959	0.076148
C127	C	-0.116152	-0.998751	-0.380976
C128	C	0.383848	-0.498751	0.119024
C129	C	-0.066219	-0.998812	-0.381000
C130	C	0.433781	-0.498812	0.119000
C131	C	-0.238122	-1.181464	-0.388731
C132	C	0.261878	-0.681464	0.111269
C133	C	-0.240165	-1.259387	-0.392059
C134	C	0.259835	-0.759387	0.107941
C135	C	-0.253060	-0.700012	-0.413023
C136	C	0.246940	-0.200012	0.086977
C137	C	-0.251144	-0.626794	-0.409915
C138	C	0.248856	-0.126794	0.090085
C139	C	-0.222692	-0.592104	-0.363607
C140	C	0.277308	-0.092104	0.136393
C141	C	-0.196151	-0.630634	-0.320410
C142	C	0.303849	-0.130634	0.179590
C143	C	-0.198064	-0.703850	-0.323523
C144	C	0.301936	-0.203850	0.176477
C145	C	-0.215537	-0.371134	-0.351974
C146	C	0.284463	0.128866	0.148026
C147	C	-0.213626	-0.297913	-0.348864
C148	C	0.286374	0.202087	0.151136
C149	C	-0.268620	-0.294078	-0.438370
C150	C	0.231380	0.205922	0.061630
C151	C	-0.270533	-0.367296	-0.441475
C152	C	0.229467	0.132704	0.058525
C153	C	-0.243989	-0.405820	-0.398281
C154	C	0.256011	0.094180	0.101719
C155	C	-0.220735	-0.517264	-0.360427
C156	C	0.279265	-0.017264	0.139573
C157	C	-0.245945	-0.480658	-0.401465
C158	C	0.254055	0.019342	0.098535
C159	C	-0.254729	-1.030781	-0.680220
C160	C	0.245271	-0.530781	-0.180220
C161	C	-0.252631	-1.027674	-0.753439
C162	C	0.247369	-0.527674	-0.253439
C163	C	-0.221676	-0.981321	-0.788143
C164	C	0.278324	-0.481321	-0.288143
C165	C	-0.192816	-0.938077	-0.749624
C166	C	0.307184	-0.438077	-0.249624
C167	C	-0.194913	-0.941189	-0.676407
C168	C	0.305087	-0.441189	-0.176407
C169	C	-0.213847	-0.969688	-1.009116
C170	C	0.286153	-0.469688	-0.509116
C171	C	-0.211753	-0.966579	-1.082339
C172	C	0.288247	-0.466579	-0.582339
C173	C	-0.271567	-1.056177	-1.086148
C174	C	0.228433	-0.556177	-0.586148
C175	C	-0.273663	-1.059281	-1.012929
C176	C	0.226337	-0.559281	-0.512929
C177	C	-0.244801	-1.016040	-0.974417
C178	C	0.255199	-0.516040	-0.474417
C179	C	-0.219531	-0.978142	-0.862984
C180	C	0.280469	-0.478142	-0.362984
C181	C	-0.246944	-1.019223	-0.899578
C182	C	0.253056	-0.519223	-0.399578
C183	C	-0.238505	-1.006378	-0.198771
C184	C	0.261495	-0.506378	0.301229
C185	C	-0.240610	-1.009821	-0.120852
C186	C	0.259390	-0.509821	0.379148
H187	H	-0.408763	-1.083352	-0.303081
H188	H	0.091237	-0.583352	0.196919
H189	H	-0.276129	-1.062886	-0.784793
H190	H	0.223871	-0.562886	-0.284793
H191	H	-0.176451	-0.735217	-0.288352
H192	H	0.323549	-0.235217	0.211648
H193	H	-0.167611	-0.900338	-0.777886
H194	H	0.332389	-0.400338	-0.277886
H195	H	-0.171414	-0.905978	-0.645050
H196	H	0.328586	-0.405978	-0.145050
H197	H	-0.197570	-0.489010	-0.322722
H198	H	0.302430	0.010990	0.177278
N199	N	-0.286355	-1.078129	-0.644785
N200	N	0.213645	-0.578129	-0.144785
N201	N	-0.312117	-1.116734	-0.679184
N202	N	0.187883	-0.616734	-0.179184
H203	H	-0.334453	-1.150176	-0.654160
H204	H	0.165547	-0.650176	-0.154160
H205	H	-1.066286	-1.083671	-0.303200
H206	H	-0.566286	-0.583671	0.196800
H207	H	-0.190347	-0.934476	-0.977769
H208	H	0.309653	-0.434476	-0.477769
N209	N	-0.976804	-1.093331	-0.294303
N210	N	-0.476804	-0.593331	0.205697
N211	N	-0.951054	-1.136931	-0.320908
N212	N	-0.451054	-0.636931	0.179092
H213	H	-0.935891	-1.170675	-0.289974
H214	H	-0.435891	-0.670675	0.210026
H215	H	-0.186543	-0.928834	-1.110593
H216	H	0.313457	-0.428834	-0.610593
N217	N	-0.607936	-0.857290	-0.510506
N218	N	-0.107936	-0.357290	-0.010506
N219	N	-0.581331	-0.813667	-0.483892
N220	N	-0.081331	-0.313667	0.016108
H221	H	-0.562653	-0.779907	-0.514821
H222	H	-0.062653	-0.279907	-0.014821
N223	N	-1.061788	-0.904250	-0.467684
N224	N	-0.561788	-0.404250	0.032316
N225	N	-1.038658	-0.862485	-0.505962
N226	N	-0.538658	-0.362485	-0.005962
H227	H	-1.053814	-0.828740	-0.536903
H228	H	-0.553814	-0.328740	-0.036903
N229	N	-0.305287	-1.106631	-0.977493
N230	N	0.194713	-0.606631	-0.477493
N231	N	-0.331051	-1.145236	-1.011889
N232	N	0.168949	-0.645236	-0.511889
H233	H	-0.353388	-1.178675	-0.986863
H234	H	0.146612	-0.678675	-0.486863
H235	H	-0.272145	-1.056966	-0.871319
H236	H	0.227855	-0.556966	-0.371319
N237	N	-0.702763	-0.857333	-0.510537
N238	N	-0.202763	-0.357333	-0.010537
N239	N	-0.679630	-0.815575	-0.548818
N240	N	-0.179630	-0.315575	-0.048818
H241	H	-0.694783	-0.781834	-0.579768
H242	H	-0.194783	-0.281834	-0.079768
N243	N	-0.499234	-1.093105	-0.294212
N244	N	0.000766	-0.593105	0.205788
N245	N	-0.480451	-1.134844	-0.255923
N246	N	0.019549	-0.634844	0.244077
H247	H	-0.499121	-1.168601	-0.224980
H248	H	0.000879	-0.668601	0.275020
N249	N	-0.622674	-1.139932	-0.251349
N250	N	-0.122674	-0.639932	0.248651
N251	N	-0.645806	-1.181696	-0.213074
N252	N	-0.145806	-0.681696	0.286926
H253	H	-0.630652	-1.215439	-0.182127
H254	H	-0.130652	-0.715439	0.317873
N255	N	-0.966968	-0.904218	-0.467686
N256	N	-0.466968	-0.404218	0.032314
N257	N	-0.985751	-0.862472	-0.505968
N258	N	-0.485751	-0.362472	-0.005968
H259	H	-0.967080	-0.828716	-0.536911
H260	H	-0.467080	-0.328716	-0.036911
N261	N	-0.188427	-0.410487	-0.307857
N262	N	0.311573	0.089513	0.192143
N263	N	-0.160182	-0.450325	-0.334340
N264	N	0.339818	0.049675	0.165660
H265	H	-0.141035	-0.478121	-0.303179
H266	H	0.358965	0.021879	0.196821
H267	H	-0.290229	-0.262704	-0.473537
H268	H	0.209771	0.237296	0.026463
N269	N	-0.843535	-0.857406	-0.510536
N270	N	-0.343535	-0.357406	-0.010536
N271	N	-0.869291	-0.813811	-0.483938
N272	N	-0.369291	-0.313811	0.016062
H273	H	-0.884458	-0.780077	-0.514878
H274	H	-0.384458	-0.280077	-0.014878
H275	H	-0.485044	-0.913681	-0.458713
H276	H	0.014956	-0.413681	0.041287
N277	N	-0.394550	-0.903943	-0.467565
N278	N	0.105450	-0.403943	0.032435
N279	N	-0.352660	-0.903934	-0.467545
N280	N	0.147340	-0.403934	0.032455
H281	H	-0.333969	-0.870187	-0.498471
H282	H	0.166031	-0.370187	0.001529
N283	N	-0.187916	-0.930781	-0.898423
N284	N	0.312084	-0.430781	-0.398423
N285	N	-0.162154	-0.892168	-0.864032
N286	N	0.337846	-0.392168	-0.364032
H287	H	-0.139825	-0.858719	-0.889063
H288	H	0.360175	-0.358719	-0.389063
N289	N	-0.763421	-1.140003	-0.251377
N290	N	-0.263421	-0.640003	0.248623
N291	N	-0.786554	-1.181765	-0.213099
N292	N	-0.286554	-0.681765	0.286901
H293	H	-0.771399	-1.215505	-0.182149
H294	H	-0.271399	-0.715505	0.317851
H295	H	-0.190452	-0.269670	-0.311159
H296	H	0.309548	0.230330	0.188841
N297	N	-0.167086	-0.595190	-0.273117
N298	N	0.332914	-0.095190	0.226883
N299	N	-0.165381	-0.529819	-0.270343
N300	N	0.334619	-0.029819	0.229657
H301	H	-0.144854	-0.504786	-0.236940
H302	H	0.355146	-0.004786	0.263060
N303	N	-0.278250	-0.587427	-0.454029
N304	N	0.221750	-0.087427	0.045971
N305	N	-0.260146	-0.544697	-0.497014
N306	N	0.239854	-0.044697	0.002986
H307	H	-0.279291	-0.516891	-0.528170
H308	H	0.220709	-0.016891	-0.028170
H309	H	-0.269109	-0.508906	-0.439171
H310	H	0.230891	-0.008906	0.060829
N311	N	-0.282125	-0.735456	-0.460317
N312	N	0.217875	-0.235456	0.039683
N313	N	-0.312502	-0.777327	-0.437303
N314	N	0.187498	-0.277327	0.062697
H315	H	-0.333030	-0.802359	-0.470705
H316	H	0.166970	-0.302359	0.029295
H317	H	-0.852891	-1.130348	-0.260292
H318	H	-0.352891	-0.630348	0.239708
N319	N	-0.748698	-0.857367	-0.510535
N320	N	-0.248698	-0.357367	-0.010535
N321	N	-0.752194	-0.859222	-0.575427
N322	N	-0.252194	-0.359222	-0.075427
H323	H	-0.733520	-0.825471	-0.606371
H324	H	-0.233520	-0.325471	-0.106371
N325	N	-0.717491	-1.139985	-0.251373
N326	N	-0.217491	-0.639985	0.248627
N327	N	-0.698706	-1.181726	-0.213090
N328	N	-0.198706	-0.681726	0.286910
H329	H	-0.717375	-1.215486	-0.182147
H330	H	-0.217375	-0.715486	0.317853
N331	N	-0.299604	-0.402724	-0.488770
N332	N	0.200396	0.097276	0.011230
N333	N	-0.340974	-0.394700	-0.483646
N334	N	0.159026	0.105300	0.016354
H335	H	-0.361509	-0.419720	-0.517046
H336	H	0.138491	0.080280	-0.017046
N337	N	-0.301044	-1.100338	-1.125498
N338	N	0.198956	-0.600338	-0.625498
N339	N	-0.299170	-1.097555	-1.190870
N340	N	0.200830	-0.597555	-0.690870
H341	H	-0.319988	-1.128747	-1.218662
H342	H	0.180012	-0.628747	-0.718662
