data_functionalizedCrystal
_audit_creation_method	'MofGen! by Chris Wilmer'
_symmetry_space_group_name_H-M	'P1'
_symmetry_Int_Tables_number	1
_symmetry_cell_setting	triclinic
loop_
_symmetry_equiv_pos_as_xyz
  x,y,z
_cell_length_a	6.817900
_cell_length_b	11.020367
_cell_length_c	11.102288
_cell_angle_alpha	87.596669
_cell_angle_beta	108.605689
_cell_angle_gamma	72.704380
loop_
_atom_site_label
_atom_site_type_symbol
_atom_site_fract_x
_atom_site_fract_y
_atom_site_fract_z
V1	V	-4.096078	0.396256	-0.175841
O2	O	-4.055405	0.388713	0.008448
O3	O	-4.072961	0.393546	-0.348661
O4	O	-4.066120	0.569077	-0.173137
O5	O	-4.062293	0.211967	-0.168291
V6	V	-4.574041	0.374214	-0.153798
O7	O	-4.369535	0.444608	-0.224195
O8	O	-4.750781	0.325862	-0.105444
O9	O	-4.373951	0.376924	0.019022
O10	O	-4.732111	0.381757	-0.338087
O11	O	-4.725223	0.558503	-0.161348
O12	O	-4.380792	0.201393	-0.156502
C13	C	-3.923516	0.387295	-0.390791
C14	C	-3.986024	0.386231	-0.532074
C15	C	-4.199152	0.392072	-0.604922
C16	C	-4.257878	0.391083	-0.737674
C17	C	-3.890326	0.378406	-0.724715
C18	C	-3.831607	0.379405	-0.591968
C19	C	-4.195466	0.159263	-0.162752
C20	C	-4.117747	0.017979	-0.163813
C21	C	-3.959890	-0.018334	0.068965
C22	C	-3.844449	-0.102863	0.184852
C23	C	-3.771435	-0.235610	0.183851
C24	C	-3.813876	-0.283829	0.066951
C25	C	-3.929317	-0.199300	-0.048936
C26	C	-4.002317	-0.066551	-0.047923
C27	C	-4.087186	-0.162988	-0.281711
C28	C	-4.160187	-0.030240	-0.280713
C29	C	-4.129626	-0.211207	-0.398611
C30	C	-4.245056	-0.126676	-0.514501
C31	C	-4.318068	0.006078	-0.513496
C32	C	-4.275628	0.054290	-0.396600
C33	C	-3.914788	0.611201	-0.166891
C34	C	-3.971745	0.752483	-0.165824
C35	C	-4.186739	0.383171	0.061146
C36	C	-4.103470	0.384243	0.202427
H37	H	-3.764612	0.372845	-0.773497
H38	H	-3.658050	0.374653	-0.532653
H39	H	-4.019309	0.089755	0.069791
H40	H	-4.324891	0.397629	-0.556161
H41	H	-4.431423	0.395841	-0.796982
H42	H	-3.809908	-0.063588	0.280030
H43	H	-3.677445	-0.304436	0.278217
H44	H	-4.279610	-0.165949	-0.609672
H45	H	-4.412071	0.074896	-0.607865
H46	H	-3.754441	-0.391921	0.066147
H47	H	-4.335057	0.162378	-0.395770
H48	H	-4.070182	-0.319298	-0.399417
