data_functionalizedCrystal
_audit_creation_method	'MofGen! by Chris Wilmer'
_symmetry_space_group_name_H-M	'P1'
_symmetry_Int_Tables_number	1
_symmetry_cell_setting	triclinic
loop_
_symmetry_equiv_pos_as_xyz
  x,y,z
_cell_length_a	19.288864
_cell_length_b	19.188930
_cell_length_c	17.766277
_cell_angle_alpha	89.988508
_cell_angle_beta	89.976791
_cell_angle_gamma	83.140512
loop_
_atom_site_label
_atom_site_type_symbol
_atom_site_fract_x
_atom_site_fract_y
_atom_site_fract_z
O1	O	0.921360	0.087099	-0.062844
O2	O	1.421360	0.587099	0.437156
O3	O	0.719100	0.098849	-0.062794
O4	O	1.219100	0.598849	0.437206
O5	O	0.826066	-0.008682	-0.062806
O6	O	1.326066	0.491318	0.437194
O7	O	0.814393	0.194630	-0.062832
O8	O	1.314393	0.694630	0.437168
O9	O	0.826048	-0.008688	0.062383
O10	O	1.326048	0.491312	0.562383
O11	O	0.719081	0.098843	0.062395
O12	O	1.219081	0.598843	0.562395
O13	O	0.921341	0.087094	0.062345
O14	O	1.421341	0.587094	0.562345
Cu15	Cu	0.820209	0.092968	0.073800
Cu16	Cu	1.320209	0.592968	0.573800
Cu17	Cu	0.820231	0.092974	-0.074250
Cu18	Cu	1.320231	0.592974	0.425750
O19	O	0.814374	0.194625	0.062356
O20	O	1.314374	0.694625	0.562356
C21	C	0.693214	0.098468	-0.000193
C22	C	1.193214	0.598468	0.499807
C23	C	0.616110	0.097333	-0.000173
C24	C	1.116110	0.597333	0.499827
C25	C	0.571419	0.160427	-0.000193
C26	C	1.071419	0.660427	0.499807
C27	C	0.498972	0.159361	-0.000201
C28	C	0.998972	0.659361	0.499799
C29	C	0.471219	0.095197	-0.000204
C30	C	0.971219	0.595197	0.499796
C31	C	0.515921	0.032095	-0.000180
C32	C	1.015921	0.532095	0.499820
C33	C	0.588366	0.033163	-0.000164
C34	C	1.088366	0.533163	0.499836
C35	C	0.362960	0.044759	-0.044082
C36	C	0.862960	0.544759	0.455918
C37	C	0.290515	0.043694	-0.044103
C38	C	0.790515	0.543694	0.455897
C39	C	0.247773	0.091900	-0.000249
C40	C	0.747773	0.591900	0.499751
C41	C	0.277483	0.141184	0.043614
C42	C	0.777483	0.641184	0.543614
C43	C	0.349929	0.142252	0.043630
C44	C	0.849929	0.642252	0.543630
C45	C	0.392665	0.094032	-0.000221
C46	C	0.892665	0.594032	0.499779
C47	C	0.124526	0.153843	-0.000277
C48	C	0.624526	0.653843	0.499723
C49	C	0.052078	0.152774	-0.000281
C50	C	0.552078	0.652774	0.499719
C51	C	0.069028	0.025506	-0.000267
C52	C	0.569028	0.525506	0.499733
C53	C	0.141475	0.026576	-0.000256
C54	C	0.641475	0.526576	0.499744
C55	C	0.169219	0.090747	-0.000265
C56	C	0.669219	0.590747	0.499735
C57	C	0.825679	-0.034696	-0.000209
C58	C	1.325679	0.465304	0.499791
C59	C	0.824544	-0.112200	-0.000202
C60	C	1.324544	0.387800	0.499798
C61	C	0.887309	-0.157129	-0.000214
C62	C	1.387309	0.342871	0.499786
C63	C	0.886243	-0.229953	-0.000226
C64	C	1.386243	0.270047	0.499774
C65	C	0.822408	-0.257844	-0.000211
C66	C	1.322408	0.242156	0.499789
C67	C	0.759636	-0.212906	-0.000203
C68	C	1.259636	0.287094	0.499797
C69	C	0.760704	-0.140084	-0.000199
C70	C	1.260704	0.359916	0.499801
N71	N	0.773608	-0.365848	0.042405
N72	N	1.273608	0.134152	0.542405
N73	N	0.772598	-0.435026	0.042403
N74	N	1.272598	0.064974	0.542403
C75	C	0.819187	-0.477253	-0.000225
C76	C	1.319187	0.022747	0.499775
N77	N	0.866835	-0.447689	-0.042841
N78	N	1.366835	0.052311	0.457159
N79	N	0.867847	-0.378504	-0.042836
N80	N	1.367847	0.121496	0.457164
C81	C	0.821243	-0.336807	-0.000216
C82	C	1.321243	0.163193	0.499784
C83	C	0.880800	-0.601146	-0.000251
C84	C	1.380800	-0.101146	0.499749
C85	C	0.879731	-0.673971	-0.000268
C86	C	1.379731	-0.173971	0.499732
C87	C	0.753122	-0.656922	-0.000237
C88	C	1.253122	-0.156922	0.499763
C89	C	0.754193	-0.584099	-0.000228
C90	C	1.254193	-0.084099	0.499772
C91	C	0.818034	-0.556216	-0.000231
C92	C	1.318034	-0.056216	0.499769
C93	C	0.947227	0.087475	-0.000258
C94	C	1.447227	0.587475	0.499742
C95	C	1.024330	0.088609	-0.000283
C96	C	1.524330	0.588609	0.499717
C97	C	0.814762	0.220638	-0.000242
C98	C	1.314762	0.720638	0.499758
C99	C	0.815896	0.298143	-0.000253
C100	C	1.315896	0.798143	0.499747
N101	N	0.820199	0.092963	0.177931
N102	N	1.320199	0.592963	0.677931
N103	N	0.820247	0.092974	-0.178380
N104	N	1.320247	0.592974	0.321620
C105	C	0.867579	0.045372	0.217312
C106	C	1.367579	0.545372	0.717312
C107	C	0.867583	0.045368	0.296114
C108	C	1.367583	0.545368	0.796114
C109	C	0.820213	0.092969	0.335531
C110	C	1.320213	0.592969	0.835531
C111	C	0.772824	0.140564	0.296140
C112	C	1.272824	0.640564	0.796140
C113	C	0.772817	0.140561	0.217340
C114	C	1.272817	0.640561	0.717340
C115	C	0.810919	0.156585	0.460362
C116	C	1.310919	0.656585	0.960362
C117	C	0.810931	0.156589	0.539161
C118	C	1.310931	0.656589	1.039161
C119	C	0.820232	0.092977	0.578578
C120	C	1.320232	0.592977	1.078578
C121	C	0.829535	0.029359	0.539185
C122	C	1.329535	0.529359	1.039185
C123	C	0.829528	0.029356	0.460385
C124	C	1.329528	0.529356	0.960385
C125	C	0.820216	0.092977	0.420977
C126	C	1.320216	0.592977	0.920977
C127	C	0.867619	0.045378	0.703405
C128	C	1.367619	0.545378	1.203405
C129	C	0.867618	0.045374	0.782208
C130	C	1.367618	0.545374	1.282208
C131	C	0.772863	0.140575	0.782233
C132	C	1.272863	0.640575	1.282233
C133	C	0.772861	0.140573	0.703431
C134	C	1.272861	0.640573	1.203431
C135	C	0.820242	0.092976	0.664022
C136	C	1.320242	0.592976	1.164022
H137	H	0.594003	0.212680	-0.000201
H138	H	1.094003	0.712680	0.499799
F139	F	0.722408	0.191221	0.338091
F140	F	1.222408	0.691221	0.838091
F141	F	0.918045	-0.005285	0.824123
F142	F	1.418045	0.494715	1.324123
F143	F	0.948744	-0.571468	-0.000251
F144	F	1.448744	-0.071468	0.499749
F145	F	0.722435	0.191230	0.661515
F146	F	1.222435	0.691230	1.161515
H147	H	0.930844	-0.710552	-0.000281
H148	H	1.430844	-0.210552	0.499719
H149	H	0.734234	0.179316	0.185275
H150	H	1.234234	0.679316	0.685275
F151	F	0.801071	0.224296	0.418420
F152	F	1.301071	0.724296	0.918420
F153	F	0.685185	-0.686602	-0.000224
F154	F	1.185185	-0.186602	0.499776
F155	F	0.381546	0.194700	0.090314
F156	F	0.881546	0.694700	0.590314
H157	H	0.707661	-0.235620	-0.000192
H158	H	1.207661	0.264380	0.499808
F159	F	0.687389	-0.536280	-0.000212
F160	F	1.187389	-0.036280	0.499788
F161	F	0.693898	-0.092265	-0.000186
F162	F	1.193898	0.407735	0.499814
H163	H	0.906158	0.006613	0.185228
H164	H	1.406158	0.506613	0.685228
H165	H	0.906167	0.006612	0.328185
H166	H	1.406167	0.506612	0.828185
F167	F	0.486384	-0.036193	-0.000180
F168	F	0.986384	0.463807	0.499820
F169	F	0.039497	-0.042783	-0.000263
F170	F	0.539497	0.457217	0.499737
F171	F	0.953048	-0.277778	-0.000240
F172	F	1.453048	0.222222	0.499760
F173	F	0.451399	0.226517	-0.000220
F174	F	0.951399	0.726517	0.499780
H175	H	0.177864	-0.024802	-0.000244
H176	H	0.677864	0.475198	0.499756
H177	H	0.242684	0.180439	0.079324
H178	H	0.742684	0.680439	0.579324
F179	F	0.154056	0.222138	-0.000281
F180	F	0.654056	0.722138	0.499719
F181	F	0.839423	-0.038349	0.418464
F182	F	1.339423	0.461651	0.918464
H183	H	0.266331	0.003566	-0.079822
H184	H	0.766331	0.503566	0.420178
H185	H	0.837108	-0.022440	0.571277
H186	H	1.337108	0.477560	1.071277
H187	H	0.803361	0.208391	0.571228
H188	H	1.303361	0.708391	1.071228
H189	H	0.939293	-0.134431	-0.000220
H190	H	1.439293	0.365569	0.499780
F191	F	0.635932	-0.033994	-0.000143
F192	F	1.135932	0.466006	0.499857
F193	F	0.004513	0.219931	-0.000298
F194	F	0.504513	0.719931	0.499702
F195	F	0.918044	-0.005282	0.661462
F196	F	1.418044	0.494718	1.161462
H197	H	0.397756	0.005502	-0.079797
H198	H	0.897756	0.505502	0.420203
H199	H	0.734291	0.179330	0.814326
H200	H	1.234291	0.679330	1.314326
