data_functionalizedCrystal
_audit_creation_method	'MofGen! by Chris Wilmer'
_symmetry_space_group_name_H-M	'P1'
_symmetry_Int_Tables_number	1
_symmetry_cell_setting	triclinic
loop_
_symmetry_equiv_pos_as_xyz
  x,y,z
_cell_length_a	21.395362
_cell_length_b	21.395362
_cell_length_c	21.395355
_cell_angle_alpha	90.048039
_cell_angle_beta	89.980094
_cell_angle_gamma	89.954240
loop_
_atom_site_label
_atom_site_type_symbol
_atom_site_fract_x
_atom_site_fract_y
_atom_site_fract_z
Zn1	Zn	-0.249206	-0.957874	-0.354648
Zn2	Zn	-0.353966	-0.957782	-0.249868
Zn3	Zn	-0.249239	-0.853088	-0.249842
Zn4	Zn	-0.353983	-0.853064	-0.354565
O5	O	-0.301598	-0.905452	-0.302231
O6	O	-0.263081	-1.045539	-0.340794
O7	O	-0.340080	-0.943866	-0.162187
O8	O	-0.161557	-0.867037	-0.263768
O9	O	-0.340048	-1.045472	-0.263813
O10	O	-0.161532	-0.944022	-0.340769
O11	O	-0.263138	-0.866948	-0.162167
O12	O	-0.263155	-0.765407	-0.263688
O13	O	-0.340077	-0.866995	-0.442254
O14	O	-0.340110	-0.765389	-0.340628
O15	O	-0.263098	-0.943998	-0.442315
O16	O	-0.441646	-0.943842	-0.263733
O17	O	-0.441658	-0.866906	-0.340653
C18	C	-0.301638	-0.742664	-0.302147
C19	C	-0.301670	-0.673023	-0.302125
C20	C	-0.464386	-0.905378	-0.302201
C21	C	-0.534027	-0.905404	-0.302209
C22	C	-0.341795	-0.640317	-0.342126
C23	C	-0.341782	-0.574881	-0.342149
C24	C	-0.301652	-0.542155	-0.302161
C25	C	-0.261519	-0.574869	-0.262158
C26	C	-0.261528	-0.640303	-0.262140
C27	C	-0.296609	-0.438430	-0.245748
C28	C	-0.296604	-0.372997	-0.245765
C29	C	-0.301619	-0.340334	-0.302215
C30	C	-0.306653	-0.373112	-0.358651
C31	C	-0.306662	-0.438546	-0.358634
C32	C	-0.301637	-0.471202	-0.302176
C33	C	-0.341732	-0.236675	-0.342244
C34	C	-0.341715	-0.171239	-0.342268
C35	C	-0.261455	-0.171227	-0.262272
C36	C	-0.261469	-0.236663	-0.262253
C37	C	-0.301611	-0.269383	-0.302238
C38	C	-1.035796	-0.945663	-0.262280
C39	C	-0.970360	-0.945640	-0.262265
C40	C	-0.937665	-0.905541	-0.302276
C41	C	-0.970411	-0.865451	-0.342292
C42	C	-1.035845	-0.865472	-0.342301
C43	C	-0.833976	-0.900533	-0.358704
C44	C	-0.768543	-0.900517	-0.358696
C45	C	-0.735845	-0.905474	-0.302247
C46	C	-0.768587	-0.910461	-0.245805
C47	C	-0.834021	-0.910481	-0.245814
C48	C	-0.866713	-0.905514	-0.302270
C49	C	-0.632154	-0.945532	-0.262214
C50	C	-0.566718	-0.945504	-0.262199
C51	C	-0.566770	-0.865319	-0.342231
C52	C	-0.632205	-0.865344	-0.342241
C53	C	-0.664893	-0.905454	-0.302234
C54	C	-0.138175	-0.905543	-0.302275
C55	C	-0.068534	-0.905582	-0.302294
C56	C	-0.301586	-0.905504	-0.465654
C57	C	-0.301580	-0.905526	-0.535296
C58	C	-0.301569	-0.068875	-0.302298
C59	C	-0.301583	-0.138516	-0.302281
C60	C	-0.261495	-0.945620	-0.568041
C61	C	-0.261468	-0.945619	-0.633477
C62	C	-0.301537	-0.905531	-0.666164
C63	C	-0.341625	-0.865429	-0.633410
C64	C	-0.341646	-0.865427	-0.567976
C65	C	-0.357954	-0.900558	-0.769826
C66	C	-0.357934	-0.900565	-0.835259
C67	C	-0.301471	-0.905535	-0.867985
C68	C	-0.245027	-0.910511	-0.835269
C69	C	-0.245048	-0.910508	-0.769835
C70	C	-0.301519	-0.905529	-0.737116
C71	C	-0.261354	-0.945630	-0.971683
C72	C	-0.261326	-0.945625	-1.037120
C73	C	-0.341488	-0.865438	-1.037052
C74	C	-0.341511	-0.865440	-0.971617
C75	C	-0.301444	-0.905539	-0.938936
C76	C	-0.301566	-0.905436	-0.139443
C77	C	-0.301395	-0.905535	-0.069802
H78	H	-0.374457	-0.548247	-0.374724
H79	H	-0.741964	-0.914498	-0.199840
H80	H	-0.310759	-0.465232	-0.404586
H81	H	-0.228726	-0.978278	-0.945073
H82	H	-0.374287	-0.832774	-0.541315
N83	N	-0.667415	-0.988777	-0.219051
H84	H	-0.713835	-0.982709	-0.225129
H85	H	-0.655924	-1.033518	-0.228854
N86	N	-0.218242	-0.539572	-0.219021
H87	H	-0.173489	-0.551006	-0.228828
H88	H	-0.224384	-0.493169	-0.225122
N89	N	-0.531513	-0.822070	-0.385386
H90	H	-0.562185	-0.796682	-0.410738
H91	H	-0.504411	-0.793080	-0.359836
H92	H	-0.374156	-0.832795	-0.944955
N93	N	-0.531404	-0.988739	-0.219040
H94	H	-0.562044	-1.014152	-0.193701
H95	H	-0.504211	-1.017706	-0.244587
N96	N	-1.071163	-0.822246	-0.385465
H97	H	-1.098359	-0.793235	-0.359966
H98	H	-1.040488	-0.796878	-0.410802
H99	H	-0.658861	-0.832707	-0.374827
N100	N	-0.218245	-0.675584	-0.219000
H101	H	-0.192816	-0.644925	-0.193673
H102	H	-0.243706	-0.702677	-0.189948
N103	N	-0.733231	-0.895140	-0.419569
H104	H	-0.763873	-0.891994	-0.455330
H105	H	-0.706125	-0.856527	-0.418605
N106	N	-0.869241	-0.895184	-0.419591
H107	H	-0.838572	-0.892028	-0.455345
H108	H	-0.896344	-0.933365	-0.425464
H109	H	-0.943788	-0.832801	-0.374868
H110	H	-0.228870	-0.978271	-0.541437
H111	H	-1.062407	-0.978322	-0.229701
N112	N	-0.312098	-0.337875	-0.419529
H113	H	-0.352692	-0.349250	-0.440748
H114	H	-0.311308	-0.291465	-0.410908
H115	H	-0.374248	-0.832787	-0.660028
H116	H	-0.943700	-0.978280	-0.229680
N117	N	-0.218201	-0.271950	-0.219104
H118	H	-0.189209	-0.299154	-0.244615
H119	H	-0.192815	-0.241256	-0.193780
N120	N	-0.218078	-0.988860	-1.072442
H121	H	-0.192700	-1.014258	-1.041807
H122	H	-0.243560	-1.017841	-1.099621
H123	H	-0.403894	-0.896517	-0.861891
N124	N	-0.385023	-0.271972	-0.385370
H125	H	-0.410438	-0.241320	-0.410718
H126	H	-0.359567	-0.299180	-0.414403
H127	H	-0.228823	-0.978267	-0.660144
N128	N	-0.184176	-0.915877	-0.734548
H129	H	-0.148401	-0.919028	-0.765204
H130	H	-0.178376	-0.877705	-0.707368
H131	H	-0.199050	-0.914559	-0.861913
H132	H	-0.292509	-0.346314	-0.199811
N133	N	-0.384702	-0.822193	-1.072298
H134	H	-0.378605	-0.828277	-1.118719
H135	H	-0.429451	-0.831918	-1.060869
H136	H	-0.374481	-0.666953	-0.374686
H137	H	-0.403921	-0.896343	-0.743186
N138	N	-0.384997	-0.135959	-0.385411
H139	H	-0.410429	-0.166619	-0.410734
H140	H	-0.413945	-0.108755	-0.359854
H141	H	-0.228777	-0.144582	-0.229715
H142	H	-0.860677	-0.914540	-0.199857
N143	N	-0.291196	-0.473656	-0.184858
H144	H	-0.288011	-0.442964	-0.149111
H145	H	-0.329367	-0.500762	-0.178965
