data_functionalizedCrystal
_audit_creation_method	'MofGen! by Chris Wilmer'
_symmetry_space_group_name_H-M	'P1'
_symmetry_Int_Tables_number	1
_symmetry_cell_setting	triclinic
loop_
_symmetry_equiv_pos_as_xyz
  x,y,z
_cell_length_a	14.853569
_cell_length_b	19.188924
_cell_length_c	13.930277
_cell_angle_alpha	89.993371
_cell_angle_beta	89.994756
_cell_angle_gamma	83.388765
loop_
_atom_site_label
_atom_site_type_symbol
_atom_site_fract_x
_atom_site_fract_y
_atom_site_fract_z
O1	O	1.195858	0.091160	-0.079791
O2	O	1.695858	0.591160	0.420209
O3	O	0.933338	0.102018	-0.079804
O4	O	1.433338	0.602018	0.420196
O5	O	1.072177	-0.005041	-0.079786
O6	O	1.572177	0.494959	0.420214
O7	O	1.057019	0.198220	-0.079809
O8	O	1.557019	0.698220	0.420191
O9	O	1.072158	-0.005044	0.079876
O10	O	1.572158	0.494956	0.579876
O11	O	0.933319	0.102016	0.079858
O12	O	1.433319	0.602016	0.579858
O13	O	1.195839	0.091158	0.079870
O14	O	1.695839	0.591158	0.579870
Zn15	Zn	1.064575	0.096587	0.105214
Zn16	Zn	1.564575	0.596587	0.605214
Zn17	Zn	1.064601	0.096590	-0.105147
Zn18	Zn	1.564601	0.596590	0.394853
O19	O	1.057000	0.198218	0.079853
O20	O	1.557000	0.698218	0.579853
C21	C	0.899742	0.101525	0.000026
C22	C	1.399742	0.601525	0.500026
C23	C	0.799667	0.100050	0.000022
C24	C	1.299667	0.600050	0.500022
C25	C	0.763650	0.035762	0.000026
C26	C	1.263650	0.535762	0.500026
C27	C	0.741649	0.162952	0.000022
C28	C	1.241649	0.662952	0.500022
C29	C	0.647623	0.161569	0.000023
C30	C	1.147623	0.661569	0.500023
C31	C	0.611606	0.097281	0.000027
C32	C	1.111606	0.597281	0.500027
C33	C	0.669615	0.034377	0.000030
C34	C	1.169615	0.534377	0.500030
C35	C	0.589606	0.224471	0.000030
C36	C	1.089606	0.724471	0.500030
C37	C	0.495574	0.223090	0.000033
C38	C	0.995574	0.723090	0.500033
C39	C	0.459555	0.158802	0.000030
C40	C	0.959555	0.658802	0.500030
C41	C	0.517571	0.095895	0.000031
C42	C	1.017571	0.595895	0.500031
C43	C	0.481554	0.031608	0.000035
C44	C	0.981554	0.531608	0.500035
C45	C	0.539568	-0.031300	0.000030
C46	C	1.039568	0.468700	0.500030
C47	C	0.633596	-0.029912	0.000027
C48	C	1.133596	0.470088	0.500027
C49	C	0.365527	0.157414	0.000033
C50	C	0.865527	0.657414	0.500033
C51	C	0.387519	0.030222	0.000039
C52	C	0.887519	0.530222	0.500039
C53	C	1.071677	-0.031055	0.000046
C54	C	1.571677	0.468945	0.500046
C55	C	1.070207	-0.108565	0.000048
C56	C	1.570207	0.391435	0.500048
C57	C	1.069531	-0.144965	-0.086983
C58	C	1.569531	0.355035	0.413017
C59	C	1.068137	-0.217792	-0.086991
C60	C	1.568137	0.282208	0.413009
C61	C	1.067436	-0.254219	0.000039
C62	C	1.567436	0.245781	0.500039
C63	C	1.068107	-0.217809	0.087082
C64	C	1.568107	0.282191	0.587082
C65	C	1.069492	-0.144983	0.087087
C66	C	1.569492	0.355017	0.587087
N67	N	1.116557	-0.373719	0.064815
N68	N	1.616557	0.126281	0.564815
N69	N	1.115242	-0.442901	0.064804
N70	N	1.615242	0.057099	0.564804
C71	C	1.063260	-0.473642	0.000029
C72	C	1.563260	0.026358	0.500029
N73	N	1.012653	-0.432587	-0.064750
N74	N	1.512653	0.067413	0.435250
N75	N	1.013972	-0.363398	-0.064742
N76	N	1.513972	0.136602	0.435258
C77	C	1.065934	-0.333187	0.000043
C78	C	1.565934	0.166813	0.500043
C79	C	1.061071	-0.589009	-0.087017
C80	C	1.561071	-0.089009	0.412983
C81	C	1.059671	-0.661837	-0.087020
C82	C	1.559671	-0.161837	0.412980
C83	C	1.059651	-0.661854	0.087055
C84	C	1.559651	-0.161854	0.587055
C85	C	1.061042	-0.589027	0.087056
C86	C	1.561042	-0.089027	0.587056
C87	C	1.061756	-0.552609	0.000018
C88	C	1.561756	-0.052609	0.500018
C89	C	1.229434	0.091651	0.000039
C90	C	1.729434	0.591651	0.500039
C91	C	1.329509	0.093126	0.000037
C92	C	1.829509	0.593126	0.500037
C93	C	1.057499	0.224232	0.000019
C94	C	1.557499	0.724232	0.500019
C95	C	1.058969	0.301741	0.000010
C96	C	1.558969	0.801741	0.500010
N97	N	1.064565	0.096584	0.248780
N98	N	1.564565	0.596584	0.748780
N99	N	1.064619	0.096587	-0.248713
N100	N	1.564619	0.596587	0.251287
C101	C	1.003121	0.143977	0.701042
C102	C	1.503121	0.643977	1.201042
C103	C	1.126106	0.049197	0.701027
C104	C	1.626106	0.549197	1.201027
C105	C	1.126095	0.049195	0.600531
C106	C	1.626095	0.549195	1.100531
C107	C	1.064597	0.096585	0.550286
C108	C	1.564597	0.596585	1.050286
C109	C	1.003110	0.143978	0.600537
C110	C	1.503110	0.643978	1.100537
C111	C	1.187587	0.001808	0.550273
C112	C	1.687587	0.501808	1.050273
C113	C	1.187580	0.001804	0.449771
C114	C	1.687580	0.501804	0.949771
C115	C	1.126077	0.049192	0.399524
C116	C	1.626077	0.549192	0.899524
C117	C	1.064586	0.096586	0.449781
C118	C	1.564586	0.596586	0.949781
C119	C	1.003088	0.143976	0.399536
C120	C	1.503088	0.643976	0.899536
C121	C	0.941593	0.191367	0.449791
C122	C	1.441593	0.691367	0.949791
C123	C	0.941607	0.191365	0.550290
C124	C	1.441607	0.691365	1.050290
C125	C	1.126063	0.049194	0.299025
C126	C	1.626063	0.549194	0.799025
C127	C	1.003077	0.143977	0.299031
C128	C	1.503077	0.643977	0.799031
H129	H	0.358202	-0.022129	0.000038
H130	H	0.858202	0.477871	0.500038
O131	O	0.689856	-0.091062	0.000154
O132	O	1.189856	0.408938	0.500154
C133	C	0.673580	-0.130086	0.082857
C134	C	1.173580	0.369914	0.582857
H135	H	0.602179	-0.113012	0.110426
H136	H	1.102179	0.386988	0.610426
H137	H	0.680428	-0.188311	0.064261
H138	H	1.180428	0.311689	0.564261
H139	H	0.724972	-0.120494	0.140760
H140	H	1.224972	0.379506	0.640760
O141	O	0.881912	0.237495	0.598998
O142	O	1.381912	0.737495	1.098998
C143	C	0.896296	0.306634	0.574441
C144	C	1.396296	0.806634	1.074441
H145	H	0.931036	0.306598	0.501464
H146	H	1.431036	0.806598	1.001464
H147	H	0.828393	0.340920	0.571012
H148	H	1.328393	0.840920	1.071012
H149	H	0.941087	0.328291	0.630989
H150	H	1.441087	0.828291	1.130989
H151	H	0.318296	0.208632	0.000045
H152	H	0.818296	0.708632	0.500045
H153	H	1.067581	-0.247434	-0.157865
H154	H	1.567581	0.252566	0.342135
O155	O	0.943475	0.189985	0.750001
O156	O	1.443475	0.689985	1.250001
C157	C	0.956647	0.179813	0.849480
C158	C	1.456647	0.679813	1.349480
H159	H	1.028425	0.153820	0.863201
H160	H	1.528425	0.653820	1.363201
H161	H	0.946404	0.232674	0.887668
H162	H	1.446404	0.732674	1.387668
H163	H	0.905765	0.144720	0.878012
H164	H	1.405765	0.644720	1.378012
H165	H	1.061648	-0.559356	-0.157889
H166	H	1.561648	-0.059356	0.342111
O167	O	1.185714	0.003097	0.749879
O168	O	1.685714	0.503097	1.249879
C169	C	1.137608	-0.040028	0.808051
C170	C	1.637608	0.459972	1.308051
H171	H	1.066517	-0.041307	0.777775
H172	H	1.566517	0.458693	1.277775
H173	H	1.174608	-0.095473	0.809204
H174	H	1.674608	0.404527	1.309204
H175	H	1.132799	-0.018177	0.884212
H176	H	1.632799	0.481823	1.384212
H177	H	1.070110	-0.115318	-0.157857
H178	H	1.570110	0.384682	0.342143
O179	O	0.820126	-0.025278	0.000064
O180	O	1.320126	0.474722	0.500064
C181	C	0.910844	-0.010276	0.000030
C182	C	1.410844	0.489724	0.500030
H183	H	0.914239	0.044565	0.030255
H184	H	1.414239	0.544565	0.530255
H185	H	0.953603	-0.050369	0.046381
H186	H	1.453603	0.449631	0.546381
H187	H	0.938048	-0.012893	-0.076570
H188	H	1.438048	0.487107	0.423430
H189	H	1.067534	-0.247472	0.157942
H190	H	1.567534	0.252528	0.657942
H191	H	1.176136	0.010612	0.258112
H192	H	1.676136	0.510612	0.758112
O193	O	1.247193	-0.044292	0.599130
O194	O	1.747193	0.455708	1.099130
C195	C	1.199081	-0.087419	0.657292
C196	C	1.699081	0.412581	1.157292
H197	H	1.127995	-0.088700	0.627005
H198	H	1.627995	0.411300	1.127005
H199	H	1.236084	-0.142863	0.658449
H200	H	1.736084	0.357137	1.158449
H201	H	1.194261	-0.065568	0.733453
H202	H	1.694261	0.434432	1.233453
O203	O	1.070189	-0.109732	0.171720
O204	O	1.570189	0.390268	0.671720
C205	C	1.069242	-0.157493	0.248537
C206	C	1.569242	0.342507	0.748537
H207	H	1.096792	-0.212268	0.223024
H208	H	1.596792	0.287732	0.723024
H209	H	1.113392	-0.140848	0.309414
H210	H	1.613392	0.359152	0.809414
H211	H	0.996780	-0.157982	0.275289
H212	H	1.496780	0.342018	0.775289
O213	O	1.059066	-0.697096	-0.171654
O214	O	1.559066	-0.197096	0.328346
C215	C	1.059977	-0.649330	-0.248469
C216	C	1.559977	-0.149330	0.251531
H217	H	1.089489	-0.600282	-0.222942
H218	H	1.589489	-0.100282	0.277058
H219	H	1.103359	-0.674758	-0.309328
H220	H	1.603359	-0.174758	0.190672
H221	H	0.987824	-0.634328	-0.275253
H222	H	1.487824	-0.134328	0.224747
H223	H	1.237652	-0.036784	0.408859
H224	H	1.737652	0.463216	0.908859
H225	H	1.061600	-0.559390	0.157927
H226	H	1.561600	-0.059390	0.657927
O227	O	0.504533	-0.093730	-0.000135
O228	O	1.004533	0.406270	0.499865
C229	C	0.450777	-0.098317	-0.082806
C230	C	0.950777	0.401683	0.417194
H231	H	0.472877	-0.061809	-0.140606
H232	H	0.972877	0.438191	0.359394
H233	H	0.459426	-0.154576	-0.110563
H234	H	0.959426	0.345424	0.389437
H235	H	0.376561	-0.082275	-0.064101
H236	H	0.876561	0.417725	0.435899
O237	O	0.439185	0.284176	0.000196
O238	O	0.939185	0.784176	0.500196
C239	C	0.384109	0.287172	0.082869
C240	C	0.884109	0.787172	0.582869
H241	H	0.418678	0.251502	0.140673
H242	H	0.918678	0.751502	0.640673
H243	H	0.373309	0.343403	0.110617
H244	H	0.873309	0.843403	0.610617
H245	H	0.315803	0.269036	0.064172
H246	H	0.815803	0.769036	0.564172
H247	H	0.618939	0.276811	0.000033
H248	H	1.118939	0.776811	0.500033
O249	O	0.776783	0.225337	-0.000014
O250	O	1.276783	0.725337	0.499986
C251	C	0.872215	0.213071	0.000017
C252	C	1.372215	0.713071	0.500017
H253	H	0.894512	0.158609	-0.030215
H254	H	1.394512	0.658609	0.469785
H255	H	0.900936	0.254217	-0.046330
H256	H	1.400936	0.754217	0.453670
H257	H	0.898367	0.216468	0.076617
H258	H	1.398367	0.716468	0.576617
O259	O	1.058831	-0.697286	0.171541
O260	O	1.558831	-0.197286	0.671541
C261	C	0.979946	-0.731553	0.176742
C262	C	1.479946	-0.231553	0.676742
H263	H	0.953738	-0.739851	0.101169
H264	H	1.453738	-0.239851	0.601169
H265	H	0.996503	-0.784526	0.213592
H266	H	1.496503	-0.284526	0.713592
H267	H	0.925809	-0.697992	0.219670
H268	H	1.425809	-0.197992	0.719670
O269	O	0.943249	0.189918	0.250183
O270	O	1.443249	0.689918	0.750183
C271	C	0.887797	0.152449	0.192043
C272	C	1.387797	0.652449	0.692043
H273	H	0.886500	0.097382	0.222334
H274	H	1.386500	0.597382	0.722334
H275	H	0.816028	0.180833	0.190912
H276	H	1.316028	0.680833	0.690912
H277	H	0.916021	0.148834	0.115872
H278	H	1.416021	0.648834	0.615872
O279	O	0.881733	0.237373	0.401084
O280	O	1.381733	0.737373	0.901084
C281	C	0.792539	0.225884	0.425631
C282	C	1.292539	0.725884	0.925631
H283	H	0.792756	0.198972	0.498605
H284	H	1.292756	0.698972	0.998605
H285	H	0.747930	0.278303	0.429061
H286	H	1.247930	0.778303	0.929061
H287	H	0.764805	0.191088	0.369076
H288	H	1.264805	0.691088	0.869076
