data_functionalizedCrystal
_audit_creation_method	'MofGen! by Chris Wilmer'
_symmetry_space_group_name_H-M	'P1'
_symmetry_Int_Tables_number	1
_symmetry_cell_setting	triclinic
loop_
_symmetry_equiv_pos_as_xyz
  x,y,z
_cell_length_a	11.792254
_cell_length_b	15.944493
_cell_length_c	10.268362
_cell_angle_alpha	89.999410
_cell_angle_beta	90.004525
_cell_angle_gamma	83.836821
loop_
_atom_site_label
_atom_site_type_symbol
_atom_site_fract_x
_atom_site_fract_y
_atom_site_fract_z
O1	O	1.505919	0.115182	0.108281
O2	O	2.005919	0.615182	0.608281
O3	O	1.175479	0.127036	0.108282
O4	O	1.675479	0.627036	0.608282
O5	O	1.349757	-0.001128	0.108292
O6	O	1.849757	0.498872	0.608292
O7	O	1.331641	0.243346	0.108271
O8	O	1.831641	0.743346	0.608271
O9	O	1.349742	-0.001133	-0.108309
O10	O	1.849742	0.498867	0.391691
O11	O	1.175464	0.127031	-0.108319
O12	O	1.675464	0.627031	0.391681
O13	O	1.505904	0.115177	-0.108320
O14	O	2.005904	0.615177	0.391680
Cu15	Cu	1.340682	0.121103	-0.128097
Cu16	Cu	1.840682	0.621103	0.371903
Cu17	Cu	1.340700	0.121110	0.128059
Cu18	Cu	1.840700	0.621110	0.628059
O19	O	1.331626	0.243341	-0.108330
O20	O	1.831626	0.743341	0.391670
C21	C	1.133187	0.126287	-0.000018
C22	C	1.633187	0.626287	0.499982
C23	C	1.007193	0.124052	-0.000017
C24	C	1.507193	0.624052	0.499983
C25	C	0.904872	0.122236	-0.000011
C26	C	1.404872	0.622236	0.499989
C27	C	0.776504	0.119965	-0.000010
C28	C	1.276504	0.619965	0.499990
C29	C	1.349009	-0.032429	-0.000003
C30	C	1.849009	0.467571	0.499997
C31	C	1.346789	-0.125687	0.000014
C32	C	1.846789	0.374313	0.500014
C33	C	1.449373	-0.360981	-0.000011
C34	C	1.949373	0.139019	0.499989
C35	C	1.394061	-0.411798	0.106784
C36	C	1.894061	0.088202	0.606784
C37	C	1.342676	-0.296427	-0.000002
C38	C	1.842676	0.203573	0.499998
C39	C	1.394021	-0.411779	-0.106767
C40	C	1.894021	0.088221	0.393233
C41	C	1.338711	-0.461355	-0.000023
C42	C	1.838711	0.038645	0.499977
C43	C	1.287392	-0.346016	0.106881
C44	C	1.787392	0.153984	0.606881
C45	C	1.287368	-0.345994	-0.106766
C46	C	1.787368	0.154006	0.393234
C47	C	1.231977	-0.396778	0.000055
C48	C	1.731977	0.103222	0.500055
C49	C	1.344963	-0.201417	0.000011
C50	C	1.844963	0.298583	0.500011
C51	C	1.336415	-0.556362	-0.000027
C52	C	1.836415	-0.056362	0.499973
C53	C	1.548196	0.115926	-0.000017
C54	C	2.048196	0.615926	0.499983
C55	C	1.674190	0.118161	-0.000010
C56	C	2.174190	0.618161	0.499990
C57	C	1.332374	0.274642	-0.000033
C58	C	1.832374	0.774642	0.499967
C59	C	1.334594	0.367900	-0.000041
C60	C	1.834594	0.867900	0.499959
N61	N	1.340678	0.121098	-0.308263
N62	N	1.840678	0.621098	0.191737
C63	C	1.340694	0.121108	-0.573933
C64	C	1.840694	0.621108	-0.073933
C65	C	1.340682	0.121105	-0.426095
C66	C	1.840682	0.621105	0.073905
N67	N	1.340713	0.121108	0.308225
N68	N	1.840713	0.621108	0.808225
H69	H	1.541279	-0.344935	0.000096
H70	H	2.041279	0.155065	0.500096
C71	C	1.454903	-0.450580	-0.228737
C72	C	1.954903	0.049420	0.271263
H73	H	1.532088	-0.438566	-0.228595
H74	H	2.032088	0.061434	0.271405
H75	H	1.452431	-0.509932	-0.228291
H76	H	1.952431	-0.009932	0.271709
H77	H	1.417763	-0.427161	-0.304576
H78	H	1.917763	0.072839	0.195424
H79	H	1.242365	-0.317398	0.197264
H80	H	1.742365	0.182602	0.697264
H81	H	1.439127	-0.440536	0.197072
H82	H	1.939127	0.059464	0.697072
H83	H	1.140000	-0.412662	0.000114
H84	H	1.640000	0.087338	0.500114
C85	C	1.226546	-0.307141	-0.228739
C86	C	1.726546	0.192859	0.271261
H87	H	1.264577	-0.329764	-0.304551
H88	H	1.764577	0.170236	0.195449
H89	H	1.149741	-0.320010	-0.229509
H90	H	1.649741	0.179990	0.270491
H91	H	1.227825	-0.247674	-0.227423
H92	H	1.727825	0.252326	0.272577
