data_functionalizedCrystal
_audit_creation_method	'MofGen! by Chris Wilmer'
_symmetry_space_group_name_H-M	'P1'
_symmetry_Int_Tables_number	1
_symmetry_cell_setting	triclinic
loop_
_symmetry_equiv_pos_as_xyz
  x,y,z
_cell_length_a	12.837943
_cell_length_b	13.339070
_cell_length_c	11.295483
_cell_angle_alpha	95.212346
_cell_angle_beta	85.461227
_cell_angle_gamma	105.229117
loop_
_atom_site_label
_atom_site_type_symbol
_atom_site_fract_x
_atom_site_fract_y
_atom_site_fract_z
O1	O	1.458416	0.264173	-0.098995
O2	O	1.152768	0.250811	-0.099002
O3	O	1.270513	0.106847	-0.098996
O4	O	1.340670	0.408137	-0.099001
O5	O	1.260165	0.119470	0.099055
O6	O	1.142420	0.263434	0.099048
O7	O	1.448068	0.276796	0.099056
Cu8	Cu	1.294299	0.271267	0.117135
Cu9	Cu	1.306537	0.256339	-0.117082
O10	O	1.330322	0.420760	0.099049
C11	C	1.107675	0.252608	0.000022
C12	C	0.988726	0.239146	0.000019
C13	C	0.794315	0.400986	0.000033
C14	C	0.682553	0.388342	0.000031
C15	C	0.653436	0.201215	0.000022
C16	C	0.765199	0.213859	0.000024
C17	C	0.835635	0.313748	0.000028
C18	C	0.947400	0.326391	0.000021
C19	C	0.918281	0.139265	0.000020
C20	C	0.806518	0.126621	0.000018
C21	C	1.253488	0.074327	0.000027
C22	C	1.218164	-0.041381	0.000022
C23	C	1.492830	-0.379696	0.000029
C24	C	1.526022	-0.270983	0.000041
C25	C	1.449060	-0.213577	0.000036
C26	C	1.338901	-0.264895	0.000019
C27	C	1.305705	-0.373618	0.000017
C28	C	1.261935	-0.207499	0.000024
C29	C	1.151776	-0.258817	0.000007
C30	C	1.118585	-0.367530	0.000004
C31	C	1.195547	-0.424936	0.000009
C32	C	1.295131	-0.098776	0.000026
C33	C	1.108006	-0.092698	0.000014
C34	C	1.074814	-0.201411	0.000002
C35	C	1.493161	0.274998	0.000029
C36	C	1.612110	0.288460	0.000024
C37	C	1.347347	0.453280	0.000023
C38	C	1.382672	0.568987	0.000021
N39	N	1.285699	0.281767	0.281871
N40	N	1.315142	0.245832	-0.281818
C41	C	1.377032	0.170190	0.531166
C42	C	1.370543	0.178133	0.655829
C43	C	1.266225	0.305590	0.655863
C44	C	1.272714	0.297647	0.531200
C45	C	1.328121	0.229946	0.468856
C46	C	1.334616	0.222009	0.344190
C47	C	1.230293	0.349460	0.344227
C48	C	1.223804	0.357403	0.468890
H49	H	0.951934	0.068229	0.000008
Br50	Br	1.148606	0.449273	0.553507
Br51	Br	1.042991	0.461950	0.000019
Br52	Br	1.597263	-0.457605	0.000065
Br53	Br	1.452243	0.078329	0.446552
H54	H	0.648916	0.459381	0.000039
Br55	Br	0.557827	0.065664	0.000038
Br56	Br	1.191016	0.397449	0.740485
H57	H	0.985120	-0.243210	-0.000011
H58	H	1.476092	-0.125058	0.000046
H59	H	1.045336	-0.045958	0.000015
Br60	Br	1.444627	-0.029143	0.000052
H61	H	1.168527	-0.513460	-0.000005
H62	H	1.379734	0.166887	0.293430
H63	H	1.410369	0.129473	0.706558
H64	H	1.615714	-0.229207	0.000056
H65	H	0.749154	0.045295	0.000029
H66	H	0.851666	0.482319	0.000035
Br67	Br	0.969082	-0.437173	0.000004
Br68	Br	1.163923	0.430571	0.259652
