data_functionalizedCrystal
_audit_creation_method	'MofGen! by Chris Wilmer'
_symmetry_space_group_name_H-M	'P1'
_symmetry_Int_Tables_number	1
_symmetry_cell_setting	triclinic
loop_
_symmetry_equiv_pos_as_xyz
  x,y,z
_cell_length_a	6.817900
_cell_length_b	12.200875
_cell_length_c	17.078472
_cell_angle_alpha	95.444452
_cell_angle_beta	99.306020
_cell_angle_gamma	107.143593
loop_
_atom_site_label
_atom_site_type_symbol
_atom_site_fract_x
_atom_site_fract_y
_atom_site_fract_z
V1	V	-4.047438	-0.357546	-0.109947
O2	O	-4.056007	-0.350858	0.005098
O3	O	-3.978184	-0.354986	-0.217829
O4	O	-4.017467	-0.513536	-0.108338
O5	O	-4.016453	-0.191211	-0.105151
V6	V	-4.531380	-0.337664	-0.096177
O7	O	-4.307777	-0.401156	-0.140154
O8	O	-4.721239	-0.294054	-0.065971
O9	O	-4.377428	-0.340224	0.011704
O10	O	-4.640208	-0.344352	-0.211222
O11	O	-4.679762	-0.503999	-0.100973
O12	O	-4.338145	-0.181674	-0.097787
C13	C	-3.817515	-0.349316	-0.244126
C14	C	-3.842302	-0.348264	-0.332321
C15	C	-4.035951	-0.353486	-0.377798
C16	C	-4.059232	-0.352504	-0.460668
C17	C	-3.888857	-0.346290	-0.498056
C18	C	-3.695194	-0.341071	-0.452573
C19	C	-3.671920	-0.342061	-0.369706
C20	C	-3.938952	-0.342722	-0.745459
C21	C	-3.962241	-0.341728	-0.828331
C22	C	-4.326278	-0.353164	-0.836420
C23	C	-4.302983	-0.354147	-0.753551
C24	C	-4.109326	-0.348933	-0.708075
N25	N	-3.912648	-0.345282	-0.582761
N26	N	-4.085542	-0.349949	-0.623373
C27	C	-3.867624	-0.551560	-0.104457
C28	C	-3.924264	-0.679082	-0.103855
C29	C	-4.027925	-0.912558	-0.102753
C30	C	-3.970233	-0.782635	-0.103366
C31	C	-4.201437	-0.345890	0.037997
C32	C	-4.155890	-0.346951	0.126191
C33	C	-4.151329	-0.143644	-0.101670
C34	C	-4.073927	-0.016121	-0.102268
H35	H	-3.823503	-0.336695	-0.858773
N36	N	-4.524068	-0.358487	-0.882885
N37	N	-4.544832	-0.357599	-0.956871
H38	H	-4.684529	-0.361361	-0.989688
N39	N	-4.210019	-0.359846	-0.339626
N40	N	-4.373377	-0.444795	-0.360399
H41	H	-4.496324	-0.449291	-0.333443
N42	N	-3.474088	-0.336704	-0.323257
N43	N	-3.315929	-0.251534	-0.321000
H44	H	-3.176204	-0.247752	-0.288196
H45	H	-4.441729	-0.359215	-0.723116
N46	N	-3.521186	-0.334738	-0.490776
N47	N	-3.541987	-0.333854	-0.564764
H48	H	-3.419090	-0.329380	-0.591744
N49	N	-3.741123	-0.337361	-0.699015
N50	N	-3.648616	-0.255409	-0.643073
H51	H	-3.508885	-0.251619	-0.610270
N52	N	-4.257050	-0.357853	-0.507121
N53	N	-4.415220	-0.443014	-0.509374
H54	H	-4.554939	-0.446794	-0.542181
