data_functionalizedCrystal
_audit_creation_method	'MofGen! by Chris Wilmer'
_symmetry_space_group_name_H-M	'P1'
_symmetry_Int_Tables_number	1
_symmetry_cell_setting	triclinic
loop_
_symmetry_equiv_pos_as_xyz
  x,y,z
_cell_length_a	13.185407
_cell_length_b	13.339070
_cell_length_c	12.376457
_cell_angle_alpha	104.410245
_cell_angle_beta	82.610146
_cell_angle_gamma	83.801389
loop_
_atom_site_label
_atom_site_type_symbol
_atom_site_fract_x
_atom_site_fract_y
_atom_site_fract_z
O1	O	-0.491206	-1.227957	-0.094033
O2	O	-0.424910	-0.951478	-0.094028
O3	O	-0.313642	-1.137086	-0.094027
O4	O	-0.602474	-1.042350	-0.094033
O5	O	-0.341411	-1.090711	0.093985
O6	O	-0.452678	-0.905104	0.093984
O7	O	-0.518974	-1.181582	0.093979
Zn8	Zn	-0.490235	-1.035980	0.123833
Zn9	Zn	-0.453649	-1.097081	-0.123881
O10	O	-0.630242	-0.995975	0.093979
C11	C	-0.427595	-0.893651	-0.000021
C12	C	-0.394214	-0.790436	-0.000019
C13	C	-0.289804	-1.123503	-0.000023
C14	C	-0.177398	-1.152111	-0.000027
C15	C	-0.516289	-1.239411	-0.000030
C16	C	-0.549669	-1.342627	-0.000039
C17	C	-0.654080	-1.009558	-0.000028
C18	C	-0.766484	-0.980952	-0.000031
C19	C	0.194465	-0.879098	-0.000033
C20	C	0.088856	-0.852220	-0.000040
C21	C	0.022288	-0.927190	-0.000036
C22	C	0.061337	-1.029044	-0.000027
C23	C	0.166957	-1.055928	-0.000028
C24	C	-0.005220	-1.104019	-0.000032
C25	C	0.033830	-1.205873	-0.000022
C26	C	0.139439	-1.232752	-0.000023
C27	C	0.206008	-1.157782	-0.000027
C28	C	-0.110840	-1.077135	-0.000030
C29	C	-0.138347	-1.253965	-0.000026
C30	C	-0.032739	-1.280844	-0.000019
N31	N	-0.515205	-0.994287	0.292891
C32	C	-0.653765	-0.354985	-0.000043
C33	C	-0.685131	-0.451959	-0.000048
C34	C	-0.612405	-0.536583	-0.000041
C35	C	-0.508307	-0.524224	-0.000029
C36	C	-0.476937	-0.427242	-0.000032
C37	C	-0.435576	-0.608840	-0.000030
C38	C	-0.331478	-0.596480	-0.000018
C39	C	-0.300113	-0.499507	-0.000021
C40	C	-0.372840	-0.414884	-0.000028
C41	C	-0.466946	-0.705821	-0.000026
C42	C	-0.290117	-0.778078	-0.000015
C43	C	-0.258752	-0.681104	-0.000010
N44	N	-0.428673	-1.138783	-0.292939
C45	C	-0.370690	-1.235570	0.647877
C46	C	-0.353212	-1.264746	0.529537
C47	C	-0.393708	-1.197133	0.470370
C48	C	-0.451687	-1.100341	0.529554
C49	C	-0.469174	-1.071166	0.647905
C50	C	-0.492192	-1.032729	0.470398
C51	C	-0.550170	-0.935937	0.529582
C52	C	-0.567654	-0.906767	0.647922
C53	C	-0.527157	-0.974379	0.707089
C54	C	-0.474705	-1.061904	0.352047
C55	C	-0.573189	-0.897500	0.352075
C56	C	-0.590667	-0.868325	0.470414
H57	H	-0.142623	-0.994205	-0.000037
H58	H	0.057070	-0.769291	-0.000051
N59	N	-0.340791	-0.315832	-0.000050
N60	N	-0.275616	-0.308231	-0.079305
H61	H	-0.252981	-0.238274	-0.079324
N62	N	-0.728044	-0.268542	-0.000032
N63	N	-0.802449	-0.235617	0.079219
H64	H	-0.854913	-0.174562	0.079227
N65	N	-0.614555	-0.828409	0.291668
N66	N	-0.666324	-0.741995	0.344521
H67	H	-0.695539	-0.693204	0.301854
H68	H	0.248674	-0.818071	-0.000045
N69	N	-0.644457	-0.635634	-0.000049
N70	N	-0.737402	-0.646656	-0.000058
H71	H	-0.760046	-0.716612	-0.000060
N72	N	-0.193775	-0.486903	-0.000031
N73	N	-0.128848	-0.562464	-0.000029
H74	H	-0.053745	-0.553566	-0.000038
N75	N	-0.649909	-0.769466	0.530874
N76	N	-0.741472	-0.748641	0.517659
H77	H	-0.783312	-0.678822	0.560358
N78	N	-0.152418	-0.668489	0.000006
N79	N	-0.108430	-0.683959	0.079263
H80	H	-0.033331	-0.675051	0.079276
N81	N	-0.085585	-0.899721	-0.000046
N82	N	-0.120438	-0.808778	-0.000053
H83	H	-0.196628	-0.789371	-0.000056
N84	N	-0.215824	-0.864503	0.000020
N85	N	-0.164832	-0.858311	0.079278
H86	H	-0.112367	-0.919353	0.079303
H87	H	-0.427499	-1.140713	0.303869
N88	N	-0.329364	-1.304627	0.708331
N89	N	-0.345002	-1.278571	0.813995
H90	H	-0.315821	-1.327351	0.856693
N91	N	0.313883	-1.185251	-0.000008
N92	N	0.343173	-1.217173	0.079247
H93	H	0.419361	-1.236571	0.079263
N94	N	0.179316	-1.336802	-0.000037
N95	N	0.119875	-1.403732	-0.000038
H96	H	0.148036	-1.477220	-0.000050
H97	H	-0.000930	-1.363775	-0.000012
H98	H	-0.769886	-0.462017	-0.000067
N99	N	-0.206351	-1.330537	-0.000006
N100	N	-0.280055	-1.315708	0.079250
H101	H	-0.328089	-1.369782	0.079263
H102	H	-0.379475	-1.220893	0.374012
N103	N	-0.294121	-1.363679	0.469104
N104	N	-0.258054	-1.424081	0.521940
H105	H	-0.216366	-1.493983	0.479258
H106	H	-0.551703	-0.715872	-0.000031
H107	H	-0.541384	-0.950623	0.803451
N108	N	-0.626899	-0.807904	0.708361
N109	N	-0.663058	-0.747547	0.655526
H110	H	-0.704904	-0.677726	0.698208
