data_functionalizedCrystal
_audit_creation_method	'MofGen! by Chris Wilmer'
_symmetry_space_group_name_H-M	'P1'
_symmetry_Int_Tables_number	1
_symmetry_cell_setting	triclinic
loop_
_symmetry_equiv_pos_as_xyz
  x,y,z
_cell_length_a	18.215407
_cell_length_b	18.050589
_cell_length_c	18.215399
_cell_angle_alpha	90.023603
_cell_angle_beta	90.017368
_cell_angle_gamma	90.025664
loop_
_atom_site_label
_atom_site_type_symbol
_atom_site_fract_x
_atom_site_fract_y
_atom_site_fract_z
Zn1	Zn	1.125055	-0.295718	0.416090
Zn2	Zn	1.458388	0.037616	0.749423
Zn3	Zn	1.791722	0.370949	1.082756
Zn4	Zn	1.124956	-0.419913	0.293033
Zn5	Zn	1.458289	-0.086579	0.626366
Zn6	Zn	1.791623	0.246754	0.959699
Zn7	Zn	1.001987	-0.295736	0.293042
Zn8	Zn	1.335321	0.037598	0.626376
Zn9	Zn	1.668654	0.370931	0.959709
Zn10	Zn	1.001946	-0.419865	0.416063
Zn11	Zn	1.335279	-0.086532	0.749396
Zn12	Zn	1.668613	0.246802	1.082730
O13	O	1.063486	-0.357808	0.354557
O14	O	1.396819	-0.024474	0.687890
O15	O	1.730153	0.308859	1.021224
O16	O	1.228026	-0.312205	0.399773
O17	O	1.561359	0.021128	0.733106
O18	O	1.894693	0.354462	1.066440
O19	O	1.108620	-0.403468	0.190050
O20	O	1.441953	-0.070134	0.523383
O21	O	1.775287	0.263199	0.856716
O22	O	1.018371	-0.191809	0.309380
O23	O	1.351705	0.141525	0.642713
O24	O	1.685038	0.474858	0.976047
O25	O	1.227953	-0.403451	0.309364
O26	O	1.561287	-0.070117	0.642697
O27	O	1.894620	0.263216	0.976030
O28	O	1.108788	-0.191796	0.399782
O29	O	1.442122	0.141538	0.733116
O30	O	1.775455	0.474871	1.066449
O31	O	1.018275	-0.312235	0.190057
O32	O	1.351609	0.021098	0.523390
O33	O	1.684942	0.354431	0.856723
O34	O	0.898998	-0.312189	0.309354
O35	O	1.232331	0.021144	0.642687
O36	O	1.565664	0.354478	0.976021
O37	O	1.018301	-0.403369	0.519051
O38	O	1.351634	-0.070036	0.852384
O39	O	1.684968	0.263298	1.185717
O40	O	0.898967	-0.403386	0.399737
O41	O	1.232301	-0.070053	0.733070
O42	O	1.565634	0.263280	1.066403
O43	O	1.108748	-0.312159	0.519070
O44	O	1.442082	0.021175	0.852404
O45	O	1.775415	0.354508	1.185737
O46	O	1.108580	-0.523831	0.309338
O47	O	1.441913	-0.190498	0.642671
O48	O	1.775247	0.142836	0.976004
O49	O	1.018205	-0.523796	0.399727
O50	O	1.351538	-0.190463	0.733061
O51	O	1.684872	0.142871	1.066394
C52	C	0.872280	-0.357785	0.354544
C53	C	1.205613	-0.024452	0.687877
C54	C	1.538947	0.308882	1.021211
C55	C	0.790481	-0.357793	0.354556
C56	C	1.123814	-0.024460	0.687889
C57	C	1.457148	0.308874	1.021223
C58	C	1.063397	-0.550760	0.354545
C59	C	1.396731	-0.217427	0.687878
C60	C	1.730064	0.115907	1.021211
C61	C	1.063427	-0.633306	0.354564
C62	C	1.396760	-0.299972	0.687897
C63	C	1.730093	0.033361	1.021231
C64	C	0.602324	-0.310379	0.401707
C65	C	0.935657	0.022954	0.735040
C66	C	1.268990	0.356287	1.068373
C67	C	0.525465	-0.310386	0.401709
C68	C	0.858798	0.022948	0.735042
C69	C	1.192132	0.356281	1.068376
C70	C	0.525400	-0.405257	0.307420
C71	C	0.858734	-0.071924	0.640754
C72	C	1.192067	0.261410	0.974087
C73	C	0.602258	-0.405246	0.307415
C74	C	0.935591	-0.071913	0.640748
C75	C	1.268924	0.261420	0.974081
C76	C	0.640717	-0.357809	0.354562
C77	C	0.974051	-0.024475	0.687895
C78	C	1.307384	0.308858	1.021229
C79	C	0.487001	-0.357826	0.354570
C80	C	0.820335	-0.024492	0.687903
C81	C	1.153668	0.308841	1.021237
C82	C	0.403668	-0.357833	0.354572
C83	C	0.737001	-0.024500	0.687906
C84	C	1.070334	0.308834	1.021239
C85	C	0.724056	-0.357800	0.354559
C86	C	1.057390	-0.024467	0.687892
C87	C	1.390723	0.308867	1.021225
C88	C	1.014329	-0.832764	0.403701
C89	C	1.347662	-0.499431	0.737034
C90	C	1.680996	-0.166097	1.070368
C91	C	0.996389	-0.882204	0.336547
C92	C	1.329723	-0.548870	0.669881
C93	C	1.663056	-0.215537	1.003214
C94	C	1.063499	-0.784436	0.354574
C95	C	1.396832	-0.451103	0.687907
C96	C	1.730166	-0.117769	1.021240
C97	C	1.081475	-0.882078	0.421735
C98	C	1.414808	-0.548745	0.755068
C99	C	1.748141	-0.215411	1.088401
C100	C	1.063567	-0.930421	0.354589
C101	C	1.396901	-0.597088	0.687922
C102	C	1.730234	-0.263754	1.021256
C103	C	1.045524	-0.832788	0.287385
C104	C	1.378857	-0.499455	0.620718
C105	C	1.712191	-0.166122	0.954051
C106	C	1.130641	-0.832658	0.372617
C107	C	1.463974	-0.499325	0.705951
C108	C	1.797307	-0.165992	1.039284
C109	C	1.112726	-0.882076	0.305418
C110	C	1.446060	-0.548742	0.638751
C111	C	1.779393	-0.215409	0.972084
C112	C	1.063458	-0.700338	0.354566
C113	C	1.396791	-0.367004	0.687899
C114	C	1.730124	-0.033671	1.021233
C115	C	1.063609	-1.014518	0.354589
C116	C	1.396942	-0.681184	0.687922
C117	C	1.730275	-0.347851	1.021256
C118	C	1.255439	-0.357831	0.354570
C119	C	1.588772	-0.024498	0.687904
C120	C	1.922106	0.308835	1.021237
C121	C	1.337238	-0.357841	0.354576
C122	C	1.670571	-0.024508	0.687909
C123	C	2.003905	0.308825	1.021243
C124	C	1.063531	-0.357757	0.546510
C125	C	1.396864	-0.024423	0.879843
C126	C	1.730198	0.308910	1.213177
C127	C	1.063550	-0.357735	0.628309
C128	C	1.396883	-0.024401	0.961642
C129	C	1.730217	0.308932	1.294976
C130	C	1.063595	-0.164102	0.354585
C131	C	1.396929	0.169231	0.687919
C132	C	1.730262	0.502565	1.021252
C133	C	1.063642	-0.081556	0.354597
C134	C	1.396975	0.251777	0.687931
C135	C	1.730309	0.585110	1.021264
C136	C	1.063484	-0.357805	0.163351
C137	C	1.396817	-0.024472	0.496684
C138	C	1.730150	0.308862	0.830017
C139	C	1.063607	-0.357618	0.081552
C140	C	1.396941	-0.024284	0.414885
C141	C	1.730274	0.309049	0.748219
C142	C	1.110663	-0.310197	0.816514
C143	C	1.443996	0.023136	1.149848
C144	C	1.777330	0.356470	1.483181
C145	C	1.110672	-0.310175	0.893373
C146	C	1.444005	0.023158	1.226706
C147	C	1.777338	0.356491	1.560040
C148	C	1.016489	-0.405158	0.893341
C149	C	1.349823	-0.071824	1.226675
C150	C	1.683156	0.261509	1.560008
C151	C	1.016477	-0.405175	0.816484
C152	C	1.349811	-0.071842	1.149817
C153	C	1.683144	0.261492	1.483151
C154	C	1.063568	-0.357696	0.778072
C155	C	1.396902	-0.024362	1.111406
C156	C	1.730235	0.308971	1.444739
C157	C	1.063589	-0.357657	0.931789
C158	C	1.396922	-0.024323	1.265122
C159	C	1.730256	0.309010	1.598455
C160	C	1.063598	-0.357634	1.015122
C161	C	1.396932	-0.024300	1.348456
C162	C	1.730265	0.309033	1.681789
C163	C	1.063558	-0.357718	0.694733
C164	C	1.396892	-0.024384	1.028067
C165	C	1.730225	0.308949	1.361400
H166	H	0.633635	-0.271750	0.440095
H167	H	0.966969	0.061583	0.773428
H168	H	1.300302	0.394917	1.106761
H169	H	0.494077	-0.443880	0.269035
H170	H	0.827411	-0.110547	0.602369
H171	H	1.160744	0.222787	0.935702
O172	O	0.639639	-0.451360	0.261719
O173	O	0.972972	-0.118027	0.595052
O174	O	1.306306	0.215306	0.928386
C175	C	0.684084	-0.499384	0.303538
C176	C	1.017418	-0.166050	0.636871
C177	C	1.350751	0.167283	0.970204
H178	H	0.695625	-0.473259	0.359352
H179	H	1.028958	-0.139926	0.692685
H180	H	1.362291	0.193407	1.026018
H181	H	0.738118	-0.509288	0.273543
H182	H	1.071451	-0.175955	0.606876
H183	H	1.404784	0.157378	0.940209
H184	H	0.654453	-0.554435	0.311534
H185	H	0.987786	-0.221101	0.644867
H186	H	1.321119	0.112232	0.978201
H187	H	0.972687	-0.811111	0.445187
H188	H	1.306020	-0.477778	0.778521
H189	H	1.639353	-0.144445	1.111854
O190	O	0.970830	-0.451356	0.779055
O191	O	1.304163	-0.118022	1.112389
O192	O	1.637497	0.215311	1.445722
C193	C	1.012699	-0.499345	0.734608
C194	C	1.346032	-0.166012	1.067941
C195	C	1.679366	0.167321	1.401274
H196	H	1.068483	-0.473160	0.723110
H197	H	1.401816	-0.139827	1.056444
H198	H	1.735150	0.193507	1.389777
H199	H	0.982711	-0.509304	0.680553
H200	H	1.316044	-0.175970	1.013887
H201	H	1.649378	0.157363	1.347220
H202	H	1.020759	-0.554377	0.764216
H203	H	1.354092	-0.221044	1.097549
H204	H	1.687425	0.112290	1.430882
H205	H	1.149006	-0.271534	0.785242
H206	H	1.482339	0.061799	1.118575
H207	H	1.815672	0.395132	1.451909
O208	O	0.928644	-0.908135	0.318462
O209	O	1.261977	-0.574801	0.651795
O210	O	1.595310	-0.241468	0.985129
C211	C	0.876929	-0.883000	0.370374
C212	C	1.210262	-0.549667	0.703707
C213	C	1.543596	-0.216334	1.037040
H214	H	0.906157	-0.869086	0.423985
H215	H	1.239491	-0.535753	0.757319
H216	H	1.572824	-0.202420	1.090652
H217	H	0.834461	-0.928227	0.380658
H218	H	1.167794	-0.594894	0.713991
H219	H	1.501128	-0.261561	1.047324
H220	H	0.848351	-0.831365	0.348457
H221	H	1.181684	-0.498032	0.681790
H222	H	1.515017	-0.164699	1.015123
H223	H	1.030282	-0.811227	0.230578
H224	H	1.363615	-0.477893	0.563911
H225	H	1.696948	-0.144560	0.897244
O226	O	1.162285	-0.907716	0.255709
O227	O	1.495618	-0.574383	0.589042
O228	O	1.828951	-0.241049	0.922376
C229	C	1.143106	-0.882451	0.185030
C230	C	1.476439	-0.549117	0.518363
C231	C	1.809773	-0.215784	0.851696
H232	H	1.082043	-0.868719	0.183575
H233	H	1.415376	-0.535386	0.516908
H234	H	1.748709	-0.202052	0.850242
H235	H	1.155503	-0.927527	0.142975
H236	H	1.488837	-0.594194	0.476308
H237	H	1.822170	-0.260860	0.809641
H238	H	1.176263	-0.830677	0.171385
H239	H	1.509596	-0.497344	0.504719
H240	H	1.842930	-0.164010	0.838052
O241	O	1.156385	-0.263932	0.930632
O242	O	1.489719	0.069401	1.263966
O243	O	1.823052	0.402734	1.597299
C244	C	1.140327	-0.189918	0.911870
C245	C	1.473661	0.143415	1.245204
C246	C	1.806994	0.476749	1.578537
H247	H	1.112028	-0.188393	0.856063
H248	H	1.445362	0.144940	1.189397
H249	H	1.778695	0.478273	1.522730
H250	H	1.193458	-0.156624	0.909251
H251	H	1.526792	0.176709	1.242584
H252	H	1.860125	0.510043	1.575918
H253	H	1.102513	-0.164887	0.955124
H254	H	1.435846	0.168447	1.288457
H255	H	1.769179	0.501780	1.621791
H256	H	0.978151	-0.443815	0.924625
H257	H	1.311484	-0.110482	1.257959
H258	H	1.644818	0.222852	1.591292
O259	O	0.488203	-0.264394	0.447613
O260	O	0.821537	0.068939	0.780946
O261	O	1.154870	0.402273	1.114280
C262	C	0.507020	-0.280707	0.520931
C263	C	0.840353	0.052627	0.854264
C264	C	1.173686	0.385960	1.187598
H265	H	0.528127	-0.340039	0.524545
H266	H	0.861461	-0.006705	0.857878
H267	H	1.194794	0.326628	1.191211
H268	H	0.456491	-0.274361	0.557304
H269	H	0.789825	0.058972	0.890637
H270	H	1.123158	0.392306	1.223971
H271	H	0.551654	-0.240912	0.540232
H272	H	0.884987	0.092421	0.873565
H273	H	1.218321	0.425755	1.206899
O274	O	1.198301	-0.806706	0.390972
O275	O	1.531634	-0.473373	0.724305
O276	O	1.864968	-0.140039	1.057638
C277	C	1.217014	-0.831789	0.461840
C278	C	1.550347	-0.498456	0.795173
C279	C	1.883681	-0.165123	1.128506
H280	H	1.164852	-0.845694	0.493545
H281	H	1.498185	-0.512360	0.826879
H282	H	1.831518	-0.179027	1.160212
H283	H	1.248577	-0.786535	0.492048
H284	H	1.581910	-0.453202	0.825382
H285	H	1.915244	-0.119869	1.158715
H286	H	1.252744	-0.883420	0.457232
H287	H	1.586077	-0.550086	0.790565
H288	H	1.919411	-0.216753	1.123899
H289	H	1.096652	-0.903729	0.478526
H290	H	1.429985	-0.570396	0.811859
H291	H	1.763318	-0.237063	1.145193
