data_functionalizedCrystal
_audit_creation_method	'MofGen! by Chris Wilmer'
_symmetry_space_group_name_H-M	'P1'
_symmetry_Int_Tables_number	1
_symmetry_cell_setting	triclinic
loop_
_symmetry_equiv_pos_as_xyz
  x,y,z
_cell_length_a	21.295420
_cell_length_b	21.295416
_cell_length_c	21.295420
_cell_angle_alpha	89.995528
_cell_angle_beta	90.017013
_cell_angle_gamma	89.973887
loop_
_atom_site_label
_atom_site_type_symbol
_atom_site_fract_x
_atom_site_fract_y
_atom_site_fract_z
Zn1	Zn	0.962309	0.250843	0.355923
Zn2	Zn	0.962226	0.356068	0.250653
Zn3	Zn	0.857046	0.250809	0.250668
Zn4	Zn	0.857002	0.356071	0.355884
O5	O	0.909646	0.303448	0.303282
O6	O	1.050387	0.264815	0.341968
O7	O	0.948257	0.342090	0.162565
O8	O	0.871063	0.162724	0.264652
O9	O	1.050326	0.342123	0.264627
O10	O	0.948399	0.162749	0.341983
O11	O	0.870982	0.264756	0.162576
O12	O	0.768951	0.264759	0.264615
O13	O	0.870987	0.342127	0.443979
O14	O	0.768918	0.342094	0.341917
O15	O	0.948356	0.264817	0.444007
O16	O	0.948214	0.444158	0.264589
O17	O	0.870907	0.444160	0.341903
C18	C	0.746094	0.303424	0.303264
C19	C	0.676126	0.303428	0.303271
C20	C	0.176699	0.263288	0.343628
C21	C	0.242442	0.263283	0.343628
C22	C	0.275286	0.303467	0.303296
C23	C	0.242383	0.343669	0.262973
C24	C	0.176642	0.343677	0.262979
N25	N	0.378484	0.308188	0.248177
N26	N	0.440935	0.308177	0.248173
C27	C	0.473361	0.303446	0.303278
N28	N	0.440977	0.298714	0.358387
N29	N	0.378519	0.298723	0.358390
C30	C	0.346572	0.303463	0.303286
C31	C	0.577542	0.263244	0.343602
C32	C	0.643286	0.263244	0.343603
C33	C	0.643226	0.343626	0.262942
C34	C	0.577484	0.343630	0.262947
C35	C	0.544646	0.303436	0.303276
C36	C	0.909564	0.466999	0.303254
C37	C	0.909586	0.536967	0.303263
C38	C	0.949876	0.569812	0.263049
C39	C	0.949906	0.635555	0.263066
C40	C	0.909634	0.668450	0.303290
C41	C	0.869342	0.635597	0.343513
C42	C	0.869318	0.569856	0.343499
N43	N	0.854567	0.771714	0.308088
N44	N	0.854592	0.834165	0.308097
C45	C	0.909705	0.866525	0.303335
N46	N	0.964795	0.834073	0.298551
N47	N	0.964769	0.771616	0.298538
C48	C	0.909656	0.739735	0.303310
C49	C	0.950031	0.970655	0.263137
C50	C	0.950062	1.036399	0.263158
C51	C	0.869492	1.036440	0.343602
C52	C	0.869467	0.970697	0.343584
C53	C	0.909735	0.937809	0.303348
C54	C	1.073836	0.303472	0.303300
C55	C	1.143804	0.303483	0.303308
C56	C	0.909676	0.303476	0.467472
C57	C	0.909689	0.303489	0.537440
C58	C	0.909746	1.139257	0.303334
C59	C	0.909791	1.069289	0.303384
C60	C	0.949969	0.263240	0.570322
C61	C	0.949959	0.263230	0.636065
C62	C	0.909677	0.303479	0.668923
C63	C	0.869389	0.343731	0.636032
C64	C	0.869395	0.343736	0.570291
N65	N	0.904806	0.358573	0.772140
N66	N	0.904804	0.358567	0.834592
C67	C	0.909654	0.303466	0.866997
N68	N	0.914519	0.248371	0.834592
N69	N	0.914525	0.248378	0.772135
C70	C	0.909665	0.303478	0.740208
C71	C	0.949926	0.263203	0.971165
C72	C	0.949912	0.263191	1.036909
C73	C	0.869345	0.343698	1.036875
C74	C	0.869356	0.343704	0.971133
C75	C	0.909649	0.303457	0.938282
C76	C	0.909618	0.303438	1.139730
C77	C	0.909628	0.303440	1.069762
H78	H	0.550700	0.376358	0.230110
C79	C	0.825082	0.388007	0.672173
H80	H	0.830852	0.382245	0.716036
H81	H	0.782793	0.378791	0.661385
H82	H	0.834276	0.430306	0.661400
H83	H	0.982717	0.662302	0.230319
H84	H	0.836540	0.376464	1.063627
C85	C	0.824996	0.533722	0.387733
H86	H	0.830752	0.489859	0.381965
H87	H	0.782710	0.544535	0.378487
H88	H	0.834192	0.544474	0.430042
H89	H	0.982874	1.063140	0.230412
C90	C	0.541415	0.219039	0.387964
H91	H	0.497550	0.224794	0.382187
H92	H	0.552199	0.228321	0.430243
H93	H	0.552202	0.176725	0.378822
H94	H	0.836656	0.943953	0.376328
H95	H	0.982822	0.943876	0.230376
H96	H	0.669968	0.376349	0.230108
H97	H	0.670068	0.230515	0.376441
C98	C	0.994285	0.218965	0.534190
H99	H	1.018270	0.194989	0.563193
H100	H	1.021700	0.243050	0.508553
H101	H	0.970221	0.191532	0.508537
H102	H	0.982759	0.230451	0.662843
C103	C	0.994177	0.533638	0.218798
H104	H	1.018180	0.562619	0.194855
H105	H	0.970108	0.508017	0.191343
H106	H	1.021583	0.507967	0.242904
C107	C	0.825043	0.671779	0.387757
H108	H	0.830823	0.715637	0.382002
H109	H	0.834225	0.660987	0.430059
H110	H	0.782748	0.661041	0.378500
C111	C	0.278634	0.219065	0.387980
H112	H	0.249661	0.195126	0.411996
H113	H	0.304285	0.243185	0.415364
H114	H	0.304277	0.191595	0.363937
H115	H	0.269130	0.376388	0.230136
H116	H	0.836705	1.063223	0.376357
H117	H	0.982732	0.230428	0.944416
C118	C	0.140581	0.219082	0.387994
H119	H	0.169592	0.195146	0.412011
H120	H	0.114933	0.191617	0.363966
H121	H	0.114940	0.243215	0.415385
C122	C	0.825095	0.388020	0.534119
H123	H	0.801105	0.411994	0.563101
H124	H	0.797684	0.363944	0.508457
H125	H	0.849171	0.415455	0.508489
C126	C	0.994223	0.218916	1.073080
H127	H	1.018223	0.194953	1.044097
H128	H	0.970160	0.191479	1.098715
H129	H	1.021632	0.243005	1.098736
C130	C	0.140456	0.387889	0.218620
H131	H	0.169430	0.411819	0.194596
H132	H	0.114807	0.415358	0.242652
H133	H	0.114812	0.363759	0.191234
H134	H	0.836559	0.376483	0.944359
