data_functionalizedCrystal
_audit_creation_method	'MofGen! by Chris Wilmer'
_symmetry_space_group_name_H-M	'P1'
_symmetry_Int_Tables_number	1
_symmetry_cell_setting	triclinic
loop_
_symmetry_equiv_pos_as_xyz
  x,y,z
_cell_length_a	23.096457
_cell_length_b	17.052862
_cell_length_c	17.052862
_cell_angle_alpha	118.506848
_cell_angle_beta	90.002672
_cell_angle_gamma	70.263778
loop_
_atom_site_label
_atom_site_type_symbol
_atom_site_fract_x
_atom_site_fract_y
_atom_site_fract_z
Zr1	Zr	0.671029	0.816691	0.200494
O2	O	0.607090	0.944585	0.328619
O3	O	0.676552	0.665970	0.146304
O4	O	0.707578	0.783773	0.307118
O5	O	0.567604	0.860708	0.057917
O6	O	0.802859	0.783774	0.307122
O7	O	0.576064	0.826781	0.167805
O8	O	0.747359	0.573045	0.019455
O9	O	0.623104	1.071437	0.345584
O10	O	0.767023	0.736419	0.141213
O11	O	0.689603	0.761737	0.059202
O12	O	0.726132	0.900436	0.248540
O13	O	0.648711	0.925754	0.166528
Zr14	Zr	0.809499	0.870802	0.025242
Zr15	Zr	0.822991	0.816693	0.200501
Zr16	Zr	0.657537	0.870800	0.025235
Zr17	Zr	0.696570	1.019006	0.227551
Zr18	Zr	0.783958	0.668487	-0.001815
O19	O	0.803976	1.021523	0.079433
O20	O	0.823161	0.944587	0.328629
O21	O	0.587905	1.021521	0.079423
O22	O	0.873438	0.742908	-0.102882
O23	O	0.892623	0.665972	0.146313
O24	O	0.657367	0.742906	-0.102892
O25	O	0.912924	0.826785	0.167820
O26	O	0.772950	0.903720	-0.081381
O27	O	0.677669	0.903719	-0.081385
O28	O	0.904464	0.860711	0.057932
O29	O	0.743894	1.071438	0.345589
O30	O	0.736634	0.616055	-0.119853
O31	O	0.857424	0.616056	-0.119847
O32	O	0.868149	0.573046	0.019460
O33	O	0.612379	1.114447	0.206276
O34	O	0.733169	1.114448	0.206282
O35	O	0.754396	0.787057	-0.022803
O36	O	0.831817	0.761739	0.059208
O37	O	0.790925	0.925755	0.166535
O38	O	0.713505	0.951074	0.084523
C39	C	0.708317	0.590682	0.079024
C40	C	0.697474	0.504794	0.067538
C41	C	0.828561	0.209831	0.206409
C42	C	0.838747	0.290530	0.217207
C43	C	0.803430	0.344100	0.179790
C44	C	0.757925	0.316963	0.131574
C45	C	0.747734	0.236261	0.120781
C46	C	0.722603	0.370530	0.094163
C47	C	0.677098	0.343393	0.045947
C48	C	0.666910	0.262698	0.035155
C49	C	0.702227	0.209129	0.072571
C50	C	0.732794	0.451232	0.104956
C51	C	0.651967	0.477662	0.019328
C52	C	0.641781	0.396963	0.008530
C53	C	0.550182	0.843745	0.112860
C54	C	0.485671	0.843744	0.112857
C55	C	0.476711	0.758130	0.056842
C56	C	0.416095	0.758129	0.056838
C57	C	0.364441	0.843744	0.112866
C58	C	0.373405	0.929371	0.168885
C59	C	0.434020	0.929371	0.168880
N60	N	0.256296	0.895799	0.192377
N61	N	0.198716	0.895793	0.192379
C62	C	0.181811	0.843749	0.112882
N63	N	0.224664	0.791695	0.033382
N64	N	0.282251	0.791698	0.033381
C65	C	0.298712	0.843753	0.112877
C66	C	0.107125	0.758129	0.056858
C67	C	0.046507	0.758133	0.056852
C68	C	0.003819	0.929375	0.168908
C69	C	0.064436	0.929370	0.168905
C70	C	0.116086	0.843743	0.112881
C71	C	0.930345	0.843748	0.112877
C72	C	0.994857	0.843749	0.112880
C73	C	0.757141	0.776064	0.332091
C74	C	0.762869	0.753093	0.406493
C75	C	0.772211	1.096811	0.146713
C76	C	0.783054	1.182699	0.158199
C77	C	0.693626	1.030811	0.840318
C78	C	0.688241	1.052396	0.770416
C79	C	0.706898	0.977572	0.679432
C80	C	0.730941	0.881159	0.658357
C81	C	0.736322	0.859572	0.728266
C82	C	0.749593	0.806334	0.567380
C83	C	0.773636	0.709920	0.546304
C84	C	0.779017	0.688337	0.616208
C85	C	0.760360	0.763161	0.707192
C86	C	0.744212	0.827921	0.497471
C87	C	0.786907	0.656682	0.385418
C88	C	0.792293	0.635097	0.455321
C89	C	0.723388	0.911429	0.893646
C90	C	0.717665	0.934400	0.819244
C91	C	0.898398	0.590684	0.079033
C92	C	0.952068	0.504796	0.067549
C93	C	0.691439	0.658364	-0.140198
C94	C	0.674869	0.595447	-0.226087
C95	C	0.881521	0.658366	-0.140189
C96	C	0.929462	0.595450	-0.226075
C97	C	0.599007	1.029127	0.365926
C98	C	0.551066	1.092043	0.451812
C99	C	0.582130	1.096809	0.146704
C100	C	0.528460	1.182696	0.158187
C101	C	0.789088	1.029128	0.365935
C102	C	0.805659	1.092045	0.451823
C103	C	0.943450	0.451244	0.104970
C104	C	0.993875	0.370550	0.094198
C105	C	1.052916	0.343406	0.045999
C106	C	1.061533	0.396967	0.008579
C107	C	1.011109	0.477663	0.019357
C108	C	0.700908	0.579120	-0.309234
C109	C	0.685336	0.520016	-0.389940
C110	C	0.643729	0.477235	-0.387498
C111	C	0.617687	0.493568	-0.304342
C112	C	0.633255	0.552677	-0.223636
C113	C	0.992395	0.552688	-0.223599
C114	C	1.037449	0.493580	-0.304289
C115	C	1.019568	0.477231	-0.387455
C116	C	0.956629	0.520000	-0.389929
C117	C	0.911577	0.579112	-0.309239
C118	C	0.488134	1.134815	0.449337
C119	C	0.443083	1.193948	0.530030
C120	C	0.460965	1.210301	0.613197
C121	C	0.523903	1.167527	0.615671
C122	C	0.568953	1.108401	0.534979
C123	C	0.537079	1.236255	0.120776
C124	C	0.486659	1.316965	0.131570
C125	C	0.427619	1.344111	0.179771
C126	C	0.419001	1.290548	0.217188
C127	C	0.469422	1.209843	0.206399
C128	C	0.847269	1.134809	0.449352
C129	C	0.862850	1.193917	0.530045
C130	C	0.836819	1.210267	0.613209
C131	C	0.795207	1.167496	0.615678
C132	C	0.779629	1.108383	0.534985
H133	H	0.811726	0.409807	0.188585
C134	C	0.316585	1.023546	0.230519
N135	N	0.273787	1.094483	0.276943
H136	H	0.391839	1.228766	0.527999
H137	H	0.802097	0.595754	0.311336
C138	C	0.888804	0.320371	0.270239
N139	N	0.926511	0.342845	0.310183
H140	H	0.473562	1.121503	0.381625
H141	H	1.018133	0.521259	-0.011122
H142	H	0.774015	1.180817	0.683402
C143	C	0.673104	1.113105	0.940398
N144	N	0.657646	1.175094	1.015783
H145	H	0.769845	0.473319	0.144214
C146	C	0.616880	0.232814	-0.017935
N147	N	0.579210	0.210291	-0.057945
C148	C	1.126481	0.367090	-0.044446
N149	N	1.175401	0.344579	-0.084390
H150	H	0.706548	0.506726	-0.457642
C151	C	0.700980	1.001320	0.602540
N152	N	0.696527	1.019212	0.544624
H153	H	0.857309	0.166215	0.236875
C154	C	0.163943	0.663941	-0.004778
N155	N	0.206736	0.592999	-0.051205
C156	C	0.661800	1.158447	0.793604
N157	N	0.641885	1.238331	0.811072
C158	C	0.496150	1.375866	0.090396
N159	N	0.503300	1.420225	0.059381
H160	H	0.942078	0.506680	-0.457654
C161	C	0.604613	0.570617	-0.132179
N162	N	0.583037	0.584124	-0.063294
C163	C	0.805455	0.582280	0.593020
N164	N	0.825368	0.502396	0.575554
C165	C	0.411400	1.275335	0.701953
N166	N	0.374064	1.324316	0.768800
C167	C	0.543562	1.185515	0.707163
N168	N	0.558367	1.199059	0.776076
H169	H	0.620195	1.073573	0.537004
H170	H	0.860334	0.613922	-0.311268
H171	H	0.693939	0.143412	0.063777
H172	H	0.441311	0.999092	0.214493
H173	H	0.585148	1.214162	0.081520
H174	H	0.849508	1.258403	0.678908
H175	H	0.386568	1.409828	0.188550
C176	C	-0.052998	1.023553	0.230538
N177	N	-0.095795	1.094492	0.276958
C178	C	1.012080	0.570665	-0.132123
N179	N	1.026913	0.584207	-0.063225
H180	H	0.811868	0.556597	0.438172
C181	C	1.108376	0.254629	0.034144
N182	N	1.150145	0.187759	0.025214
H183	H	0.071729	0.999085	0.214524
C184	C	0.878511	0.481089	0.157999
N185	N	0.829600	0.503567	0.197948
C186	C	0.766276	0.739422	0.784093
N187	N	0.770728	0.721545	0.842019
H188	H	0.986847	0.326949	0.124672
C189	C	0.746675	0.626176	-0.311941
N190	N	0.781144	0.661622	-0.313987
C191	C	0.626616	0.412206	-0.476286
N192	N	0.613732	0.363222	-0.543166
C193	C	0.354048	1.320410	0.270192
N194	N	0.305123	1.342899	0.310106
C195	C	0.571922	0.446496	-0.301672
N196	N	0.537454	0.411033	-0.299664
H197	H	0.604729	0.374857	-0.030727
H198	H	0.745745	1.073570	0.537011
H199	H	0.462395	1.166237	0.236863
C200	C	1.106677	0.446533	-0.301549
N201	N	1.158818	0.411096	-0.299483
C202	C	1.069133	0.412195	-0.476211
N203	N	1.106468	0.363206	-0.543059
H204	H	0.868470	1.121509	0.381643
H205	H	0.623207	0.521281	-0.011137
C206	C	0.406235	0.663942	-0.004782
N207	N	0.398811	0.592999	-0.051192
C208	C	0.908621	1.240961	0.527309
N209	N	0.943095	1.276394	0.525246
H210	H	0.518763	0.688404	0.011228
H211	H	0.724635	0.906422	0.514640
H212	H	0.039216	0.688414	0.011232
