data_functionalizedCrystal
_audit_creation_method	'MofGen! by Chris Wilmer'
_symmetry_space_group_name_H-M	'P1'
_symmetry_Int_Tables_number	1
_symmetry_cell_setting	triclinic
loop_
_symmetry_equiv_pos_as_xyz
  x,y,z
_cell_length_a	14.628931
_cell_length_b	14.628931
_cell_length_c	31.640172
_cell_angle_alpha	60.006625
_cell_angle_beta	90.004421
_cell_angle_gamma	60.000193
loop_
_atom_site_label
_atom_site_type_symbol
_atom_site_fract_x
_atom_site_fract_y
_atom_site_fract_z
Zr1	Zr	0.880616	1.000566	-0.055462
O2	O	0.734654	1.191253	-0.122943
O3	O	0.925361	0.809866	-0.034775
O4	O	0.925359	1.000548	-0.122943
O5	O	0.734658	1.000590	0.034773
O6	O	1.075791	1.000548	-0.122943
O7	O	0.734656	1.000571	-0.034775
O8	O	1.075795	0.659454	0.034773
O9	O	0.734654	1.341685	-0.122943
O10	O	1.056710	0.888309	-0.025953
O11	O	0.944446	0.888323	0.025950
O12	O	0.944444	1.112826	-0.077856
O13	O	0.832180	1.112839	-0.025953
Zr14	Zr	1.120541	1.000597	0.055459
Zr15	Zr	1.120537	1.000567	-0.055462
Zr16	Zr	0.880620	1.000596	0.055459
Zr17	Zr	0.880617	1.240487	-0.055462
Zr18	Zr	1.120540	0.760675	0.055459
O19	O	1.075796	1.191297	0.034773
O20	O	1.075791	1.191254	-0.122943
O21	O	0.734659	1.191296	0.034773
O22	O	1.266503	0.809910	0.122941
O23	O	1.266498	0.809867	-0.034776
O24	O	0.925366	0.809909	0.122941
O25	O	1.266499	1.000573	-0.034776
O26	O	1.075798	1.000615	0.122941
O27	O	0.925366	1.000615	0.122941
O28	O	1.266501	1.000592	0.034773
O29	O	0.925359	1.341685	-0.122943
O30	O	1.075798	0.659478	0.122941
O31	O	1.266503	0.659478	0.122941
O32	O	1.266500	0.659454	0.034773
O33	O	0.734657	1.341709	-0.034776
O34	O	0.925362	1.341709	-0.034776
O35	O	1.056713	0.888337	0.077853
O36	O	1.168977	0.888323	0.025950
O37	O	1.056711	1.112840	-0.025953
O38	O	0.944447	1.112854	0.025950
C39	C	1.000578	0.700476	-0.000001
C40	C	1.000578	0.598623	-0.000001
C41	C	1.056268	0.553207	-0.025749
C42	C	1.056269	0.447937	-0.025749
C43	C	0.700474	1.000581	-0.000001
C44	C	0.598621	1.000580	-0.000001
C45	C	0.503637	0.889207	0.025746
C46	C	0.608909	0.889205	0.025746
C47	C	1.300683	1.000582	-0.000002
C48	C	1.402536	1.000583	-0.000002
C49	C	1.000574	1.000544	-0.138747
C50	C	1.000573	1.000531	-0.185836
C51	C	1.000579	1.300687	-0.000002
C52	C	1.000579	1.402540	-0.000002
C53	C	0.941987	1.117789	-0.504964
C54	C	0.941988	1.117811	-0.681960
O55	O	0.892189	1.217483	-0.727887
N56	N	1.000588	1.000617	-0.676997
C57	C	1.059198	0.883408	-0.627781
O58	O	1.109050	0.783728	-0.627621
C59	C	1.059202	0.883387	-0.450786
C60	C	1.000589	1.000590	-0.455753
C61	C	0.883379	1.234982	-0.509929
C62	C	0.883375	1.234975	-0.465682
C63	C	0.941977	1.117775	-0.416471
C64	C	1.000584	1.000583	-0.411507
C65	C	1.117818	0.766180	-0.401571
C66	C	1.117816	0.766185	-0.357322
C67	C	1.059203	0.883387	-0.362289
C68	C	1.059182	0.883376	-0.318049
N69	N	1.000582	1.000571	-0.323012
C70	C	0.941980	1.117771	-0.372223
C71	C	1.059189	0.883428	-0.720707
C72	C	1.059187	0.883433	-0.764955
C73	C	0.941978	1.117836	-0.819132
C74	C	0.941975	1.117830	-0.774882
C75	C	1.000589	1.000622	-0.725670
C76	C	0.941974	1.117747	-0.279300
C77	C	0.941970	1.117730	-0.235047
C78	C	1.059183	0.883327	-0.180875
C79	C	1.059182	0.883344	-0.225124
C80	C	1.000575	1.000564	-0.274338
O81	O	1.108965	0.783758	-0.272106
O82	O	0.892155	1.217436	-0.372372
C83	C	0.941991	1.117796	-0.549211
C84	C	1.000599	1.000603	-0.544246
C85	C	1.059201	0.883404	-0.495035
C86	C	1.000596	1.000608	-0.588494
C87	C	0.941993	1.117807	-0.637706
C88	C	0.883394	1.235002	-0.642668
C89	C	0.883389	1.234995	-0.598422
C90	C	1.117801	0.766209	-0.490072
C91	C	1.117800	0.766225	-0.534321
C92	C	1.059197	0.883425	-0.583532
C93	C	1.000583	1.000619	0.138744
C94	C	1.000584	1.000632	0.185834
C95	C	1.300683	0.700477	-0.000001
C96	C	1.402536	0.598624	-0.000001
C97	C	1.000582	0.700514	0.138745
C98	C	1.000584	0.598674	0.185834
C99	C	1.300687	0.700515	0.138744
C100	C	1.402541	0.598675	0.185834
C101	C	0.700470	1.300648	-0.138747
C102	C	0.598616	1.402488	-0.185836
C103	C	0.700474	1.300686	-0.000001
C104	C	0.598621	1.402538	-0.000001
C105	C	1.000575	1.300649	-0.138747
C106	C	1.000573	1.402489	-0.185837
C107	C	1.059186	0.550856	0.235045
C108	C	1.059183	0.455180	0.279294
C109	C	1.000583	0.407317	0.274332
C110	C	0.941973	0.455144	0.225115
C111	C	0.941970	0.550825	0.180867
C112	C	1.508984	0.550843	0.180854
C113	C	1.604696	0.455167	0.225095
C114	C	1.593963	0.407318	0.274315
C115	C	1.487509	0.455160	0.279293
C116	C	1.391799	0.550841	0.235053
C117	C	0.492173	1.450332	-0.180857
C118	C	0.396461	1.546037	-0.225098
C119	C	0.407194	1.593891	-0.274318
C120	C	0.513648	1.546043	-0.279296
C121	C	0.609357	1.450346	-0.235056
C122	C	1.059185	1.450322	-0.180857
C123	C	1.059205	1.545999	-0.225098
C124	C	1.000607	1.593848	-0.274318
C125	C	0.941994	1.546005	-0.279296
C126	C	0.941981	1.450323	-0.235056
C127	C	1.392253	0.553208	-0.025749
C128	C	1.497521	0.447938	-0.025749
H129	H	0.952903	0.559568	0.022043
H130	H	0.511894	1.095938	-0.022045
H131	H	1.000595	0.329407	0.310366
Cl132	Cl	0.262648	1.606164	-0.218827
H133	H	1.103943	0.408886	-0.047795
Cl134	Cl	0.389214	1.147805	-0.034039
H135	H	1.165526	0.670778	-0.530268
Cl136	Cl	0.868294	1.265112	-0.341162
H137	H	1.517744	0.589787	0.140781
H138	H	1.305515	0.592265	-0.047794
Cl139	Cl	0.868271	1.265081	-0.241297
H140	H	1.488892	0.408877	-0.047791
Cl141	Cl	0.868298	0.610919	0.119003
Cl142	Cl	1.611958	0.462824	0.034037
Cl143	Cl	1.474035	0.394992	0.341174
H144	H	1.489273	0.559577	0.022039
Cl145	Cl	0.809667	1.382323	-0.471935
Cl146	Cl	0.286861	1.714196	-0.329930
H147	H	1.106934	1.584942	-0.221035
Cl148	Cl	0.516959	0.741985	0.059778
Cl149	Cl	0.742813	0.741980	0.059785
H150	H	1.000627	1.671758	-0.310337
H151	H	1.671905	0.329409	0.310334
H152	H	0.835659	1.330425	-0.549996
Cl153	Cl	0.868294	1.265175	-0.781132
Cl154	Cl	1.257990	0.610953	0.241322
H155	H	0.952893	0.441596	0.022040
H156	H	0.894257	1.213265	-0.859208
H157	H	1.103952	0.592252	-0.047790
Cl158	Cl	1.132856	0.736086	-0.758704
H159	H	1.165549	0.670741	-0.397517
Cl160	Cl	1.132859	0.736065	-0.658843
H161	H	1.165549	0.670738	-0.317252
Cl162	Cl	1.132856	0.736002	-0.218880
Cl163	Cl	1.132849	0.735999	-0.119003
Cl164	Cl	0.478651	1.390192	-0.118986
Cl165	Cl	0.809692	1.382344	-0.604674
H166	H	0.522374	1.585018	-0.319376
H167	H	0.835671	1.330430	-0.682745
H168	H	1.165525	0.670769	-0.450005
Cl169	Cl	1.132875	0.395070	0.341160
H170	H	1.106906	0.589816	0.239096
H171	H	1.691366	0.416224	0.221032
Cl172	Cl	0.868313	0.394956	0.218885
Cl173	Cl	0.743167	1.390201	-0.241325
Cl174	Cl	1.132862	1.390188	-0.118986
Cl175	Cl	0.868321	1.606184	-0.341177
H176	H	0.894248	1.411388	-0.239117
