data_functionalizedCrystal
_audit_creation_method	'MofGen! by Chris Wilmer'
_symmetry_space_group_name_H-M	'P1'
_symmetry_Int_Tables_number	1
_symmetry_cell_setting	triclinic
loop_
_symmetry_equiv_pos_as_xyz
  x,y,z
_cell_length_a	10.489741
_cell_length_b	16.992695
_cell_length_c	16.053934
_cell_angle_alpha	92.750093
_cell_angle_beta	87.405329
_cell_angle_gamma	87.603698
loop_
_atom_site_label
_atom_site_type_symbol
_atom_site_fract_x
_atom_site_fract_y
_atom_site_fract_z
O1	O	-1.698652	-0.113957	-0.069378
O2	O	-1.328359	-0.124348	-0.069391
O3	O	-1.512022	-0.005001	-0.069378
O4	O	-1.514989	-0.233304	-0.069391
O5	O	-1.522074	0.001545	0.069479
O6	O	-1.338412	-0.117801	0.069466
O7	O	-1.708705	-0.107411	0.069479
Zn8	Zn	-1.525155	-0.111567	0.091519
Zn9	Zn	-1.511909	-0.120192	-0.091431
O10	O	-1.525042	-0.226757	0.069466
C11	C	-1.285786	-0.120290	0.000036
C12	C	-1.143951	-0.117942	0.000031
C13	C	-1.513229	0.027506	0.000051
C14	C	-1.501833	0.114615	0.000050
C15	C	-1.751278	-0.111469	0.000051
C16	C	-1.893112	-0.113817	0.000050
C17	C	-1.069206	-0.042005	0.000044
C18	C	-0.975243	-0.081105	-0.068420
C19	C	-0.985190	-0.074669	0.068482
C20	C	-1.051853	-0.157076	-0.068489
C21	C	-1.061813	-0.150626	0.068474
C22	C	-0.967881	-0.189781	-0.000006
C23	C	-1.523835	-0.259265	0.000036
C24	C	-1.535230	-0.346374	0.000031
N25	N	-1.534203	-0.105680	0.216378
C26	C	-1.611783	0.164234	0.000055
C27	C	-1.601068	0.246081	0.000047
C28	C	-1.480402	0.278307	0.000039
C29	C	-1.370444	0.228680	0.000032
C30	C	-1.381160	0.146835	0.000035
C31	C	-1.435988	0.522155	0.000026
C32	C	-1.425280	0.604007	0.000027
C33	C	-1.655905	0.621402	0.000039
C34	C	-1.666611	0.539554	0.000047
C35	C	-1.556653	0.489935	0.000035
N36	N	-1.469447	0.361967	0.000034
N37	N	-1.567609	0.406276	0.000035
N38	N	-1.502870	-0.126073	-0.216289
C39	C	-1.456037	-0.156443	0.260087
C40	C	-1.462403	-0.152321	0.347492
C41	C	-1.546931	-0.097433	0.391187
C42	C	-1.625106	-0.046667	0.347472
C43	C	-1.618745	-0.050793	0.260068
C44	C	-1.574684	-0.079433	0.652592
C45	C	-1.581037	-0.075310	0.740002
C46	C	-1.418335	-0.180965	0.740016
C47	C	-1.411976	-0.185083	0.652610
C48	C	-1.490156	-0.134320	0.608903
N49	N	-1.553438	-0.093217	0.480530
N50	N	-1.483654	-0.138540	0.519562
H51	H	-1.113459	0.020415	-0.000038
H52	H	-1.327016	0.630242	0.000034
H53	H	-1.346451	0.481764	0.000017
N54	N	-1.369710	-0.212513	0.215445
N55	N	-1.364042	-0.216193	0.137406
H56	H	-1.303075	-0.255796	0.105878
H57	H	-1.272195	0.254925	0.000021
N58	N	-1.698586	0.001081	0.215439
N59	N	-1.776826	-0.026548	0.166657
H60	H	-1.833219	0.010098	0.135149
N61	N	-1.268835	0.096157	0.000019
N62	N	-1.161104	0.124937	0.000008
H63	H	-1.081769	0.089147	-0.000009
N64	N	-1.768216	0.672086	0.000027
N65	N	-1.842377	0.666004	-0.058506
H66	H	-1.921702	0.701799	-0.058519
N67	N	-0.912660	-0.268166	-0.000036
N68	N	-0.940643	-0.311541	0.058187
H69	H	-0.901631	-0.366898	0.058165
N70	N	-0.927591	-0.044218	-0.141031
N71	N	-0.961719	0.025482	-0.153230
H72	H	-0.928074	0.051537	-0.204511
N73	N	-1.382564	-0.204190	0.392127
N74	N	-1.307102	-0.253196	0.353104
H75	H	-1.250716	-0.289834	0.384626
H76	H	-1.343147	-0.229777	0.617036
N77	N	-1.338488	-0.232808	0.784675
N78	N	-1.344173	-0.229119	0.862714
H79	H	-1.287780	-0.265736	0.894256
H80	H	-1.638339	-0.038099	0.617012
N81	N	-1.088775	-0.200794	-0.141169
N82	N	-1.204400	-0.209639	-0.152915
H83	H	-1.230480	-0.240519	-0.204242
H84	H	-1.649873	-0.030610	0.775574
N85	N	-1.711462	0.009385	0.392116
N86	N	-1.717137	0.013059	0.470154
H87	H	-1.778130	0.052646	0.501684
H88	H	-1.099842	-0.180001	0.126356
H89	H	-1.710042	0.138004	0.000066
H90	H	-0.955606	-0.039796	0.126363
N91	N	-1.713397	0.296752	0.000063
N92	N	-1.796031	0.296195	0.058603
H93	H	-1.875372	0.331979	0.058614
N94	N	-1.789879	0.506652	0.000055
N95	N	-1.888041	0.550965	0.000057
H96	H	-1.975102	0.527729	0.000065
