data_functionalizedCrystal
_audit_creation_method	'MofGen! by Chris Wilmer'
_symmetry_space_group_name_H-M	'P1'
_symmetry_Int_Tables_number	1
_symmetry_cell_setting	triclinic
loop_
_symmetry_equiv_pos_as_xyz
  x,y,z
_cell_length_a	14.628931
_cell_length_b	17.052862
_cell_length_c	14.628931
_cell_angle_alpha	90.000017
_cell_angle_beta	60.000000
_cell_angle_gamma	50.259347
loop_
_atom_site_label
_atom_site_type_symbol
_atom_site_fract_x
_atom_site_fract_y
_atom_site_fract_z
Zr1	Zr	0.679068	0.914390	0.040792
O2	O	0.923064	0.762831	-0.131814
O3	O	0.472025	0.960852	0.093706
O4	O	0.662731	0.960851	-0.097001
O5	O	0.732358	0.762832	0.209324
O6	O	0.607809	1.117052	-0.069540
O7	O	0.732358	0.762831	0.058892
O8	O	0.266670	1.117054	0.271599
O9	O	1.073497	0.762830	-0.131814
O10	O	0.502510	1.097238	0.136766
O11	O	0.543498	0.980667	0.228538
O12	O	0.768030	0.980666	0.004006
O13	O	0.809018	0.864095	0.095778
Zr14	Zr	0.591472	1.163514	0.324511
Zr15	Zr	0.591472	1.163514	0.084589
Zr16	Zr	0.679067	0.914391	0.280714
Zr17	Zr	0.918990	0.914390	0.040792
Zr18	Zr	0.351550	1.163515	0.324512
O19	O	0.798515	1.117053	0.271598
O20	O	0.798515	1.117052	-0.069540
O21	O	0.923064	0.762831	0.209324
O22	O	0.347476	1.315074	0.497117
O23	O	0.347476	1.315073	0.155980
O24	O	0.472025	0.960852	0.434843
O25	O	0.538182	1.315073	0.155979
O26	O	0.607808	1.117053	0.462304
O27	O	0.662731	0.960852	0.434843
O28	O	0.538182	1.315073	0.306411
O29	O	1.003870	0.960850	-0.097001
O30	O	0.266670	1.117054	0.462305
O31	O	0.197043	1.315074	0.497118
O32	O	0.197043	1.315074	0.306412
O33	O	1.073496	0.762831	0.058891
O34	O	1.003870	0.960850	0.093704
O35	O	0.502510	1.097238	0.361297
O36	O	0.461522	1.213810	0.269526
O37	O	0.727042	1.097237	0.136765
O38	O	0.768030	0.980666	0.228537
C39	C	0.335164	1.038953	0.182652
C40	C	0.233311	1.038953	0.182653
C41	C	0.295416	0.957173	0.089516
C42	C	0.190148	0.957171	0.089514
C43	C	0.744838	0.727337	0.127868
C44	C	0.782025	0.621577	0.109275
C45	C	0.332439	0.566863	0.334063
C46	C	0.297495	0.666231	0.351528
C47	C	0.418624	0.655073	0.290967
C48	C	0.574704	0.544536	0.212937
C49	C	0.609651	0.445158	0.195463
C50	C	0.695836	0.533368	0.152366
C51	C	0.851915	0.422831	0.074336
C52	C	0.886856	0.323464	0.056867
C53	C	0.765727	0.334622	0.117428
C54	C	0.660889	0.632746	0.169840
C55	C	0.938101	0.511041	0.031240
C56	C	0.973044	0.411673	0.013775
C57	C	0.935376	1.038951	0.182651
C58	C	1.037229	1.038951	0.182651
C59	C	0.635270	1.038951	-0.117454
C60	C	0.635270	1.038951	-0.219307
C61	C	0.525701	1.350567	0.237435
C62	C	0.488515	1.456327	0.256028
C63	C	0.664025	0.957173	-0.384358
C64	C	0.664025	0.957171	-0.279088
C65	C	0.635270	1.038953	0.482757
C66	C	0.635270	1.038953	0.584610
C67	C	0.225595	1.350568	0.237436
C68	C	0.086556	1.456328	0.256029
C69	C	0.335164	1.038953	0.482758
C70	C	0.233310	1.038954	0.584611
C71	C	0.225595	1.350569	0.537541
C72	C	0.086555	1.456329	0.657988
C73	C	1.044945	0.727335	-0.172238
C74	C	1.183985	0.621576	-0.292685
C75	C	1.044944	0.727336	0.127867
C76	C	1.183984	0.621577	0.109274
C77	C	0.935376	1.038951	-0.117455
C78	C	1.037230	1.038950	-0.219308
C79	C	0.042656	1.445144	0.195452
C80	C	-0.087970	1.544507	0.212898
C81	C	-0.174701	1.655052	0.290929
C82	C	-0.130792	1.666233	0.351508
C83	C	-0.000161	1.566872	0.334055
C84	C	-0.000138	1.566854	0.666649
C85	C	-0.130771	1.666236	0.779813
C86	C	-0.174714	1.655090	0.884315
C87	C	-0.088007	1.544553	0.875650
C88	C	0.042630	1.445174	0.762487
C89	C	1.270690	0.511050	-0.301345
C90	C	1.401352	0.411668	-0.414510
C91	C	1.445300	0.422814	-0.519012
C92	C	1.358587	0.533351	-0.510347
C93	C	1.227934	0.632731	-0.397184
C94	C	1.227893	0.632760	0.169841
C95	C	1.358546	0.533397	0.152369
C96	C	1.445281	0.422852	0.074334
C97	C	1.401367	0.411671	0.013760
C98	C	1.270723	0.511033	0.031227
C99	C	0.167568	1.096781	0.695878
C100	C	0.062297	1.096783	0.801150
H101	H	0.102206	1.108968	0.262388
Br102	Br	0.705078	0.840459	-0.234534
Br103	Br	1.418110	0.548599	0.234590
Br104	Br	0.594252	1.155651	-0.263873
H105	H	1.472005	0.321652	-0.049776
Br106	Br	0.371199	0.789933	0.314670
Br107	Br	0.513929	0.840476	-0.043397
Br108	Br	1.519006	0.261669	-0.426241
Br109	Br	0.160267	1.295178	0.750754
H110	H	-0.123701	1.535381	0.163564
H111	H	0.170415	0.756225	0.415047
Br112	Br	-0.351984	1.789890	0.314602
Br113	Br	0.168069	0.581995	0.416231
Br114	Br	1.211075	0.495892	-0.159538
H115	H	0.035563	1.575994	0.383393
Br116	Br	0.813145	0.199762	0.093744
Br117	Br	0.131302	0.956443	0.621639
H118	H	1.551690	0.341883	-0.611150
Br119	Br	1.098677	0.173450	-0.049043
Br120	Br	1.110212	0.782773	0.275749
H121	H	1.394387	0.542412	-0.595447
H122	H	0.688635	0.887162	-0.435719
Br123	Br	-0.147664	1.529447	1.017488
Br124	Br	0.160341	1.295131	0.089542
Br125	Br	-0.248519	1.816269	0.457407
H126	H	-0.281090	1.736021	0.976453
H127	H	0.035618	1.575951	0.581570
H128	H	1.100125	0.321661	-0.049759
H129	H	1.157338	0.722723	-0.390146
Br130	Br	1.622581	0.288014	0.050643
Br131	Br	1.102500	0.495887	-0.050973
H132	H	1.234981	0.501911	-0.018094
H133	H	0.610643	1.108971	-0.364020
Br134	Br	0.203659	1.179289	0.724766
H135	H	0.243145	0.887153	0.009778
Br136	Br	-0.031815	1.179317	0.960215
H137	H	-0.015776	1.108966	0.262396
H138	H	0.533807	0.722739	0.233381
H139	H	0.211666	0.989442	0.567286
H140	H	-0.201357	1.756231	0.786847
