data_functionalizedCrystal
_audit_creation_method	'MofGen! by Chris Wilmer'
_symmetry_space_group_name_H-M	'P1'
_symmetry_Int_Tables_number	1
_symmetry_cell_setting	triclinic
loop_
_symmetry_equiv_pos_as_xyz
  x,y,z
_cell_length_a	25.639242
_cell_length_b	25.639239
_cell_length_c	19.805399
_cell_angle_alpha	89.971274
_cell_angle_beta	89.972605
_cell_angle_gamma	90.034213
loop_
_atom_site_label
_atom_site_type_symbol
_atom_site_fract_x
_atom_site_fract_y
_atom_site_fract_z
Zn1	Zn	0.799252	-0.208225	-0.382855
Zn2	Zn	1.299252	0.291775	0.117145
Zn3	Zn	0.799168	-0.295659	-0.269665
Zn4	Zn	1.299168	0.204341	0.230335
Zn5	Zn	0.711820	-0.208233	-0.269665
Zn6	Zn	1.211820	0.291767	0.230335
Zn7	Zn	0.711773	-0.295625	-0.382796
Zn8	Zn	1.211773	0.204375	0.117204
O9	O	0.755503	-0.251936	-0.326245
O10	O	1.255503	0.248064	0.173755
O11	O	0.872406	-0.219835	-0.367865
O12	O	1.372406	0.280165	0.132135
O13	O	0.787565	-0.284080	-0.174948
O14	O	1.287565	0.215920	0.325052
O15	O	0.723473	-0.135067	-0.284704
O16	O	1.223473	0.364933	0.215296
O17	O	0.872344	-0.284072	-0.284705
O18	O	1.372344	0.215928	0.215295
O19	O	0.787709	-0.135061	-0.367865
O20	O	1.287709	0.364939	0.132135
O21	O	0.723391	-0.219848	-0.174948
O22	O	1.223391	0.280152	0.325052
O23	O	0.638649	-0.219814	-0.284647
O24	O	1.138649	0.280186	0.215353
O25	O	0.723393	-0.284013	-0.477521
O26	O	1.223393	0.215987	0.022479
O27	O	0.638615	-0.284021	-0.367764
O28	O	1.138615	0.215979	0.132236
O29	O	0.787664	-0.219801	-0.477564
O30	O	1.287664	0.280199	0.022436
O31	O	0.787520	-0.368820	-0.284647
O32	O	1.287520	0.131180	0.215353
O33	O	0.723311	-0.368794	-0.367764
O34	O	1.223311	0.131206	0.132236
C35	C	0.619661	-0.251915	-0.326199
C36	C	1.119661	0.248085	0.173801
C37	C	0.561547	-0.251919	-0.326196
C38	C	1.061547	0.248081	0.173804
C39	C	0.201175	-0.285424	-0.369483
C40	C	0.701175	0.214576	0.130517
C41	C	0.146570	-0.285427	-0.369494
C42	C	0.646570	0.214573	0.130506
O43	O	0.118326	-0.313888	-0.406260
O44	O	0.618326	0.186112	0.093740
N45	N	0.119264	-0.251950	-0.326289
N46	N	0.619264	0.248050	0.173711
C47	C	0.146565	-0.218464	-0.283076
C48	C	0.646565	0.281536	0.216924
O49	O	0.118326	-0.189989	-0.246329
O50	O	0.618326	0.310011	0.253671
C51	C	0.201169	-0.218458	-0.283069
C52	C	0.701169	0.281542	0.216931
C53	C	0.228472	-0.251941	-0.326272
C54	C	0.728472	0.248059	0.173728
C55	C	0.228478	-0.318903	-0.412683
C56	C	0.728478	0.181097	0.087317
C57	C	0.283078	-0.318901	-0.412671
C58	C	0.783078	0.181099	0.087329
C59	C	0.310376	-0.285418	-0.369460
C60	C	0.810376	0.214582	0.130540
C61	C	0.283072	-0.251939	-0.326260
C62	C	0.783072	0.248061	0.173740
C63	C	0.228469	-0.184970	-0.239860
C64	C	0.728469	0.315030	0.260140
C65	C	0.283076	-0.184967	-0.239857
C66	C	0.783076	0.315033	0.260143
C67	C	0.310379	-0.218450	-0.283060
C68	C	0.810379	0.281550	0.216940
C69	C	0.364970	-0.218454	-0.283037
C70	C	0.864970	0.281546	0.216963
N71	N	0.392276	-0.251931	-0.326242
N72	N	0.892276	0.248069	0.173758
C73	C	0.364979	-0.285413	-0.369453
C74	C	0.864979	0.214587	0.130547
C75	C	0.031895	-0.218477	-0.283094
C76	C	0.531895	0.281523	0.216906
C77	C	-0.022708	-0.218485	-0.283097
C78	C	0.477292	0.281515	0.216903
C79	C	-0.022699	-0.285447	-0.369516
C80	C	0.477301	0.214553	0.130484
C81	C	0.031904	-0.285442	-0.369510
C82	C	0.531904	0.214558	0.130490
C83	C	0.059201	-0.251954	-0.326299
C84	C	0.559201	0.248046	0.173701
C85	C	0.479644	-0.285405	-0.369425
C86	C	0.979644	0.214595	0.130575
C87	C	0.534249	-0.285401	-0.369407
C88	C	1.034249	0.214599	0.130593
C89	C	0.534236	-0.218437	-0.282991
C90	C	1.034236	0.281563	0.217009
C91	C	0.479635	-0.218443	-0.283006
C92	C	0.979635	0.281557	0.216994
C93	C	0.452341	-0.251929	-0.326228
C94	C	0.952341	0.248071	0.173772
O95	O	0.393249	-0.190005	-0.246292
O96	O	0.893249	0.309995	0.253708
O97	O	0.393226	-0.313878	-0.406201
O98	O	0.893226	0.186122	0.093799
C99	C	0.755415	-0.387778	-0.326214
C100	C	1.255415	0.112222	0.173786
C101	C	0.755426	-0.445892	-0.326224
C102	C	1.255426	0.054108	0.173776
C103	C	0.789024	-0.806256	-0.283040
C104	C	1.289024	-0.306256	0.216960
C105	C	0.789044	-0.860860	-0.283049
C106	C	1.289044	-0.360860	0.216951
O107	O	0.817519	-0.889097	-0.246299
O108	O	1.317519	-0.389097	0.253701
N109	N	0.755595	-0.888175	-0.326290
N110	N	1.255595	-0.388175	0.173710
C111	C	0.722128	-0.860882	-0.369530
C112	C	1.222128	-0.360882	0.130470
O113	O	0.693679	-0.889129	-0.406311
O114	O	1.193679	-0.389129	0.093689
C115	C	0.722111	-0.806279	-0.369524
C116	C	1.222111	-0.306279	0.130476
C117	C	0.755558	-0.778967	-0.326275
C118	C	1.255558	-0.278967	0.173725
C119	C	0.822469	-0.778944	-0.239795
C120	C	1.322469	-0.278944	0.260205
C121	C	0.822448	-0.724344	-0.239786
C122	C	1.322448	-0.224344	0.260214
C123	C	0.788982	-0.697055	-0.283020
C124	C	1.288982	-0.197055	0.216980
C125	C	0.755537	-0.724366	-0.326265
C126	C	1.255537	-0.224366	0.173735
C127	C	0.688646	-0.778987	-0.412766
C128	C	1.188646	-0.278987	0.087234
C129	C	0.688632	-0.724380	-0.412757
C130	C	1.188632	-0.224380	0.087243
C131	C	0.722079	-0.697068	-0.369508
C132	C	1.222079	-0.197068	0.130492
C133	C	0.722050	-0.642477	-0.369490
C134	C	1.222050	-0.142477	0.130510
N135	N	0.755498	-0.615163	-0.326249
N136	N	1.255498	-0.115163	0.173751
C137	C	0.788964	-0.642451	-0.283014
C138	C	1.288964	-0.142451	0.216986
C139	C	0.722167	-0.975552	-0.369540
C140	C	1.222167	-0.475552	0.130460
C141	C	0.722181	-1.030155	-0.369544
C142	C	1.222181	-0.530155	0.130456
C143	C	0.789098	-1.030129	-0.283063
C144	C	1.289098	-0.530129	0.216937
C145	C	0.789081	-0.975526	-0.283057
C146	C	1.289081	-0.475526	0.216943
C147	C	0.755616	-0.948238	-0.326299
C148	C	1.255616	-0.448238	0.173701
C149	C	0.788917	-0.527786	-0.282997
C150	C	1.288917	-0.027786	0.217003
C151	C	0.788892	-0.473181	-0.282989
C152	C	1.288892	0.026819	0.217011
C153	C	0.721977	-0.473211	-0.369471
C154	C	1.221977	0.026789	0.130529
C155	C	0.722000	-0.527812	-0.369477
C156	C	1.222000	-0.027812	0.130523
C157	C	0.755475	-0.555098	-0.326237
C158	C	1.255475	-0.055098	0.173763
O159	O	0.693591	-0.614205	-0.406224
O160	O	1.193591	-0.114205	0.093776
O161	O	0.817413	-0.614198	-0.246246
O162	O	1.317413	-0.114198	0.253754
C163	C	0.891876	-0.251957	-0.326292
C164	C	1.391876	0.248043	0.173708
C165	C	0.949990	-0.251966	-0.326312
C166	C	1.449990	0.248034	0.173688
C167	C	0.755533	-0.251903	-0.502788
C168	C	1.255533	0.248097	-0.002788
C169	C	0.755545	-0.251889	-0.578020
C170	C	1.255545	0.248111	-0.078020
C171	C	0.755606	-0.115562	-0.326291
C172	C	1.255606	0.384438	0.173709
C173	C	0.755650	-0.057448	-0.326311
C174	C	1.255650	0.442552	0.173689
C175	C	0.789011	-0.218452	-0.613388
C176	C	1.289011	0.281548	-0.113388
C177	C	0.789017	-0.218437	-0.684077
C178	C	1.289017	0.281563	-0.184077
C179	C	0.755558	-0.251861	-0.719396
C180	C	1.255558	0.248139	-0.219396
C181	C	0.722088	-0.285300	-0.684023
C182	C	1.222088	0.214700	-0.184023
C183	C	0.722081	-0.285312	-0.613336
C184	C	1.222081	0.214688	-0.113336
C185	C	0.722118	-0.285251	-0.969096
C186	C	1.222118	0.214749	-0.469096
C187	C	0.722129	-0.285237	-1.039789
C188	C	1.222129	0.214763	-0.539789
C189	C	0.789054	-0.218376	-1.039837
C190	C	1.289054	0.281624	-0.539837
C191	C	0.789046	-0.218388	-0.969150
C192	C	1.289046	0.281612	-0.469150
C193	C	0.755575	-0.251824	-0.933783
C194	C	1.255575	0.248176	-0.433783
C195	C	0.755569	-0.251839	-0.857135
C196	C	1.255569	0.248161	-0.357135
C197	C	0.755567	-0.251849	-0.796043
C198	C	1.255567	0.248151	-0.296043
C199	C	0.755504	-0.251931	-0.150389
C200	C	1.255504	0.248069	0.349611
C201	C	0.755593	-0.251797	-0.075158
C202	C	1.255593	0.248203	0.424842
H203	H	0.556471	-0.191178	-0.247807
H204	H	1.056471	0.308822	0.252193
C205	C	0.696665	-1.046928	-0.484122
C206	C	1.196665	-0.546928	0.015878
C207	C	0.685412	-1.060173	-0.417080
C208	C	1.185412	-0.560173	0.082920
H209	H	0.673968	-1.065461	-0.513471
H210	H	1.173968	-0.565461	-0.013471
H211	H	0.691864	-1.010506	-0.490294
H212	H	1.191864	-0.510506	0.009706
H213	H	0.731794	-1.055842	-0.494070
H214	H	1.231794	-0.555842	0.005930
H215	H	0.650285	-1.051255	-0.407130
H216	H	1.150285	-0.551255	0.092870
H217	H	0.690209	-1.096602	-0.410904
H218	H	1.190209	-0.596602	0.089096
H219	H	0.694844	-0.312513	-0.712786
H220	H	1.194844	0.187487	-0.212786
C221	C	0.714828	-0.914118	-0.460578
C222	C	1.214828	-0.414118	0.039422
C223	C	0.685373	-0.945560	-0.417070
C224	C	1.185373	-0.445560	0.082930
H225	H	0.692113	-0.895608	-0.489923
H226	H	1.192113	-0.395608	0.010077
H227	H	0.734738	-0.890035	-0.434828
H228	H	1.234738	-0.390035	0.065172
H229	H	0.737602	-0.935392	-0.486499
H230	H	1.237602	-0.435392	0.013501
H231	H	0.662601	-0.924286	-0.391145
H232	H	1.162601	-0.424286	0.108855
H233	H	0.665454	-0.969646	-0.442823
H234	H	1.165454	-0.469646	0.057177
C235	C	0.818903	-1.113826	-0.244770
C236	C	1.318903	-0.613826	0.255230
C237	C	0.825933	-1.060133	-0.235598
C238	C	1.325933	-0.560133	0.264402
H239	H	0.841656	-1.132348	-0.215487
H240	H	1.341656	-0.632348	0.284513
H241	H	0.783799	-1.122830	-0.234760
H242	H	1.283799	-0.622830	0.265240
H243	H	0.826494	-1.122714	-0.290282
H244	H	1.326494	-0.622714	0.209718
H245	H	0.818338	-1.051244	-0.190087
H246	H	1.318338	-0.551244	0.309913
H247	H	0.861044	-1.051125	-0.245603
H248	H	1.361044	-0.551125	0.254397
H249	H	0.661407	-0.801215	-0.447981
H250	H	1.161407	-0.301215	0.052019
H251	H	0.816317	-0.953292	-0.247841
H252	H	1.316317	-0.453292	0.252159
H253	H	0.816259	-0.191235	-0.584636
H254	H	1.316259	0.308765	-0.084636
H255	H	0.457427	-0.312671	-0.404622
H256	H	0.957427	0.187329	0.095378
H257	H	0.849723	-0.801157	-0.204588
H258	H	1.349723	-0.301157	0.295412
H259	H	0.661381	-0.702165	-0.447972
H260	H	1.161381	-0.202165	0.052028
H261	H	0.694766	-0.550050	-0.404696
H262	H	1.194766	-0.050050	0.095304
H263	H	0.816128	-0.450946	-0.247768
H264	H	1.316128	0.049054	0.252232
C265	C	0.167064	-0.177628	-0.148803
C266	C	0.667064	0.322372	0.351197
C267	C	0.198480	-0.148174	-0.192342
C268	C	0.698480	0.351826	0.307658
H269	H	0.148558	-0.154912	-0.119455
H270	H	0.648558	0.345088	0.380545
H271	H	0.142976	-0.197551	-0.174531
H272	H	0.642976	0.302449	0.325469
H273	H	0.188354	-0.200391	-0.122886
H274	H	0.688354	0.299609	0.377114
H275	H	0.177190	-0.125413	-0.218262
H276	H	0.677190	0.374587	0.281738
H277	H	0.222570	-0.128242	-0.166611
H278	H	0.722570	0.371758	0.333389
H279	H	0.054131	-0.312706	-0.404690
H280	H	0.554131	0.187294	0.095310
H281	H	0.694824	-0.312534	-0.584540
H282	H	1.194824	0.187466	-0.084540
C283	C	0.692247	-0.389514	-0.407854
C284	C	1.192247	0.110486	0.092146
C285	C	0.685195	-0.443208	-0.416997
C286	C	1.185195	0.056792	0.083003
H287	H	0.669543	-0.370992	-0.437201
H288	H	1.169543	0.129008	0.062799
H289	H	0.684609	-0.380599	-0.362371
H290	H	1.184609	0.119401	0.137629
H291	H	0.727373	-0.380537	-0.417802
H292	H	1.227373	0.119463	0.082198
H293	H	0.650070	-0.452186	-0.407044
H294	H	1.150070	0.047814	0.092956
H295	H	0.692830	-0.452127	-0.462490
H296	H	1.192830	0.047873	0.037510
C297	C	0.855178	-0.152355	-0.677024
C298	C	1.355178	0.347645	-0.177024
C299	C	0.825808	-0.181685	-0.722953
C300	C	1.325808	0.318315	-0.222953
H301	H	0.877894	-0.129668	-0.701026
H302	H	1.377894	0.370332	-0.201026
H303	H	0.832412	-0.132355	-0.649453
H304	H	1.332412	0.367645	-0.149453
H305	H	0.875153	-0.175151	-0.649454
H306	H	1.375153	0.324849	-0.149454
H307	H	0.805829	-0.158889	-0.750521
H308	H	1.305829	0.341111	-0.250521
H309	H	0.848576	-0.201686	-0.750536
H310	H	1.348576	0.298314	-0.250536
C311	C	-0.039475	-0.311031	-0.484077
C312	C	0.460525	0.188969	0.015923
C313	C	-0.052709	-0.322250	-0.417022
C314	C	0.447291	0.177750	0.082978
H315	H	-0.058001	-0.333753	-0.513401
H316	H	0.441999	0.166247	-0.013401
H317	H	-0.048400	-0.275916	-0.494058
H318	H	0.451600	0.224084	0.005942
H319	H	-0.003047	-0.315824	-0.490248
H320	H	0.496953	0.184176	0.009752
H321	H	-0.089137	-0.317453	-0.410849
H322	H	0.410863	0.182547	0.089151
H323	H	-0.043787	-0.357374	-0.407037
H324	H	0.456213	0.142626	0.092963
H325	H	0.816294	-0.191172	-0.940396
H326	H	1.316294	0.308828	-0.440396
C327	C	0.093325	-0.148124	-0.273826
C328	C	0.593325	0.351876	0.226174
C329	C	0.061896	-0.181670	-0.235584
C330	C	0.561896	0.318330	0.264416
H331	H	0.111841	-0.125400	-0.244495
H332	H	0.611841	0.374600	0.255505
H333	H	0.117404	-0.168058	-0.299546
H334	H	0.617404	0.331942	0.200454
H335	H	0.072042	-0.128159	-0.303366
H336	H	0.572042	0.371841	0.196634
H337	H	0.083179	-0.201638	-0.206049
H338	H	0.583179	0.298362	0.293951
H339	H	0.037814	-0.161734	-0.209853
H340	H	0.537814	0.338266	0.290147
C341	C	0.651774	-0.292508	-0.889577
C342	C	1.151774	0.207492	-0.389577
C343	C	0.685330	-0.322002	-0.930220
C344	C	1.185330	0.177998	-0.430220
H345	H	0.629060	-0.315198	-0.865576
H346	H	1.129060	0.184802	-0.365576
H347	H	0.671701	-0.272607	-0.858434
H348	H	1.171701	0.227393	-0.358434
H349	H	0.631797	-0.269724	-0.917163
H350	H	1.131797	0.230276	-0.417163
H351	H	0.705309	-0.344784	-0.902633
H352	H	1.205309	0.155216	-0.402633
H353	H	0.665401	-0.341912	-0.961367
H354	H	1.165401	0.158088	-0.461367
H355	H	0.816306	-0.191148	-1.068641
H356	H	1.316306	0.308852	-0.568641
H357	H	0.694881	-0.312457	-1.068544
H358	H	1.194881	0.187543	-0.568544
H359	H	0.305304	-0.346165	-0.447853
H360	H	0.805304	0.153835	0.052147
C361	C	0.551101	-0.310984	-0.483960
C362	C	1.051101	0.189016	0.016040
C363	C	0.564261	-0.322205	-0.416902
C364	C	1.064261	0.177795	0.083098
H365	H	0.569630	-0.333702	-0.513280
H366	H	1.069630	0.166298	-0.013280
H367	H	0.514678	-0.315777	-0.490144
H368	H	1.014678	0.184223	0.009856
H369	H	0.560078	-0.275863	-0.493937
H370	H	1.060078	0.224137	0.006063
H371	H	0.555281	-0.357325	-0.406925
H372	H	1.055281	0.142675	0.093075
H373	H	0.600692	-0.317416	-0.410715
H374	H	1.100692	0.182584	0.089285
C375	C	0.233986	-0.385096	-0.498091
C376	C	0.733986	0.114904	0.001909
C377	C	0.198479	-0.355715	-0.460183
C378	C	0.698479	0.144285	0.039817
H379	H	0.215467	-0.407828	-0.527411
H380	H	0.715467	0.092172	-0.027411
H381	H	0.255302	-0.362338	-0.524032
H382	H	0.755302	0.137662	-0.024032
H383	H	0.255262	-0.405055	-0.468538
H384	H	0.755262	0.094945	0.031462
H385	H	0.177204	-0.335753	-0.489736
H386	H	0.677204	0.164247	0.010264
H387	H	0.177154	-0.378476	-0.434240
H388	H	0.677154	0.121524	0.065760
H389	H	0.305298	-0.157694	-0.204673
H390	H	0.805298	0.342306	0.295327
C391	C	-0.017218	-0.152296	-0.197677
C392	C	0.482782	0.347704	0.302323
C393	C	-0.052715	-0.181683	-0.235603
C394	C	0.447285	0.318317	0.264397
H395	H	-0.035743	-0.129571	-0.168361
H396	H	0.464257	0.370429	0.331639
H397	H	0.004052	-0.175050	-0.171732
H398	H	0.504052	0.324950	0.328268
H399	H	0.004106	-0.132329	-0.227220
H400	H	0.504106	0.367671	0.272780
H401	H	-0.074037	-0.201653	-0.206061
H402	H	0.425963	0.298347	0.293939
H403	H	-0.073994	-0.158925	-0.261550
H404	H	0.426006	0.341075	0.238450
H405	H	0.816176	-0.549996	-0.247788
H406	H	1.316176	-0.049996	0.252212
C407	C	0.485114	-0.152253	-0.197583
C408	C	0.985114	0.347747	0.302417
C409	C	0.449621	-0.181641	-0.235515
C410	C	0.949621	0.318359	0.264485
H411	H	0.466586	-0.129529	-0.168270
H412	H	0.966586	0.370471	0.331730
H413	H	0.506382	-0.175007	-0.171634
H414	H	1.006382	0.324993	0.328366
H415	H	0.506441	-0.132286	-0.227122
H416	H	1.006441	0.367714	0.272878
H417	H	0.428296	-0.201611	-0.205975
H418	H	0.928296	0.298389	0.294025
H419	H	0.428344	-0.158884	-0.261466
H420	H	0.928344	0.341116	0.238534
H421	H	0.849685	-0.702110	-0.204571
H422	H	1.349685	-0.202110	0.295429
