data_functionalizedCrystal
_audit_creation_method	'MofGen! by Chris Wilmer'
_symmetry_space_group_name_H-M	'P1'
_symmetry_Int_Tables_number	1
_symmetry_cell_setting	triclinic
loop_
_symmetry_equiv_pos_as_xyz
  x,y,z
_cell_length_a	10.723024
_cell_length_b	10.540510
_cell_length_c	9.798715
_cell_angle_alpha	89.999330
_cell_angle_beta	89.996609
_cell_angle_gamma	84.490590
loop_
_atom_site_label
_atom_site_type_symbol
_atom_site_fract_x
_atom_site_fract_y
_atom_site_fract_z
O1	O	1.657257	0.178048	-0.113474
O2	O	1.294111	0.195091	-0.113478
O3	O	1.483989	0.001856	-0.113475
O4	O	1.467380	0.371283	-0.113477
O5	O	1.483974	0.001856	0.113507
O6	O	1.294097	0.195091	0.113504
O7	O	1.657243	0.178048	0.113508
Zn8	Zn	1.475668	0.186569	0.149544
Zn9	Zn	1.475686	0.186570	-0.149514
O10	O	1.467366	0.371282	0.113506
C11	C	1.247604	0.193851	0.000013
C12	C	1.109048	0.190140	0.000011
C13	C	1.482744	-0.045447	0.000013
C14	C	1.479041	-0.186395	0.000005
C15	C	1.034108	0.298264	0.000010
C16	C	0.890903	0.294431	0.000008
C17	C	1.610948	-0.403918	0.000526
C18	C	1.614898	-0.257324	0.000007
C19	C	1.409503	-0.231117	-0.129611
C20	C	1.406516	-0.377877	-0.129713
C21	C	1.403670	-0.377684	0.128408
C22	C	1.410114	-0.231347	0.130114
C23	C	1.703750	0.179288	0.000015
C24	C	1.842306	0.182999	0.000007
C25	C	1.468610	0.418586	0.000014
C26	C	1.472313	0.559534	0.000014
N27	N	1.475664	0.186568	0.353644
N28	N	1.475700	0.186561	-0.353614
C29	C	1.555388	0.105077	0.421422
C30	C	1.555408	0.105072	0.578585
H31	H	0.826507	0.386993	0.000001
C32	C	1.383454	0.280802	0.432416
H33	H	1.333422	0.331919	0.369513
H34	H	1.429000	0.333876	0.488163
H35	H	1.331025	0.234735	0.488154
H36	H	1.407446	0.256337	0.588109
C37	C	1.682048	-0.462709	-0.124339
H38	H	1.627610	-0.509428	-0.176784
H39	H	1.751755	-0.518217	-0.094533
H40	H	1.710621	-0.396742	-0.178751
H41	H	1.075968	0.393670	0.000017
H42	H	0.906695	0.090431	-0.000000
H43	H	1.304903	-0.400820	-0.135586
C44	C	1.052519	0.061246	0.000012
H45	H	1.118106	-0.006093	0.000022
H46	H	1.002297	0.055150	-0.079140
H47	H	1.002295	0.055153	0.079177
C48	C	1.688413	-0.217716	0.125509
H49	H	1.716132	-0.291280	0.177267
H50	H	1.635679	-0.160879	0.180351
H51	H	1.758812	-0.176575	0.096324
C52	C	1.682446	-0.460618	0.126103
H53	H	1.628397	-0.507100	0.179343
H54	H	1.710559	-0.393717	0.179462
H55	H	1.752483	-0.516043	0.096978
C56	C	1.688827	-0.218977	-0.125732
H57	H	1.716550	-0.293034	-0.176702
H58	H	1.759218	-0.177692	-0.096837
H59	H	1.636304	-0.162561	-0.181253
H60	H	1.623668	0.035308	0.636871
H61	H	1.457807	-0.200285	-0.226070
H62	H	1.454049	-0.418116	-0.226602
C63	C	1.276126	-0.164988	0.140702
H64	H	1.260393	-0.108758	0.065568
H65	H	1.267583	-0.117974	0.223430
H66	H	1.217732	-0.227298	0.139609
H67	H	1.309488	-0.183677	-0.134432
H68	H	1.446838	-0.419889	0.226658
H69	H	1.460712	-0.202761	0.226003
H70	H	1.623625	0.035306	0.363100
C71	C	1.265877	-0.407533	0.129593
H72	H	1.250205	-0.458007	0.052267
H73	H	1.212657	-0.330150	0.126743
H74	H	1.249770	-0.452886	0.210487
