data_functionalizedCrystal
_audit_creation_method	'MofGen! by Chris Wilmer'
_symmetry_space_group_name_H-M	'P1'
_symmetry_Int_Tables_number	1
_symmetry_cell_setting	triclinic
loop_
_symmetry_equiv_pos_as_xyz
  x,y,z
_cell_length_a	16.109302
_cell_length_b	26.210047
_cell_length_c	16.109304
_cell_angle_alpha	89.992689
_cell_angle_beta	83.462209
_cell_angle_gamma	90.010977
loop_
_atom_site_label
_atom_site_type_symbol
_atom_site_fract_x
_atom_site_fract_y
_atom_site_fract_z
O1	O	1.103139	0.042449	0.106858
O2	O	1.603139	0.542449	0.606858
O3	O	0.861078	0.042444	0.120157
O4	O	1.361078	0.542444	0.620157
O5	O	0.988757	0.042447	-0.007524
O6	O	1.488757	0.542447	0.492476
O7	O	0.975460	0.042446	0.234538
O8	O	1.475460	0.542446	0.734538
O9	O	0.988732	-0.042411	-0.007504
O10	O	1.488732	0.457589	0.492496
O11	O	0.861053	-0.042414	0.120177
O12	O	1.361053	0.457586	0.620177
O13	O	1.103115	-0.042409	0.106878
O14	O	1.603115	0.457591	0.606878
Cu15	Cu	0.982082	-0.050160	0.113529
Cu16	Cu	1.482082	0.449840	0.613529
Cu17	Cu	0.982111	0.050195	0.113505
Cu18	Cu	1.482111	0.550195	0.613505
O19	O	0.975435	-0.042412	0.234558
O20	O	1.475435	0.457588	0.734558
C21	C	0.830090	0.000015	0.119628
C22	C	1.330090	0.500015	0.619628
C23	C	0.737795	0.000013	0.118012
C24	C	1.237795	0.500013	0.618012
C25	C	0.525441	-0.046238	0.114288
C26	C	1.025441	0.453762	0.614288
C27	C	0.438721	-0.046236	0.112761
C28	C	0.938721	0.453764	0.612761
C29	C	0.438758	0.046281	0.112744
C30	C	0.938758	0.546281	0.612744
C31	C	0.525477	0.046279	0.114265
C32	C	1.025477	0.546279	0.614265
C33	C	0.568816	0.000018	0.115041
C34	C	1.068816	0.500018	0.615041
C35	C	0.395377	0.000022	0.111994
C36	C	0.895377	0.500022	0.611994
C37	C	0.301351	0.000024	0.110338
C38	C	0.801351	0.500024	0.610338
C39	C	0.662848	0.000015	0.116695
C40	C	1.162848	0.500015	0.616695
N41	N	0.982067	-0.120744	0.113545
N42	N	1.482067	0.379256	0.613545
C43	C	1.038641	-0.473257	0.056981
C44	C	1.538641	0.026743	0.556981
C45	C	1.038660	-0.686915	0.056970
C46	C	1.538660	-0.186915	0.556970
O47	O	1.086729	-0.714536	0.008881
O48	O	1.586729	-0.214536	0.508881
N49	N	0.982115	-0.713638	0.113487
N50	N	1.482115	-0.213638	0.613487
C51	C	0.925558	-0.686942	0.170008
C52	C	1.425558	-0.186942	0.670008
O53	O	0.877459	-0.714574	0.218073
O54	O	1.377459	-0.214574	0.718073
C55	C	0.925537	-0.473285	0.170015
C56	C	1.425537	0.026715	0.670015
C57	C	0.982091	-0.446565	0.113499
C58	C	1.482091	0.053435	0.613499
C59	C	1.095190	-0.446537	0.000470
C60	C	1.595190	0.053463	0.500470
C61	C	1.095188	-0.393125	0.000477
C62	C	1.595188	0.106875	0.500477
C63	C	1.038637	-0.366434	0.056994
C64	C	1.538637	0.133566	0.556994
C65	C	0.982089	-0.393153	0.113506
C66	C	1.482089	0.106847	0.613506
C67	C	0.868977	-0.446590	0.226531
C68	C	1.368977	0.053410	0.726531
C69	C	0.868975	-0.393172	0.226526
C70	C	1.368975	0.106828	0.726526
C71	C	0.925529	-0.366453	0.170011
C72	C	1.425529	0.133547	0.670011
C73	C	0.925536	-0.313050	0.170030
C74	C	1.425536	0.186950	0.670030
N75	N	0.982080	-0.286328	0.113513
N76	N	1.482080	0.213672	0.613513
C77	C	1.038631	-0.313020	0.056995
C78	C	1.538631	0.186980	0.556995
C79	C	0.925575	-0.799115	0.170001
C80	C	1.425575	-0.299115	0.670001
C81	C	0.925581	-0.852530	0.170001
C82	C	1.425581	-0.352530	0.670001
C83	C	1.038682	-0.852499	0.056962
C84	C	1.538682	-0.352499	0.556962
C85	C	1.038679	-0.799084	0.056967
C86	C	1.538679	-0.299084	0.556967
C87	C	0.982119	-0.772393	0.113484
C88	C	1.482119	-0.272393	0.613484
C89	C	1.038623	-0.200852	0.057013
C90	C	1.538623	0.299148	0.557013
C91	C	1.038618	-0.147435	0.057027
C92	C	1.538618	0.352565	0.557027
C93	C	0.925515	-0.147471	0.170063
C94	C	1.425515	0.352529	0.670063
C95	C	0.925522	-0.200882	0.170052
C96	C	1.425522	0.299118	0.670052
C97	C	0.982079	-0.227571	0.113521
C98	C	1.482079	0.272429	0.613521
O99	O	0.877485	-0.285396	0.218087
O100	O	1.377485	0.214604	0.718087
O101	O	1.086711	-0.285379	0.008924
O102	O	1.586711	0.214621	0.508924
C103	C	1.038644	-0.526668	0.056975
C104	C	1.538644	-0.026668	0.556975
C105	C	0.982095	-0.553388	0.113486
C106	C	1.482095	-0.053388	0.613486
C107	C	0.925544	-0.526696	0.170004
C108	C	1.425544	-0.026696	0.670004
C109	C	0.982101	-0.606802	0.113486
C110	C	1.482101	-0.106802	0.613486
C111	C	1.038652	-0.633494	0.056968
C112	C	1.538652	-0.133494	0.556968
C113	C	1.095196	-0.606771	0.000451
C114	C	1.595196	-0.106771	0.500451
C115	C	1.095194	-0.553360	0.000457
C116	C	1.595194	-0.053360	0.500457
C117	C	0.869000	-0.553418	0.226521
C118	C	1.369000	-0.053418	0.726521
C119	C	0.869007	-0.606830	0.226511
C120	C	1.369007	-0.106830	0.726511
C121	C	0.925558	-0.633522	0.169993
C122	C	1.425558	-0.133522	0.669993
C123	C	1.134102	0.000021	0.107407
C124	C	1.634102	0.500021	0.607407
C125	C	1.226397	0.000026	0.109022
C126	C	1.726397	0.500026	0.609022
N127	N	0.982132	0.120779	0.113483
N128	N	1.482132	0.620779	0.613483
C129	C	0.988206	0.000019	-0.038488
C130	C	1.488206	0.500019	0.461512
C131	C	0.986590	0.000022	-0.130784
C132	C	1.486590	0.500022	0.369216
C133	C	0.982869	0.046277	-0.343132
C134	C	1.482869	0.546277	0.156868
C135	C	0.981343	0.046276	-0.429852
C136	C	1.481343	0.546276	0.070148
C137	C	0.981321	-0.046241	-0.429827
C138	C	1.481321	0.453759	0.070173
C139	C	0.982841	-0.046240	-0.343108
C140	C	1.482841	0.453760	0.156892
C141	C	0.983619	0.000020	-0.299763
C142	C	1.483619	0.500020	0.200237
C143	C	0.980573	0.000019	-0.473202
C144	C	1.480573	0.500019	0.026798
C145	C	0.978918	0.000018	-0.567228
C146	C	1.478918	0.500018	-0.067228
C147	C	0.985273	0.000022	-0.205731
C148	C	1.485273	0.500022	0.294269
C149	C	0.975987	0.000017	0.265523
C150	C	1.475987	0.500017	0.765523
C151	C	0.977603	0.000017	0.357818
C152	C	1.477603	0.500017	0.857818
H153	H	0.560795	0.083948	0.114876
H154	H	1.060795	0.583948	0.614876
H155	H	0.983501	0.083945	-0.307843
H156	H	1.483501	0.583945	0.192157
C157	C	0.980467	-0.097124	-0.477515
C158	C	1.480467	0.402876	0.022485
N159	N	0.979826	-0.135451	-0.513433
N160	N	1.479826	0.364549	-0.013433
C161	C	0.980551	0.097162	-0.477558
C162	C	1.480551	0.597162	0.022442
N163	N	0.979965	0.135491	-0.513491
N164	N	1.479965	0.635491	-0.013491
H165	H	0.822948	-0.531690	0.272544
H166	H	1.322948	-0.031690	0.772544
H167	H	0.822956	-0.628581	0.272540
H168	H	1.322956	-0.128581	0.772540
H169	H	0.983447	-0.083909	-0.307795
H170	H	1.483447	0.416091	0.192205
H171	H	0.403461	0.083945	0.112113
H172	H	0.903461	0.583945	0.612113
H173	H	0.879474	-0.125730	0.216082
H174	H	1.379474	0.374270	0.716082
C175	C	0.573111	-0.097126	0.115132
C176	C	1.073111	0.402874	0.615132
N177	N	0.609015	-0.135457	0.115764
N178	N	1.109015	0.364543	0.615764
C179	C	1.157401	-0.636142	-0.061721
C180	C	1.657401	-0.136142	0.438279
N181	N	1.204246	-0.658268	-0.108550
N182	N	1.704246	-0.158268	0.391450
H183	H	0.403408	-0.083902	0.112149
H184	H	0.903408	0.416098	0.612149
H185	H	0.879539	-0.874281	0.216029
H186	H	1.379539	-0.374281	0.716029
C187	C	1.100841	-0.230202	-0.005172
C188	C	1.600841	0.269798	0.494828
N189	N	1.147707	-0.252308	-0.052007
N190	N	1.647707	0.247692	0.447993
C191	C	1.100831	-0.118047	-0.005150
C192	C	1.600831	0.381953	0.494850
N193	N	1.147687	-0.095913	-0.051982
N194	N	1.647687	0.404087	0.448018
H195	H	1.141246	-0.531608	-0.045563
H196	H	1.641246	-0.031608	0.454437
H197	H	1.141237	-0.371373	-0.045545
H198	H	1.641237	0.128627	0.454455
H199	H	1.084729	-0.777332	0.010947
H200	H	1.584729	-0.277332	0.510947
C201	C	1.100883	-0.881870	-0.005213
C202	C	1.600883	-0.381870	0.494787
N203	N	1.147726	-0.903994	-0.052045
N204	N	1.647726	-0.403994	0.447955
C205	C	1.157400	-0.475889	-0.061716
C206	C	1.657400	0.024111	0.438284
N207	N	1.204262	-0.497994	-0.108557
N208	N	1.704262	0.002006	0.391443
H209	H	0.822925	-0.468338	0.272550
H210	H	1.322925	0.031662	0.772550
C211	C	0.863414	-0.769762	0.232242
C212	C	1.363414	-0.269762	0.732242
N213	N	0.816618	-0.747656	0.279146
N214	N	1.316618	-0.247656	0.779146
H215	H	0.879479	-0.222638	0.216080
H216	H	1.379479	0.277362	0.716080
H217	H	0.822915	-0.371443	0.272548
H218	H	1.322915	0.128557	0.772548
