data_functionalizedCrystal
_audit_creation_method	'MofGen! by Chris Wilmer'
_symmetry_space_group_name_H-M	'P1'
_symmetry_Int_Tables_number	1
_symmetry_cell_setting	triclinic
loop_
_symmetry_equiv_pos_as_xyz
  x,y,z
_cell_length_a	23.532407
_cell_length_b	23.532407
_cell_length_c	22.010155
_cell_angle_alpha	89.997120
_cell_angle_beta	89.988300
_cell_angle_gamma	82.848712
loop_
_atom_site_label
_atom_site_type_symbol
_atom_site_fract_x
_atom_site_fract_y
_atom_site_fract_z
O1	O	0.755268	0.069129	-0.050493
O2	O	0.589405	0.079132	-0.050503
O3	O	0.677338	-0.008801	-0.050487
O4	O	0.667335	0.157062	-0.050510
O5	O	0.677313	-0.008791	0.050564
O6	O	0.589380	0.079142	0.050547
O7	O	0.755243	0.069139	0.050557
Cu8	Cu	0.672309	0.074142	0.059779
Cu9	Cu	0.672339	0.074129	-0.059725
O10	O	0.667310	0.157072	0.050541
C11	C	0.568176	0.078882	0.000021
C12	C	0.504959	0.078116	0.000017
C13	C	0.677071	-0.030012	0.000040
C14	C	0.676305	-0.093229	0.000045
C15	C	0.238792	0.022921	0.000041
C16	C	0.298192	0.023632	0.000041
O17	O	0.334937	-0.020153	0.000068
N18	N	0.320818	0.075909	0.000030
C19	C	0.284041	0.127477	0.000025
O20	O	0.308740	0.172007	0.000016
C21	C	0.224642	0.126765	0.000029
C22	C	0.202019	0.074485	0.000035
C23	C	0.216168	-0.029354	0.000047
C24	C	0.156772	-0.030066	0.000046
C25	C	0.119999	0.021499	0.000039
C26	C	0.142623	0.073774	0.000034
C27	C	0.187865	0.178333	0.000029
C28	C	0.128463	0.177616	0.000034
C29	C	0.105840	0.125336	0.000039
C30	C	0.046454	0.124627	0.000026
N31	N	0.023828	0.072351	0.000037
C32	C	0.060600	0.020787	0.000044
C33	C	0.408783	0.128968	0.000016
C34	C	0.468181	0.129681	0.000007
C35	C	0.482328	0.025836	0.000025
C36	C	0.422929	0.025124	0.000029
C37	C	0.386157	0.076692	0.000027
C38	C	-0.064136	0.019297	0.000042
C39	C	-0.123538	0.018590	0.000038
C40	C	-0.137680	0.122435	0.000024
C41	C	-0.078284	0.123142	0.000024
C42	C	-0.041512	0.071568	0.000035
O43	O	0.009675	0.168390	0.000001
O44	O	0.035892	-0.023737	0.000061
C45	C	0.723538	-0.492332	0.000014
C46	C	0.722827	-0.551733	0.000010
O47	O	0.766613	-0.588477	-0.000010
N48	N	0.670551	-0.574359	0.000007
C49	C	0.618982	-0.537581	0.000002
O50	O	0.574452	-0.562281	-0.000001
C51	C	0.619695	-0.478182	0.000003
C52	C	0.671974	-0.455559	0.000012
C53	C	0.775814	-0.469709	0.000023
C54	C	0.776525	-0.410313	0.000028
C55	C	0.724961	-0.373540	0.000026
C56	C	0.672685	-0.396163	0.000018
C57	C	0.568127	-0.441406	-0.000006
C58	C	0.568843	-0.382003	-0.000006
C59	C	0.621123	-0.359381	0.000003
C60	C	0.621832	-0.299994	0.000021
N61	N	0.674109	-0.277368	0.000024
C62	C	0.725673	-0.314141	0.000026
C63	C	0.617491	-0.662324	0.000001
C64	C	0.616778	-0.721722	0.000005
C65	C	0.720623	-0.735869	0.000011
C66	C	0.721335	-0.676470	0.000011
C67	C	0.669767	-0.639698	0.000004
C68	C	0.727163	-0.189404	0.000039
C69	C	0.727869	-0.130002	0.000047
C70	C	0.624025	-0.115860	0.000038
C71	C	0.623318	-0.175257	0.000033
C72	C	0.674891	-0.212028	0.000031
O73	O	0.578069	-0.263215	0.000038
O74	O	0.770196	-0.289433	0.000022
C75	C	0.776472	0.069389	0.000032
C76	C	0.839689	0.070155	0.000032
C77	C	0.667577	0.178283	0.000013
C78	C	0.668343	0.241500	0.000004
N79	N	0.672292	0.074150	0.143831
N80	N	0.672361	0.074117	-0.143777
C81	C	0.637983	0.039758	0.436439
C82	C	0.637977	0.039761	0.372831
O83	O	0.608785	0.010521	0.339936
N84	N	0.672314	0.074132	0.341016
C85	C	0.706663	0.108499	0.372811
O86	O	0.735869	0.137734	0.339908
C87	C	0.706671	0.108492	0.436417
C88	C	0.672327	0.074123	0.468230
C89	C	0.603642	0.005391	0.468252
C90	C	0.603647	0.005390	0.531855
C91	C	0.637991	0.039755	0.563645
C92	C	0.672331	0.074122	0.531833
C93	C	0.741022	0.142855	0.468211
C94	C	0.741027	0.142846	0.531822
C95	C	0.706683	0.108477	0.563634
C96	C	0.706680	0.108485	0.627227
N97	N	0.672344	0.074114	0.659042
C98	C	0.637999	0.039749	0.627252
C99	C	0.706645	0.108508	0.239233
C100	C	0.706635	0.108517	0.175627
C101	C	0.637950	0.039779	0.175653
C102	C	0.637957	0.039773	0.239259
C103	C	0.672308	0.074137	0.271049
C104	C	0.638010	0.039748	0.760823
C105	C	0.638016	0.039752	0.824432
C106	C	0.706703	0.108488	0.824401
C107	C	0.706695	0.108487	0.760798
C108	C	0.672347	0.074113	0.729011
O109	O	0.735860	0.137708	0.660162
O110	O	0.608803	0.010513	0.660162
H111	H	-0.141954	-0.023984	0.000041
H112	H	0.246104	-0.071347	0.000055
H113	H	0.817806	-0.499644	0.000022
H114	H	-0.059864	0.165712	0.000019
H115	H	0.404515	-0.017447	0.000034
H116	H	-0.034204	-0.022699	0.000050
O117	O	0.740024	0.141951	0.270017
C118	C	0.808171	0.210107	0.263265
C119	C	0.770387	0.172272	0.228332
H120	H	0.832738	0.234623	0.229578
H121	H	0.780012	0.241740	0.293036
H122	H	0.839768	0.181931	0.293050
H123	H	0.738785	0.200402	0.198514
H124	H	0.798582	0.140635	0.198599
H125	H	0.763906	-0.658055	0.000018
H126	H	0.769159	-0.219337	0.000035
O127	O	0.518032	-0.024271	-0.000071
C128	C	0.548299	-0.112831	-0.052383
C129	C	0.507841	-0.056105	-0.052357
H130	H	0.540065	-0.138590	-0.094646
H131	H	0.594649	-0.103371	-0.052424
H132	H	0.540106	-0.138544	-0.010069
H133	H	0.515982	-0.030363	-0.094665
H134	H	0.461504	-0.065605	-0.052285
H135	H	0.734652	0.136481	0.734895
O136	O	0.774440	0.176253	0.437412
C137	C	0.842554	0.244443	0.444128
C138	C	0.804741	0.206637	0.479081
H139	H	0.867053	0.269027	0.477802
H140	H	0.874202	0.216298	0.414359
H141	H	0.814364	0.276025	0.414340
H142	H	0.832884	0.175050	0.508903
H143	H	0.773088	0.234817	0.508812
O144	O	0.490058	0.180516	0.000022
C145	C	0.469741	0.283439	-0.000032
C146	C	0.444892	0.225908	-0.000039
H147	H	0.433236	0.320154	-0.000094
H148	H	0.497165	0.286416	0.042267
H149	H	0.497224	0.286335	-0.042312
H150	H	0.417383	0.222973	0.042212
H151	H	0.417500	0.222955	-0.042366
O152	O	0.373007	0.179028	-0.000077
C153	C	0.297774	0.238508	-0.052461
C154	C	0.338244	0.181790	-0.052424
H155	H	0.269666	0.240764	-0.094785
H156	H	0.269563	0.240792	-0.010200
H157	H	0.324167	0.275979	-0.052442
H158	H	0.311897	0.144286	-0.052464
H159	H	0.366457	0.179556	-0.094681
O160	O	0.740147	0.141833	0.855223
C161	C	0.835874	0.163548	0.874696
C162	C	0.798061	0.125760	0.839740
H163	H	0.882706	0.150559	0.862201
H164	H	0.822963	0.210388	0.862189
H165	H	0.829946	0.157648	0.925617
H166	H	0.803969	0.131611	0.788811
H167	H	0.810981	0.078934	0.852298
H168	H	0.206274	0.220904	0.000022
O169	O	0.604534	0.006469	0.270186
C170	C	0.527687	0.003548	0.342048
C171	C	0.565490	0.041336	0.307056
H172	H	0.496119	0.031722	0.371875
H173	H	0.503098	-0.020997	0.308421
H174	H	0.555892	-0.028067	0.371786
H175	H	0.537327	0.072983	0.277317
H176	H	0.590084	0.065841	0.340716
O177	O	0.770767	-0.771515	0.000035
C178	C	0.873842	-0.779296	-0.000002
C179	C	0.817102	-0.738860	-0.000015
H180	H	0.911319	-0.752910	-0.000056
H181	H	0.876133	-0.807452	0.042295
H182	H	0.876077	-0.807466	-0.042284
H183	H	0.814829	-0.710655	0.042238
H184	H	0.814835	-0.710743	-0.042340
H185	H	0.582043	-0.085909	0.000038
H186	H	0.734593	0.136511	0.149731
O187	O	0.134896	-0.080901	0.000086
C188	C	0.155219	-0.183824	0.000077
C189	C	0.180065	-0.126291	0.000042
H190	H	0.191726	-0.220536	0.000029
H191	H	0.127781	-0.186788	0.042380
H192	H	0.127751	-0.186736	-0.042199
H193	H	0.207559	-0.123339	0.042289
H194	H	0.207471	-0.123351	-0.042289
O195	O	0.827260	-0.388247	0.000055
C196	C	0.874396	-0.303021	0.000011
C197	C	0.816896	-0.327929	0.000000
H198	H	0.866037	-0.254251	-0.000046
H199	H	0.899862	-0.318152	0.042308
H200	H	0.899862	-0.318228	-0.042271
H201	H	0.791383	-0.312734	0.042253
H202	H	0.791474	-0.312801	-0.042326
H203	H	0.526850	-0.352065	-0.000013
O204	O	0.567357	-0.626662	-0.000079
C205	C	0.478842	-0.596380	-0.052449
C206	C	0.535591	-0.636803	-0.052426
H207	H	0.453149	-0.604555	-0.094773
H208	H	0.453052	-0.604582	-0.010189
H209	H	0.488336	-0.550042	-0.052418
H210	H	0.526149	-0.683155	-0.052478
H211	H	0.561364	-0.628551	-0.094682
H212	H	0.610047	0.011764	0.850331
O213	O	0.517326	-0.463343	-0.000127
C214	C	0.428355	-0.469366	-0.052481
C215	C	0.485876	-0.444499	-0.052426
H216	H	0.402905	-0.454131	-0.094754
H217	H	0.436656	-0.518140	-0.052523
H218	H	0.402901	-0.454206	-0.010178
H219	H	0.511359	-0.459616	-0.094722
H220	H	0.477534	-0.395728	-0.052353
H221	H	0.575683	-0.022599	0.557751
H222	H	0.098525	0.219610	0.000035
O223	O	0.572571	-0.197305	-0.000052
C224	C	0.511501	-0.256120	-0.052439
C225	C	0.568997	-0.231204	-0.052405
H226	H	0.508587	-0.283522	-0.094769
H227	H	0.508552	-0.283620	-0.010184
H228	H	0.474778	-0.219624	-0.052408
H229	H	0.605753	-0.267663	-0.052458
H230	H	0.571896	-0.203688	-0.094656
H231	H	0.770443	-0.111587	0.000056
H232	H	0.769001	0.170829	0.557701
O233	O	0.604590	0.006345	0.730045
C234	C	0.536484	-0.061852	0.736800
C235	C	0.574298	-0.024045	0.771731
H236	H	0.511992	-0.086441	0.770488
H237	H	0.504830	-0.033706	0.707049
H238	H	0.564672	-0.093428	0.706996
H239	H	0.546156	0.007537	0.801569
H240	H	0.605956	-0.052227	0.801445
H241	H	-0.167631	0.164417	0.000016
O242	O	0.570223	-0.028007	0.437470
C243	C	0.502116	-0.096203	0.444230
C244	C	0.539934	-0.058399	0.479159
H245	H	0.477627	-0.120794	0.477920
H246	H	0.470459	-0.068056	0.414483
H247	H	0.530301	-0.127779	0.414422
H248	H	0.511795	-0.026818	0.509000
H249	H	0.571594	-0.086582	0.508868
O250	O	0.604537	0.006376	0.144859
C251	C	0.536442	-0.061835	0.151579
C252	C	0.574241	-0.024027	0.186530
H253	H	0.511948	-0.086435	0.185255
H254	H	0.504791	-0.033688	0.121825
H255	H	0.564642	-0.093402	0.121775
H256	H	0.546088	0.007545	0.216367
H257	H	0.605897	-0.052209	0.216245
H258	H	0.574207	-0.740135	0.000008
