data_functionalizedCrystal
_audit_creation_method	'MofGen! by Chris Wilmer'
_symmetry_space_group_name_H-M	'P1'
_symmetry_Int_Tables_number	1
_symmetry_cell_setting	triclinic
loop_
_symmetry_equiv_pos_as_xyz
  x,y,z
_cell_length_a	27.440280
_cell_length_b	14.560438
_cell_length_c	14.560438
_cell_angle_alpha	60.005846
_cell_angle_beta	90.002610
_cell_angle_gamma	59.997888
loop_
_atom_site_label
_atom_site_type_symbol
_atom_site_fract_x
_atom_site_fract_y
_atom_site_fract_z
Zr1	Zr	0.469524	1.005088	-0.120267
O2	O	0.391711	1.196690	-0.266905
O3	O	0.493375	0.813498	-0.075334
O4	O	0.493381	1.005083	-0.266909
O5	O	0.391703	1.005105	0.075810
O6	O	0.573584	1.005065	-0.266890
O7	O	0.391705	1.005105	-0.075330
O8	O	0.573573	0.662354	0.075802
O9	O	0.391714	1.347816	-0.266883
O10	O	0.563405	0.892284	-0.056133
O11	O	0.503550	0.892297	0.056647
O12	O	0.503557	1.117864	-0.168908
O13	O	0.443701	1.117877	-0.056128
Zr14	Zr	0.597436	1.005059	0.120814
Zr15	Zr	0.597438	1.005060	-0.120237
Zr16	Zr	0.469521	1.005088	0.120783
Zr17	Zr	0.469529	1.246116	-0.120232
Zr18	Zr	0.597431	0.764032	0.120778
O19	O	0.573584	1.196649	0.075881
O20	O	0.573588	1.196650	-0.266862
O21	O	0.391707	1.196690	0.075838
O22	O	0.675249	0.813457	0.267451
O23	O	0.675253	0.813458	-0.075291
O24	O	0.493372	0.813497	0.267408
O25	O	0.675257	1.005042	-0.075263
O26	O	0.573578	1.005064	0.267456
O27	O	0.493376	1.005082	0.267437
O28	O	0.675255	1.005042	0.075877
O29	O	0.493389	1.347793	-0.266859
O30	O	0.573571	0.662354	0.267405
O31	O	0.675246	0.662332	0.267429
O32	O	0.675248	0.662332	0.075826
O33	O	0.391712	1.347815	-0.075280
O34	O	0.493387	1.347793	-0.075256
O35	O	0.563403	0.892283	0.169455
O36	O	0.623258	0.892270	0.056675
O37	O	0.563410	1.117850	-0.056100
O38	O	0.503554	1.117863	0.056680
C39	C	0.533473	0.703585	0.000229
C40	C	0.533471	0.601262	0.000214
C41	C	0.489291	0.636399	-0.083017
C42	C	0.489301	0.540210	-0.082961
C43	C	0.577673	0.373749	0.083569
C44	C	0.577665	0.469937	0.083507
C45	C	0.445097	0.767724	-0.166310
C46	C	0.400914	0.802867	-0.249547
C47	C	0.400923	0.706678	-0.249491
C48	C	0.445117	0.575346	-0.166197
C49	C	0.373479	1.005109	0.000236
C50	C	0.319176	1.005121	0.000223
C51	C	0.013718	0.887302	0.059172
C52	C	-0.037300	0.887295	0.059182
O53	O	-0.037119	0.787153	0.109280
N54	N	-0.094057	1.005044	0.000313
C55	C	-0.099795	1.122808	-0.058560
O56	O	-0.152756	1.222962	-0.108630
C57	C	-0.048777	1.122813	-0.058562
C58	C	0.007979	1.005057	0.000301
C59	C	0.070472	0.769555	0.118031
C60	C	0.121487	0.769562	0.118019
C61	C	0.115748	0.887317	0.059148
C62	C	0.058994	1.005064	0.000289
C63	C	-0.054516	1.240576	-0.117428
C64	C	-0.003491	1.240572	-0.117425
C65	C	0.053265	1.122815	-0.058562
C66	C	0.104270	1.122827	-0.058594
N67	N	0.161027	1.005078	0.000274
C68	C	0.166766	0.887323	0.059145
C69	C	-0.206934	1.122786	-0.058548
C70	C	-0.257951	1.122782	-0.058553
C71	C	-0.195452	0.887269	0.059191
C72	C	-0.144435	0.887274	0.059188
C73	C	-0.150177	1.005037	0.000321
C74	C	0.273898	0.887348	0.059115
C75	C	0.324915	0.887366	0.059094
C76	C	0.262412	1.122879	-0.058644
C77	C	0.211400	1.122861	-0.058629
C78	C	0.217147	1.005086	0.000259
O79	O	0.104135	1.222918	-0.108664
O80	O	0.219729	0.787186	0.109219
C81	C	0.693481	1.005038	0.000311
C82	C	0.747784	1.005026	0.000324
C83	C	0.533483	1.005074	-0.301244
C84	C	0.533484	1.005074	-0.403576
C85	C	0.533486	1.306562	0.000318
C86	C	0.533488	1.408885	0.000333
C87	C	0.577666	1.005070	-0.451650
C88	C	0.577663	1.005065	-0.547799
C89	C	0.489292	1.005073	-0.547795
C90	C	0.489297	1.005069	-0.451643
C91	C	0.621853	1.005075	-0.403583
C92	C	0.666037	1.005072	-0.451657
C93	C	0.666035	1.005067	-0.547806
C94	C	0.621847	1.005064	-0.595881
C95	C	0.533477	1.005073	0.301791
C96	C	0.533476	1.005073	0.404123
C97	C	0.693475	0.703550	0.000267
C98	C	0.747775	0.601215	0.000265
C99	C	0.533470	0.703584	0.301746
C100	C	0.533467	0.601261	0.404064
C101	C	0.693471	0.703549	0.301784
C102	C	0.747771	0.601214	0.404114
C103	C	0.373488	1.306598	-0.301237
C104	C	0.319189	1.408933	-0.403567
C105	C	0.373485	1.306598	0.000280
C106	C	0.319184	1.408932	0.000282
C107	C	0.533489	1.306563	-0.301200
C108	C	0.533493	1.408886	-0.403517
C109	C	0.742033	0.553165	-0.058631
C110	C	0.793049	0.457024	-0.058656
C111	C	0.849808	0.408928	0.000223
C112	C	0.855549	0.456988	0.059120
C113	C	0.804533	0.553134	0.059138
C114	C	0.804520	0.553150	0.393300
C115	C	0.855545	0.457009	0.489440
C116	C	0.849820	0.408927	0.596394
C117	C	0.793065	0.457001	0.607207
C118	C	0.742041	0.553147	0.511067
C119	C	0.262440	1.457009	-0.392753
C120	C	0.211414	1.553180	-0.488894
C121	C	0.217140	1.601267	-0.595848
C122	C	0.273895	1.553187	-0.606660
C123	C	0.324919	1.457024	-0.510521
C124	C	0.324927	1.456993	0.059168
C125	C	0.273910	1.553160	0.059166
C126	C	0.217152	1.601259	0.000284
C127	C	0.211411	1.553194	-0.058609
C128	C	0.262427	1.457035	-0.058613
C129	C	0.564709	0.553178	0.511017
C130	C	0.564701	0.457040	0.607151
C131	C	0.502208	0.457073	0.489364
C132	C	0.502213	0.553216	0.393233
C133	C	0.595963	0.601223	0.521848
C134	C	0.627208	0.553139	0.628806
C135	C	0.627200	0.457001	0.724940
C136	C	0.595947	0.408947	0.714116
H137	H	0.364936	0.909801	-0.317367
H138	H	0.257749	1.218752	-0.106580
H139	H	0.476764	0.417939	0.480561
Br140	Br	0.281716	1.618367	0.139101
Br141	Br	0.595930	0.278487	0.844586
Br142	Br	0.785305	0.391734	0.752368
Br143	Br	0.812338	0.618327	0.139082
Br144	Br	0.665026	0.618360	0.525765
H145	H	0.453321	1.005071	-0.412500
Br146	Br	0.637644	0.195520	0.196605
Br147	Br	0.281706	0.727508	0.139034
Br148	Br	0.459809	0.618485	0.248074
H149	H	-0.098224	0.791386	0.107130
Br150	Br	0.919074	0.278442	0.726860
Br151	Br	0.726009	1.005053	-0.386406
Br152	Br	0.134376	1.618482	-0.138512
Br153	Br	0.669595	0.391760	0.870094
Br154	Br	0.637629	0.422256	0.196457
H155	H	0.175588	1.679568	-0.674122
Br156	Br	0.147921	1.731762	0.000301
Br157	Br	0.429326	1.005072	-0.613039
Br158	Br	0.254653	1.391766	-0.247613
Br159	Br	0.340966	0.754371	-0.362462
Br160	Br	0.726003	1.005043	-0.613040
H161	H	0.445130	0.497029	-0.166175
Br162	Br	0.134398	1.618408	-0.474193
Br163	Br	-0.187673	0.727456	0.139087
Br164	Br	0.254622	1.391816	-0.138532
Br165	Br	0.621855	1.005095	-0.273101
H166	H	0.167697	0.673673	0.165946
H167	H	-0.304161	1.218671	-0.106499
Br168	Br	0.812307	0.618389	0.248159
Br169	Br	0.621852	1.005035	-0.726360
Br170	Br	0.919038	0.278443	0.000188
Br171	Br	0.401933	1.391783	-0.525218
H172	H	0.278549	1.592351	-0.693754
Br173	Br	0.665010	0.618419	-0.138551
Br174	Br	0.595978	0.731691	0.391384
Br175	Br	0.785243	0.391817	-0.138591
H176	H	0.445083	0.846055	-0.166363
H177	H	0.371138	1.417838	0.107124
H178	H	0.652649	0.592278	0.637611
Br179	Br	-0.214736	1.282623	-0.138456
H180	H	-0.100721	1.336466	-0.165360
Br181	Br	0.078276	0.609722	0.197944
Br182	Br	0.401941	0.727543	0.138980
H183	H	-0.008174	1.336471	-0.165349
H184	H	0.901769	0.417815	0.107057
Br185	Br	0.134372	1.282675	-0.138541
H186	H	0.901753	0.417877	0.480617
