data_functionalizedCrystal
_audit_creation_method	'MofGen! by Chris Wilmer'
_symmetry_space_group_name_H-M	'P1'
_symmetry_Int_Tables_number	1
_symmetry_cell_setting	triclinic
loop_
_symmetry_equiv_pos_as_xyz
  x,y,z
_cell_length_a	14.971486
_cell_length_b	27.732048
_cell_length_c	13.448316
_cell_angle_alpha	89.988441
_cell_angle_beta	89.998199
_cell_angle_gamma	83.128392
loop_
_atom_site_label
_atom_site_type_symbol
_atom_site_fract_x
_atom_site_fract_y
_atom_site_fract_z
O1	O	1.185952	0.062991	-0.082589
O2	O	0.925433	0.070534	-0.082617
O3	O	1.063784	-0.003597	-0.082583
O4	O	1.047601	0.137122	-0.082623
O5	O	1.063766	-0.003601	0.082801
O6	O	0.925416	0.070530	0.082767
O7	O	1.185935	0.062986	0.082795
Cu8	Cu	1.055674	0.066758	0.097882
Cu9	Cu	1.055694	0.066763	-0.097704
O10	O	1.047584	0.137117	0.082761
C11	C	0.892105	0.070195	0.000071
C12	C	0.792824	0.069184	0.000061
C13	C	0.734910	0.112734	0.000051
C14	C	0.641626	0.111781	0.000066
C15	C	0.606257	0.067278	0.000084
C16	C	0.664177	0.023724	0.000098
C17	C	0.757460	0.024678	0.000090
C18	C	0.469746	0.021740	0.000113
C19	C	0.376457	0.020787	0.000119
C20	C	0.353912	0.108844	0.000088
C21	C	0.447195	0.109797	0.000080
C22	C	0.505109	0.066243	0.000092
C23	C	1.063435	-0.021608	0.000111
C24	C	1.062412	-0.075267	0.000120
C25	C	1.137729	-0.413735	0.000077
C26	C	1.133934	-0.615412	0.000062
O27	O	1.202806	-0.646350	0.000026
N28	N	1.051898	-0.634914	0.000054
C29	C	0.970804	-0.603994	0.000043
O30	O	0.900940	-0.625209	0.000026
C31	C	0.974601	-0.402318	0.000051
C32	C	1.056642	-0.382818	0.000069
C33	C	1.219764	-0.394235	0.000094
C34	C	1.220712	-0.343819	0.000103
C35	C	1.139625	-0.312902	0.000095
C36	C	1.057590	-0.332402	0.000078
C37	C	0.893508	-0.371398	0.000033
C38	C	0.894464	-0.320976	0.000032
C39	C	0.976506	-0.301477	0.000050
C40	C	0.977451	-0.251069	0.000079
N41	N	1.059487	-0.231567	0.000087
C42	C	1.140574	-0.262483	0.000095
C43	C	0.968817	-0.709877	0.000042
C44	C	0.967868	-0.760296	0.000042
C45	C	1.130998	-0.771710	0.000059
C46	C	1.131946	-0.721291	0.000066
C47	C	1.050854	-0.690375	0.000050
C48	C	1.142559	-0.156605	0.000114
C49	C	1.143500	-0.106184	0.000128
C50	C	0.980370	-0.094773	0.000105
C51	C	0.979429	-0.145190	0.000097
C52	C	1.060530	-0.176105	0.000099
O53	O	0.908616	-0.220103	0.000104
O54	O	1.210428	-0.241258	0.000090
C55	C	1.136781	-0.464151	0.000068
C56	C	1.054746	-0.483651	0.000051
C57	C	0.973659	-0.452734	0.000043
C58	C	1.053797	-0.534070	0.000051
C59	C	1.134884	-0.564986	0.000059
C60	C	1.216921	-0.545484	0.000067
C61	C	1.217868	-0.495067	0.000076
C62	C	0.891623	-0.472237	0.000035
C63	C	0.890682	-0.522654	0.000027
C64	C	0.971769	-0.553570	0.000035
C65	C	1.219263	0.063326	0.000104
C66	C	1.318544	0.064337	0.000108
C67	C	1.047932	0.155128	0.000064
C68	C	1.048955	0.208788	0.000050
N69	N	1.055666	0.066753	0.235446
N70	N	1.055709	0.066763	-0.235268
C71	C	1.116946	0.033942	0.287501
C72	C	1.116952	0.033941	0.391605
C73	C	1.055681	0.066755	0.443651
C74	C	0.994394	0.099569	0.391588
C75	C	0.994385	0.099566	0.287487
C76	C	0.994418	0.099572	0.608568
C77	C	0.994428	0.099575	0.712676
C78	C	1.116986	0.033947	0.712686
C79	C	1.116977	0.033945	0.608585
C80	C	1.055691	0.066759	0.556529
H81	H	0.347663	-0.015451	0.000135
C82	C	1.306118	-0.579498	0.000073
C83	C	1.373534	-0.577295	0.085958
C84	C	1.462726	-0.611312	0.085958
C85	C	1.484501	-0.647532	0.000073
C86	C	1.417082	-0.649738	-0.085819
C87	C	1.327891	-0.615721	-0.085819
H88	H	1.357417	-0.550481	0.149541
H89	H	1.512633	-0.609679	0.149541
H90	H	1.550526	-0.672714	0.000072
H91	H	1.433200	-0.676552	-0.149402
H92	H	1.277983	-0.617353	-0.149402
H93	H	1.210310	-0.090310	0.000145
C94	C	0.625277	-0.025231	0.000122
C95	C	0.647407	-0.061422	-0.085744
C96	C	0.608510	-0.110379	-0.085723
C97	C	0.547483	-0.123145	0.000164
C98	C	0.525350	-0.086953	0.086036
C99	C	0.564247	-0.037996	0.086015
H100	H	0.692585	-0.051972	-0.149328
H101	H	0.624894	-0.137170	-0.149291
H102	H	0.518689	-0.159386	0.000180
H103	H	0.480172	-0.096403	0.149621
H104	H	0.547862	-0.011205	0.149584
H105	H	0.516899	-0.013726	0.000124
H106	H	1.166872	0.007227	0.566209
H107	H	0.594476	0.147244	0.000056
C108	C	0.805259	-0.286969	0.000017
C109	C	0.737852	-0.289184	-0.085874
C110	C	0.648648	-0.255178	-0.085887
C111	C	0.626851	-0.218956	-0.000008
C112	C	0.694259	-0.216739	0.085890
C113	C	0.783463	-0.250746	0.085903
H114	H	0.753987	-0.315999	-0.149453
H115	H	0.598748	-0.256819	-0.149474
H116	H	0.560817	-0.193783	-0.000017
H117	H	0.678124	-0.189925	0.149469
H118	H	0.833363	-0.249105	0.149490
C119	C	1.231770	-0.190607	0.000124
C120	C	1.299170	-0.188387	0.086020
C121	C	1.388380	-0.222389	0.086038
C122	C	1.410189	-0.258610	0.000159
C123	C	1.342787	-0.260831	-0.085743
C124	C	1.253577	-0.226829	-0.085761
H125	H	1.283027	-0.161573	0.149598
H126	H	1.438275	-0.220745	0.149629
H127	H	1.476228	-0.283780	0.000172
H128	H	1.358930	-0.287645	-0.149321
H129	H	1.203682	-0.228473	-0.149352
C130	C	1.184398	-0.002151	0.769945
C131	C	1.184405	-0.002151	0.884453
C132	C	1.251817	-0.038245	0.941718
C133	C	1.319221	-0.074338	0.884477
C134	C	1.319216	-0.074338	0.769963
C135	C	1.251804	-0.038245	0.712697
H136	H	1.134506	0.024568	0.926832
H137	H	1.251820	-0.038244	1.026489
H138	H	1.369123	-0.101057	0.926868
H139	H	1.369115	-0.101058	0.727583
H140	H	1.251801	-0.038245	0.627926
H141	H	0.944510	0.126291	0.566188
C142	C	0.926976	0.135661	0.230222
C143	C	0.859609	0.171773	0.287467
C144	C	0.792196	0.207867	0.230205
C145	C	0.792149	0.207849	0.115697
C146	C	0.859518	0.171736	0.058446
C147	C	0.926932	0.135642	0.115709
H148	H	0.859642	0.171787	0.372238
H149	H	0.742324	0.234600	0.272587
H150	H	0.742245	0.234568	0.073308
H151	H	0.859486	0.171721	-0.026325
H152	H	0.976803	0.108908	0.073327
H153	H	0.825590	-0.447069	0.000026
H154	H	1.166844	0.007223	0.245133
C155	C	0.879609	-0.675872	0.000034
C156	C	0.857817	-0.639649	0.085913
C157	C	0.768609	-0.605646	0.085911
C158	C	0.701193	-0.607866	0.000030
C159	C	0.722983	-0.644090	-0.085855
C160	C	0.812191	-0.678093	-0.085853
H161	H	0.907724	-0.638005	0.149493
H162	H	0.752478	-0.578831	0.149490
H163	H	0.635156	-0.582695	0.000029
H164	H	0.673076	-0.645734	-0.149435
H165	H	0.828322	-0.704908	-0.149432
C166	C	1.308970	-0.428238	0.000108
C167	C	1.376370	-0.426012	0.086003
C168	C	1.465583	-0.460011	0.086026
C169	C	1.487397	-0.496235	0.000155
C170	C	1.419996	-0.498462	-0.085747
C171	C	1.330783	-0.464463	-0.085770
H172	H	1.360223	-0.399195	0.149576
H173	H	1.515477	-0.458362	0.149617
H174	H	1.553438	-0.521403	0.000172
H175	H	1.436143	-0.525278	-0.149320
H176	H	1.280888	-0.466112	-0.149361
H177	H	0.763700	0.148973	0.000034
H178	H	1.284675	-0.479196	0.000090
H179	H	0.475989	0.146035	0.000055
H180	H	0.306753	0.144307	0.000083
H181	H	0.804613	-0.010785	0.000099
H182	H	1.287519	-0.327947	0.000113
C183	C	0.803256	-0.392835	0.000006
C184	C	0.736081	-0.381191	0.085868
C185	C	0.645821	-0.402625	0.085840
C186	C	0.622735	-0.435702	-0.000050
C187	C	0.689912	-0.447347	-0.085917
C188	C	0.780172	-0.425914	-0.085889
H189	H	0.753169	-0.356704	0.149454
H190	H	0.596093	-0.394004	0.149406
H191	H	0.555920	-0.451568	-0.000070
H192	H	0.672824	-0.471834	-0.149504
H193	H	0.829900	-0.434534	-0.149455
H194	H	1.198752	-0.705418	0.000080
H195	H	0.901062	-0.776167	0.000044
H196	H	1.197022	-0.796891	0.000066
H197	H	0.912624	-0.161067	0.000110
H198	H	0.914351	-0.069592	0.000102
H199	H	0.823869	-0.538525	0.000021
H200	H	0.944501	0.126285	0.433970
H201	H	1.166850	0.007223	0.433988
H202	H	0.944534	0.126295	0.755047
