data_functionalizedCrystal
_audit_creation_method	'MofGen! by Chris Wilmer'
_symmetry_space_group_name_H-M	'P1'
_symmetry_Int_Tables_number	1
_symmetry_cell_setting	triclinic
loop_
_symmetry_equiv_pos_as_xyz
  x,y,z
_cell_length_a	15.538191
_cell_length_b	27.732048
_cell_length_c	14.750779
_cell_angle_alpha	77.459753
_cell_angle_beta	97.572172
_cell_angle_gamma	64.957374
loop_
_atom_site_label
_atom_site_type_symbol
_atom_site_fract_x
_atom_site_fract_y
_atom_site_fract_z
O1	O	1.231553	-0.143284	-0.079812
O2	O	0.956477	-0.087327	-0.079821
O3	O	1.102563	-0.187172	-0.079798
O4	O	1.085467	-0.043439	-0.079835
O5	O	1.143860	-0.215394	0.079859
O6	O	0.997774	-0.115550	0.079836
O7	O	1.272849	-0.171506	0.079845
Zn8	Zn	1.141868	-0.148009	0.105189
Zn9	Zn	1.087458	-0.110825	-0.105165
O10	O	1.126764	-0.071662	0.079822
C11	C	0.941944	-0.095584	0.000007
C12	C	0.837116	-0.078145	0.000004
C13	C	0.551855	-0.251395	0.000034
C14	C	0.453349	-0.234996	0.000029
C15	C	0.429558	-0.142756	0.000005
C16	C	0.528065	-0.159148	0.000015
C17	C	0.589206	-0.213468	0.000028
C18	C	0.565415	-0.121222	0.000009
C19	C	0.663912	-0.137612	0.000014
C20	C	0.725059	-0.191928	0.000024
C21	C	0.687703	-0.229858	0.000032
C22	C	0.504271	-0.066901	-0.000011
C23	C	0.541621	-0.028974	-0.000017
C24	C	0.640122	-0.045365	-0.000005
C25	C	0.701268	-0.099682	0.000005
C26	C	0.677478	-0.007436	-0.000014
C27	C	0.775975	-0.023826	-0.000009
C28	C	0.799765	-0.116072	0.000010
C29	C	1.122853	-0.219229	0.000033
C30	C	1.121775	-0.272700	0.000041
C31	C	1.201288	-0.625155	-0.000006
C32	C	1.197277	-0.826125	-0.000019
O33	O	1.269986	-0.869854	-0.000059
N34	N	1.110657	-0.830382	-0.000021
C35	C	1.025032	-0.784391	-0.000026
O36	O	0.951262	-0.792622	-0.000038
C37	C	1.029042	-0.583422	-0.000019
C38	C	1.115670	-0.579170	-0.000008
C39	C	1.287908	-0.620901	0.000005
C40	C	1.288911	-0.570663	0.000014
C41	C	1.203294	-0.524678	0.000012
C42	C	1.116673	-0.528931	0.000001
C43	C	0.943416	-0.537431	-0.000031
C44	C	0.944426	-0.487187	-0.000032
C45	C	1.031054	-0.482935	-0.000020
C46	C	1.032059	-0.432708	0.000008
N47	N	1.118679	-0.428450	0.000010
C48	C	1.204296	-0.474435	0.000012
C49	C	1.022934	-0.889905	-0.000028
C50	C	1.021931	-0.940147	-0.000028
C51	C	1.194176	-0.981877	-0.000022
C52	C	1.195179	-0.931635	-0.000016
C53	C	1.109554	-0.885648	-0.000026
C54	C	1.206396	-0.368929	0.000031
C55	C	1.207393	-0.318685	0.000043
C56	C	1.035147	-0.276959	0.000033
C57	C	1.034152	-0.327199	0.000025
C58	C	1.119783	-0.373185	0.000021
O59	O	0.959386	-0.388955	0.000036
O60	O	1.278050	-0.466189	0.000002
C61	C	1.200285	-0.675394	-0.000014
C62	C	1.113664	-0.679647	-0.000025
C63	C	1.028046	-0.633662	-0.000027
C64	C	1.112662	-0.729890	-0.000025
C65	C	1.198279	-0.775875	-0.000023
C66	C	1.284899	-0.771617	-0.000021
C67	C	1.285902	-0.721379	-0.000012
C68	C	0.941427	-0.637920	-0.000029
C69	C	0.940431	-0.688160	-0.000036
C70	C	1.026048	-0.734145	-0.000034
C71	C	1.287382	-0.163249	0.000015
C72	C	1.392208	-0.180687	0.000012
C73	C	1.106473	-0.039604	-0.000011
C74	C	1.107549	0.013868	-0.000025
N75	N	1.179009	-0.173388	0.248751
N76	N	1.050325	-0.085451	-0.248727
C77	C	0.946598	-0.014593	0.600532
C78	C	0.972630	-0.032375	0.701036
C79	C	1.102015	-0.120767	0.701019
C80	C	1.075991	-0.102994	0.600514
C81	C	0.998282	-0.049906	0.550278
C82	C	1.127675	-0.138307	0.550259
C83	C	1.101655	-0.120534	0.449763
C84	C	1.023951	-0.067447	0.399521
C85	C	0.972262	-0.032133	0.449782
C86	C	1.205388	-0.191393	0.600497
C87	C	1.257072	-0.226706	0.550242
C88	C	1.231048	-0.208935	0.449744
C89	C	1.153344	-0.155848	0.399502
C90	C	1.282737	-0.244249	0.399483
C91	C	1.256717	-0.226476	0.298986
C92	C	1.127325	-0.138075	0.299005
H93	H	0.491826	0.015254	-0.000031
H94	H	0.806388	0.007056	-0.000005
F95	F	0.829888	-0.209371	0.000023
H96	H	0.601642	-0.295628	0.000050
F97	F	0.929735	-0.944669	-0.000023
H98	H	0.908977	0.011095	0.408878
H99	H	1.298805	-0.255232	0.258069
H100	H	1.320346	-0.269930	0.591155
H101	H	0.737490	-0.274091	0.000049
H102	H	0.874697	-0.449744	-0.000041
H103	H	1.346015	-0.287472	0.440398
H104	H	1.002770	-0.052976	0.317690
H105	H	0.422944	-0.265884	0.000032
H106	H	0.883313	0.028635	0.559629
H107	H	0.871704	-0.600480	-0.000033
F108	F	0.917614	0.005217	0.754513
F109	F	1.044608	-0.081575	0.245539
F110	F	1.184719	-0.177265	0.754491
H111	H	0.849552	-0.160306	0.000026
F112	F	0.364476	-0.084946	-0.000015
F113	F	1.233080	-0.210305	0.707455
F114	F	0.612392	0.050376	-0.000043
H115	H	0.424068	-0.053558	-0.000018
F116	F	1.379043	-0.669838	0.000007
H117	H	1.277939	-0.315229	0.000055
F118	F	0.851213	-0.541943	-0.000048
F119	F	1.381108	-0.566142	0.000005
F120	F	1.297535	-0.417864	0.000025
H121	H	1.265719	-0.928178	-0.000007
F122	F	0.944032	-0.228011	0.000031
H123	H	1.263889	-1.019327	-0.000020
H124	H	0.963619	-0.330665	0.000043
F125	F	1.378103	-0.716861	-0.000005
F126	F	0.931793	-0.840965	-0.000038
F127	F	1.376021	-0.820568	-0.000013
H128	H	0.869885	-0.691615	-0.000038
