data_functionalizedCrystal
_audit_creation_method	'MofGen! by Chris Wilmer'
_symmetry_space_group_name_H-M	'P1'
_symmetry_Int_Tables_number	1
_symmetry_cell_setting	triclinic
loop_
_symmetry_equiv_pos_as_xyz
  x,y,z
_cell_length_a	14.853567
_cell_length_b	15.625429
_cell_length_c	13.930277
_cell_angle_alpha	71.918299
_cell_angle_beta	89.995755
_cell_angle_gamma	83.949492
loop_
_atom_site_label
_atom_site_type_symbol
_atom_site_fract_x
_atom_site_fract_y
_atom_site_fract_z
O1	O	1.196369	0.117702	-0.120732
O2	O	0.933910	0.131723	-0.125628
O3	O	1.072149	-0.006515	-0.077498
O4	O	1.058130	0.255940	-0.168861
O5	O	1.072130	-0.006518	0.082164
O6	O	0.933890	0.131720	0.034035
O7	O	1.196350	0.117699	0.038931
Zn8	Zn	1.065117	0.124709	0.061833
Zn9	Zn	1.065142	0.124713	-0.148530
O10	O	1.058110	0.255937	-0.009199
C11	C	0.900311	0.131086	-0.045578
C12	C	0.800228	0.129182	-0.044921
C13	C	0.387693	0.039018	-0.013513
C14	C	0.366413	0.203249	-0.070684
C15	C	0.460447	0.205039	-0.071310
C16	C	0.518108	0.123817	-0.043039
C17	C	0.481736	0.040806	-0.014141
C18	C	0.496827	0.288049	-0.100217
C19	C	0.590866	0.289842	-0.100845
C20	C	0.648529	0.208620	-0.072567
C21	C	0.612151	0.125605	-0.043667
C22	C	0.669813	0.044383	-0.015395
C23	C	0.633437	-0.038633	0.013512
C24	C	0.539399	-0.040417	0.014138
C25	C	0.742566	0.210404	-0.073193
C26	C	0.763855	0.046171	-0.016024
C27	C	1.071504	-0.040105	0.014023
C28	C	1.069600	-0.140187	0.048856
C29	C	1.063363	-0.469339	-0.271708
C30	C	1.061569	-0.563381	-0.238948
C31	C	1.061549	-0.563370	-0.064895
C32	C	1.063347	-0.469327	-0.097640
C33	C	1.064253	-0.422318	-0.201048
C34	C	1.064236	-0.422306	-0.026980
C35	C	1.066030	-0.328271	-0.059724
C36	C	1.066933	-0.281255	-0.163128
C37	C	1.066046	-0.328283	-0.233792
C38	C	1.063324	-0.469316	0.076427
C39	C	1.064214	-0.422296	0.147087
C40	C	1.066013	-0.328259	0.114344
C41	C	1.066917	-0.281243	0.010940
C42	C	1.066901	-0.281232	0.185008
C43	C	1.068694	-0.187196	0.152264
C44	C	1.068710	-0.187208	-0.021804
C45	C	1.229948	0.118336	-0.041121
C46	C	1.330032	0.120239	-0.041784
C47	C	1.058755	0.289527	-0.100722
C48	C	1.060660	0.389609	-0.135562
N49	N	1.065106	0.124706	0.205400
N50	N	1.065160	0.124709	-0.292095
C51	C	1.003928	0.185901	0.636363
C52	C	1.126382	0.063518	0.678942
C53	C	1.126371	0.063515	0.578447
C54	C	1.065139	0.124707	0.506905
C55	C	1.003917	0.185902	0.535858
C56	C	1.187598	0.002328	0.549485
C57	C	1.187591	0.002323	0.448985
C58	C	1.126353	0.063511	0.377442
C59	C	1.065128	0.124708	0.406400
C60	C	1.003895	0.185900	0.334858
C61	C	0.942665	0.247093	0.363816
C62	C	0.942679	0.247090	0.464315
C63	C	1.126339	0.063514	0.276942
C64	C	1.003884	0.185901	0.234353
H65	H	0.509773	-0.108004	0.037695
C66	C	1.254950	-0.064979	0.628185
N67	N	1.305679	-0.115678	0.687469
H68	H	1.176241	0.013702	0.737193
C69	C	1.254938	-0.064997	0.417143
N70	N	1.305661	-0.115706	0.393161
H71	H	1.176196	0.013696	0.253368
H72	H	0.620474	0.357438	-0.124383
H73	H	0.680397	-0.104763	0.036523
H74	H	1.066154	-0.319519	0.269203
H75	H	1.060808	-0.601657	0.019301
C76	C	0.347679	-0.052295	0.018283
N77	N	0.317540	-0.121073	0.042231
H78	H	1.069456	-0.148932	-0.106009
H79	H	0.319460	0.269375	-0.093709
C80	C	1.063214	-0.474015	0.260833
N81	N	1.062462	-0.512970	0.346508
C82	C	1.060566	-0.615096	-0.316690
N83	N	1.059799	-0.654047	-0.375244
C84	C	1.069677	-0.135471	0.229994
N85	N	1.070417	-0.096512	0.288542
C86	C	0.936545	0.253241	0.155654
N87	N	0.885834	0.303971	0.096376
H88	H	1.066792	-0.290006	-0.317997
H89	H	1.068383	-0.204684	-0.189787
H90	H	0.892828	0.296912	0.487899
C91	C	0.433395	0.377386	-0.131312
N92	N	0.385613	0.444678	-0.154730
H93	H	0.772180	0.277994	-0.096727
H94	H	0.892813	0.296919	0.305553
C95	C	1.061362	-0.572760	0.112444
N96	N	1.059890	-0.650675	0.139571
H97	H	0.810798	-0.019971	0.007002
C98	C	1.064364	-0.417624	-0.385463
N99	N	1.065115	-0.378673	-0.471139
C100	C	0.936571	0.253204	0.668220
N101	N	0.885837	0.303895	0.692216
