data_functionalizedCrystal
_audit_creation_method	'MofGen! by Chris Wilmer'
_symmetry_space_group_name_H-M	'P1'
_symmetry_Int_Tables_number	1
_symmetry_cell_setting	triclinic
loop_
_symmetry_equiv_pos_as_xyz
  x,y,z
_cell_length_a	18.101395
_cell_length_b	18.101398
_cell_length_c	16.120256
_cell_angle_alpha	87.130576
_cell_angle_beta	92.874436
_cell_angle_gamma	89.973721
loop_
_atom_site_label
_atom_site_type_symbol
_atom_site_fract_x
_atom_site_fract_y
_atom_site_fract_z
Zn1	Zn	-0.316196	-1.110882	-0.471592
Zn2	Zn	0.017137	-0.777548	-0.138259
Zn3	Zn	0.350470	-0.444215	0.195075
Zn4	Zn	-0.433757	-1.117056	-0.332184
Zn5	Zn	-0.100423	-0.783723	0.001149
Zn6	Zn	0.232910	-0.450389	0.334483
Zn7	Zn	-0.309923	-0.993320	-0.332174
Zn8	Zn	0.023411	-0.659986	0.001159
Zn9	Zn	0.356744	-0.326653	0.334493
Zn10	Zn	-0.439987	-0.986994	-0.471527
Zn11	Zn	-0.106654	-0.653661	-0.138194
Zn12	Zn	0.226680	-0.320328	0.195140
O13	O	-0.374966	-1.052063	-0.401869
O14	O	-0.041632	-0.718730	-0.068536
O15	O	0.291701	-0.385396	0.264797
O16	O	-0.331809	-1.215332	-0.453131
O17	O	0.001524	-0.881999	-0.119797
O18	O	0.334858	-0.548665	0.213536
O19	O	-0.412097	-1.105873	-0.215520
O20	O	-0.078764	-0.772540	0.117813
O21	O	0.254570	-0.439207	0.451146
O22	O	-0.207123	-1.008978	-0.350691
O23	O	0.126210	-0.675644	-0.017358
O24	O	0.459544	-0.342311	0.315976
O25	O	-0.418180	-1.219868	-0.350708
O26	O	-0.084847	-0.886535	-0.017375
O27	O	0.248486	-0.553202	0.315958
O28	O	-0.211732	-1.095350	-0.453121
O29	O	0.121601	-0.762017	-0.119788
O30	O	0.454935	-0.428683	0.213546
O31	O	-0.321117	-1.014965	-0.215513
O32	O	0.012217	-0.681631	0.117820
O33	O	0.345550	-0.348298	0.451154
O34	O	-0.327158	-0.888849	-0.350628
O35	O	0.006175	-0.555516	-0.017295
O36	O	0.339509	-0.222182	0.316039
O37	O	-0.428799	-0.998197	-0.588198
O38	O	-0.095465	-0.664864	-0.254865
O39	O	0.237868	-0.331530	0.078469
O40	O	-0.422716	-0.884202	-0.453010
O41	O	-0.089382	-0.550868	-0.119677
O42	O	0.243951	-0.217535	0.213657
O43	O	-0.337850	-1.089216	-0.588246
O44	O	-0.004517	-0.755883	-0.254913
O45	O	0.328817	-0.422550	0.078421
O46	O	-0.538215	-1.099740	-0.350645
O47	O	-0.204882	-0.766407	-0.017312
O48	O	0.128452	-0.433073	0.316021
O49	O	-0.542792	-1.004184	-0.453020
O50	O	-0.209459	-0.670851	-0.119687
O51	O	0.123874	-0.337517	0.213647
C52	C	-0.567375	-1.051965	-0.401845
C53	C	-0.234042	-0.718632	-0.068511
C54	C	0.099291	-0.385298	0.264822
C55	C	-0.649690	-1.051989	-0.401862
C56	C	-0.316357	-0.718656	-0.068529
C57	C	0.016977	-0.385323	0.264805
C58	C	-0.374933	-0.859655	-0.401811
C59	C	-0.041599	-0.526322	-0.068478
C60	C	0.291734	-0.192988	0.264855
C61	C	-0.374937	-0.777341	-0.401806
C62	C	-0.041604	-0.444008	-0.068473
C63	C	0.291729	-0.110674	0.264860
C64	C	-0.384719	-1.042312	-0.619317
C65	C	-0.051386	-0.708979	-0.285984
C66	C	0.281947	-0.375646	0.047350
C67	C	-0.388876	-1.038157	-0.711980
C68	C	-0.055542	-0.704824	-0.378647
C69	C	0.277791	-0.371491	-0.045314
C70	C	-0.948783	-1.052150	-0.401907
C71	C	-0.615450	-0.718817	-0.068574
C72	C	-0.282116	-0.385483	0.264760
C73	C	-0.920376	-0.992154	-0.466478
C74	C	-0.587042	-0.658821	-0.133145
C75	C	-0.253709	-0.325488	0.200188
C76	C	-0.834749	-0.991892	-0.466276
C77	C	-0.501415	-0.658559	-0.132943
C78	C	-0.168082	-0.325225	0.200390
C79	C	-0.800400	-1.052070	-0.401886
C80	C	-0.467066	-0.718737	-0.068552
C81	C	-0.133733	-0.385404	0.264781
C82	C	-0.827586	-1.034898	-0.314019
C83	C	-0.494253	-0.701565	0.019314
C84	C	-0.160919	-0.368232	0.352647
C85	C	-0.913249	-1.034513	-0.314406
C86	C	-0.579915	-0.701180	0.018928
C87	C	-0.246582	-0.367846	0.352261
C88	C	-0.918149	-1.129477	-0.424429
C89	C	-0.584816	-0.796144	-0.091095
C90	C	-0.251482	-0.462811	0.242238
C91	C	-0.832585	-1.128930	-0.426355
C92	C	-0.499252	-0.795597	-0.093022
C93	C	-0.165918	-0.462263	0.240311
C94	C	-0.716539	-1.052027	-0.401868
C95	C	-0.383206	-0.718693	-0.068535
C96	C	-0.049873	-0.385360	0.264799
C97	C	-1.032643	-1.052192	-0.401919
C98	C	-0.699310	-0.718859	-0.068585
C99	C	-0.365976	-0.385525	0.264748
C100	C	-0.181806	-1.052181	-0.401912
C101	C	0.151528	-0.718847	-0.068579
C102	C	0.484861	-0.385514	0.264754
C103	C	-0.099492	-1.052231	-0.401930
C104	C	0.233841	-0.718897	-0.068597
C105	C	0.567174	-0.385564	0.264736
C106	C	-0.374947	-0.626631	-0.401834
C107	C	-0.041614	-0.293298	-0.068501
C108	C	0.291720	0.040035	0.264833
C109	C	-0.314746	-0.598172	-0.337523
C110	C	0.018587	-0.264839	-0.004190
C111	C	0.351921	0.068495	0.329143
C112	C	-0.314536	-0.512545	-0.337729
C113	C	0.018797	-0.179211	-0.004395
C114	C	0.352131	0.154122	0.328938
C115	C	-0.374956	-0.478248	-0.401860
C116	C	-0.041623	-0.144914	-0.068527
C117	C	0.291710	0.188419	0.264807
C118	C	-0.358092	-0.505426	-0.489820
C119	C	-0.024758	-0.172093	-0.156487
C120	C	0.308575	0.161241	0.176846
C121	C	-0.357654	-0.591088	-0.489433
C122	C	-0.024320	-0.257755	-0.156100
C123	C	0.309013	0.075578	0.177233
C124	C	-0.452195	-0.596058	-0.378958
C125	C	-0.118861	-0.262725	-0.045625
C126	C	0.214472	0.070609	0.287709
C127	C	-0.451691	-0.510493	-0.377036
C128	C	-0.118358	-0.177160	-0.043702
C129	C	0.214975	0.156174	0.289631
C130	C	-0.374963	-0.394387	-0.401880
C131	C	-0.041630	-0.061054	-0.068546
C132	C	0.291703	0.272279	0.264787
C133	C	-0.374939	-0.710491	-0.401820
C134	C	-0.041605	-0.377158	-0.068487
C135	C	0.291728	-0.043825	0.264847
C136	C	-0.374987	-0.245223	-0.401911
C137	C	-0.041654	0.088111	-0.068578
C138	C	0.291679	0.421444	0.264755
C139	C	-0.374966	-0.327538	-0.401887
C140	C	-0.041633	0.005795	-0.068554
C141	C	0.291700	0.339129	0.264779
C142	C	-0.353272	-1.073730	-0.922948
C143	C	-0.019938	-0.740397	-0.589614
C144	C	0.313395	-0.407063	-0.256281
C145	C	-0.396433	-1.030546	-0.881632
C146	C	-0.063100	-0.697213	-0.548299
C147	C	0.270233	-0.363880	-0.214965
C148	C	-0.392227	-1.034782	-0.787229
C149	C	-0.058894	-0.701449	-0.453896
C150	C	0.274440	-0.368116	-0.120562
C151	C	-0.357477	-1.069495	-1.017359
C152	C	-0.024144	-0.736162	-0.684026
C153	C	0.309189	-0.402828	-0.350693
C154	C	-0.365197	-1.061818	-0.185267
C155	C	-0.031863	-0.728485	0.148066
C156	C	0.301470	-0.395151	0.481399
C157	C	-0.360832	-1.066117	-0.092605
C158	C	-0.027498	-0.732783	0.240729
C159	C	0.305835	-0.399450	0.574062
H160	H	-0.816624	-1.002177	-0.531428
H161	H	-0.483291	-0.668844	-0.198095
H162	H	-0.149958	-0.335510	0.135239
Cl163	Cl	-0.805652	-1.149037	-0.526193
Cl164	Cl	-0.472319	-0.815704	-0.192860
Cl165	Cl	-0.138985	-0.482371	0.140473
Cl166	Cl	-0.422764	-0.619675	-0.565973
Cl167	Cl	-0.089430	-0.286342	-0.232639
Cl168	Cl	0.243903	0.046991	0.100694
Cl169	Cl	-0.477175	-0.633727	-0.281585
Cl170	Cl	-0.143842	-0.300394	0.051748
Cl171	Cl	0.189491	0.032940	0.385082
Cl172	Cl	-0.226043	-0.479891	-0.361177
Cl173	Cl	0.107290	-0.146558	-0.027843
Cl174	Cl	0.440624	0.186776	0.305490
Cl175	Cl	-0.458364	-0.968555	-0.936480
Cl176	Cl	-0.125030	-0.635222	-0.603146
Cl177	Cl	0.208303	-0.301889	-0.269813
Cl178	Cl	-0.802165	-0.903274	-0.443246
Cl179	Cl	-0.468832	-0.569941	-0.109912
Cl180	Cl	-0.135498	-0.236608	0.223421
Cl181	Cl	-0.952686	-0.904071	-0.443753
Cl182	Cl	-0.619353	-0.570737	-0.110419
Cl183	Cl	-0.286020	-0.237404	0.222914
H184	H	-0.931725	-1.076530	-0.264654
H185	H	-0.598392	-0.743197	0.068680
H186	H	-0.265059	-0.409863	0.402013
H187	H	-0.942539	-1.145905	-0.487410
H188	H	-0.609206	-0.812571	-0.154076
H189	H	-0.275873	-0.479238	0.179257
H190	H	-0.943873	-1.002299	-0.531841
H191	H	-0.610539	-0.668965	-0.198508
H192	H	-0.277206	-0.335632	0.134826
Cl193	Cl	-0.942861	-0.947423	-0.284955
Cl194	Cl	-0.609528	-0.614090	0.048379
Cl195	Cl	-0.276194	-0.280757	0.381712
Cl196	Cl	-0.792702	-1.100509	-0.237710
Cl197	Cl	-0.459368	-0.767176	0.095624
Cl198	Cl	-0.126035	-0.433843	0.428957
Cl199	Cl	-0.291338	-1.135709	-0.868099
Cl200	Cl	0.041995	-0.802376	-0.534766
Cl201	Cl	0.375329	-0.469042	-0.201432
Cl202	Cl	-0.423988	-0.470600	-0.565848
Cl203	Cl	-0.090655	-0.137267	-0.232514
Cl204	Cl	0.242678	0.196067	0.100819
H205	H	-0.936281	-1.174128	-0.377399
H206	H	-0.602948	-0.840794	-0.044066
H207	H	-0.269615	-0.507461	0.289268
Cl208	Cl	-0.796491	-1.201108	-0.359044
Cl209	Cl	-0.463158	-0.867775	-0.025711
Cl210	Cl	-0.129825	-0.534441	0.307623
Cl211	Cl	-0.793217	-0.948766	-0.284038
Cl212	Cl	-0.459883	-0.615433	0.049295
Cl213	Cl	-0.126550	-0.282100	0.382629
Cl214	Cl	-0.330051	-0.484565	-0.237046
Cl215	Cl	0.003282	-0.151232	0.096287
Cl216	Cl	0.336616	0.182102	0.429621
H217	H	-0.257747	-0.619044	-0.352516
H218	H	0.075586	-0.285711	-0.019183
H219	H	0.408920	0.047622	0.314151
Cl220	Cl	-0.330006	-0.634463	-0.236515
Cl221	Cl	0.003327	-0.301130	0.096819
Cl222	Cl	0.336661	0.032203	0.430152
H223	H	-0.301315	-0.610222	-0.508769
H224	H	0.032018	-0.276889	-0.175436
H225	H	0.365351	0.056444	0.157898
H226	H	-0.302400	-0.483120	-0.509494
H227	H	0.030933	-0.149786	-0.176161
H228	H	0.364267	0.183547	0.157172
Cl229	Cl	-0.471451	-0.483564	-0.277091
Cl230	Cl	-0.138117	-0.150231	0.056242
Cl231	Cl	0.195216	0.183103	0.389576
H232	H	-0.498602	-0.487151	-0.420428
H233	H	-0.165269	-0.153818	-0.087094
H234	H	0.168064	0.179516	0.246239
H235	H	-0.496995	-0.614222	-0.425799
H236	H	-0.163661	-0.280889	-0.092465
H237	H	0.169672	0.052444	0.240868
