data_functionalizedCrystal
_audit_creation_method	'MofGen! by Chris Wilmer'
_symmetry_space_group_name_H-M	'P1'
_symmetry_Int_Tables_number	1
_symmetry_cell_setting	triclinic
loop_
_symmetry_equiv_pos_as_xyz
  x,y,z
_cell_length_a	13.897449
_cell_length_b	16.625539
_cell_length_c	13.897448
_cell_angle_alpha	90.027549
_cell_angle_beta	89.981481
_cell_angle_gamma	89.977908
loop_
_atom_site_label
_atom_site_type_symbol
_atom_site_fract_x
_atom_site_fract_y
_atom_site_fract_z
Zn1	Zn	1.474690	-0.455946	0.383992
Zn2	Zn	1.474588	-0.321115	0.545305
Zn3	Zn	1.313383	-0.321123	0.384028
Zn4	Zn	1.313361	-0.455902	0.545249
O5	O	1.394006	-0.388522	0.464643
O6	O	1.609658	-0.438076	0.405399
O7	O	1.453170	-0.208284	0.523950
O8	O	1.334833	-0.339030	0.249042
O9	O	1.609583	-0.339016	0.523915
O10	O	1.453345	-0.438084	0.249015
O11	O	1.334734	-0.208290	0.405460
O12	O	1.178399	-0.338987	0.405406
O13	O	1.334795	-0.568740	0.523819
O14	O	1.178382	-0.438008	0.523854
O15	O	1.453323	-0.568773	0.405344
O16	O	1.453149	-0.338973	0.680279
O17	O	1.334696	-0.438000	0.680238
C18	C	1.143391	-0.388494	0.464629
C19	C	1.036177	-0.388501	0.464645
C20	C	0.949108	-0.388514	0.464649
C21	C	0.839875	-0.388539	0.464655
C22	C	1.394068	-0.598831	0.464572
C23	C	1.394095	-0.688452	0.464541
C24	C	1.394139	-1.016628	0.464433
C25	C	1.394124	-0.925319	0.464466
C26	C	1.394118	-0.852543	0.464488
C27	C	1.394102	-0.761228	0.464519
C28	C	1.645599	-0.388550	0.464659
C29	C	1.752812	-0.388563	0.464666
C30	C	1.393935	-0.388498	0.715258
C31	C	1.393993	-0.388515	0.822472
C32	C	1.393999	-0.179031	0.464645
C33	C	1.394159	-0.089410	0.464404
C34	C	1.394103	-0.388563	0.213050
C35	C	1.394144	-0.388580	0.105836
C36	C	1.394095	-0.388566	1.018767
C37	C	1.394036	-0.388540	0.909534
