data_functionalizedCrystal
_audit_creation_method	'MofGen! by Chris Wilmer'
_symmetry_space_group_name_H-M	'P1'
_symmetry_Int_Tables_number	1
_symmetry_cell_setting	triclinic
loop_
_symmetry_equiv_pos_as_xyz
  x,y,z
_cell_length_a	13.635800
_cell_length_b	27.924003
_cell_length_c	11.102300
_cell_angle_alpha	84.502918
_cell_angle_beta	71.394150
_cell_angle_gamma	98.973271
loop_
_atom_site_label
_atom_site_type_symbol
_atom_site_fract_x
_atom_site_fract_y
_atom_site_fract_z
V1	V	-2.031730	-0.067124	0.397036
O2	O	-2.036436	0.003226	0.388676
O3	O	-1.996495	-0.133097	0.395092
O4	O	-2.020490	-0.066092	0.569845
O5	O	-2.012276	-0.064243	0.212713
V6	V	-2.273294	-0.058710	0.374896
O7	O	-2.162791	-0.085583	0.445603
O8	O	-2.367331	-0.040251	0.326329
O9	O	-2.196925	0.007262	0.376840
O10	O	-2.327286	-0.129060	0.383256
O11	O	-2.351446	-0.061591	0.559219
O12	O	-2.172930	-0.059742	0.202087
V13	V	-1.531730	-0.067124	0.397036
O14	O	-1.536436	0.003226	0.388676
O15	O	-1.496495	-0.133097	0.395092
O16	O	-1.520490	-0.066092	0.569845
O17	O	-1.512276	-0.064243	0.212713
V18	V	-1.773294	-0.058710	0.374896
O19	O	-1.662791	-0.085583	0.445603
O20	O	-1.867331	-0.040251	0.326329
O21	O	-1.696925	0.007262	0.376840
O22	O	-1.827286	-0.129060	0.383256
O23	O	-1.851446	-0.061591	0.559219
O24	O	-1.672930	-0.059742	0.202087
C25	C	-1.915892	-0.149179	0.389028
C26	C	-1.927813	-0.203112	0.388591
C27	C	-1.985336	-0.581346	0.269301
C28	C	-1.940530	-0.378636	0.270784
O29	O	-1.911222	-0.346538	0.171925
N30	N	-1.962531	-0.360211	0.387438
C31	C	-1.995729	-0.392466	0.503729
O32	O	-2.013404	-0.372143	0.602983
C33	C	-2.040527	-0.595175	0.502243
C34	C	-2.018534	-0.613598	0.385582
C35	C	-1.963344	-0.599769	0.152649
C36	C	-1.974550	-0.650444	0.152280
C37	C	-2.007749	-0.682695	0.268562
C38	C	-2.029741	-0.664272	0.385213
C39	C	-2.073718	-0.627430	0.618532
C40	C	-2.084913	-0.678109	0.618150
C41	C	-2.062920	-0.696532	0.501489
C42	C	-2.074146	-0.747199	0.501125
N43	N	-2.052145	-0.765624	0.384472
C44	C	-2.018947	-0.733372	0.268190
C45	C	-1.972209	-0.286041	0.504500
C46	C	-1.961012	-0.235364	0.504872
C47	C	-1.905811	-0.221537	0.271928
C48	C	-1.917017	-0.272215	0.271557
C49	C	-1.950209	-0.304466	0.387847
C50	C	-2.042484	-0.839793	0.267423
C51	C	-2.053698	-0.890473	0.267064
C52	C	-2.108892	-0.904296	0.500008
C53	C	-2.097685	-0.853620	0.500368
C54	C	-2.064475	-0.821370	0.384065
O55	O	-2.103437	-0.779325	0.599931
O56	O	-2.001255	-0.753705	0.168949
C57	C	-1.974129	-0.530671	0.269670
C58	C	-1.996121	-0.512248	0.386321
C59	C	-2.029320	-0.544500	0.502603
C60	C	-1.984924	-0.461571	0.386693
C61	C	-1.951725	-0.429320	0.270411
C62	C	-1.929724	-0.447745	0.153758
C63	C	-1.940931	-0.498420	0.153388
C64	C	-2.051321	-0.526075	0.619257
C65	C	-2.040113	-0.475399	0.619617
C66	C	-2.006914	-0.443148	0.503335
C67	C	-1.946499	-0.063707	0.611941
C68	C	-1.977878	-0.063300	0.753218
C69	C	-2.109199	0.023342	0.382900
C70	C	-2.086897	0.077275	0.383346
C71	C	-2.078592	-0.062128	0.159984
C72	C	-2.036832	-0.062534	0.018706
C73	C	-1.415892	-0.149179	0.389028
C74	C	-1.427813	-0.203112	0.388591
C75	C	-1.446499	-0.063707	0.611941
C76	C	-1.477878	-0.063300	0.753218
C77	C	-2.083758	-0.065531	0.826093
C78	C	-2.113235	-0.065146	0.958837
C79	C	-1.930943	-0.060300	0.945820
C80	C	-1.901466	-0.060682	0.813077
C81	C	-1.609199	0.023342	0.382900
C82	C	-1.586897	0.077275	0.383346
C83	C	-1.578592	-0.062128	0.159984
C84	C	-1.536832	-0.062534	0.018706
C85	C	-1.524543	-0.230913	0.394764
C86	C	-1.535763	-0.281591	0.394372
C87	C	-1.450250	-0.304465	0.387799
C88	C	-1.353513	-0.276660	0.381629
C89	C	-1.342296	-0.225985	0.382029
C90	C	-1.662661	0.105076	0.377176
C91	C	-1.641713	0.155753	0.377574
C92	C	-1.545003	0.178627	0.384151
C93	C	-1.469233	0.150823	0.390317
C94	C	-1.490179	0.100147	0.389910
C95	C	-1.583758	-0.065531	0.826093
C96	C	-1.613235	-0.065146	0.958837
C97	C	-1.430943	-0.060300	0.945820
C98	C	-1.401466	-0.060682	0.813077
H99	H	-2.035789	-0.905470	0.172061
H100	H	-2.145979	-0.067662	0.777360
Cl101	Cl	-2.246346	-0.067952	1.050446
H102	H	-1.390491	0.169455	0.395670
H103	H	-1.868735	-0.058170	0.994574
H104	H	-1.815242	-0.058861	0.753739
Cl105	Cl	-1.887995	-0.407190	0.007577
H106	H	-1.315242	-0.058861	0.753739
Cl107	Cl	-2.125353	-0.830461	0.647030
Cl108	Cl	-1.632065	-0.202169	0.403041
H109	H	-1.614538	-0.304222	0.399393
H110	H	-1.878779	-0.195269	0.177246
H111	H	-2.135929	-0.930564	0.594682
Cl112	Cl	-1.464368	-0.368173	0.387292
Cl113	Cl	-1.246018	-0.305424	0.373357
H114	H	-2.015439	-0.813540	0.172718
H115	H	-1.263525	-0.203352	0.376996
H116	H	-1.741413	0.086459	0.371822
Cl117	Cl	-1.394920	0.065203	0.397672
Cl118	Cl	-1.736981	0.190697	0.369826
H119	H	-1.899105	-0.287210	0.176562
Cl120	Cl	-1.518688	0.242335	0.384662
H121	H	-1.645979	-0.067662	0.777360
H122	H	-2.058035	-0.460406	0.714623
H123	H	-1.923020	-0.513414	0.058391
H124	H	-1.368735	-0.058170	0.994574
Cl125	Cl	-1.946895	-0.673595	0.005612
H126	H	-1.936306	-0.573514	0.057953
H127	H	-1.699450	-0.066963	1.018166
H128	H	-1.978940	-0.220370	0.599870
H129	H	-1.999239	-0.312296	0.599203
H130	H	-2.091622	-0.612439	0.713529
H131	H	-2.078352	-0.552330	0.713949
Cl132	Cl	-2.126655	-0.718651	0.764353
