data_functionalizedCrystal
_audit_creation_method	'MofGen! by Chris Wilmer'
_symmetry_space_group_name_H-M	'P1'
_symmetry_Int_Tables_number	1
_symmetry_cell_setting	triclinic
loop_
_symmetry_equiv_pos_as_xyz
  x,y,z
_cell_length_a	23.096457
_cell_length_b	23.196402
_cell_length_c	23.196401
_cell_angle_alpha	60.007332
_cell_angle_beta	90.011366
_cell_angle_gamma	60.002509
loop_
_atom_site_label
_atom_site_type_symbol
_atom_site_fract_x
_atom_site_fract_y
_atom_site_fract_z
Zr1	Zr	0.557822	0.630964	-0.075643
O2	O	0.465361	0.751229	-0.167688
O3	O	0.586157	0.510702	-0.047429
O4	O	0.586141	0.630965	-0.167695
O5	O	0.465401	0.630965	0.047449
O6	O	0.681423	0.630963	-0.167697
O7	O	0.465378	0.630966	-0.047422
O8	O	0.681453	0.415834	0.047437
O9	O	0.465371	0.846093	-0.167684
O10	O	0.669360	0.560165	-0.035394
O11	O	0.598269	0.560166	0.035409
O12	O	0.598250	0.701760	-0.106189
O13	O	0.527159	0.701760	-0.035386
Zr14	Zr	0.709822	0.630958	0.075663
Zr15	Zr	0.709786	0.630961	-0.075646
Zr16	Zr	0.557858	0.630962	0.075666
Zr17	Zr	0.557837	0.782262	-0.075637
Zr18	Zr	0.709807	0.479661	0.075657
O19	O	0.681487	0.751221	0.047449
O20	O	0.681435	0.751224	-0.167692
O21	O	0.465413	0.751226	0.047454
O22	O	0.802283	0.510694	0.167708
O23	O	0.802231	0.510697	-0.047434
O24	O	0.586209	0.510699	0.167713
O25	O	0.802243	0.630958	-0.047429
O26	O	0.681504	0.630958	0.167715
O27	O	0.586221	0.630960	0.167717
O28	O	0.802266	0.630957	0.047442
O29	O	0.586162	0.846090	-0.167687
O30	O	0.681482	0.415832	0.167707
O31	O	0.802273	0.415830	0.167705
O32	O	0.802244	0.415831	0.047434
O33	O	0.465400	0.846091	-0.047414
O34	O	0.586191	0.846088	-0.047416
O35	O	0.669394	0.560163	0.106209
O36	O	0.740486	0.560162	0.035406
O37	O	0.669375	0.701757	-0.035389
O38	O	0.598284	0.701758	0.035414
C39	C	0.633803	0.441712	0.000003
C40	C	0.633796	0.377482	0.000001
C41	C	0.686301	0.295051	0.052260
C42	C	0.686306	0.234691	0.052267
C43	C	0.633811	0.256766	0.000003
C44	C	0.581297	0.339211	-0.052261
C45	C	0.581290	0.399569	-0.052262
C46	C	0.617452	0.201180	-0.063789
C47	C	0.617464	0.140821	-0.063788
C48	C	0.633830	0.070604	0.000006
C49	C	0.650200	0.060744	0.063803
C50	C	0.650192	0.121102	0.063802
C51	C	0.633813	0.191324	-0.000002
C52	C	0.686344	-0.077280	0.052277
C53	C	0.686344	-0.137639	0.052284
C54	C	0.581337	-0.033117	-0.052250
C55	C	0.581335	0.027240	-0.052251
C56	C	0.633841	0.005154	0.000012
C57	C	0.443738	0.630966	0.000014
C58	C	0.379225	0.630967	0.000016
C59	C	0.348910	0.630974	-0.052253
C60	C	0.288297	0.630967	-0.052253
C61	C	0.257995	0.630969	0.000011
C62	C	0.288320	0.630958	0.052289
C63	C	0.348935	0.630957	0.052291
N64	N	0.139651	0.677122	0.015835
N65	N	0.082068	0.677125	0.015828
C66	C	0.075365	0.630969	0.000007
N67	N	0.128415	0.584822	-0.015821
N68	N	0.186002	0.584823	-0.015818
C69	C	0.192268	0.630969	0.000014
C70	C	-0.020672	0.630967	-0.052265
C71	C	-0.081283	0.630954	-0.052260
C72	C	-0.081264	0.630954	0.052279
C73	C	-0.020650	0.630958	0.052277
C74	C	0.009640	0.630968	0.000001
C75	C	0.823906	0.630957	0.000006
C76	C	0.888419	0.630955	0.000005
C77	C	0.633777	0.630964	-0.189254
C78	C	0.633761	0.630965	-0.253489
C79	C	0.633841	0.820211	0.000017
C80	C	0.633848	0.884441	0.000020
C81	C	0.596646	0.704874	-0.320616
C82	C	0.596664	0.704875	-0.380971
C83	C	0.633788	0.630963	-0.374195
C84	C	0.670911	0.557045	-0.307056
C85	C	0.670898	0.557046	-0.246703
C86	C	0.628509	0.574337	-0.441514
C87	C	0.628517	0.574339	-0.501868
C88	C	0.633832	0.630957	-0.560343
C89	C	0.639125	0.687586	-0.558464
C90	C	0.639112	0.687587	-0.498110
C91	C	0.633806	0.630954	-0.439634
C92	C	0.596735	0.704872	-0.692917
C93	C	0.596758	0.704870	-0.753271
C94	C	0.671001	0.557038	-0.679354
C95	C	0.670982	0.557042	-0.619001
C96	C	0.633845	0.630961	-0.625787
C97	C	0.633868	0.630958	0.189275
C98	C	0.633883	0.630957	0.253509
C99	C	0.823887	0.441707	-0.000001
C100	C	0.888393	0.377476	-0.000005
C101	C	0.633848	0.441709	0.189268
C102	C	0.633857	0.377478	0.253500
C103	C	0.823933	0.441704	0.189264
C104	C	0.888454	0.377472	0.253494
C105	C	0.443712	0.820219	-0.189243
C106	C	0.379190	0.884451	-0.253474
C107	C	0.443757	0.820216	0.000021
C108	C	0.379251	0.884447	0.000025
C109	C	0.633796	0.820214	-0.189247
C110	C	0.633787	0.884445	-0.253479
C111	C	0.881560	0.347314	-0.036970
C112	C	0.942164	0.286970	-0.036987
C113	C	1.009602	0.256785	-0.000035
C114	C	1.016435	0.286954	0.036931
C115	C	0.955830	0.347300	0.036944
C116	C	0.670988	0.347313	0.320627
C117	C	0.670994	0.286970	0.380986
C118	C	0.633872	0.256789	0.374216
C119	C	0.596737	0.286960	0.307081
C120	C	0.596728	0.347306	0.246724
C121	C	0.955870	0.347307	0.246699
C122	C	1.016500	0.286963	0.307045
C123	C	1.009714	0.256780	0.374185
C124	C	0.942292	0.286950	0.380979
C125	C	0.881663	0.347298	0.320634
C126	C	0.311775	0.914623	-0.246679
C127	C	0.251144	0.974986	-0.307025
C128	C	0.257930	1.005172	-0.374165
C129	C	0.325352	0.974998	-0.380959
C130	C	0.385981	0.914640	-0.320613
C131	C	0.386085	0.914615	0.036984
C132	C	0.325480	0.974976	0.036985
C133	C	0.258042	1.005162	0.000031
C134	C	0.251210	0.974991	-0.036932
C135	C	0.311814	0.914636	-0.036937
C136	C	0.670915	0.914607	-0.246687
C137	C	0.670921	0.974950	-0.307034
C138	C	0.633793	1.005135	-0.374173
C139	C	0.596664	0.974967	-0.380964
C140	C	0.596663	0.914620	-0.320618
H141	H	0.663518	0.113071	0.115748
C142	C	0.711814	0.380512	0.328088
H143	H	0.733917	0.353906	0.376715
H144	H	0.746938	0.370624	0.306085
H145	H	0.679764	0.437493	0.306080
H146	H	0.196294	0.999579	-0.067019
H147	H	0.826772	0.371850	0.326176
C148	C	0.934837	0.253736	0.454835
H149	H	0.980604	0.213468	0.489796
H150	H	0.909657	0.297049	0.460147
H151	H	0.909659	0.230179	0.460131
C152	C	0.304288	0.881447	-0.077584
H153	H	0.255443	0.908067	-0.099583
H154	H	0.326380	0.891329	-0.112562
H155	H	0.326385	0.824468	-0.045678
C156	C	0.744104	-0.228316	0.109771
H157	H	0.775375	-0.232820	0.140890
H158	H	0.722555	-0.254043	0.135593
H159	H	0.770026	-0.254025	0.088291
C160	C	-0.114584	0.630952	0.109772
H161	H	-0.087844	0.630944	0.140905
H162	H	-0.161978	0.678233	0.088307
H163	H	-0.114476	0.583659	0.135587
C164	C	0.555916	0.253746	0.299643
H165	H	0.561253	0.213479	0.345207
H166	H	0.507078	0.297059	0.274570
H167	H	0.574251	0.230188	0.274574
H168	H	0.701236	0.262412	0.435644
H169	H	0.208700	1.054307	0.000040
H170	H	0.440872	0.890074	-0.326154
H171	H	0.729063	0.167563	0.094825
C172	C	0.711762	0.881412	-0.172841
H173	H	0.733878	0.908019	-0.177449
H174	H	0.679735	0.891305	-0.147756
H175	H	0.746888	0.824430	-0.147766
H176	H	0.306236	0.890048	-0.192016
C177	C	0.963353	0.380475	0.077607
H178	H	0.917605	0.420744	0.072323
H179	H	0.988552	0.337143	0.126225
H180	H	0.988537	0.404020	0.059347
C181	C	1.090656	0.253779	0.299560
H182	H	1.086008	0.280390	0.250930
H183	H	1.115858	0.263672	0.321556
H184	H	1.115844	0.196797	0.321566
C185	C	0.555806	0.786180	-0.328078
H186	H	0.561110	0.775598	-0.282520
H187	H	0.574137	0.816548	-0.353142
H188	H	0.506971	0.816549	-0.353166
C189	C	1.076411	0.190393	0.440559
H190	H	1.117531	0.176749	0.426890
H191	H	1.076433	0.210163	0.467869
H192	H	1.076422	0.143298	0.467858
H193	H	0.729056	0.277060	0.094817
H194	H	0.004032	0.630957	0.094837
C195	C	0.633796	1.071516	-0.440550
H196	H	0.606371	1.085173	-0.481512
H197	H	0.613933	1.118598	-0.440545
H198	H	0.681091	1.051720	-0.440546
C199	C	0.711756	1.008134	-0.299551
H200	H	0.733854	0.981522	-0.250921
H201	H	0.746884	0.998240	-0.321549
H202	H	0.679713	1.065115	-0.321557
C203	C	0.644988	0.749857	-0.622773
H204	H	0.644251	0.741739	-0.658983
H205	H	0.606181	0.803521	-0.639725
H206	H	0.688163	0.742713	-0.609286
H207	H	0.566435	0.999552	-0.435637
C208	C	0.668198	-0.016485	0.133980
H209	H	0.665850	-0.051017	0.124845
H210	H	0.714696	-0.044534	0.163573
H211	H	0.635140	-0.001549	0.156809
C212	C	0.332811	1.008197	-0.454813
H213	H	0.381645	0.981590	-0.450225
H214	H	0.310691	0.998307	-0.479885
H215	H	0.310707	1.065179	-0.479890
H216	H	0.643423	0.733695	-0.496583
H217	H	0.196252	0.999543	-0.301480
C218	C	0.191234	1.071553	-0.440538
H219	H	0.150114	1.085187	-0.426869
H220	H	0.191215	1.118648	-0.467849
H221	H	0.191218	1.051764	-0.467838
H222	H	0.440990	0.890042	0.067081
H223	H	0.331057	0.999531	0.067087
C224	C	0.555809	0.881458	-0.328098
H225	H	0.533693	0.908088	-0.376728
H226	H	0.587834	0.824480	-0.306097
H227	H	0.520681	0.891366	-0.306097
C228	C	0.555928	0.786174	-0.827114
H229	H	0.533805	0.830194	-0.822507
H230	H	0.587968	0.789252	-0.852182
H231	H	0.520808	0.789240	-0.852205
H232	H	0.538594	-0.015141	-0.094804
C233	C	0.744090	-0.101569	0.109770
H234	H	0.775355	-0.159310	0.140902
H235	H	0.770013	-0.080196	0.088302
H236	H	0.722522	-0.080196	0.135585
C237	C	0.555827	0.786178	-0.454819
H238	H	0.533704	0.830200	-0.450216
H239	H	0.587864	0.789257	-0.479893
H240	H	0.520707	0.789238	-0.479903
C241	C	0.254990	0.630964	0.109776
H242	H	0.281731	0.630955	0.140910
H243	H	0.207598	0.678249	0.088307
H244	H	0.255093	0.583676	0.135591
H245	H	0.566496	0.765062	-0.698443
C246	C	1.090616	0.253735	0.077588
H247	H	1.086014	0.280338	0.099608
H248	H	1.115794	0.196757	0.112549
H249	H	1.115803	0.263625	0.045687
H250	H	0.373618	0.630951	0.094856
H251	H	0.633886	0.207651	0.423368
C252	C	0.523586	0.117916	-0.109744
H253	H	0.492325	0.122421	-0.140875
H254	H	0.497659	0.143635	-0.088277
H255	H	0.545147	0.143633	-0.135563
H256	H	0.604138	0.148855	-0.115735
H257	H	0.701229	0.496857	-0.673835
H258	H	0.961408	0.371874	0.192036
C259	C	0.599540	0.278366	-0.133959
H260	H	0.589831	0.275573	-0.171949
H261	H	0.559095	0.325115	-0.140050
H262	H	0.638681	0.282003	-0.133167
C263	C	0.711800	0.475741	-0.545159
H264	H	0.733909	0.431720	-0.549765
H265	H	0.746920	0.472665	-0.520062
H266	H	0.679750	0.472673	-0.520097
C267	C	-0.114625	0.630946	-0.109749
H268	H	-0.155057	0.630931	-0.102258
H269	H	-0.128447	0.678229	-0.154869
H270	H	-0.080938	0.583655	-0.107575
C271	C	0.012658	0.630961	-0.109755
H272	H	-0.014073	0.630949	-0.140879
H273	H	0.012558	0.678244	-0.135573
H274	H	0.060053	0.583670	-0.088278
H275	H	0.624176	0.528233	-0.393906
C276	C	0.523556	0.363495	-0.109751
H277	H	0.531084	0.315742	-0.102270
H278	H	0.478242	0.394853	-0.107583
H279	H	0.525727	0.394863	-0.154872
H280	H	0.624204	0.528232	-0.503393
C281	C	0.807386	0.380510	-0.077624
H282	H	0.812006	0.353904	-0.099645
H283	H	0.782199	0.370619	-0.045729
H284	H	0.782198	0.437492	-0.112596
C285	C	0.555887	0.380475	0.172888
H286	H	0.533788	0.353848	0.177507
H287	H	0.520759	0.437453	0.147800
H288	H	0.587923	0.370570	0.147809
C289	C	0.711744	0.475744	-0.299601
H290	H	0.706430	0.486328	-0.345159
H291	H	0.760576	0.445372	-0.274512
H292	H	0.693407	0.445377	-0.274538
C293	C	0.934636	0.253787	-0.077643
H294	H	0.885792	0.280399	-0.099635
H295	H	0.956721	0.263682	-0.112626
H296	H	0.956742	0.196806	-0.045741
H297	H	0.701123	0.496858	-0.192043
H298	H	0.538531	0.466691	-0.094818
H299	H	0.263610	0.630972	-0.094818
C300	C	0.382231	0.630976	-0.109749
H301	H	0.355495	0.630972	-0.140875
H302	H	0.382133	0.678257	-0.135562
H303	H	0.429625	0.583683	-0.088276
C304	C	1.076260	0.190398	-0.000048
H305	H	1.062525	0.176756	-0.027351
H306	H	1.103686	0.210169	-0.019835
H307	H	1.103686	0.143303	0.047038
