data_functionalizedCrystal
_audit_creation_method	'MofGen! by Chris Wilmer'
_symmetry_space_group_name_H-M	'P1'
_symmetry_Int_Tables_number	1
_symmetry_cell_setting	triclinic
loop_
_symmetry_equiv_pos_as_xyz
  x,y,z
_cell_length_a	27.435584
_cell_length_b	27.434948
_cell_length_c	27.431174
_cell_angle_alpha	60.005483
_cell_angle_beta	60.011353
_cell_angle_gamma	59.993028
loop_
_atom_site_label
_atom_site_type_symbol
_atom_site_fract_x
_atom_site_fract_y
_atom_site_fract_z
O1	O	0.067437	-0.712144	0.595551
O2	O	0.025356	-0.554453	0.479848
O3	O	0.125206	-0.654236	0.479781
O4	O	-0.032412	-0.612361	0.595618
O5	O	0.158328	-0.621117	0.512835
O6	O	0.058479	-0.521333	0.512902
O7	O	0.100560	-0.679025	0.628605
Zn8	Zn	0.084778	-0.594921	0.576001
Zn9	Zn	0.041138	-0.638557	0.532452
O10	O	0.000710	-0.579241	0.628672
N11	N	0.114563	-0.565144	0.605726
N12	N	0.011358	-0.668338	0.502727
C13	C	0.156385	-0.523520	0.904506
C14	C	0.413419	-0.523497	0.647322
C15	C	0.156253	-0.523488	0.647384
C16	C	0.156238	-0.266354	0.647407
C17	C	0.197637	-0.390463	0.688753
C18	C	0.197646	-0.482126	0.688741
C19	C	0.220575	-0.459215	0.711654
C20	C	0.320555	-0.441991	0.659023
C21	C	0.383051	-0.462825	0.638179
C22	C	0.383069	-0.563942	0.676737
C23	C	0.320575	-0.543107	0.697583
C24	C	0.212704	-0.359206	0.627313
C25	C	0.191849	-0.296705	0.606496
C26	C	0.140866	-0.296722	0.708562
C27	C	0.161721	-0.359223	0.729379
C28	C	0.136200	-0.467030	0.703858
C29	C	0.115361	-0.487857	0.683021
C30	C	0.217408	-0.538877	0.631968
C31	C	0.238249	-0.518050	0.652796
C32	C	0.136259	-0.467047	0.811668
C33	C	0.115461	-0.487892	0.874167
C34	C	0.217537	-0.538923	0.874131
C35	C	0.238333	-0.518080	0.811631
C36	C	0.197693	-0.482140	0.780401
C37	C	0.289320	-0.482131	0.688723
C38	C	0.132699	-0.546027	0.973247
C39	C	0.482158	-0.545613	0.624075
C40	C	0.132521	-0.546006	0.624886
C41	C	0.132917	-0.197607	0.625310
C42	C	-0.098217	-0.686189	0.484419
C43	C	-0.006438	-0.686322	0.392891
C44	C	-0.006621	-0.777944	0.484592
C45	C	-0.006606	-0.686315	0.484649
C46	C	-0.029470	-0.709193	0.461638
N47	N	0.538410	-0.565162	0.605628
O48	O	0.742647	-0.575135	0.458625
O49	O	0.742821	-0.691181	0.616169
O50	O	0.742757	-0.690917	0.516248
O51	O	0.742711	-0.575399	0.558546
O52	O	0.643472	-0.657878	0.549405
O53	O	0.643536	-0.658142	0.649326
O54	O	0.643362	-0.542096	0.491782
Zn55	Zn	0.627685	-0.594873	0.575818
Zn56	Zn	0.758498	-0.638404	0.532133
O57	O	0.643426	-0.542360	0.591702
N58	N	0.847774	-0.668115	0.502317
N59	N	0.114542	-0.141354	0.605766
O60	O	-0.032397	0.062987	0.595660
O61	O	0.125155	0.062987	0.479633
O62	O	0.025219	0.062974	0.479910
O63	O	0.067539	0.063001	0.595383
O64	O	0.058343	-0.036320	0.513009
O65	O	0.158279	-0.036306	0.512732
O66	O	0.000728	-0.036306	0.628759
Zn67	Zn	0.084763	-0.052071	0.576000
Zn68	Zn	0.041120	0.078752	0.532392
O69	O	0.100664	-0.036292	0.628482
N70	N	0.011333	0.168036	0.502628
N71	N	0.114782	-0.565197	1.029501
O72	O	0.104681	-0.712124	1.233827
O73	O	-0.011334	-0.554523	1.233839
O74	O	-0.011066	-0.654443	1.233797
O75	O	0.104414	-0.612204	1.233869
O76	O	0.022028	-0.621336	1.134509
O77	O	0.021760	-0.521417	1.134551
O78	O	0.137775	-0.679018	1.134539
Zn79	Zn	0.085022	-0.594961	1.118780
Zn80	Zn	0.041420	-0.638580	1.249597
O81	O	0.137508	-0.579098	1.134580
N82	N	0.011658	-0.668350	1.338876
C83	C	0.037974	-0.518023	0.480435
C84	C	0.161625	-0.641592	0.480351
C85	C	0.087941	-0.715455	0.628017
C86	C	-0.035710	-0.591885	0.628101
C87	C	0.693199	-0.690642	0.652596
C88	C	0.693122	-0.690315	0.528855
C89	C	0.692981	-0.542634	0.455356
C90	C	0.693062	-0.542961	0.579095
C91	C	0.161524	0.013463	0.480164
C92	C	0.037807	0.013324	0.480547
C93	C	-0.035683	0.013341	0.628188
C94	C	0.088076	0.013357	0.627845
C95	C	-0.010764	-0.518114	1.184196
C96	C	-0.010426	-0.641846	1.184125
C97	C	0.137205	-0.715426	1.184182
C98	C	0.136875	-0.591687	1.184231
H99	H	0.103160	-0.437777	0.786243
O100	O	0.215589	-0.652147	0.436877
C101	C	0.215650	-0.600800	0.385441
H102	H	0.167781	-0.572363	0.386084
H103	H	0.242200	-0.614700	0.343934
H104	H	0.237018	-0.573817	0.384713
O105	O	0.257097	-0.573840	0.904371
C106	C	0.315779	-0.582672	0.863369
H107	H	0.315643	-0.575686	0.818824
H108	H	0.345473	-0.630072	0.881410
H109	H	0.333675	-0.549402	0.856719
O110	O	0.098664	-0.769449	0.671425
C111	C	0.091998	-0.761660	0.721745
H112	H	0.098514	-0.717911	0.707406
H113	H	0.126730	-0.800367	0.742991
H114	H	0.045359	-0.760403	0.755529
O115	O	-0.089707	0.013456	0.671593
C116	C	-0.134722	0.064873	0.651171
H117	H	-0.114384	0.100808	0.613988
H118	H	-0.170348	0.082148	0.689651
H119	H	-0.155836	0.053240	0.633363
O120	O	-0.054162	-0.464093	1.184225
C121	C	-0.032670	-0.426944	1.184234
H122	H	0.005651	-0.455658	1.203042
H123	H	-0.070188	-0.398338	1.213063
H124	H	-0.016094	-0.396795	1.136606
H125	H	0.028987	-0.472723	0.444098
O126	O	0.180144	-0.580975	1.184353
C127	C	0.196223	-0.621915	1.235769
H128	H	0.157980	-0.639408	1.271702
H129	H	0.205897	-0.598656	1.253043
H130	H	0.237794	-0.660786	1.224140
O131	O	-0.089740	-0.581133	0.671444
C132	C	-0.126839	-0.522474	0.649852
H133	H	-0.098087	-0.494128	0.611514
H134	H	-0.155440	-0.502481	0.687315
H135	H	-0.156987	-0.523379	0.633269
H136	H	-0.046689	-0.650868	1.184063
H137	H	0.693242	-0.727072	0.697844
O138	O	0.693114	-0.733536	0.517971
C139	C	0.693078	-0.711793	0.459289
H140	H	0.674241	-0.660940	0.443599
H141	H	0.664262	-0.729988	0.458438
H142	H	0.740700	-0.726867	0.428381
O143	O	0.693019	-0.499724	0.589997
C144	C	0.693088	-0.521478	0.648667
H145	H	0.674331	-0.559820	0.676913
H146	H	0.664254	-0.484097	0.668772
H147	H	0.740731	-0.538108	0.647761
O148	O	0.026992	0.013416	0.437219
C149	C	0.033615	0.064828	0.386864
H150	H	0.027155	0.100780	0.401138
H151	H	-0.001176	0.082078	0.365699
H152	H	0.080221	0.053198	0.353036
O153	O	0.180588	-0.769465	1.184202
C154	C	0.159107	-0.806602	1.184159
H155	H	0.108256	-0.790425	1.202947
H156	H	0.177412	-0.854432	1.212978
H157	H	0.174282	-0.804981	1.136517
O158	O	0.692940	-0.499239	0.401340
C159	C	0.692911	-0.520728	0.364192
H160	H	0.711754	-0.571581	0.380336
H161	H	0.721689	-0.502398	0.316361
H162	H	0.645269	-0.505580	0.365838
H163	H	0.065433	-0.475593	0.899616
O164	O	0.055654	-0.473166	0.697784
C165	C	0.024283	-0.436985	0.733969
H166	H	0.054107	-0.444962	0.756677
H167	H	-0.017405	-0.448711	0.769339
H168	H	0.010778	-0.388026	0.705152
H169	H	0.097136	0.013366	0.664120
O170	O	0.298001	-0.532638	0.781194
C171	C	0.313087	-0.480125	0.745057
H172	H	0.271890	-0.440852	0.735710
H173	H	0.349314	-0.485712	0.701101
H174	H	0.330256	-0.471349	0.769138
H175	H	0.206679	0.013739	0.443646
H176	H	0.250475	-0.568133	0.602707
O177	O	0.297957	-0.532772	0.638066
C178	C	0.329328	-0.568924	0.601851
H179	H	0.299535	-0.591663	0.609841
H180	H	0.371065	-0.604272	0.613527
H181	H	0.342753	-0.540071	0.552902
O182	O	0.096814	-0.432060	0.738706
C183	C	0.105784	-0.376489	0.710296
H184	H	0.153201	-0.381521	0.677262
H185	H	0.098847	-0.360487	0.745190
H186	H	0.072560	-0.342523	0.685465
H187	H	0.295144	-0.575796	0.721768
H188	H	0.408519	-0.613593	0.683941
H189	H	0.408481	-0.430137	0.613993
H190	H	0.241946	-0.384640	0.594232
O191	O	0.290261	-0.382736	0.650313
C192	C	0.305494	-0.350491	0.588605
H193	H	0.350865	-0.377801	0.563989
H194	H	0.307630	-0.306433	0.580348
H195	H	0.270306	-0.341164	0.571581
O196	O	0.206456	-0.266403	0.546797
C197	C	0.185055	-0.281656	0.520848
H198	H	0.178949	-0.327039	0.550474
H199	H	0.218531	-0.283784	0.474870
H200	H	0.140381	-0.246482	0.516214
H201	H	0.149444	-0.384673	0.779411
O202	O	0.105967	-0.266465	0.748105
C203	C	0.097164	-0.307455	0.806800
H204	H	0.104151	-0.352008	0.806688
H205	H	0.049775	-0.289404	0.836487
H206	H	0.130446	-0.314100	0.824686
