data_functionalizedCrystal
_audit_creation_method	'MofGen! by Chris Wilmer'
_symmetry_space_group_name_H-M	'P1'
_symmetry_Int_Tables_number	1
_symmetry_cell_setting	triclinic
loop_
_symmetry_equiv_pos_as_xyz
  x,y,z
_cell_length_a	9.065215
_cell_length_b	10.967829
_cell_length_c	8.140239
_cell_angle_alpha	77.868595
_cell_angle_beta	89.997810
_cell_angle_gamma	84.859043
loop_
_atom_site_label
_atom_site_type_symbol
_atom_site_fract_x
_atom_site_fract_y
_atom_site_fract_z
O1	O	1.959363	0.182969	-0.188388
O2	O	2.459363	0.682969	0.311612
O3	O	1.529993	0.197982	-0.192645
O4	O	2.029993	0.697982	0.307355
O5	O	1.754580	0.008937	-0.139117
O6	O	2.254580	0.508937	0.360883
O7	O	1.734776	0.372013	-0.241916
O8	O	2.234776	0.872013	0.258084
O9	O	1.754568	0.008935	0.134110
O10	O	2.254568	0.508935	0.634110
O11	O	1.529980	0.197980	0.080582
O12	O	2.029980	0.697980	0.580582
O13	O	1.959351	0.182967	0.084840
O14	O	2.459351	0.682967	0.584840
Zn15	Zn	1.744664	0.190473	0.126092
Zn16	Zn	2.244664	0.690473	0.626092
Zn17	Zn	1.744680	0.190476	-0.233898
Zn18	Zn	2.244680	0.690476	0.266102
O19	O	1.734763	0.372011	0.031311
O20	O	2.234763	0.872011	0.531311
C21	C	1.475008	0.196539	-0.055624
C22	C	1.975008	0.696539	0.444376
C23	C	1.311189	0.192227	-0.054406
C24	C	1.811189	0.692227	0.445594
C25	C	1.753132	-0.037570	0.010660
C26	C	2.253132	0.462430	0.510660
C27	C	1.748818	-0.176143	0.049885
C28	C	2.248818	0.323857	0.549885
C29	C	1.746901	-0.237916	-0.074170
C30	C	2.246901	0.262084	0.425830
C31	C	1.742442	-0.381139	-0.033633
C32	C	2.242442	0.118861	0.466367
C33	C	2.014335	0.184410	-0.052185
C34	C	2.514335	0.684410	0.447815
C35	C	2.178154	0.188721	-0.053414
C36	C	2.678154	0.688721	0.446586
C37	C	1.736211	0.418518	-0.118470
C38	C	2.236211	0.918518	0.381530
C39	C	1.740526	0.557092	-0.157705
C40	C	2.240526	1.057092	0.342295
N41	N	1.744663	0.190470	0.371775
N42	N	2.244663	0.690470	0.871775
N43	N	1.744692	0.190469	-0.479578
N44	N	2.244692	0.690469	0.020422
H45	H	1.740773	-0.434279	0.102594
H46	H	2.240773	0.065721	0.602594
H47	H	1.747149	-0.229288	0.186102
H48	H	2.247149	0.270712	0.686102
C49	C	1.749145	-0.166139	-0.258194
C50	C	2.249145	0.333861	0.241806
H51	H	1.747356	-0.223466	-0.330769
H52	H	2.247356	0.276534	0.169231
H53	H	1.836616	-0.123883	-0.276257
H54	H	2.336616	0.376117	0.223743
H55	H	1.664824	-0.106798	-0.281098
H56	H	2.164824	0.393202	0.218902
C57	C	1.742763	-0.371138	-0.341740
C58	C	2.242763	0.128862	0.158260
H59	H	1.740972	-0.428468	-0.414312
H60	H	2.240972	0.071532	0.085688
H61	H	1.830232	-0.328881	-0.359810
H62	H	2.330232	0.171119	0.140190
H63	H	1.658440	-0.311799	-0.364642
H64	H	2.158440	0.188201	0.135358
