data_functionalizedCrystal
_audit_creation_method	'MofGen! by Chris Wilmer'
_symmetry_space_group_name_H-M	'P1'
_symmetry_Int_Tables_number	1
_symmetry_cell_setting	triclinic
loop_
_symmetry_equiv_pos_as_xyz
  x,y,z
_cell_length_a	12.759401
_cell_length_b	29.839131
_cell_length_c	29.839126
_cell_angle_alpha	89.970347
_cell_angle_beta	89.977178
_cell_angle_gamma	90.035390
loop_
_atom_site_label
_atom_site_type_symbol
_atom_site_fract_x
_atom_site_fract_y
_atom_site_fract_z
Zn1	Zn	1.606150	-0.178895	-0.253946
Zn2	Zn	2.106150	0.321105	0.246054
Zn3	Zn	1.605968	-0.254013	-0.178806
Zn4	Zn	2.105968	0.245987	0.321194
Zn5	Zn	1.430439	-0.178898	-0.178833
Zn6	Zn	1.930439	0.321102	0.321167
Zn7	Zn	1.430378	-0.253999	-0.253912
Zn8	Zn	1.930378	0.246001	0.246088
O9	O	1.518234	-0.216451	-0.216374
O10	O	2.018234	0.283549	0.283626
O11	O	1.753147	-0.188865	-0.243982
O12	O	2.253147	0.311135	0.256018
O13	O	1.582633	-0.244056	-0.115943
O14	O	2.082633	0.255944	0.384057
O15	O	1.453849	-0.116031	-0.188822
O16	O	1.953849	0.383969	0.311178
O17	O	1.753014	-0.244053	-0.188777
O18	O	2.253014	0.255947	0.311223
O19	O	1.582943	-0.116029	-0.244008
O20	O	2.082943	0.383971	0.255992
O21	O	1.453673	-0.188869	-0.115962
O22	O	1.953673	0.311131	0.384038
O23	O	1.283410	-0.188856	-0.188789
O24	O	1.783410	0.311144	0.311211
O25	O	1.453745	-0.244030	-0.316783
O26	O	1.953745	0.255970	0.183217
O27	O	1.283365	-0.244032	-0.243949
O28	O	1.783365	0.255968	0.256051
O29	O	1.582884	-0.188851	-0.316809
O30	O	2.082884	0.311149	0.183191
O31	O	1.582574	-0.316878	-0.188743
O32	O	2.082574	0.183122	0.311257
O33	O	1.453569	-0.316868	-0.243923
O34	O	1.953569	0.183132	0.256077
C35	C	1.245267	-0.216443	-0.216368
C36	C	1.745267	0.283557	0.283632
C37	C	1.128490	-0.216450	-0.216376
C38	C	1.628490	0.283550	0.283624
C39	C	1.073632	-0.245227	-0.245051
C40	C	1.573632	0.254773	0.254949
C41	C	0.963908	-0.245233	-0.245055
C42	C	1.463908	0.254767	0.254945
C43	C	0.963909	-0.187684	-0.187708
C44	C	1.463909	0.312316	0.312292
C45	C	1.073631	-0.187677	-0.187706
C46	C	1.573631	0.312323	0.312294
C47	C	1.128490	-0.274001	-0.273721
C48	C	1.628490	0.225999	0.226279
C49	C	1.073632	-0.302780	-0.302398
C50	C	1.573632	0.197220	0.197602
C51	C	0.963908	-0.302786	-0.302402
C52	C	1.463908	0.197214	0.197598
C53	C	0.909042	-0.274012	-0.273731
C54	C	1.409042	0.225988	0.226269
C55	C	1.518074	-0.333174	-0.216336
C56	C	2.018074	0.166826	0.283664
C57	C	1.518101	-0.383108	-0.216335
C58	C	2.018101	0.116892	0.283665
C59	C	1.585439	-0.692716	-0.245150
C60	C	2.085439	-0.192716	0.254850
C61	C	1.585553	-0.880389	-0.245177
C62	C	2.085553	-0.380389	0.254823
O63	O	1.642648	-0.904623	-0.269649
O64	O	2.142648	-0.404623	0.230351
N65	N	1.518412	-0.903893	-0.216424
N66	N	2.018412	-0.403893	0.283576
C67	C	1.451234	-0.880477	-0.187664
C68	C	1.951234	-0.380477	0.312336
O69	O	1.394122	-0.904775	-0.163212
O70	O	1.894122	-0.404775	0.336788
C71	C	1.451115	-0.692805	-0.187640
C72	C	1.951115	-0.192805	0.312360
C73	C	1.518268	-0.669303	-0.216392
C74	C	2.018268	-0.169303	0.283608
C75	C	1.652585	-0.669214	-0.273900
C76	C	2.152585	-0.169214	0.226100
C77	C	1.652559	-0.622298	-0.273891
C78	C	2.152559	-0.122298	0.226109
C79	C	1.585388	-0.598885	-0.245133
C80	C	2.085388	-0.098885	0.254867
C81	C	1.518242	-0.622387	-0.216383
C82	C	2.018242	-0.122387	0.283617
C83	C	1.383932	-0.669389	-0.158882
C84	C	1.883932	-0.169389	0.341118
C85	C	1.383907	-0.622468	-0.158880
C86	C	1.883907	-0.122468	0.341120
C87	C	1.451059	-0.598966	-0.187632
C88	C	1.951059	-0.098966	0.312368
C89	C	1.451046	-0.552058	-0.187615
C90	C	1.951046	-0.052058	0.312385
N91	N	1.518186	-0.528554	-0.216369
N92	N	2.018186	-0.028554	0.283631
C93	C	1.585358	-0.551967	-0.245127
C94	C	2.085358	-0.051967	0.254873
C95	C	1.451302	-0.979007	-0.187678
C96	C	1.951302	-0.479007	0.312322
C97	C	1.451333	-1.025925	-0.187684
C98	C	1.951333	-0.525925	0.312316
C99	C	1.585651	-1.025834	-0.245198
C100	C	2.085651	-0.525834	0.254802
C101	C	1.585625	-0.978915	-0.245190
C102	C	2.085625	-0.478915	0.254810
C103	C	1.518443	-0.955503	-0.216432
C104	C	2.018443	-0.455503	0.283568
C105	C	1.585300	-0.453441	-0.245107
C106	C	2.085300	0.046559	0.254893
C107	C	1.585272	-0.406522	-0.245094
C108	C	2.085272	0.093478	0.254906
C109	C	1.450951	-0.406617	-0.187582
C110	C	1.950951	0.093383	0.312418
C111	C	1.450983	-0.453533	-0.187593
C112	C	1.950983	0.046467	0.312407
C113	C	1.518161	-0.476944	-0.216359
C114	C	2.018161	0.023056	0.283641
O115	O	1.393972	-0.527795	-0.163160
O116	O	1.893972	-0.027795	0.336840
O117	O	1.642445	-0.527661	-0.269583
O118	O	2.142445	-0.027661	0.230417
C119	C	1.585464	-0.739631	-0.245159
C120	C	2.085464	-0.239631	0.254841
C121	C	1.518318	-0.763133	-0.216409
C122	C	2.018318	-0.263133	0.283591
C123	C	1.451147	-0.739720	-0.187651
C124	C	1.951147	-0.239720	0.312349
C125	C	1.518349	-0.810051	-0.216415
C126	C	2.018349	-0.310051	0.283585
C127	C	1.585520	-0.833465	-0.245173
C128	C	2.085520	-0.333465	0.254827
C129	C	1.652660	-0.809960	-0.273927
C130	C	2.152660	-0.309960	0.226073
C131	C	1.652635	-0.763045	-0.273918
C132	C	2.152635	-0.263045	0.226082
C133	C	1.384006	-0.763225	-0.158897
C134	C	1.884006	-0.263225	0.341103
C135	C	1.384038	-0.810140	-0.158908
C136	C	1.884038	-0.310140	0.341092
C137	C	1.451209	-0.833554	-0.187667
C138	C	1.951209	-0.333554	0.312333
C139	C	1.792267	-0.216460	-0.216381
C140	C	2.292267	0.283540	0.283619
C141	C	1.909044	-0.216464	-0.216383
C142	C	2.409044	0.283536	0.283617
C143	C	1.518328	-0.216439	-0.333553
C144	C	2.018328	0.283561	0.166447
C145	C	1.518368	-0.216433	-0.383487
C146	C	2.018368	0.283567	0.116513
C147	C	1.518423	-0.099273	-0.216422
C148	C	2.018423	0.400727	0.283578
C149	C	1.518504	-0.049339	-0.216442
C150	C	2.018504	0.450661	0.283558
C151	C	1.585504	-0.245109	-0.740067
C152	C	2.085504	0.254891	-0.240067
C153	C	1.585506	-0.245140	-0.552394
C154	C	2.085506	0.254860	-0.052394
O155	O	1.642576	-0.269592	-0.528123
O156	O	2.142576	0.230408	-0.028123
N157	N	1.518363	-0.216411	-0.528932
N158	N	2.018363	0.283589	-0.028932
C159	C	1.451211	-0.187675	-0.552392
C160	C	1.951211	0.312325	-0.052392
O161	O	1.394095	-0.163243	-0.528130
O162	O	1.894095	0.336757	-0.028130
C163	C	1.451205	-0.187646	-0.740064
C164	C	1.951205	0.312354	-0.240064
C165	C	1.518359	-0.216374	-0.763523
C166	C	2.018359	0.283626	-0.263523
C167	C	1.652652	-0.273834	-0.763527
C168	C	2.152652	0.226166	-0.263527
C169	C	1.652655	-0.273824	-0.810442
C170	C	2.152655	0.226176	-0.310442
C171	C	1.585510	-0.245089	-0.833898
C172	C	2.085510	0.254911	-0.333898
C173	C	1.518362	-0.216364	-0.810439
C174	C	2.018362	0.283636	-0.310439
C175	C	1.384048	-0.158912	-0.763522
C176	C	1.884048	0.341088	-0.263522
C177	C	1.384051	-0.158909	-0.810443
C178	C	1.884051	0.341091	-0.310443
C179	C	1.451205	-0.187636	-0.833903
C180	C	1.951205	0.312364	-0.333903
C181	C	1.451220	-0.187619	-0.880810
C182	C	1.951220	0.312381	-0.380810
N183	N	1.518362	-0.216347	-0.904272
N184	N	2.018362	0.283653	-0.404272
C185	C	1.585507	-0.245083	-0.880816
C186	C	2.085507	0.254917	-0.380816
C187	C	1.451221	-0.187691	-0.453861
C188	C	1.951221	0.312309	0.046139
C189	C	1.451223	-0.187698	-0.406943
C190	C	1.951223	0.312302	0.093057
C191	C	1.585517	-0.245164	-0.406949
C192	C	2.085517	0.254836	0.093051
C193	C	1.585519	-0.245155	-0.453868
C194	C	2.085519	0.254845	0.046132
C195	C	1.518363	-0.216420	-0.477323
C196	C	2.018363	0.283580	0.022677
C197	C	1.585509	-0.245060	-0.979342
C198	C	2.085509	0.254940	-0.479342
C199	C	1.585509	-0.245046	-1.026262
C200	C	2.085509	0.254954	-0.526262
C201	C	1.451212	-0.187582	-1.026252
C202	C	1.951212	0.312418	-0.526252
C203	C	1.451215	-0.187594	-0.979336
C204	C	1.951215	0.312406	-0.479336
C205	C	1.518367	-0.216336	-0.955882
C206	C	2.018367	0.283664	-0.455882
O207	O	1.394171	-0.163183	-0.905110
O208	O	1.894171	0.336817	-0.405110
O209	O	1.642598	-0.269518	-0.905086
O210	O	2.142598	0.230482	-0.405086
C211	C	1.585501	-0.245119	-0.693152
C212	C	2.085501	0.254881	-0.193152
C213	C	1.518353	-0.216393	-0.669692
C214	C	2.018353	0.283607	-0.169692
C215	C	1.451208	-0.187658	-0.693148
C216	C	1.951208	0.312342	-0.193148
C217	C	1.518356	-0.216400	-0.622774
C218	C	2.018356	0.283600	-0.122774
C219	C	1.585501	-0.245135	-0.599318
C220	C	2.085501	0.254865	-0.099318
C221	C	1.652643	-0.273864	-0.622780
C222	C	2.152643	0.226136	-0.122780
C223	C	1.652646	-0.273854	-0.669696
C224	C	2.152646	0.226146	-0.169696
C225	C	1.384066	-0.158929	-0.669687
C226	C	1.884066	0.341071	-0.169687
C227	C	1.384070	-0.158941	-0.622771
C228	C	1.884070	0.341059	-0.122771
C229	C	1.451214	-0.187676	-0.599315
C230	C	1.951214	0.312324	-0.099315
C231	C	1.518200	-0.216432	-0.099652
C232	C	2.018200	0.283568	0.400348
C233	C	1.518364	-0.216311	-0.049718
C234	C	2.018364	0.283689	0.450282
H235	H	1.217833	-0.274000	-0.273720
H236	H	1.717833	0.226000	0.226280
H237	H	1.639996	-0.472497	-0.268534
H238	H	2.139996	0.027503	0.231466
H239	H	1.329250	-0.688516	-0.135469
H240	H	1.829250	-0.188516	0.364531
H241	H	1.396662	-1.045057	-0.164266
H242	H	1.896662	-0.545057	0.335734
Br243	Br	1.148089	-0.148621	-0.148791
Br244	Br	1.648089	0.351379	0.351209
Br245	Br	1.148089	-0.341823	-0.341311
Br246	Br	1.648089	0.158177	0.158689
H247	H	0.919246	-0.326216	-0.325755
H248	H	1.419246	0.173784	0.174245
Br249	Br	0.889449	-0.148638	-0.148799
Br250	Br	1.389449	0.351362	0.351201
H251	H	1.396547	-0.164185	-1.045358
H252	H	1.896547	0.335815	-0.545358
Br253	Br	1.743787	-0.312844	-0.701526
Br254	Br	2.243787	0.187156	-0.201526
H255	H	1.707283	-0.688272	-0.297322
H256	H	2.207283	-0.188272	0.202678
H257	H	1.707237	-0.603166	-0.297305
H258	H	2.207237	-0.103166	0.202695
Br259	Br	1.743825	-0.841745	-0.312954
Br260	Br	2.243825	-0.341745	0.187046
Br261	Br	1.676418	-0.374629	-0.284115
Br262	Br	2.176418	0.125371	0.215885
H263	H	0.819697	-0.274015	-0.273741
H264	H	1.319697	0.225985	0.226259
H265	H	1.640305	-0.959783	-0.268602
H266	H	2.140305	-0.459783	0.231398
H267	H	1.707330	-0.297236	-0.744434
H268	H	2.207330	0.202764	-0.244434
H269	H	1.640345	-1.044905	-0.268614
H270	H	2.140345	-0.544905	0.231386
Br271	Br	1.359796	-0.374833	-0.148553
Br272	Br	1.859796	0.125167	0.351447
H273	H	1.329306	-0.744165	-0.135479
H274	H	1.829306	-0.244165	0.364521
H275	H	1.329387	-0.135543	-0.603674
H276	H	1.829387	0.364457	-0.103674
Br277	Br	1.360112	-0.947240	-0.148648
Br278	Br	1.860112	-0.447240	0.351352
Br279	Br	1.292724	-0.590697	-0.119849
Br280	Br	1.792724	-0.090697	0.380151
Br281	Br	1.359863	-0.485429	-0.148565
Br282	Br	1.859863	0.014571	0.351435
Br283	Br	1.743775	-0.731156	-0.312940
Br284	Br	2.243775	-0.231156	0.187060
H285	H	1.640201	-0.268547	-0.472965
H286	H	2.140201	0.231453	0.027035
Br287	Br	1.292899	-0.842030	-0.119881
Br288	Br	1.792899	-0.342030	0.380119
Br289	Br	1.676655	-0.284035	-1.058097
Br290	Br	2.176655	0.215965	-0.558097
Br291	Br	1.676643	-0.284068	-0.947519
Br292	Br	2.176643	0.215932	-0.447519
Br293	Br	1.743785	-0.312819	-0.842273
Br294	Br	2.243785	0.187181	-0.342273
H295	H	1.640191	-0.268560	-0.387843
H296	H	2.140191	0.231440	0.112157
Br297	Br	1.360100	-0.148701	-0.375111
Br298	Br	1.860100	0.351299	0.124889
H299	H	1.396531	-0.164291	-0.472954
H300	H	1.896531	0.335709	0.027046
H301	H	1.329362	-0.135520	-0.744430
H302	H	1.829362	0.364480	-0.244430
Br303	Br	1.292911	-0.119907	-0.842273
Br304	Br	1.792911	0.380093	-0.342273
Br305	Br	1.360092	-0.148600	-0.947497
Br306	Br	1.860092	0.351400	-0.447497
H307	H	1.707319	-0.297259	-0.603674
H308	H	2.207319	0.202741	-0.103674
H309	H	1.329386	-0.135530	-0.688780
H310	H	1.829386	0.364470	-0.188780
