data_functionalizedCrystal
_audit_creation_method	'MofGen! by Chris Wilmer'
_symmetry_space_group_name_H-M	'P1'
_symmetry_Int_Tables_number	1
_symmetry_cell_setting	triclinic
loop_
_symmetry_equiv_pos_as_xyz
  x,y,z
_cell_length_a	16.109301
_cell_length_b	13.339070
_cell_length_c	14.586319
_cell_angle_alpha	89.998714
_cell_angle_beta	89.999213
_cell_angle_gamma	99.545388
loop_
_atom_site_label
_atom_site_type_symbol
_atom_site_fract_x
_atom_site_fract_y
_atom_site_fract_z
O1	O	1.133153	0.130021	-0.076178
O2	O	0.894827	0.146201	-0.076192
O3	O	0.986638	-0.009144	-0.076184
O4	O	1.041342	0.285365	-0.076186
O5	O	0.986629	-0.009146	0.076297
O6	O	0.894818	0.146199	0.076289
O7	O	1.133144	0.130018	0.076303
Cu8	Cu	1.013980	0.138108	0.090219
Cu9	Cu	1.013991	0.138111	-0.090107
O10	O	1.041333	0.285363	0.076295
C11	C	0.863697	0.145545	0.000047
C12	C	0.770947	0.143580	0.000041
C13	C	0.568905	0.231189	0.000051
C14	C	0.481756	0.229335	0.000057
C15	C	0.459072	0.045023	0.000055
C16	C	0.546219	0.046879	0.000055
C17	C	0.601133	0.139965	0.000049
C18	C	0.426838	0.136255	0.000054
C19	C	0.332347	0.134244	0.000061
C20	C	0.695630	0.141976	0.000044
C21	C	0.977393	-0.046831	0.000055
C22	C	0.949849	-0.159124	0.000050
C23	C	1.164017	-0.523987	0.000063
C24	C	1.189898	-0.418483	0.000073
C25	C	1.129888	-0.353638	0.000067
C26	C	1.043992	-0.394307	0.000051
C27	C	1.018108	-0.499822	0.000048
C28	C	0.983979	-0.329473	0.000052
C29	C	0.898083	-0.370142	0.000037
C30	C	0.872203	-0.475647	0.000033
C31	C	0.932213	-0.540492	0.000039
C32	C	1.009863	-0.223958	0.000055
C33	C	0.863954	-0.199793	0.000041
C34	C	0.838073	-0.305297	0.000030
C35	C	1.164275	0.130675	0.000063
C36	C	1.257024	0.132640	0.000062
C37	C	1.050578	0.323050	0.000054
C38	C	1.078122	0.435343	0.000054
N39	N	1.013978	0.138106	0.217051
N40	N	1.013998	0.138106	-0.216939
C41	C	1.054656	0.069342	0.452061
C42	C	1.054658	0.069340	0.548042
C43	C	0.973315	0.206873	0.548044
C44	C	0.973308	0.206870	0.452065
C45	C	1.013984	0.138105	0.404075
C46	C	1.013992	0.138106	0.596036
C47	C	1.013994	0.138104	0.700103
C48	C	1.013981	0.138106	0.300002
H49	H	1.079800	-0.190856	0.000068
H50	H	1.087775	0.013349	0.412990
O51	O	0.405692	-0.045369	-0.000110
C52	C	0.354594	-0.051939	-0.079072
H53	H	0.387297	0.000919	-0.134265
H54	H	0.343574	-0.133463	-0.105583
H55	H	0.291594	-0.028587	-0.061219
O56	O	0.933923	0.273717	0.405346
C57	C	0.992848	0.336150	0.349837
H58	H	1.048612	0.295881	0.335458
H59	H	0.961833	0.352138	0.282346
H60	H	1.015744	0.410915	0.386821
O61	O	0.577572	-0.041715	0.000213
C62	C	0.627318	-0.046146	0.079173
H63	H	0.607486	0.005583	0.134370
H64	H	0.618280	-0.127632	0.105678
H65	H	0.696412	-0.019975	0.061320
H66	H	0.613614	0.306986	0.000053
O67	O	1.094098	0.002584	0.594796
C68	C	1.085400	0.017341	0.689802
H69	H	1.028017	0.055123	0.702915
H70	H	1.076984	-0.059262	0.726279
H71	H	1.144162	0.068095	0.717035
O72	O	0.933883	0.273635	0.594805
C73	C	0.942593	0.258880	0.689809
H74	H	0.999975	0.221094	0.702914
H75	H	0.951018	0.335485	0.726281
H76	H	0.883832	0.208132	0.717056
O77	O	1.155171	-0.251176	0.000030
C78	C	1.243851	-0.229184	0.000066
H79	H	1.270251	-0.296830	-0.028793
H80	H	1.265606	-0.159333	-0.044204
H81	H	1.267407	-0.213605	0.073222
H82	H	0.455520	0.303619	0.000061
H83	H	1.259835	-0.385378	0.000087
O84	O	1.222270	-0.587018	-0.000090
C85	C	1.211655	-0.648791	-0.079047
H86	H	1.178068	-0.610133	-0.134251
H87	H	1.275885	-0.660686	-0.105545
H88	H	1.172431	-0.725503	-0.061194
O89	O	0.907176	-0.642999	-0.000092
C90	C	0.938537	-0.684861	-0.079076
H91	H	0.996049	-0.631107	-0.105398
H92	H	0.957090	-0.761388	-0.061319
H93	H	0.887833	-0.695940	-0.134378
H94	H	0.802261	-0.508756	0.000027
H95	H	0.768134	-0.338426	0.000018
H96	H	0.815089	-0.146996	0.000040
