data_functionalizedCrystal
_audit_creation_method	'MofGen! by Chris Wilmer'
_symmetry_space_group_name_H-M	'P1'
_symmetry_Int_Tables_number	1
_symmetry_cell_setting	triclinic
loop_
_symmetry_equiv_pos_as_xyz
  x,y,z
_cell_length_a	21.295417
_cell_length_b	19.077269
_cell_length_c	21.295411
_cell_angle_alpha	92.275197
_cell_angle_beta	89.978356
_cell_angle_gamma	87.733796
loop_
_atom_site_label
_atom_site_type_symbol
_atom_site_fract_x
_atom_site_fract_y
_atom_site_fract_z
Zn1	Zn	-0.289322	1.075941	-0.317219
Zn2	Zn	-0.394570	1.075832	-0.211949
Zn3	Zn	-0.285095	0.958239	-0.216197
Zn4	Zn	-0.390329	0.958204	-0.321410
O5	O	-0.339829	1.017054	-0.266694
O6	O	-0.306827	1.174413	-0.299723
O7	O	-0.380054	1.060202	-0.124424
O8	O	-0.197568	0.973912	-0.229622
O9	O	-0.384152	1.174333	-0.222381
O10	O	-0.200674	1.060388	-0.303843
O11	O	-0.299623	0.973806	-0.127545
O12	O	-0.295511	0.859748	-0.233686
O13	O	-0.376924	0.973854	-0.408943
O14	O	-0.372825	0.859722	-0.310986
O15	O	-0.302714	1.060354	-0.405864
O16	O	-0.482094	1.060168	-0.226445
O17	O	-0.478978	0.973748	-0.306866
C18	C	-0.333250	0.834199	-0.273252
C19	C	-0.330450	0.755972	-0.276072
C20	C	-0.369329	0.719177	-0.237070
C21	C	-0.366699	0.645675	-0.239728
C22	C	-0.325186	0.608970	-0.281386
C23	C	-0.286306	0.645770	-0.320393
C24	C	-0.288940	0.719271	-0.317738
C25	C	-0.313002	0.389151	-0.293657
C26	C	-0.310370	0.315645	-0.296308
C27	C	-0.390764	0.315555	-0.215643
C28	C	-0.393391	0.389057	-0.212989
C29	C	-0.354513	0.425851	-0.251998
N30	N	-0.322496	0.533839	-0.284103
N31	N	-0.357208	0.500980	-0.249284
C32	C	-0.503377	1.016962	-0.266662
C33	C	-0.573346	1.016987	-0.266668
C34	C	-0.607816	1.062026	-0.224832
C35	C	-0.673559	1.062059	-0.224845
C36	C	-0.704830	1.017040	-0.266687
C37	C	-0.670353	0.971998	-0.308531
C38	C	-0.604611	0.971971	-0.308521
N39	N	-0.805886	0.955473	-0.273694
N40	N	-0.868338	0.955501	-0.273700
C41	C	-0.902908	1.017119	-0.266721
N42	N	-0.872666	1.078710	-0.259723
N43	N	-0.810208	1.078682	-0.259714
C44	C	-0.776117	1.017064	-0.266703
C45	C	-1.008665	1.062198	-0.224897
C46	C	-1.074409	1.062232	-0.224914
C47	C	-1.071201	0.972164	-0.308597
C48	C	-1.005458	0.972137	-0.308583
C49	C	-0.974193	1.017152	-0.266729
C50	C	-0.175642	1.017166	-0.266739
C51	C	-0.105676	1.017213	-0.266758
C52	C	-0.339818	1.017112	-0.430882
C53	C	-0.339813	1.017137	-0.500849
C54	C	-0.346434	1.200623	-0.260111
C55	C	-0.349249	1.278850	-0.257305
C56	C	-0.301170	1.062176	-0.532114
C57	C	-0.301143	1.062175	-0.597856
C58	C	-0.339770	1.017143	-0.632332
C59	C	-0.378415	0.972095	-0.601060
C60	C	-0.378436	0.972092	-0.535319
N61	N	-0.394642	1.011713	-0.735742
N62	N	-0.394620	1.011719	-0.798194
C63	C	-0.339706	1.017147	-0.830406
N64	N	-0.284814	1.022582	-0.797808
N65	N	-0.284837	1.022579	-0.735351
C66	C	-0.339750	1.017140	-0.703617
C67	C	-0.301030	1.062187	-0.932956
C68	C	-0.301002	1.062182	-0.998700
C69	C	-0.378280	0.972105	-1.001902
C70	C	-0.378302	0.972107	-0.936160
C71	C	-0.339679	1.017152	-0.901691
C72	C	-0.339796	1.017036	-0.103143
C73	C	-0.339628	1.017148	-0.033171
H74	H	-0.281346	0.419100	-0.325421
H75	H	-0.257281	0.749229	-0.349497
H76	H	-0.582362	1.098682	-0.190754
O77	O	-0.259512	1.110758	-0.494937
H78	H	-0.209669	1.098722	-0.507982
H79	H	-0.409773	0.935436	-0.910704
O80	O	-0.414102	0.758765	-0.192137
H81	H	-0.440698	0.720827	-0.165467
O82	O	-0.259468	1.110760	-0.631590
H83	H	-0.232619	1.142085	-0.596576
H84	H	-0.398358	0.615719	-0.207968
O85	O	-0.265591	0.276051	-0.341238
H86	H	-0.292613	0.242562	-0.374413
H87	H	-0.576545	0.935294	-0.342589
H88	H	-0.427194	0.418937	-0.179065
H89	H	-0.701630	1.098737	-0.190778
H90	H	-0.409863	0.935427	-0.629134
O91	O	-0.420102	0.923498	-0.501592
H92	H	-0.446954	0.892177	-0.536607
O93	O	-0.968280	0.923538	-0.353694
H94	H	-0.981296	0.935574	-0.402680
O95	O	-0.432698	0.275872	-0.173574
H96	H	-0.423898	0.218595	-0.182420
O97	O	-0.704075	0.923432	-0.353656
H98	H	-0.755581	0.931009	-0.346628
O99	O	-0.241526	0.606187	-0.365322
H100	H	-0.246219	0.548895	-0.360610
O101	O	-0.259322	1.110763	-1.032426
H102	H	-0.232475	1.142087	-0.997410
O103	O	-0.974936	1.110756	-0.179767
H104	H	-1.009953	1.142090	-0.150685
O105	O	-1.111593	1.110811	-0.179789
H106	H	-1.078805	1.142100	-0.150682
O107	O	-1.104918	0.923603	-0.353726
H108	H	-1.156425	0.931184	-0.346703
O109	O	-0.259368	1.110760	-0.895772
H110	H	-0.232483	1.142071	-0.928560
O111	O	-0.419943	0.923531	-1.039076
H112	H	-0.413439	0.931101	-1.090043
