data_functionalizedCrystal
_audit_creation_method	'MofGen! by Chris Wilmer'
_symmetry_space_group_name_H-M	'P1'
_symmetry_Int_Tables_number	1
_symmetry_cell_setting	triclinic
loop_
_symmetry_equiv_pos_as_xyz
  x,y,z
_cell_length_a	12.827893
_cell_length_b	12.827892
_cell_length_c	12.827885
_cell_angle_alpha	90.031912
_cell_angle_beta	89.980919
_cell_angle_gamma	89.974911
loop_
_atom_site_label
_atom_site_type_symbol
_atom_site_fract_x
_atom_site_fract_y
_atom_site_fract_z
Zn1	Zn	1.597599	0.415983	-0.590828
Zn2	Zn	1.930932	0.749317	-0.257495
Zn3	Zn	2.264266	1.082650	0.075839
Zn4	Zn	1.597463	0.590761	-0.416082
Zn5	Zn	1.930797	0.924094	-0.082748
Zn6	Zn	2.264130	1.257427	0.250585
Zn7	Zn	1.422840	0.416034	-0.416102
Zn8	Zn	1.756174	0.749367	-0.082769
Zn9	Zn	2.089507	1.082701	0.250565
Zn10	Zn	1.422796	0.590683	-0.590782
Zn11	Zn	1.756129	0.924016	-0.257449
Zn12	Zn	2.089463	1.257350	0.075884
O13	O	1.510175	0.503365	-0.503448
O14	O	1.843508	0.836699	-0.170115
O15	O	2.176841	1.170032	0.163218
O16	O	1.743817	0.439179	-0.567658
O17	O	2.077150	0.772512	-0.234325
O18	O	2.410484	1.105846	0.099009
O19	O	1.574261	0.567637	-0.269848
O20	O	1.907594	0.900970	0.063485
O21	O	2.240928	1.234303	0.396818
O22	O	1.446098	0.269791	-0.439308
O23	O	1.779431	0.603125	-0.105974
O24	O	2.112764	0.936458	0.227359
O25	O	1.743717	0.567587	-0.439273
O26	O	2.077051	0.900921	-0.105939
O27	O	2.410384	1.234254	0.227394
O28	O	1.574492	0.269754	-0.567678
O29	O	1.907826	0.603087	-0.234344
O30	O	2.241159	0.936421	0.098989
O31	O	1.445966	0.439266	-0.269863
O32	O	1.779300	0.772599	0.063470
O33	O	2.112633	1.105933	0.396803
O34	O	1.276598	0.439190	-0.439263
O35	O	1.609932	0.772524	-0.105930
O36	O	1.943265	1.105857	0.227403
O37	O	1.446022	0.567455	-0.737024
O38	O	1.779355	0.900788	-0.403691
O39	O	2.112689	1.234121	-0.070358
O40	O	1.276566	0.567504	-0.567600
O41	O	1.609899	0.900837	-0.234267
O42	O	1.943233	1.234171	0.099067
O43	O	1.574449	0.439104	-0.737058
O44	O	1.907782	0.772437	-0.403725
O45	O	2.241116	1.105770	-0.070391
O46	O	1.574218	0.736986	-0.439228
O47	O	1.907551	1.070320	-0.105895
O48	O	2.240885	1.403653	0.227438
O49	O	1.445891	0.736929	-0.567580
O50	O	1.779224	1.070263	-0.234247
O51	O	2.112557	1.403596	0.099086
C52	C	1.238665	0.503345	-0.503430
C53	C	1.571998	0.836678	-0.170096
C54	C	1.905331	1.170012	0.163237
C55	C	1.122512	0.503362	-0.503446
C56	C	1.455845	0.836695	-0.170113
C57	C	1.789178	1.170028	0.163221
C58	C	1.510063	0.774875	-0.503420
C59	C	1.843397	1.108209	-0.170087
C60	C	2.176730	1.441542	0.163247
C61	C	1.510111	0.891028	-0.503443
C62	C	1.843444	1.224362	-0.170109
C63	C	2.176778	1.557695	0.163224
C64	C	1.070678	0.566804	-0.439833
C65	C	1.404011	0.900138	-0.106499
C66	C	1.737345	1.233471	0.226834
C67	C	0.950628	0.566823	-0.439848
C68	C	1.283961	0.900156	-0.106515
C69	C	1.617294	1.233490	0.226818
C70	C	1.573608	0.942711	-0.567020
C71	C	1.906941	1.276045	-0.233686
C72	C	2.240274	1.609378	0.099647
C73	C	1.573659	1.062761	-0.567045
C74	C	1.906992	1.396095	-0.233711
C75	C	2.240325	1.729428	0.099622
C76	C	1.782745	0.503386	-0.503468
C77	C	2.116078	0.836720	-0.170135
C78	C	2.449411	1.170053	0.163198
C79	C	1.898898	0.503395	-0.503477
C80	C	2.232231	0.836729	-0.170143
C81	C	2.565565	1.170062	0.163190
C82	C	1.510246	0.503265	-0.776019
C83	C	1.843579	0.836598	-0.442685
C84	C	2.176912	1.169932	-0.109352
C85	C	1.510276	0.503222	-0.892172
C86	C	1.843609	0.836555	-0.558839
C87	C	2.176943	1.169889	-0.225505
C88	C	1.510272	1.230795	-0.503492
C89	C	1.843606	1.564128	-0.170158
C90	C	2.176939	1.897462	0.163175
C91	C	1.510205	1.114642	-0.503488
C92	C	1.843538	1.447975	-0.170155
C93	C	2.176872	1.781309	0.163179
C94	C	1.573833	0.439698	-0.943973
C95	C	1.907166	0.773031	-0.610640
C96	C	2.240499	1.106364	-0.277307
C97	C	1.573866	0.439652	-1.064024
C98	C	1.907199	0.772985	-0.730690
C99	C	2.240532	1.106319	-0.397357
C100	C	1.510164	0.503390	-0.231939
C101	C	1.843497	0.836723	0.101395
C102	C	2.176831	1.170056	0.434728
C103	C	1.510336	0.503138	-0.115786
C104	C	1.843669	0.836472	0.217547
C105	C	2.177003	1.169805	0.550881
H106	H	1.115178	0.621110	-0.385363
H107	H	1.448511	0.954443	-0.052029
H108	H	1.781845	1.287776	0.281304
F109	F	1.064353	0.432388	-0.574655
F110	F	1.397686	0.765721	-0.241322
F111	F	1.731019	1.099054	0.092012
F112	F	1.439178	0.574262	-0.950368
F113	F	1.772511	0.907595	-0.617034
F114	F	2.105845	1.240928	-0.283701
F115	F	1.644606	0.884383	-0.638153
F116	F	1.977940	1.217717	-0.304819
F117	F	2.311273	1.551050	0.028514
H118	H	1.628024	1.107208	-0.621471
H119	H	1.961358	1.440541	-0.288138
H120	H	2.294691	1.773875	0.045195
H121	H	1.455844	1.070203	-0.449050
H122	H	1.789177	1.403537	-0.115717
H123	H	2.122511	1.736870	0.217616
H124	H	1.455782	0.935657	-0.449036
H125	H	1.789116	1.268991	-0.115702
H126	H	2.122449	1.602324	0.217631
F127	F	0.892368	0.637815	-0.368655
F128	F	1.225701	0.971148	-0.035322
F129	F	1.559035	1.304482	0.298012
H130	H	0.943467	0.449072	-0.557937
H131	H	1.276800	0.782405	-0.224603
H132	H	1.610133	1.115739	0.108730
F133	F	1.644904	0.368632	-0.885778
F134	F	1.978238	0.701965	-0.552445
F135	F	2.311571	1.035298	-0.219111
F136	F	1.644996	0.368568	-1.122247
F137	F	1.978329	0.701901	-0.788914
F138	F	2.311662	1.035235	-0.455581
F139	F	1.439214	0.574235	-1.057569
F140	F	1.772547	0.907569	-0.724236
F141	F	2.105881	1.240902	-0.390903
