data_functionalizedCrystal
_audit_creation_method	'MofGen! by Chris Wilmer'
_symmetry_space_group_name_H-M	'P1'
_symmetry_Int_Tables_number	1
_symmetry_cell_setting	triclinic
loop_
_symmetry_equiv_pos_as_xyz
  x,y,z
_cell_length_a	11.792241
_cell_length_b	15.072220
_cell_length_c	15.995350
_cell_angle_alpha	90.007147
_cell_angle_beta	83.842895
_cell_angle_gamma	89.999719
loop_
_atom_site_label
_atom_site_type_symbol
_atom_site_fract_x
_atom_site_fract_y
_atom_site_fract_z
O1	O	1.505950	0.073692	0.114768
O2	O	1.175510	0.073712	0.126596
O3	O	1.349763	0.073700	-0.001164
O4	O	1.331697	0.073703	0.242529
O5	O	1.349751	-0.073865	-0.001180
O6	O	1.175499	-0.073853	0.126580
O7	O	1.505938	-0.073873	0.114753
Zn8	Zn	1.340717	-0.097292	0.120664
Zn9	Zn	1.340732	0.097131	0.120685
O10	O	1.331686	-0.073862	0.242513
C11	C	1.133220	-0.000068	0.125845
C12	C	1.007224	-0.000060	0.123621
N13	N	1.340715	-0.229981	0.120650
C14	C	0.776546	-0.000086	0.119532
C15	C	0.904913	-0.000072	0.121804
C16	C	1.340733	-0.589183	0.120678
C17	C	1.434274	-0.551554	0.052547
C18	C	1.434030	-0.448729	0.052293
C19	C	1.340725	-0.410979	0.120664
C20	C	1.222311	-0.448315	0.101046
C21	C	1.222865	-0.551172	0.100564
C22	C	1.364537	-0.551260	0.208625
C23	C	1.367225	-0.448396	0.208048
C24	C	1.340713	-0.310265	0.120658
C25	C	1.340737	-0.689896	0.120683
C26	C	1.548229	-0.000092	0.115504
C27	C	1.674224	-0.000094	0.117727
C28	C	1.349010	-0.000080	-0.032370
C29	C	1.346771	-0.000075	-0.125331
N30	N	1.340743	0.229820	0.120693
C31	C	1.338730	-0.000078	-0.463115
C32	C	1.214630	0.000261	-0.416244
C33	C	1.216870	-0.000072	-0.319544
C34	C	1.342718	-0.000076	-0.295536
C35	C	1.403922	-0.084345	-0.336345
C36	C	1.400805	-0.084416	-0.432995
C37	C	1.403381	0.083394	-0.433323
C38	C	1.403352	0.084507	-0.336378
C39	C	1.344979	-0.000078	-0.200829
C40	C	1.336473	-0.000082	-0.557823
C41	C	1.332438	-0.000079	0.273719
C42	C	1.334677	-0.000079	0.366680
H43	H	1.522052	-0.423485	0.064054
H44	H	1.303509	-0.422697	0.261164
H45	H	1.165244	-0.059828	-0.436069
H46	H	1.151167	-0.576065	0.148273
N47	N	1.524582	0.084135	-0.474837
H48	H	1.579117	0.082161	-0.430305
H49	H	1.537484	0.030692	-0.512759
H50	H	1.522591	-0.576289	0.064127
H51	H	1.151026	-0.423863	0.149325
N52	N	1.349654	0.168001	-0.460765
H53	H	1.282853	0.153076	-0.492792
H54	H	1.322317	0.204569	-0.409630
N55	N	1.152720	-0.080222	-0.282924
H56	H	1.086671	-0.060276	-0.241782
H57	H	1.122954	-0.115443	-0.329659
N58	N	1.195098	-0.582969	0.015580
H59	H	1.123586	-0.620298	0.022723
H60	H	1.182669	-0.530123	-0.021169
N61	N	1.414435	-0.585802	-0.033402
H62	H	1.345117	-0.625584	-0.028398
H63	H	1.401629	-0.534113	-0.071454
H64	H	1.454334	-0.423995	0.222922
H65	H	1.296325	-0.575599	0.259333
N66	N	1.526387	-0.088514	-0.317071
H67	H	1.564062	-0.143200	-0.343914
H68	H	1.568330	-0.033893	-0.340195
N69	N	1.521485	-0.089516	-0.475168
H70	H	1.520401	-0.089606	-0.538221
H71	H	1.566152	-0.036552	-0.458101
H72	H	1.361404	-0.147052	-0.308163
H73	H	1.358604	0.146847	-0.309326
N74	N	1.153142	0.079943	-0.282174
H75	H	1.190730	0.135799	-0.306535
H76	H	1.071533	0.077676	-0.295823
N77	N	1.193825	-0.414218	0.017027
H78	H	1.190358	-0.347271	0.018346
H79	H	1.254580	-0.433987	-0.028482
N80	N	1.524922	0.091249	-0.315488
H81	H	1.525610	0.095008	-0.252500
H82	H	1.568888	0.037071	-0.337465
N83	N	1.413876	-0.416148	-0.034144
H84	H	1.337884	-0.438809	-0.048840
H85	H	1.413692	-0.349142	-0.034618
N86	N	1.341677	-0.167849	-0.457523
H87	H	1.317877	-0.204235	-0.405574
H88	H	1.272017	-0.151446	-0.485790
H89	H	1.449038	-0.577200	0.227347
H90	H	1.165034	0.060692	-0.434995
