data_functionalizedCrystal
_audit_creation_method	'MofGen! by Chris Wilmer'
_symmetry_space_group_name_H-M	'P1'
_symmetry_Int_Tables_number	1
_symmetry_cell_setting	triclinic
loop_
_symmetry_equiv_pos_as_xyz
  x,y,z
_cell_length_a	25.639243
_cell_length_b	25.639240
_cell_length_c	25.639233
_cell_angle_alpha	90.025929
_cell_angle_beta	90.015962
_cell_angle_gamma	90.035481
loop_
_atom_site_label
_atom_site_type_symbol
_atom_site_fract_x
_atom_site_fract_y
_atom_site_fract_z
Zn1	Zn	0.799247	-0.208176	0.295630
Zn2	Zn	1.299247	0.291824	0.795630
Zn3	Zn	0.799179	-0.295595	0.208183
Zn4	Zn	1.299179	0.204405	0.708183
Zn5	Zn	0.711823	-0.208180	0.208203
Zn6	Zn	1.211823	0.291820	0.708203
Zn7	Zn	0.711777	-0.295587	0.295582
Zn8	Zn	1.211777	0.204413	0.795582
O9	O	0.755506	-0.251885	0.251900
O10	O	1.255506	0.248115	0.751900
O11	O	0.872403	-0.219775	0.284041
O12	O	1.372403	0.280225	0.784041
O13	O	0.787582	-0.284004	0.135020
O14	O	1.287582	0.215996	0.635020
O15	O	0.723467	-0.135014	0.219829
O16	O	1.223467	0.364986	0.719829
O17	O	0.872353	-0.284001	0.219794
O18	O	1.372353	0.215999	0.719794
O19	O	0.787697	-0.135012	0.284061
O20	O	1.287697	0.364988	0.784061
O21	O	0.723402	-0.219781	0.135035
O22	O	1.223402	0.280219	0.635035
O23	O	0.638652	-0.219772	0.219783
O24	O	1.138652	0.280228	0.719783
O25	O	0.723389	-0.283987	0.368754
O26	O	1.223389	0.216013	0.868754
O27	O	0.638618	-0.283990	0.283980
O28	O	1.138618	0.216010	0.783980
O29	O	0.787653	-0.219767	0.368789
O30	O	1.287653	0.280233	0.868789
O31	O	0.787538	-0.368759	0.219749
O32	O	1.287538	0.131241	0.719749
O33	O	0.723324	-0.368753	0.283960
O34	O	1.223324	0.131247	0.783960
C35	C	0.755433	-0.387727	0.251859
C36	C	1.255433	0.112273	0.751859
C37	C	0.755449	-0.445841	0.251859
C38	C	1.255449	0.054159	0.751859
C39	C	0.619664	-0.251881	0.251879
C40	C	1.119664	0.248119	0.751879
C41	C	0.561550	-0.251892	0.251882
C42	C	1.061550	0.248108	0.751882
C43	C	0.788967	-0.806164	0.285405
C44	C	1.288967	-0.306164	0.785405
C45	C	0.788983	-0.860769	0.285416
C46	C	1.288983	-0.360769	0.785416
O47	O	0.817394	-0.888972	0.313897
O48	O	1.317394	-0.388972	0.813897
N49	N	0.755579	-0.888124	0.251950
N50	N	1.255579	-0.388124	0.751950
C51	C	0.722154	-0.860871	0.218475
C52	C	1.222154	-0.360871	0.718475
O53	O	0.693742	-0.889153	0.190011
O54	O	1.193742	-0.389153	0.690011
C55	C	0.722136	-0.806268	0.218467
C56	C	1.222136	-0.306268	0.718467
C57	C	0.755546	-0.778916	0.251932
C58	C	1.255546	-0.278916	0.751932
C59	C	0.822374	-0.778812	0.318867
C60	C	1.322374	-0.278812	0.818867
C61	C	0.822359	-0.724212	0.318856
C62	C	1.322359	-0.224212	0.818856
C63	C	0.788938	-0.696963	0.285383
C64	C	1.288938	-0.196963	0.785383
C65	C	0.755531	-0.724315	0.251920
C66	C	1.255531	-0.224315	0.751920
C67	C	0.688708	-0.779017	0.184996
C68	C	1.188708	-0.279017	0.684996
C69	C	0.688693	-0.724410	0.184991
C70	C	1.188693	-0.224410	0.684991
C71	C	0.722103	-0.697058	0.218455
C72	C	1.222103	-0.197058	0.718455
C73	C	0.722095	-0.642466	0.218435
C74	C	1.222095	-0.142466	0.718435
N75	N	0.755499	-0.615112	0.251901
N76	N	1.255499	-0.115112	0.751901
C77	C	0.788920	-0.642360	0.285375
C78	C	1.288920	-0.142360	0.785375
C79	C	0.722193	-0.975542	0.218494
C80	C	1.222193	-0.475542	0.718494
C81	C	0.722213	-1.030144	0.218499
C82	C	1.222213	-0.530144	0.718499
C83	C	0.789041	-1.030038	0.285441
C84	C	1.289041	-0.530038	0.785441
C85	C	0.789024	-0.975435	0.285433
C86	C	1.289024	-0.475435	0.785433
C87	C	0.755597	-0.948187	0.251960
C88	C	1.255597	-0.448187	0.751960
C89	C	0.788887	-0.527695	0.285348
C90	C	1.288887	-0.027695	0.785348
C91	C	0.788870	-0.473090	0.285332
C92	C	1.288870	0.026910	0.785332
C93	C	0.722040	-0.473201	0.218392
C94	C	1.222040	0.026799	0.718392
C95	C	0.722058	-0.527801	0.218406
C96	C	1.222058	-0.027801	0.718406
C97	C	0.755483	-0.555047	0.251888
C98	C	1.255483	-0.055047	0.751888
O99	O	0.693697	-0.614229	0.189971
O100	O	1.193697	-0.114229	0.689971
O101	O	0.817322	-0.614072	0.313839
O102	O	1.317322	-0.114072	0.813839
C103	C	0.201207	-0.218495	0.285409
C104	C	0.701207	0.281505	0.785409
C105	C	0.146603	-0.218494	0.285412
C106	C	0.646603	0.281506	0.785412
O107	O	0.118383	-0.190088	0.313891
O108	O	0.618383	0.309912	0.813891
N109	N	0.119267	-0.251883	0.251914
N110	N	0.619267	0.248117	0.751914
C111	C	0.146539	-0.285271	0.218407
C112	C	0.646539	0.214729	0.718407
O113	O	0.118274	-0.313670	0.189914
O114	O	0.618274	0.186330	0.689914
C115	C	0.201142	-0.285268	0.218401
C116	C	0.701142	0.214732	0.718401
C117	C	0.228475	-0.251881	0.251905
C118	C	0.728475	0.248119	0.751905
C119	C	0.228540	-0.185109	0.318909
C120	C	0.728540	0.314891	0.818909
C121	C	0.283140	-0.185111	0.318907
C122	C	0.783140	0.314889	0.818907
C123	C	0.310408	-0.218497	0.285403
C124	C	0.810408	0.281503	0.785403
C125	C	0.283076	-0.251882	0.251903
C126	C	0.783076	0.248118	0.751903
C127	C	0.228413	-0.318653	0.184892
C128	C	0.728413	0.181347	0.684892
C129	C	0.283020	-0.318647	0.184889
C130	C	0.783020	0.181353	0.684889
C131	C	0.310353	-0.285260	0.218393
C132	C	0.810353	0.214740	0.718393
C133	C	0.364944	-0.285270	0.218396
C134	C	0.864944	0.214730	0.718396
N135	N	0.392279	-0.251881	0.251894
N136	N	0.892279	0.248119	0.751894
C137	C	0.365011	-0.218494	0.285398
C138	C	0.865011	0.281506	0.785398
C139	C	0.031869	-0.285273	0.218420
C140	C	0.531869	0.214727	0.718420
C141	C	-0.022734	-0.285279	0.218428
C142	C	0.477266	0.214721	0.718428
C143	C	-0.022667	-0.218501	0.285432
C144	C	0.477333	0.281499	0.785432
C145	C	0.031937	-0.218498	0.285427
C146	C	0.531937	0.281502	0.785427
C147	C	0.059204	-0.251884	0.251918
C148	C	0.559204	0.248116	0.751918
C149	C	0.479676	-0.218500	0.285390
C150	C	0.979676	0.281500	0.785390
C151	C	0.534282	-0.218506	0.285386
C152	C	1.034282	0.281494	0.785386
C153	C	0.534210	-0.285281	0.218380
C154	C	1.034210	0.214719	0.718380
C155	C	0.479609	-0.285278	0.218385
C156	C	0.979609	0.214722	0.718385
C157	C	0.452344	-0.251883	0.251892
C158	C	0.952344	0.248117	0.751892
O159	O	0.393198	-0.313659	0.189930
O160	O	0.893198	0.186341	0.689930
O161	O	0.393283	-0.190095	0.313881
O162	O	0.893283	0.309905	0.813881
C163	C	0.891879	-0.251888	0.251921
C164	C	1.391879	0.248112	0.751921
C165	C	0.949993	-0.251890	0.251930
C166	C	1.449993	0.248110	0.751930
C167	C	0.755523	-0.251875	0.388273
C168	C	1.255523	0.248125	0.888273
C169	C	0.755530	-0.251871	0.446387
C170	C	1.255530	0.248129	0.946387
C171	C	0.755595	-0.115511	0.251952
C172	C	1.255595	0.384489	0.751952
C173	C	0.755633	-0.057397	0.251975
C174	C	1.255633	0.442603	0.751975
C175	C	0.755520	-0.251856	0.116057
C176	C	1.255520	0.248144	0.616057
C177	C	0.755614	-0.251713	0.057943
C178	C	1.255614	0.248287	0.557943
C179	C	0.789035	-0.218333	0.806774
C180	C	1.289035	0.281667	1.306774
C181	C	0.789041	-0.218318	0.861378
C182	C	1.289041	0.281682	1.361378
O183	O	0.817486	-0.189864	0.889635
O184	O	1.317486	0.310136	1.389635
N185	N	0.755588	-0.251749	0.888669
N186	N	1.255588	0.248251	1.388669
C187	C	0.722122	-0.285192	0.861354
C188	C	1.222122	0.214808	1.361354
O189	O	0.693668	-0.313626	0.889581
O190	O	1.193668	0.186374	1.389581
C191	C	0.722114	-0.285204	0.806750
C192	C	1.222114	0.214796	1.306750
C193	C	0.755573	-0.251775	0.779462
C194	C	1.255573	0.248225	1.279462
C195	C	0.822491	-0.184906	0.779485
C196	C	1.322491	0.315094	1.279485
C197	C	0.822485	-0.184921	0.724884
C198	C	1.322485	0.315079	1.224884
C199	C	0.789023	-0.218363	0.697572
C200	C	1.289023	0.281637	1.197572
C201	C	0.755567	-0.251790	0.724861
C202	C	1.255567	0.248210	1.224861
C203	C	0.688646	-0.318644	0.779436
C204	C	1.188646	0.181356	1.279436
C205	C	0.688640	-0.318653	0.724828
C206	C	1.188640	0.181347	1.224828
C207	C	0.722099	-0.285223	0.697540
C208	C	1.222099	0.214777	1.197540
C209	C	0.722099	-0.285247	0.642949
C210	C	1.222099	0.214753	1.142949
N211	N	0.755552	-0.251817	0.615657
N212	N	1.255552	0.248183	1.115657
C213	C	0.789014	-0.218375	0.642969
C214	C	1.289014	0.281625	1.142969
C215	C	0.722143	-0.285165	0.976024
C216	C	1.222143	0.214835	1.476024
C217	C	0.722154	-0.285157	1.030627
C218	C	1.222154	0.214843	1.530627
C219	C	0.789072	-0.218282	1.030647
C220	C	1.289072	0.281718	1.530647
C221	C	0.789063	-0.218293	0.976044
C222	C	1.289063	0.281707	1.476044
C223	C	0.755596	-0.251735	0.948733
C224	C	1.255596	0.248265	1.448733
C225	C	0.789000	-0.218410	0.528304
C226	C	1.289000	0.281590	1.028304
C227	C	0.788992	-0.218429	0.473699
C228	C	1.288992	0.281571	0.973699
C229	C	0.722072	-0.285302	0.473683
C230	C	1.222072	0.214698	0.973683
C231	C	0.722081	-0.285285	0.528283
C232	C	1.222081	0.214715	1.028283
C233	C	0.755547	-0.251834	0.555593
C234	C	1.255547	0.248166	1.055593
O235	O	0.693668	-0.313686	0.614657
O236	O	1.193668	0.186314	1.114657
O237	O	0.817459	-0.189941	0.614735
O238	O	1.317459	0.310059	1.114735
H239	H	0.816079	-0.450821	0.312583
H240	H	1.316079	0.049179	0.812583
N241	N	0.823177	-0.184236	0.556195
N242	N	1.323177	0.315764	1.056195
N243	N	0.819739	-0.135993	0.550101
N244	N	1.319739	0.364007	1.050101
H245	H	0.843878	-0.111858	0.569800
H246	H	1.343878	0.388142	1.069800
N247	N	0.856657	-0.150776	0.697004
N248	N	1.356657	0.349224	1.197004
N249	N	0.889961	-0.169172	0.666534
N250	N	1.389961	0.330828	1.166534
H251	H	0.914094	-0.145055	0.646845
H252	H	1.414094	0.354945	1.146845
N253	N	0.059719	-0.319392	0.184203
N254	N	0.559719	0.180608	0.684203
N255	N	0.090171	-0.352738	0.202531
N256	N	0.590171	0.147262	0.702531
H257	H	0.109838	-0.376835	0.178365
H258	H	0.609838	0.123165	0.678365
H259	H	0.816308	-0.191071	0.953829
H260	H	1.316308	0.308929	1.453829
N261	N	0.856499	-0.696269	0.353021
N262	N	1.356499	-0.196269	0.853021
N263	N	0.856500	-0.647516	0.353001
N264	N	1.356500	-0.147516	0.853001
H265	H	0.880620	-0.627783	0.377124
H266	H	1.380620	-0.127783	0.877124
N267	N	0.856676	-0.150737	0.807370
N268	N	1.356676	0.349263	1.307370
N269	N	0.886540	-0.120896	0.782988
N270	N	1.386540	0.379104	1.282988
H271	H	0.910688	-0.096764	0.802678
H272	H	1.410688	0.403236	1.302678
N273	N	0.688047	-0.947705	0.184303
N274	N	1.188047	-0.447705	0.684303
N275	N	0.654704	-0.917259	0.202661
N276	N	1.154704	-0.417259	0.702661
H277	H	0.630587	-0.897602	0.178515
H278	H	1.130587	-0.397602	0.678515
N279	N	0.823257	-0.184117	1.058544
N280	N	1.323257	0.315883	1.558544
N281	N	0.871500	-0.187584	1.052455
N282	N	1.371500	0.312416	1.552455
H283	H	0.895643	-0.163457	1.072158
H284	H	1.395643	0.336543	1.572158
H285	H	0.694830	-0.451006	0.191137
H286	H	1.194830	0.048994	0.691137
H287	H	0.694913	-0.312384	1.052840
H288	H	1.194913	0.187616	1.552840
N289	N	0.687952	-0.319325	0.948130
N290	N	1.187952	0.180675	1.448130
N291	N	0.639710	-0.315854	0.954227
N292	N	1.139710	0.184146	1.454227
H293	H	0.615561	-0.339978	0.934529
H294	H	1.115561	0.160022	1.434529
H295	H	0.457354	-0.312470	0.191110
H296	H	0.957354	0.187530	0.691110
N297	N	0.562209	-0.184397	0.319601
N298	N	1.062209	0.315603	0.819601
N299	N	0.610961	-0.184398	0.319596
N300	N	1.110961	0.315602	0.819596
H301	H	0.630684	-0.160308	0.343758
H302	H	1.130684	0.339692	0.843758
H303	H	0.054187	-0.191310	0.312708
H304	H	0.554187	0.308690	0.812708
H305	H	0.457483	-0.191305	0.312673
H306	H	0.957483	0.308695	0.812673
N307	N	0.311065	-0.151008	0.353125
N308	N	0.811065	0.348992	0.853125
N309	N	0.341537	-0.169446	0.386406
N310	N	0.841537	0.330554	0.886406
H311	H	0.361257	-0.145359	0.410573
H312	H	0.861257	0.354641	0.910573
N313	N	0.200692	-0.151012	0.353145
N314	N	0.700692	0.348988	0.853145
N315	N	0.170232	-0.169460	0.386435
N316	N	0.670232	0.330540	0.886435
H317	H	0.150568	-0.145380	0.410620
H318	H	0.650568	0.354620	0.910620
N319	N	0.856517	-0.806632	0.353069
N320	N	1.356517	-0.306632	0.853069
N321	N	0.886338	-0.782194	0.382941
N322	N	1.386338	-0.282194	0.882941
H323	H	0.910456	-0.801838	0.407096
H324	H	1.410456	-0.301838	0.907096
H325	H	0.661400	-0.345866	0.801645
H326	H	1.161400	0.154134	1.301645
N327	N	0.654446	-0.352813	0.696940
N328	N	1.154446	0.147187	1.196940
N329	N	0.624576	-0.382654	0.721316
N330	N	1.124576	0.117346	1.221316
H331	H	0.600427	-0.406780	0.701621
H332	H	1.100427	0.093220	1.201621
H333	H	0.694841	-0.312510	0.550503
H334	H	1.194841	0.187490	1.050503
N335	N	-0.050534	-0.184401	0.319654
N336	N	0.449466	0.315599	0.819654
N337	N	-0.099286	-0.184411	0.319649
N338	N	0.400714	0.315589	0.819649
H339	H	-0.118970	-0.160330	0.343817
H340	H	0.381030	0.339670	0.843817
N341	N	0.200511	-0.352763	0.150667
N342	N	0.700511	0.147237	0.650667
N343	N	0.224874	-0.382565	0.120757
N344	N	0.724874	0.117435	0.620757
H345	H	0.205170	-0.406657	0.096582
H346	H	0.705170	0.093343	0.596582
N347	N	-0.050642	-0.319395	0.184210
N348	N	0.449358	0.180605	0.684210
N349	N	-0.026282	-0.349202	0.154302
N350	N	0.473718	0.150798	0.654302
H351	H	-0.045990	-0.373296	0.130132
H352	H	0.454010	0.126704	0.630132
N353	N	0.310873	-0.352744	0.150653
N354	N	0.810873	0.147256	0.650653
N355	N	0.304759	-0.349198	0.102416
N356	N	0.804759	0.150802	0.602416
H357	H	0.324429	-0.373278	0.078236
H358	H	0.824429	0.126722	0.578236
H359	H	0.556421	-0.312465	0.191103
H360	H	1.056421	0.187535	0.691103
H361	H	0.816254	-1.052233	0.312698
H362	H	1.316254	-0.552233	0.812698
N363	N	0.823170	-0.184272	0.445834
N364	N	1.323170	0.315728	0.945834
N365	N	0.819732	-0.136026	0.451945
N366	N	1.319732	0.363974	0.951945
H367	H	0.843869	-0.111901	0.432267
H368	H	1.343869	0.388099	0.932267
N369	N	0.823031	-0.555513	0.319553
N370	N	1.323031	-0.055513	0.819553
N371	N	0.852854	-0.531076	0.349424
N372	N	1.352854	-0.031076	0.849424
H373	H	0.876971	-0.550721	0.373580
H374	H	1.376971	-0.050721	0.873580
N375	N	0.823155	-0.947506	0.319618
N376	N	1.323155	-0.447506	0.819618
N377	N	0.852994	-0.971848	0.349498
N378	N	1.352994	-0.471848	0.849498
H379	H	0.877101	-0.952126	0.373643
H380	H	1.377101	-0.452126	0.873643
H381	H	0.694830	-0.312531	0.451436
H382	H	1.194830	0.187469	0.951436
N383	N	0.688091	-1.058072	0.184303
N384	N	1.188091	-0.558072	0.684303
N385	N	0.658257	-1.033730	0.154418
N386	N	1.158257	-0.533730	0.654418
H387	H	0.634156	-1.053452	0.130266
H388	H	1.134156	-0.553452	0.630266
H389	H	0.661471	-0.702227	0.157734
H390	H	1.161471	-0.202227	0.657734
N391	N	0.654578	-0.806943	0.150811
N392	N	1.154578	-0.306943	0.650811
N393	N	0.658065	-0.800867	0.102568
N394	N	1.158065	-0.300867	0.602568
H395	H	0.633955	-0.820589	0.078425
H396	H	1.133955	-0.320589	0.578425
N397	N	0.687951	-0.555736	0.184198
N398	N	1.187951	-0.055736	0.684198
N399	N	0.658126	-0.531397	0.154301
N400	N	1.158126	-0.031397	0.654301
H401	H	0.634040	-0.551122	0.130137
H402	H	1.134040	-0.051122	0.630137
