data_functionalizedCrystal
_audit_creation_method	'MofGen! by Chris Wilmer'
_symmetry_space_group_name_H-M	'P1'
_symmetry_Int_Tables_number	1
_symmetry_cell_setting	triclinic
loop_
_symmetry_equiv_pos_as_xyz
  x,y,z
_cell_length_a	18.426585
_cell_length_b	12.970454
_cell_length_c	12.970454
_cell_angle_alpha	59.999702
_cell_angle_beta	89.999510
_cell_angle_gamma	60.001630
loop_
_atom_site_label
_atom_site_type_symbol
_atom_site_fract_x
_atom_site_fract_y
_atom_site_fract_z
Zr1	Zr	0.699118	1.128554	-0.135322
O2	O	0.583243	1.343637	-0.299941
O3	O	0.734639	0.913467	-0.084857
O4	O	0.734640	1.128557	-0.299947
O5	O	0.583241	1.128546	0.084816
O6	O	0.854066	1.128564	-0.299952
O7	O	0.583241	1.128547	-0.084851
O8	O	0.854063	0.743807	0.084805
O9	O	0.583244	1.513303	-0.299941
O10	O	0.838915	1.001943	-0.063338
O11	O	0.749789	1.001936	0.063287
O12	O	0.749791	1.255177	-0.189954
O13	O	0.660664	1.255171	-0.063330
Zr14	Zr	0.889588	1.128564	0.135272
Zr15	Zr	0.889588	1.128566	-0.135328
Zr16	Zr	0.699117	1.128553	0.135278
Zr17	Zr	0.699119	1.399152	-0.135321
Zr18	Zr	0.889586	0.857967	0.135271
O19	O	0.854067	1.343651	0.084807
O20	O	0.854067	1.343654	-0.299951
O21	O	0.583242	1.343635	0.084817
O22	O	1.005463	0.913481	0.299891
O23	O	1.005463	0.913483	-0.084867
O24	O	0.734638	0.913465	0.299901
O25	O	1.005464	1.128572	-0.084866
O26	O	0.854065	1.128561	0.299897
O27	O	0.734639	1.128554	0.299902
O28	O	1.005464	1.128572	0.084801
O29	O	0.734642	1.513312	-0.299946
O30	O	0.854063	0.743806	0.299896
O31	O	1.005462	0.743815	0.299891
O32	O	1.005462	0.743817	0.084800
O33	O	0.583244	1.513302	-0.084850
O34	O	0.734642	1.513311	-0.084855
O35	O	0.838915	1.001941	0.189904
O36	O	0.928041	1.001947	0.063280
O37	O	0.838917	1.255182	-0.063337
O38	O	0.749790	1.255176	0.063287
C39	C	0.556103	1.128545	-0.000016
C40	C	0.475243	1.128540	-0.000014
C41	C	0.794352	1.128558	0.338454
C42	C	0.794352	1.128557	0.453331
C43	C	0.794355	1.467036	-0.000024
C44	C	0.794355	1.581911	-0.000024
C45	C	0.179129	1.128584	-0.000036
C46	C	0.261515	1.128578	-0.000033
C47	C	0.327183	1.128562	-0.000026
C48	C	0.409575	1.128556	-0.000021
C49	C	1.032602	1.128574	-0.000034
C50	C	1.113462	1.128578	-0.000037
C51	C	0.794351	0.790083	-0.000026
C52	C	0.794350	0.675207	-0.000027
C53	C	0.794353	1.128561	-0.338504
C54	C	0.794353	1.128562	-0.453381
C55	C	1.032600	0.790097	-0.000035
C56	C	1.113459	0.675226	-0.000038
C57	C	0.794350	0.790081	0.338453
C58	C	0.794349	0.675205	0.453330
C59	C	1.032600	0.790095	0.338445
C60	C	1.113459	0.675224	0.453318
C61	C	0.556106	1.467023	-0.338495
C62	C	0.475247	1.581895	-0.453368
C63	C	0.556105	1.467021	-0.000015
C64	C	0.475246	1.581892	-0.000012
C65	C	0.794355	1.467038	-0.338503
C66	C	0.794356	1.581914	-0.453380
C67	C	1.104909	0.621279	-0.066144
C68	C	1.180877	0.513361	-0.066172
C69	C	1.265395	0.459384	-0.000087
C70	C	1.273944	0.513342	0.066021
C71	C	1.197977	0.621266	0.066042
C72	C	1.197962	0.621282	0.441167
C73	C	1.273945	0.513363	0.549093
C74	C	1.265422	0.459381	0.669168
C75	C	1.180910	0.513333	0.681316
C76	C	1.104929	0.621257	0.573392
C77	C	0.390744	1.635850	-0.441217
C78	C	0.314761	1.743802	-0.549143
C79	C	0.323283	1.797790	-0.669218
C80	C	0.407795	1.743831	-0.681366
C81	C	0.483776	1.635888	-0.573442
C82	C	0.483797	1.635851	0.066083
C83	C	0.407828	1.743799	0.066081
C84	C	0.323310	1.797780	-0.000008
C85	C	0.314761	1.743817	-0.066111
C86	C	0.390729	1.635878	-0.066116
H87	H	1.173899	0.469441	-0.120005
H88	H	1.204918	0.665219	0.343406
O89	O	0.232724	1.796133	-0.130404
C90	C	0.241453	1.725339	-0.188718
H91	H	0.309239	1.680871	-0.201840
H92	H	0.235232	1.631591	-0.126758
C93	C	0.084568	1.889332	-0.302272
C94	C	0.167821	1.834726	-0.318398
H95	H	0.039147	1.956803	-0.382262
H96	H	0.078686	1.937024	-0.262981
H97	H	0.079397	1.811197	-0.250634
H98	H	0.172996	1.912858	-0.370021
H99	H	0.173703	1.787049	-0.357701
O100	O	0.416225	1.796009	-0.797916
C101	C	0.507101	1.725138	-0.785518
H102	H	0.547646	1.680836	-0.689295
H103	H	0.529460	1.631262	-0.794158
C104	C	0.471602	1.888789	-1.008468
C105	C	0.521399	1.834388	-0.890289
H106	H	0.480422	1.956176	-1.073099
H107	H	0.410376	1.936534	-1.016823
H108	H	0.490239	1.810548	-1.015650
H109	H	0.502753	1.912627	-0.883103
H110	H	0.582622	1.786659	-0.881936
O111	O	1.022747	0.673820	-0.130240
C112	C	0.957516	0.780676	-0.116090
H113	H	0.987118	0.762947	-0.026813
H114	H	0.933756	0.893573	-0.201480
C115	C	0.842013	0.790622	-0.215532
C116	C	0.878369	0.768838	-0.105875
H117	H	0.793189	0.783325	-0.209236
H118	H	0.885959	0.718634	-0.225070
H119	H	0.822220	0.884702	-0.286679
H120	H	0.898172	0.674753	-0.034732
H121	H	0.834424	0.840809	-0.096324
H122	H	0.552609	1.591908	0.119909
O123	O	1.356068	0.460659	0.130385
C124	C	1.402787	0.309409	0.223103
H125	H	1.353475	0.279893	0.247660
H126	H	1.447847	0.247699	0.185243
C127	C	1.520128	0.303677	0.312190
C128	C	1.459562	0.267426	0.342359
H129	H	1.555153	0.277776	0.385751
H130	H	1.488655	0.405575	0.249722
H131	H	1.557670	0.252248	0.280638
H132	H	1.422014	0.318868	0.373895
H133	H	1.491030	0.165534	0.404835
O134	O	1.206448	0.673446	0.130384
C135	C	1.297338	0.602674	0.188680
H136	H	1.337841	0.493289	0.201733
H137	H	1.319725	0.673464	0.126742
C138	C	1.261921	0.711851	0.302360
C139	C	1.311667	0.577496	0.318402
H140	H	1.270761	0.696325	0.382377
H141	H	1.200687	0.759536	0.263082
H142	H	1.280583	0.770829	0.250741
H143	H	1.292998	0.518528	0.370007
H144	H	1.372899	0.529800	0.357692
H145	H	1.327246	0.371504	-0.000112
O146	O	0.232607	1.796401	-0.537551
C147	C	0.167362	1.903233	-0.658546
H148	H	0.196954	1.950471	-0.730104
H149	H	0.143591	1.851609	-0.686054
C150	C	0.051883	1.967840	-0.569001
C151	C	0.088227	2.025867	-0.656889
H152	H	0.003067	2.043484	-0.567980
H153	H	0.095839	1.895862	-0.487484
H154	H	0.032082	1.924821	-0.591936
H155	H	0.108038	2.068868	-0.633946
H156	H	0.044273	2.097856	-0.738403
H157	H	0.414807	1.787717	0.119915
H158	H	1.342751	0.469446	0.539179
H159	H	0.261407	1.885684	-0.757087
H160	H	1.327298	0.371501	0.757036
O161	O	1.172522	0.460868	0.797891
C162	C	1.125684	0.398378	0.811758
H163	H	1.083739	0.447138	0.714604
H164	H	1.174900	0.275449	0.863331
C165	C	1.116214	0.370421	1.007807
C166	C	1.064690	0.430318	0.888481
H167	H	1.078593	0.390116	1.055138
H168	H	1.147773	0.412516	0.998468
H169	H	1.157225	0.267984	1.050768
H170	H	1.023688	0.532754	0.845517
H171	H	1.033123	0.388240	0.897815
H172	H	1.036126	0.665163	0.583303
H173	H	0.383787	1.591898	-0.343456
H174	H	0.552580	1.591959	-0.583350
H175	H	0.261460	1.885670	0.000006
O176	O	0.382527	1.583202	-0.130125
C177	C	0.423655	1.431973	-0.045259
H178	H	0.475445	1.386188	0.041724
H179	H	0.371410	1.411404	-0.015670
C180	C	0.405588	1.412644	-0.216862
C181	C	0.469203	1.356408	-0.110032
H182	H	0.433680	1.366032	-0.256817
H183	H	0.377875	1.514531	-0.274038
H184	H	0.362055	1.395500	-0.192189
H185	H	0.512728	1.373569	-0.134708
H186	H	0.496923	1.254522	-0.052862
