data_functionalizedCrystal
_audit_creation_method	'MofGen! by Chris Wilmer'
_symmetry_space_group_name_H-M	'P1'
_symmetry_Int_Tables_number	1
_symmetry_cell_setting	triclinic
loop_
_symmetry_equiv_pos_as_xyz
  x,y,z
_cell_length_a	13.033293
_cell_length_b	13.897447
_cell_length_c	13.032268
_cell_angle_alpha	97.151637
_cell_angle_beta	90.920818
_cell_angle_gamma	82.808639
loop_
_atom_site_label
_atom_site_type_symbol
_atom_site_fract_x
_atom_site_fract_y
_atom_site_fract_z
Zn1	Zn	1.498440	0.300102	0.781500
Zn2	Zn	1.748440	0.550102	1.031500
Zn3	Zn	1.998440	0.800102	1.281500
Zn4	Zn	2.248440	1.050102	1.531500
Zn5	Zn	1.520172	0.438722	0.609536
Zn6	Zn	1.770172	0.688722	0.859536
Zn7	Zn	2.020172	0.938722	1.109536
Zn8	Zn	2.270172	1.188722	1.359536
Zn9	Zn	1.348300	0.295009	0.587676
Zn10	Zn	1.598300	0.545009	0.837676
Zn11	Zn	1.848300	0.795009	1.087676
Zn12	Zn	2.098300	1.045009	1.337676
Zn13	Zn	1.326420	0.478933	0.759578
Zn14	Zn	1.576420	0.728933	1.009578
Zn15	Zn	1.826420	0.978933	1.259578
Zn16	Zn	2.076420	1.228933	1.509578
O17	O	1.423333	0.378192	0.684573
O18	O	1.673333	0.628192	0.934573
O19	O	1.923333	0.878192	1.184573
O20	O	2.173333	1.128192	1.434573
O21	O	1.645242	0.303794	0.777012
O22	O	1.895242	0.553794	1.027012
O23	O	2.145242	0.803794	1.277012
O24	O	2.395242	1.053794	1.527012
O25	O	1.515625	0.400698	0.462726
O26	O	1.765625	0.650698	0.712726
O27	O	2.015625	0.900698	0.962726
O28	O	2.265625	1.150698	1.212726
O29	O	1.368279	0.160699	0.613413
O30	O	1.618279	0.410699	0.863413
O31	O	1.868279	0.660699	1.113413
O32	O	2.118279	0.910699	1.363413
O33	O	1.661209	0.405637	0.650670
O34	O	1.911209	0.655637	0.900670
O35	O	2.161209	0.905637	1.150670
O36	O	2.411209	1.155637	1.400670
O37	O	1.478585	0.164441	0.755815
O38	O	1.728585	0.414441	1.005815
O39	O	1.978585	0.664441	1.255815
O40	O	2.228585	0.914441	1.505815
O41	O	1.389352	0.295112	0.446666
O42	O	1.639352	0.545112	0.696666
O43	O	1.889352	0.795112	0.946666
O44	O	2.139352	1.045112	1.196666
O45	O	1.201478	0.334103	0.592156
O46	O	1.451478	0.584103	0.842156
O47	O	1.701478	0.834103	1.092156
O48	O	1.951478	1.084103	1.342156
O49	O	1.330986	0.474171	0.906396
O50	O	1.580986	0.724171	1.156396
O51	O	1.830986	0.974171	1.406396
O52	O	2.080986	1.224171	1.656396
O53	O	1.185402	0.469232	0.718452
O54	O	1.435402	0.719232	0.968452
O55	O	1.685402	0.969232	1.218452
O56	O	1.935402	1.219232	1.468452
O57	O	1.457369	0.342785	0.922502
O58	O	1.707369	0.592785	1.172502
O59	O	1.957369	0.842785	1.422502
O60	O	2.207369	1.092785	1.672502
O61	O	1.494408	0.579042	0.629413
O62	O	1.744408	0.829042	0.879413
O63	O	1.994408	1.079042	1.129413
O64	O	2.244408	1.329042	1.379413
O65	O	1.352059	0.608585	0.739649
O66	O	1.602059	0.858585	0.989649
O67	O	1.852059	1.108585	1.239649
O68	O	2.102059	1.358585	1.489649
C69	C	1.156123	0.405479	0.650554
C70	C	1.406123	0.655479	0.900554
C71	C	1.656123	0.905479	1.150554
C72	C	1.906123	1.155479	1.400554
C73	C	1.041807	0.417179	0.636025
C74	C	1.291807	0.667179	0.886025
C75	C	1.541807	0.917179	1.136025
C76	C	1.791807	1.167179	1.386025
C77	C	0.982928	0.372109	0.692155
C78	C	1.232928	0.622109	0.942155
C79	C	1.482928	0.872109	1.192155
C80	C	1.732928	1.122109	1.442155
C81	C	0.864776	0.384201	0.677140
C82	C	1.114776	0.634201	0.927140
C83	C	1.364776	0.884201	1.177140
C84	C	1.614776	1.134201	1.427140
C85	C	1.423243	0.628814	0.684550
C86	C	1.673243	0.878814	0.934550
C87	C	1.923243	1.128814	1.184550
C88	C	2.173243	1.378814	1.434550
C89	C	1.423294	0.736026	0.684587
C90	C	1.673294	0.986026	0.934587
C91	C	1.923294	1.236026	1.184587
C92	C	2.173294	1.486026	1.434587
C93	C	1.423338	0.823095	0.684621
C94	C	1.673338	1.073095	0.934621
C95	C	1.923338	1.323095	1.184621
C96	C	2.173338	1.573095	1.434621
C97	C	1.423402	0.932324	0.684662
C98	C	1.673402	1.182324	0.934662
C99	C	1.923402	1.432324	1.184662
C100	C	2.173402	1.682324	1.434662
C101	C	1.691586	0.350798	0.718725
C102	C	1.941586	0.600798	0.968725
C103	C	2.191586	0.850798	1.218725
C104	C	2.441586	1.100798	1.468725
C105	C	1.805899	0.339125	0.733279
C106	C	2.055899	0.589125	0.983279
C107	C	2.305899	0.839125	1.233279
C108	C	2.555899	1.089125	1.483279
C109	C	1.389313	0.413532	0.952806
C110	C	1.639313	0.663532	1.202806
C111	C	1.889313	0.913532	1.452806
C112	C	2.139313	1.163532	1.702806
C113	C	1.374815	0.428592	1.067112
C114	C	1.624815	0.678592	1.317112
C115	C	1.874815	0.928592	1.567112
C116	C	2.124815	1.178592	1.817112
C117	C	1.423439	1.126593	0.684633
C118	C	1.673439	1.376593	0.934633
C119	C	1.923439	1.626593	1.184633
C120	C	2.173439	1.876593	1.434633
C121	C	1.423460	1.019384	0.684690
C122	C	1.673460	1.269384	0.934690
C123	C	1.923460	1.519384	1.184690
C124	C	2.173460	1.769384	1.434690
C125	C	1.457280	0.342913	0.417390
C126	C	1.707280	0.592913	0.667390
C127	C	1.957280	0.842913	0.917390
C128	C	2.207280	1.092913	1.167390
C129	C	1.471977	0.327561	0.303110
C130	C	1.721977	0.577561	0.553110
C131	C	1.971977	0.827561	0.803110
C132	C	2.221977	1.077561	1.053110
C133	C	1.430883	0.370299	1.126042
C134	C	1.680883	0.620299	1.376042
C135	C	1.930883	0.870299	1.626042
C136	C	2.180883	1.120299	1.876042
C137	C	1.415901	0.385862	1.244182
C138	C	1.665901	0.635862	1.494182
C139	C	1.915901	0.885862	1.744182
C140	C	2.165901	1.135862	1.994182
H141	H	1.019992	0.324568	0.751323
H142	H	1.269992	0.574568	1.001323
H143	H	1.519992	0.824568	1.251323
H144	H	1.769992	1.074568	1.501323
H145	H	1.531069	0.266123	1.266105
H146	H	1.781069	0.516123	1.516105
H147	H	2.031069	0.766123	1.766105
H148	H	2.281069	1.016123	2.016105
H149	H	0.827717	0.431740	0.617962
H150	H	1.077717	0.681740	0.867962
H151	H	1.327717	0.931740	1.117962
H152	H	1.577717	1.181740	1.367962
H153	H	0.842958	0.291578	0.792449
H154	H	1.092958	0.541578	1.042449
H155	H	1.342958	0.791578	1.292449
H156	H	1.592958	1.041578	1.542449
F157	F	0.993368	0.479311	0.558676
F158	F	1.243368	0.729311	0.808676
F159	F	1.493368	0.979311	1.058676
F160	F	1.743368	1.229311	1.308676
H161	H	1.489973	0.308867	1.089030
H162	H	1.739973	0.558867	1.339030
H163	H	1.989973	0.808867	1.589030
H164	H	2.239973	1.058867	1.839030
F165	F	1.297568	0.508882	1.115481
F166	F	1.547568	0.758882	1.365481
F167	F	1.797568	1.008882	1.615481
F168	F	2.047568	1.258882	1.865481
F169	F	1.338650	0.466157	1.292547
F170	F	1.588650	0.716157	1.542547
F171	F	1.838650	0.966157	1.792547
F172	F	2.088650	1.216157	2.042547
