data_functionalizedCrystal
_audit_creation_method	'MofGen! by Chris Wilmer'
_symmetry_space_group_name_H-M	'P1'
_symmetry_Int_Tables_number	1
_symmetry_cell_setting	triclinic
loop_
_symmetry_equiv_pos_as_xyz
  x,y,z
_cell_length_a	14.044220
_cell_length_b	10.868271
_cell_length_c	11.792241
_cell_angle_alpha	90.005281
_cell_angle_beta	91.308853
_cell_angle_gamma	90.000690
loop_
_atom_site_label
_atom_site_type_symbol
_atom_site_fract_x
_atom_site_fract_y
_atom_site_fract_z
O1	O	1.259113	-0.102192	-0.273771
O2	O	0.983093	-0.102224	-0.263891
O3	O	1.127802	-0.102199	-0.104289
O4	O	1.114405	-0.102217	-0.433373
O5	O	1.127790	0.102446	-0.104281
O6	O	0.983081	0.102421	-0.263883
O7	O	1.259101	0.102452	-0.273763
Zn8	Zn	1.121089	0.134928	-0.268822
Zn9	Zn	1.121105	-0.134700	-0.268832
O10	O	1.114393	0.102427	-0.433365
C11	C	0.947751	0.000095	-0.259563
C12	C	0.842459	0.000083	-0.246664
N13	N	1.121086	0.318942	-0.268815
N14	N	1.121117	-0.318714	-0.268831
C15	C	0.649676	0.000109	-0.223082
C16	C	0.592513	0.000109	-0.314567
C17	C	0.485242	0.000123	-0.301445
C18	C	0.756957	0.000095	-0.236202
C19	C	1.294444	0.000131	-0.278091
C20	C	1.399736	0.000135	-0.290990
C21	C	1.126954	0.000123	-0.061915
C22	C	1.124435	0.000122	0.064335
C23	C	1.121100	0.569949	-0.268829
C24	C	1.121089	0.430271	-0.268824
C25	C	1.115241	0.000103	-0.475739
C26	C	1.117759	0.000096	-0.601989
C27	C	1.119804	0.000101	0.295482
C28	C	1.122377	0.000112	0.166855
H29	H	0.618054	0.000121	-0.134912
H30	H	0.624137	0.000098	-0.402744
