data_functionalizedCrystal
_audit_creation_method	'MofGen! by Chris Wilmer'
_symmetry_space_group_name_H-M	'P1'
_symmetry_Int_Tables_number	1
_symmetry_cell_setting	triclinic
loop_
_symmetry_equiv_pos_as_xyz
  x,y,z
_cell_length_a	27.780882
_cell_length_b	27.780884
_cell_length_c	27.780936
_cell_angle_alpha	90.002261
_cell_angle_beta	59.997799
_cell_angle_gamma	119.999789
loop_
_atom_site_label
_atom_site_type_symbol
_atom_site_fract_x
_atom_site_fract_y
_atom_site_fract_z
O1	O	0.424592	-0.330213	-0.014321
O2	O	0.326022	-0.260214	0.014251
O3	O	0.424588	-0.260214	-0.084318
O4	O	0.326026	-0.330213	0.084247
O5	O	0.344528	-0.340274	-0.084318
O6	O	0.245962	-0.340274	0.014251
O7	O	0.344532	-0.410273	-0.014321
Zn8	Zn	0.282536	-0.387985	-0.000035
Zn9	Zn	0.388018	-0.282503	-0.000035
O10	O	0.245966	-0.410273	0.084248
C11	C	0.177734	-0.120430	0.029862
C12	C	0.211527	-0.056934	0.025772
C13	C	0.119397	-0.149664	0.030267
C14	C	0.177730	-0.207598	0.029867
C15	C	0.211519	-0.237303	0.025783
C16	C	0.119393	-0.236700	0.030273
C17	C	0.090568	-0.207596	0.029862
C18	C	0.031162	-0.237298	0.025772
C19	C	0.206427	-0.149666	0.030273
C20	C	-0.016831	-0.261295	0.022466
C21	C	0.238829	-0.005636	0.022467
C22	C	0.238818	-0.261301	0.022482
C23	C	-0.077040	-0.291400	0.018321
C24	C	0.273079	0.058719	0.018322
C25	C	0.273065	-0.291409	0.018343
O26	O	-0.234707	-0.410266	-0.014339
O27	O	-0.094711	-0.340265	0.014229
O28	O	-0.094704	-0.340270	-0.084338
O29	O	-0.234714	-0.410261	0.084228
O30	O	-0.094701	-0.260209	-0.084343
O31	O	-0.094708	-0.260204	0.014225
O32	O	-0.234704	-0.330205	-0.014344
Zn33	Zn	-0.164706	-0.282493	-0.000061
Zn34	Zn	-0.164709	-0.387977	-0.000054
O35	O	-0.234711	-0.330200	0.084223
C36	C	0.492828	-0.207603	-0.372394
C37	C	0.459037	-0.237307	-0.402098
C38	C	0.551166	-0.149673	-0.401496
C39	C	0.492828	-0.207604	-0.285228
C40	C	0.459036	-0.237307	-0.221733
C41	C	0.551166	-0.149673	-0.314463
C42	C	0.579994	-0.120438	-0.372393
C43	C	0.639400	-0.056943	-0.402096
C44	C	0.464132	-0.236706	-0.314464
C45	C	0.687394	-0.005646	-0.426092
C46	C	0.431736	-0.261304	-0.426095
C47	C	0.431736	-0.261304	-0.170435
C48	C	0.747605	0.058709	-0.456197
C49	C	0.397486	-0.291409	-0.456201
C50	C	0.397486	-0.291410	-0.106080
C51	C	0.580008	-0.462879	-0.029964
C52	C	0.639417	-0.433174	-0.025878
C53	C	0.551182	-0.520809	-0.030373
C54	C	0.492839	-0.462880	-0.029960
C55	C	0.459045	-0.433178	-0.025869
C56	C	0.464144	-0.520811	-0.030368
C57	C	0.492842	-0.550045	-0.029964
C58	C	0.459052	-0.613540	-0.025878
C59	C	0.551178	-0.433777	-0.030369
C60	C	0.431752	-0.664837	-0.022575
C61	C	0.687412	-0.409177	-0.022576
C62	C	0.431742	-0.409182	-0.022562
C63	C	0.397504	-0.729192	-0.018433
C64	C	0.747625	-0.379070	-0.018434
C65	C	0.397490	-0.379077	-0.018415
O66	O	0.344549	0.249047	-0.014343
O67	O	0.245980	0.080483	0.014226
O68	O	0.344550	0.179042	-0.084342
O69	O	0.245978	0.150488	0.084224
O70	O	0.424607	0.179040	-0.084336
O71	O	0.326036	0.080480	0.014231
O72	O	0.424605	0.249045	-0.014338
Zn73	Zn	0.388031	0.164762	-0.000053
Zn74	Zn	0.282554	0.164766	-0.000059
O75	O	0.326034	0.150486	0.084230
O76	O	0.905273	0.249033	-0.494995
O77	O	0.765273	0.080470	-0.425001
O78	O	0.765270	0.179032	-0.424994
O79	O	0.905276	0.150471	-0.495003
O80	O	0.765272	0.179034	-0.505055
O81	O	0.765275	0.080472	-0.505062
O82	O	0.905275	0.249035	-0.575056
Zn83	Zn	0.835275	0.164754	-0.552770
Zn84	Zn	0.835273	0.164751	-0.447287
O85	O	0.905278	0.150473	-0.575063
O86	O	0.326020	-0.330218	-0.575063
O87	O	0.424588	-0.260215	-0.505065
O88	O	0.326020	-0.260217	-0.505059
O89	O	0.424589	-0.330216	-0.575069
O90	O	0.245961	-0.340275	-0.425000
O91	O	0.344530	-0.340273	-0.425006
O92	O	0.245962	-0.410276	-0.495003
Zn93	Zn	0.282535	-0.387986	-0.447293
Zn94	Zn	0.388015	-0.282505	-0.552775
O95	O	0.344531	-0.410274	-0.495009
C96	C	0.090559	-0.550051	0.372323
C97	C	0.031152	-0.613546	0.402025
C98	C	0.119386	-0.520817	0.401426
C99	C	0.177725	-0.462885	0.285158
C100	C	0.211517	-0.433181	0.221663
C101	C	0.206420	-0.433783	0.314394
C102	C	0.177724	-0.462886	0.372324
C103	C	0.211515	-0.433183	0.402029
C104	C	0.119387	-0.520816	0.314392
C105	C	0.238815	-0.409187	0.426026
C106	C	-0.016842	-0.664843	0.426021
C107	C	0.238818	-0.409184	0.170365
C108	C	0.273064	-0.379082	0.456133
C109	C	-0.077053	-0.729198	0.456125
C110	C	0.273068	-0.379078	0.106010
C111	C	0.177761	-0.120445	-0.372420
C112	C	0.211554	-0.056951	-0.402125
C113	C	0.206457	-0.149682	-0.401521
C114	C	0.090590	-0.207608	-0.285252
C115	C	0.031179	-0.237308	-0.221756
C116	C	0.119418	-0.236712	-0.314485
C117	C	0.177759	-0.207612	-0.372416
C118	C	0.211551	-0.237318	-0.402117
C119	C	0.119420	-0.149677	-0.314489
C120	C	0.238852	-0.261316	-0.426113
C121	C	0.238857	-0.005654	-0.426124
C122	C	-0.016817	-0.261303	-0.170458
C123	C	0.273102	-0.291424	-0.456216
C124	C	0.273109	0.058701	-0.456232
C125	C	-0.077032	-0.291406	-0.106103
C126	C	-0.507174	-0.462860	0.372301
C127	C	-0.540966	-0.433155	0.402003
C128	C	-0.535872	-0.520790	0.401406
C129	C	-0.420004	-0.462864	0.285137
C130	C	-0.360594	-0.433163	0.221642
C131	C	-0.448834	-0.520794	0.314373
C132	C	-0.507175	-0.550027	0.372304
C133	C	-0.540968	-0.613521	0.402010
C134	C	-0.448833	-0.433760	0.314371
C135	C	-0.568270	-0.664818	0.426008
C136	C	-0.568268	-0.409157	0.425999
C137	C	-0.312597	-0.409168	0.170343
C138	C	-0.602522	-0.729173	0.456115
C139	C	-0.602518	-0.379050	0.456103
C140	C	-0.252383	-0.379064	0.105988
C141	C	0.580005	0.194619	-0.372405
C142	C	0.639409	0.190525	-0.402104
C143	C	0.551178	0.195023	-0.401510
C144	C	0.492843	0.194635	-0.285245
C145	C	0.459054	0.190558	-0.221751
C146	C	0.464149	0.195039	-0.314482
C147	C	0.492843	0.194621	-0.372410
C148	C	0.459052	0.190530	-0.402115
C149	C	0.551179	0.195036	-0.314476
C150	C	0.431752	0.187222	-0.426113
C151	C	0.687401	0.187216	-0.426097
C152	C	0.431754	0.187263	-0.170455
C153	C	0.397503	0.183075	-0.456220
C154	C	0.747609	0.183066	-0.456199
C155	C	0.397506	0.183130	-0.106101
O156	O	0.424649	0.249027	-0.575092
O157	O	0.326070	0.080461	-0.505095
O158	O	0.424629	0.179018	-0.505082
O159	O	0.326090	0.150471	-0.575105
O160	O	0.344563	0.179021	-0.425026
O161	O	0.246004	0.080464	-0.425039
O162	O	0.344583	0.249030	-0.495036
Zn163	Zn	0.282581	0.164748	-0.447327
Zn164	Zn	0.388072	0.164744	-0.552804
O165	O	0.246024	0.150474	-0.495049
C166	C	0.177742	0.134906	0.372298
C167	C	0.211532	0.138997	0.402003
C168	C	0.119406	0.134505	0.401398
C169	C	0.177741	0.134893	0.285133
C170	C	0.211531	0.138970	0.221639
C171	C	0.119406	0.134492	0.314364
C172	C	0.090580	0.134909	0.372293
C173	C	0.031176	0.139004	0.401992
C174	C	0.206435	0.134489	0.314370
C175	C	-0.016815	0.142313	0.425985
C176	C	0.238832	0.142304	0.426002
C177	C	0.238831	0.142265	0.170343
C178	C	-0.077023	0.146464	0.456086
C179	C	0.273081	0.146451	0.456109
C180	C	0.273079	0.146398	0.105989
H181	H	0.095268	-0.284299	0.030928
H182	H	0.575291	-0.126204	-0.449095
C183	C	0.269009	0.133585	0.283183
C184	C	0.288084	0.133319	0.321206
C185	C	0.345718	0.132482	0.292499
H186	H	0.305323	0.167578	0.248934
H187	H	0.258846	0.099194	0.272175
H188	H	0.298250	0.167706	0.332205
H189	H	0.251787	0.099329	0.355456
H190	H	0.335554	0.098091	0.281491
H191	H	0.382026	0.166475	0.258250
H192	H	0.358663	0.132296	0.318295
H193	H	0.575284	-0.126201	-0.290985
H194	H	0.253364	-0.386185	0.290920
H195	H	0.575310	0.195676	-0.449109
C196	C	0.087145	-0.300216	-0.283206
C197	C	0.020247	-0.335758	-0.267019
C198	C	-0.009495	-0.394259	-0.238215
H199	H	0.086840	-0.302546	-0.248931
H200	H	0.112652	-0.313465	-0.308928
H201	H	-0.005253	-0.322514	-0.241298
H202	H	0.020533	-0.333446	-0.301283
H203	H	0.016012	-0.407508	-0.263938
H204	H	-0.009795	-0.396583	-0.203943
H205	H	-0.054886	-0.418382	-0.227234
C206	C	0.269031	-0.118503	-0.464998
C207	C	0.288086	-0.156539	-0.484338
C208	C	0.345718	-0.127842	-0.542809
H209	H	0.305352	-0.084260	-0.467319
H210	H	0.258872	-0.107486	-0.489224
H211	H	0.298248	-0.167547	-0.460119
H212	H	0.251782	-0.190782	-0.482031
H213	H	0.335559	-0.116826	-0.567036
H214	H	0.382034	-0.093601	-0.545126
H215	H	0.358650	-0.153647	-0.555941
C216	C	0.087141	0.133527	0.464899
C217	C	0.020243	0.082817	0.500453
C218	C	-0.009491	0.081895	0.558951
H219	H	0.086835	0.167497	0.467222
H220	H	0.112652	0.133321	0.478144
H221	H	-0.005262	0.083029	0.487211
H222	H	0.020529	0.048838	0.498148
H223	H	0.016021	0.081689	0.572196
H224	H	-0.009792	0.115867	0.561267
H225	H	-0.054881	0.047486	0.583082
C226	C	-0.416711	-0.370333	0.283002
C227	C	-0.416449	-0.367188	0.232563
C228	C	-0.386873	-0.308773	0.203658
H229	H	-0.371290	-0.346076	0.271918
H230	H	-0.442260	-0.357100	0.308695
H231	H	-0.390900	-0.380413	0.206876
H232	H	-0.461862	-0.391432	0.243631
H233	H	-0.412421	-0.295540	0.229350
H234	H	-0.341454	-0.284521	0.192577
H235	H	-0.386697	-0.306632	0.169435
H236	H	0.095271	-0.126191	0.030925
H237	H	0.095296	-0.126201	-0.291020
C238	C	-0.416532	-0.551977	0.282998
C239	C	-0.359154	-0.513954	0.225905
C240	C	-0.329372	-0.542653	0.196993
H241	H	-0.448448	-0.586230	0.280926
H242	H	-0.403324	-0.562977	0.304185
H243	H	-0.372363	-0.502962	0.204723
H244	H	-0.327223	-0.479701	0.227960
H245	H	-0.316163	-0.553653	0.218180
H246	H	-0.361292	-0.576905	0.194925
H247	H	-0.290434	-0.516857	0.158255
H248	H	0.417177	-0.284299	-0.290989
C249	C	0.583235	0.195786	-0.283106
C250	C	0.535935	0.145610	-0.232666
C251	C	0.565440	0.146272	-0.203759
H252	H	0.596413	0.230123	-0.272022
H253	H	0.622156	0.195924	-0.308797
H254	H	0.497026	0.145477	-0.206981
H255	H	0.522753	0.111265	-0.243734
H256	H	0.604361	0.146411	-0.229450
H257	H	0.578617	0.180612	-0.192679
H258	H	0.533354	0.112226	-0.169536
C259	C	0.087100	-0.552199	0.283203
C260	C	0.029730	-0.609294	0.321225
C261	C	-0.000033	-0.638216	0.292516
H262	H	0.119029	-0.554265	0.248953
H263	H	0.073885	-0.531023	0.272195
H264	H	0.042946	-0.630465	0.332224
H265	H	-0.002214	-0.607245	0.355474
H266	H	-0.013247	-0.617040	0.281509
H267	H	0.031901	-0.640278	0.258268
H268	H	-0.038965	-0.676956	0.318312
C269	C	-0.598519	-0.552013	0.464848
C270	C	-0.617627	-0.514006	0.484177
C271	C	-0.675352	-0.542757	0.542604
H272	H	-0.588465	-0.563068	0.489145
H273	H	-0.634777	-0.586241	0.467070
H274	H	-0.581377	-0.479788	0.481960
H275	H	-0.627694	-0.502949	0.459897
H276	H	-0.711609	-0.576986	0.544827
H277	H	-0.665292	-0.553811	0.566896
H278	H	-0.688327	-0.516976	0.555725
H279	H	0.417198	-0.544282	-0.031019
H280	H	0.095283	0.133836	0.290888
C281	C	0.268992	-0.118286	0.031187
C282	C	0.288065	-0.061191	0.031462
C283	C	0.345686	-0.032273	0.032316
H284	H	0.305312	-0.116219	-0.002805
H285	H	0.258816	-0.139464	0.065580
H286	H	0.298244	-0.040018	-0.002928
H287	H	0.251762	-0.063240	0.065451
H288	H	0.335510	-0.053451	0.066709
H289	H	0.382000	-0.030210	-0.001676
H290	H	0.358630	0.006467	0.032508
C291	C	0.401583	0.195955	-0.283104
C292	C	0.382513	0.196241	-0.226010
C293	C	0.324892	0.197096	-0.197095
H294	H	0.365263	0.161961	-0.281032
H295	H	0.411758	0.230345	-0.304288
H296	H	0.372335	0.161855	-0.204832
H297	H	0.418817	0.230233	-0.228065
H298	H	0.335066	0.231485	-0.218278
H299	H	0.288577	0.163101	-0.195027
H300	H	0.311949	0.197296	-0.158356
H301	H	0.575312	-0.544278	-0.031030
H302	H	0.575304	-0.386180	-0.031019
H303	H	0.095249	-0.544287	0.449028
