data_functionalizedCrystal
_audit_creation_method	'MofGen! by Chris Wilmer'
_symmetry_space_group_name_H-M	'P1'
_symmetry_Int_Tables_number	1
_symmetry_cell_setting	triclinic
loop_
_symmetry_equiv_pos_as_xyz
  x,y,z
_cell_length_a	19.188930
_cell_length_b	23.532407
_cell_length_c	22.610064
_cell_angle_alpha	90.006598
_cell_angle_beta	89.984572
_cell_angle_gamma	82.996728
loop_
_atom_site_label
_atom_site_type_symbol
_atom_site_fract_x
_atom_site_fract_y
_atom_site_fract_z
O1	O	0.925917	0.071088	-0.049381
O2	O	1.425917	0.571088	0.450619
O3	O	0.722575	0.080659	-0.049341
O4	O	1.222575	0.580659	0.450659
O5	O	0.830378	-0.007045	-0.049351
O6	O	1.330378	0.492955	0.450649
O7	O	0.818114	0.158792	-0.049370
O8	O	1.318114	0.658792	0.450630
O9	O	0.830371	-0.007022	0.049018
O10	O	1.330371	0.492978	0.549018
O11	O	0.722568	0.080683	0.049028
O12	O	1.222568	0.580683	0.549028
O13	O	0.925910	0.071111	0.048989
O14	O	1.425910	0.571111	0.548989
Zn15	Zn	0.824238	0.075901	0.064627
Zn16	Zn	1.324238	0.575901	0.564627
Zn17	Zn	0.824247	0.075870	-0.064979
Zn18	Zn	1.324247	0.575870	0.435021
O19	O	0.818107	0.158816	0.048999
O20	O	1.318107	0.658816	0.548999
C21	C	0.696561	0.080361	-0.000151
C22	C	1.196561	0.580361	0.499849
C23	C	0.619060	0.079431	-0.000135
C24	C	1.119060	0.579431	0.499865
C25	C	0.573972	0.130893	-0.000151
C26	C	1.073972	0.630893	0.499849
C27	C	0.501151	0.130019	-0.000157
C28	C	1.001151	0.630019	0.499843
C29	C	0.473421	0.077679	-0.000160
C30	C	0.973421	0.577679	0.499840
C31	C	0.518519	0.026211	-0.000141
C32	C	1.018519	0.526211	0.499859
C33	C	0.591339	0.027086	-0.000129
C34	C	1.091339	0.527086	0.499871
N35	N	0.365571	0.037665	-0.033659
N36	N	0.865571	0.537665	0.466341
N37	N	0.296395	0.036836	-0.033672
N38	N	0.796395	0.536836	0.466328
C39	C	0.254021	0.075038	-0.000196
C40	C	0.754021	0.575038	0.499804
N41	N	0.283435	0.114108	0.033286
N42	N	0.783435	0.614108	0.533286
N43	N	0.352617	0.114938	0.033296
N44	N	0.852617	0.614938	0.533296
C45	C	0.394462	0.076724	-0.000173
C46	C	0.894462	0.576724	0.499827
C47	C	0.129971	0.125556	-0.000217
C48	C	0.629971	0.625556	0.499783
C49	C	0.057149	0.124680	-0.000220
C50	C	0.557149	0.624680	0.499780
C51	C	0.074519	0.020870	-0.000210
C52	C	0.574519	0.520870	0.499790
C53	C	0.147340	0.021748	-0.000202
C54	C	0.647340	0.521748	0.499798
C55	C	0.175061	0.074092	-0.000208
C56	C	0.675061	0.574092	0.499792
C57	C	0.830062	-0.028250	-0.000165
C58	C	1.330062	0.471750	0.499835
C59	C	0.829123	-0.091469	-0.000160
C60	C	1.329123	0.408531	0.499840
C61	C	0.887029	-0.490449	-0.000204
C62	C	1.387029	0.009551	0.499796
C63	C	0.886157	-0.549851	-0.000208
C64	C	1.386157	-0.049851	0.499792
O65	O	0.939837	-0.586482	-0.000241
O66	O	1.439837	-0.086482	0.499759
N67	N	0.822068	-0.572613	-0.000195
N68	N	1.322068	-0.072613	0.499805
C69	C	0.758848	-0.535970	-0.000184
C70	C	1.258848	-0.035970	0.499816
O71	O	0.704255	-0.560786	-0.000174
O72	O	1.204255	-0.060786	0.499826
C73	C	0.759721	-0.476569	-0.000184
C74	C	1.259721	0.023431	0.499816
C75	C	0.823814	-0.453810	-0.000191
C76	C	1.323814	0.046190	0.499809
C77	C	0.951117	-0.467690	-0.000212
C78	C	1.451117	0.032310	0.499788
C79	C	0.951989	-0.408292	-0.000206
C80	C	1.451989	0.091708	0.499794
C81	C	0.888773	-0.371653	-0.000193
C82	C	1.388773	0.128347	0.499807
C83	C	0.824685	-0.394412	-0.000185
C84	C	1.324685	0.105588	0.499815
C85	C	0.696501	-0.439927	-0.000177
C86	C	1.196501	0.060073	0.499823
C87	C	0.697379	-0.380523	-0.000177
C88	C	1.197379	0.119477	0.499823
C89	C	0.761472	-0.357764	-0.000184
C90	C	1.261472	0.142236	0.499816
C91	C	0.762342	-0.298376	-0.000167
C92	C	1.262342	0.201624	0.499833
N93	N	0.826430	-0.275614	-0.000180
N94	N	1.326430	0.224386	0.499820
C95	C	0.889646	-0.312252	-0.000193
C96	C	1.389646	0.187748	0.499807
C97	C	0.757019	-0.660717	-0.000185
C98	C	1.257019	-0.160717	0.499815
C99	C	0.756146	-0.720116	-0.000181
C100	C	1.256146	-0.220116	0.499819
C101	C	0.883455	-0.733993	-0.000206
C102	C	1.383455	-0.233993	0.499794
C103	C	0.884328	-0.674592	-0.000206
C104	C	1.384328	-0.174592	0.499794
C105	C	0.821108	-0.637954	-0.000198
C106	C	1.321108	-0.137954	0.499802
C107	C	0.891472	-0.187512	-0.000181
C108	C	1.391472	0.312488	0.499819
C109	C	0.892339	-0.128108	-0.000173
C110	C	1.392339	0.371892	0.499827
C111	C	0.765029	-0.114236	-0.000151
C112	C	1.265029	0.385764	0.499849
C113	C	0.764163	-0.173635	-0.000156
C114	C	1.264163	0.326365	0.499844
C115	C	0.827390	-0.210272	-0.000173
C116	C	1.327390	0.289728	0.499827
O117	O	0.708690	-0.261711	-0.000137
O118	O	1.208690	0.238289	0.499863
O119	O	0.944230	-0.287428	-0.000211
O120	O	1.444230	0.212572	0.499789
C121	C	0.951923	0.071410	-0.000203
C122	C	1.451923	0.571410	0.499797
C123	C	1.029425	0.072340	-0.000222
C124	C	1.529425	0.572340	0.499778
C125	C	0.818423	0.180021	-0.000189
C126	C	1.318423	0.680021	0.499811
C127	C	0.819362	0.243240	-0.000197
C128	C	1.319362	0.743240	0.499803
N129	N	0.824236	0.075922	0.153079
N130	N	1.324236	0.575922	0.653079
C131	C	0.776486	0.114713	0.437932
C132	C	1.276486	0.614713	0.937932
C133	C	0.776484	0.114718	0.376012
C134	C	1.276484	0.614718	0.876012
O135	O	0.735864	0.147722	0.343997
O136	O	1.235864	0.647722	0.843997
N137	N	0.824232	0.075901	0.345031
N138	N	1.324232	0.575901	0.845031
C139	C	0.871980	0.037073	0.375974
C140	C	1.371980	0.537073	0.875974
O141	O	0.912592	0.004056	0.343937
O142	O	1.412592	0.504056	0.843937
C143	C	0.871978	0.037065	0.437893
C144	C	1.371978	0.537065	0.937893
C145	C	0.824232	0.075889	0.468870
C146	C	1.324232	0.575889	0.968870
C147	C	0.728744	0.153533	0.468909
C148	C	1.228744	0.653533	0.968909
C149	C	0.728747	0.153529	0.530825
C150	C	1.228747	0.653529	1.030825
C151	C	0.776493	0.114705	0.561763
C152	C	1.276493	0.614705	1.061763
C153	C	0.824235	0.075885	0.530786
C154	C	1.324235	0.575885	1.030786
C155	C	0.919722	-0.001765	0.468834
C156	C	1.419722	0.498235	0.968834
C157	C	0.919715	-0.001769	0.530757
C158	C	1.419715	0.498231	1.030757
C159	C	0.871970	0.037054	0.561735
C160	C	1.371970	0.537054	1.061735
C161	C	0.871984	0.037056	0.623640
C162	C	1.371984	0.537056	1.123640
N163	N	0.824236	0.075873	0.654620
N164	N	1.324236	0.575873	1.154620
C165	C	0.776491	0.114698	0.623682
C166	C	1.276491	0.614698	1.123682
C167	C	0.871979	0.037090	0.245941
C168	C	1.371979	0.537090	0.745941
C169	C	0.871985	0.037099	0.184023
C170	C	1.371985	0.537099	0.684023
C171	C	0.776488	0.114744	0.184065
C172	C	1.276488	0.614744	0.684065
C173	C	0.776486	0.114737	0.245984
C174	C	1.276486	0.614737	0.745984
C175	C	0.824232	0.075907	0.276921
C176	C	1.324232	0.575907	0.776921
C177	C	0.776501	0.114686	0.753709
C178	C	1.276501	0.614686	1.253709
C179	C	0.776511	0.114680	0.815630
C180	C	1.276511	0.614680	1.315630
C181	C	0.872004	0.037033	0.815583
C182	C	1.372004	0.537033	1.315583
C183	C	0.871998	0.037041	0.753667
C184	C	1.371998	0.537041	1.253667
C185	C	0.824240	0.075870	0.722732
C186	C	1.324240	0.575870	1.222732
O187	O	0.912582	0.004067	0.655694
O188	O	1.412582	0.504067	1.155694
O189	O	0.735879	0.147704	0.655726
O190	O	1.235879	0.647704	1.155726
N191	N	0.824256	0.075856	0.846569
N192	N	1.324256	0.575856	1.346569
H193	H	0.020438	0.166588	-0.000229
H194	H	0.520438	0.666588	0.499771
H195	H	0.958600	-0.033379	0.443621
H196	H	1.458600	0.466621	0.943621
H197	H	0.711973	-0.192165	-0.000134
H198	H	1.211973	0.307835	0.499866
F199	F	0.195328	-0.033026	-0.000189
F200	F	0.695328	0.466974	0.499811
F201	F	0.159477	0.181265	-0.000220
F202	F	0.659477	0.681265	0.499780
F203	F	0.689727	-0.621728	-0.000171
F204	F	1.189727	-0.121728	0.499829
H205	H	0.051943	-0.021745	-0.000250
H206	H	0.551943	0.478255	0.499750
H207	H	0.958595	-0.033391	0.555944
H208	H	1.458595	0.466609	1.055944
H209	H	0.644310	-0.458446	-0.000175
H210	H	1.144310	0.041554	0.499825
F211	F	0.677922	0.194858	0.435991
F212	F	1.177922	0.694858	0.935991
H213	H	0.645897	-0.350694	-0.000172
H214	H	1.145897	0.149306	0.499828
H215	H	0.944533	-0.109581	-0.000177
H216	H	1.444533	0.390419	0.499823
F217	F	0.725692	0.156004	0.848596
F218	F	1.225692	0.656004	1.348596
H219	H	0.737612	0.146303	0.728529
H220	H	1.237612	0.646303	1.228529
H221	H	0.910883	0.005433	0.728445
H222	H	1.410883	0.505433	1.228445
H223	H	0.713561	-0.084394	-0.000138
H224	H	1.213561	0.415606	0.499862
H225	H	0.942958	-0.217335	-0.000197
H226	H	1.442958	0.282665	0.499803
F227	F	0.677927	0.194847	0.563787
F228	F	1.177927	0.694847	1.063787
H229	H	0.464433	0.171926	-0.000168
H230	H	0.964433	0.671926	0.499832
F231	F	0.725669	0.156057	0.278946
F232	F	1.225669	0.656057	0.778946
H233	H	1.004180	-0.389768	-0.000214
H234	H	1.504180	0.110232	0.499786
F235	F	1.018406	-0.506676	-0.000226
F236	F	1.518406	-0.006676	0.499774
F237	F	0.725672	0.156063	0.151126
F238	F	1.225672	0.656063	0.651126
H239	H	0.936518	-0.656067	-0.000213
H240	H	1.436518	-0.156067	0.499787
F241	F	0.950735	-0.772998	-0.000223
F242	F	1.450735	-0.272998	0.499777
H243	H	0.495937	-0.016404	-0.000152
H244	H	0.995937	0.483596	0.499848
F245	F	0.922811	-0.004215	0.151061
F246	F	1.422811	0.495785	0.651061
H247	H	0.910864	0.005471	0.271127
H248	H	1.410864	0.505471	0.771127
F249	F	0.603470	0.186603	-0.000156
F250	F	1.103470	0.686603	0.499844
H251	H	0.628050	-0.014822	-0.000117
H252	H	1.128050	0.485178	0.499883
F253	F	0.687930	-0.744331	-0.000163
F254	F	1.187930	-0.244331	0.499837
H255	H	0.910880	0.005425	0.840782
H256	H	1.410880	0.505425	1.340782
