data_functionalizedCrystal
_audit_creation_method	'MofGen! by Chris Wilmer'
_symmetry_space_group_name_H-M	'P1'
_symmetry_Int_Tables_number	1
_symmetry_cell_setting	triclinic
loop_
_symmetry_equiv_pos_as_xyz
  x,y,z
_cell_length_a	18.101398
_cell_length_b	18.101395
_cell_length_c	21.395355
_cell_angle_alpha	90.015727
_cell_angle_beta	90.019889
_cell_angle_gamma	90.029256
loop_
_atom_site_label
_atom_site_type_symbol
_atom_site_fract_x
_atom_site_fract_y
_atom_site_fract_z
Zn1	Zn	1.132161	-0.294952	0.354196
Zn2	Zn	1.632161	0.205048	0.854196
Zn3	Zn	1.132045	-0.418775	0.249423
Zn4	Zn	1.632045	0.081225	0.749423
Zn5	Zn	1.008308	-0.294948	0.249441
Zn6	Zn	1.508308	0.205052	0.749441
Zn7	Zn	1.008271	-0.418752	0.354172
Zn8	Zn	1.508271	0.081248	0.854172
O9	O	1.070197	-0.356857	0.301808
O10	O	1.570197	0.143143	0.801808
O11	O	1.235779	-0.311389	0.340300
O12	O	1.735779	0.188611	0.840300
O13	O	1.115598	-0.402357	0.161748
O14	O	1.615598	0.097643	0.661748
O15	O	1.024802	-0.191316	0.263354
O16	O	1.524802	0.308684	0.763354
O17	O	1.235694	-0.402361	0.263324
O18	O	1.735694	0.097639	0.763324
O19	O	1.115796	-0.191319	0.340317
O20	O	1.615796	0.308681	0.840317
O21	O	1.024689	-0.311382	0.161761
O22	O	1.524689	0.188618	0.661761
O23	O	0.904671	-0.311360	0.263331
O24	O	1.404671	0.188640	0.763331
O25	O	1.024738	-0.402322	0.441853
O26	O	1.524738	0.097678	0.941853
O27	O	0.904643	-0.402318	0.340277
O28	O	1.404643	0.097682	0.840277
O29	O	1.115760	-0.311366	0.441870
O30	O	1.615760	0.188634	0.941870
O31	O	1.115562	-0.522405	0.263301
O32	O	1.615562	-0.022405	0.763301
O33	O	1.024626	-0.522388	0.340259
O34	O	1.524626	-0.022388	0.840259
C35	C	0.877786	-0.356836	0.301804
C36	C	1.377786	0.143164	0.801804
C37	C	0.795472	-0.356846	0.301817
C38	C	1.295472	0.143154	0.801817
C39	C	0.644763	-0.356859	0.301816
C40	C	1.144763	0.143141	0.801816
C41	C	0.613417	-0.414176	0.350153
C42	C	1.113417	0.085824	0.850153
C43	C	0.527799	-0.414408	0.350009
C44	C	1.027799	0.085592	0.850009
C45	C	0.496381	-0.356873	0.301816
C46	C	0.996381	0.143127	0.801816
C47	C	0.527426	-0.377685	0.235705
C48	C	1.027426	0.122315	0.735705
C49	C	0.613071	-0.378093	0.235984
C50	C	1.113071	0.121907	0.735984
C51	C	0.613244	-0.278589	0.319012
C52	C	1.113244	0.221411	0.819012
C53	C	0.527594	-0.279018	0.320468
C54	C	1.027594	0.220982	0.820468
C55	C	0.412521	-0.356879	0.301812
C56	C	0.912521	0.143121	0.801812
C57	C	0.728623	-0.356855	0.301815
C58	C	1.228623	0.143145	0.801815
C59	C	1.070097	-0.549267	0.301789
C60	C	1.570097	-0.049267	0.801789
C61	C	1.070123	-0.631582	0.301803
C62	C	1.570123	-0.131582	0.801803
C63	C	1.070285	-0.930672	0.301836
C64	C	1.570285	-0.430672	0.801836
C65	C	1.013203	-0.899367	0.350377
C66	C	1.513203	-0.399367	0.850377
C67	C	1.012932	-0.813749	0.350225
C68	C	1.512932	-0.313749	0.850225
C69	C	1.070205	-0.782290	0.301820
C70	C	1.570205	-0.282290	0.801820
C71	C	1.049068	-0.813425	0.235788
C72	C	1.549068	-0.313425	0.735788
C73	C	1.048700	-0.899070	0.236079
C74	C	1.548700	-0.399070	0.736079
C75	C	1.148629	-0.899023	0.318746
C76	C	1.648629	-0.399023	0.818746
C77	C	1.148168	-0.813372	0.320195
C78	C	1.648168	-0.313372	0.820195
C79	C	1.070160	-0.698430	0.301807
C80	C	1.570160	-0.198430	0.801807
C81	C	1.070328	-1.014532	0.301845
C82	C	1.570328	-0.514532	0.801845
C83	C	1.263358	-0.356878	0.301813
C84	C	1.763358	0.143122	0.801813
C85	C	1.345673	-0.356887	0.301815
C86	C	1.845673	0.143113	0.801815
C87	C	1.070258	-0.356842	0.465231
C88	C	1.570258	0.143158	0.965231
C89	C	1.070284	-0.356835	0.534873
C90	C	1.570284	0.143165	1.034873
C91	C	1.070316	-0.163695	0.301840
C92	C	1.570316	0.336305	0.801840
C93	C	1.070367	-0.081381	0.301854
C94	C	1.570367	0.418619	0.801854
C95	C	1.070178	-0.356818	0.139020
C96	C	1.570178	0.143182	0.639020
C97	C	1.070295	-0.356616	0.069379
C98	C	1.570295	0.143384	0.569379
C99	C	1.117677	-0.309473	0.567596
C100	C	1.617677	0.190527	1.067596
C101	C	1.117676	-0.309441	0.633031
C102	C	1.617676	0.190559	1.133031
C103	C	1.070290	-0.356785	0.665741
C104	C	1.570290	0.143215	1.165741
C105	C	1.022888	-0.404151	0.633010
C106	C	1.522888	0.095849	1.133010
C107	C	1.022885	-0.404176	0.567576
C108	C	1.522885	0.095824	1.067576
C109	C	1.064408	-0.423466	0.769410
C110	C	1.564408	0.076534	1.269410
C111	C	1.064416	-0.423442	0.834843
C112	C	1.564416	0.076558	1.334843
C113	C	1.070295	-0.356707	0.867562
C114	C	1.570295	0.143293	1.367562
C115	C	1.076180	-0.289993	0.834840
C116	C	1.576180	0.210007	1.334840
C117	C	1.076178	-0.290018	0.769406
C118	C	1.576178	0.209982	1.269406
C119	C	1.070288	-0.356763	0.736693
C120	C	1.570288	0.143237	1.236693
C121	C	1.117689	-0.309306	0.971238
C122	C	1.617689	0.190694	1.471238
C123	C	1.117683	-0.309273	1.036674
C124	C	1.617683	0.190727	1.536674
C125	C	1.022898	-0.403989	1.036652
C126	C	1.522898	0.096011	1.536652
C127	C	1.022901	-0.404015	0.971216
C128	C	1.522901	0.095985	1.471216
C129	C	1.070300	-0.356675	0.938513
C130	C	1.570300	0.143325	1.438513
H131	H	0.507307	-0.263318	0.369122
H132	H	1.007307	0.236682	0.869122
Cl133	Cl	0.494572	-0.209602	0.270124
Cl134	Cl	0.994572	0.290398	0.770124
H135	H	0.991431	-0.919108	0.221754
H136	H	1.491431	-0.419108	0.721754
H137	H	1.026157	-0.792697	0.399187
H138	H	1.526157	-0.292697	0.899187
H139	H	1.191157	-0.919265	0.283393
H140	H	1.691157	-0.419265	0.783393
Cl141	Cl	0.646592	-0.503215	0.332756
Cl142	Cl	1.146592	-0.003215	0.832756
H143	H	1.164108	-0.793021	0.368790
H144	H	1.664108	-0.293021	0.868790
H145	H	0.506810	-0.401427	0.399021
H146	H	1.006810	0.098573	0.899021
H147	H	0.633517	-0.235889	0.283809
H148	H	1.133517	0.264111	0.783809
H149	H	0.634876	-0.259572	0.366408
H150	H	1.134876	0.240428	0.866408
Cl151	Cl	1.178379	-0.932307	0.391820
Cl152	Cl	1.678379	-0.432307	0.891820
Cl153	Cl	1.033413	-0.931113	0.426218
Cl154	Cl	1.533413	-0.431113	0.926218
H155	H	1.089336	-0.793047	0.198636
H156	H	1.589336	-0.293047	0.698636
Cl157	Cl	0.924094	-0.932704	0.333315
Cl158	Cl	1.424094	-0.432704	0.833315
H159	H	0.505945	-0.434265	0.220923
H160	H	1.005945	0.065735	0.720923
H161	H	0.954862	-0.793322	0.339024
H162	H	1.454862	-0.293322	0.839024
Cl163	Cl	0.496107	-0.503965	0.332412
Cl164	Cl	0.996107	-0.003965	0.832412
H165	H	1.088472	-0.919780	0.198680
H166	H	1.588472	-0.419780	0.698680
Cl167	Cl	0.961583	-0.780407	0.213274
Cl168	Cl	1.461583	-0.280407	0.713274
Cl169	Cl	1.217309	-0.780299	0.269592
Cl170	Cl	1.717309	-0.280299	0.769592
Cl171	Cl	1.177246	-0.249880	0.674178
Cl172	Cl	1.677246	0.250120	1.174178
H173	H	0.633806	-0.338129	0.198734
H174	H	1.133806	0.161871	0.698734
H175	H	0.507075	-0.337217	0.198701
H176	H	1.007075	0.162783	0.698701
Cl177	Cl	1.177260	-0.249955	0.526487
Cl178	Cl	1.677260	0.250045	1.026487
Cl179	Cl	1.083571	-0.206154	0.728272
Cl180	Cl	1.583571	0.293846	1.228272
H181	H	1.080968	-0.235651	0.861478
H182	H	1.580968	0.264349	1.361478
H183	H	1.156280	-0.270754	0.944609
H184	H	1.656280	0.229246	1.444609
H185	H	1.156275	-0.270700	1.063316
H186	H	1.656275	0.229300	1.563316
Cl187	Cl	1.057040	-0.507373	0.728284
Cl188	Cl	1.557040	-0.007373	1.228284
Cl189	Cl	0.645285	-0.394389	0.426058
Cl190	Cl	1.145285	0.105611	0.926058
Cl191	Cl	0.963320	-0.463501	1.077766
Cl192	Cl	1.463320	0.036499	1.577766
H193	H	0.633012	-0.435297	0.221450
H194	H	1.133012	0.064703	0.721450
H195	H	0.984313	-0.442588	0.944573
H196	H	1.484313	0.057412	1.444573
Cl197	Cl	0.963314	-0.463666	0.674130
Cl198	Cl	1.463314	0.036334	1.174130
H199	H	1.059628	-0.477764	0.861480
H200	H	1.559628	0.022236	1.361480
Cl201	Cl	0.963301	-0.463723	0.526436
Cl202	Cl	1.463301	0.036277	1.026436
