data_functionalizedCrystal
_audit_creation_method	'MofGen! by Chris Wilmer'
_symmetry_space_group_name_H-M	'P1'
_symmetry_Int_Tables_number	1
_symmetry_cell_setting	triclinic
loop_
_symmetry_equiv_pos_as_xyz
  x,y,z
_cell_length_a	15.944551
_cell_length_b	16.992695
_cell_length_c	15.455313
_cell_angle_alpha	87.152573
_cell_angle_beta	87.323015
_cell_angle_gamma	92.916519
loop_
_atom_site_label
_atom_site_type_symbol
_atom_site_fract_x
_atom_site_fract_y
_atom_site_fract_z
O1	O	1.124754	-0.097702	-0.072040
O2	O	1.624754	0.402298	0.427960
O3	O	0.881041	-0.110169	-0.072062
O4	O	1.381041	0.389831	0.427938
O5	O	1.001920	0.010207	-0.072045
O6	O	1.501920	0.510207	0.427955
O7	O	1.003875	-0.218078	-0.072058
O8	O	1.503875	0.281922	0.427942
O9	O	0.995006	0.003352	0.072217
O10	O	1.495006	0.503352	0.572217
O11	O	0.874127	-0.117024	0.072199
O12	O	1.374127	0.382976	0.572199
O13	O	1.117839	-0.104557	0.072221
O14	O	1.617839	0.395443	0.572221
Cu15	Cu	0.995352	-0.111417	0.085382
Cu16	Cu	1.495352	0.388583	0.585382
Cu17	Cu	1.003529	-0.103310	-0.085223
Cu18	Cu	1.503529	0.396690	0.414777
O19	O	0.996960	-0.224933	0.072203
O20	O	1.496960	0.275067	0.572203
C21	C	0.846255	-0.113079	0.000066
C22	C	1.346255	0.386921	0.500066
C23	C	0.752906	-0.111527	0.000058
C24	C	1.252906	0.388473	0.500058
C25	C	0.995949	0.035992	0.000086
C26	C	1.495949	0.535992	0.500086
C27	C	0.988449	0.123037	0.000085
C28	C	1.488449	0.623037	0.500085
C29	C	1.002931	-0.250718	0.000071
C30	C	1.502931	0.249282	0.500071
C31	C	1.010431	-0.337762	0.000066
C32	C	1.510431	0.162238	0.500066
C33	C	0.532795	-0.033204	0.000079
C34	C	1.032795	0.466796	0.500079
C35	C	0.477623	-0.066195	-0.071051
C36	C	0.977623	0.433805	0.428949
C37	C	0.581991	-0.108720	0.000068
C38	C	1.081991	0.391280	0.500068
C39	C	0.470830	-0.072971	0.071179
C40	C	0.970830	0.427029	0.571179
C41	C	0.416895	-0.106003	0.000082
C42	C	0.916895	0.393997	0.500082
C43	C	0.528052	-0.141729	-0.071121
C44	C	1.028052	0.358271	0.428879
C45	C	0.521261	-0.148498	0.071173
C46	C	1.021261	0.351502	0.571173
C47	C	0.466111	-0.181543	0.000025
C48	C	0.966111	0.318457	0.500025
C49	C	0.677099	-0.110283	0.000059
C50	C	1.177099	0.389717	0.500059
C51	C	0.321790	-0.104446	0.000084
C52	C	0.821790	0.395554	0.500084
C53	C	1.152625	-0.101647	0.000091
C54	C	1.652625	0.398353	0.500091
C55	C	1.245975	-0.103199	0.000093
C56	C	1.745975	0.396801	0.500093
N57	N	0.989607	-0.117118	0.205377
N58	N	1.489607	0.382882	0.705377
C59	C	1.060814	0.173273	0.000092
C60	C	1.560814	0.673273	0.500092
C61	C	1.053762	0.255060	0.000083
C62	C	1.553762	0.755060	0.500083
C63	C	0.974345	0.286609	0.000073
C64	C	1.474345	0.786609	0.500073
C65	C	0.901975	0.236367	0.000063
C66	C	1.401975	0.736367	0.500063
C67	C	0.909028	0.154581	0.000066
C68	C	1.409028	0.654581	0.500066
C69	C	0.945114	0.530209	0.000059
C70	C	1.445114	1.030209	0.500059
C71	C	0.938067	0.612001	0.000059
C72	C	1.438067	1.112001	0.500059
C73	C	1.089855	0.630689	0.000077
C74	C	1.589855	1.130689	0.500077
C75	C	1.096900	0.548901	0.000085
C76	C	1.596900	1.048901	0.500085
C77	C	1.024531	0.498666	0.000070
C78	C	1.524531	0.998666	0.500070
N79	N	0.967135	0.370209	0.000067
N80	N	1.467135	0.870209	0.500067
N81	N	1.031742	0.415068	0.000070
N82	N	1.531742	0.915068	0.500070
N83	N	1.009280	-0.097602	-0.205218
N84	N	1.509280	0.402398	0.294782
C85	C	1.040980	-0.065997	0.250778
C86	C	1.540980	0.434003	0.750778
C87	C	1.036644	-0.070316	0.341586
C88	C	1.536644	0.429684	0.841586
C89	C	0.980937	-0.125761	0.386990
C90	C	1.480937	0.374239	0.886990
C91	C	0.929558	-0.176884	0.341582
C92	C	1.429558	0.323116	0.841582
C93	C	0.933890	-0.172561	0.250776
C94	C	1.433890	0.327439	0.750776
C95	C	0.962233	-0.144402	0.658568
C96	C	1.462233	0.355598	1.158568
C97	C	0.957906	-0.148723	0.749380
C98	C	1.457906	0.351277	1.249380
C99	C	1.064992	-0.042153	0.749378
C100	C	1.564992	0.457847	1.249378
C101	C	1.069323	-0.037838	0.658571
C102	C	1.569323	0.462162	1.158571
C103	C	1.017941	-0.088958	0.613171
C104	C	1.517941	0.411042	1.113171
N105	N	0.976505	-0.130179	0.479809
N106	N	1.476505	0.369821	0.979809
N107	N	1.022369	-0.084536	0.520353
N108	N	1.522369	0.415464	1.020353
H109	H	0.561929	0.029473	-0.000005
H110	H	1.061929	0.529473	0.499995
F111	F	1.100276	-0.006989	0.202465
F112	F	1.600276	0.493011	0.702465
F113	F	0.560743	-0.179707	-0.149809
F114	F	1.060743	0.320293	0.350191
F115	F	0.452306	-0.020713	-0.149650
F116	F	0.952306	0.479287	0.350350
F117	F	0.898613	-0.207740	0.797697
F118	F	1.398613	0.292260	1.297697
F119	F	0.428270	-0.263542	-0.000030
F120	F	0.928270	0.236458	0.499970
F121	F	0.546607	-0.193948	0.149774
F122	F	1.046607	0.306052	0.649774
F123	F	0.438009	-0.034942	0.149779
F124	F	0.938009	0.465058	0.649779
H125	H	1.125484	0.147592	0.000106
H126	H	1.625484	0.647592	0.500106
F127	F	1.119671	0.012251	0.797701
F128	F	1.619671	0.512251	1.297701
H129	H	1.112689	0.295960	0.000091
H130	H	1.612689	0.795960	0.500091
F131	F	1.181428	0.515332	0.000074
F132	F	1.681428	1.015332	0.500074
H133	H	1.148774	0.671599	0.000087
H134	H	1.648774	1.171599	0.500087
H135	H	0.873392	0.637684	0.000065
H136	H	1.373392	1.137684	0.500065
H137	H	0.920397	-0.186027	0.621611
H138	H	1.420397	0.313973	1.121611
F139	F	0.868091	0.476756	0.000041
F140	F	1.368091	0.976756	0.500041
H141	H	0.837312	0.262061	0.000050
H142	H	1.337312	0.762061	0.500050
H143	H	0.850101	0.113679	0.000060
H144	H	1.350101	0.613679	0.500060
F145	F	1.091321	-0.015907	0.389906
F146	F	1.591321	0.484093	0.889906
F147	F	1.128613	0.021171	0.610249
F148	F	1.628613	0.521171	1.110249
H149	H	0.884195	-0.222026	0.378555
H150	H	1.384195	0.277974	0.878555
F151	F	0.879208	-0.226969	0.202457
F152	F	1.379208	0.273031	0.702457
