data_functionalizedCrystal
_audit_creation_method	'MofGen! by Chris Wilmer'
_symmetry_space_group_name_H-M	'P1'
_symmetry_Int_Tables_number	1
_symmetry_cell_setting	triclinic
loop_
_symmetry_equiv_pos_as_xyz
  x,y,z
_cell_length_a	29.839131
_cell_length_b	17.640112
_cell_length_c	17.640968
_cell_angle_alpha	92.139080
_cell_angle_beta	78.768609
_cell_angle_gamma	101.266684
loop_
_atom_site_label
_atom_site_type_symbol
_atom_site_fract_x
_atom_site_fract_y
_atom_site_fract_z
Zn1	Zn	-0.012909	1.247771	-0.195080
Zn2	Zn	-0.105602	1.221948	-0.068098
Zn3	Zn	-0.042134	1.095086	-0.093726
Zn4	Zn	-0.099688	1.120692	-0.220680
O5	O	-0.065083	1.171374	-0.144396
O6	O	-0.015449	1.350620	-0.156796
O7	O	-0.111889	1.183596	0.034776
O8	O	0.024621	1.115431	-0.107183
O9	O	-0.083550	1.331648	-0.063503
O10	O	0.046093	1.227608	-0.181647
O11	O	-0.065260	1.090391	0.015947
O12	O	-0.059525	0.992208	-0.132006
O13	O	-0.073471	1.159073	-0.323557
O14	O	-0.101810	1.011020	-0.225278
O15	O	-0.009714	1.252437	-0.304749
O16	O	-0.167697	1.208425	-0.088326
O17	O	-0.163352	1.134033	-0.200427
C18	C	-0.083197	0.974058	-0.184201
C19	C	-0.090955	0.889649	-0.201248
C20	C	-0.181824	1.171229	-0.144386
C21	C	-0.231756	1.171242	-0.144393
C22	C	-0.006143	0.563036	-0.014898
C23	C	-0.013439	0.483723	-0.030927
C24	C	-0.057573	0.503332	-0.127883
C25	C	-0.050277	0.582649	-0.111866
C26	C	-0.024563	0.612494	-0.055372
C27	C	-0.068697	0.632108	-0.152339
C28	C	-0.061405	0.711417	-0.136320
C29	C	-0.035692	0.741268	-0.079827
C30	C	-0.017270	0.691803	-0.039352
C31	C	-0.094415	0.602261	-0.208829
C32	C	-0.112835	0.651719	-0.249303
C33	C	-0.105540	0.731031	-0.233287
C34	C	-0.079827	0.760882	-0.176794
C35	C	-0.123962	0.780495	-0.273762
C36	C	-0.116670	0.859805	-0.257742
C37	C	-0.072535	0.840191	-0.160775
C38	C	-0.543616	1.210213	-0.086078
C39	C	-0.731276	1.210312	-0.086088
O40	O	-0.757439	1.243332	-0.036500
N41	N	-0.752503	1.171543	-0.144421
C42	C	-0.726811	1.132750	-0.202759
O43	O	-0.749171	1.099784	-0.252379
C44	C	-0.539151	1.132656	-0.202750
C45	C	-0.517928	1.171421	-0.144409
C46	C	-0.522392	1.248976	-0.027742
C47	C	-0.475481	1.248947	-0.027738
C48	C	-0.449792	1.210155	-0.086069
C49	C	-0.471016	1.171392	-0.144405
C50	C	-0.513459	1.093868	-0.261090
C51	C	-0.466541	1.093850	-0.261084
C52	C	-0.445318	1.132615	-0.202743
C53	C	-0.398416	1.132572	-0.202732
N54	N	-0.377189	1.171341	-0.144399
C55	C	-0.402877	1.210133	-0.086068
C56	C	-0.825336	1.132802	-0.202758
C57	C	-0.872251	1.132824	-0.202759
C58	C	-0.876713	1.210387	-0.086090
C59	C	-0.829797	1.210360	-0.086086
C60	C	-0.804109	1.171571	-0.144425
C61	C	-0.304360	1.210069	-0.086062
C62	C	-0.257444	1.210034	-0.086061
C63	C	-0.252986	1.132474	-0.202733
C64	C	-0.299898	1.132505	-0.202732
C65	C	-0.325583	1.171308	-0.144393
O66	O	-0.372224	1.099577	-0.252299
O67	O	-0.380507	1.243109	-0.036464
C68	C	-0.590527	1.210242	-0.086082
C69	C	-0.611751	1.171479	-0.144418
C70	C	-0.586063	1.132687	-0.202750
C71	C	-0.658666	1.171501	-0.144420
C72	C	-0.684354	1.210293	-0.086088
C73	C	-0.663127	1.249062	-0.027755
C74	C	-0.616215	1.249033	-0.027751
C75	C	-0.607290	1.093918	-0.261082
C76	C	-0.654202	1.093949	-0.261082
C77	C	-0.679890	1.132741	-0.202750
C78	C	0.052117	1.171544	-0.144418
C79	C	0.102061	1.171616	-0.144428
C80	C	-0.037673	1.211491	-0.342479
C81	C	-0.025992	1.228587	-0.426890
C82	C	-0.046899	1.369461	-0.104435
C83	C	-0.039150	1.453873	-0.087407
C84	C	-0.153550	1.041792	-0.753463
C85	C	-0.142567	1.057872	-0.832777
C86	C	-0.076183	1.155084	-0.813183
C87	C	-0.087159	1.139010	-0.733867
C88	C	-0.125843	1.082364	-0.704013
C89	C	-0.059452	1.179581	-0.684417
C90	C	-0.070429	1.163511	-0.605107
C91	C	-0.109113	1.106869	-0.575246
C92	C	-0.136820	1.066293	-0.624703
C93	C	-0.020770	1.236231	-0.714271
C94	C	0.006936	1.276802	-0.664821
C95	C	-0.004039	1.260728	-0.585510
C96	C	-0.042722	1.204086	-0.555650
C97	C	0.023669	1.301304	-0.536054
C98	C	0.012692	1.285233	-0.456744
C99	C	-0.053699	1.188016	-0.476340
C100	C	-0.092351	1.131457	0.052925
C101	C	-0.103892	1.114508	0.137366
H102	H	-0.029756	0.805847	-0.066783
C103	C	-0.691009	1.291324	0.035461
C104	C	-0.707458	1.348708	0.002207
C105	C	-0.733137	1.387673	0.060409
H106	H	-0.716620	1.255707	0.062763
H107	H	-0.671654	1.314461	0.070193
H108	H	-0.726812	1.325571	-0.032512
H109	H	-0.681858	1.384340	-0.025089
H110	H	-0.713782	1.410810	0.095141
H111	H	-0.758745	1.352051	0.087707
H112	H	-0.744297	1.426617	0.037855
H113	H	-0.897636	1.241973	-0.038594
C114	C	0.048942	1.338354	-0.697085
C115	C	0.070851	1.370456	-0.636798
C116	C	0.109546	1.427165	-0.666486
H117	H	0.070181	1.315683	-0.733877
H118	H	0.039086	1.377729	-0.721317
H119	H	0.080708	1.331088	-0.612578
H120	H	0.049625	1.393142	-0.600001
H121	H	0.099690	1.466540	-0.690718
H122	H	0.130782	1.404487	-0.703279
H123	H	0.124414	1.448958	-0.625586
H124	H	-0.118051	1.093788	-0.510666
C125	C	-0.797413	1.090610	-0.265984
C126	C	-0.780931	1.033250	-0.232755
C127	C	-0.755205	0.994371	-0.290971
H128	H	-0.816731	1.067455	-0.300751
H129	H	-0.771817	1.126304	-0.293239
H130	H	-0.806524	0.997561	-0.205512
H131	H	-0.761607	1.056383	-0.197993
H132	H	-0.729609	1.030065	-0.318227
H133	H	-0.774525	0.971221	-0.325735
H134	H	-0.744015	0.955452	-0.268433
H135	H	-0.144903	0.756182	-0.319754
C136	C	-0.550249	1.291272	0.035472
C137	C	-0.566689	1.348669	0.002222
C138	C	-0.592332	1.387678	0.060430
H139	H	-0.575862	1.255683	0.062803
H140	H	-0.530873	1.314402	0.070177
H141	H	-0.586063	1.325540	-0.032470
H142	H	-0.541085	1.384275	-0.025104
H143	H	-0.572957	1.410808	0.095135
H144	H	-0.617944	1.352083	0.087758
H145	H	-0.603486	1.426631	0.037879
H146	H	-0.812520	1.241926	-0.038580
H147	H	-0.671478	1.062375	-0.308591
H148	H	-0.889529	1.101249	-0.250261
H149	H	-0.586378	1.062330	-0.308584
C150	C	-0.136683	0.913389	-0.301798
C151	C	-0.160752	0.870281	-0.354718
C152	C	-0.179191	0.919618	-0.395321
H153	H	-0.157445	0.938430	-0.266528
H154	H	-0.112099	0.951053	-0.328728
H155	H	-0.185333	0.832631	-0.327790
H156	H	-0.140000	0.845242	-0.390004
H157	H	-0.154606	0.957282	-0.422251
H158	H	-0.199950	0.944656	-0.360045
H159	H	-0.195519	0.890378	-0.431237
H160	H	0.055163	1.347430	-0.560372
H161	H	0.003678	0.716106	0.006640
C162	C	0.042844	1.329335	-0.403181
C163	C	0.079079	1.382366	-0.446303
C164	C	0.106867	1.423002	-0.396988
H165	H	0.024467	1.356197	-0.365544
H166	H	0.055500	1.294060	-0.378121
H167	H	0.066424	1.417636	-0.471350
H168	H	0.097468	1.355524	-0.483937
H169	H	0.119523	1.387727	-0.371928
H170	H	0.088486	1.449860	-0.359354
H171	H	0.131458	1.458983	-0.426240
H172	H	-0.165132	1.024830	-0.873038
H173	H	-0.240166	1.241600	-0.038551
H174	H	-0.133774	0.627408	-0.295298
C175	C	-0.044694	0.872540	-0.099318
C176	C	-0.066592	0.838015	-0.028045
C177	C	-0.040965	0.867806	0.028587
H178	H	-0.014153	0.861860	-0.113032
H179	H	-0.043003	0.926854	-0.095524
H180	H	-0.068277	0.783714	-0.031840
H181	H	-0.097130	0.848692	-0.014307
H182	H	-0.039275	0.922119	0.032381
H183	H	-0.010426	0.857124	0.014866
H184	H	-0.055822	0.844390	0.076953
C185	C	0.021767	0.595292	0.046498
C186	C	0.036331	0.535002	0.078531
C187	C	0.062033	0.564686	0.135099
H188	H	0.048218	0.632140	0.023731
H189	H	0.002867	0.619467	0.085920
H190	H	0.055230	0.510839	0.039117
H191	H	0.009889	0.498150	0.101314
H192	H	0.043132	0.588861	0.174521
H193	H	0.088481	0.601534	0.112326
H194	H	0.071913	0.523784	0.156846
C195	C	-0.536402	1.051771	-0.324526
C196	C	-0.503852	1.017821	-0.375615
C197	C	-0.524967	0.979042	-0.434071
H198	H	-0.561787	1.012770	-0.302230
H199	H	-0.547415	1.087504	-0.351830
H200	H	-0.492845	0.982091	-0.348314
H201	H	-0.478465	1.056805	-0.397931
H202	H	-0.535980	1.014776	-0.461376
H203	H	-0.550352	0.940045	-0.411768
H204	H	-0.502884	0.956009	-0.468747
H205	H	-0.011835	1.249315	-0.778851
C206	C	-0.195591	0.980305	-0.721182
C207	C	-0.217518	0.948228	-0.781458
C208	C	-0.256254	0.891603	-0.751746
H209	H	-0.185790	0.940898	-0.696924
H210	H	-0.216801	1.003067	-0.684403
H211	H	-0.196312	0.925465	-0.818223
H212	H	-0.227330	0.987615	-0.805722
H213	H	-0.277463	0.914365	-0.714967
H214	H	-0.246448	0.852202	-0.727488
H215	H	-0.271138	0.869837	-0.792637
H216	H	-0.445627	1.062264	-0.308593
H217	H	-0.458203	1.280515	0.019767
C218	C	-0.332171	1.252205	-0.022632
C219	C	-0.303538	1.286123	0.028463
C220	C	-0.329144	1.324931	0.086912
H221	H	-0.343392	1.291225	-0.044933
H222	H	-0.357739	1.216493	0.004671
H223	H	-0.277978	1.321832	0.001163
H224	H	-0.292316	1.247119	0.050784
H225	H	-0.354712	1.289219	0.114215
H226	H	-0.340364	1.363947	0.064603
H227	H	-0.309722	1.347943	0.121590
H228	H	-0.317178	1.100942	-0.250240
H229	H	-0.078511	0.479021	-0.173879
C230	C	0.006478	0.429959	0.013088
C231	C	-0.029847	0.374523	0.052652
C232	C	-0.011517	0.324987	0.093207
H233	H	0.027201	0.404868	-0.022204
H234	H	0.022824	0.459055	0.049066
H235	H	-0.046186	0.345430	0.016678
H236	H	-0.050573	0.399591	0.087957
H237	H	0.004829	0.354083	0.129184
H238	H	0.009206	0.299902	0.057909
H239	H	-0.036161	0.287372	0.120061
H240	H	-0.232064	1.100887	-0.250224
C241	C	-0.095764	1.126629	-0.443926
C242	C	-0.136033	1.147032	-0.459854
C243	C	-0.174793	1.090518	-0.429990
H244	H	-0.092151	1.078201	-0.467181
H245	H	-0.098359	1.122889	-0.389601
H246	H	-0.133438	1.150763	-0.514169
H247	H	-0.139661	1.195451	-0.436599
H248	H	-0.177389	1.086779	-0.375665
H249	H	-0.171175	1.042094	-0.453248
H250	H	-0.202120	1.104357	-0.440787
H251	H	-0.598939	1.280600	0.019756
C252	C	-0.034128	1.216518	-0.845513
C253	C	0.006139	1.196139	-0.829551
C254	C	0.044890	1.252717	-0.859311
H255	H	-0.031491	1.220330	-0.899832
H256	H	-0.037791	1.264911	-0.822196
H257	H	0.009802	1.147760	-0.852871
H258	H	0.003519	1.192333	-0.775239
H259	H	0.041227	1.301110	-0.835994
H260	H	0.047522	1.256525	-0.913629
H261	H	0.072215	1.238902	-0.848479
H262	H	-0.168312	1.020148	-0.600398
C263	C	-0.102243	0.516169	-0.226305
C264	C	-0.059204	0.493914	-0.251131
C265	C	-0.066398	0.414616	-0.267247
H266	H	-0.118380	0.488188	-0.180946
H267	H	-0.120178	0.505458	-0.265771
H268	H	-0.041276	0.504617	-0.211668
H269	H	-0.043060	0.521874	-0.296494
H270	H	-0.084333	0.403905	-0.306713
H271	H	-0.082536	0.386641	-0.221885
H272	H	-0.037198	0.399506	-0.284099
