data_functionalizedCrystal
_audit_creation_method	'MofGen! by Chris Wilmer'
_symmetry_space_group_name_H-M	'P1'
_symmetry_Int_Tables_number	1
_symmetry_cell_setting	triclinic
loop_
_symmetry_equiv_pos_as_xyz
  x,y,z
_cell_length_a	21.295420
_cell_length_b	21.295417
_cell_length_c	21.295411
_cell_angle_alpha	89.978159
_cell_angle_beta	90.024592
_cell_angle_gamma	89.968641
loop_
_atom_site_label
_atom_site_type_symbol
_atom_site_fract_x
_atom_site_fract_y
_atom_site_fract_z
Zn1	Zn	0.962333	0.250752	0.355911
Zn2	Zn	1.295666	0.584085	0.689244
Zn3	Zn	1.629000	0.917418	1.022578
Zn4	Zn	0.962226	0.356004	0.250636
Zn5	Zn	1.295560	0.689337	0.583969
Zn6	Zn	1.628893	1.022670	0.917303
Zn7	Zn	0.857056	0.250745	0.250656
Zn8	Zn	1.190390	0.584078	0.583989
Zn9	Zn	1.523723	0.917411	0.917323
Zn10	Zn	0.857016	0.355979	0.355868
Zn11	Zn	1.190350	0.689313	0.689201
Zn12	Zn	1.523683	1.022646	1.022534
O13	O	0.909658	0.303370	0.303268
O14	O	1.242991	0.636703	0.636601
O15	O	1.576325	0.970036	0.969934
O16	O	1.050408	0.264727	0.341956
O17	O	1.383742	0.598060	0.675289
O18	O	1.717075	0.931394	1.008623
O19	O	0.948247	0.342048	0.162549
O20	O	1.281580	0.675381	0.495883
O21	O	1.614914	1.008715	0.829216
O22	O	0.871083	0.162656	0.264645
O23	O	1.204416	0.495989	0.597978
O24	O	1.537750	0.829323	0.931311
O25	O	1.050330	0.342055	0.264611
O26	O	1.383663	0.675388	0.597944
O27	O	1.716996	1.008722	0.931277
O28	O	0.948429	0.162661	0.341975
O29	O	1.281763	0.495995	0.675309
O30	O	1.615096	0.829328	1.008642
O31	O	0.870979	0.264714	0.162564
O32	O	1.204313	0.598048	0.495897
O33	O	1.537646	0.931381	0.829231
O34	O	0.768962	0.264691	0.264603
O35	O	1.102295	0.598024	0.597936
O36	O	1.435628	0.931358	0.931269
O37	O	0.871015	0.342014	0.443963
O38	O	1.204348	0.675347	0.777296
O39	O	1.537682	1.008680	1.110630
O40	O	0.768932	0.342006	0.341901
O41	O	1.102266	0.675340	0.675235
O42	O	1.435599	1.008673	1.008568
O43	O	0.948391	0.264703	0.443995
O44	O	1.281724	0.598037	0.777328
O45	O	1.615057	0.931370	1.110661
O46	O	0.948208	0.444090	0.264569
O47	O	1.281542	0.777423	0.597902
O48	O	1.614875	1.110756	0.931235
O49	O	0.870911	0.444072	0.341882
O50	O	1.204245	0.777405	0.675215
O51	O	1.537578	1.110739	1.008549
C52	C	0.746106	0.303346	0.303250
C53	C	1.079440	0.636679	0.636583
C54	C	1.412773	0.970012	0.969917
C55	C	0.676138	0.303351	0.303257
C56	C	1.009472	0.636684	0.636591
C57	C	1.342805	0.970017	0.969924
C58	C	0.176721	0.263200	0.343616
C59	C	0.510054	0.596533	0.676950
C60	C	0.843387	0.929867	1.010283
C61	C	0.242463	0.263195	0.343616
C62	C	0.575796	0.596529	0.676949
C63	C	0.909130	0.929862	1.010283
C64	C	0.275299	0.303389	0.303282
C65	C	0.608632	0.636722	0.636616
C66	C	0.941966	0.970056	0.969949
C67	C	0.242387	0.343602	0.262957
C68	C	0.575720	0.676935	0.596290
C69	C	0.909053	1.010268	0.929624
C70	C	0.176645	0.343610	0.262963
C71	C	0.509979	0.676943	0.596296
C72	C	0.843312	1.010276	0.929629
N73	N	0.378488	0.308125	0.248163
N74	N	0.711822	0.641458	0.581496
N75	N	1.045155	0.974791	0.914829
N76	N	0.440940	0.308113	0.248159
N77	N	0.774273	0.641447	0.581492
N78	N	1.107606	0.974780	0.914826
C79	C	0.473374	0.303368	0.303264
C80	C	0.806707	0.636702	0.636597
C81	C	1.140040	0.970035	0.969931
N82	N	0.440997	0.298623	0.358374
N83	N	0.774330	0.631956	0.691707
N84	N	1.107663	0.965289	1.025040
N85	N	0.378540	0.298631	0.358376
N86	N	0.711873	0.631964	0.691710
N87	N	1.045206	0.965297	1.025043
C88	C	0.346584	0.303385	0.303272
C89	C	0.679918	0.636718	0.636605
C90	C	1.013251	0.970052	0.969939
C91	C	0.577563	0.263156	0.343590
C92	C	0.910897	0.596489	0.676923
C93	C	1.244230	0.929823	1.010256
C94	C	0.643307	0.263156	0.343591
C95	C	0.976640	0.596489	0.676924
C96	C	1.309974	0.929822	1.010257
C97	C	0.643229	0.343559	0.262926
C98	C	0.976563	0.676892	0.596259
C99	C	1.309896	1.010226	0.929593
C100	C	0.577487	0.343562	0.262931
C101	C	0.910820	0.676896	0.596264
C102	C	1.244154	1.010229	0.929597
C103	C	0.544658	0.303358	0.303262
C104	C	0.877991	0.636691	0.636595
C105	C	1.211325	0.970024	0.969928
C106	C	0.909561	0.466921	0.303232
C107	C	1.242894	0.800255	0.636566
C108	C	1.576228	1.133588	0.969899
C109	C	0.909577	0.536890	0.303238
C110	C	1.242910	0.870223	0.636572
C111	C	1.576244	1.203556	0.969905
C112	C	0.949825	0.569702	0.343532
C113	C	1.283158	0.903035	0.676866
C114	C	1.616492	1.236368	1.010199
C115	C	0.949840	0.635444	0.343546
C116	C	1.283174	0.968778	0.676880
C117	C	1.616507	1.302111	1.010213
C118	C	0.909615	0.668372	0.303255
C119	C	1.242948	1.001705	0.636588
C120	C	1.576281	1.335039	0.969922
C121	C	0.869359	0.635552	0.262958
C122	C	1.202692	0.968885	0.596292
C123	C	1.536026	1.302219	0.929625
C124	C	0.869340	0.569811	0.262950
C125	C	1.202674	0.903144	0.596283
C126	C	1.536007	1.236477	0.929617
N127	N	0.904845	0.771624	0.248162
N128	N	1.238178	1.104957	0.581495
N129	N	1.571511	1.438291	0.914829
N130	N	0.904866	0.834075	0.248172
N131	N	1.238199	1.167409	0.581505
N132	N	1.571533	1.500742	0.914838
C133	C	0.909668	0.866447	0.303279
C134	C	1.243001	1.199780	0.636613
C135	C	1.576335	1.533113	0.969946
N136	N	0.914460	0.834007	0.358378
N137	N	1.247793	1.167341	0.691711
N138	N	1.581126	1.500674	1.025044
N139	N	0.914441	0.771550	0.358367
N140	N	1.247775	1.104883	0.691701
N141	N	1.581108	1.438217	1.025034
C142	C	0.909630	0.739657	0.303260
C143	C	1.242964	1.072991	0.636593
C144	C	1.576297	1.406324	0.969927
C145	C	0.949935	0.970545	0.343592
C146	C	1.283268	1.303878	0.676925
C147	C	1.616601	1.637211	1.010259
C148	C	0.949946	1.036288	0.343607
C149	C	1.283279	1.369622	0.676940
C150	C	1.616612	1.702955	1.010274
C151	C	0.869468	1.036395	0.263014
C152	C	1.202801	1.369728	0.596347
C153	C	1.536134	1.703061	0.929680
C154	C	0.869453	0.970652	0.263004
C155	C	1.202787	1.303985	0.596337
C156	C	1.536120	1.637319	0.929671
C157	C	0.909690	0.937731	0.303292
C158	C	1.243023	1.271064	0.636626
C159	C	1.576357	1.604398	0.969959
C160	C	1.073848	0.303394	0.303286
C161	C	1.407182	0.636728	0.636619
C162	C	1.740515	0.970061	0.969953
C163	C	1.143816	0.303405	0.303294
C164	C	1.477150	0.636738	0.636627
C165	C	1.810483	0.970072	0.969960
C166	C	0.909710	0.303357	0.467458
C167	C	1.243044	0.636690	0.800791
C168	C	1.576377	0.970023	1.134125
C169	C	0.909733	0.303351	0.537426
C170	C	1.243066	0.636684	0.870760
C171	C	1.576399	0.970018	1.204093
C172	C	0.909747	1.139180	0.303312
C173	C	1.243080	1.472513	0.636645
C174	C	1.576413	1.805846	0.969978
C175	C	0.909719	1.069211	0.303316
C176	C	1.243052	1.402545	0.636650
C177	C	1.576385	1.735878	0.969983
C178	C	0.909642	0.303338	0.139716
C179	C	1.242976	0.636671	0.473049
C180	C	1.576309	0.970004	0.806383
C181	C	0.909742	0.303166	0.069748
C182	C	1.243075	0.636499	0.403082
C183	C	1.576409	0.969833	0.736415
C184	C	0.950020	0.263094	0.570310
C185	C	1.283354	0.596427	0.903644
C186	C	1.616687	0.929760	1.236977
C187	C	0.950019	0.263066	0.636053
C188	C	1.283353	0.596400	0.969386
C189	C	1.616686	0.929733	1.302720
C190	C	0.909737	0.303308	0.668909
C191	C	1.243071	0.636641	1.002242
C192	C	1.576404	0.969974	1.335575
C193	C	0.869442	0.343568	0.636017
C194	C	1.202775	0.676901	0.969350
C195	C	1.536108	1.010234	1.302683
C196	C	0.869439	0.343589	0.570275
C197	C	1.202773	0.676923	0.903609
C198	C	1.536106	1.010256	1.236942
N199	N	0.904876	0.358375	0.772124
N200	N	1.238209	0.691708	1.105457
N201	N	1.571543	1.025042	1.438791
N202	N	0.904882	0.358353	0.834575
N203	N	1.238215	0.691686	1.167909
N204	N	1.571549	1.025019	1.501242
C205	C	0.909741	0.303244	0.866984
C206	C	1.243075	0.636577	1.200317
C207	C	1.576408	0.969910	1.533650
N208	N	0.914607	0.248157	0.834581
N209	N	1.247940	0.581490	1.167914
N210	N	1.581274	0.914823	1.501248
N211	N	0.914604	0.248180	0.772124
N212	N	1.247938	0.581513	1.105457
N213	N	1.581271	0.914847	1.438790
C214	C	0.909735	0.303288	0.740194
C215	C	1.243069	0.636622	1.073527
C216	C	1.576402	0.969955	1.406861
C217	C	0.950030	0.262953	0.971153
C218	C	1.283364	0.596287	1.304487
C219	C	1.616697	0.929620	1.637820
C220	C	0.950025	0.262925	1.036897
C221	C	1.283358	0.596258	1.370230
C222	C	1.616692	0.929592	1.703564
C223	C	0.869451	0.343432	1.036860
C224	C	1.202784	0.676765	1.370193
C225	C	1.536117	1.010099	1.703526
C226	C	0.869453	0.343455	0.971117
C227	C	1.202786	0.676788	1.304450
C228	C	1.536119	1.010121	1.637784
C229	C	0.909746	0.303216	0.938268
C230	C	1.243079	0.636550	1.271601
C231	C	1.576413	0.969883	1.604935
H232	H	0.269259	0.230453	0.376451
H233	H	0.602592	0.563786	0.709784
H234	H	0.935926	0.897119	1.043117
O235	O	0.989087	0.223905	0.538439
O236	O	1.322421	0.557238	0.871772
O237	O	1.655754	0.890572	1.205105
C238	C	0.975376	0.161165	0.554528
C239	C	1.308709	0.494498	0.887862
C240	C	1.642043	0.827832	1.221195
H241	H	0.925088	0.157984	0.572576
H242	H	1.258421	0.491317	0.905909
H243	H	1.591754	0.824650	1.239242
H244	H	0.980820	0.130068	0.511307
H245	H	1.314154	0.463401	0.844640
H246	H	1.647487	0.796735	1.177974
H247	H	1.009132	0.144710	0.592711
H248	H	1.342465	0.478043	0.926044
H249	H	1.675798	0.811376	1.259378
O250	O	0.830332	1.068275	0.223854
O251	O	1.163665	1.401609	0.557188
O252	O	1.496999	1.734942	0.890521
C253	C	0.794817	1.025212	0.188272
C254	C	1.128151	1.358546	0.521605
C255	C	1.461484	1.691879	0.854939
H256	H	0.792613	0.978338	0.214047
H257	H	1.125946	1.311671	0.547380
H258	H	1.459280	1.645004	0.880713
H259	H	0.745228	1.044250	0.181514
H260	H	1.078562	1.377584	0.514847
H261	H	1.411895	1.710917	0.848180
H262	H	0.817891	1.018227	0.140483
H263	H	1.151224	1.351561	0.473817
H264	H	1.484558	1.684894	0.807150
H265	H	0.836606	0.662366	0.230154
H266	H	1.169939	0.995699	0.563488
H267	H	1.503272	1.329032	0.896821
O268	O	0.830294	0.938747	0.223946
O269	O	1.163627	1.272081	0.557279
O270	O	1.496961	1.605414	0.890613
C271	C	0.789618	0.900723	0.259740
C272	C	1.122951	1.234056	0.593074
C273	C	1.456284	1.567390	0.926407
H274	H	0.785709	0.920511	0.309318
H275	H	1.119043	1.253845	0.642652
H276	H	1.452376	1.587178	0.975985
H277	H	0.741185	0.900029	0.236927
H278	H	1.074518	1.233362	0.570261
H279	H	1.407851	1.566696	0.903594
H280	H	0.809066	0.850881	0.261920
H281	H	1.142399	1.184215	0.595253
H282	H	1.475732	1.517548	0.928586
O283	O	0.988943	0.938586	0.382823
O284	O	1.322276	1.271920	0.716156
O285	O	1.655609	1.605253	1.049490
C286	C	0.975162	0.954640	0.445550
C287	C	1.308496	1.287973	0.778883
C288	C	1.641829	1.621306	1.112217
H289	H	0.924877	0.972754	0.448679
H290	H	1.258211	1.306087	0.782012
H291	H	1.591544	1.639420	1.115346
H292	H	0.980552	0.911383	0.476647
H293	H	1.313885	1.244717	0.809981
H294	H	1.647218	1.578050	1.143314
H295	H	1.008914	0.992761	0.462047
H296	H	1.342247	1.326094	0.795380
H297	H	1.675580	1.659428	1.128713
O298	O	0.830260	0.382543	1.068670
O299	O	1.163594	0.715876	1.402004
O300	O	1.496927	1.049209	1.735337
C301	C	0.794714	0.418095	1.025544
C302	C	1.128047	0.751429	1.358877
C303	C	1.461380	1.084762	1.692211
H304	H	0.792552	0.392328	0.978681
H305	H	1.125885	0.725661	1.312014
H306	H	1.459219	1.058994	1.645348
H307	H	0.745112	0.424796	1.044517
H308	H	1.078445	0.758129	1.377851
H309	H	1.411779	1.091462	1.711184
H310	H	0.817732	0.465910	1.018560
H311	H	1.151065	0.799243	1.351894
H312	H	1.484399	1.132577	1.685227
H313	H	0.982587	0.542899	0.376339
H314	H	1.315920	0.876233	0.709672
H315	H	1.649253	1.209566	1.043005
O316	O	0.830344	0.382747	0.667860
O317	O	1.163677	0.716080	1.001193
O318	O	1.497011	1.049414	1.334527
C319	C	0.844066	0.445494	0.651807
C320	C	1.177399	0.778827	0.985140
C321	C	1.510733	1.112161	1.318474
H322	H	0.868261	0.446817	0.604083
H323	H	1.201594	0.780150	0.937416
H324	H	1.534928	1.113483	1.270750
H325	H	0.798615	0.473714	0.649538
H326	H	1.131948	0.807047	0.982872
H327	H	1.465282	1.140381	1.316205
H328	H	0.876417	0.466691	0.688817
H329	H	1.209751	0.800024	1.022150
H330	H	1.543084	1.133357	1.355484
H331	H	0.982610	0.662165	0.376366
H332	H	1.315943	0.995499	0.709699
H333	H	1.649276	1.328832	1.043033
O334	O	0.830393	0.382731	0.538258
O335	O	1.163726	0.716064	0.871592
O336	O	1.497060	1.049398	1.204925
C337	C	0.866207	0.423417	0.500259
C338	C	1.199540	0.756751	0.833592
C339	C	1.532873	1.090084	1.166925
H340	H	0.913928	0.401226	0.490434
H341	H	1.247261	0.734559	0.823767
H342	H	1.580594	1.067893	1.157100
H343	H	0.840563	0.431866	0.454016
H344	H	1.173896	0.765199	0.787350
H345	H	1.507229	1.098532	1.120683
H346	H	0.873090	0.470059	0.525596
H347	H	1.206423	0.803393	0.858930
H348	H	1.539756	1.136726	1.192263
H349	H	0.982836	0.230185	0.944406
H350	H	1.316169	0.563519	1.277740
H351	H	1.649503	0.896852	1.611073
O352	O	0.830409	0.382598	0.939102
O353	O	1.163742	0.715931	1.272435
O354	O	1.497075	1.049265	1.605768
C355	C	0.866219	0.423285	0.901099
C356	C	1.199552	0.756618	1.234432
C357	C	1.532885	1.089951	1.567765
H358	H	0.913938	0.401094	0.891269
H359	H	1.247272	0.734427	1.224602
H360	H	1.580605	1.067760	1.557935
H361	H	0.840570	0.431733	0.854859
H362	H	1.173903	0.765067	1.188193
H363	H	1.507236	1.098400	1.521526
H364	H	0.873104	0.469926	0.926437
H365	H	1.206437	0.803260	1.259770
H366	H	1.539770	1.136593	1.593103
H367	H	0.982831	0.230139	1.063670
H368	H	1.316165	0.563472	1.397004
H369	H	1.649498	0.896806	1.730337
O370	O	0.675342	0.224069	0.382676
O371	O	1.008676	0.557402	0.716009
O372	O	1.342009	0.890735	1.049342
C373	C	0.713361	0.183351	0.346904
C374	C	1.046694	0.516684	0.680237
C375	C	1.380028	0.850017	1.013571
H376	H	0.723175	0.205487	0.299160
H377	H	1.056509	0.538821	0.632493
H378	H	1.389842	0.872154	0.965827
H379	H	0.759607	0.174947	0.372557
H380	H	1.092940	0.508280	0.705890
H381	H	1.426274	0.841613	1.039223
H382	H	0.688044	0.136693	0.340070
H383	H	1.021378	0.470026	0.673403
H384	H	1.354711	0.803360	1.006736
O385	O	0.144861	0.224218	0.382888
O386	O	0.478195	0.557551	0.716221
O387	O	0.811528	0.890884	1.049554
C388	C	0.160969	0.238052	0.445599
C389	C	0.494302	0.571385	0.778932
C390	C	0.827636	0.904719	1.112265
H391	H	0.179020	0.288344	0.448684
H392	H	0.512353	0.621677	0.782017
H393	H	0.845687	0.955010	1.115350
H394	H	0.117756	0.232677	0.476715
H395	H	0.451089	0.566011	0.810049
H396	H	0.784423	0.899344	1.143382
H397	H	0.199154	0.204323	0.462107
H398	H	0.532488	0.537656	0.795441
H399	H	0.865821	0.870989	1.128774
O400	O	0.274253	0.382736	0.223844
O401	O	0.607586	0.716069	0.557177
O402	O	0.940919	1.049402	0.890511
C403	C	0.258159	0.445496	0.237481
C404	C	0.591492	0.778829	0.570815
C405	C	0.924825	1.112162	0.904148
H406	H	0.240111	0.448746	0.287766
H407	H	0.573445	0.782080	0.621099
H408	H	0.906778	1.115413	0.954433
H409	H	0.301378	0.476581	0.232000
H410	H	0.634711	0.809914	0.565334
H411	H	0.968044	1.143248	0.898667
H412	H	0.219975	0.461909	0.203706
H413	H	0.553308	0.795243	0.537040
H414	H	0.886642	1.128576	0.870373
O415	O	0.144652	0.382732	0.223879
O416	O	0.477985	0.716065	0.557213
O417	O	0.811318	1.049399	0.890546
C418	C	0.106611	0.423432	0.259647
C419	C	0.439944	0.756765	0.592981
C420	C	0.773277	1.090099	0.926314
H421	H	0.126445	0.427389	0.309218
H422	H	0.459778	0.760722	0.642551
H423	H	0.793111	1.094055	0.975885
H424	H	0.105830	0.471845	0.236794
H425	H	0.439164	0.805178	0.570127
H426	H	0.772497	1.138511	0.903460
H427	H	0.056797	0.403976	0.261853
H428	H	0.390130	0.737309	0.595187
H429	H	0.723463	1.070642	0.928520
H430	H	0.982825	0.230281	0.662833
H431	H	1.316159	0.563614	0.996166
H432	H	1.649492	0.896947	1.329499
O433	O	0.545766	0.224090	0.382831
O434	O	0.879099	0.557424	0.716164
O435	O	1.212433	0.890757	1.049498
C436	C	0.588909	0.188596	0.418417
C437	C	0.922243	0.521930	0.751750
C438	C	1.255576	0.855263	1.085083
H439	H	0.635762	0.214379	0.420544
H440	H	0.969095	0.547712	0.753878
H441	H	1.302429	0.881045	1.087211
H442	H	0.569942	0.181959	0.468028
H443	H	0.903276	0.515292	0.801361
H444	H	1.236609	0.848625	1.134695
H445	H	0.595911	0.140752	0.395455
H446	H	0.929244	0.474085	0.728788
H447	H	1.262578	0.807419	1.062122
O448	O	0.675215	0.382546	0.223767
O449	O	1.008549	0.715879	0.557101
O450	O	1.341882	1.049213	0.890434
C451	C	0.740297	0.373933	0.232422
C452	C	1.073630	0.707266	0.565755
C453	C	1.406964	1.040600	0.899088
H454	H	0.749309	0.325381	0.253123
H455	H	1.082642	0.658714	0.586457
H456	H	1.415976	0.992047	0.919790
H457	H	0.765258	0.378136	0.185261
H458	H	1.098591	0.711469	0.518595
H459	H	1.431924	1.044802	0.851928
H460	H	0.758951	0.411316	0.265877
H461	H	1.092285	0.744650	0.599211
H462	H	1.425618	1.077983	0.932544
H463	H	0.982720	1.063003	0.376422
H464	H	1.316054	1.396336	0.709756
H465	H	1.649387	1.729670	1.043089
H466	H	0.836565	0.543094	0.230137
H467	H	1.169898	0.876428	0.563470
H468	H	1.503231	1.209761	0.896804
O469	O	0.545617	0.382632	0.223696
O470	O	0.878951	0.715966	0.557029
O471	O	1.212284	1.049299	0.890362
C472	C	0.588694	0.418120	0.188106
C473	C	0.922027	0.751453	0.521439
C474	C	1.255360	1.084786	0.854773
H475	H	0.635567	0.392328	0.185970
H476	H	0.968900	0.725661	0.519303
H477	H	1.302234	1.058995	0.852637
H478	H	0.569671	0.424765	0.138498
H479	H	0.903004	0.758098	0.471831
H480	H	1.236337	1.091431	0.805165
H481	H	0.595676	0.465961	0.211070
H482	H	0.929009	0.799294	0.544403
H483	H	1.262342	1.132628	0.877737
