data_functionalizedCrystal
_audit_creation_method	'MofGen! by Chris Wilmer'
_symmetry_space_group_name_H-M	'P1'
_symmetry_Int_Tables_number	1
_symmetry_cell_setting	triclinic
loop_
_symmetry_equiv_pos_as_xyz
  x,y,z
_cell_length_a	14.044220
_cell_length_b	14.044220
_cell_length_c	12.503572
_cell_angle_alpha	86.156832
_cell_angle_beta	86.164750
_cell_angle_gamma	86.811122
loop_
_atom_site_label
_atom_site_type_symbol
_atom_site_fract_x
_atom_site_fract_y
_atom_site_fract_z
O1	O	1.282200	-0.225116	-0.089210
O2	O	1.005530	-0.216809	-0.089237
O3	O	1.139712	-0.082627	-0.089213
O4	O	1.148019	-0.359298	-0.089234
O5	O	1.129622	-0.092737	0.089427
O6	O	0.995440	-0.226918	0.089403
O7	O	1.272110	-0.235226	0.089430
Cu8	Cu	1.132854	-0.231995	0.105728
Cu9	Cu	1.144786	-0.220040	-0.105535
O10	O	1.137929	-0.369407	0.089406
C11	C	0.964864	-0.218228	0.000080
C12	C	0.858721	-0.207383	0.000070
C13	C	1.131031	-0.052060	0.000107
C14	C	1.120187	0.054082	0.000107
C15	C	0.664382	-0.187558	0.000092
C16	C	0.613253	-0.264472	0.000091
C17	C	0.505116	-0.253441	0.000104
C18	C	0.772529	-0.198587	0.000080
C19	C	1.312777	-0.233807	0.000111
C20	C	1.418920	-0.244651	0.000114
C21	C	1.146609	-0.399974	0.000084
C22	C	1.157454	-0.506117	0.000077
N23	N	1.124469	-0.240404	0.254319
C24	C	1.100361	0.248421	0.000090
C25	C	1.177275	0.299551	0.000094
C26	C	1.166244	0.407687	0.000084
C27	C	1.111391	0.140274	0.000099
N28	N	1.153179	-0.211624	-0.254126
C29	C	1.112134	-0.252782	0.473432
C30	C	1.165511	-0.199249	0.526768
C31	C	1.158648	-0.206136	0.648690
C32	C	1.118996	-0.245896	0.351499
H33	H	0.650692	-0.338605	0.000081
H34	H	0.626945	-0.113431	0.000104
C35	C	1.277426	0.248979	0.000121
C36	C	1.288467	0.139271	0.000140
C37	C	1.388614	0.088695	0.000174
C38	C	1.477719	0.147827	0.000188
C39	C	1.466681	0.257542	0.000169
C40	C	1.366535	0.308118	0.000135
H41	H	1.222504	0.095492	0.000130
H42	H	1.396784	0.007476	0.000188
H43	H	1.551853	0.110387	0.000213
H44	H	1.532645	0.301321	0.000179
H45	H	1.358364	0.389336	0.000121
H46	H	1.026234	0.285859	0.000080
C47	C	1.234218	-0.130351	0.464762
C48	C	1.241026	-0.123421	0.341077
C49	C	1.309733	-0.054530	0.279065
C50	C	1.371631	0.007430	0.340738
C51	C	1.364825	0.000502	0.464431
C52	C	1.296119	-0.068389	0.526443
H53	H	1.195203	-0.169289	0.295416
H54	H	1.314771	-0.049402	0.187499
H55	H	1.422492	0.058427	0.294833
H56	H	1.410649	0.046371	0.510091
H57	H	1.291081	-0.073517	0.618008
H58	H	1.061285	-0.303783	0.519330
