data_functionalizedCrystal
_audit_creation_method	'MofGen! by Chris Wilmer'
_symmetry_space_group_name_H-M	'P1'
_symmetry_Int_Tables_number	1
_symmetry_cell_setting	triclinic
loop_
_symmetry_equiv_pos_as_xyz
  x,y,z
_cell_length_a	14.853567
_cell_length_b	13.330367
_cell_length_c	14.853559
_cell_angle_alpha	89.997552
_cell_angle_beta	83.633192
_cell_angle_gamma	89.994807
loop_
_atom_site_label
_atom_site_type_symbol
_atom_site_fract_x
_atom_site_fract_y
_atom_site_fract_z
O1	O	1.196365	-0.083364	0.117704
O2	O	0.933905	-0.083377	0.131725
O3	O	1.072150	-0.083369	-0.006515
O4	O	1.058121	-0.083372	0.255945
O5	O	1.072130	0.083478	-0.006519
O6	O	0.933885	0.083470	0.131722
O7	O	1.196345	0.083484	0.117701
Cu8	Cu	1.065113	0.098711	0.124711
Cu9	Cu	1.065137	-0.098605	0.124715
O10	O	1.058100	0.083475	0.255942
C11	C	0.900307	0.000045	0.131089
C12	C	0.800223	0.000039	0.129185
C13	C	1.071506	0.000053	-0.040106
C14	C	1.069605	0.000047	-0.140190
N15	N	1.065103	0.237493	0.124708
C16	C	1.229944	0.000060	0.118338
C17	C	1.330027	0.000058	0.120242
C18	C	1.742559	0.000040	0.210408
C19	C	1.763845	0.000042	0.046174
C20	C	1.669811	0.000047	0.044384
C21	C	1.612147	0.000048	0.125607
C22	C	1.648516	0.000042	0.208620
C23	C	1.633434	0.000043	-0.038627
C24	C	1.539395	0.000047	-0.040421
C25	C	1.481729	0.000054	0.040803
C26	C	1.518104	0.000050	0.123819
C27	C	1.460440	0.000050	0.205042
C28	C	1.496812	0.000053	0.288060
C29	C	1.590850	0.000050	0.289844
C30	C	1.387692	0.000058	0.039019
C31	C	1.366397	0.000053	0.203255
N32	N	1.065154	-0.237386	0.124711
C33	C	1.003920	0.710112	0.185904
C34	C	1.126379	0.710087	0.063519
C35	C	1.126369	0.605069	0.063516
C36	C	1.065134	0.552567	0.124709
C37	C	1.003909	0.605084	0.185905
C38	C	1.187598	0.552544	0.002328
C39	C	1.187591	0.447520	0.002323
C40	C	1.126351	0.395016	0.063513
C41	C	1.065124	0.447539	0.124710
C42	C	1.003889	0.395038	0.185903
C43	C	0.942656	0.447559	0.247097
C44	C	0.942670	0.552580	0.247094
C45	C	1.126338	0.289994	0.063515
C46	C	1.003879	0.290009	0.185904
C47	C	1.061552	-0.090902	-0.563363
C48	C	1.061530	0.091001	-0.563361
C49	C	1.063323	0.091002	-0.469328
C50	C	1.064230	0.000050	-0.422308
C51	C	1.063343	-0.090904	-0.469321
C52	C	1.064201	0.181954	-0.422307
C53	C	1.065994	0.181959	-0.328268
C54	C	1.066907	0.091005	-0.281247
C55	C	1.066021	0.000048	-0.328266
C56	C	1.066927	-0.090905	-0.281245
C57	C	1.066047	-0.181863	-0.328264
C58	C	1.064256	-0.181857	-0.422300
C59	C	1.068698	0.091000	-0.187210
C60	C	1.068718	-0.090906	-0.187203
C61	C	1.058745	0.000052	0.289532
C62	C	1.060646	0.000051	0.389616
H63	H	1.319452	0.000059	0.269397
H64	H	1.066779	-0.255916	-0.289967
O65	O	1.434607	0.000057	0.375659
H66	H	1.447546	-0.067948	0.415383
H67	H	1.620473	0.000050	0.357432
O68	O	1.060592	-0.189005	-0.614065
H69	H	1.121171	-0.193359	-0.664873
H70	H	1.772178	0.000046	0.277998
O71	O	1.069648	0.189095	-0.136502
H72	H	1.071043	0.173815	-0.063212
O73	O	1.253641	0.609174	-0.063665
H74	H	1.296223	0.555012	-0.106209
O75	O	1.253620	0.390872	-0.063684
H76	H	1.296196	0.445025	-0.106240
H77	H	1.810800	0.000035	-0.019954
O78	O	1.069686	-0.189010	-0.136492
H79	H	1.130742	-0.232624	-0.162502
H80	H	1.060786	0.165051	-0.601650
H81	H	1.063458	0.256003	-0.460597
H82	H	1.358081	0.000049	-0.028573
O83	O	1.063292	-0.279957	-0.473007
H84	H	1.061880	-0.264673	-0.546294
O85	O	0.937831	0.233375	0.251899
H86	H	0.949399	0.253517	0.322205
O87	O	1.695624	0.000053	-0.126229
H88	H	1.767124	0.000068	-0.111037
O89	O	1.192369	0.233343	-0.002480
H90	H	1.234949	0.287494	-0.045032
H91	H	1.176239	0.752837	0.013702
O92	O	1.066962	0.280056	-0.277559
H93	H	1.066040	0.343300	-0.326056
H94	H	0.892802	0.404800	0.296925
O95	O	1.500164	0.000065	-0.129954
H96	H	1.556062	0.000074	-0.186132
H97	H	0.892817	0.595350	0.296917
H98	H	0.954062	0.752877	0.235725
