data_functionalizedCrystal
_audit_creation_method	'MofGen! by Chris Wilmer'
_symmetry_space_group_name_H-M	'P1'
_symmetry_Int_Tables_number	1
_symmetry_cell_setting	triclinic
loop_
_symmetry_equiv_pos_as_xyz
  x,y,z
_cell_length_a	16.959455
_cell_length_b	16.959453
_cell_length_c	17.077396
_cell_angle_alpha	89.970936
_cell_angle_beta	89.981528
_cell_angle_gamma	90.016935
loop_
_atom_site_label
_atom_site_type_symbol
_atom_site_fract_x
_atom_site_fract_y
_atom_site_fract_z
Zn1	Zn	1.208417	-0.314746	-0.443818
Zn2	Zn	1.208330	-0.446934	-0.312551
Zn3	Zn	1.076235	-0.314766	-0.312568
Zn4	Zn	1.076210	-0.446879	-0.443777
O5	O	1.142298	-0.380831	-0.378178
O6	O	1.319016	-0.332295	-0.426415
O7	O	1.190781	-0.429433	-0.202706
O8	O	1.093817	-0.204153	-0.330004
O9	O	1.318952	-0.429413	-0.329973
O10	O	1.190930	-0.204138	-0.426432
O11	O	1.093732	-0.332330	-0.202719
O12	O	0.965621	-0.332277	-0.329963
O13	O	1.093773	-0.429320	-0.553629
O14	O	0.965602	-0.429340	-0.426362
O15	O	1.190905	-0.332242	-0.553659
O16	O	1.190757	-0.557537	-0.329933
O17	O	1.093689	-0.557497	-0.426344
C18	C	0.936932	-0.380805	-0.378160
C19	C	0.849075	-0.380813	-0.378171
C20	C	1.142232	-0.586198	-0.378150
C21	C	1.142276	-0.674054	-0.378164
C22	C	1.192929	-1.045463	-0.428483
C23	C	1.091887	-1.045596	-0.327990
C24	C	1.091858	-0.963050	-0.327972
C25	C	1.142364	-0.921707	-0.378211
C26	C	1.192900	-0.962910	-0.428469
C27	C	1.041318	-0.921841	-0.277721
C28	C	1.041286	-0.839290	-0.277701
C29	C	1.091797	-0.797946	-0.327938
C30	C	1.142335	-0.839154	-0.378196
C31	C	1.192841	-0.797811	-0.428436
C32	C	1.243384	-0.839017	-0.478691
C33	C	1.243411	-0.921565	-0.478705
C34	C	1.091770	-0.715397	-0.327924
C35	C	1.192812	-0.715257	-0.428421
C36	C	0.477585	-0.330249	-0.328089
C37	C	0.477614	-0.431478	-0.428313
C38	C	0.560160	-0.431467	-0.428308
C39	C	0.601422	-0.380847	-0.378192
C40	C	0.560138	-0.330238	-0.328081
C41	C	0.601450	-0.482081	-0.478413
C42	C	0.684001	-0.482072	-0.478410
C43	C	0.725264	-0.431447	-0.428297
C44	C	0.683976	-0.380836	-0.378184
C45	C	0.725238	-0.330215	-0.328068
C46	C	0.683950	-0.279599	-0.277958
C47	C	0.601402	-0.279613	-0.277968
C48	C	0.807813	-0.431433	-0.428287
C49	C	0.807791	-0.330204	-0.328060
C50	C	1.348466	-0.380858	-0.378197
C51	C	1.436323	-0.380869	-0.378205
C52	C	1.142346	-0.380773	-0.582923
C53	C	1.142366	-0.380748	-0.670173
C54	C	1.142386	-0.174663	-0.378224
C55	C	1.142423	-0.086806	-0.378244
C56	C	1.192944	-0.330196	-0.711180
C57	C	1.192954	-0.330169	-0.793160
C58	C	1.142389	-0.380700	-0.834132
C59	C	1.091805	-0.431255	-0.793119
C60	C	1.091792	-0.431277	-0.711140
C61	C	1.091837	-0.431208	-0.963989
C62	C	1.091850	-0.431187	-1.045974
C63	C	1.192999	-0.330100	-1.046009
C64	C	1.192986	-0.330122	-0.964030
C65	C	1.142403	-0.380678	-0.923023
C66	C	1.142296	-0.380832	-0.174231
C67	C	1.142429	-0.380634	-0.086981
H68	H	1.233943	-0.681601	-0.469329
C69	C	1.299281	-0.319169	-0.885390
C70	C	1.248541	-0.274598	-0.838245
H71	H	1.333592	-0.284856	-0.913228
H72	H	1.329504	-0.353609	-0.853412
H73	H	1.269156	-0.349260	-0.921515
H74	H	1.278666	-0.244511	-0.802117
H75	H	1.218316	-0.240143	-0.870226
H76	H	0.841425	-0.472647	-0.469083
C77	C	0.991884	-0.531158	-0.972184
C78	C	1.036253	-0.486798	-0.918912
H79	H	0.957581	-0.565485	-0.944354
H80	H	0.961652	-0.496713	-1.004151
H81	H	1.026330	-0.561370	-1.004168
H82	H	1.001807	-0.456581	-0.886932
H83	H	1.066487	-0.521246	-0.886932
H84	H	1.234165	-0.288980	-0.930673
C85	C	1.237914	-0.285153	-1.171689
C86	C	1.248588	-0.274513	-1.091082
H87	H	1.272227	-0.250833	-1.199515
H88	H	1.249469	-0.338250	-1.185117
H89	H	1.184807	-0.273578	-1.185104
H90	H	1.301693	-0.286094	-1.077666
H91	H	1.237038	-0.221404	-1.077649
C92	C	1.080818	-0.537473	-1.138152
C93	C	1.036259	-0.486717	-1.091018
H94	H	1.046495	-0.571754	-1.165957
H95	H	1.110946	-0.507364	-1.174297
H96	H	1.115224	-0.567734	-1.106162
H97	H	1.001857	-0.456452	-1.123007
H98	H	1.006118	-0.516829	-1.054868
C99	C	0.991835	-0.531216	-0.719334
C100	C	1.036208	-0.486860	-0.666062
H101	H	0.957524	-0.565535	-0.691503
H102	H	0.961612	-0.496769	-0.751305
H103	H	1.026278	-0.561436	-0.751313
H104	H	1.001765	-0.456635	-0.634086
H105	H	1.066434	-0.521311	-0.634077
C106	C	0.575993	-0.145720	-0.239971
C107	C	0.556023	-0.223980	-0.222887
H108	H	0.547973	-0.111376	-0.205968
H109	H	0.631054	-0.138475	-0.232794
H110	H	0.562480	-0.134232	-0.292735
H111	H	0.569541	-0.235470	-0.170124
H112	H	0.500949	-0.231229	-0.230057
C113	C	1.237838	-0.285341	-0.585530
C114	C	1.248526	-0.274648	-0.666146
H115	H	1.272154	-0.251047	-0.557732
H116	H	1.184737	-0.273771	-0.572094
H117	H	1.249386	-0.338456	-0.572090
H118	H	1.236971	-0.221534	-0.679587
H119	H	1.301638	-0.286212	-0.679588
H120	H	1.000132	-0.805745	-0.236780
C121	C	0.991886	-0.723824	-0.228604
C122	C	1.036215	-0.670103	-0.272693
H123	H	0.957591	-0.695860	-0.194503
H124	H	0.961649	-0.756015	-0.262788
H125	H	1.026358	-0.756021	-0.198611
H126	H	1.001744	-0.637910	-0.302690
H127	H	1.066455	-0.637899	-0.238505
H128	H	1.284559	-0.955123	-0.519621
C129	C	1.288194	-0.712411	-0.523285
C130	C	1.298900	-0.793567	-0.533913
H131	H	1.322470	-0.684352	-0.557373
H132	H	1.235078	-0.698921	-0.534726
H133	H	1.299785	-0.698920	-0.470547
H134	H	1.287303	-0.807059	-0.586650
H135	H	1.352028	-0.807062	-0.522477
C136	C	1.237847	-1.171940	-0.473133
C137	C	1.248482	-1.090753	-0.483725
H138	H	1.272141	-1.199898	-0.507241
H139	H	1.249455	-1.185493	-0.420411
H140	H	1.184735	-1.185491	-0.484577
H141	H	1.301593	-1.077201	-0.472276
H142	H	1.236880	-1.077195	-0.536460
H143	H	1.050764	-1.079262	-0.287090
H144	H	0.443965	-0.289037	-0.287293
H145	H	0.444014	-0.472696	-0.469111
C146	C	0.996520	-1.048442	-0.233113
C147	C	0.985811	-0.967285	-0.222494
H148	H	0.962256	-1.076498	-0.199010
H149	H	0.984920	-1.061941	-0.285838
H150	H	1.049646	-1.061927	-0.221679
H151	H	0.932686	-0.953799	-0.233934
H152	H	0.997405	-0.953780	-0.169756
H153	H	0.567848	-0.523299	-0.519209
H154	H	0.841381	-0.288978	-0.287253
H155	H	0.717557	-0.238388	-0.237150
C156	C	0.675729	-0.582132	-0.577485
C157	C	0.729380	-0.537700	-0.533495
H158	H	0.703747	-0.616469	-0.611497
H159	H	0.643519	-0.612329	-0.543233
H160	H	0.643544	-0.547727	-0.607569
H161	H	0.761561	-0.572105	-0.503406
H162	H	0.761604	-0.507501	-0.567751
H163	H	1.050631	-0.472395	-0.826485
