data_functionalizedCrystal
_audit_creation_method	'MofGen! by Chris Wilmer'
_symmetry_space_group_name_H-M	'P1'
_symmetry_Int_Tables_number	1
_symmetry_cell_setting	triclinic
loop_
_symmetry_equiv_pos_as_xyz
  x,y,z
_cell_length_a	17.077404
_cell_length_b	19.077068
_cell_length_c	17.077396
_cell_angle_alpha	87.732878
_cell_angle_beta	90.019777
_cell_angle_gamma	92.322445
loop_
_atom_site_label
_atom_site_type_symbol
_atom_site_fract_x
_atom_site_fract_y
_atom_site_fract_z
Zn1	Zn	1.187471	-0.280287	0.456386
Zn2	Zn	1.687471	0.219713	0.956386
Zn3	Zn	1.182093	-0.397990	0.330384
Zn4	Zn	1.682093	0.102010	0.830384
Zn5	Zn	1.056202	-0.280302	0.325133
Zn6	Zn	1.556202	0.219698	0.825133
Zn7	Zn	1.050888	-0.397939	0.461605
Zn8	Zn	1.550888	0.102061	0.961605
O9	O	1.119163	-0.339129	0.393377
O10	O	1.619163	0.160871	0.893377
O11	O	1.296603	-0.295916	0.439684
O12	O	1.796603	0.204084	0.939684
O13	O	1.165367	-0.382407	0.219842
O14	O	1.665367	0.117593	0.719842
O15	O	1.078089	-0.181809	0.338163
O16	O	1.578089	0.318191	0.838163
O17	O	1.292653	-0.382392	0.347112
O18	O	1.792653	0.117608	0.847112
O19	O	1.174532	-0.181798	0.434593
O20	O	1.674532	0.318202	0.934593
O21	O	1.072875	-0.295941	0.215984
O22	O	1.572875	0.204059	0.715984
O23	O	0.945651	-0.295891	0.343224
O24	O	1.445651	0.204109	0.843224
O25	O	1.069033	-0.382304	0.570758
O26	O	1.569033	0.117696	1.070758
O27	O	0.941747	-0.382318	0.443489
O28	O	1.441747	0.117682	0.943489
O29	O	1.169379	-0.295866	0.566924
O30	O	1.669379	0.204134	1.066924
O31	O	1.160214	-0.496474	0.352173
O32	O	1.660214	0.003526	0.852173
O33	O	1.063818	-0.496436	0.448580
O34	O	1.563818	0.003564	0.948580
C35	C	0.915217	-0.339101	0.393353
C36	C	1.415217	0.160899	0.893353
C37	C	0.827967	-0.339106	0.393362
C38	C	1.327967	0.160894	0.893362
C39	C	0.450135	-0.384233	0.445533
C40	C	0.950135	0.115767	0.945533
C41	C	0.532115	-0.384224	0.445521
C42	C	1.032115	0.115776	0.945521
C43	C	0.575116	-0.339148	0.393390
C44	C	1.075116	0.160852	0.893390
C45	C	0.536131	-0.294084	0.341264
C46	C	1.036131	0.205916	0.841264
C47	C	0.454152	-0.294097	0.341273
C48	C	0.954152	0.205903	0.841273
C49	C	0.707002	-0.294058	0.341250
C50	C	1.207002	0.205942	0.841250
C51	C	0.788988	-0.294044	0.341241
C52	C	1.288988	0.205956	0.841241
C53	C	0.784966	-0.384185	0.445498
C54	C	1.284966	0.115815	0.945498
C55	C	0.702987	-0.384198	0.445507
C56	C	1.202987	0.115802	0.945507
C57	C	0.664008	-0.339133	0.393381
C58	C	1.164008	0.160867	0.893381
C59	C	1.110878	-0.521993	0.401530
C60	C	1.610878	-0.021993	0.901530
C61	C	1.107405	-0.600222	0.405044
C62	C	1.607405	-0.100222	0.905044
C63	C	1.156000	-0.636971	0.356542
C64	C	1.656000	-0.136971	0.856542
C65	C	1.152738	-0.710476	0.359852
C66	C	1.652738	-0.210476	0.859852
C67	C	1.100877	-0.747231	0.411660
C68	C	1.600877	-0.247231	0.911660
C69	C	1.052279	-0.710477	0.460167
C70	C	1.552279	-0.210477	0.960167
C71	C	1.055545	-0.636974	0.456860
C72	C	1.555545	-0.136974	0.956860
C73	C	1.085726	-0.967065	0.426930
C74	C	1.585726	-0.467065	0.926930
C75	C	1.082461	-1.040573	0.430231
C76	C	1.582461	-0.540573	0.930231
C77	C	1.182922	-1.040568	0.329917
C78	C	1.682922	-0.540568	0.829917
C79	C	1.186180	-0.967062	0.326612
C80	C	1.686180	-0.467062	0.826612
C81	C	1.137586	-0.930315	0.375121
C82	C	1.637586	-0.430315	0.875121
N83	N	1.097540	-0.822365	0.415042
N84	N	1.597540	-0.322365	0.915042
N85	N	1.140927	-0.855182	0.371742
N86	N	1.640927	-0.355182	0.871742
C87	C	1.323906	-0.339158	0.393402
C88	C	1.823906	0.160842	0.893402
C89	C	1.411156	-0.339171	0.393412
C90	C	1.911156	0.160829	0.893412
C91	C	1.119213	-0.339078	0.598119
C92	C	1.619213	0.160922	1.098119
C93	C	1.119234	-0.339056	0.685368
C94	C	1.619234	0.160944	1.185368
C95	C	1.127503	-0.155552	0.385210
C96	C	1.627503	0.344448	0.885210
C97	C	1.131057	-0.077322	0.381729
C98	C	1.631057	0.422678	0.881729
C99	C	1.119161	-0.339130	0.189429
C100	C	1.619161	0.160870	0.689429
C101	C	1.119301	-0.338954	0.102172
C102	C	1.619301	0.161046	0.602172
C103	C	1.171487	-0.294043	0.724363
C104	C	1.671487	0.205957	1.224363
C105	C	1.171497	-0.294020	0.806342
C106	C	1.671497	0.205980	1.306342
C107	C	1.119259	-0.339013	0.849326
C108	C	1.619259	0.160987	1.349326
C109	C	1.067001	-0.384027	0.810325
C110	C	1.567001	0.115973	1.310325
C111	C	1.066987	-0.384046	0.728347
C112	C	1.566987	0.115954	1.228347
C113	C	1.067034	-0.383984	0.981194
C114	C	1.567034	0.116016	1.481194
C115	C	1.067049	-0.383966	1.063177
C116	C	1.567049	0.116034	1.563177
C117	C	1.171545	-0.293958	1.059188
C118	C	1.671545	0.206042	1.559188
C119	C	1.171531	-0.293978	0.977210
C120	C	1.671531	0.206022	1.477210
C121	C	1.119274	-0.338993	0.938216
C122	C	1.619274	0.161007	1.438216
H123	H	0.816707	-0.420877	0.487942
H124	H	1.316707	0.079123	0.987942
H125	H	0.422416	-0.257401	0.298832
H126	H	0.922416	0.242599	0.798832
H127	H	1.222486	-1.070495	0.290424
H128	H	1.722486	-0.570495	0.790424
H129	H	1.198228	-0.607050	0.314351
H130	H	1.698228	-0.107050	0.814351
H131	H	1.192309	-0.740394	0.320356
H132	H	1.692309	-0.240394	0.820356
O133	O	0.577863	-0.250376	0.290512
O134	O	1.077863	0.249624	0.790512
C135	C	0.557094	-0.265661	0.212933
C136	C	1.057094	0.234339	0.712933
H137	H	0.532021	-0.321886	0.211377
H138	H	1.032021	0.178114	0.711377
H139	H	0.611266	-0.259549	0.173886
H140	H	1.111266	0.240451	0.673886
H141	H	0.511203	-0.227910	0.190802
H142	H	1.011203	0.272090	0.690802
O143	O	1.236635	-0.931470	0.276272
O144	O	1.736635	-0.431470	0.776272
C145	C	1.278817	-0.979668	0.234160
C146	C	1.778817	-0.479668	0.734160
H147	H	1.279185	-1.032043	0.268667
H148	H	1.779185	-0.532043	0.768667
H149	H	1.341616	-0.958396	0.224894
H150	H	1.841616	-0.458396	0.724894
H151	H	1.249762	-0.987539	0.174867
H152	H	1.749762	-0.487539	0.674867
O153	O	1.032065	-1.076170	0.480635
O154	O	1.532065	-0.576170	0.980635
C155	C	0.989862	-1.027974	0.522731
C156	C	1.489862	-0.527974	1.022731
H157	H	1.024339	-0.975554	0.523120
H158	H	1.524339	-0.475554	1.023120
H159	H	0.980520	-1.049182	0.585523
H160	H	1.480520	-0.549182	1.085523
H161	H	0.930602	-1.020216	0.493590
H162	H	1.430602	-0.520216	0.993590
O163	O	1.038628	-0.931346	0.474128
O164	O	1.538628	-0.431346	0.974128
C165	C	1.085173	-0.888754	0.522949
C166	C	1.585173	-0.388754	1.022949
H167	H	1.146015	-0.910856	0.528850
H168	H	1.646015	-0.410856	1.028850
H169	H	1.056781	-0.887909	0.583293
H170	H	1.556781	-0.387909	1.083293
H171	H	1.090360	-0.833058	0.496184
H172	H	1.590360	-0.333058	0.996184
H173	H	1.010056	-0.740409	0.502353
H174	H	1.510056	-0.240409	1.002353
H175	H	1.015975	-0.607053	0.496356
H176	H	1.515975	-0.107053	0.996356
O177	O	1.222261	-0.250270	0.682730
O178	O	1.722261	0.249730	1.182730
C179	C	1.268394	-0.210549	0.734732
C180	C	1.768394	0.289451	1.234732
H181	H	1.236361	-0.208095	0.793054
H182	H	1.736361	0.291905	1.293054
H183	H	1.279282	-0.155102	0.708583
H184	H	1.779282	0.344898	1.208583
H185	H	1.326842	-0.236328	0.744609
H186	H	1.826842	0.263672	1.244609
H187	H	1.024464	-0.420658	0.845329
H188	H	1.524464	0.079342	1.345329
H189	H	1.214048	-0.257368	0.838088
H190	H	1.714048	0.242632	1.338088
H191	H	1.214072	-0.257345	0.942215
H192	H	1.714072	0.242655	1.442215
H193	H	1.214093	-0.257304	1.090941
H194	H	1.714093	0.242696	1.590941
H195	H	1.024509	-0.420602	1.098173
H196	H	1.524509	0.079398	1.598173
H197	H	1.024430	-0.420693	0.696599
H198	H	1.524430	0.079307	1.196599
H199	H	0.415129	-0.420935	0.487988
H200	H	0.915129	0.079065	0.987988
H201	H	1.024469	-0.420630	0.949447
H202	H	1.524469	0.079370	1.449447
H203	H	0.667978	-0.420899	0.487959
H204	H	1.167978	0.079101	0.987959
H205	H	0.563848	-0.420920	0.487961
H206	H	1.063848	0.079080	0.987961
H207	H	0.675269	-0.257360	0.298804
H208	H	1.175269	0.242640	0.798804
O209	O	0.830639	-0.250248	0.290514
O210	O	1.330639	0.249752	0.790514
C211	C	0.778658	-0.210472	0.244511
C212	C	1.278658	0.289528	0.744511
H213	H	0.718916	-0.239300	0.243043
H214	H	1.218916	0.260700	0.743043
H215	H	0.802658	-0.202911	0.182335
H216	H	1.302658	0.297089	0.682335
H217	H	0.772369	-0.157043	0.270955
H218	H	1.272369	0.342957	0.770955
