data_functionalizedCrystal
_audit_creation_method	'MofGen! by Chris Wilmer'
_symmetry_space_group_name_H-M	'P1'
_symmetry_Int_Tables_number	1
_symmetry_cell_setting	triclinic
loop_
_symmetry_equiv_pos_as_xyz
  x,y,z
_cell_length_a	19.851628
_cell_length_b	14.628931
_cell_length_c	14.628931
_cell_angle_alpha	60.000000
_cell_angle_beta	90.003599
_cell_angle_gamma	59.998289
loop_
_atom_site_label
_atom_site_type_symbol
_atom_site_fract_x
_atom_site_fract_y
_atom_site_fract_z
Zr1	Zr	0.648978	1.000475	-0.119855
O2	O	0.541412	1.191197	-0.265834
O3	O	0.681953	0.809764	-0.075105
O4	O	0.681953	1.000469	-0.265810
O5	O	0.541411	1.000492	0.075304
O6	O	0.792815	1.000451	-0.265792
O7	O	0.541411	1.000492	-0.075128
O8	O	0.792815	0.659315	0.075346
O9	O	0.541412	1.341629	-0.265834
O10	O	0.778751	0.888189	-0.056006
O11	O	0.696016	0.888202	0.056246
O12	O	0.696017	1.112733	-0.168285
O13	O	0.613282	1.112746	-0.056033
Zr14	Zr	0.825790	1.000447	0.120095
Zr15	Zr	0.825790	1.000447	-0.119826
Zr16	Zr	0.648978	1.000475	0.120066
Zr17	Zr	0.648979	1.240396	-0.119855
Zr18	Zr	0.825790	0.760526	0.120096
O19	O	0.792815	1.191158	0.075345
O20	O	0.792815	1.191157	-0.265792
O21	O	0.541412	1.191198	0.075303
O22	O	0.933356	0.809725	0.266074
O23	O	0.933357	0.809724	-0.075063
O24	O	0.681953	0.809765	0.266032
O25	O	0.933357	1.000429	-0.075063
O26	O	0.792815	1.000453	0.266050
O27	O	0.681953	1.000471	0.266032
O28	O	0.933357	1.000430	0.075368
O29	O	0.681954	1.341607	-0.265811
O30	O	0.792814	0.659315	0.266051
O31	O	0.933356	0.659293	0.266074
O32	O	0.933356	0.659292	0.075369
O33	O	0.541412	1.341629	-0.075128
O34	O	0.681954	1.341607	-0.075105
O35	O	0.778751	0.888189	0.168525
O36	O	0.861486	0.888176	0.056274
O37	O	0.778752	1.112720	-0.056006
O38	O	0.696017	1.112733	0.056246
C39	C	0.737384	0.700356	0.000121
C40	C	0.737384	0.598503	0.000121
C41	C	0.778426	0.553087	-0.055564
C42	C	0.778427	0.447816	-0.055565
C43	C	0.516220	1.000496	0.000084
C44	C	0.441158	1.000508	0.000071
C45	C	0.214703	1.122910	-0.061111
C46	C	0.192342	1.061711	-0.105469
C47	C	0.303752	1.000475	0.000103
C48	C	0.192372	1.061682	0.044441
C49	C	0.171020	1.000451	0.000134
C50	C	0.282379	0.939274	-0.044317
C51	C	0.282407	0.939264	0.105652
C52	C	0.260099	0.877974	0.061320
C53	C	0.380214	1.000492	0.000083
C54	C	0.094562	1.000425	0.000152
C55	C	0.958549	1.000426	0.000157
C56	C	1.033610	1.000414	0.000169
C57	C	0.737384	1.000460	-0.299985
C58	C	0.737384	1.000460	-0.401837
C59	C	0.737384	1.300566	0.000120
C60	C	0.737384	1.402419	0.000120
C61	C	0.696343	1.111849	-0.502945
C62	C	0.696342	1.111851	-0.608216
C63	C	0.737384	1.000462	0.300225
C64	C	0.737384	1.000462	0.402078
C65	C	0.958548	0.700320	0.000157
C66	C	1.033609	0.598456	0.000170
C67	C	0.737383	0.700357	0.300225
C68	C	0.737383	0.598504	0.402078
C69	C	0.958548	0.700321	0.300262
C70	C	1.033609	0.598457	0.402127
C71	C	0.516220	1.300601	-0.300022
C72	C	0.441159	1.402465	-0.401887
C73	C	0.516220	1.300601	0.000083
C74	C	0.441159	1.402466	0.000071
C75	C	0.737385	1.300565	-0.299985
C76	C	0.737385	1.402418	-0.401838
C77	C	1.025672	0.550625	-0.058443
C78	C	1.096193	0.454926	-0.058454
C79	C	1.174651	0.407051	0.000156
C80	C	1.182586	0.454891	0.058770
C81	C	1.112066	0.550595	0.058773
C82	C	1.112053	0.550613	0.391370
C83	C	1.182587	0.454914	0.487074
C84	C	1.174676	0.407053	0.593534
C85	C	1.096224	0.454906	0.604290
C86	C	1.025692	0.550611	0.508586
C87	C	0.362715	1.450321	-0.391130
C88	C	0.292181	1.546050	-0.486834
C89	C	0.300092	1.593915	-0.593294
C90	C	0.378544	1.546056	-0.604049
C91	C	0.449077	1.450335	-0.508346
C92	C	0.449096	1.450307	0.058673
C93	C	0.378575	1.546033	0.058658
C94	C	0.300117	1.593910	0.000045
C95	C	0.292182	1.546066	-0.058565
C96	C	0.362702	1.450348	-0.058555
C97	C	0.778425	0.553088	0.503186
C98	C	0.778426	0.447818	0.608457
H99	H	0.813561	0.408766	-0.103244
O100	O	0.695582	0.448979	0.494636
C101	C	0.751067	0.425559	0.435838
H102	H	0.807920	0.413543	0.472496
H103	H	0.719783	0.510613	0.343749
H104	H	0.770363	0.333588	0.443720
H105	H	0.813567	0.592132	-0.103232
O106	O	0.525289	1.403989	-0.518759
C107	C	0.568685	1.427337	-0.466889
H108	H	0.522929	1.511192	-0.462444
H109	H	0.607657	1.452717	-0.517659
H110	H	0.610558	1.336984	-0.378624
H111	H	0.702243	0.559456	0.393452
H112	H	1.089716	0.415986	-0.106184
O113	O	0.949526	0.597019	-0.115480
C114	C	0.957660	0.534246	-0.167188
H115	H	1.020595	0.494806	-0.178779
H116	H	0.907078	0.606047	-0.252325
H117	H	0.951882	0.451126	-0.112275
H118	H	0.153532	1.113457	-0.194718
O119	O	0.695401	0.449223	0.056835
C120	C	0.634809	0.583330	-0.018464
H121	H	0.652970	0.623824	-0.095607
H122	H	0.629625	0.632965	0.023985
H123	H	0.572839	0.601644	-0.044658
O124	O	0.695594	0.551677	0.057081
C125	C	0.751096	0.417570	0.139295
H126	H	0.807948	0.377096	0.114649
H127	H	0.719829	0.367920	0.146321
H128	H	0.770391	0.399251	0.223393
H129	H	0.512974	1.411332	0.106410
O130	O	0.231598	1.687050	-0.686290
C131	C	0.231721	1.797766	-0.750435
H132	H	0.271607	1.797653	-0.694259
H133	H	0.165927	1.888220	-0.789203
H134	H	0.257726	1.796953	-0.819712
O135	O	0.820478	0.401113	0.711904
C136	C	0.904792	0.345711	0.724261
H137	H	0.920101	0.317041	0.663629
H138	H	0.943819	0.256292	0.813778
H139	H	0.918637	0.418997	0.705369
H140	H	0.385052	1.584971	0.106389
H141	H	0.772524	0.905097	-0.393211
O142	O	1.258850	0.408350	0.476811
C143	C	1.319417	0.313607	0.584101
H144	H	1.291941	0.329307	0.647544
H145	H	1.373787	0.321407	0.583027
H146	H	1.341499	0.213496	0.608491
H147	H	0.813559	0.592146	0.511812
H148	H	0.356228	1.411400	-0.106273
H149	H	0.384975	1.585040	-0.690741
O150	O	0.216027	1.592468	-0.115584
C151	C	0.224130	1.529697	-0.167285
H152	H	0.287055	1.490256	-0.178907
H153	H	0.173532	1.601501	-0.252407
H154	H	0.218356	1.446579	-0.112351
H155	H	0.196252	1.226435	-0.112951
H156	H	0.242702	1.671850	0.000046
H157	H	0.321074	0.887565	-0.081905
H158	H	0.278705	0.774365	0.113088
H159	H	1.232115	0.329125	0.671453
H160	H	0.661199	1.207215	-0.694952
H161	H	0.153571	1.113453	0.081926
O162	O	0.328611	0.877768	0.212102
C163	C	0.281851	0.942647	0.258544
H164	H	0.230733	1.047122	0.188345
H165	H	0.323613	0.940886	0.313822
H166	H	0.253398	0.892398	0.311020
H167	H	0.356258	1.411354	-0.304453
H168	H	1.118510	0.589567	0.304693
H169	H	0.661210	1.207211	-0.511571
O170	O	0.779183	0.886762	-0.494397
C171	C	0.723695	0.879844	-0.435603
H172	H	0.666845	0.981643	-0.472259
H173	H	0.754978	0.830347	-0.343511
H174	H	0.704395	0.821949	-0.443493
O175	O	1.243125	0.313914	0.000282
C176	C	1.242968	0.203230	0.046844
H177	H	1.203093	0.203356	0.102914
H178	H	1.308755	0.112751	0.098525
H179	H	1.216930	0.204078	-0.023254
H180	H	1.246476	0.415898	0.106487
H181	H	1.118540	0.589526	0.106509
O182	O	1.088655	0.408421	0.707770
C183	C	1.126855	0.431826	0.766624
H184	H	1.174899	0.443769	0.730058
H185	H	1.158195	0.346797	0.858722
H186	H	1.078363	0.523832	0.758684
H187	H	0.961822	0.589553	0.517361
O188	O	0.216041	1.592338	-0.476172
C189	C	0.224193	1.529567	-0.361683
H190	H	0.287132	1.432560	-0.310660
H191	H	0.173616	1.513072	-0.348345
H192	H	0.218422	1.592310	-0.333466
