data_functionalizedCrystal
_audit_creation_method	'MofGen! by Chris Wilmer'
_symmetry_space_group_name_H-M	'P1'
_symmetry_Int_Tables_number	1
_symmetry_cell_setting	triclinic
loop_
_symmetry_equiv_pos_as_xyz
  x,y,z
_cell_length_a	17.019284
_cell_length_b	17.038272
_cell_length_c	13.448316
_cell_angle_alpha	89.999047
_cell_angle_beta	86.124009
_cell_angle_gamma	92.758308
loop_
_atom_site_label
_atom_site_type_symbol
_atom_site_fract_x
_atom_site_fract_y
_atom_site_fract_z
O1	O	-0.171288	1.037215	-0.067890
O2	O	-0.168568	0.809587	-0.068152
O3	O	-0.055522	0.929756	-0.077817
O4	O	-0.284334	0.917045	-0.058225
O5	O	-0.055513	0.929741	0.087566
O6	O	-0.168559	0.809572	0.097231
O7	O	-0.171279	1.037200	0.097493
Cu8	Cu	-0.169918	0.923384	0.112463
Cu9	Cu	-0.169928	0.923402	-0.083122
O10	O	-0.284325	0.917030	0.107158
C11	C	-0.166090	0.780453	0.014324
C12	C	-0.158710	0.693667	0.013680
C13	C	-0.226469	0.643492	0.019483
C14	C	-0.219530	0.561947	0.018903
C15	C	-0.144830	0.530580	0.012512
C16	C	-0.077065	0.580761	0.006712
C17	C	-0.084005	0.662304	0.007300
C18	C	-0.120312	0.284844	0.010439
C19	C	-0.113378	0.203295	0.009849
C20	C	-0.255843	0.184486	0.022042
C21	C	-0.262777	0.266031	0.022623
C22	C	-0.195012	0.316206	0.016828
C23	C	-0.137735	0.447229	0.011916
C24	C	-0.202107	0.399555	0.017432
C25	C	-0.313751	0.917518	0.026986
C26	C	-0.401418	0.918959	0.034494
C27	C	-0.442605	0.919645	-0.052130
C28	C	-0.524977	0.921008	-0.045076
C29	C	-0.566160	0.921681	0.048603
C30	C	-0.524966	0.920997	0.135233
C31	C	-0.442596	0.919639	0.128178
C32	C	-0.814865	0.925786	0.074414
C33	C	-0.897242	0.927142	0.081463
C34	C	-0.897247	0.927154	-0.098848
C35	C	-0.814875	0.925791	-0.105894
C36	C	-0.773688	0.925112	-0.019264
C37	C	-0.650357	0.923072	0.055815
C38	C	-0.689492	0.923726	-0.026477
C39	C	-0.026096	0.929268	0.002353
C40	C	0.061571	0.927827	-0.005161
C41	C	-0.173757	1.066333	0.015015
C42	C	-0.181137	1.153120	0.015652
N43	N	-0.169911	0.923377	0.250027
N44	N	-0.169930	0.923415	-0.220686
C45	C	-0.119878	0.976605	0.297789
C46	C	-0.119877	0.976610	0.401892
C47	C	-0.169915	0.923390	0.458232
C48	C	-0.219951	0.870157	0.410462
C49	C	-0.219947	0.870149	0.306360
C50	C	-0.219958	0.870179	0.627442
C51	C	-0.219963	0.870188	0.731551
C52	C	-0.119888	0.976640	0.722975
C53	C	-0.119884	0.976632	0.618873
C54	C	-0.169921	0.923399	0.571111
H55	H	-0.076914	0.421680	0.006740
O56	O	-0.047225	0.338953	0.004191
H57	H	-0.011740	0.327816	-0.066256
O58	O	-0.328925	0.130365	0.028308
H59	H	-0.364417	0.141494	-0.036064
H60	H	-0.409081	0.919090	-0.128414
H61	H	-0.287298	0.669024	0.024686
O62	O	-0.292615	0.507829	0.025166
H63	H	-0.328101	0.518959	-0.039211
O64	O	-0.569405	0.921733	-0.138505
H65	H	-0.526931	0.921022	-0.204831
H66	H	-0.079135	1.019946	0.251925
O67	O	-0.273898	0.812732	0.254831
H68	H	-0.314457	0.845580	0.210847
O69	O	0.003504	0.546930	-0.000179
H70	H	0.036326	0.567087	0.064424
O71	O	-0.273932	0.812784	0.792316
H72	H	-0.265534	0.821743	0.872728
O73	O	-0.343345	0.299864	0.029541
H74	H	-0.389299	0.251274	0.033494
H75	H	-0.409062	0.919080	0.198717
O76	O	-0.032805	0.169458	0.002966
H77	H	0.013151	0.218046	-0.000955
H78	H	-0.028828	0.703157	0.002574
O79	O	-0.282677	0.433379	0.024329
H80	H	-0.289246	0.470074	-0.042523
O81	O	-0.065910	1.034029	0.558107
H82	H	-0.101684	1.071983	0.513734
H83	H	-0.079147	1.019983	0.761869
O84	O	-0.941667	0.927890	-0.192283
H85	H	-0.975731	0.981771	-0.193679
H86	H	-0.781349	0.925250	-0.182178
O87	O	-0.941665	0.927874	0.182506
H88	H	-0.899187	0.927182	0.241562
H89	H	-0.781341	0.925234	0.144955
O90	O	-0.273924	0.812759	0.471228
H91	H	-0.336085	0.822644	0.456549
O92	O	-0.569378	0.921724	0.236277
H93	H	-0.633577	0.922776	0.226632
O94	O	-0.273929	0.812769	0.575921
H95	H	-0.308732	0.775770	0.632585
O96	O	-0.645082	0.922990	-0.127518
H97	H	-0.604088	0.975626	-0.135342
O98	O	-0.694776	0.923796	0.156855
H99	H	-0.735761	0.871154	0.164669
O100	O	-0.065928	1.034033	0.453413
H101	H	-0.031146	1.071049	0.396749
