data_functionalizedCrystal
_audit_creation_method	'MofGen! by Chris Wilmer'
_symmetry_space_group_name_H-M	'P1'
_symmetry_Int_Tables_number	1
_symmetry_cell_setting	triclinic
loop_
_symmetry_equiv_pos_as_xyz
  x,y,z
_cell_length_a	17.077404
_cell_length_b	12.594516
_cell_length_c	17.077396
_cell_angle_alpha	90.024014
_cell_angle_beta	90.019501
_cell_angle_gamma	90.018398
loop_
_atom_site_label
_atom_site_type_symbol
_atom_site_fract_x
_atom_site_fract_y
_atom_site_fract_z
Zn1	Zn	1.200080	-0.423736	0.443867
Zn2	Zn	1.199998	-0.601736	0.312611
Zn3	Zn	1.068812	-0.423773	0.312615
Zn4	Zn	1.068791	-0.601673	0.443835
O5	O	1.134420	-0.512730	0.378232
O6	O	1.309916	-0.447359	0.426468
O7	O	1.182571	-0.578171	0.202765
O8	O	1.086268	-0.274822	0.330041
O9	O	1.309856	-0.578135	0.330035
O10	O	1.182711	-0.274795	0.426471
O11	O	1.086189	-0.447422	0.202768
O12	O	0.958962	-0.447361	0.330010
O13	O	1.086232	-0.578027	0.553686
O14	O	0.958947	-0.578064	0.426416
O15	O	1.182690	-0.447297	0.553710
O16	O	1.182550	-0.750674	0.330003
O17	O	1.086153	-0.750627	0.426413
C18	C	0.930473	-0.512710	0.378210
C19	C	0.843223	-0.512728	0.378220
C20	C	1.134361	-0.789271	0.378221
C21	C	1.134408	-0.907576	0.378243
C22	C	0.802245	-0.580887	0.428338
C23	C	0.720265	-0.580890	0.428351
C24	C	0.679263	-0.512737	0.378240
C25	C	0.720247	-0.444570	0.328120
C26	C	0.802226	-0.444563	0.328112
C27	C	0.549377	-0.444591	0.328139
C28	C	0.467392	-0.444599	0.328145
C29	C	0.467416	-0.580917	0.428378
C30	C	0.549395	-0.580911	0.428370
C31	C	0.590372	-0.512745	0.378248
C32	C	1.082020	-1.047606	0.430653
C33	C	1.153582	-0.976696	0.449912
C34	C	1.062853	-0.976915	0.359019
C35	C	1.206136	-1.047451	0.397568
C36	C	1.115358	-1.047676	0.306642
C37	C	1.186970	-0.976798	0.325873
C38	C	1.339165	-0.512750	0.378254
C39	C	1.426414	-0.512758	0.378264
C40	C	1.134468	-0.512651	0.582976
C41	C	1.134488	-0.512618	0.670226
C42	C	1.134501	-0.235109	0.378260
C43	C	1.134535	-0.116803	0.378272
C44	C	1.134418	-0.512731	0.174284
C45	C	1.134550	-0.512465	0.087035
C46	C	1.184716	-0.444541	0.711230
C47	C	1.184725	-0.444506	0.793211
C48	C	1.134510	-0.512553	0.834186
C49	C	1.084277	-0.580633	0.793176
C50	C	1.084265	-0.580662	0.711197
C51	C	1.084309	-0.580569	0.964046
C52	C	1.084323	-0.580541	1.046031
C53	C	1.184769	-0.444412	1.046060
C54	C	1.184757	-0.444442	0.964081
C55	C	1.134524	-0.512523	0.923077
H56	H	0.835622	-0.636389	0.469141
H57	H	1.169753	-0.945521	0.510476
H58	H	0.434048	-0.636417	0.469191
H59	H	1.002285	-0.945924	0.342748
H60	H	0.582776	-0.636412	0.469170
C61	C	1.239953	-0.369686	0.666161
C62	C	1.233581	-0.248682	0.677444
C63	C	1.288818	-0.173822	0.632377
C64	C	1.350427	-0.219967	0.576026
C65	C	1.356802	-0.340977	0.564740
C66	C	1.301564	-0.415837	0.609807
H67	H	1.187973	-0.214518	0.719161
H68	H	1.284099	-0.084242	0.640732
H69	H	1.391317	-0.164551	0.542665
H70	H	1.402410	-0.375142	0.523024
H71	H	1.306283	-0.505417	0.601452
C72	C	0.594458	-0.369606	0.273009
C73	C	0.583213	-0.248619	0.279568
C74	C	0.628295	-0.173639	0.224439
C75	C	0.684623	-0.219648	0.162752
C76	C	0.695871	-0.340641	0.156191
C77	C	0.650788	-0.415621	0.211319
H78	H	0.541513	-0.214555	0.325235
H79	H	0.619969	-0.084072	0.229297
H80	H	0.717996	-0.164143	0.121943
H81	H	0.737570	-0.374705	0.110524
H82	H	0.659115	-0.505189	0.206462
H83	H	1.225627	-0.389073	0.826592
C84	C	1.240020	-0.369515	1.091162
C85	C	1.233652	-0.248519	1.079899
C86	C	1.288901	-0.173629	1.125006
C87	C	1.350520	-0.219734	1.181377
C88	C	1.356890	-0.340736	1.192644
C89	C	1.301641	-0.415627	1.147536
H90	H	1.188036	-0.214384	1.038167
H91	H	1.284185	-0.084055	1.116666
H92	H	1.391419	-0.164296	1.214769
H93	H	1.402506	-0.374872	1.234376
H94	H	1.306357	-0.505201	1.155877
H95	H	0.835589	-0.389055	0.287304
C96	C	1.029046	-0.655488	0.838253
C97	C	1.063055	-0.739031	0.894604
C98	C	1.007827	-0.813891	0.939682
C99	C	0.918589	-0.805207	0.928408
C100	C	0.884575	-0.721660	0.872054
C101	C	0.939803	-0.646800	0.826977
H102	H	1.129119	-0.745463	0.902952
H103	H	1.033007	-0.875738	0.981399
H104	H	0.877705	-0.860623	0.961777
H105	H	0.818511	-0.715228	0.863706
H106	H	0.914623	-0.584953	0.785259
H107	H	1.225650	-0.389037	0.930721
C108	C	1.022174	-1.089619	0.490553
C109	C	1.030983	-1.061565	0.577891
C110	C	0.971142	-1.103579	0.637791
C111	C	0.902491	-1.173647	0.610355
C112	C	0.893678	-1.201704	0.523013
C113	C	0.953520	-1.159690	0.463113
H114	H	1.081806	-1.009693	0.598204
H115	H	0.977666	-1.082809	0.702447
H116	H	0.858192	-1.204749	0.654697
H117	H	0.842856	-1.253576	0.502700
H118	H	0.946995	-1.180460	0.398457
H119	H	0.686904	-0.636393	0.469162
H120	H	1.043392	-0.635991	0.930664
H121	H	1.043356	-0.636087	0.677813
H122	H	0.434011	-0.389090	0.287350
H123	H	1.266722	-1.078309	0.413910
C124	C	1.246956	-0.935051	0.266014
C125	C	1.334262	-0.963116	0.274943
C126	C	1.394250	-0.921366	0.215088
C127	C	1.366931	-0.851550	0.146303
C128	C	1.279621	-0.823481	0.137371
C129	C	1.219633	-0.865231	0.197226
H130	H	1.354489	-1.014801	0.325864
H131	H	1.458883	-0.942145	0.221701
H132	H	1.411338	-0.820644	0.101995
H133	H	1.259394	-0.771796	0.086450
H134	H	1.155000	-0.844452	0.190614
C135	C	1.093486	-1.089837	0.224849
C136	C	1.074829	-1.011531	0.158178
C137	C	1.052945	-1.053695	0.076386
C138	C	1.049718	-1.174164	0.061265
C139	C	1.068375	-1.252478	0.127938
C140	C	1.090259	-1.210314	0.209730
H141	H	1.077218	-0.922346	0.169370
H142	H	1.039134	-0.995721	0.027030
H143	H	1.033518	-1.205376	0.000717
H144	H	1.065986	-1.341663	0.116746
H145	H	1.104070	-1.268287	0.259086
C146	C	1.029113	-0.655409	1.091124
C147	C	1.035506	-0.776411	1.079842
C148	C	0.980311	-0.851290	1.124943
C149	C	0.918723	-0.805166	1.181326
C150	C	0.912328	-0.684158	1.192610
C151	C	0.967523	-0.609279	1.147509
H152	H	1.081100	-0.810561	1.038102
H153	H	0.985046	-0.940869	1.116590
H154	H	0.877864	-0.860596	1.214713
H155	H	0.866734	-0.650008	1.234350
H156	H	0.962788	-0.519700	1.155863
H157	H	0.686857	-0.389074	0.287322
