data_functionalizedCrystal
_audit_creation_method	'MofGen! by Chris Wilmer'
_symmetry_space_group_name_H-M	'P1'
_symmetry_Int_Tables_number	1
_symmetry_cell_setting	triclinic
loop_
_symmetry_equiv_pos_as_xyz
  x,y,z
_cell_length_a	16.974897
_cell_length_b	12.811415
_cell_length_c	16.053802
_cell_angle_alpha	87.154093
_cell_angle_beta	83.774775
_cell_angle_gamma	83.375521
loop_
_atom_site_label
_atom_site_type_symbol
_atom_site_fract_x
_atom_site_fract_y
_atom_site_fract_z
O1	O	1.056758	0.124283	-0.150165
O2	O	1.556758	0.624283	0.349835
O3	O	0.825930	0.142212	-0.135944
O4	O	1.325930	0.642212	0.364056
O5	O	0.946599	-0.018841	-0.131890
O6	O	1.446599	0.481159	0.368110
O7	O	0.936088	0.285337	-0.154219
O8	O	1.436088	0.785337	0.345781
O9	O	0.939957	-0.010013	0.006748
O10	O	1.439957	0.489987	0.506748
O11	O	0.819288	0.151041	0.002695
O12	O	1.319288	0.651041	0.502695
O13	O	1.050115	0.133112	-0.011527
O14	O	1.550115	0.633112	0.488473
Zn15	Zn	0.933647	0.143478	0.017596
Zn16	Zn	1.433647	0.643478	0.517596
Zn17	Zn	0.942398	0.131846	-0.165066
Zn18	Zn	1.442398	0.631846	0.334934
O19	O	0.929446	0.294166	-0.015580
O20	O	1.429446	0.794166	0.484420
C21	C	0.793051	0.146106	-0.064590
C22	C	1.293051	0.646106	0.435410
C23	C	0.704979	0.144542	-0.058528
C24	C	1.204979	0.644542	0.441472
C25	C	0.667216	0.138998	-0.131246
C26	C	1.167216	0.638998	0.368754
C27	C	0.584461	0.137546	-0.125538
C28	C	1.084461	0.637546	0.374462
C29	C	0.539471	0.141631	-0.047112
C30	C	1.039471	0.641631	0.452888
C31	C	0.577240	0.147178	0.025611
C32	C	1.077240	0.647178	0.525611
C33	C	0.659993	0.148638	0.019902
C34	C	1.159993	0.648638	0.519902
C35	C	0.291588	0.137789	-0.021936
C36	C	0.791588	0.637789	0.478064
C37	C	0.208830	0.136326	-0.016232
C38	C	0.708830	0.636326	0.483768
C39	C	0.216056	0.126695	-0.167382
C40	C	0.716056	0.626695	0.332618
C41	C	0.298811	0.128149	-0.173084
C42	C	0.798811	0.628149	0.326916
C43	C	0.336572	0.133702	-0.100361
C44	C	0.836572	0.633702	0.399639
N45	N	0.454882	0.140143	-0.041276
N46	N	0.954882	0.640143	0.458724
N47	N	0.421159	0.135197	-0.106198
N48	N	0.921159	0.635197	0.393802
C49	C	0.942486	-0.053340	-0.059572
C50	C	1.442486	0.446660	0.440428
C51	C	0.940115	-0.169286	-0.050636
C52	C	1.440115	0.330714	0.449364
C53	C	0.942888	-0.396775	-0.185004
C54	C	1.442888	0.103225	0.314996
C55	C	0.940660	-0.505717	-0.176612
C56	C	1.440660	-0.005717	0.323388
C57	C	0.933427	-0.496113	-0.025459
C58	C	1.433427	0.003887	0.474541
C59	C	0.935654	-0.387171	-0.033852
C60	C	1.435654	0.112829	0.466148
C61	C	0.940386	-0.337506	-0.113627
C62	C	1.440386	0.162494	0.386373
C63	C	0.942619	-0.228563	-0.122019
C64	C	1.442619	0.271437	0.377981
C65	C	0.935380	-0.218960	0.029133
C66	C	1.435380	0.281040	0.529133
C67	C	0.933152	-0.327902	0.037526
C68	C	1.433152	0.172098	0.537526
C69	C	1.082994	0.129218	-0.082882
C70	C	1.582994	0.629218	0.417118
C71	C	1.171066	0.130782	-0.088950
C72	C	1.671066	0.630782	0.411050
C73	C	0.933560	0.328664	-0.087900
C74	C	1.433560	0.828664	0.412100
C75	C	0.935931	0.444609	-0.096842
C76	C	1.435931	0.944609	0.403158
N77	N	0.927680	0.151416	0.142258
N78	N	1.427680	0.651416	0.642258
N79	N	0.948371	0.123900	-0.289728
N80	N	1.448371	0.623900	0.210272
C81	C	0.979044	0.082911	0.187673
C82	C	1.479044	0.582911	0.687673
C83	C	0.974878	0.088474	0.274940
C84	C	1.474878	0.588474	0.774940
C85	C	0.919351	0.162546	0.316789
C86	C	1.419351	0.662546	0.816789
C87	C	0.867981	0.231054	0.271367
C88	C	1.367981	0.731054	0.771367
C89	C	0.872144	0.225486	0.184103
C90	C	1.372144	0.725486	0.684103
C91	C	0.901165	0.186839	0.577586
C92	C	1.401165	0.686839	1.077586
C93	C	0.897007	0.192404	0.664856
C94	C	1.397007	0.692404	1.164856
C95	C	1.003904	0.049822	0.668423
C96	C	1.503904	0.549822	1.168423
C97	C	1.008065	0.044265	0.581156
C98	C	1.508065	0.544265	1.081156
C99	C	0.956693	0.112769	0.535743
C100	C	1.456693	0.612769	1.035743
N101	N	0.915092	0.168236	0.405989
N102	N	1.415092	0.668236	0.905989
N103	N	0.960948	0.107073	0.446545
N104	N	1.460948	0.607073	0.946545
H105	H	0.335437	0.124815	-0.236946
H106	H	0.835437	0.624815	0.263054
O107	O	0.159986	0.141430	0.068168
O108	O	0.659986	0.641430	0.568168
H109	H	0.128400	0.070070	0.079568
H110	H	0.628400	0.570070	0.579568
O111	O	0.947719	-0.174997	-0.208060
O112	O	1.447719	0.325003	0.291940
H113	H	0.948855	-0.089286	-0.201908
H114	H	1.448855	0.410714	0.298092
H115	H	0.322323	0.142304	0.037281
H116	H	0.822323	0.642304	0.537281
O117	O	0.928323	-0.549707	0.060572
O118	O	1.428323	-0.049707	0.560572
H119	H	0.873048	-0.516894	0.098120
H120	H	1.373048	-0.016894	0.598120
O121	O	0.700726	0.154629	0.098333
O122	O	1.200726	0.654629	0.598333
H123	H	0.689691	0.085470	0.140621
H124	H	1.189691	0.585470	0.640621
O125	O	0.528663	0.152229	0.110156
O126	O	1.028663	0.652229	0.610156
H127	H	0.464754	0.150507	0.101895
H128	H	0.964754	0.650507	0.601895
O129	O	0.928067	-0.381472	0.123565
O130	O	1.428067	0.118528	0.623565
H131	H	0.926948	-0.467186	0.117411
H132	H	1.426948	0.032814	0.617411
O133	O	0.175333	0.120699	-0.245818
O134	O	0.675333	0.620699	0.254182
H135	H	0.186384	0.189851	-0.288107
H136	H	0.686384	0.689851	0.211893
O137	O	0.947994	-0.343206	-0.271044
O138	O	1.447994	0.156794	0.228956
H139	H	0.949127	-0.257495	-0.264888
H140	H	1.449127	0.242505	0.235112
H141	H	0.942694	-0.553970	-0.234734
H142	H	1.442694	-0.053970	0.265266
H143	H	0.933346	-0.170692	0.087254
H144	H	1.433346	0.329308	0.587254
H145	H	0.859337	0.242620	0.540617
H146	H	1.359337	0.742620	1.040617
H147	H	1.024264	0.022598	0.153605
H148	H	1.524264	0.522598	0.653605
O149	O	1.030291	0.014607	0.323925
O150	O	1.530291	0.514607	0.823925
H151	H	1.069614	-0.037820	0.280162
H152	H	1.569614	0.462180	0.780162
H153	H	1.053280	-0.016051	0.547085
H154	H	1.553280	0.483949	1.047085
H155	H	1.045728	-0.005951	0.705407
H156	H	1.545728	0.494049	1.205407
O157	O	0.837105	0.272288	0.710000
O158	O	1.337105	0.772288	1.210000
H159	H	0.802074	0.318979	0.663763
H160	H	1.302074	0.818979	1.163763
H161	H	0.822765	0.291362	0.305446
H162	H	1.322765	0.791362	0.805446
O163	O	0.816746	0.299363	0.135105
O164	O	1.316746	0.799363	0.635105
H165	H	0.826616	0.381815	0.144944
H166	H	1.326616	0.881815	0.644944
O167	O	0.715744	0.134586	-0.215832
O168	O	1.215744	0.634586	0.284168
H169	H	0.695030	0.203191	-0.255923
H170	H	1.195030	0.703191	0.244077
O171	O	0.543732	0.131509	-0.203965
O172	O	1.043732	0.631509	0.296035
H173	H	0.588922	0.128880	-0.259456
H174	H	1.088922	0.628880	0.240544
