data_functionalizedCrystal
_audit_creation_method	'MofGen! by Chris Wilmer'
_symmetry_space_group_name_H-M	'P1'
_symmetry_Int_Tables_number	1
_symmetry_cell_setting	triclinic
loop_
_symmetry_equiv_pos_as_xyz
  x,y,z
_cell_length_a	12.759395
_cell_length_b	16.625545
_cell_length_c	12.759387
_cell_angle_alpha	89.965573
_cell_angle_beta	89.982262
_cell_angle_gamma	90.025403
loop_
_atom_site_label
_atom_site_type_symbol
_atom_site_fract_x
_atom_site_fract_y
_atom_site_fract_z
Zn1	Zn	1.606172	-0.320953	-0.593957
Zn2	Zn	2.106172	0.179047	-0.093957
Zn3	Zn	1.606034	-0.455811	-0.418270
Zn4	Zn	2.106034	0.044189	0.081730
Zn5	Zn	1.430475	-0.320996	-0.418297
Zn6	Zn	1.930475	0.179004	0.081703
Zn7	Zn	1.430429	-0.455747	-0.593912
Zn8	Zn	1.930429	0.044253	-0.093912
O9	O	1.518278	-0.388377	-0.506109
O10	O	2.018278	0.111623	-0.006109
O11	O	1.753175	-0.338851	-0.570659
O12	O	2.253175	0.161149	-0.070659
O13	O	1.582708	-0.437972	-0.271252
O14	O	2.082708	0.062028	0.228748
O15	O	1.453859	-0.208158	-0.441629
O16	O	1.953859	0.291842	0.058371
O17	O	1.753074	-0.437931	-0.441582
O18	O	2.253074	0.062069	0.058418
O19	O	1.582942	-0.208127	-0.570685
O20	O	2.082942	0.291873	-0.070685
O21	O	1.453725	-0.338924	-0.271272
O22	O	1.953725	0.161076	0.228728
O23	O	1.283448	-0.338862	-0.441585
O24	O	1.783448	0.161138	0.058415
O25	O	1.453780	-0.437822	-0.740939
O26	O	1.953780	0.062178	-0.240939
O27	O	1.283414	-0.437863	-0.570609
O28	O	1.783414	0.062137	-0.070609
O29	O	1.582897	-0.338789	-0.740972
O30	O	2.082897	0.161211	-0.240972
O31	O	1.582663	-0.568635	-0.441539
O32	O	2.082663	-0.068635	0.058461
O33	O	1.453647	-0.568588	-0.570583
O34	O	1.953647	-0.068588	-0.070583
C35	C	1.245310	-0.388361	-0.506096
C36	C	1.745310	0.111639	-0.006096
C37	C	1.128533	-0.388374	-0.506115
C38	C	1.628533	0.111626	-0.006115
C39	C	1.128619	-0.285369	-0.640740
C40	C	1.628619	0.214631	-0.140740
C41	C	1.073801	-0.233876	-0.708061
C42	C	1.573801	0.266124	-0.208061
C43	C	0.964080	-0.233890	-0.708074
C44	C	1.464080	0.266110	-0.208074
C45	C	0.909174	-0.285401	-0.640757
C46	C	1.409174	0.214599	-0.140757
C47	C	0.963991	-0.336894	-0.573436
C48	C	1.463991	0.163106	-0.073436
C49	C	1.073716	-0.336876	-0.573432
C50	C	1.573716	0.163124	-0.073432
C51	C	0.963906	-0.439893	-0.438808
C52	C	1.463906	0.060107	0.061192
C53	C	1.073627	-0.439884	-0.438798
C54	C	1.573627	0.060116	0.061202
C55	C	0.908999	-0.491404	-0.371490
C56	C	1.408999	0.008596	0.128510
C57	C	0.963817	-0.542902	-0.304173
C58	C	1.463817	-0.042902	0.195827
C59	C	1.073545	-0.542886	-0.304164
C60	C	1.573545	-0.042886	0.195836
C61	C	1.128445	-0.491377	-0.371477
C62	C	1.628445	0.008623	0.128523
C63	C	1.518163	-0.597868	-0.506076
C64	C	2.018163	-0.097868	-0.006076
C65	C	1.518211	-0.687489	-0.506097
C66	C	2.018211	-0.187489	-0.006097
C67	C	1.518252	-0.760271	-0.506118
C68	C	2.018252	-0.260271	-0.006118
C69	C	1.518313	-0.851580	-0.506141
C70	C	2.018313	-0.351580	-0.006141
C71	C	1.518367	-0.924356	-0.506154
C72	C	2.018367	-0.424356	-0.006154
C73	C	1.518427	-1.015670	-0.506176
C74	C	2.018427	-0.515670	-0.006176
C75	C	1.792311	-0.388394	-0.506122
C76	C	2.292311	0.111606	-0.006122
C77	C	1.909088	-0.388401	-0.506128
C78	C	2.409088	0.111599	-0.006128
C79	C	1.518349	-0.388294	-0.780142
C80	C	2.018349	0.111706	-0.280142
C81	C	1.518379	-0.388258	-0.896919
C82	C	2.018379	0.111742	-0.396919
C83	C	1.518421	-0.178068	-0.506165
C84	C	2.018421	0.321932	-0.006165
C85	C	1.518482	-0.088447	-0.506189
C86	C	2.018482	0.411553	-0.006189
C87	C	1.384079	-0.285112	-0.896959
C88	C	1.884079	0.214888	-0.396959
C89	C	1.316947	-0.233523	-0.951840
C90	C	1.816947	0.266477	-0.451840
C91	C	1.316979	-0.233494	-1.061561
C92	C	1.816979	0.266506	-0.561561
C93	C	1.384147	-0.285061	-1.116405
C94	C	1.884147	0.214939	-0.616405
C95	C	1.451278	-0.336650	-1.061524
C96	C	1.951278	0.163350	-0.561524
C97	C	1.451241	-0.336672	-0.951800
C98	C	1.951241	0.163328	-0.451800
C99	C	1.585571	-0.439799	-1.061484
C100	C	2.085571	0.060201	-0.561484
C101	C	1.585547	-0.439825	-0.951763
C102	C	2.085547	0.060175	-0.451763
C103	C	1.652739	-0.491366	-1.116328
C104	C	2.152739	0.008634	-0.616328
C105	C	1.719877	-0.542952	-1.061447
C106	C	2.219877	-0.042952	-0.561447
C107	C	1.719844	-0.542979	-0.951719
C108	C	2.219844	-0.042979	-0.451719
C109	C	1.652678	-0.491414	-0.896882
C110	C	2.152678	0.008586	-0.396882
C111	C	1.518267	-0.388402	-0.233141
C112	C	2.018267	0.111598	0.266859
C113	C	1.518440	-0.388210	-0.116365
C114	C	2.018440	0.111790	0.383635
H115	H	0.919104	-0.584835	-0.249365
H116	H	1.419104	-0.084835	0.250635
C117	C	1.243132	-0.176744	-1.121932
C118	C	1.743132	0.323256	-0.621932
N119	N	1.187512	-0.133998	-1.167403
N120	N	1.687512	0.366002	-0.667403
C121	C	1.652766	-0.491337	-1.237025
C122	C	2.152766	0.008663	-0.737025
N123	N	1.652789	-0.491315	-1.327935
N124	N	2.152789	0.008685	-0.827935
C125	C	1.133836	-0.599533	-0.230104
C126	C	1.633836	-0.099533	0.269896
N127	N	1.179244	-0.642202	-0.174321
N128	N	1.679244	-0.142202	0.325679
C129	C	1.249142	-0.491353	-0.371471
C130	C	1.749142	0.008647	0.128529
N131	N	1.340052	-0.491330	-0.371466
N132	N	1.840052	0.008670	0.128534
C133	C	1.793702	-0.599727	-0.891359
C134	C	2.293702	-0.099727	-0.391359
N135	N	1.849337	-0.642468	-0.845899
N136	N	2.349337	-0.142468	-0.345899
H137	H	1.118518	-0.191936	-0.762867
H138	H	1.618518	0.308064	-0.262867
C139	C	0.788477	-0.285407	-0.640767
C140	C	1.288477	0.214593	-0.140767
N141	N	0.697566	-0.285413	-0.640774
N142	N	1.197566	0.214587	-0.140774
C143	C	1.384045	-0.285134	-0.776262
C144	C	1.884045	0.214866	-0.276262
N145	N	1.384016	-0.285150	-0.685352
N146	N	1.884016	0.214850	-0.185352
C147	C	1.243077	-0.176794	-0.891504
C148	C	1.743077	0.323206	-0.391504
N149	N	1.187442	-0.134062	-0.846062
N150	N	1.687442	0.365938	-0.346062
C151	C	1.384165	-0.285036	-1.237102
C152	C	1.884165	0.214964	-0.737102
N153	N	1.384178	-0.285018	-1.328012
N154	N	1.884178	0.214982	-0.828012
C155	C	1.793575	-0.599806	-1.121781
C156	C	2.293575	-0.099806	-0.621781
N157	N	1.849023	-0.642677	-1.167229
N158	N	2.349023	-0.142677	-0.667229
H159	H	1.652648	-0.491428	-0.807541
H160	H	2.152648	0.008572	-0.307541
C161	C	0.903779	-0.177247	-0.782130
C162	C	1.403779	0.322753	-0.282130
N163	N	0.858360	-0.134583	-0.837910
N164	N	1.358360	0.365417	-0.337910
H165	H	0.819658	-0.491410	-0.371503
H166	H	1.319658	0.008590	0.128497
H167	H	1.217960	-0.285348	-0.640731
H168	H	1.717960	0.214652	-0.140731
