data_functionalizedCrystal
_audit_creation_method	'MofGen! by Chris Wilmer'
_symmetry_space_group_name_H-M	'P1'
_symmetry_Int_Tables_number	1
_symmetry_cell_setting	triclinic
loop_
_symmetry_equiv_pos_as_xyz
  x,y,z
_cell_length_a	14.044220
_cell_length_b	8.965430
_cell_length_c	14.044220
_cell_angle_alpha	89.997796
_cell_angle_beta	86.811122
_cell_angle_gamma	89.992417
loop_
_atom_site_label
_atom_site_type_symbol
_atom_site_fract_x
_atom_site_fract_y
_atom_site_fract_z
O1	O	1.277158	0.123887	-0.230162
O2	O	1.000486	0.123924	-0.221856
O3	O	1.134669	0.123891	-0.087674
O4	O	1.142975	0.123920	-0.364345
O5	O	1.134676	-0.124188	-0.087679
O6	O	1.000494	-0.124155	-0.221862
O7	O	1.277165	-0.124192	-0.230167
Cu8	Cu	1.138830	-0.146825	-0.226015
Cu9	Cu	1.138821	0.146557	-0.226009
O10	O	1.142982	-0.124159	-0.364350
C11	C	0.964868	-0.000111	-0.218223
C12	C	0.858725	-0.000097	-0.207379
N13	N	1.138843	-0.353174	-0.226019
C14	C	0.664388	-0.000128	-0.187553
C15	C	0.613258	-0.000127	-0.264467
C16	C	0.505122	-0.000144	-0.253435
C17	C	0.772534	-0.000111	-0.198583
C18	C	1.200920	-0.450455	-0.163970
C19	C	1.113081	-0.549850	-0.138133
C20	C	1.226643	-0.549907	-0.251792
C21	C	1.050957	-0.450380	-0.200135
C22	C	1.164579	-0.450428	-0.313837
C23	C	1.076681	-0.549778	-0.288031
C24	C	1.312783	-0.000154	-0.233800
C25	C	1.418926	-0.000158	-0.244645
C26	C	1.131037	-0.000148	-0.052054
C27	C	1.120193	-0.000149	0.054088
N28	N	1.138815	0.352906	-0.225998
C29	C	1.146614	-0.000116	-0.399969
C30	C	1.157459	-0.000106	-0.506112
C31	C	1.100366	-0.000125	0.248426
C32	C	1.177281	-0.000130	0.299556
C33	C	1.166249	-0.000117	0.407692
C34	C	1.111397	-0.000138	0.140280
H35	H	0.650697	-0.000112	-0.338600
H36	H	0.626951	-0.000144	-0.113425
C37	C	1.083846	-0.608176	-0.039163
C38	C	1.000893	-0.693952	-0.043463
C39	C	0.973932	-0.747681	0.047692
H40	H	1.133605	-0.668081	-0.016546
H41	H	1.072051	-0.526520	0.002970
H42	H	1.012693	-0.775596	-0.085581
H43	H	0.951115	-0.634079	-0.066063
H44	H	0.962137	-0.666025	0.089825
H45	H	1.023697	-0.807579	0.070302
H46	H	0.917642	-0.805874	0.044789
C47	C	1.276190	-0.000399	0.249767
C48	C	1.325649	-0.128023	0.276406
C49	C	1.416767	-0.128318	0.230564
H50	H	1.270700	-0.000486	0.182659
H51	H	1.309947	0.086059	0.267725
H52	H	1.291901	-0.214458	0.258441
H53	H	1.331166	-0.127963	0.343506
H54	H	1.450524	-0.041861	0.248523
H55	H	1.411267	-0.128401	0.163459
H56	H	1.450339	-0.214902	0.248639
H57	H	1.186389	-0.406723	-0.388092
C58	C	1.001580	0.000114	0.298466
C59	C	0.990796	0.127728	0.355512
C60	C	0.899814	0.127982	0.401645
H61	H	0.954676	0.000187	0.252275
H62	H	0.994089	-0.086351	0.337271
H63	H	0.998277	0.214170	0.316710
H64	H	1.037678	0.127682	0.401719
H65	H	0.892323	0.041517	0.440450
H66	H	0.852917	0.128051	0.355448
H67	H	0.892488	0.214559	0.440363
C68	C	1.270712	-0.392368	-0.093809
C69	C	1.243304	-0.442716	-0.001968
C70	C	1.307560	-0.389217	0.062691
H71	H	1.332954	-0.427871	-0.111385
H72	H	1.270636	-0.286407	-0.094659
H73	H	1.243390	-0.548655	-0.001121
H74	H	1.181072	-0.407217	0.015637
H75	H	1.307484	-0.283257	0.061841
H76	H	1.369798	-0.424724	0.045106
H77	H	1.288967	-0.423359	0.125013
H78	H	0.976670	-0.406847	-0.178243
C79	C	1.006433	-0.607500	-0.357851
C80	C	0.914669	-0.556827	-0.330418
C81	C	0.849929	-0.609992	-0.394701
H82	H	1.024063	-0.571987	-0.420075
H83	H	1.007124	-0.713464	-0.357827
H84	H	0.913981	-0.450886	-0.330452
H85	H	0.897009	-0.592336	-0.268204
H86	H	0.850619	-0.715956	-0.394677
H87	H	0.867568	-0.574476	-0.456921
H88	H	0.787659	-0.575630	-0.376092
C89	C	1.325753	-0.607923	-0.280780
C90	C	1.390459	-0.557533	-0.215609
C91	C	1.481775	-0.610894	-0.242293
H92	H	1.325075	-0.713866	-0.281138
H93	H	1.344488	-0.572331	-0.342732
H94	H	1.371729	-0.593132	-0.153673
H95	H	1.391167	-0.451596	-0.215242
H96	H	1.500510	-0.575302	-0.304245
H97	H	1.481087	-0.716836	-0.242651
H98	H	1.525691	-0.576702	-0.198084
