data_functionalizedCrystal
_audit_creation_method	'MofGen! by Chris Wilmer'
_symmetry_space_group_name_H-M	'P1'
_symmetry_Int_Tables_number	1
_symmetry_cell_setting	triclinic
loop_
_symmetry_equiv_pos_as_xyz
  x,y,z
_cell_length_a	14.044220
_cell_length_b	10.654550
_cell_length_c	9.730223
_cell_angle_alpha	90.003749
_cell_angle_beta	89.997406
_cell_angle_gamma	91.163110
loop_
_atom_site_label
_atom_site_type_symbol
_atom_site_fract_x
_atom_site_fract_y
_atom_site_fract_z
O1	O	0.133227	-1.681222	-0.114408
O2	O	0.633227	-1.181222	0.385592
O3	O	0.145921	-1.317019	-0.114387
O4	O	0.645921	-0.817019	0.385613
O5	O	0.001554	-1.493654	-0.114384
O6	O	0.501554	-0.993654	0.385616
O7	O	0.277595	-1.504587	-0.114411
O8	O	0.777595	-1.004587	0.385589
O9	O	0.001557	-1.493652	0.114196
O10	O	0.501557	-0.993652	0.614196
O11	O	0.145925	-1.317017	0.114193
O12	O	0.645925	-0.817017	0.614193
O13	O	0.133231	-1.681220	0.114172
O14	O	0.633231	-1.181220	0.614172
Zn15	Zn	0.139578	-1.499118	0.150474
Zn16	Zn	0.639578	-0.999118	0.650474
Zn17	Zn	0.139574	-1.499121	-0.150689
Zn18	Zn	0.639574	-0.999121	0.349311
O19	O	0.277598	-1.504585	0.114169
O20	O	0.777598	-1.004585	0.614169
C21	C	0.144991	-1.270127	-0.000094
C22	C	0.644991	-0.770127	0.499906
C23	C	0.142202	-1.130403	-0.000085
C24	C	0.642202	-0.630403	0.499915
C25	C	-0.033790	-1.488867	-0.000093
C26	C	0.466210	-0.988867	0.499907
C27	C	-0.139110	-1.474592	-0.000090
C28	C	0.360890	-0.974592	0.499910
C29	C	0.134161	-1.728113	-0.000124
C30	C	0.634161	-1.228113	0.499876
C31	C	0.136950	-1.867836	-0.000142
C32	C	0.636950	-1.367836	0.499858
C33	C	-0.331943	-1.448493	-0.000108
C34	C	0.168057	-0.948493	0.499892
C35	C	-0.388911	-1.549741	-0.000119
C36	C	0.111089	-1.049741	0.499881
C37	C	-0.496210	-1.535219	-0.000129
C38	C	0.003790	-1.035219	0.499871
C39	C	-0.224634	-1.463013	-0.000098
C40	C	0.275366	-0.963013	0.499902
C41	C	0.312942	-1.509372	-0.000125
C42	C	0.812942	-1.009372	0.499875
C43	C	0.418262	-1.523648	-0.000137
C44	C	0.918262	-1.023648	0.499863
N45	N	0.139581	-1.499126	0.356011
N46	N	0.639581	-0.999126	0.856011
C47	C	0.227203	-1.059459	-0.000114
C48	C	0.727203	-0.559459	0.499886
C49	C	0.224578	-0.928175	-0.000137
C50	C	0.724578	-0.428175	0.499863
C51	C	0.051942	-0.938790	-0.000109
C52	C	0.551942	-0.438790	0.499891
C53	C	0.054569	-1.070072	-0.000076
C54	C	0.554569	-0.570072	0.499924
C55	C	0.314837	-1.119790	-0.000123
C56	C	0.814837	-0.619790	0.499877
C57	C	0.399845	-1.048846	-0.000153
C58	C	0.899845	-0.548846	0.499847
C59	C	0.397219	-0.917561	-0.000177
C60	C	0.897219	-0.417561	0.499823
C61	C	0.309585	-0.857221	-0.000170
C62	C	0.809585	-0.357221	0.499830
N63	N	0.139563	-1.499123	-0.356226
N64	N	0.639563	-0.999123	0.143774
C65	C	0.075677	-1.577364	0.427938
C66	C	0.575677	-1.077364	0.927938
C67	C	0.075666	-1.577359	0.571821
C68	C	0.575666	-1.077359	1.071821
C69	C	0.203470	-1.420876	0.571837
C70	C	0.703470	-0.920876	1.071837
C71	C	0.203477	-1.420875	0.427956
C72	C	0.703477	-0.920875	0.927956
C73	C	0.011782	-1.655615	0.355993
C74	C	0.511782	-1.155615	0.855993
C75	C	-0.052127	-1.733861	0.427920
C76	C	0.447873	-1.233861	0.927920
C77	C	-0.052138	-1.733856	0.571803
C78	C	0.447862	-1.233856	1.071803
C79	C	0.011759	-1.655606	0.643759
C80	C	0.511759	-1.155606	1.143759
H81	H	-0.357098	-1.647328	-0.000217
H82	H	0.142902	-1.147328	0.499783
Br83	Br	0.011801	-1.655633	0.160724
Br84	Br	0.511801	-1.155633	0.660724
H85	H	0.316985	-1.226688	-0.000110
H86	H	0.816985	-0.726688	0.499890
H87	H	-0.363754	-1.350913	-0.000106
H88	H	0.136246	-0.850913	0.499894
H89	H	0.255494	-1.357169	0.630432
H90	H	0.755494	-0.857169	1.130432
H91	H	0.471193	-1.097984	-0.000147
H92	H	0.971193	-0.597984	0.499853
Br93	Br	-0.138851	-1.840036	0.330273
Br94	Br	0.361149	-1.340036	0.830273
Br95	Br	0.512584	-0.821282	-0.000199
Br96	Br	1.012584	-0.321282	0.499801
H97	H	-0.104181	-1.797557	0.630365
H98	H	0.395819	-1.297557	1.130365
H99	H	0.011737	-1.655600	0.760918
H100	H	0.511737	-1.155600	1.260918
H101	H	0.255512	-1.357165	0.369392
H102	H	0.755512	-0.857165	0.869392
H103	H	0.307454	-0.750320	-0.000168
H104	H	0.807454	-0.250320	0.499832
H105	H	-0.019405	-0.889650	-0.000126
H106	H	0.480595	-0.389650	0.499874
Br107	Br	-0.060791	-1.166362	-0.000029
Br108	Br	0.439209	-0.666362	0.499971
