data_functionalizedCrystal
_audit_creation_method	'MofGen! by Chris Wilmer'
_symmetry_space_group_name_H-M	'P1'
_symmetry_Int_Tables_number	1
_symmetry_cell_setting	triclinic
loop_
_symmetry_equiv_pos_as_xyz
  x,y,z
_cell_length_a	21.395362
_cell_length_b	12.594516
_cell_length_c	21.395355
_cell_angle_alpha	90.013083
_cell_angle_beta	90.043940
_cell_angle_gamma	90.027695
loop_
_atom_site_label
_atom_site_type_symbol
_atom_site_fract_x
_atom_site_fract_y
_atom_site_fract_z
Zn1	Zn	0.957942	-0.423414	0.354609
Zn2	Zn	0.957879	-0.601379	0.249842
Zn3	Zn	0.853157	-0.423464	0.249811
Zn4	Zn	0.853160	-0.601400	0.354546
O5	O	0.905534	-0.512414	0.302202
O6	O	1.045611	-0.446992	0.340751
O7	O	0.943959	-0.577789	0.162160
O8	O	0.867081	-0.274511	0.263726
O9	O	1.045565	-0.577741	0.263779
O10	O	0.944067	-0.274475	0.340721
O11	O	0.867020	-0.447076	0.162137
O12	O	0.765479	-0.447097	0.263665
O13	O	0.867088	-0.577779	0.442233
O14	O	0.765482	-0.577827	0.340614
O15	O	0.944070	-0.447013	0.442279
O16	O	0.943963	-0.750327	0.263718
O17	O	0.867027	-0.750343	0.340644
C18	C	0.742747	-0.512471	0.302129
C19	C	0.673105	-0.512520	0.302113
C20	C	0.905505	-0.788955	0.302191
C21	C	0.905550	-0.907261	0.302207
C22	C	0.640410	-0.580681	0.342120
C23	C	0.574975	-0.580655	0.342148
C24	C	0.542237	-0.512479	0.302158
C25	C	0.574940	-0.444305	0.262148
C26	C	0.640374	-0.444326	0.262125
C27	C	0.438511	-0.503905	0.245752
C28	C	0.373078	-0.503892	0.245773
C29	C	0.340416	-0.512410	0.302227
C30	C	0.373196	-0.520963	0.358661
C31	C	0.438630	-0.520984	0.358639
C32	C	0.471285	-0.512449	0.302178
C33	C	0.236769	-0.580546	0.342268
C34	C	0.171332	-0.580513	0.342297
C35	C	0.171299	-0.444168	0.262291
C36	C	0.236734	-0.444196	0.262267
C37	C	0.269465	-0.512391	0.302255
C38	C	0.947444	-0.976466	0.260412
C39	C	0.962759	-1.047181	0.317605
C40	C	0.890314	-1.047345	0.245051
C41	C	0.920894	-0.976417	0.359430
C42	C	0.848422	-0.976575	0.286838
C43	C	0.863715	-1.047257	0.344070
C44	C	1.068958	-0.512359	0.302275
C45	C	1.138599	-0.512335	0.302307
C46	C	0.905586	-0.512393	0.465625
C47	C	0.905609	-0.512383	0.535267
C48	C	0.905581	-0.234793	0.302227
C49	C	0.905600	-0.116488	0.302237
C50	C	0.905519	-0.512359	0.139414
C51	C	0.905618	-0.512068	0.069774
C52	C	0.945692	-0.444291	0.568005
C53	C	0.945691	-0.444245	0.633440
C54	C	0.905613	-0.512311	0.666135
C55	C	0.865523	-0.580408	0.633389
C56	C	0.865520	-0.580445	0.567955
C57	C	0.900656	-0.608151	0.769804
C58	C	0.900663	-0.608116	0.835237
C59	C	0.905617	-0.512198	0.867956
C60	C	0.910578	-0.416312	0.835234
C61	C	0.910576	-0.416349	0.769799
C62	C	0.905611	-0.512279	0.737087
C63	C	0.945701	-0.444051	0.971647
C64	C	0.945696	-0.444003	1.037083
C65	C	0.865531	-0.580176	1.037031
C66	C	0.865533	-0.580214	0.971595
C67	C	0.905622	-0.512153	0.938907
H68	H	0.667056	-0.636209	0.374683
Cl69	Cl	0.479564	-0.493200	0.174774
H70	H	0.800103	-0.945534	0.273805
H71	H	1.011093	-1.078198	0.330621
Cl72	Cl	0.996094	-0.358484	0.930550
Cl73	Cl	0.130149	-0.358454	0.212020
Cl74	Cl	0.809050	-1.094951	0.398720
Cl75	Cl	0.533785	-0.358593	0.211877
Cl76	Cl	0.681479	-0.358631	0.211826
H77	H	0.465317	-0.527945	0.404589
H78	H	0.263420	-0.636069	0.374832
H79	H	0.914613	-0.338207	0.861872
Cl80	Cl	1.002149	-0.928472	0.205890
H81	H	0.263355	-0.388697	0.229686
H82	H	0.933754	-0.945394	0.407820
H83	H	0.346605	-0.527898	0.404631
Cl84	Cl	0.870384	-1.095448	0.170406
H85	H	0.978334	-0.388869	0.541394
Cl86	Cl	0.996072	-0.358615	0.674606
Cl87	Cl	0.130229	-0.666203	0.392600
H88	H	0.914613	-0.338275	0.743159
Cl89	Cl	0.996101	-0.358409	1.078241
Cl90	Cl	0.331876	-0.493138	0.174829
Cl91	Cl	0.815142	-0.665736	1.078127
H92	H	0.832897	-0.635669	0.944940
Cl93	Cl	0.894433	-0.728658	0.876367
H94	H	0.896454	-0.686239	0.743170
Cl95	Cl	0.815137	-0.665973	0.674490
H96	H	0.832877	-0.635892	0.541300
H97	H	0.548349	-0.636159	0.374730
