data_functionalizedCrystal
_audit_creation_method	'MofGen! by Chris Wilmer'
_symmetry_space_group_name_H-M	'P1'
_symmetry_Int_Tables_number	1
_symmetry_cell_setting	triclinic
loop_
_symmetry_equiv_pos_as_xyz
  x,y,z
_cell_length_a	6.817900
_cell_length_b	11.102244
_cell_length_c	9.582880
_cell_angle_alpha	90.972146
_cell_angle_beta	111.207034
_cell_angle_gamma	108.604870
loop_
_atom_site_label
_atom_site_type_symbol
_atom_site_fract_x
_atom_site_fract_y
_atom_site_fract_z
V1	V	-4.142609	-0.175302	-0.466597
O2	O	-4.101056	0.008976	-0.457719
O3	O	-4.119167	-0.348125	-0.463402
O4	O	-4.132947	-0.172364	-0.670098
O5	O	-4.087181	-0.168003	-0.249592
V6	V	-4.617983	-0.153289	-0.440642
O7	O	-4.421742	-0.223590	-0.523532
O8	O	-4.789047	-0.105001	-0.383708
O9	O	-4.418218	0.019534	-0.443837
O10	O	-4.776932	-0.337567	-0.449520
O11	O	-4.790808	-0.160588	-0.657647
O12	O	-4.404438	-0.156228	-0.237141
C13	C	-3.968986	-0.390264	-0.456041
C14	C	-4.031364	-0.531547	-0.454785
C15	C	-3.991368	-0.579940	-0.317155
C16	C	-4.049996	-0.712694	-0.315993
C17	C	-4.188606	-0.748651	-0.590101
C18	C	-4.129994	-0.615900	-0.591263
C19	C	-3.911334	-0.559181	-0.158901
C20	C	-3.969961	-0.691935	-0.157738
C21	C	-3.986562	-0.166060	-0.719700
C22	C	-4.060111	-0.164801	-0.886063
C23	C	-4.231742	0.061666	-0.451195
C24	C	-4.148604	0.202948	-0.452461
C25	C	-4.214164	-0.162535	-0.187532
C26	C	-4.119852	-0.163788	-0.021167
H27	H	-3.722175	-0.506443	-0.104245
H28	H	-4.268915	-0.817347	-0.701216
O29	O	-4.173185	-0.563695	-0.739702
H30	H	-4.011857	-0.499223	-0.741224
O31	O	-4.036749	-0.507407	-0.086080
H32	H	-4.144709	-0.587349	-0.049566
O33	O	-4.154720	-0.744729	-0.100020
H34	H	-4.306653	-0.725730	-0.173794
O35	O	-3.762719	-0.722549	-0.069269
H36	H	-3.614761	-0.632258	-0.026892
