data_functionalizedCrystal
_audit_creation_method	'MofGen! by Chris Wilmer'
_symmetry_space_group_name_H-M	'P1'
_symmetry_Int_Tables_number	1
_symmetry_cell_setting	triclinic
loop_
_symmetry_equiv_pos_as_xyz
  x,y,z
_cell_length_a	19.377625
_cell_length_b	21.606444
_cell_length_c	21.606444
_cell_angle_alpha	59.998659
_cell_angle_beta	75.511454
_cell_angle_gamma	52.468060
loop_
_atom_site_label
_atom_site_type_symbol
_atom_site_fract_x
_atom_site_fract_y
_atom_site_fract_z
Zr1	Zr	0.686689	0.677422	-0.235309
O2	O	0.572876	0.806548	-0.308599
O3	O	0.721576	0.548301	-0.212841
O4	O	0.721574	0.677425	-0.341964
O5	O	0.572884	0.677420	-0.077623
O6	O	0.838873	0.677420	-0.368284
O7	O	0.572878	0.677425	-0.179476
O8	O	0.838877	0.446442	-0.137307
O9	O	0.572880	0.908398	-0.308600
O10	O	0.823998	0.601405	-0.222902
O11	O	0.736463	0.601405	-0.127248
O12	O	0.736461	0.753431	-0.279274
O13	O	0.648926	0.753431	-0.183620
Zr14	Zr	0.873779	0.677408	-0.114844
Zr15	Zr	0.873769	0.677415	-0.277287
Zr16	Zr	0.686699	0.677415	-0.072866
Zr17	Zr	0.686697	0.839861	-0.235312
Zr18	Zr	0.873772	0.514968	-0.114841
O19	O	0.838893	0.806528	-0.137312
O20	O	0.838879	0.806538	-0.368286
O21	O	0.572889	0.806538	-0.077625
O22	O	0.987592	0.548282	-0.041554
O23	O	0.987579	0.548291	-0.272528
O24	O	0.721589	0.548292	0.018133
O25	O	0.987584	0.677409	-0.272530
O26	O	0.838894	0.677405	-0.008189
O27	O	0.721595	0.677409	0.018131
O28	O	0.987590	0.677405	-0.170677
O29	O	0.721584	0.908393	-0.341967
O30	O	0.838884	0.446437	-0.008186
O31	O	0.987588	0.446431	-0.041553
O32	O	0.987580	0.446437	-0.170674
O33	O	0.572888	0.908393	-0.179479
O34	O	0.721591	0.908387	-0.212846
O35	O	0.824007	0.601398	-0.070879
O36	O	0.911542	0.601398	-0.166533
O37	O	0.824005	0.753424	-0.222905
O38	O	0.736470	0.753424	-0.127251
C39	C	0.780225	0.474228	-0.175073
C40	C	0.780222	0.405268	-0.175072
C41	C	0.825939	-0.018041	-0.225010
C42	C	0.825933	0.046760	-0.225011
C43	C	0.780238	0.079157	-0.175080
C44	C	0.734539	0.046756	-0.125148
C45	C	0.734540	-0.018039	-0.125151
C46	C	0.734529	0.308067	-0.125139
C47	C	0.734533	0.372865	-0.125139
C48	C	0.825922	0.372865	-0.225000
C49	C	0.825924	0.308071	-0.225002
C50	C	0.780221	0.275679	-0.175073
C51	C	0.780227	0.205416	-0.175073
C52	C	0.780236	0.149414	-0.175076
C53	C	0.546226	0.677424	-0.122569
C54	C	0.466806	0.677427	-0.104748
C55	C	0.205578	0.677414	-0.326653
C56	C	0.130955	0.677410	-0.309885
C57	C	0.130982	0.677405	-0.197669
C58	C	0.205605	0.677413	-0.214430
C59	C	0.242897	0.677417	-0.278922
C60	C	0.242924	0.677416	-0.166699
C61	C	0.317542	0.677420	-0.183456
C62	C	0.354842	0.677420	-0.247945
C63	C	0.317516	0.677420	-0.295680
C64	C	0.205633	0.677406	-0.102204
C65	C	0.242952	0.677409	-0.054473
C66	C	0.317568	0.677419	-0.071233
C67	C	0.354868	0.677420	-0.135721
C68	C	0.354894	0.677419	-0.023498
C69	C	0.429513	0.677423	-0.040255
C70	C	0.429487	0.677424	-0.152479
C71	C	1.014242	0.677406	-0.227584
C72	C	1.093662	0.677403	-0.245405
C73	C	0.780222	0.677423	-0.378268
C74	C	0.780218	0.677426	-0.447230
C75	C	0.780243	0.880602	-0.175080
C76	C	0.780246	0.949561	-0.175081
C77	C	0.734524	0.756782	-0.509054
C78	C	0.734532	0.756779	-0.573850
C79	C	0.780229	0.677421	-0.576820
C80	C	0.825928	0.598059	-0.514990
C81	C	0.825925	0.598062	-0.450196
C82	C	0.825942	0.598044	-0.776296
C83	C	0.825939	0.598047	-0.841097
C84	C	0.734548	0.756761	-0.899950
C85	C	0.734545	0.756764	-0.835156
C86	C	0.780249	0.677403	-0.773333
C87	C	0.780241	0.677407	-0.703074
C88	C	0.780231	0.677416	-0.647077
C89	C	0.780246	0.677406	0.028115
C90	C	0.780250	0.677403	0.097077
C91	C	1.014233	0.474219	-0.227581
C92	C	1.093651	0.405256	-0.245401
C93	C	0.780237	0.474219	0.028119
C94	C	0.780238	0.405256	0.097081
C95	C	1.014245	0.474210	-0.024389
C96	C	1.093666	0.405245	0.026752
C97	C	0.546223	0.880619	-0.325764
C98	C	0.466802	0.949585	-0.376905
C99	C	0.546235	0.880610	-0.122572
C100	C	0.466817	0.949573	-0.104752
C101	C	0.780231	0.880610	-0.378271
C102	C	0.780230	0.949573	-0.447234
C103	C	1.085249	0.372874	-0.283200
C104	C	1.159862	0.308085	-0.299957
C105	C	1.242877	0.275675	-0.278910
C106	C	1.251277	0.308064	-0.241109
C107	C	1.176665	0.372856	-0.224357
C108	C	0.825936	0.372867	0.158897
C109	C	0.825933	0.308079	0.223702
C110	C	0.780238	0.275676	0.226688
C111	C	0.734535	0.308071	0.164865
C112	C	0.734533	0.372863	0.100063
C113	C	1.176664	0.372857	0.000837
C114	C	1.251296	0.308066	0.048882
C115	C	1.242928	0.275658	0.122843
C116	C	1.159922	0.308051	0.148759
C117	C	1.085292	0.372846	0.100714
C118	C	0.383804	0.981980	-0.350990
C119	C	0.309172	1.046792	-0.399035
C120	C	0.317540	1.079203	-0.472996
C121	C	0.400546	1.046805	-0.498912
C122	C	0.475176	0.981999	-0.450867
C123	C	0.475219	0.981962	-0.066960
C124	C	0.400606	1.046769	-0.050220
C125	C	0.317591	1.079181	-0.071270
C126	C	0.309191	1.046790	-0.109068
C127	C	0.383804	0.981988	-0.125810
C128	C	0.825934	0.981956	-0.450197
C129	C	0.825950	1.046745	-0.514992
C130	C	0.780256	1.079155	-0.576822
C131	C	0.734551	1.046766	-0.573857
C132	C	0.734540	0.981974	-0.509064
H133	H	0.863137	0.281692	-0.265659
Br134	Br	0.672499	0.938041	-0.505053
H135	H	0.256764	1.131972	-0.512109
H136	H	0.863168	1.073109	-0.517392
H137	H	0.241590	1.073189	-0.126203
H138	H	0.697328	0.073143	-0.084496
Br139	Br	1.188044	0.416830	-0.099535
H140	H	0.407462	1.073131	-0.019442
Br141	Br	0.887951	0.490356	-0.519021
Br142	Br	0.372385	0.938036	-0.177098
Br143	Br	0.216338	1.167127	-0.048541
Br144	Br	1.344222	0.187721	0.188038
Br145	Br	0.372424	0.938005	-0.250617
H146	H	0.697331	0.821386	-0.832744
Br147	Br	0.480092	0.677446	-0.240013
H148	H	0.780247	0.222918	0.279458
Br149	Br	0.780278	1.167090	-0.664751
H150	H	1.017661	0.399261	-0.300351
Br151	Br	0.887955	0.490362	-0.366293
Br152	Br	1.148581	0.264060	0.249137
Br153	Br	0.887954	0.937985	-0.366295
Br154	Br	0.411887	1.090799	-0.599290
H155	H	1.153006	0.281722	-0.330735
Br156	Br	0.672518	-0.062002	-0.057391
Br157	Br	0.104369	0.677392	-0.079461
Br158	Br	0.887968	-0.062011	-0.292771
H159	H	1.017715	0.399208	0.121825
H160	H	0.863153	0.281710	0.274033
H161	H	0.697348	1.073164	-0.624208
Br162	Br	1.344130	0.187742	-0.301651
Br163	Br	1.188083	0.416791	-0.173052
Br164	Br	0.196533	1.090744	-0.363848
Br165	Br	0.887946	0.416831	-0.292764
Br166	Br	0.368122	0.677443	-0.383214
H167	H	0.697337	0.821380	-0.950297
H168	H	0.863146	0.399243	0.156480
Br169	Br	0.887940	0.090733	-0.292781
H170	H	0.542754	0.955624	-0.471977
H171	H	0.542807	0.955577	-0.049811
Br172	Br	0.672512	0.416808	0.016172
Br173	Br	0.672516	0.416831	-0.057370
H174	H	0.697331	0.281679	0.167306
H175	H	0.697306	0.821405	-0.506642
Br176	Br	0.672508	0.264112	-0.057376
Br177	Br	0.256184	0.677436	-0.414187
H178	H	0.415604	0.677419	-0.261586
H179	H	1.318876	0.281698	0.027769
H180	H	0.100574	0.677406	-0.348758
H181	H	0.100612	0.677399	-0.145158
Br182	Br	0.304286	0.677397	0.064031
Br183	Br	0.192339	0.677399	0.033052
Br184	Br	0.480167	0.677419	0.024527
H185	H	0.863154	0.533419	-0.843508
Br186	Br	0.887929	0.490340	-0.692392
Br187	Br	0.672516	0.864481	-0.657754
H188	H	1.318878	0.281666	-0.223977
