data_functionalizedCrystal
_audit_creation_method	'MofGen! by Chris Wilmer'
_symmetry_space_group_name_H-M	'P1'
_symmetry_Int_Tables_number	1
_symmetry_cell_setting	triclinic
loop_
_symmetry_equiv_pos_as_xyz
  x,y,z
_cell_length_a	19.805407
_cell_length_b	19.805405
_cell_length_c	19.805399
_cell_angle_alpha	90.030709
_cell_angle_beta	89.989546
_cell_angle_gamma	89.967368
loop_
_atom_site_label
_atom_site_type_symbol
_atom_site_fract_x
_atom_site_fract_y
_atom_site_fract_z
Zn1	Zn	1.034718	0.269357	-0.382595
Zn2	Zn	1.368051	0.602691	-0.049262
Zn3	Zn	1.701384	0.936024	0.284071
Zn4	Zn	1.034638	0.382548	-0.269404
Zn5	Zn	1.367971	0.715882	0.063930
Zn6	Zn	1.701305	1.049215	0.397263
Zn7	Zn	0.921538	0.269391	-0.269433
Zn8	Zn	1.254871	0.602724	0.063901
Zn9	Zn	1.588204	0.936058	0.397234
Zn10	Zn	0.921496	0.382522	-0.382563
Zn11	Zn	1.254829	0.715855	-0.049230
Zn12	Zn	1.588163	1.049189	0.284103
O13	O	0.978097	0.325955	-0.325999
O14	O	1.311431	0.659288	0.007335
O15	O	1.644764	0.992621	0.340668
O16	O	1.129424	0.284369	-0.367582
O17	O	1.462757	0.617703	-0.034248
O18	O	1.796090	0.951036	0.299085
O19	O	1.019619	0.367563	-0.174691
O20	O	1.352952	0.700896	0.158642
O21	O	1.686286	1.034230	0.491976
O22	O	0.936602	0.174670	-0.284470
O23	O	1.269936	0.508003	0.048864
O24	O	1.603269	0.841337	0.382197
O25	O	1.129365	0.367530	-0.284420
O26	O	1.462698	0.700864	0.048913
O27	O	1.796032	1.034197	0.382246
O28	O	1.019755	0.174645	-0.367610
O29	O	1.353088	0.507978	-0.034276
O30	O	1.686422	0.841312	0.299057
O31	O	0.936525	0.284427	-0.174712
O32	O	1.269858	0.617760	0.158621
O33	O	1.603191	0.951093	0.491954
O34	O	0.826816	0.284401	-0.284438
O35	O	1.160149	0.617734	0.048895
O36	O	1.493482	0.951068	0.382228
O37	O	0.936531	0.367485	-0.477284
O38	O	1.269864	0.700818	-0.143951
O39	O	1.603198	1.034152	0.189383
O40	O	0.826785	0.367518	-0.367555
O41	O	1.160118	0.700851	-0.034222
O42	O	1.493452	1.034185	0.299112
O43	O	1.019715	0.284344	-0.477308
O44	O	1.353048	0.617677	-0.143974
O45	O	1.686381	0.951010	0.189359
O46	O	1.019578	0.477261	-0.284389
O47	O	1.352912	0.810595	0.048944
O48	O	1.686245	1.143928	0.382278
O49	O	0.936454	0.477242	-0.367527
O50	O	1.269787	0.810575	-0.034193
O51	O	1.603120	1.143909	0.299140
C52	C	0.802241	0.325961	-0.325997
C53	C	1.135575	0.659294	0.007337
C54	C	1.468908	0.992627	0.340670
C55	C	0.727009	0.325980	-0.326012
C56	C	1.060343	0.659313	0.007322
C57	C	1.393676	0.992646	0.340655
C58	C	0.978021	0.501811	-0.325966
C59	C	1.311354	0.835144	0.007367
C60	C	1.644688	1.168477	0.340701
C61	C	0.978051	0.577043	-0.325975
C62	C	1.311384	0.910376	0.007359
C63	C	1.644717	1.243709	0.340692
C64	C	0.978127	0.325908	-0.502542
C65	C	1.311460	0.659241	-0.169208
C66	C	1.644794	0.992574	0.164125
C67	C	0.978140	0.325888	-0.577774
C68	C	1.311473	0.659221	-0.244440
C69	C	1.644806	0.992554	0.088893
C70	C	1.154640	0.325949	-0.326001
C71	C	1.487973	0.659282	0.007332
C72	C	1.821307	0.992616	0.340665
C73	C	1.229872	0.325946	-0.326002
C74	C	1.563205	0.659280	0.007331
C75	C	1.896539	0.992613	0.340664
C76	C	1.265248	0.282650	-0.369299
C77	C	1.598581	0.615984	-0.035966
C78	C	1.931914	0.949317	0.297368
C79	C	1.335936	0.282657	-0.369303
C80	C	1.669270	0.615990	-0.035970
C81	C	2.002603	0.949324	0.297363
C82	C	1.371248	0.325957	-0.326007
C83	C	1.704581	0.659290	0.007326
C84	C	2.037914	0.992623	0.340660
C85	C	1.335867	0.369258	-0.282708
C86	C	1.669200	0.702591	0.050625
C87	C	2.002534	1.035924	0.383958
C88	C	1.265180	0.369254	-0.282708
C89	C	1.598513	0.702587	0.050625
C90	C	1.931846	1.035921	0.383959
C91	C	1.620940	0.369274	-0.282709
C92	C	1.954273	0.702607	0.050624
C93	C	2.287607	1.035941	0.383958
C94	C	1.691632	0.369273	-0.282711
C95	C	2.024966	0.702606	0.050622
C96	C	2.358299	1.035940	0.383955
C97	C	1.691697	0.282677	-0.369304
C98	C	2.025030	0.616010	-0.035971
C99	C	2.358363	0.949344	0.297362
C100	C	1.621010	0.282673	-0.369304
C101	C	1.954343	0.616007	-0.035971
C102	C	2.287676	0.949340	0.297363
C103	C	1.585635	0.325976	-0.326008
C104	C	1.918968	0.659310	0.007325
C105	C	2.252302	0.992643	0.340658
C106	C	1.508987	0.325970	-0.326005
C107	C	1.842320	0.659303	0.007328
C108	C	2.175653	0.992636	0.340661
C109	C	1.447895	0.325961	-0.326006
C110	C	1.781228	0.659294	0.007327
C111	C	2.114561	0.992627	0.340661
C112	C	0.978192	0.149412	-0.326046
C113	C	1.311526	0.482745	0.007287
C114	C	1.644859	0.816078	0.340620
C115	C	0.978233	0.074180	-0.326067
C116	C	1.311566	0.407513	0.007267
C117	C	1.644899	0.740846	0.340600
C118	C	1.021376	0.612374	-0.282730
C119	C	1.354709	0.945708	0.050603
C120	C	1.688042	1.279041	0.383936
C121	C	1.021404	0.683063	-0.282745
C122	C	1.354738	1.016396	0.050588
C123	C	1.688071	1.349729	0.383922
C124	C	0.978104	0.718418	-0.326002
C125	C	1.311437	1.051751	0.007332
C126	C	1.644771	1.385085	0.340665
C127	C	0.934777	0.683081	-0.369251
C128	C	1.268110	1.016415	-0.035918
C129	C	1.601444	1.349748	0.297416
C130	C	0.934752	0.612394	-0.369239
C131	C	1.268085	0.945728	-0.035906
C132	C	1.601419	1.279061	0.297428
C133	C	0.934877	0.968155	-0.369301
C134	C	1.268210	1.301488	-0.035968
C135	C	1.601543	1.634821	0.297366
C136	C	0.934904	1.038847	-0.369308
C137	C	1.268237	1.372180	-0.035975
C138	C	1.601570	1.705513	0.297358
C139	C	1.021529	1.038823	-0.282807
C140	C	1.354862	1.372157	0.050526
C141	C	1.688196	1.705490	0.383859
C142	C	1.021504	0.968136	-0.282795
C143	C	1.354838	1.301469	0.050538
C144	C	1.688171	1.634803	0.383871
C145	C	0.978180	0.932805	-0.326047
C146	C	1.311513	1.266139	0.007287
C147	C	1.644847	1.599472	0.340620
C148	C	0.978150	0.856157	-0.326031
C149	C	1.311484	1.189490	0.007302
C150	C	1.644817	1.522824	0.340636
C151	C	0.978130	0.795065	-0.326015
C152	C	1.311463	1.128399	0.007319
C153	C	1.644797	1.461732	0.340652
C154	C	0.934885	0.282594	-0.613128
C155	C	1.268218	0.615928	-0.279795
C156	C	1.601551	0.949261	0.053538
C157	C	0.934894	0.282581	-0.683817
C158	C	1.268227	0.615915	-0.350483
C159	C	1.601561	0.949248	-0.017150
C160	C	0.978162	0.325858	-0.719149
C161	C	1.311496	0.659192	-0.385816
C162	C	1.644829	0.992525	-0.052483
C163	C	1.021419	0.369156	-0.683790
C164	C	1.354752	0.702490	-0.350456
C165	C	1.688086	1.035823	-0.017123
C166	C	1.021406	0.369172	-0.613102
C167	C	1.354739	0.702506	-0.279769
C168	C	1.688072	1.035839	0.053564
C169	C	1.021473	0.369093	-0.968863
C170	C	1.354806	0.702426	-0.635530
C171	C	1.688139	1.035760	-0.302196
C172	C	1.021484	0.369072	-1.039555
C173	C	1.354817	0.702405	-0.706222
C174	C	1.688151	1.035739	-0.372889
C175	C	0.934961	0.282502	-1.039577
C176	C	1.268294	0.615835	-0.706244
C177	C	1.601628	0.949169	-0.372911
C178	C	0.934948	0.282518	-0.968890
C179	C	1.268281	0.615851	-0.635557
C180	C	1.601614	0.949185	-0.302224
C181	C	0.978202	0.325818	-0.933537
C182	C	1.311535	0.659151	-0.600203
C183	C	1.644868	0.992485	-0.266870
C184	C	0.978190	0.325833	-0.856888
C185	C	1.311524	0.659166	-0.523555
C186	C	1.644857	0.992499	-0.190222
C187	C	0.978178	0.325841	-0.795796
C188	C	1.311511	0.659174	-0.462463
C189	C	1.644844	0.992507	-0.129130
C190	C	0.978107	0.325953	-0.150143
C191	C	1.311440	0.659286	0.183191
C192	C	1.644773	0.992619	0.516524
C193	C	0.978225	0.325782	-0.074911
C194	C	1.311559	0.659115	0.258422
C195	C	1.644892	0.992448	0.591755
H196	H	1.236502	0.247386	-0.404552
H197	H	1.569836	0.580720	-0.071219
H198	H	1.903169	0.914053	0.262115
H199	H	0.899717	0.247275	-0.940126
H200	H	1.233050	0.580608	-0.606793
H201	H	1.566384	0.913942	-0.273459
O202	O	1.068091	0.574247	-0.236082
O203	O	1.401424	0.907581	0.097251
O204	O	1.734757	1.240914	0.430584
H205	H	1.060796	0.519158	-0.243337
H206	H	1.394129	0.852491	0.089997
H207	H	1.727463	1.185824	0.423330
O208	O	1.068132	0.721172	-0.236101
O209	O	1.401465	1.054506	0.097232
O210	O	1.734799	1.387839	0.430566
H211	H	1.056543	0.707658	-0.182968
H212	H	1.389876	1.040992	0.150365
H213	H	1.723210	1.374325	0.483699
H214	H	0.899669	0.247330	-0.712599
H215	H	1.233002	0.580664	-0.379266
H216	H	1.566336	0.913997	-0.045933
H217	H	1.364736	0.247403	-0.404562
H218	H	1.698069	0.580736	-0.071229
H219	H	2.031403	0.914070	0.262105
H220	H	1.720381	0.404536	-0.247453
H221	H	2.053714	0.737869	0.085880
H222	H	2.387047	1.071203	0.419214
O223	O	1.373954	0.415956	-0.236008
O224	O	1.707288	0.749290	0.097325
O225	O	2.040621	1.082623	0.430659
H226	H	1.360364	0.469076	-0.247605
H227	H	1.693698	0.802409	0.085728
H228	H	2.027031	1.135743	0.419062
H229	H	0.899740	0.247247	-1.068371
H230	H	1.233073	0.580580	-0.735037
H231	H	1.566406	0.913913	-0.401704
O232	O	0.888136	0.930065	-0.415945
O233	O	1.221470	1.263398	-0.082611
O234	O	1.554803	1.596732	0.250722
H235	H	0.918387	0.897813	-0.450414
H236	H	1.251720	1.231146	-0.117081
H237	H	1.585054	1.564479	0.216253
H238	H	1.592147	0.404532	-0.247453
H239	H	1.925480	0.737866	0.085880
H240	H	2.258813	1.071199	0.419213
O241	O	0.888202	1.076987	-0.415966
O242	O	1.221535	1.410320	-0.082633
O243	O	1.554868	1.743653	0.250701
H244	H	0.899779	1.063383	-0.469097
H245	H	1.233112	1.396716	-0.135763
H246	H	1.566445	1.730049	0.197570
O247	O	1.227019	0.415947	-0.236005
O248	O	1.560352	0.749280	0.097328
O249	O	1.893686	1.082613	0.430661
H250	H	1.263447	0.446051	-0.205893
H251	H	1.596781	0.779385	0.127441
H252	H	1.930114	1.112718	0.460774
O253	O	1.582922	0.235972	-0.416001
O254	O	1.916255	0.569305	-0.082668
O255	O	2.249588	0.902639	0.250665
H256	H	1.619397	0.205870	-0.446114
H257	H	1.952730	0.539203	-0.112781
H258	H	2.286064	0.872536	0.220552
O259	O	1.729849	0.235974	-0.416010
O260	O	2.063182	0.569307	-0.082677
O261	O	2.396516	0.902640	0.250656
H262	H	1.784935	0.243253	-0.408745
H263	H	2.118268	0.576587	-0.075412
H264	H	2.451602	0.909920	0.257921
H265	H	0.899524	0.711873	-0.404474
H266	H	1.232857	1.045207	-0.071141
H267	H	1.566191	1.378540	0.262193
O268	O	0.888216	0.235914	-0.575025
O269	O	1.221549	0.569247	-0.241691
O270	O	1.554883	0.902581	0.091642
H271	H	0.918525	0.201480	-0.542836
H272	H	1.251858	0.534813	-0.209503
H273	H	1.585192	0.868147	0.123831
O274	O	0.888016	0.574289	-0.415880
O275	O	1.221349	0.907623	-0.082547
O276	O	1.554683	1.240956	0.250787
H277	H	0.918276	0.542037	-0.450342
H278	H	1.251609	0.875371	-0.117009
H279	H	1.584942	1.208704	0.216325
H280	H	1.056720	0.404316	-1.068321
H281	H	1.390053	0.737649	-0.734988
H282	H	1.723386	1.070983	-0.401654
O283	O	1.068210	0.930001	-0.236145
O284	O	1.401543	1.263334	0.097189
O285	O	1.734877	1.596667	0.430522
H286	H	1.098348	0.966446	-0.206081
H287	H	1.431682	1.299779	0.127252
H288	H	1.765015	1.633112	0.460585
H289	H	1.056808	1.067598	-0.247592
H290	H	1.390142	1.400931	0.085741
H291	H	1.723475	1.734264	0.419074
H292	H	1.056685	0.404358	-0.940087
H293	H	1.390019	0.737691	-0.606753
H294	H	1.723352	1.071025	-0.273420
H295	H	1.056633	0.404421	-0.584318
H296	H	1.389967	0.737754	-0.250984
H297	H	1.723300	1.071088	0.082349
H298	H	1.056645	0.404397	-0.712563
H299	H	1.389978	0.737730	-0.379230
H300	H	1.723312	1.071063	-0.045896
