data_functionalizedCrystal
_audit_creation_method	'MofGen! by Chris Wilmer'
_symmetry_space_group_name_H-M	'P1'
_symmetry_Int_Tables_number	1
_symmetry_cell_setting	triclinic
loop_
_symmetry_equiv_pos_as_xyz
  x,y,z
_cell_length_a	19.851628
_cell_length_b	21.606444
_cell_length_c	19.851628
_cell_angle_alpha	59.995120
_cell_angle_beta	89.998786
_cell_angle_gamma	59.997133
loop_
_atom_site_label
_atom_site_type_symbol
_atom_site_fract_x
_atom_site_fract_y
_atom_site_fract_z
Zr1	Zr	0.648972	0.677387	-0.088303
O2	O	0.541406	0.806529	-0.195878
O3	O	0.681947	0.548262	-0.055329
O4	O	0.681949	0.677395	-0.195866
O5	O	0.541401	0.677383	0.055521
O6	O	0.792811	0.677383	-0.195852
O7	O	0.541404	0.677395	-0.055341
O8	O	0.792807	0.446387	0.055543
O9	O	0.541405	0.908379	-0.195875
O10	O	0.778745	0.601358	-0.041252
O11	O	0.696008	0.601358	0.041473
O12	O	0.696010	0.753396	-0.123991
O13	O	0.613273	0.753396	-0.041266
Zr14	Zr	0.825779	0.677349	0.088530
Zr15	Zr	0.825783	0.677368	-0.088282
Zr16	Zr	0.648967	0.677368	0.088509
Zr17	Zr	0.648970	0.839827	-0.088297
Zr18	Zr	0.825781	0.514909	0.088524
O19	O	0.792803	0.806474	0.055556
O20	O	0.792810	0.806501	-0.195848
O21	O	0.541400	0.806501	0.055525
O22	O	0.933344	0.548207	0.196105
O23	O	0.933351	0.548234	-0.055298
O24	O	0.681941	0.548234	0.196075
O25	O	0.933349	0.677353	-0.055294
O26	O	0.792801	0.677341	0.196093
O27	O	0.681939	0.677353	0.196079
O28	O	0.933346	0.677341	0.055568
O29	O	0.681947	0.908364	-0.195858
O30	O	0.792804	0.446372	0.196085
O31	O	0.933346	0.446357	0.196102
O32	O	0.933349	0.446372	0.055560
O33	O	0.541401	0.908364	-0.055333
O34	O	0.681943	0.908349	-0.055316
O35	O	0.778740	0.601340	0.124218
O36	O	0.861477	0.601340	0.041493
O37	O	0.778743	0.753378	-0.041246
O38	O	0.696006	0.753378	0.041479
C39	C	0.737378	0.474180	0.000106
C40	C	0.737378	0.405220	0.000104
C41	C	0.780564	0.372822	-0.043079
C42	C	0.780567	0.308022	-0.043073
C43	C	0.737379	0.275625	0.000111
C44	C	0.694192	0.308026	0.043299
C45	C	0.694194	0.372820	0.043298
C46	C	0.694182	0.046716	0.043306
C47	C	0.694181	-0.018081	0.043302
C48	C	0.780555	-0.018081	-0.043065
C49	C	0.780558	0.046713	-0.043066
C50	C	0.737374	0.079104	0.000125
C51	C	0.737373	0.149367	0.000120
C52	C	0.737375	0.205369	0.000112
C53	C	0.516211	0.677392	0.000087
C54	C	0.441149	0.677400	0.000078
C55	C	0.214694	0.760278	-0.045008
C56	C	0.192334	0.718846	-0.077700
C57	C	0.303743	0.677377	0.000101
C58	C	0.192362	0.718815	0.032778
C59	C	0.171011	0.677361	0.000124
C60	C	0.282371	0.635945	-0.032636
C61	C	0.282397	0.635925	0.077885
C62	C	0.260090	0.594433	0.045212
C63	C	0.380205	0.677389	0.000086
C64	C	0.094554	0.677344	0.000137
C65	C	0.958540	0.677344	0.000140
C66	C	1.033601	0.677336	0.000150
C67	C	0.737381	0.677392	-0.221051
C68	C	0.737383	0.677400	-0.296112
C69	C	0.737373	0.880556	0.000121
C70	C	0.737372	0.949516	0.000123
C71	C	0.692260	0.760278	-0.522570
C72	C	0.770051	0.718834	-0.544927
C73	C	0.737380	0.677377	-0.433519
C74	C	0.659594	0.718827	-0.544903
C75	C	0.737370	0.677361	-0.566251
C76	C	0.815216	0.635933	-0.454886
C77	C	0.704703	0.635937	-0.454866
C78	C	0.782540	0.594433	-0.477169
C79	C	0.737384	0.677389	-0.357057
C80	C	0.737374	0.677344	-0.642708
C81	C	0.737370	0.677344	0.221278
C82	C	0.737368	0.677336	0.296339
C83	C	0.958542	0.474156	0.000133
C84	C	1.033604	0.405188	0.000140
C85	C	0.737372	0.474156	0.221271
C86	C	0.737371	0.405188	0.296330
C87	C	0.958537	0.474132	0.221298
C88	C	1.033597	0.405156	0.296366
C89	C	0.516214	0.880604	-0.221071
C90	C	0.441154	0.949580	-0.296139
C91	C	0.516208	0.880580	0.000094
C92	C	0.441146	0.949548	0.000087
C93	C	0.737378	0.880580	-0.221044
C94	C	0.737380	0.949548	-0.296103
C95	C	1.025668	0.372809	-0.043056
C96	C	1.096190	0.308015	-0.043067
C97	C	1.174647	0.275597	0.000125
C98	C	1.182581	0.307982	0.043322
C99	C	1.112060	0.372779	0.043327
C100	C	0.780556	0.372790	0.374778
C101	C	0.780552	0.307996	0.445310
C102	C	0.737367	0.275597	0.437393
C103	C	0.694176	0.308001	0.358937
C104	C	0.694176	0.372798	0.288406
C105	C	1.112041	0.372764	0.288437
C106	C	1.182575	0.307962	0.358964
C107	C	1.174662	0.275549	0.437420
C108	C	1.096210	0.307948	0.445347
C109	C	1.025678	0.372753	0.374820
C110	C	0.362709	0.981980	-0.288210
C111	C	0.292176	1.046802	-0.358737
C112	C	0.300088	1.079218	-0.437193
C113	C	0.378541	1.046815	-0.445120
C114	C	0.449073	0.981999	-0.374593
C115	C	0.449082	0.981934	0.043276
C116	C	0.378560	1.046746	0.043267
C117	C	0.300103	1.079166	0.000073
C118	C	0.292169	1.046778	-0.043121
C119	C	0.362690	0.981972	-0.043116
C120	C	0.780573	0.981927	-0.288159
C121	C	0.780590	1.046722	-0.358678
C122	C	0.737409	1.079140	-0.437140
C123	C	0.694214	1.046755	-0.445082
C124	C	0.694202	0.981957	-0.374564
H125	H	0.659023	0.073079	0.078478
N126	N	0.386598	1.079933	-0.525270
N127	N	0.356859	1.072711	-0.574256
H128	H	0.362546	1.096100	-0.630865
N129	N	0.577072	0.762795	-0.593562
N130	N	0.534678	0.735346	-0.563405
H131	H	0.476395	0.766403	-0.597770
N132	N	0.529194	0.948916	-0.382714
N133	N	0.536238	0.977871	-0.452772
H134	H	0.592823	0.954510	-0.458514
N135	N	0.897780	0.592001	-0.406357
N136	N	0.950577	0.513575	-0.378509
H137	H	1.008888	0.482551	-0.344236
H138	H	0.659010	-0.044457	0.078470
N139	N	0.650061	0.274911	0.350843
N140	N	0.573914	0.325534	0.314047
H141	H	0.542760	0.302160	0.308331
N142	N	0.804705	0.762795	-0.593623
N143	N	0.762711	0.828678	-0.666314
H144	H	0.787180	0.859733	-0.700708
H145	H	1.118533	0.399134	0.078508
H146	H	0.512959	0.955542	0.078455
H147	H	0.815725	0.281621	0.509185
N148	N	0.143723	0.762739	0.067483
N149	N	0.173910	0.735240	0.139766
H150	H	0.139565	0.766255	0.164284
H151	H	0.242687	1.131936	0.000076
N152	N	1.262726	0.274867	0.087432
N153	N	1.311719	0.282095	0.049844
H154	H	1.368324	0.258703	0.081000
N155	N	0.191561	0.848207	-0.092940
N156	N	0.214207	0.874220	-0.154104
H157	H	0.197873	0.936319	-0.187959
H158	H	0.385036	1.073105	0.078444
H159	H	0.815723	0.399163	0.381240
N160	N	0.212018	1.079911	-0.087238
N161	N	0.149067	1.137771	-0.087227
H162	H	0.092458	1.161171	-0.118381
H163	H	0.737374	0.222835	0.494830
N164	N	0.650058	0.405876	0.208281
N165	N	0.611508	0.376933	0.201233
H166	H	0.580346	0.400292	0.144646
N167	N	0.945539	0.405899	-0.087175
N168	N	0.938480	0.376971	-0.125737
H169	H	0.881890	0.400337	-0.156901
N170	N	0.354562	0.948903	-0.087238
N171	N	0.284503	0.977862	-0.125797
H172	H	0.278756	0.954511	-0.156962
H173	H	0.654172	0.830374	-0.541023
N174	N	0.830443	0.506439	-0.453860
N175	N	0.811076	0.455696	-0.410992
H176	H	0.844906	0.393555	-0.394541
H177	H	0.737425	1.131903	-0.494553
H178	H	1.246448	0.281590	0.352495
H179	H	0.815729	0.399199	-0.078248
N180	N	0.354629	0.948877	-0.208069
N181	N	0.417601	0.891010	-0.145097
H182	H	0.411890	0.867637	-0.088498
N183	N	0.824713	1.079800	-0.350567
N184	N	0.881593	1.072551	-0.380260
H185	H	0.912756	1.095911	-0.374531
H186	H	0.321067	0.600938	-0.060338
N187	N	1.246722	0.209341	0.509449
N188	N	1.297479	0.137032	0.521629
H189	H	1.348375	0.090269	0.572497
H190	H	1.118499	0.399145	0.224561
H191	H	0.815722	0.073091	-0.078234
N192	N	0.670002	0.592032	-0.406191
N193	N	0.597298	0.620307	-0.435937
H194	H	0.572782	0.589305	-0.401563
H195	H	0.228303	1.073173	-0.352267
H196	H	0.815721	-0.044464	-0.078231
H197	H	1.089779	0.281548	0.509235
N198	N	0.824690	0.948831	-0.208024
N199	N	0.863254	0.977754	-0.200959
H200	H	0.894418	0.954380	-0.144365
H201	H	0.961807	0.399118	0.381288
H202	H	1.089714	0.281655	-0.078243
H203	H	1.232063	0.222834	0.000115
N204	N	0.824690	0.274934	-0.087183
N205	N	0.863246	0.303869	-0.125738
H206	H	0.894412	0.280500	-0.156891
H207	H	0.659031	0.281639	0.078465
N208	N	0.228029	1.145428	-0.509222
N209	N	0.157996	1.174343	-0.502121
H210	H	0.107100	1.221103	-0.552989
N211	N	0.650067	0.405913	0.087403
N212	N	0.573919	0.442078	0.069085
H213	H	0.542754	0.465447	0.100238
H214	H	0.659057	1.073160	-0.508975
H215	H	0.659025	0.955601	-0.381043
N216	N	0.143652	0.762811	-0.160212
N217	N	0.115233	0.841442	-0.212848
H218	H	0.080851	0.872498	-0.271123
H219	H	0.321204	0.600913	0.143642
N220	N	0.283437	0.506424	0.093066
N221	N	0.325358	0.456103	0.072978
H222	H	0.341847	0.393947	0.106772
