data_functionalizedCrystal
_audit_creation_method	'MofGen! by Chris Wilmer'
_symmetry_space_group_name_H-M	'P1'
_symmetry_Int_Tables_number	1
_symmetry_cell_setting	triclinic
loop_
_symmetry_equiv_pos_as_xyz
  x,y,z
_cell_length_a	11.026607
_cell_length_b	12.376897
_cell_length_c	11.026607
_cell_angle_alpha	99.881008
_cell_angle_beta	71.413983
_cell_angle_gamma	80.133522
loop_
_atom_site_label
_atom_site_type_symbol
_atom_site_fract_x
_atom_site_fract_y
_atom_site_fract_z
O1	O	1.700178	0.093996	-0.507050
O2	O	1.333598	0.093998	-0.446286
O3	O	1.486507	0.093993	-0.293379
O4	O	1.547269	0.094001	-0.659957
O5	O	1.539601	-0.094005	-0.346518
O6	O	1.386691	-0.094000	-0.499425
O7	O	1.753272	-0.094002	-0.560189
Zn8	Zn	1.578411	-0.123850	-0.538244
Zn9	Zn	1.508458	0.123846	-0.468231
O10	O	1.600362	-0.093997	-0.713096
C11	C	1.312485	-0.000001	-0.461646
C12	C	1.170471	-0.000000	-0.428228
N13	N	1.626162	-0.292895	-0.586027
C14	C	1.116821	0.000003	-0.520497
C15	C	0.970042	0.000003	-0.485961
C16	C	1.349823	-0.647955	-0.309499
C17	C	1.316381	-0.529624	-0.276048
C18	C	1.393823	-0.470436	-0.353540
C19	C	1.504713	-0.529590	-0.464489
C20	C	1.538164	-0.647933	-0.497937
C21	C	1.582164	-0.470414	-0.541978
C22	C	1.693055	-0.529568	-0.652927
C23	C	1.726499	-0.647899	-0.686370
C24	C	1.649057	-0.707087	-0.608878
C25	C	1.548714	-0.352071	-0.508530
C26	C	1.737055	-0.352049	-0.696968
C27	C	1.770497	-0.470380	-0.730419
C28	C	1.774384	-0.000001	-0.544829
C29	C	1.916396	0.000006	-0.578244
C30	C	1.501844	-0.000004	-0.272289
C31	C	1.468426	-0.000000	-0.130273
N32	N	1.460716	0.292891	-0.420440
C33	C	1.585025	0.000003	-0.734186
C34	C	1.618441	0.000006	-0.876199
C35	C	1.560695	0.000001	-0.076624
C36	C	1.526158	0.000005	0.070156
H37	H	1.179555	-0.000002	-0.625061
H38	H	1.226097	-0.481469	-0.185712
H39	H	1.722987	0.000091	0.061098
Cl40	Cl	0.873204	-0.000008	-0.324515
Cl41	Cl	1.865915	-0.722262	-0.825838
Cl42	Cl	1.691085	-0.855852	-0.650936
H43	H	1.800116	-0.303859	-0.760068
H44	H	1.366587	-0.374085	-0.326298
H45	H	1.363861	0.000008	-0.067538
Cl46	Cl	1.073629	-0.000012	-0.266789
Cl47	Cl	1.013237	-0.000006	-0.739698
H48	H	1.458426	-0.303919	-0.418196
H49	H	1.286788	-0.696156	-0.246411
H50	H	1.665260	-0.000007	-0.139359
Cl51	Cl	1.909896	-0.544759	-0.869894
H52	H	1.421586	0.000013	0.132887
