data_functionalizedCrystal
_audit_creation_method	'MofGen! by Chris Wilmer'
_symmetry_space_group_name_H-M	'P1'
_symmetry_Int_Tables_number	1
_symmetry_cell_setting	triclinic
loop_
_symmetry_equiv_pos_as_xyz
  x,y,z
_cell_length_a	12.784890
_cell_length_b	10.654550
_cell_length_c	11.892095
_cell_angle_alpha	93.928097
_cell_angle_beta	86.513306
_cell_angle_gamma	78.795731
loop_
_atom_site_label
_atom_site_type_symbol
_atom_site_fract_x
_atom_site_fract_y
_atom_site_fract_z
O1	O	1.417105	-0.000910	-0.093968
O2	O	1.108046	0.052830	-0.093977
O3	O	1.269681	-0.157628	-0.093969
O4	O	1.255470	0.209548	-0.093977
O5	O	1.256204	-0.140105	0.094038
O6	O	1.094569	0.070353	0.094029
O7	O	1.403628	0.016613	0.094038
Zn8	Zn	1.246959	0.046265	0.123884
Zn9	Zn	1.264716	0.023178	-0.123823
O10	O	1.241993	0.227071	0.094029
C11	C	1.061734	0.065086	0.000025
C12	C	0.943817	0.075486	0.000021
C13	C	0.765802	0.205824	0.000017
C14	C	0.876595	0.196061	0.000017
C15	C	0.900240	-0.035334	0.000022
C16	C	0.789447	-0.025571	0.000022
C17	C	0.722231	0.095013	0.000021
C18	C	0.611436	0.104776	0.000029
C19	C	0.635083	-0.126619	0.000026
C20	C	0.745876	-0.136382	0.000026
C21	C	1.261899	-0.195540	0.000033
C22	C	1.258778	-0.334611	0.000029
C23	C	1.353946	-0.425469	0.000036
C24	C	1.351006	-0.556139	0.000028
C25	C	1.157722	-0.505079	0.000012
C26	C	1.160663	-0.374412	0.000012
C27	C	1.452060	-0.385668	0.000053
C28	C	1.547236	-0.476528	0.000061
C29	C	1.544297	-0.607199	0.000053
C30	C	1.446181	-0.647008	0.000037
C31	C	1.449941	0.004356	0.000034
C32	C	1.567858	-0.006044	0.000030
C33	C	1.249775	0.264982	0.000025
C34	C	1.252897	0.404052	0.000022
N35	N	1.234848	0.062020	0.292937
N36	N	1.276834	0.007412	-0.292876
C37	C	1.361105	-0.102288	0.529592
C38	C	1.352648	-0.091268	0.647934
C39	C	1.209472	0.095075	0.647964
C40	C	1.217929	0.084055	0.529622
C41	C	1.293749	-0.014629	0.470441
C42	C	1.302211	-0.025644	0.352097
C43	C	1.159031	0.160693	0.352130
C44	C	1.150573	0.171714	0.470471
H45	H	0.954986	-0.133507	0.000014
C46	C	1.100877	0.381309	0.315719
C47	C	1.084988	0.257062	0.287111
H48	H	1.055174	0.440802	0.275574
H49	H	1.084987	0.401979	0.394660
H50	H	1.173247	0.385413	0.296306
H51	H	1.012619	0.252956	0.306532
H52	H	1.100871	0.236387	0.208152
C53	C	1.333438	-0.211351	0.219070
C54	C	1.385519	-0.134170	0.287068
H55	H	1.384862	-0.278364	0.178931
H56	H	1.285576	-0.247316	0.265267
H57	H	1.294568	-0.160715	0.166881
H58	H	1.424383	-0.184804	0.339263
H59	H	1.433399	-0.098204	0.240867
H60	H	1.454464	-0.279272	0.000063
H61	H	0.800618	-0.234558	0.000023
H62	H	0.556709	0.202961	0.000034
H63	H	0.711072	0.304009	0.000029
H64	H	1.147733	0.175414	0.696165
H65	H	0.912065	0.286295	0.000016
H66	H	1.621794	-0.681176	0.000047
C67	C	0.531140	-0.258903	-0.096623
C68	C	0.587195	-0.248439	0.000024
H69	H	0.501583	-0.334113	-0.096623
H70	H	0.475252	-0.185708	-0.096613
H71	H	0.578577	-0.264008	-0.162178
H72	H	0.539756	-0.243325	0.065580
H73	H	0.643090	-0.321653	0.000024
H74	H	1.627120	-0.444108	0.000045
H75	H	1.422848	-0.182633	0.481406
C76	C	1.410806	-0.311876	0.684350
C77	C	1.426688	-0.187624	0.712954
H78	H	1.456521	-0.371365	0.724488
H79	H	1.338449	-0.315989	0.703765
H80	H	1.426695	-0.332545	0.605398
H81	H	1.410791	-0.166951	0.791905
H82	H	1.499061	-0.183507	0.693547
C83	C	1.501518	-0.857091	-0.096625
C84	C	1.442950	-0.790645	0.000021
H85	H	1.499527	-0.945764	-0.096627
H86	H	1.471185	-0.824206	-0.162174
H87	H	1.573567	-0.846380	-0.096609
H88	H	1.370899	-0.801348	0.000000
H89	H	1.473279	-0.823540	0.065586
C90	C	1.067395	-0.682713	0.000018
C91	C	1.049879	-0.548835	0.000010
H92	H	1.000814	-0.709721	0.000026
H93	H	1.111312	-0.720717	-0.065539
H94	H	1.101925	-0.708491	0.065586
H95	H	1.015357	-0.523058	-0.065563
H96	H	1.005945	-0.510818	0.065573
C97	C	0.969314	-0.337054	0.000004
C98	C	1.056054	-0.274530	0.000007
H99	H	0.904733	-0.275388	0.000003
H100	H	0.976888	-0.395189	-0.065552
H101	H	0.967488	-0.382972	0.065573
H102	H	1.057885	-0.228620	-0.065567
H103	H	1.048479	-0.216373	0.065570
C104	C	1.074039	0.271354	0.651895
C105	C	1.067239	0.280188	0.535530
H106	H	1.022596	0.338330	0.692055
H107	H	1.060492	0.190678	0.671285
H108	H	1.143637	0.279083	0.671262
H109	H	0.997643	0.272449	0.516161
H110	H	1.080778	0.360883	0.516132
