data_functionalizedCrystal
_audit_creation_method	'MofGen! by Chris Wilmer'
_symmetry_space_group_name_H-M	'P1'
_symmetry_Int_Tables_number	1
_symmetry_cell_setting	triclinic
loop_
_symmetry_equiv_pos_as_xyz
  x,y,z
_cell_length_a	11.792241
_cell_length_b	16.109295
_cell_length_c	14.586319
_cell_angle_alpha	90.000576
_cell_angle_beta	89.998811
_cell_angle_gamma	83.826301
loop_
_atom_site_label
_atom_site_type_symbol
_atom_site_fract_x
_atom_site_fract_y
_atom_site_fract_z
O1	O	-0.145855	-1.103820	-0.076168
O2	O	-0.164017	-0.861843	-0.076182
O3	O	0.010286	-0.988704	-0.076180
O4	O	-0.320158	-0.976959	-0.076170
O5	O	0.010289	-0.988695	0.076301
O6	O	-0.164014	-0.861834	0.076299
O7	O	-0.145852	-1.103811	0.076313
Cu8	Cu	-0.154933	-0.982822	0.090229
Cu9	Cu	-0.154936	-0.982832	-0.090098
O10	O	-0.320155	-0.976951	0.076311
C11	C	-0.163281	-0.830860	0.000056
C12	C	-0.161079	-0.738554	0.000051
C13	C	-0.259384	-0.516744	0.000063
C14	C	-0.257306	-0.430013	0.000069
C15	C	-0.050505	-0.448915	0.000059
C16	C	-0.052584	-0.535643	0.000060
C17	C	-0.157027	-0.569555	0.000057
C18	C	-0.152870	-0.396096	0.000062
C19	C	-0.150616	-0.302059	0.000068
C20	C	-0.159282	-0.663598	0.000053
C21	C	-0.362441	-0.977693	0.000072
C22	C	-0.488435	-0.979901	0.000076
C23	C	-0.719112	-0.983961	0.000053
C24	C	-0.590747	-0.981705	0.000066
C25	C	0.052572	-0.987962	0.000057
C26	C	0.178566	-0.985753	0.000047
C27	C	-0.146595	-0.134793	0.000072
C28	C	-0.148818	-0.227098	0.000069
N29	N	-0.154930	-0.982821	0.217060
N30	N	-0.154930	-0.982840	-0.216929
C31	C	-0.077775	-1.039013	0.452068
C32	C	-0.077772	-1.039016	0.548049
C33	C	-0.232089	-0.926642	0.548057
C34	C	-0.232086	-0.926636	0.452077
C35	C	-0.154930	-0.982826	0.404085
C36	C	-0.154930	-0.982834	0.596046
C37	C	-0.154928	-0.982837	0.700113
C38	C	-0.154930	-0.982823	0.300011
H39	H	-0.344428	-0.544352	0.000068
C40	C	-0.300600	-0.876733	0.304948
C41	C	-0.316904	-0.864873	0.399326
H42	H	-0.352956	-0.838600	0.272383
H43	H	-0.312946	-0.932267	0.289221
H44	H	-0.224844	-0.867360	0.289232
H45	H	-0.392658	-0.874252	0.415043
H46	H	-0.304567	-0.809326	0.415059
H47	H	-0.294909	-0.880893	0.587141
C48	C	-0.461925	-0.420048	0.000065
C49	C	-0.369820	-0.371963	0.000069
H50	H	-0.531389	-0.384208	0.000060
H51	H	-0.458435	-0.454267	0.053234
H52	H	-0.458424	-0.454271	-0.053113
H53	H	-0.373317	-0.337744	0.053250
H54	H	-0.373312	-0.337730	-0.053106
H55	H	-0.014948	-1.084766	0.412995
H56	H	0.034529	-0.421293	0.000066
H57	H	0.030773	-0.578645	0.000057
H58	H	-0.014944	-1.084767	0.587114
