data_functionalizedCrystal
_audit_creation_method	'MofGen! by Chris Wilmer'
_symmetry_space_group_name_H-M	'P1'
_symmetry_Int_Tables_number	1
_symmetry_cell_setting	triclinic
loop_
_symmetry_equiv_pos_as_xyz
  x,y,z
_cell_length_a	12.827892
_cell_length_b	12.827893
_cell_length_c	18.215399
_cell_angle_alpha	90.019432
_cell_angle_beta	89.976162
_cell_angle_gamma	89.986398
loop_
_atom_site_label
_atom_site_type_symbol
_atom_site_fract_x
_atom_site_fract_y
_atom_site_fract_z
Zn1	Zn	-0.416094	-1.597653	-0.416129
Zn2	Zn	0.083906	-1.097653	0.083871
Zn3	Zn	-0.590853	-1.597552	-0.293072
Zn4	Zn	-0.090853	-1.097552	0.206928
Zn5	Zn	-0.416121	-1.422900	-0.293077
Zn6	Zn	0.083879	-0.922900	0.206923
Zn7	Zn	-0.590788	-1.422880	-0.416097
Zn8	Zn	-0.090788	-0.922880	0.083903
O9	O	-0.503464	-1.510246	-0.354594
O10	O	-0.003464	-1.010246	0.145406
O11	O	-0.439292	-1.743876	-0.399816
O12	O	0.060708	-1.243876	0.100184
O13	O	-0.567713	-1.574350	-0.190088
O14	O	-0.067713	-1.074350	0.309912
O15	O	-0.269881	-1.446132	-0.309416
O16	O	0.230119	-0.946132	0.190584
O17	O	-0.567686	-1.743802	-0.309406
O18	O	-0.067686	-1.243802	0.190594
O19	O	-0.269861	-1.574522	-0.399822
O20	O	0.230139	-1.074522	0.100178
O21	O	-0.439338	-1.446034	-0.190092
O22	O	0.060662	-0.946034	0.309908
O23	O	-0.439275	-1.276661	-0.309385
O24	O	0.060725	-0.776661	0.190615
O25	O	-0.567576	-1.446098	-0.519086
O26	O	-0.067576	-0.946098	-0.019086
O27	O	-0.567602	-1.276647	-0.399768
O28	O	-0.067602	-0.776647	0.100232
O29	O	-0.439229	-1.574504	-0.519109
O30	O	0.060771	-1.074504	-0.019109
O31	O	-0.737080	-1.574331	-0.309376
O32	O	-0.237080	-1.074331	0.190624
O33	O	-0.737033	-1.446000	-0.399762
O34	O	-0.237033	-0.946000	0.100238
C35	C	-0.503435	-1.238736	-0.354574
C36	C	-0.003435	-0.738736	0.145426
C37	C	-0.503448	-1.122583	-0.354583
C38	C	-0.003448	-0.622583	0.145417
C39	C	-0.439862	-1.070778	-0.309937
C40	C	0.060138	-0.570778	0.190063
C41	C	-0.439874	-0.950728	-0.309945
C42	C	0.060126	-0.450728	0.190055
C43	C	-0.774974	-1.510181	-0.354581
C44	C	-0.274974	-1.010181	0.145419
C45	C	-0.891127	-1.510249	-0.354600
C46	C	-0.391127	-1.010249	0.145400
C47	C	-0.942901	-1.573826	-0.309923
C48	C	-0.442901	-1.073826	0.190077
C49	C	-1.062951	-1.573898	-0.309942
C50	C	-0.562951	-1.073898	0.190058
C51	C	-0.230894	-1.510340	-0.354623
C52	C	0.269106	-1.010340	0.145377
C53	C	-0.114741	-1.510381	-0.354635
C54	C	0.385259	-1.010381	0.145365
C55	C	-0.503392	-1.510310	-0.546547
C56	C	-0.003392	-1.010310	-0.046547
C57	C	-0.503361	-1.510337	-0.628346
C58	C	-0.003361	-1.010337	-0.128346
C59	C	-0.503485	-0.782816	-0.354608
C60	C	-0.003485	-0.282816	0.145392
C61	C	-0.503472	-0.898970	-0.354599
C62	C	-0.003472	-0.398970	0.145401
C63	C	-0.436468	-1.577222	-0.816553
C64	C	0.063532	-1.077222	-0.316553
C65	C	-0.436438	-1.577234	-0.893412
C66	C	0.063562	-1.077234	-0.393412
C67	C	-0.570092	-1.443526	-0.893376
C68	C	-0.070092	-0.943526	-0.393376
C69	C	-0.570117	-1.443509	-0.816519
C70	C	-0.070117	-0.943509	-0.316519
C71	C	-0.503306	-1.510363	-0.778109
C72	C	-0.003306	-1.010363	-0.278109
C73	C	-0.503251	-1.510392	-0.931825
C74	C	-0.003251	-1.010392	-0.431825
C75	C	-0.503219	-1.510406	-1.015159
C76	C	-0.003219	-1.010406	-0.515159
C77	C	-0.503337	-1.510349	-0.694770
C78	C	-0.003337	-1.010349	-0.194770
C79	C	-0.503460	-1.510243	-0.163388
C80	C	-0.003460	-1.010243	0.336612
C81	C	-0.503197	-1.510418	-0.081589
C82	C	-0.003197	-1.010418	0.418411
H83	H	-0.385419	-1.115303	-0.271705
H84	H	0.114581	-0.615303	0.228295
O85	O	-0.364410	-1.649320	-0.775121
O86	O	0.135590	-1.149320	-0.275121
H87	H	-0.282386	-1.631419	-0.789875
H88	H	0.217614	-1.131419	-0.289875
H89	H	-0.624489	-1.389099	-0.924659
H90	H	-0.124489	-0.889099	-0.424659
H91	H	-0.382010	-1.631676	-0.924709
H92	H	0.117990	-1.131676	-0.424709
H93	H	-0.557908	-0.943514	-0.392828
H94	H	-0.057908	-0.443514	0.107172
O95	O	-1.121914	-1.646023	-0.259285
O96	O	-0.621914	-1.146023	0.240715
H97	H	-1.206953	-1.634775	-0.267259
H98	H	-0.706953	-1.134775	0.232741
H99	H	-1.070224	-1.455942	-0.392884
H100	H	-0.570224	-0.955942	0.107116
O101	O	-0.950132	-1.438206	-0.405279
O102	O	-0.450132	-0.938206	0.094721
H103	H	-0.999797	-1.485016	-0.442725
H104	H	-0.499797	-0.985016	0.057275
O105	O	-0.642179	-1.371364	-0.775046
O106	O	-0.142179	-0.871364	-0.275046
H107	H	-0.688632	-1.324879	-0.814665
H108	H	-0.188632	-0.824879	-0.314665
O109	O	-0.883906	-1.645870	-0.259238
O110	O	-0.383906	-1.145870	0.240762
H111	H	-0.904721	-1.727902	-0.271914
H112	H	-0.404721	-1.227902	0.228086
H113	H	-0.557899	-1.078059	-0.392810
H114	H	-0.057899	-0.578059	0.107190
H115	H	-0.385431	-0.906177	-0.271725
H116	H	0.114569	-0.406177	0.228275
