data_functionalizedCrystal
_audit_creation_method	'MofGen! by Chris Wilmer'
_symmetry_space_group_name_H-M	'P1'
_symmetry_Int_Tables_number	1
_symmetry_cell_setting	triclinic
loop_
_symmetry_equiv_pos_as_xyz
  x,y,z
_cell_length_a	16.959455
_cell_length_b	16.959454
_cell_length_c	15.296720
_cell_angle_alpha	99.648278
_cell_angle_beta	99.660201
_cell_angle_gamma	90.019023
loop_
_atom_site_label
_atom_site_type_symbol
_atom_site_fract_x
_atom_site_fract_y
_atom_site_fract_z
Zn1	Zn	1.131019	-0.392037	-0.510124
Zn2	Zn	1.153818	-0.501357	-0.359282
Zn3	Zn	1.021724	-0.369195	-0.359285
Zn4	Zn	0.998819	-0.524168	-0.510082
O5	O	1.076345	-0.446689	-0.434693
O6	O	1.244652	-0.406551	-0.490131
O7	O	1.155423	-0.464720	-0.233045
O8	O	1.036266	-0.261617	-0.379313
O9	O	1.261402	-0.486869	-0.379308
O10	O	1.116565	-0.278399	-0.490134
O11	O	1.058373	-0.367621	-0.233047
O12	O	0.908077	-0.389739	-0.379271
O13	O	0.997228	-0.525747	-0.636324
O14	O	0.891249	-0.503598	-0.490061
O15	O	1.094355	-0.428670	-0.636355
O16	O	1.133213	-0.614991	-0.379267
O17	O	1.019335	-0.631750	-0.490059
C18	C	0.870983	-0.446666	-0.434663
C19	C	0.783125	-0.446678	-0.434671
C20	C	0.750575	-0.387339	-0.377080
C21	C	0.733119	-0.506025	-0.492275
C22	C	0.650572	-0.506036	-0.492288
C23	C	0.618022	-0.446697	-0.434697
C24	C	0.668020	-0.387347	-0.377093
C25	C	0.600567	-0.565380	-0.549898
C26	C	0.518013	-0.565393	-0.549914
C27	C	0.485463	-0.506057	-0.492318
C28	C	0.535466	-0.446705	-0.434711
C29	C	0.502916	-0.387366	-0.377120
C30	C	0.552919	-0.328017	-0.319508
C31	C	0.635469	-0.328011	-0.319497
C32	C	0.402913	-0.506063	-0.492328
C33	C	0.420361	-0.387374	-0.377133
C34	C	1.076281	-0.652053	-0.434678
C35	C	1.076321	-0.739913	-0.434701
C36	C	1.017123	-1.120143	-0.492376
C37	C	1.135773	-1.102646	-0.377102
C38	C	1.135746	-1.020099	-0.377093
C39	C	1.076407	-0.987570	-0.434726
C40	C	1.017094	-1.037588	-0.492368
C41	C	1.195054	-0.970074	-0.319447
C42	C	1.195029	-0.887521	-0.319436
C43	C	1.135692	-0.854992	-0.377074
C44	C	1.076377	-0.905015	-0.434718
C45	C	1.017038	-0.872486	-0.492351
C46	C	0.957725	-0.922509	-0.550001
C47	C	0.957756	-1.005059	-0.550006
C48	C	1.135661	-0.772442	-0.377068
C49	C	1.017008	-0.789932	-0.492343
C50	C	1.282508	-0.446714	-0.434724
C51	C	1.370363	-0.446724	-0.434737
C52	C	1.040693	-0.482301	-0.669987
C53	C	1.025501	-0.497476	-0.770255
C54	C	1.076427	-0.240526	-0.434728
C55	C	1.076463	-0.152672	-0.434743
C56	C	1.184958	-0.338089	-1.052960
C57	C	1.199237	-0.323832	-0.958753
C58	C	1.155804	-0.367242	-0.911624
C59	C	1.098090	-0.424911	-0.958711
C60	C	1.083814	-0.439174	-1.052927
C61	C	1.054660	-0.468326	-0.911591
C62	C	0.996945	-0.525996	-0.958678
C63	C	0.982672	-0.540255	-1.052885
C64	C	1.026104	-0.496846	-1.100014
C65	C	1.068936	-0.454064	-0.817375
C66	C	0.967792	-0.555148	-0.817342
C67	C	0.953513	-0.569405	-0.911549
C68	C	1.111903	-0.411159	-0.200315
C69	C	1.127249	-0.395761	-0.100047
H70	H	0.791292	-0.339020	-0.330171
H71	H	0.909407	-0.896014	-0.596922
Cl72	Cl	0.698333	-0.253404	-0.247083
Cl73	Cl	0.511988	-0.253417	-0.247118
H74	H	1.184080	-1.129136	-0.330174
Cl75	Cl	1.269598	-0.824644	-0.246971
Cl76	Cl	1.269651	-1.010972	-0.247005
H77	H	0.477307	-0.613720	-0.596824
H78	H	0.362203	-0.554380	-0.539241
H79	H	0.759626	-0.554333	-0.539167
Cl80	Cl	0.880961	-0.641902	-0.970755
H81	H	1.014482	-0.508451	-1.176725
Cl82	Cl	0.910130	-0.612767	-1.112078
Cl83	Cl	1.210212	-0.709559	-0.304591
H84	H	0.968834	-1.160876	-0.539315
H85	H	0.968689	-0.763453	-0.539278
Cl86	Cl	0.641492	-0.639984	-0.622276
Cl87	Cl	0.913191	-0.609728	-0.758101
H88	H	0.909467	-1.045794	-0.596940
H89	H	1.115927	-0.407108	-0.779046
H90	H	1.167434	-0.355631	-0.834916
Cl91	Cl	1.271788	-0.251337	-0.899564
Cl92	Cl	1.239559	-0.283532	-1.112211
Cl93	Cl	0.379449	-0.312775	-0.304724
