data_functionalizedCrystal
_audit_creation_method	'MofGen! by Chris Wilmer'
_symmetry_space_group_name_H-M	'P1'
_symmetry_Int_Tables_number	1
_symmetry_cell_setting	triclinic
loop_
_symmetry_equiv_pos_as_xyz
  x,y,z
_cell_length_a	14.971486
_cell_length_b	19.188925
_cell_length_c	14.048226
_cell_angle_alpha	89.993916
_cell_angle_beta	89.998499
_cell_angle_gamma	83.378339
loop_
_atom_site_label
_atom_site_type_symbol
_atom_site_fract_x
_atom_site_fract_y
_atom_site_fract_z
O1	O	1.186464	0.090988	-0.079050
O2	O	1.686464	0.590988	0.420950
O3	O	0.926006	0.101884	-0.079076
O4	O	1.426006	0.601884	0.420924
O5	O	1.063754	-0.005196	-0.079057
O6	O	1.563754	0.494804	0.420943
O7	O	1.048716	0.198068	-0.079069
O8	O	1.548716	0.698068	0.420931
O9	O	1.063737	-0.005202	0.079264
O10	O	1.563737	0.494798	0.579264
O11	O	0.925990	0.101878	0.079245
O12	O	1.425990	0.601878	0.579245
O13	O	1.186448	0.090982	0.079271
O14	O	1.686448	0.590982	0.579271
Zn15	Zn	1.056216	0.096429	0.104395
Zn16	Zn	1.556216	0.596429	0.604395
Zn17	Zn	1.056238	0.096437	-0.104200
Zn18	Zn	1.556238	0.596437	0.395800
O19	O	1.048700	0.198061	0.079252
O20	O	1.548700	0.698061	0.579252
C21	C	0.892676	0.101394	0.000081
C22	C	1.392676	0.601394	0.500081
C23	C	0.793386	0.099933	0.000071
C24	C	1.293386	0.599933	0.500071
C25	C	0.735827	0.162840	0.000069
C26	C	1.235827	0.662840	0.500069
C27	C	0.642535	0.161464	0.000083
C28	C	1.142535	0.661464	0.500083
C29	C	0.606804	0.097180	0.000093
C30	C	1.106804	0.597180	0.500093
C31	C	0.664370	0.034269	0.000098
C32	C	1.164370	0.534269	0.500098
C33	C	0.757661	0.035646	0.000091
C34	C	1.257661	0.535646	0.500091
C35	C	0.469923	0.031403	0.000112
C36	C	0.969923	0.531403	0.500112
C37	C	0.376626	0.030026	0.000117
C38	C	0.876626	0.530026	0.500117
C39	C	0.354797	0.157221	0.000104
C40	C	0.854797	0.657221	0.500104
C41	C	0.448088	0.158598	0.000097
C42	C	0.948088	0.658598	0.500097
C43	C	0.505648	0.095686	0.000100
C44	C	1.005648	0.595686	0.500100
C45	C	1.063260	-0.031211	0.000103
C46	C	1.563260	0.468789	0.500103
C47	C	1.061800	-0.108721	0.000101
C48	C	1.561800	0.391279	0.500101
C49	C	1.132854	-0.670262	0.000084
C50	C	1.632854	-0.170262	0.500084
C51	C	1.134233	-0.597435	0.000092
C52	C	1.634233	-0.097435	0.500092
C53	C	1.053407	-0.552760	0.000084
C54	C	1.553407	-0.052760	0.500084
C55	C	0.971196	-0.580919	0.000091
C56	C	1.471196	-0.080919	0.500091
C57	C	0.969819	-0.653746	0.000092
C58	C	1.469819	-0.153746	0.500092
N59	N	0.994898	-0.432266	-0.053810
N60	N	1.494898	0.067734	0.446190
N61	N	0.996211	-0.363085	-0.053813
N62	N	1.496211	0.136915	0.446187
C63	C	1.057550	-0.333338	0.000084
C64	C	1.557550	0.166662	0.500084
N65	N	1.117540	-0.375388	0.053972
N66	N	1.617540	0.124612	0.553972
N67	N	1.116229	-0.444576	0.053970
N68	N	1.616229	0.055424	0.553970
C69	C	1.054891	-0.473791	0.000084
C70	C	1.554891	0.026209	0.500084
C71	C	1.141251	-0.226219	0.000093
C72	C	1.641251	0.273781	0.500093
C73	C	1.142627	-0.153390	0.000107
C74	C	1.642627	0.346610	0.500107
C75	C	0.979587	-0.136876	0.000097
C76	C	1.479587	0.363124	0.500097
C77	C	0.978214	-0.209704	0.000092
C78	C	1.478214	0.290296	0.500092
C79	C	1.059049	-0.254372	0.000085
C80	C	1.559049	0.245628	0.500085
C81	C	1.219778	0.091472	0.000111
C82	C	1.719778	0.591472	0.500111
C83	C	1.319067	0.092932	0.000115
C84	C	1.819067	0.592932	0.500115
C85	C	1.049194	0.224077	0.000090
C86	C	1.549194	0.724077	0.500090
C87	C	1.050654	0.301587	0.000086
C88	C	1.550654	0.801587	0.500086
N89	N	1.056208	0.096423	0.246756
N90	N	1.556208	0.596423	0.746756
N91	N	1.056253	0.096438	-0.246561
N92	N	1.556253	0.596438	0.253439
C93	C	1.117221	0.049027	0.296582
C94	C	1.617221	0.549027	0.796582
C95	C	1.117227	0.049027	0.396240
C96	C	1.617227	0.549027	0.896240
C97	C	1.056223	0.096426	0.446069
C98	C	1.556223	0.596426	0.946069
C99	C	0.995203	0.143823	0.396236
C100	C	1.495203	0.643823	0.896236
C101	C	0.995194	0.143820	0.296580
C102	C	1.495194	0.643820	0.796580
C103	C	0.995229	0.143828	0.603950
C104	C	1.495229	0.643828	1.103950
C105	C	0.995239	0.143833	0.703613
C106	C	1.495239	0.643833	1.203613
C107	C	1.117263	0.049036	0.703610
C108	C	1.617263	0.549036	1.203610
C109	C	1.117253	0.049032	0.603954
C110	C	1.617253	0.549032	1.103954
C111	C	1.056234	0.096431	0.554127
C112	C	1.556234	0.596431	1.054127
H113	H	0.347538	-0.022319	0.000127
H114	H	0.847538	0.477681	0.500127
H115	H	1.166909	0.010434	0.436808
H116	H	1.666909	0.510434	0.936808
H117	H	0.307927	0.208446	0.000105
H118	H	0.807927	0.708446	0.500105
O119	O	0.935818	0.189795	0.444597
O120	O	1.435818	0.689795	0.944597
C121	C	0.847324	0.178337	0.420245
C122	C	1.347324	0.678337	0.920245
H123	H	0.847112	0.122435	0.392860
H124	H	1.347112	0.622435	0.892860
H125	H	0.802413	0.186309	0.485788
H126	H	1.302413	0.686309	0.985788
H127	H	0.820889	0.217001	0.362396
H128	H	1.320889	0.717001	0.862396
O129	O	1.176297	0.002819	0.555553
O130	O	1.676297	0.502819	1.055553
C131	C	1.128392	-0.040313	0.498100
C132	C	1.628392	0.459687	0.998100
H133	H	1.058381	-0.012465	0.483075
H134	H	1.558381	0.487535	0.983075
H135	H	1.165750	-0.051537	0.428059
H136	H	1.665750	0.448463	0.928059
H137	H	1.122308	-0.091813	0.536707
H138	H	1.622308	0.408187	1.036707
H139	H	0.905387	-0.544541	0.000088
H140	H	1.405387	-0.044541	0.500088
O141	O	1.211291	-0.713751	0.000040
O142	O	1.711291	-0.213751	0.500040
C143	C	1.192454	-0.784067	0.000064
C144	C	1.692454	-0.284067	0.500064
H145	H	1.122209	-0.786917	-0.029907
H146	H	1.622209	-0.286917	0.470093
H147	H	1.243992	-0.817014	-0.045902
H148	H	1.743992	-0.317014	0.454098
H149	H	1.195929	-0.805132	0.076019
H150	H	1.695929	-0.305132	0.576019
O151	O	1.176342	0.002926	0.248099
O152	O	1.676342	0.502926	0.748099
C153	C	1.128577	-0.040221	0.190519
C154	C	1.628577	0.459779	0.690519
H155	H	1.058495	-0.012478	0.175570
H156	H	1.558495	0.487522	0.675570
H157	H	1.165946	-0.051266	0.120447
H158	H	1.665946	0.448734	0.620447
H159	H	1.122666	-0.091808	0.228977
H160	H	1.622666	0.408192	0.728977
H161	H	1.209567	-0.130472	0.000112
H162	H	1.709567	0.369528	0.500112
H163	H	0.911278	-0.232624	0.000087
H164	H	1.411278	0.267376	0.500087
O165	O	0.586535	0.222527	-0.000055
O166	O	1.086535	0.722527	0.499945
C167	C	0.531932	0.225542	-0.082060
C168	C	1.031932	0.725542	0.417940
H169	H	0.527427	0.170119	-0.109381
H170	H	1.027427	0.670119	0.390619
H171	H	0.461712	0.251496	-0.063621
H172	H	0.961712	0.751496	0.436379
H173	H	0.562500	0.257450	-0.139488
H174	H	1.062500	0.757450	0.360512
O175	O	0.936045	0.189968	0.555589
O176	O	1.436045	0.689968	1.055589
C177	C	0.950299	0.259104	0.579941
C178	C	1.450299	0.759104	1.079941
H179	H	1.021909	0.259536	0.607329
H180	H	1.521909	0.759536	1.107329
H181	H	0.939869	0.294129	0.514397
H182	H	1.439869	0.794129	1.014397
H183	H	0.900647	0.279551	0.637788
H184	H	1.400647	0.779551	1.137788
O185	O	0.936015	0.189958	0.248218
O186	O	1.436015	0.689958	0.748218
C187	C	0.950263	0.259095	0.272567
C188	C	1.450263	0.759095	0.772567
H189	H	1.021873	0.259532	0.299951
H190	H	1.521873	0.759532	0.799951
H191	H	0.939827	0.294119	0.207022
H192	H	1.439827	0.794119	0.707022
H193	H	0.900612	0.279540	0.330416
H194	H	1.400612	0.779540	0.830416
O195	O	0.889887	-0.680979	0.000046
O196	O	1.389887	-0.180979	0.500046
C197	C	0.818840	-0.625935	0.000069
C198	C	1.318840	-0.125935	0.500069
H199	H	0.843719	-0.576438	-0.029899
H200	H	1.343719	-0.076438	0.470101
H201	H	0.761434	-0.641197	-0.045901
H202	H	1.261434	-0.141197	0.454099
H203	H	0.793917	-0.615660	0.076023
H204	H	1.293917	-0.115660	0.576023
O205	O	1.219711	-0.269684	0.000225
O206	O	1.719711	0.230316	0.500225
C207	C	1.223796	-0.312300	0.082231
C208	C	1.723796	0.187700	0.582231
H209	H	1.152812	-0.316045	0.109559
H210	H	1.652812	0.183955	0.609559
H211	H	1.257332	-0.367005	0.063790
H212	H	1.757332	0.132995	0.563790
H213	H	1.264547	-0.288313	0.139653
H214	H	1.764547	0.211687	0.639653
H215	H	1.166946	0.010442	0.744184
H216	H	1.666946	0.510442	1.244184
H217	H	1.201172	-0.574510	0.000091
H218	H	1.701172	-0.074510	0.500091
H219	H	0.945563	0.182429	0.744179
H220	H	1.445563	0.682429	1.244179
H221	H	0.764912	0.215187	0.000060
H222	H	1.264912	0.715187	0.500060
H223	H	0.516787	-0.019826	0.000116
H224	H	1.016787	0.480174	0.500116
O225	O	0.482650	0.221102	0.000127
O226	O	0.982650	0.721102	0.500127
C227	C	0.411844	0.276335	0.000103
C228	C	0.911844	0.776335	0.500103
H229	H	0.348542	0.256713	0.030084
H230	H	0.848542	0.756713	0.530084
H231	H	0.431170	0.321208	0.046062
H232	H	0.931170	0.821208	0.546062
H233	H	0.398564	0.295746	-0.075852
H234	H	0.898564	0.795746	0.424148
O235	O	0.629769	-0.028219	-0.000020
O236	O	1.129769	0.471781	0.499980
C237	C	0.659187	-0.066561	-0.082027
C238	C	1.159187	0.433439	0.417973
H239	H	0.723818	-0.047477	-0.109367
H240	H	1.223818	0.452523	0.390633
H241	H	0.672365	-0.124694	-0.063583
H242	H	1.172365	0.375306	0.436417
H243	H	0.605168	-0.058516	-0.139443
H244	H	1.105168	0.441484	0.360557
H245	H	0.913777	-0.100502	0.000098
H246	H	1.413777	0.399498	0.500098
H247	H	0.804525	-0.015579	0.000092
H248	H	1.304525	0.484421	0.500092
