data_functionalizedCrystal
_audit_creation_method	'MofGen! by Chris Wilmer'
_symmetry_space_group_name_H-M	'P1'
_symmetry_Int_Tables_number	1
_symmetry_cell_setting	triclinic
loop_
_symmetry_equiv_pos_as_xyz
  x,y,z
_cell_length_a	16.109296
_cell_length_b	15.072220
_cell_length_c	16.109301
_cell_angle_alpha	90.001893
_cell_angle_beta	83.460385
_cell_angle_gamma	89.996229
loop_
_atom_site_label
_atom_site_type_symbol
_atom_site_fract_x
_atom_site_fract_y
_atom_site_fract_z
O1	O	-1.103137	0.073743	-0.106836
O2	O	-0.861075	0.073755	-0.120140
O3	O	-0.988756	0.073740	0.007543
O4	O	-0.975456	0.073759	-0.234519
O5	O	-0.988739	-0.073825	0.007527
O6	O	-0.861058	-0.073810	-0.120156
O7	O	-1.103121	-0.073822	-0.106852
Zn8	Zn	-0.982087	-0.097245	-0.113507
Zn9	Zn	-0.982109	0.097178	-0.113485
O10	O	-0.975440	-0.073807	-0.234535
C11	C	-0.830092	-0.000026	-0.119610
C12	C	-0.737796	-0.000022	-0.117996
N13	N	-0.982078	-0.229934	-0.113520
C14	C	-0.428797	-0.000034	-0.188486
C15	C	-0.515517	-0.000029	-0.190009
C16	C	-0.535391	-0.000028	-0.038520
C17	C	-0.448672	-0.000028	-0.036998
C18	C	-0.395377	-0.000035	-0.111983
C19	C	-0.568816	-0.000030	-0.115029
C20	C	-0.662842	-0.000024	-0.116681
C21	C	-0.301345	-0.000040	-0.110332
C22	C	-0.982094	-0.410931	-0.113501
C23	C	-0.913763	-0.448592	-0.181797
C24	C	-0.913530	-0.551418	-0.181611
C25	C	-0.982109	-0.589135	-0.113484
C26	C	-0.963539	-0.551799	-0.026634
C27	C	-0.963040	-0.448941	-0.027045
C28	C	-1.069204	-0.448822	-0.131271
C29	C	-1.068628	-0.551687	-0.133232
C30	C	-0.982119	-0.689849	-0.113469
C31	C	-0.982082	-0.310218	-0.113511
C32	C	-0.134103	-0.000040	-0.107387
C33	C	-0.226397	-0.000043	-0.109016
C34	C	-0.988209	-0.000043	0.038510
C35	C	-0.986594	-0.000044	0.130805
N36	N	-0.982124	0.229867	-0.113465
C37	C	-0.975987	-0.000022	-0.265502
C38	C	-0.977602	-0.000015	-0.357797
C39	C	-1.058602	-0.000034	0.353079
C40	C	-1.057078	-0.000026	0.439799
C41	C	-0.905588	-0.000023	0.419922
C42	C	-0.907113	-0.000024	0.333204
C43	C	-0.983622	-0.000034	0.299785
C44	C	-0.980573	-0.000025	0.473224
C45	C	-0.978920	-0.000017	0.567250
C46	C	-0.985276	-0.000040	0.205753
H47	H	-0.385406	-0.000040	-0.249544
H48	H	-1.120900	-0.000040	0.325873
H49	H	-0.578794	-0.000024	0.022530
H50	H	-0.924578	-0.423864	-0.246565
H51	H	-1.118133	-0.000024	0.483189
F52	F	-0.413102	-0.000019	0.044432
F53	F	-1.135664	-0.416981	-0.066181
F54	F	-0.551081	-0.000024	-0.271434
H55	H	-0.899522	-0.424965	-0.011434
H56	H	-0.924535	-0.576663	-0.246159
H57	H	-0.849476	-0.422760	-0.170572
F58	F	-1.138179	-0.585243	-0.072456
F59	F	-1.025640	-0.416372	0.041399
F60	F	-0.829034	-0.583604	-0.166721
F61	F	-1.026887	-0.583728	0.041418
F62	F	-0.881476	-0.585485	-0.005731
H63	H	-1.087133	-0.422885	-0.193271
F64	F	-1.087058	-0.583579	-0.216744
H65	H	-0.846052	-0.000021	0.289808
H66	H	-0.843297	-0.000016	0.447143
