data_functionalizedCrystal
_audit_creation_method	'MofGen! by Chris Wilmer'
_symmetry_space_group_name_H-M	'P1'
_symmetry_Int_Tables_number	1
_symmetry_cell_setting	triclinic
loop_
_symmetry_equiv_pos_as_xyz
  x,y,z
_cell_length_a	13.032831
_cell_length_b	18.101397
_cell_length_c	13.033109
_cell_angle_alpha	97.149218
_cell_angle_beta	76.665514
_cell_angle_gamma	82.824609
loop_
_atom_site_label
_atom_site_type_symbol
_atom_site_fract_x
_atom_site_fract_y
_atom_site_fract_z
Zn1	Zn	1.700070	-0.520610	-0.806340
Zn2	Zn	1.677393	-0.626434	-0.628709
Zn3	Zn	1.499897	-0.484590	-0.606238
Zn4	Zn	1.522408	-0.626369	-0.783753
O5	O	1.599942	-0.564501	-0.706260
O6	O	1.845696	-0.549750	-0.801634
O7	O	1.634936	-0.592571	-0.477099
O8	O	1.526520	-0.385746	-0.632830
O9	O	1.829036	-0.627498	-0.671129
O10	O	1.673586	-0.412210	-0.779845
O11	O	1.504531	-0.488359	-0.460589
O12	O	1.354248	-0.488296	-0.610929
O13	O	1.564886	-0.627387	-0.935379
O14	O	1.370787	-0.592460	-0.741349
O15	O	1.695414	-0.549686	-0.951974
O16	O	1.656764	-0.730047	-0.649228
O17	O	1.542897	-0.730000	-0.763138
C18	C	1.323978	-0.536463	-0.671250
C19	C	1.205923	-0.524488	-0.656298
C20	C	1.161488	-0.570750	-0.714064
C21	C	1.039472	-0.558375	-0.698611
C22	C	1.599844	-0.756897	-0.706197
C23	C	1.599904	-0.839218	-0.706218
C24	C	1.600052	-1.138333	-0.706332
C25	C	1.671437	-1.106961	-0.634414
C26	C	1.671748	-1.021393	-0.634663
C27	C	1.599979	-0.989938	-0.706275
C28	C	1.644541	-1.035379	-0.822072
C29	C	1.645117	-1.121043	-0.821704
C30	C	1.484010	-1.092520	-0.663394
C31	C	1.484247	-1.006673	-0.660966
C32	C	1.599936	-0.906073	-0.706249
C33	C	1.600098	-1.222199	-0.706366
C34	C	1.876983	-0.592649	-0.741408
C35	C	1.995042	-0.604644	-0.756386
C36	C	1.635191	-0.592547	-0.983292
C37	C	1.650211	-0.604499	-1.101347
C38	C	1.600071	-0.371359	-0.706350
C39	C	1.600127	-0.289053	-0.706389
C40	C	1.592386	-0.558265	-1.145811
C41	C	1.607910	-0.570617	-1.267826
C42	C	1.564891	-0.536516	-0.430314
C43	C	1.550076	-0.524377	-0.312286
H44	H	0.987186	-0.509601	-0.637716
H45	H	1.489071	-0.475648	-1.260026
N46	N	1.515857	-0.497145	-1.080239
N47	N	1.503351	-0.487201	-0.981214
H48	H	1.449299	-0.444034	-0.934904
H49	H	1.213779	-0.619516	-0.774963
N50	N	1.684426	-0.631751	-1.333392
N51	N	1.696924	-0.641700	-1.432415
H52	H	1.750962	-0.684875	-1.478724
H53	H	1.430647	-1.112672	-0.715602
N54	N	1.060639	-0.665824	-0.832784
N55	N	1.159664	-0.675793	-0.845230
H56	H	1.205994	-0.719002	-0.899183
N57	N	1.140322	-0.463305	-0.579916
N58	N	1.041297	-0.453336	-0.567476
H59	H	0.994966	-0.410123	-0.513531
N60	N	1.726724	-0.665629	-1.166916
N61	N	1.739222	-0.675578	-1.265940
H62	H	1.793259	-0.718754	-1.312248
H63	H	1.642221	-0.990087	-0.549247
N64	N	1.582089	-1.010474	-0.891865
N65	N	1.573868	-0.943394	-0.907080
H66	H	1.529759	-0.925802	-0.956369
H67	H	1.642108	-1.117258	-0.548778
H68	H	1.756624	-1.138740	-0.663675
H69	H	1.757418	-1.011229	-0.664200
H70	H	1.730362	-1.151768	-0.856421
N71	N	1.436585	-1.105947	-0.558362
N72	N	1.343988	-1.074169	-0.511060
H73	H	1.310502	-1.083653	-0.436878
H74	H	1.596178	-1.142414	-0.877906
H75	H	1.728918	-1.024626	-0.857083
N76	N	1.442429	-0.967866	-0.553972
N77	N	1.497588	-0.928019	-0.511181
H78	H	1.468059	-0.900609	-0.435615
N79	N	1.412497	-0.978723	-0.720436
N80	N	1.445639	-0.945872	-0.797530
H81	H	1.394970	-0.926134	-0.839542
