data_functionalizedCrystal
_audit_creation_method	'MofGen! by Chris Wilmer'
_symmetry_space_group_name_H-M	'P1'
_symmetry_Int_Tables_number	1
_symmetry_cell_setting	triclinic
loop_
_symmetry_equiv_pos_as_xyz
  x,y,z
_cell_length_a	11.792241
_cell_length_b	19.188924
_cell_length_c	17.666332
_cell_angle_alpha	90.007291
_cell_angle_beta	90.005047
_cell_angle_gamma	83.667690
loop_
_atom_site_label
_atom_site_type_symbol
_atom_site_fract_x
_atom_site_fract_y
_atom_site_fract_z
O1	O	1.505480	0.095695	0.062879
O2	O	1.174991	0.105557	0.062897
O3	O	1.349777	-0.000976	0.062878
O4	O	1.330695	0.202228	0.062897
O5	O	1.349746	-0.000979	-0.063019
O6	O	1.174961	0.105554	-0.063000
O7	O	1.505450	0.095692	-0.063018
Cu8	Cu	1.340202	0.100623	-0.074504
Cu9	Cu	1.340239	0.100626	0.074383
O10	O	1.330664	0.202225	-0.063000
C11	C	1.132694	0.104936	-0.000050
C12	C	1.006708	0.103082	-0.000043
C13	C	1.349145	-0.026992	-0.000071
C14	C	1.347294	-0.104507	-0.000073
C15	C	0.776047	0.099672	-0.000065
C16	C	0.904404	0.101567	-0.000053
C17	C	1.346447	-0.140909	0.068554
C18	C	1.344691	-0.213742	0.068560
C19	C	1.343806	-0.250172	-0.000065
C20	C	1.344647	-0.213760	-0.068701
C21	C	1.346391	-0.140928	-0.068704
N22	N	1.405641	-0.369486	-0.051144
N23	N	1.403987	-0.438673	-0.051136
C24	C	1.338549	-0.469610	-0.000057
N25	N	1.274842	-0.428747	0.051024
N26	N	1.276501	-0.359554	0.051018
C27	C	1.341914	-0.329146	-0.000068
C28	C	1.335797	-0.584986	0.068580
C29	C	1.334034	-0.657819	0.068583
C30	C	1.334001	-0.657837	-0.068679
C31	C	1.335752	-0.585004	-0.068680
C32	C	1.336655	-0.548583	-0.000048
C33	C	1.547747	0.096313	-0.000070
C34	C	1.673733	0.098167	-0.000072
C35	C	1.331296	0.228241	-0.000049
C36	C	1.333147	0.305756	-0.000042
N37	N	1.340185	0.100619	-0.179224
C38	C	1.408795	0.143254	-0.218827
C39	C	1.408813	0.143252	-0.298075
C40	C	1.340200	0.100624	-0.337716
C41	C	1.271586	0.057981	-0.298103
C42	C	1.271578	0.057979	-0.218857
N43	N	1.240802	0.098340	-0.462150
N44	N	1.240812	0.098346	-0.537431
C45	C	1.340221	0.100626	-0.576480
N46	N	1.439620	0.102913	-0.537405
N47	N	1.439609	0.102911	-0.462117
C48	C	1.340201	0.100621	-0.423645
C49	C	1.408857	0.143260	-0.702013
C50	C	1.408877	0.143254	-0.781262
C51	C	1.271639	0.057987	-0.781289
C52	C	1.271629	0.057989	-0.702041
C53	C	1.340236	0.100630	-0.662408
N54	N	1.340265	0.100624	0.179102
H55	H	1.347179	-0.111260	0.124439
Br56	Br	1.502009	0.201114	-0.835011
H57	H	1.215705	0.023260	-0.186613
Br58	Br	1.501989	0.201113	-0.648220
H59	H	1.343994	-0.243386	0.124445
H60	H	1.464685	0.177971	-0.330326
H61	H	1.347076	-0.111290	-0.124590
Br62	Br	1.343431	-0.263197	-0.161835
Br63	Br	1.337016	-0.535553	0.161720
Br64	Br	1.332872	-0.707223	0.161728
Br65	Br	1.332788	-0.707268	-0.161814
H66	H	1.215774	0.023277	-0.813564
Br67	Br	1.336897	-0.535597	-0.161821
H68	H	1.464665	0.177972	-0.186563
H69	H	1.215722	0.023272	-0.330384
H70	H	1.215754	0.023275	-0.669796
