data_functionalizedCrystal
_audit_creation_method	'MofGen! by Chris Wilmer'
_symmetry_space_group_name_H-M	'P1'
_symmetry_Int_Tables_number	1
_symmetry_cell_setting	triclinic
loop_
_symmetry_equiv_pos_as_xyz
  x,y,z
_cell_length_a	19.188925
_cell_length_b	17.666332
_cell_length_c	10.540539
_cell_angle_alpha	90.003026
_cell_angle_beta	83.834020
_cell_angle_gamma	90.010202
loop_
_atom_site_label
_atom_site_type_symbol
_atom_site_fract_x
_atom_site_fract_y
_atom_site_fract_z
O1	O	0.927208	0.062961	0.158436
O2	O	0.724039	0.062959	0.179776
O3	O	0.830259	0.062959	-0.015702
O4	O	0.820988	0.062961	0.353915
O5	O	0.830240	-0.062938	-0.015708
O6	O	0.724020	-0.062938	0.179771
O7	O	0.927189	-0.062936	0.158431
Cu8	Cu	0.825603	-0.074432	0.169100
Cu9	Cu	0.825625	0.074455	0.169107
O10	O	0.820969	-0.062936	0.353910
C11	C	0.698013	0.000010	0.179084
C12	C	0.620495	0.000009	0.177013
N13	N	0.825592	-0.179152	0.169095
C14	C	0.059397	0.000011	0.277845
C15	C	0.132233	0.000016	0.279802
C16	C	0.176403	0.000014	0.165102
C17	C	0.147731	0.000027	0.048435
C18	C	0.074896	0.000031	0.046482
N19	N	0.296520	-0.042843	0.082061
N20	N	0.365710	-0.042848	0.083925
C21	C	0.395851	0.000005	0.170981
N22	N	0.354188	0.042853	0.256123
N23	N	0.284992	0.042854	0.254262
C24	C	0.255381	0.000010	0.167207
C25	C	0.503492	0.000001	0.289762
C26	C	0.576330	0.000010	0.291714
C27	C	0.591827	0.000014	0.060344
C28	C	0.518990	0.000013	0.058395
C29	C	0.474827	0.000003	0.173108
C30	C	0.868313	-0.218754	0.245895
C31	C	0.868324	-0.298002	0.245891
C32	C	0.825601	-0.337644	0.169102
C33	C	0.782878	-0.298032	0.092286
C34	C	0.782873	-0.218786	0.092283
N35	N	0.764432	-0.462084	0.165977
N36	N	0.764438	-0.537364	0.165988
C37	C	0.825614	-0.576408	0.169106
N38	N	0.886784	-0.537327	0.172239
N39	N	0.886777	-0.462039	0.172235
C40	C	0.825602	-0.423573	0.169097
C41	C	0.868351	-0.701940	0.245907
C42	C	0.868364	-0.781189	0.245894
C43	C	0.782911	-0.781217	0.092296
C44	C	0.782904	-0.701970	0.092302
C45	C	0.825624	-0.662336	0.169114
C46	C	0.953214	0.000015	0.159123
C47	C	1.030733	0.000021	0.161194
C48	C	0.829554	0.000012	-0.062993
C49	C	0.827474	0.000016	-0.203895
N50	N	0.825641	0.179175	0.169102
C51	C	0.747773	0.000298	-0.385563
C52	C	0.749881	0.000014	-0.238991
C53	C	0.864804	-0.071877	-0.266380
C54	C	0.862156	-0.071937	-0.412866
C55	C	0.863756	0.071231	-0.413413
C56	C	0.864471	0.072181	-0.266447
C57	C	0.821674	0.000013	0.401200
C58	C	0.823754	0.000014	0.542102
H59	H	0.023443	0.000007	0.371254
N60	N	0.830281	0.138922	-0.214345
N61	N	0.803377	0.184353	-0.285841
H62	H	0.779237	0.231492	-0.249033
N63	N	0.458364	-0.000004	0.406917
N64	N	0.415981	-0.053071	0.431633
H65	H	0.384109	-0.053074	0.514373
H66	H	0.495652	0.000015	-0.036595
H67	H	0.599666	0.000009	0.386709
H68	H	0.627789	0.000018	-0.033047
N69	N	0.832262	0.139584	-0.452316
N70	N	0.779947	0.136637	-0.513309
H71	H	0.757698	0.184907	-0.540788
H72	H	0.921042	0.076523	-0.243474
N73	N	0.911942	-0.178282	0.324381
N74	N	0.950076	-0.213658	0.392961
H75	H	0.980886	-0.185074	0.448400
H76	H	0.903113	-0.330252	0.308434
H77	H	0.748113	-0.669725	0.029768
H78	H	0.917959	-0.075198	-0.462066
H79	H	0.720507	0.051550	-0.195737
N80	N	0.161511	0.000006	0.398975
N81	N	0.122072	-0.000002	0.501384
H82	H	0.142747	-0.000010	0.585551
H83	H	0.717238	-0.050970	-0.415099
N84	N	0.709335	0.064972	-0.420613
N85	N	0.698764	0.074764	-0.534422
H86	H	0.671619	0.120443	-0.559187
H87	H	0.183699	0.000028	-0.044954
H88	H	0.748093	-0.330313	0.029763
N89	N	0.912010	-0.661452	0.324322
N90	N	0.976997	-0.670286	0.308796
H91	H	1.007836	-0.641691	0.364167
N92	N	0.936284	-0.075258	-0.239906
N93	N	0.974463	-0.128881	-0.282137
H94	H	1.024945	-0.131271	-0.263434
H95	H	0.720285	-0.051608	-0.196585
N96	N	0.832249	-0.138989	-0.212220
N97	N	0.781564	-0.134058	-0.127620
H98	H	0.758567	-0.181454	-0.089370
H99	H	0.834551	-0.125679	-0.440459
N100	N	0.739233	-0.178340	0.013814
N101	N	0.701095	-0.213739	-0.054757
H102	H	0.670274	-0.185174	-0.110178
H103	H	0.903157	-0.813432	0.308430
H104	H	0.748126	-0.813493	0.029772
N105	N	0.934068	0.071857	-0.474183
N106	N	0.984467	0.070058	-0.408324
H107	H	1.034125	0.070497	-0.451243
H108	H	0.051559	0.000038	-0.048512
