data_functionalizedCrystal
_audit_creation_method	'MofGen! by Chris Wilmer'
_symmetry_space_group_name_H-M	'P1'
_symmetry_Int_Tables_number	1
_symmetry_cell_setting	triclinic
loop_
_symmetry_equiv_pos_as_xyz
  x,y,z
_cell_length_a	15.944557
_cell_length_b	14.421503
_cell_length_c	10.489741
_cell_angle_alpha	89.995382
_cell_angle_beta	95.979729
_cell_angle_gamma	89.994217
loop_
_atom_site_label
_atom_site_type_symbol
_atom_site_fract_x
_atom_site_fract_y
_atom_site_fract_z
O1	O	-1.115515	0.077071	0.164524
O2	O	-0.871088	0.077082	0.184797
O3	O	-0.998863	0.077071	-0.011014
O4	O	-0.987740	0.077082	0.360336
O5	O	-0.998842	-0.077153	-0.010985
O6	O	-0.871067	-0.077142	0.184826
O7	O	-1.115494	-0.077152	0.164553
Cu8	Cu	-0.993278	-0.091229	0.174693
Cu9	Cu	-0.993303	0.091158	0.174658
O10	O	-0.987718	-0.077141	0.360365
C11	C	-0.839778	-0.000029	0.183969
C12	C	-0.746517	-0.000025	0.181441
C13	C	-0.475111	-0.000043	0.052511
C14	C	-0.526056	-0.076083	0.114680
C15	C	-0.410821	-0.000047	0.172427
C16	C	-0.526058	0.075969	0.114683
C17	C	-0.575761	-0.000034	0.176850
C18	C	-0.460538	-0.076149	0.234564
C19	C	-0.460536	0.075971	0.234550
C20	C	-0.511448	-0.000087	0.296806
C21	C	-0.315805	-0.000055	0.169876
C22	C	-0.670775	-0.000033	0.179410
N23	N	-0.993267	-0.219510	0.174716
C24	C	-0.934173	-0.469159	0.265218
C25	C	-1.010221	-0.530964	0.289984
C26	C	-0.993287	-0.408671	0.174686
C27	C	-0.917258	-0.530960	0.149950
C28	C	-0.993300	-0.591393	0.174659
C29	C	-1.069374	-0.469116	0.199508
C30	C	-0.976361	-0.469107	0.059424
C31	C	-1.052464	-0.530884	0.084141
C32	C	-0.993279	-0.303410	0.174704
C33	C	-0.993317	-0.696652	0.174640
C34	C	-0.146805	-0.000044	0.165365
C35	C	-0.240070	-0.000056	0.167840
C36	C	-0.998013	-0.000040	-0.058519
C37	C	-0.995499	-0.000039	-0.200114
N38	N	-0.993322	0.219440	0.174625
C39	C	-0.914199	-0.000028	-0.267130
C40	C	-0.952594	-0.076070	-0.359769
C41	C	-0.952634	0.075982	-0.359773
C42	C	-1.033927	-0.076143	-0.290888
C43	C	-1.033956	0.075977	-0.290882
C44	C	-1.072410	-0.000083	-0.383495
C45	C	-0.988569	-0.000028	0.407870
C46	C	-0.991083	-0.000024	0.549465
H47	H	-0.554673	-0.140372	0.064048
H48	H	-1.068336	0.140266	-0.260325
Br49	Br	-0.895290	0.183125	-0.410648
Br50	Br	-0.573766	0.183109	0.030222
Br51	Br	-0.952442	-0.423782	-0.102971
Br52	Br	-0.447983	-0.000166	-0.119622
Br53	Br	-0.413019	-0.183414	0.318934
H54	H	-0.527561	-0.000128	0.400164
Br55	Br	-0.802789	-0.000142	-0.182836
Br56	Br	-0.412808	0.183128	0.318868
Br57	Br	-0.810087	-0.576244	0.115097
Br58	Br	-0.895249	-0.183218	-0.410643
H59	H	-1.024550	-0.558134	0.387446
Br60	Br	-0.850937	-0.423980	0.392919
Br61	Br	-1.091203	-0.183412	-0.240283
Br62	Br	-1.176576	-0.424036	0.234547
H63	H	-1.139314	-0.000128	-0.433844
H64	H	-1.102516	-0.557816	0.007564
