data_functionalizedCrystal
_audit_creation_method	'MofGen! by Chris Wilmer'
_symmetry_space_group_name_H-M	'P1'
_symmetry_Int_Tables_number	1
_symmetry_cell_setting	triclinic
loop_
_symmetry_equiv_pos_as_xyz
  x,y,z
_cell_length_a	16.120484
_cell_length_b	11.169417
_cell_length_c	11.169409
_cell_angle_alpha	90.021683
_cell_angle_beta	92.860730
_cell_angle_gamma	87.075575
loop_
_atom_site_label
_atom_site_type_symbol
_atom_site_fract_x
_atom_site_fract_y
_atom_site_fract_z
Zn1	Zn	-0.331861	-1.810613	-0.702767
Zn2	Zn	-0.471304	-1.800271	-0.512238
Zn3	Zn	-0.331907	-1.609895	-0.502098
Zn4	Zn	-0.471231	-1.599680	-0.712871
O5	O	-0.401576	-1.705115	-0.607493
O6	O	-0.350369	-1.977190	-0.677508
O7	O	-0.452862	-1.774964	-0.342946
O8	O	-0.215236	-1.645124	-0.520246
O9	O	-0.452817	-1.969591	-0.537527
O10	O	-0.215202	-1.792590	-0.667676
O11	O	-0.350448	-1.635096	-0.335497
O12	O	-0.350377	-1.440591	-0.530043
O13	O	-0.452694	-1.627714	-0.879477
O14	O	-0.452738	-1.433086	-0.684896
O15	O	-0.350299	-1.782685	-0.872054
O16	O	-0.587959	-1.765059	-0.547324
O17	O	-0.587905	-1.617686	-0.694728
C18	C	-0.401556	-1.393291	-0.607466
C19	C	-0.401567	-1.259891	-0.607485
C20	C	-0.618182	-1.689174	-0.623249
C21	C	-0.710847	-1.682464	-0.630029
C22	C	-0.880507	-1.670221	-0.642433
C23	C	-0.921803	-1.740223	-0.572574
C24	C	-1.016208	-1.733411	-0.579475
C25	C	-0.786094	-1.677032	-0.635533
C26	C	-0.184123	-1.721150	-0.591703
C27	C	-0.091458	-1.727984	-0.584974
C28	C	-0.401483	-1.705214	-0.920529
C29	C	-0.401444	-1.705256	-1.053927
C30	C	-0.401589	-1.018156	-0.607511
C31	C	-0.401577	-1.151557	-0.607493
C32	C	-0.401608	-1.705090	-0.295671
C33	C	-0.401412	-1.705297	-0.162257
H34	H	-0.886257	-1.805269	-0.507581
H35	H	-0.916051	-1.605179	-0.707418
