data_functionalizedCrystal
_audit_creation_method	'MofGen! by Chris Wilmer'
_symmetry_space_group_name_H-M	'P1'
_symmetry_Int_Tables_number	1
_symmetry_cell_setting	triclinic
loop_
_symmetry_equiv_pos_as_xyz
  x,y,z
_cell_length_a	19.121102
_cell_length_b	21.295417
_cell_length_c	21.295411
_cell_angle_alpha	89.978356
_cell_angle_beta	87.537204
_cell_angle_gamma	87.584620
loop_
_atom_site_label
_atom_site_type_symbol
_atom_site_fract_x
_atom_site_fract_y
_atom_site_fract_z
Zn1	Zn	1.073733	-0.291809	-0.396911
Zn2	Zn	1.407067	0.041525	-0.063578
Zn3	Zn	1.740400	0.374858	0.269755
Zn4	Zn	1.073624	-0.397056	-0.291633
Zn5	Zn	1.406958	-0.063723	0.041701
Zn6	Zn	1.740291	0.269610	0.375034
Zn7	Zn	0.956272	-0.287310	-0.287171
Zn8	Zn	1.289606	0.046023	0.046162
Zn9	Zn	1.622939	0.379357	0.379495
Zn10	Zn	0.956238	-0.392544	-0.392382
Zn11	Zn	1.289571	-0.059210	-0.059049
Zn12	Zn	1.622905	0.274123	0.274285
O13	O	1.014967	-0.342180	-0.342024
O14	O	1.348300	-0.008846	-0.008691
O15	O	1.681634	0.324487	0.324642
O16	O	1.172003	-0.309542	-0.386709
O17	O	1.505337	0.023792	-0.053375
O18	O	1.838670	0.357125	0.279958
O19	O	1.058026	-0.382504	-0.202950
O20	O	1.391359	-0.049171	0.130383
O21	O	1.724693	0.284162	0.463716
O22	O	0.971914	-0.199820	-0.301757
O23	O	1.305247	0.133514	0.031576
O24	O	1.638580	0.466847	0.364910
O25	O	1.171923	-0.386867	-0.309361
O26	O	1.505257	-0.053533	0.023972
O27	O	1.838590	0.279800	0.357306
O28	O	1.058212	-0.203125	-0.382383
O29	O	1.391545	0.130208	-0.049049
O30	O	1.724878	0.463542	0.284284
O31	O	0.971808	-0.301874	-0.199673
O32	O	1.305141	0.031459	0.133661
O33	O	1.638475	0.364793	0.466994
O34	O	0.857983	-0.297498	-0.297365
O35	O	1.191317	0.035835	0.035968
O36	O	1.524650	0.369168	0.369302
O37	O	0.971855	-0.379175	-0.481074
O38	O	1.305189	-0.045842	-0.147740
O39	O	1.638522	0.287492	0.185593
O40	O	0.857958	-0.374813	-0.374663
O41	O	1.191292	-0.041479	-0.041330
O42	O	1.524625	0.291854	0.292004
O43	O	1.058179	-0.305166	-0.484401
O44	O	1.391512	0.028168	-0.151068
O45	O	1.724845	0.361501	0.182265
O46	O	1.057993	-0.484545	-0.304969
O47	O	1.391326	-0.151212	0.028364
O48	O	1.724660	0.182122	0.361698
O49	O	0.971750	-0.481229	-0.378989
O50	O	1.305083	-0.147896	-0.045656
O51	O	1.638417	0.185437	0.287678
C52	C	0.832487	-0.335178	-0.335039
C53	C	1.165820	-0.001845	-0.001705
C54	C	1.499153	0.331489	0.331628
C55	C	0.754421	-0.332198	-0.332065
C56	C	1.087754	0.001135	0.001268
C57	C	1.421088	0.334469	0.334601
C58	C	0.717751	-0.371112	-0.370850
C59	C	1.051084	-0.037779	-0.037517
C60	C	1.384417	0.295555	0.295817
C61	C	0.644400	-0.368304	-0.368059
C62	C	0.977733	-0.034970	-0.034726
C63	C	1.311066	0.298363	0.298608
C64	C	0.607720	-0.326584	-0.326480
C65	C	0.941053	0.006750	0.006854
C66	C	1.274387	0.340083	0.340187
C67	C	0.644395	-0.287665	-0.287693
C68	C	0.977729	0.045668	0.045640
C69	C	1.311062	0.379002	0.378973
C70	C	0.717745	-0.290471	-0.290488
C71	C	1.051079	0.042862	0.042845
C72	C	1.384412	0.376196	0.376179
C73	C	0.386251	-0.316092	-0.316035
C74	C	0.719584	0.017241	0.017299
C75	C	1.052917	0.350575	0.350632
C76	C	0.312896	-0.313291	-0.313242
C77	C	0.646229	0.020043	0.020092
C78	C	0.979562	0.353376	0.353425
C79	C	0.312905	-0.393929	-0.393608
C80	C	0.646238	-0.060595	-0.060275
C81	C	0.979572	0.272738	0.273058
C82	C	0.386256	-0.396733	-0.396396
C83	C	0.719590	-0.063400	-0.063063
C84	C	1.052923	0.269933	0.270270
C85	C	0.422925	-0.357813	-0.357613
C86	C	0.756259	-0.024479	-0.024279
C87	C	1.089592	0.308854	0.309054
C88	C	0.532743	-0.323713	-0.323625
C89	C	0.866077	0.009620	0.009709
C90	C	1.199410	0.342953	0.343042
C91	C	0.497901	-0.360680	-0.360471
C92	C	0.831234	-0.027347	-0.027138
C93	C	1.164567	0.305987	0.306195
C94	C	1.014875	-0.505728	-0.341986
C95	C	1.348208	-0.172395	-0.008653
C96	C	1.681542	0.160939	0.324681
C97	C	1.014900	-0.575697	-0.341993
C98	C	1.348233	-0.242364	-0.008660
C99	C	1.681566	0.090970	0.324674
C100	C	1.059847	-0.610271	-0.303494
C101	C	1.393180	-0.276937	0.029840
C102	C	1.726513	0.056396	0.363173
C103	C	1.059879	-0.676014	-0.303509
C104	C	1.393213	-0.342681	0.029824
C105	C	1.726546	-0.009348	0.363158
C106	C	1.014953	-0.707181	-0.342017
C107	C	1.348286	-0.373848	-0.008684
C108	C	1.681620	-0.040515	0.324650
C109	C	0.970003	-0.672600	-0.380524
C110	C	1.303337	-0.339266	-0.047191
C111	C	1.636670	-0.005933	0.286143
C112	C	0.969977	-0.606857	-0.380512
C113	C	1.303310	-0.273524	-0.047179
C114	C	1.636643	0.059809	0.286154
N115	N	0.953513	-0.808095	-0.344464
N116	N	1.286846	-0.474761	-0.011130
N117	N	1.620180	-0.141428	0.322203
N118	N	0.953540	-0.870547	-0.344471
N119	N	1.286874	-0.537214	-0.011138
N120	N	1.620207	-0.203880	0.322195
C121	C	1.015032	-0.905259	-0.342056
C122	C	1.348365	-0.571926	-0.008723
C123	C	1.681698	-0.238592	0.324611
N124	N	1.076496	-0.875159	-0.339620
N125	N	1.409830	-0.541826	-0.006287
N126	N	1.743163	-0.208493	0.327046
N127	N	1.076468	-0.812701	-0.339609
N128	N	1.409802	-0.479368	-0.006276
N129	N	1.743135	-0.146034	0.327057
C130	C	1.014977	-0.778468	-0.342034
C131	C	1.348311	-0.445134	-0.008701
C132	C	1.681644	-0.111801	0.324632
C133	C	1.060018	-1.011120	-0.303571
C134	C	1.393351	-0.677787	0.029762
C135	C	1.726685	-0.344453	0.363096
C136	C	1.060052	-1.076865	-0.303591
C137	C	1.393385	-0.743532	0.029742
C138	C	1.726719	-0.410198	0.363076
C139	C	0.970170	-1.073449	-0.380603
C140	C	1.303503	-0.740115	-0.047269
C141	C	1.636836	-0.406782	0.286064
C142	C	0.970142	-1.007705	-0.380586
C143	C	1.303475	-0.674372	-0.047253
C144	C	1.636808	-0.341039	0.286080
C145	C	1.015065	-0.976545	-0.342067
C146	C	1.348398	-0.643211	-0.008734
C147	C	1.681732	-0.309878	0.324600
C148	C	1.198160	-0.349209	-0.349038
C149	C	1.531493	-0.015876	-0.015704
C150	C	1.864826	0.317457	0.317629
C151	C	1.276226	-0.352205	-0.352026
C152	C	1.609559	-0.018871	-0.018693
C153	C	1.942892	0.314462	0.314640
C154	C	1.015025	-0.342169	-0.506217
C155	C	1.348359	-0.008835	-0.172884
C156	C	1.681692	0.324498	0.160450
C157	C	1.015050	-0.342164	-0.576186
C158	C	1.348383	-0.008831	-0.242853
C159	C	1.681717	0.324503	0.090481
C160	C	1.015079	-0.177994	-0.342077
C161	C	1.348412	0.155340	-0.008744
C162	C	1.681745	0.488673	0.324589
C163	C	1.015126	-0.108027	-0.342100
C164	C	1.348459	0.225306	-0.008767
C165	C	1.681793	0.558639	0.324567
C166	C	1.059997	-0.303625	-0.610786
C167	C	1.393330	0.029708	-0.277453
C168	C	1.726663	0.363041	0.055880
C169	C	1.059996	-0.303598	-0.676529
C170	C	1.393329	0.029735	-0.343196
C171	C	1.726662	0.363069	-0.009862
C172	C	1.015056	-0.342121	-0.707669
C173	C	1.348389	-0.008788	-0.374335
C174	C	1.681722	0.324546	-0.041002
C175	C	0.970100	-0.380662	-0.673060
C176	C	1.303434	-0.047329	-0.339727
C177	C	1.636767	0.286005	-0.006394
C178	C	0.970098	-0.380683	-0.607319
C179	C	1.303431	-0.047350	-0.273985
C180	C	1.636764	0.285983	0.059348
N181	N	1.009637	-0.396981	-0.810677
N182	N	1.342970	-0.063648	-0.477344
N183	N	1.676304	0.269686	-0.144011
N184	N	1.009644	-0.396959	-0.873129
N185	N	1.342977	-0.063626	-0.539796
N186	N	1.676310	0.269708	-0.206462
C187	C	1.015060	-0.342057	-0.905744
C188	C	1.348393	-0.008724	-0.572410
C189	C	1.681727	0.324609	-0.239077
N190	N	1.020483	-0.287178	-0.873548
N191	N	1.353817	0.046156	-0.540215
N192	N	1.687150	0.379489	-0.206881
N193	N	1.020480	-0.287201	-0.811091
N194	N	1.353814	0.046133	-0.477757
N195	N	1.687147	0.379466	-0.144424
C196	C	1.015053	-0.342101	-0.778954
C197	C	1.348387	-0.008768	-0.445621
C198	C	1.681720	0.324565	-0.112287
C199	C	1.060008	-0.303486	-1.011630
C200	C	1.393341	0.029848	-0.678296
C201	C	1.726675	0.363181	-0.344963
C202	C	1.060002	-0.303457	-1.077373
C203	C	1.393335	0.029876	-0.744040
C204	C	1.726669	0.363210	-0.410707
C205	C	0.970110	-0.380527	-1.073904
C206	C	1.303444	-0.047193	-0.740570
C207	C	1.636777	0.286140	-0.407237
C208	C	0.970113	-0.380550	-1.008161
C209	C	1.303446	-0.047216	-0.674828
C210	C	1.636779	0.286117	-0.341494
C211	C	1.015065	-0.342030	-0.977028
C212	C	1.348398	-0.008697	-0.643695
C213	C	1.681732	0.324637	-0.310362
C214	C	1.014949	-0.342147	-0.178472
C215	C	1.348283	-0.008814	0.154861
C216	C	1.681616	0.324520	0.488195
C217	C	1.015061	-0.341979	-0.108509
C218	C	1.348394	-0.008646	0.224825
C219	C	1.681727	0.324687	0.558158
H220	H	0.416098	-0.284405	-0.284449
H221	H	0.749431	0.048929	0.048884
H222	H	1.082764	0.382262	0.382217
H223	H	0.933512	-0.411886	-1.099257
H224	H	1.266845	-0.078553	-0.765923
H225	H	1.600179	0.254781	-0.432590
Br226	Br	1.120981	-0.968827	-0.251295
Br227	Br	1.454314	-0.635493	0.082039
Br228	Br	1.787648	-0.302160	0.415372
Br229	Br	1.120883	-0.722946	-0.251256
Br230	Br	1.454216	-0.389613	0.082077
Br231	Br	1.787550	-0.056279	0.415410
Br232	Br	0.767513	-0.237653	-0.237853
Br233	Br	1.100846	0.095680	0.095480
Br234	Br	1.434180	0.429013	0.428814
H235	H	1.096427	-0.584902	-0.272131
H236	H	1.429761	-0.251568	0.061203
H237	H	1.763094	0.081765	0.394536
Br238	Br	1.121017	-0.251160	-1.124333
Br239	Br	1.454351	0.082173	-0.791000
Br240	Br	1.787684	0.415507	-0.457667
H241	H	0.614546	-0.399992	-0.399641
H242	H	0.947879	-0.066659	-0.066308
H243	H	1.281213	0.266674	0.267026
H244	H	0.283041	-0.425615	-0.425185
H245	H	0.616375	-0.092281	-0.091851
H246	H	0.949708	0.241052	0.241482
Br247	Br	0.908974	-0.559932	-0.432767
Br248	Br	1.242307	-0.226599	-0.099433
Br249	Br	1.575640	0.106734	0.233900
Br250	Br	0.909093	-0.432989	-0.560358
Br251	Br	1.242426	-0.099656	-0.227024
Br252	Br	1.575759	0.233678	0.106309
Br253	Br	0.909111	-0.432856	-0.961200
Br254	Br	1.242445	-0.099523	-0.627867
Br255	Br	1.575778	0.233811	-0.294533
Br256	Br	1.121011	-0.251209	-0.969374
Br257	Br	1.454344	0.082125	-0.636041
Br258	Br	1.787677	0.415458	-0.302707
H259	H	1.096658	-1.105014	-0.272241
H260	H	1.429991	-0.771681	0.061092
H261	H	1.763324	-0.438347	0.394425
H262	H	0.747610	-0.405087	-0.404706
H263	H	1.080943	-0.071754	-0.071373
H264	H	1.414277	0.261580	0.261961
Br265	Br	0.909037	-0.714896	-0.432790
Br266	Br	1.242370	-0.381563	-0.099457
Br267	Br	1.575703	-0.048229	0.233876
H268	H	0.933593	-1.098824	-0.411959
H269	H	1.266926	-0.765491	-0.078626
H270	H	1.600259	-0.432158	0.254707
Br271	Br	0.482958	-0.267093	-0.267199
Br272	Br	0.816291	0.066241	0.066134
Br273	Br	1.149625	0.399574	0.399468
Br274	Br	0.263116	-0.256674	-0.256802
Br275	Br	0.596450	0.076660	0.076531
Br276	Br	0.929783	0.409993	0.409865
Br277	Br	0.436031	-0.453359	-0.452824
Br278	Br	0.769364	-0.120026	-0.119491
Br279	Br	1.102698	0.213308	0.213843
Br280	Br	0.909137	-0.960780	-0.432837
Br281	Br	1.242471	-0.627447	-0.099504
Br282	Br	1.575804	-0.294114	0.233830
H283	H	1.096600	-0.272259	-0.585442
H284	H	1.429933	0.061074	-0.252109
H285	H	1.763266	0.394408	0.081224
H286	H	1.096595	-0.272212	-0.704706
H287	H	1.429928	0.061121	-0.371373
H288	H	1.763262	0.394455	-0.038039
H289	H	0.614525	-0.253693	-0.253842
H290	H	0.947858	0.079640	0.079492
H291	H	1.281192	0.412974	0.412825
H292	H	0.527768	-0.394646	-0.394328
H293	H	0.861102	-0.061312	-0.060994
H294	H	1.194435	0.272021	0.272339
Br295	Br	0.909105	-0.432939	-0.715319
Br296	Br	1.242438	-0.099605	-0.381986
Br297	Br	1.575771	0.233728	-0.048653
