data_functionalizedCrystal
_audit_creation_method	'MofGen! by Chris Wilmer'
_symmetry_space_group_name_H-M	'P1'
_symmetry_Int_Tables_number	1
_symmetry_cell_setting	triclinic
loop_
_symmetry_equiv_pos_as_xyz
  x,y,z
_cell_length_a	14.908571
_cell_length_b	14.908520
_cell_length_c	14.908308
_cell_angle_alpha	83.639235
_cell_angle_beta	89.824947
_cell_angle_gamma	90.205961
loop_
_atom_site_label
_atom_site_type_symbol
_atom_site_fract_x
_atom_site_fract_y
_atom_site_fract_z
Zn1	Zn	1.316651	-0.470613	0.613065
Zn2	Zn	1.316549	-0.613252	0.470429
Zn3	Zn	1.176020	-0.453291	0.453125
Zn4	Zn	1.157642	-0.612180	0.612023
O5	O	1.241715	-0.537334	0.537161
O6	O	1.441995	-0.497231	0.601822
O7	O	1.305556	-0.585232	0.341941
O8	O	1.202409	-0.329399	0.467536
O9	O	1.441920	-0.602028	0.497029
O10	O	1.305730	-0.342124	0.585043
O11	O	1.202310	-0.467710	0.329228
O12	O	1.048225	-0.466671	0.466525
O13	O	1.171086	-0.600202	0.738354
O14	O	1.034722	-0.583406	0.583267
O15	O	1.287909	-0.496192	0.739120
O16	O	1.287736	-0.739300	0.496018
O17	O	1.170987	-0.738513	0.600046
C18	C	1.008970	-0.523043	0.522906
C19	C	0.909397	-0.516953	0.516830
C20	C	0.708277	-0.627234	0.626831
C21	C	0.614720	-0.621514	0.621125
C22	C	0.628723	-0.499789	0.499719
C23	C	0.722281	-0.505509	0.505424
C24	C	0.762054	-0.569235	0.568981
C25	C	0.855613	-0.574958	0.574682
C26	C	0.869615	-0.453230	0.453280
C27	C	0.776058	-0.447510	0.447575
C28	C	1.227379	-0.771629	0.549818
C29	C	1.221326	-0.871868	0.555268
C30	C	1.331634	-1.060998	0.457284
C31	C	1.325950	-1.155181	0.462402
C32	C	1.204279	-1.154420	0.570626
C33	C	1.209963	-1.060237	0.565508
C34	C	1.273642	-1.013529	0.508834
C35	C	1.279321	-0.919343	0.503712
C36	C	1.157655	-0.918584	0.611940
C37	C	1.151970	-1.012768	0.617058
C38	C	1.475370	-0.551681	0.551472
C39	C	1.574939	-0.557795	0.557571
C40	C	1.227459	-0.550010	0.772372
C41	C	1.221383	-0.555411	0.872606
C42	C	1.256131	-0.302127	0.524476
C43	C	1.262274	-0.201896	0.519070
C44	C	1.255972	-0.524646	0.302864
C45	C	1.262236	-0.519001	0.202628
C46	C	1.331614	-0.457236	1.061752
C47	C	1.325908	-0.462308	1.155930
C48	C	1.204264	-0.570623	1.155141
C49	C	1.209969	-0.565551	1.060963
C50	C	1.273647	-0.508856	1.014272
C51	C	1.279356	-0.503789	0.920093
C52	C	1.157708	-0.612099	0.919305
C53	C	1.152002	-0.617171	1.013483
H54	H	0.887995	-0.626848	0.626432
H55	H	1.373175	-1.193828	0.420427
C56	C	1.141491	-0.626461	1.299161
C57	C	1.134260	-0.632922	1.206473
H58	H	1.098273	-0.664923	1.330849
H59	H	1.131167	-0.565899	1.310505
H60	H	1.199935	-0.644194	1.318991
H61	H	1.075818	-0.615183	1.186642
H62	H	1.144578	-0.693497	1.195123
H63	H	1.100127	-1.050810	0.663202
C64	C	0.845479	-0.690057	0.689473
C65	C	0.752004	-0.697283	0.696683
H66	H	0.872471	-0.733308	0.732594
H67	H	0.863700	-0.631149	0.700437
H68	H	0.863659	-0.700828	0.630498
H69	H	0.733823	-0.686506	0.755656
H70	H	0.733776	-0.756205	0.685726
H71	H	0.596323	-0.447902	0.447979
C72	C	1.141550	-1.298464	0.626519
C73	C	1.134287	-1.205772	0.632916
H74	H	1.098334	-1.330164	0.664971
H75	H	1.199991	-1.318234	0.644294
H76	H	1.131235	-1.309855	0.565954
H77	H	1.144608	-1.194380	0.693480
H78	H	1.075832	-1.185995	0.615146
C79	C	1.144243	-0.726936	0.819184
C80	C	1.093982	-0.668844	0.867115
H81	H	1.104902	-0.761965	0.786962
H82	H	1.178927	-0.765797	0.860177
H83	H	1.182976	-0.692439	0.777896
H84	H	1.055253	-0.703342	0.908408
H85	H	1.059282	-0.629979	0.826118
H86	H	1.100156	-0.663328	1.051511
C87	C	0.610280	-0.742408	0.741701
C88	C	0.555607	-0.685270	0.684714
H89	H	0.573784	-0.781771	0.780957
H90	H	0.647078	-0.707261	0.776359
H91	H	0.647045	-0.776953	0.706433
H92	H	0.518846	-0.650720	0.719982
H93	H	0.518793	-0.720420	0.650053
C94	C	1.112339	-0.773872	0.652154
C95	C	1.093906	-0.866404	0.668612
H96	H	1.072986	-0.741660	0.687143
H97	H	1.103880	-0.754410	0.589922
H98	H	1.172650	-0.762790	0.668250
H99	H	1.033596	-0.877487	0.652509
H100	H	1.102357	-0.885872	0.730857
C101	C	1.459292	-0.961692	0.446468
C102	C	1.401622	-1.009649	0.394986
H103	H	1.502495	-0.929989	0.408003
H104	H	1.488929	-1.002607	0.489866
H105	H	1.425560	-0.919943	0.476437
H106	H	1.435353	-1.051402	0.365022
H107	H	1.371982	-0.968730	0.351572
C108	C	1.305618	-0.807696	0.377430
C109	C	1.349315	-0.867999	0.441418
H110	H	1.348833	-0.776005	0.338970
H111	H	1.271902	-0.765947	0.407398
H112	H	1.266494	-0.840244	0.342515
H113	H	1.388435	-0.835451	0.476337
H114	H	1.383046	-0.909753	0.411447
H115	H	1.331207	-0.457627	0.882079
C116	C	1.451286	-0.350685	1.071989
C117	C	1.401607	-0.394922	1.010424
H118	H	1.494493	-0.312211	1.040299
H119	H	1.480918	-0.394056	1.112936
H120	H	1.412136	-0.315774	1.104473
H121	H	1.440757	-0.429838	0.977944
H122	H	1.371974	-0.351545	0.969460
C123	C	1.339364	-0.347471	1.256047
C124	C	1.389627	-0.405563	1.208119
H125	H	1.378704	-0.312433	1.288260
H126	H	1.300638	-0.381961	1.297334
H127	H	1.304672	-0.308610	1.215046
H128	H	1.424314	-0.444428	1.249121
H129	H	1.428368	-0.371070	1.166828
H130	H	0.743661	-0.395624	0.395831
C131	C	1.019248	-0.407946	0.408112
C132	C	0.928730	-0.389470	0.389687
H133	H	1.055741	-0.368583	0.368853
H134	H	1.031678	-0.468731	0.399025
H135	H	1.031717	-0.399040	0.468951
H136	H	0.916260	-0.398383	0.328849
H137	H	0.916295	-0.328671	0.398766
