data_functionalizedCrystal
_audit_creation_method	'MofGen! by Chris Wilmer'
_symmetry_space_group_name_H-M	'P1'
_symmetry_Int_Tables_number	1
_symmetry_cell_setting	triclinic
loop_
_symmetry_equiv_pos_as_xyz
  x,y,z
_cell_length_a	10.723024
_cell_length_b	13.339070
_cell_length_c	9.798715
_cell_angle_alpha	89.999403
_cell_angle_beta	90.004017
_cell_angle_gamma	79.951418
loop_
_atom_site_label
_atom_site_type_symbol
_atom_site_fract_x
_atom_site_fract_y
_atom_site_fract_z
O1	O	-1.704930	0.142225	-0.113497
O2	O	-1.346348	0.155839	-0.113497
O3	O	-1.484486	0.001483	-0.113493
O4	O	-1.566793	0.296581	-0.113501
O5	O	-1.484471	0.001483	0.113489
O6	O	-1.346334	0.155839	0.113485
O7	O	-1.704916	0.142225	0.113485
Zn8	Zn	-1.525623	0.149032	0.149523
Zn9	Zn	-1.525642	0.149032	-0.149536
O10	O	-1.566779	0.296581	0.113481
C11	C	-1.299509	0.154848	-0.000006
C12	C	-1.159959	0.151884	-0.000006
C13	C	-1.113970	0.238253	-0.000009
C14	C	-0.969739	0.235192	-0.000009
C15	C	-1.470575	-0.036303	-0.000004
C16	C	-1.429133	-0.148892	-0.000009
C17	C	-1.751368	-0.511449	-0.000009
C18	C	-1.790309	-0.405666	0.000004
C19	C	-1.700018	-0.341468	0.000000
C20	C	-1.570779	-0.383062	-0.000016
C21	C	-1.531834	-0.488855	-0.000018
C22	C	-1.480485	-0.318874	-0.000009
C23	C	-1.351246	-0.360469	-0.000024
C24	C	-1.312308	-0.466252	-0.000028
C25	C	-1.402598	-0.530450	-0.000024
C26	C	-1.519430	-0.213081	-0.000007
C27	C	-1.299897	-0.190487	-0.000015
C28	C	-1.260956	-0.296270	-0.000028
C29	C	-0.751755	0.143216	-0.000006
C30	C	-0.891305	0.146180	-0.000006
C31	C	-1.580689	0.334367	-0.000011
C32	C	-1.622132	0.446956	-0.000015
N33	N	-1.525619	0.149031	0.353623
N34	N	-1.525653	0.149025	-0.353635
C35	C	-1.583523	0.083935	0.421401
C36	C	-1.583542	0.083932	0.578564
H37	H	-1.624656	-0.179225	0.000007
Br38	Br	-0.957308	0.022931	-0.000019
H39	H	-1.633078	0.028203	0.363080
H40	H	-1.092554	0.075673	-0.000038
Br41	Br	-1.752869	-0.197903	0.000013
H42	H	-1.476052	0.204755	0.411946
H43	H	-0.930127	0.309131	-0.000016
Br44	Br	-1.965695	-0.349222	-0.000003
H45	H	-1.207074	-0.500114	-0.000030
Br46	Br	-1.666187	-0.008954	0.675705
Br47	Br	-1.226304	0.365284	-0.000004
H48	H	-1.824868	-0.563728	0.000006
H49	H	-1.476082	0.204763	0.588087
Br50	Br	-1.349753	-0.674020	-0.000226
Br51	Br	-1.085565	-0.352732	-0.000057
Br52	Br	-1.177350	-0.103369	-0.000005
