data_functionalizedCrystal
_audit_creation_method	'MofGen! by Chris Wilmer'
_symmetry_space_group_name_H-M	'P1'
_symmetry_Int_Tables_number	1
_symmetry_cell_setting	triclinic
loop_
_symmetry_equiv_pos_as_xyz
  x,y,z
_cell_length_a	18.101398
_cell_length_b	18.101395
_cell_length_c	19.805399
_cell_angle_alpha	89.974882
_cell_angle_beta	89.976047
_cell_angle_gamma	90.026371
loop_
_atom_site_label
_atom_site_type_symbol
_atom_site_fract_x
_atom_site_fract_y
_atom_site_fract_z
Zn1	Zn	1.132118	-0.294940	-0.382810
Zn2	Zn	1.632118	0.205060	0.117190
Zn3	Zn	1.132015	-0.418784	-0.269627
Zn4	Zn	1.632015	0.081216	0.230373
Zn5	Zn	1.008278	-0.294950	-0.269626
Zn6	Zn	1.508278	0.205050	0.230374
Zn7	Zn	1.008228	-0.418734	-0.382765
Zn8	Zn	1.508228	0.081266	0.117235
O9	O	1.070160	-0.356852	-0.326207
O10	O	1.570160	0.143148	0.173793
O11	O	1.235737	-0.311385	-0.367815
O12	O	1.735737	0.188615	0.132185
O13	O	1.115579	-0.402382	-0.174910
O14	O	1.615579	0.097618	0.325090
O15	O	1.024770	-0.191316	-0.284659
O16	O	1.524770	0.308684	0.215341
O17	O	1.235662	-0.402372	-0.284660
O18	O	1.735662	0.097628	0.215340
O19	O	1.115755	-0.191309	-0.367815
O20	O	1.615755	0.308691	0.132185
O21	O	1.024670	-0.311402	-0.174910
O22	O	1.524670	0.188598	0.325090
O23	O	0.904638	-0.311354	-0.284615
O24	O	1.404638	0.188646	0.215385
O25	O	1.024685	-0.402288	-0.477488
O26	O	1.524685	0.097712	0.022512
O27	O	0.904602	-0.402298	-0.367738
O28	O	1.404602	0.097702	0.132262
O29	O	1.115706	-0.311337	-0.477521
O30	O	1.615706	0.188663	0.022479
O31	O	1.115530	-0.522410	-0.284616
O32	O	1.615530	-0.022410	0.215384
O33	O	1.024584	-0.522374	-0.367738
O34	O	1.524584	-0.022374	0.132262
C35	C	0.877749	-0.356822	-0.326172
C36	C	1.377749	0.143178	0.173828
C37	C	0.795435	-0.356827	-0.326173
C38	C	1.295435	0.143173	0.173827
C39	C	0.496344	-0.356873	-0.326230
C40	C	0.996344	0.143127	0.173770
C41	C	0.527668	-0.299368	-0.274186
C42	C	1.027668	0.200632	0.225814
C43	C	0.613286	-0.299522	-0.273964
C44	C	1.113286	0.200478	0.226036
C45	C	0.644727	-0.356850	-0.326201
C46	C	1.144727	0.143150	0.173799
C47	C	0.613609	-0.434861	-0.306714
C48	C	1.113609	0.065139	0.193286
C49	C	0.527964	-0.434541	-0.306352
C50	C	1.027964	0.065459	0.193648
C51	C	0.527958	-0.337046	-0.397883
C52	C	1.027958	0.162954	0.102117
C53	C	0.613609	-0.335308	-0.397492
C54	C	1.113609	0.164692	0.102508
C55	C	0.728586	-0.356841	-0.326187
C56	C	1.228586	0.143159	0.173813
C57	C	0.412485	-0.356887	-0.326243
C58	C	0.912485	0.143113	0.173757
C59	C	1.070061	-0.549263	-0.326187
C60	C	1.570061	-0.049263	0.173813
C61	C	1.070086	-0.631577	-0.326201
C62	C	1.570086	-0.131577	0.173799
C63	C	1.070249	-0.930668	-0.326238
C64	C	1.570249	-0.430668	0.173762
C65	C	1.013161	-0.899351	-0.378666
C66	C	1.513161	-0.399351	0.121334
C67	C	1.012889	-0.813733	-0.378502
C68	C	1.512889	-0.313733	0.121498
C69	C	1.070168	-0.782285	-0.326220
C70	C	1.570168	-0.282285	0.173780
C71	C	1.049039	-0.813432	-0.254884
C72	C	1.549039	-0.313432	0.245116
C73	C	1.048671	-0.899077	-0.255198
C74	C	1.548671	-0.399077	0.244802
C75	C	1.148590	-0.899019	-0.344518
C76	C	1.648590	-0.399019	0.155482
C77	C	1.148129	-0.813368	-0.346082
C78	C	1.648129	-0.313368	0.153918
C79	C	1.070124	-0.698426	-0.326206
C80	C	1.570124	-0.198426	0.173794
C81	C	1.070291	-1.014527	-0.326247
C82	C	1.570291	-0.514527	0.173753
C83	C	1.263322	-0.356883	-0.326243
C84	C	1.763322	0.143117	0.173757
C85	C	1.345636	-0.356896	-0.326258
C86	C	1.845636	0.143104	0.173742
C87	C	1.070201	-0.356806	-0.502750
C88	C	1.570201	0.143194	-0.002750
C89	C	1.070219	-0.356786	-0.577982
C90	C	1.570219	0.143214	-0.077982
C91	C	1.070279	-0.163690	-0.326242
C92	C	1.570279	0.336310	0.173758
C93	C	1.070330	-0.081376	-0.326257
C94	C	1.570330	0.418624	0.173743
C95	C	1.117615	-0.309425	-0.613344
C96	C	1.617615	0.190575	-0.113344
C97	C	1.117623	-0.309404	-0.684033
C98	C	1.617623	0.190596	-0.184033
C99	C	1.070237	-0.356747	-0.719358
C100	C	1.570237	0.143253	-0.219358
C101	C	1.022836	-0.404110	-0.683990
C102	C	1.522836	0.095890	-0.183990
C103	C	1.022825	-0.404127	-0.613303
C104	C	1.522825	0.095873	-0.113303
C105	C	1.022878	-0.404041	-0.969063
C106	C	1.522878	0.095959	-0.469063
C107	C	1.022894	-0.404021	-1.039756
C108	C	1.522894	0.095979	-0.539756
C109	C	1.117675	-0.309317	-1.039794
C110	C	1.617675	0.190683	-0.539794
C111	C	1.117665	-0.309335	-0.969106
C112	C	1.617665	0.190665	-0.469106
C113	C	1.070261	-0.356694	-0.933745
C114	C	1.570261	0.143306	-0.433745
C115	C	1.070252	-0.356716	-0.857097
C116	C	1.570252	0.143284	-0.357097
C117	C	1.070249	-0.356730	-0.796005
C118	C	1.570249	0.143270	-0.296005
C119	C	1.070161	-0.356845	-0.150351
C120	C	1.570161	0.143155	0.349649
C121	C	1.070287	-0.356656	-0.075120
C122	C	1.570287	0.143344	0.424880
H123	H	0.507097	-0.241343	-0.286267
H124	H	1.007097	0.258657	0.213733
H125	H	1.164063	-0.793008	-0.398582
H126	H	1.664063	-0.293008	0.101418
O127	O	1.168786	-0.258212	-1.077932
O128	O	1.668786	0.241788	-0.577932
H129	H	1.160824	-0.266139	-1.133020
H130	H	1.660824	0.233861	-0.633020
O131	O	0.973984	-0.785109	-0.234000
O132	O	1.473984	-0.285109	0.266000
H133	H	0.951609	-0.748859	-0.274308
H134	H	1.451609	-0.248859	0.225692
H135	H	0.634326	-0.241674	-0.286179
H136	H	1.134326	0.258326	0.213821
H137	H	1.156204	-0.270875	-0.584588
H138	H	1.656204	0.229125	-0.084588
O139	O	0.972815	-0.925629	-0.234694
O140	O	1.472815	-0.425629	0.265306
H141	H	0.936739	-0.877297	-0.224651
H142	H	1.436739	-0.377297	0.275349
H143	H	0.507952	-0.451357	-0.253969
H144	H	1.007952	0.048643	0.246031
O145	O	0.500500	-0.493213	-0.354369
O146	O	1.000500	0.006787	0.145631
H147	H	0.521079	-0.481197	-0.406021
H148	H	1.021079	0.018803	0.093979
O149	O	1.102378	-0.786457	-0.201722
O150	O	1.602378	-0.286457	0.298278
H151	H	1.100973	-0.725194	-0.199785
H152	H	1.600973	-0.225194	0.300215
H153	H	1.167854	-0.920570	-0.395650
H154	H	1.667854	-0.420570	0.104350
O155	O	1.168778	-0.258275	-0.931008
O156	O	1.668778	0.241725	-0.431008
H157	H	1.135652	-0.220604	-0.898796
H158	H	1.635652	0.279396	-0.398796
O159	O	0.499118	-0.316526	-0.204266
O160	O	0.999118	0.183474	0.295734
H161	H	0.521557	-0.275609	-0.167926
H162	H	1.021557	0.224391	0.332074
H163	H	1.088448	-0.919796	-0.214803
H164	H	1.588448	-0.419796	0.285197
O165	O	1.030384	-0.785808	-0.448562
O166	O	1.530384	-0.285808	0.051438
H167	H	0.983612	-0.751886	-0.467292
H168	H	1.483612	-0.251886	0.032708
H169	H	0.984304	-0.442575	-1.068515
H170	H	1.484304	0.057425	-0.568515
H171	H	1.156219	-0.270840	-0.712822
H172	H	1.656219	0.229160	-0.212822
H173	H	0.633740	-0.312630	-0.220869
H174	H	1.133740	0.187370	0.279131
O175	O	0.640580	-0.493144	-0.355346
O176	O	1.140580	0.006856	0.144654
H177	H	0.676540	-0.467065	-0.394012
H178	H	1.176540	0.032935	0.105988
O179	O	0.641962	-0.457526	-0.238073
O180	O	1.141962	0.042474	0.261927
H181	H	0.678207	-0.413360	-0.217729
H182	H	1.178207	0.086640	0.282271
O183	O	0.971715	-0.455081	-0.930927
O184	O	1.471715	0.044919	-0.430927
H185	H	0.938759	-0.487987	-0.967368
H186	H	1.438759	0.012013	-0.467368
H187	H	1.192913	-0.791957	-0.310680
H188	H	1.692913	-0.291957	0.189320
O189	O	0.641956	-0.386757	-0.451602
O190	O	1.141956	0.113243	0.048398
H191	H	0.673243	-0.354531	-0.489789
H192	H	1.173243	0.145469	0.010211
H193	H	0.984252	-0.442655	-0.712757
H194	H	1.484252	0.057345	-0.212757
O195	O	0.971696	-0.455198	-0.575156
O196	O	1.471696	0.044802	-0.075156
H197	H	0.938748	-0.488117	-0.611594
H198	H	1.438748	0.011883	-0.111594
H199	H	0.506386	-0.281150	-0.415602
H200	H	1.006386	0.218850	0.084398
O201	O	0.640555	-0.259268	-0.416967
O202	O	1.140555	0.240732	0.083033
H203	H	0.675967	-0.236905	-0.376049
H204	H	1.175967	0.263095	0.123951
O205	O	0.501118	-0.392517	-0.449252
O206	O	1.001118	0.107483	0.050748
H207	H	0.549269	-0.420640	-0.472547
H208	H	1.049269	0.079360	0.027453
O209	O	1.030222	-0.926927	-0.448899
O210	O	1.530222	-0.426927	0.051101
H211	H	1.079607	-0.963203	-0.447201
H212	H	1.579607	-0.463203	0.052799
H213	H	0.955445	-0.920932	-0.366709
H214	H	1.455445	-0.420932	0.133291
H215	H	1.191123	-0.919270	-0.306333
H216	H	1.691123	-0.419270	0.193667
H217	H	0.954821	-0.793304	-0.366392
H218	H	1.454821	-0.293304	0.133608
