data_functionalizedCrystal
_audit_creation_method	'MofGen! by Chris Wilmer'
_symmetry_space_group_name_H-M	'P1'
_symmetry_Int_Tables_number	1
_symmetry_cell_setting	triclinic
loop_
_symmetry_equiv_pos_as_xyz
  x,y,z
_cell_length_a	23.532407
_cell_length_b	23.532357
_cell_length_c	18.266242
_cell_angle_alpha	89.988103
_cell_angle_beta	89.993638
_cell_angle_gamma	82.838519
loop_
_atom_site_label
_atom_site_type_symbol
_atom_site_fract_x
_atom_site_fract_y
_atom_site_fract_z
O1	O	0.755251	0.069138	-0.060843
O2	O	0.589386	0.079141	-0.060856
O3	O	0.677335	-0.008794	-0.060834
O4	O	0.667302	0.157073	-0.060865
O5	O	0.677320	-0.008799	0.060928
O6	O	0.589371	0.079137	0.060906
O7	O	0.755236	0.069133	0.060918
Zn8	Zn	0.672301	0.074134	0.080244
Zn9	Zn	0.672320	0.074140	-0.080182
O10	O	0.667287	0.157069	0.060897
C11	C	0.677076	-0.030013	0.000049
C12	C	0.676322	-0.093232	0.000056
C13	C	0.568162	0.078884	0.000023
C14	C	0.504945	0.078118	0.000019
C15	C	0.671593	-0.485240	-0.066357
C16	C	0.670876	-0.544640	-0.066361
O17	O	0.670492	-0.575354	-0.122808
N18	N	0.670512	-0.574354	0.000011
C19	C	0.670860	-0.544664	0.066391
O20	O	0.670484	-0.575392	0.122844
C21	C	0.671573	-0.485265	0.066394
C22	C	0.671942	-0.455555	0.000018
C23	C	0.671962	-0.455531	-0.132727
C24	C	0.672680	-0.396135	-0.132723
C25	C	0.673030	-0.366450	-0.066348
C26	C	0.672661	-0.396160	0.000023
C27	C	0.671917	-0.455576	0.132773
C28	C	0.672629	-0.396173	0.132771
C29	C	0.672999	-0.366463	0.066395
C30	C	0.673728	-0.307079	0.066402
N31	N	0.674092	-0.277366	0.000031
C32	C	0.673743	-0.307051	-0.066344
C33	C	0.669361	-0.669405	0.066378
C34	C	0.668652	-0.728804	0.066376
C35	C	0.668667	-0.728776	-0.066376
C36	C	0.669380	-0.669377	-0.066373
C37	C	0.669725	-0.639692	0.000007
C38	C	0.675252	-0.182317	-0.066330
C39	C	0.675972	-0.122917	-0.066319
C40	C	0.675954	-0.122950	0.066432
C41	C	0.675237	-0.182345	0.066422
C42	C	0.674883	-0.212027	0.000035
O43	O	0.674110	-0.276327	0.122821
O44	O	0.674111	-0.276315	-0.122789
C45	C	0.238788	0.022922	0.000049
C46	C	0.298188	0.023633	0.000049
O47	O	0.334940	-0.020154	0.000082
N48	N	0.320805	0.075911	0.000034
C49	C	0.284018	0.127480	0.000027
O50	O	0.308710	0.172012	0.000015
C51	C	0.224619	0.126768	0.000033
C52	C	0.202006	0.074487	0.000040
C53	C	0.216174	-0.029355	0.000057
C54	C	0.156778	-0.030066	0.000056
C55	C	0.119996	0.021499	0.000047
C56	C	0.142610	0.073776	0.000039
C57	C	0.187833	0.178337	0.000031
C58	C	0.128431	0.177620	0.000037
C59	C	0.105818	0.125339	0.000045
C60	C	0.046431	0.124630	0.000029
N61	N	0.023815	0.072353	0.000044
C62	C	0.060597	0.020787	0.000053
C63	C	0.408760	0.128971	0.000017
C64	C	0.468158	0.129684	0.000006
C65	C	0.482324	0.025837	0.000029
C66	C	0.422925	0.025125	0.000035
C67	C	0.386143	0.076694	0.000032
C68	C	-0.064140	0.019297	0.000050
C69	C	-0.123542	0.018591	0.000046
C70	C	-0.137702	0.122438	0.000027
C71	C	-0.078306	0.123145	0.000027
C72	C	-0.041525	0.071570	0.000041
O73	O	0.009644	0.168394	-0.000002
O74	O	0.035897	-0.023737	0.000074
C75	C	0.776459	0.069390	0.000037
C76	C	0.839676	0.070156	0.000037
C77	C	0.667545	0.178288	0.000012
C78	C	0.668300	0.241506	0.000000
N79	N	0.672292	0.074130	0.189731
N80	N	0.672334	0.074140	-0.189669
C81	C	0.711248	0.035211	0.228050
C82	C	0.711252	0.035208	0.304695
C83	C	0.672304	0.074134	0.343018
C84	C	0.633341	0.113056	0.304690
C85	C	0.633334	0.113054	0.228047
N86	N	0.664761	0.124571	0.463341
N87	N	0.664771	0.124571	0.536149
C88	C	0.672320	0.074143	0.573941
N89	N	0.679871	0.023712	0.536174
N90	N	0.679865	0.023713	0.463359
C91	C	0.672307	0.074141	0.426125
C92	C	0.711283	0.035218	0.695366
C93	C	0.711283	0.035214	0.772013
C94	C	0.633374	0.113067	0.772007
C95	C	0.633372	0.113066	0.695362
C96	C	0.672329	0.074141	0.657046
H97	H	0.674961	-0.206477	-0.120388
O98	O	0.676363	-0.090870	-0.137913
H99	H	0.675991	-0.121494	-0.184066
H100	H	0.669680	-0.645191	-0.120422
H101	H	0.601652	0.144759	0.664161
H102	H	-0.034199	-0.022700	0.000061
H103	H	0.672979	-0.371951	-0.186773
H104	H	0.138372	-0.072639	0.000065
H105	H	0.743003	0.003522	0.664168
O106	O	0.088757	0.233242	0.000035
H107	H	0.096761	0.258278	-0.049599
O108	O	0.669741	-0.637391	0.137978
H109	H	0.708887	-0.615626	0.141156
O110	O	0.671571	-0.487542	-0.204323
H111	H	0.671945	-0.456894	-0.250466
O112	O	-0.147930	-0.037802	0.000065
H113	H	-0.133122	-0.062566	-0.049553
O114	O	0.668282	-0.760797	-0.137971
H115	H	0.667716	-0.807090	-0.126816
O116	O	0.591337	0.155050	0.346015
H117	H	0.563803	0.131223	0.380959
O118	O	0.668259	-0.760847	0.137966
H119	H	0.668618	-0.730219	0.184117
H120	H	0.676241	-0.098770	0.120473
O121	O	0.492546	0.186072	-0.000001
H122	H	0.456985	0.221806	-0.000000
O123	O	0.671512	-0.487611	0.204365
H124	H	0.671867	-0.456979	0.250513
O125	O	0.673008	-0.364155	0.204368
H126	H	0.672637	-0.394798	0.250516
H127	H	0.674941	-0.206537	0.120471
O128	O	0.255842	-0.084977	0.000066
H129	H	0.230128	-0.121442	0.000068
O130	O	0.369088	0.184596	0.000001
H131	H	0.394799	0.221063	-0.000017
H132	H	0.404518	-0.017447	0.000041
H133	H	0.512283	-0.016151	0.000037
H134	H	0.206234	0.220910	0.000022
H135	H	-0.167661	0.164421	0.000016
O136	O	-0.053909	0.179531	0.000017
H137	H	-0.089468	0.215268	0.000013
H138	H	0.742968	0.003516	0.196855
O139	O	0.753276	-0.006764	0.346039
H140	H	0.780367	-0.033826	0.306519
O141	O	0.591320	0.155037	0.186710
H142	H	0.564238	0.182107	0.226232
H143	H	0.743004	0.003519	0.803212
H144	H	0.601660	0.144759	0.803209
