data_functionalizedCrystal
_audit_creation_method	'MofGen! by Chris Wilmer'
_symmetry_space_group_name_H-M	'P1'
_symmetry_Int_Tables_number	1
_symmetry_cell_setting	triclinic
loop_
_symmetry_equiv_pos_as_xyz
  x,y,z
_cell_length_a	11.792254
_cell_length_b	11.792241
_cell_length_c	10.268362
_cell_angle_alpha	89.998512
_cell_angle_beta	89.995423
_cell_angle_gamma	84.196007
loop_
_atom_site_label
_atom_site_type_symbol
_atom_site_fract_x
_atom_site_fract_y
_atom_site_fract_z
O1	O	1.506901	0.155631	-0.108300
O2	O	1.756901	0.405631	0.141700
O3	O	2.006901	0.655631	0.391700
O4	O	2.256901	0.905631	0.641700
O5	O	1.176562	0.171649	-0.108303
O6	O	1.426562	0.421649	0.141697
O7	O	1.676562	0.671649	0.391697
O8	O	1.926562	0.921649	0.641697
O9	O	1.349748	-0.001531	-0.108292
O10	O	1.599748	0.248469	0.141708
O11	O	1.849748	0.498469	0.391708
O12	O	2.099748	0.748469	0.641708
O13	O	1.333715	0.328810	-0.108310
O14	O	1.583715	0.578810	0.141690
O15	O	1.833715	0.828810	0.391690
O16	O	2.083715	1.078810	0.641690
O17	O	1.349731	-0.001525	0.108309
O18	O	1.599731	0.248475	0.358309
O19	O	1.849731	0.498475	0.608309
O20	O	2.099731	0.748475	0.858309
O21	O	1.176545	0.171654	0.108298
O22	O	1.426545	0.421654	0.358298
O23	O	1.676545	0.671654	0.608298
O24	O	1.926545	0.921654	0.858298
O25	O	1.506884	0.155637	0.108301
O26	O	1.756884	0.405637	0.358301
O27	O	2.006884	0.655637	0.608301
O28	O	2.256884	0.905637	0.858301
Cu29	Cu	1.341713	0.163646	0.128077
Cu30	Cu	1.591713	0.413646	0.378077
Cu31	Cu	1.841713	0.663646	0.628077
Cu32	Cu	2.091713	0.913646	0.878077
Cu33	Cu	1.341733	0.163639	-0.128079
Cu34	Cu	1.591733	0.413639	0.121921
Cu35	Cu	1.841733	0.663639	0.371921
Cu36	Cu	2.091733	0.913639	0.621921
O37	O	1.333698	0.328816	0.108290
O38	O	1.583698	0.578816	0.358290
O39	O	1.833698	0.828816	0.608290
O40	O	2.083698	1.078816	0.858290
C41	C	1.134263	0.170642	-0.000003
C42	C	1.384263	0.420642	0.249997
C43	C	1.634263	0.670642	0.499997
C44	C	1.884263	0.920642	0.749997
C45	C	1.008250	0.167622	-0.000003
C46	C	1.258250	0.417622	0.249997
C47	C	1.508250	0.667622	0.499997
C48	C	1.758250	0.917622	0.749997
C49	C	0.905913	0.165168	-0.000009
C50	C	1.155913	0.415168	0.249991
C51	C	1.405913	0.665168	0.499991
C52	C	1.655913	0.915168	0.749991
C53	C	0.777527	0.162100	-0.000010
C54	C	1.027527	0.412100	0.249990
C55	C	1.277527	0.662100	0.499990
C56	C	1.527527	0.912100	0.749990
C57	C	1.348732	-0.043819	0.000008
C58	C	1.598732	0.206181	0.250008
C59	C	1.848732	0.456181	0.500008
C60	C	2.098732	0.706181	0.750008
C61	C	1.345718	-0.169832	0.000007
C62	C	1.595718	0.080168	0.250007
C63	C	1.845718	0.330168	0.500007
C64	C	2.095718	0.580168	0.750007
C65	C	1.340175	-0.400545	-0.000015
C66	C	1.590175	-0.150545	0.249985
C67	C	1.840175	0.099455	0.499985
C68	C	2.090175	0.349455	0.749985
C69	C	1.343255	-0.272160	-0.000003
C70	C	1.593255	-0.022160	0.249997
C71	C	1.843255	0.227840	0.499997
C72	C	2.093255	0.477840	0.749997
C73	C	1.549183	0.156643	-0.000002
C74	C	1.799183	0.406643	0.249998
C75	C	2.049183	0.656643	0.499998
C76	C	2.299183	0.906643	0.749998
C77	C	1.675196	0.159663	-0.000010
C78	C	1.925196	0.409663	0.249990
C79	C	2.175196	0.659663	0.499990
C80	C	2.425196	0.909663	0.749990
C81	C	1.334714	0.371104	-0.000012
C82	C	1.584714	0.621104	0.249988
C83	C	1.834714	0.871104	0.499988
C84	C	2.084714	1.121104	0.749988
C85	C	1.337728	0.497118	-0.000020
C86	C	1.587728	0.747118	0.249980
C87	C	1.837728	0.997118	0.499980
C88	C	2.087728	1.247118	0.749980
N89	N	1.341708	0.163650	0.308243
N90	N	1.591708	0.413650	0.558243
N91	N	1.841708	0.663650	0.808243
N92	N	2.091708	0.913650	1.058243
N93	N	1.341747	0.163626	-0.308244
N94	N	1.591747	0.413626	-0.058244
N95	N	1.841747	0.663626	0.191756
N96	N	2.091747	0.913626	0.441756
C97	C	1.341716	0.163651	0.426085
C98	C	1.591716	0.413651	0.676085
C99	C	1.841716	0.663651	0.926085
C100	C	2.091716	0.913651	1.176085
C101	C	1.341730	0.163641	0.573923
C102	C	1.591730	0.413641	0.823923
C103	C	1.841730	0.663641	1.073923
C104	C	2.091730	0.913641	1.323923
