data_functionalizedCrystal
_audit_creation_method	'MofGen! by Chris Wilmer'
_symmetry_space_group_name_H-M	'P1'
_symmetry_Int_Tables_number	1
_symmetry_cell_setting	triclinic
loop_
_symmetry_equiv_pos_as_xyz
  x,y,z
_cell_length_a	19.288864
_cell_length_b	19.188924
_cell_length_c	18.366186
_cell_angle_alpha	89.991683
_cell_angle_beta	89.977106
_cell_angle_gamma	83.139105
loop_
_atom_site_label
_atom_site_type_symbol
_atom_site_fract_x
_atom_site_fract_y
_atom_site_fract_z
O1	O	0.921357	0.087099	-0.060786
O2	O	0.719097	0.098849	-0.060737
O3	O	0.826066	-0.008682	-0.060755
O4	O	0.814388	0.194631	-0.060769
O5	O	0.826048	-0.008687	0.060345
O6	O	0.719079	0.098844	0.060362
O7	O	0.921339	0.087094	0.060313
Zn8	Zn	0.820206	0.092968	0.079565
Zn9	Zn	0.820230	0.092975	-0.079989
O10	O	0.814370	0.194625	0.060330
C11	C	0.693212	0.098468	-0.000181
C12	C	0.616108	0.097333	-0.000162
C13	C	0.571415	0.160428	-0.000178
C14	C	0.498968	0.159362	-0.000186
C15	C	0.471217	0.095197	-0.000192
C16	C	0.515920	0.032095	-0.000172
C17	C	0.588365	0.033163	-0.000157
C18	C	0.362959	0.044759	-0.042640
C19	C	0.290514	0.043694	-0.042660
C20	C	0.247771	0.091901	-0.000236
C21	C	0.277480	0.141185	0.042198
C22	C	0.349925	0.142253	0.042213
C23	C	0.392663	0.094032	-0.000208
C24	C	0.124522	0.153843	-0.000260
C25	C	0.052074	0.152775	-0.000263
C26	C	0.069028	0.025506	-0.000257
C27	C	0.141474	0.026576	-0.000246
C28	C	0.169217	0.090747	-0.000251
C29	C	0.825680	-0.034696	-0.000204
C30	C	0.824547	-0.112201	-0.000202
C31	C	0.824028	-0.148597	-0.066213
C32	C	0.822954	-0.221419	-0.066218
C33	C	0.822412	-0.257845	-0.000209
C34	C	0.822927	-0.221440	0.065811
C35	C	0.823995	-0.148617	0.065815
N36	N	0.860256	-0.377513	0.048912
N37	N	0.859244	-0.446691	0.048904
C38	C	0.819195	-0.477254	-0.000215
N39	N	0.780206	-0.436026	-0.049337
N40	N	0.781222	-0.366842	-0.049331
C41	C	0.821255	-0.336808	-0.000205
C42	C	0.817510	-0.592612	-0.066236
C43	C	0.816432	-0.665436	-0.066239
C44	C	0.816412	-0.665456	0.065793
C45	C	0.817484	-0.592633	0.065793
C46	C	0.818036	-0.556216	-0.000223
C47	C	0.947225	0.087475	-0.000245
C48	C	1.024328	0.088610	-0.000269
C49	C	0.814756	0.220639	-0.000222
C50	C	0.815889	0.298144	-0.000229
N51	N	0.820195	0.092963	0.188456
N52	N	0.820247	0.092975	-0.188880
C53	C	0.867576	0.045371	0.226549
C54	C	0.867581	0.045368	0.302776
C55	C	0.820210	0.092969	0.340909
C56	C	0.772820	0.140564	0.302807
C57	C	0.772812	0.140561	0.226580
C58	C	0.810915	0.156586	0.461666
C59	C	0.810928	0.156590	0.537891
C60	C	0.820230	0.092977	0.576016
C61	C	0.829534	0.029359	0.537907
C62	C	0.829527	0.029356	0.461681
C63	C	0.820213	0.092977	0.423563
C64	C	0.867619	0.045379	0.696764
C65	C	0.867618	0.045375	0.772993
C66	C	0.772861	0.140576	0.773022
C67	C	0.772858	0.140574	0.696794
C68	C	0.820241	0.092976	0.658670
H69	H	0.397755	0.005502	-0.077190
H70	H	0.822484	-0.251102	0.119557
N71	N	0.152877	0.219382	-0.000248
N72	N	0.217561	0.220328	-0.000236
H73	H	0.237587	0.266615	-0.000227
H74	H	0.837101	-0.022445	0.430656
N75	N	0.818029	-0.555442	0.133217
N76	N	0.818984	-0.490423	0.133211
H77	H	0.819367	-0.464156	0.180832
H78	H	0.803356	0.208392	0.568913
N79	N	0.839027	-0.035620	0.576852
N80	N	0.839020	-0.035611	0.644910
H81	H	0.845720	-0.081500	0.672419
N82	N	0.916038	-0.003193	0.187618
N83	N	0.958379	-0.045644	0.221645
H84	H	0.992627	-0.079922	0.194149
N85	N	0.453306	0.223815	-0.000225
N86	N	0.411025	0.237409	-0.051289
H87	H	0.378779	0.282929	-0.051321
N88	N	0.599738	0.225982	-0.000168
N89	N	0.585935	0.268466	0.050874
H90	H	0.605938	0.314765	0.050883
N91	N	0.006428	0.217234	-0.000271
N92	N	0.031211	0.274520	-0.000273
H93	H	-0.001027	0.320047	-0.000277
H94	H	0.734249	0.179320	0.333858
N95	N	0.260156	-0.006637	-0.086000
N96	N	0.216993	0.013516	-0.134583
H97	H	0.195552	-0.022031	-0.165192
H98	H	0.046434	-0.026738	-0.000308
H99	H	0.906166	0.006612	0.333797
H100	H	0.906199	0.006619	0.665722
H101	H	0.824414	-0.118984	0.119571
H102	H	0.374112	0.182380	0.076766
N103	N	0.815852	-0.702641	0.133229
N104	N	0.767014	-0.687919	0.177440
H105	H	0.766616	-0.714182	0.225070
N106	N	0.187122	-0.037880	-0.000232
N107	N	0.162339	-0.095167	-0.000235
H108	H	0.194577	-0.140693	-0.000223
H109	H	0.906200	0.006616	0.804009
N110	N	0.233817	0.190444	0.085511
N111	N	0.169133	0.189493	0.085484
H112	H	0.138292	0.224287	0.116065
H113	H	0.493321	-0.020148	-0.000188
N114	N	0.724470	0.189188	0.811975
N115	N	0.724479	0.189182	0.880033
H116	H	0.690299	0.223513	0.907548
N117	N	0.724404	0.189180	0.187677
N118	N	0.682107	0.231674	0.221728
H119	H	0.647918	0.266013	0.194252
N120	N	0.724454	0.189194	0.657890
N121	N	0.682159	0.231689	0.691942
H122	H	0.647969	0.266027	0.664467
H123	H	0.817956	-0.562960	-0.119991
H124	H	0.824476	-0.118950	-0.119969
N125	N	0.634013	-0.031296	-0.000137
N126	N	0.609231	-0.088583	-0.000136
H127	H	0.641470	-0.134109	-0.000122
N128	N	0.822421	-0.258596	-0.133657
N129	N	0.822912	-0.226072	-0.192593
H130	H	0.822536	-0.252326	-0.240222
H131	H	0.816006	-0.695068	-0.119996
N132	N	0.801420	0.221575	0.422737
N133	N	0.793129	0.278370	0.456768
H134	H	0.786427	0.324268	0.429276
