data_functionalizedCrystal
_audit_creation_method	'MofGen! by Chris Wilmer'
_symmetry_space_group_name_H-M	'P1'
_symmetry_Int_Tables_number	1
_symmetry_cell_setting	triclinic
loop_
_symmetry_equiv_pos_as_xyz
  x,y,z
_cell_length_a	6.817900
_cell_length_b	11.102288
_cell_length_c	11.102193
_cell_angle_alpha	91.949012
_cell_angle_beta	108.604059
_cell_angle_gamma	108.605689
loop_
_atom_site_label
_atom_site_type_symbol
_atom_site_fract_x
_atom_site_fract_y
_atom_site_fract_z
V1	V	-4.111515	-0.175848	-0.396258
O2	O	-4.070547	0.008441	-0.388714
O3	O	-4.088292	-0.348668	-0.393548
O4	O	-4.088289	-0.173147	-0.569079
O5	O	-4.070550	-0.168295	-0.211968
V6	V	-4.588618	-0.153805	-0.374215
O7	O	-4.386855	-0.224203	-0.444610
O8	O	-4.763476	-0.105450	-0.325863
O9	O	-4.388634	0.019016	-0.376925
O10	O	-4.746982	-0.338094	-0.381758
O11	O	-4.746979	-0.161358	-0.558505
O12	O	-4.388637	-0.156505	-0.201393
C13	C	-3.938603	-0.390798	-0.387297
C14	C	-4.001070	-0.532081	-0.386233
C15	C	-4.214425	-0.604929	-0.392074
C16	C	-4.273113	-0.737681	-0.391084
C17	C	-3.905067	-0.724722	-0.378407
C18	C	-3.846387	-0.591975	-0.379406
C19	C	-3.938598	-0.166902	-0.611203
C20	C	-4.001058	-0.165837	-0.752485
C21	C	-4.121387	-0.398616	-0.788813
C22	C	-4.210887	-0.514499	-0.873349
C23	C	-4.269573	-0.513492	-1.006095
C24	C	-4.238760	-0.396588	-1.054306
C25	C	-4.149261	-0.280704	-0.969770
C26	C	-4.090574	-0.281724	-0.837022
C27	C	-4.028948	-0.047930	-0.933443
C28	C	-3.970246	-0.048934	-0.800696
C29	C	-3.998135	0.068974	-0.981654
C30	C	-3.908620	0.184861	-0.897117
C31	C	-3.849930	0.183849	-0.764364
C32	C	-3.880746	0.066950	-0.716160
C33	C	-4.201666	0.061139	-0.383173
C34	C	-4.118438	0.202420	-0.384245
C35	C	-4.201670	-0.162755	-0.159263
C36	C	-4.118447	-0.163813	-0.017979
H37	H	-3.779137	-0.773504	-0.372846
H38	H	-4.286577	-0.395779	-1.162397
C39	C	-4.062682	0.070085	-1.127670
H40	H	-4.120377	-0.015672	-1.171114
H41	H	-4.171463	0.109233	-1.155138
H42	H	-3.935994	0.117366	-1.146843
H43	H	-4.340381	-0.556168	-0.397631
C44	C	-3.816192	0.065838	-0.570144
H45	H	-3.758465	0.151594	-0.526698
H46	H	-3.942856	0.018553	-0.550964
H47	H	-3.707391	0.026693	-0.542685
H48	H	-3.672645	-0.532660	-0.374654
H49	H	-4.446843	-0.796989	-0.395843
H50	H	-3.883555	0.280034	-0.936383
C51	C	-4.056845	-0.399730	-0.642797
H52	H	-4.088029	-0.485946	-0.626192
H53	H	-3.903632	-0.352903	-0.601911
H54	H	-4.139107	-0.361045	-0.610210
C55	C	-4.244764	-0.643083	-0.820314
H56	H	-4.196977	-0.627091	-0.729148
H57	H	-4.396820	-0.694811	-0.853670
H58	H	-4.161354	-0.686666	-0.845393
C59	C	-4.368033	-0.640960	-1.099087
H60	H	-4.377975	-0.710727	-1.051368
H61	H	-4.511146	-0.649460	-1.155765
H62	H	-4.275687	-0.641336	-1.147484
C63	C	-3.751481	0.311324	-0.671384
H64	H	-3.741528	0.381083	-0.719113
H65	H	-3.843800	0.311705	-0.622978
H66	H	-3.608344	0.319836	-0.614710
