data_functionalizedCrystal
_audit_creation_method	'MofGen! by Chris Wilmer'
_symmetry_space_group_name_H-M	'P1'
_symmetry_Int_Tables_number	1
_symmetry_cell_setting	triclinic
loop_
_symmetry_equiv_pos_as_xyz
  x,y,z
_cell_length_a	10.686220
_cell_length_b	14.908178
_cell_length_c	10.686551
_cell_angle_alpha	97.435690
_cell_angle_beta	89.691918
_cell_angle_gamma	97.932243
loop_
_atom_site_label
_atom_site_type_symbol
_atom_site_fract_x
_atom_site_fract_y
_atom_site_fract_z
Zn1	Zn	1.953096	-0.221918	0.545917
Zn2	Zn	1.922619	-0.386673	0.323932
Zn3	Zn	1.725201	-0.245203	0.350507
Zn4	Zn	1.729209	-0.384828	0.549847
O5	O	1.832531	-0.309656	0.442551
O6	O	2.125371	-0.234800	0.503704
O7	O	1.881999	-0.378424	0.151131
O8	O	1.766509	-0.114731	0.385906
O9	O	2.102980	-0.355845	0.340613
O10	O	1.933943	-0.097623	0.529473
O11	O	1.736957	-0.274487	0.170656
O12	O	1.549415	-0.272698	0.389716
O13	O	1.773340	-0.352701	0.725651
O14	O	1.552359	-0.375280	0.536170
O15	O	1.937829	-0.233012	0.722765
O16	O	1.885886	-0.513812	0.344423
O17	O	1.743788	-0.512457	0.510402
C18	C	1.505170	-0.326316	0.466254
C19	C	1.365124	-0.333464	0.476422
C20	C	1.812001	-0.546160	0.424980
C21	C	1.803336	-0.647329	0.417497
C22	C	1.961296	-0.819469	0.553114
C23	C	1.953160	-0.914526	0.546087
C24	C	1.778923	-0.932502	0.396423
C25	C	1.787059	-0.837445	0.403450
C26	C	1.878250	-0.780931	0.481797
C27	C	1.886391	-0.685873	0.488816
C28	C	1.712149	-0.703850	0.339161
C29	C	1.704013	-0.798907	0.332133
C30	C	2.161171	-0.292931	0.418756
C31	C	2.301218	-0.285804	0.408616
C32	C	1.859431	-0.290053	0.771206
C33	C	1.870895	-0.281699	0.911259
C34	C	1.853179	-0.072224	0.460215
C35	C	1.861977	0.028955	0.467743
C36	C	1.805814	-0.329113	0.115174
C37	C	1.794617	-0.337197	-0.024877
H38	H	1.312690	-0.379744	0.542250
H39	H	1.353645	-0.239533	0.342784
Cl40	Cl	1.680254	-0.420429	0.894119
H41	H	1.960646	-0.639860	0.552606
H42	H	2.035555	-0.773454	0.616897
Cl43	Cl	1.985277	-0.198473	0.992265
Cl44	Cl	1.589372	-0.869961	0.233656
Cl45	Cl	2.057562	-0.962970	0.635750
H46	H	1.704675	-0.978531	0.332644
H47	H	1.644531	-0.672463	0.281085
