data_functionalizedCrystal
_audit_creation_method	'MofGen! by Chris Wilmer'
_symmetry_space_group_name_H-M	'P1'
_symmetry_Int_Tables_number	1
_symmetry_cell_setting	triclinic
loop_
_symmetry_equiv_pos_as_xyz
  x,y,z
_cell_length_a	14.971482
_cell_length_b	14.853567
_cell_length_c	14.048226
_cell_angle_alpha	89.998885
_cell_angle_beta	90.004139
_cell_angle_gamma	83.623769
loop_
_atom_site_label
_atom_site_type_symbol
_atom_site_fract_x
_atom_site_fract_y
_atom_site_fract_z
O1	O	1.186969	0.117467	0.079140
O2	O	0.926571	0.131540	0.079144
O3	O	1.063725	-0.006728	0.079145
O4	O	1.049814	0.255734	0.079139
O5	O	1.063712	-0.006727	-0.079177
O6	O	0.926558	0.131541	-0.079178
O7	O	1.186956	0.117468	-0.079181
Zn8	Zn	1.056755	0.124505	-0.104316
Zn9	Zn	1.056772	0.124503	0.104279
O10	O	1.049801	0.255736	-0.079182
C11	C	0.893239	0.130912	-0.000016
C12	C	0.793942	0.129027	-0.000015
C13	C	0.747290	0.128141	-0.086317
C14	C	0.653991	0.126356	-0.086318
C15	C	0.607345	0.125464	-0.000016
C16	C	0.654004	0.126348	0.086293
C17	C	0.747302	0.128127	0.086293
C18	C	0.459541	0.122644	0.086287
C19	C	0.366236	0.120867	0.086287
C20	C	0.366230	0.120873	-0.086324
C21	C	0.459528	0.122651	-0.086324
C22	C	0.506180	0.123537	-0.000015
C23	C	1.063088	-0.040316	-0.000013
C24	C	1.061200	-0.140399	-0.000005
C25	C	0.971742	-0.552915	-0.000022
C26	C	1.134685	-0.574228	-0.000024
C27	C	1.136461	-0.480195	-0.000018
C28	C	1.055876	-0.422517	-0.000016
C29	C	0.973516	-0.458873	-0.000019
C30	C	1.218820	-0.443832	-0.000025
C31	C	1.220599	-0.349793	-0.000020
C32	C	1.140014	-0.292114	-0.000011
C33	C	1.057650	-0.328475	-0.000013
C34	C	0.977065	-0.270797	-0.000011
C35	C	0.894700	-0.307156	-0.000006
C36	C	0.892930	-0.401193	-0.000010
C37	C	1.141784	-0.198077	-0.000007
C38	C	0.978839	-0.176755	-0.000008
C39	C	1.220287	0.118096	-0.000019
C40	C	1.319585	0.119980	-0.000015
C41	C	1.050438	0.289324	-0.000022
C42	C	1.052327	0.389407	-0.000024
N43	N	1.056749	0.124505	-0.246677
C44	C	1.002471	0.069725	-0.703542
C45	C	1.002468	0.069723	-0.603885
C46	C	1.056773	0.124495	-0.554047
C47	C	1.111092	0.179268	-0.603872
C48	C	1.111099	0.179265	-0.703528
C49	C	1.111070	0.179271	-0.396158
C50	C	1.111062	0.179275	-0.296495
C51	C	1.002439	0.069729	-0.296515
C52	C	1.002447	0.069726	-0.396170
C53	C	1.056764	0.124500	-0.445989
N54	N	1.056784	0.124495	0.246639
H55	H	0.328242	0.120152	-0.156600
H56	H	0.958245	0.025128	-0.744113
H57	H	0.829089	-0.260183	-0.000011
H58	H	0.958210	0.025132	-0.255948
H59	H	1.155279	0.223879	-0.255920
H60	H	0.958223	0.025130	-0.436746
H61	H	0.616013	0.125619	-0.156593
H62	H	1.200293	-0.621195	-0.000034
H63	H	0.616018	0.125616	0.156562
H64	H	0.497522	0.123366	0.156569
H65	H	0.497504	0.123383	-0.156598
H66	H	0.958244	0.025121	-0.563327
H67	H	0.785261	0.128874	-0.156594
H68	H	0.785284	0.128851	0.156569
H69	H	1.155304	0.223872	-0.436717
H70	H	0.328260	0.120142	0.156562
H71	H	1.155312	0.223860	-0.563286
H72	H	1.155326	0.223864	-0.744089
H73	H	0.913216	-0.129799	-0.000002
H74	H	0.904682	-0.582523	-0.000014
H75	H	0.825873	-0.430806	-0.000007
H76	H	1.284428	-0.490800	-0.000036
H77	H	1.287666	-0.320198	-0.000023
H78	H	1.208844	-0.168477	-0.000017
