data_functionalizedCrystal
_audit_creation_method	'MofGen! by Chris Wilmer'
_symmetry_space_group_name_H-M	'P1'
_symmetry_Int_Tables_number	1
_symmetry_cell_setting	triclinic
loop_
_symmetry_equiv_pos_as_xyz
  x,y,z
_cell_length_a	6.817900
_cell_length_b	11.102188
_cell_length_c	11.102228
_cell_angle_alpha	91.948638
_cell_angle_beta	108.604565
_cell_angle_gamma	108.603875
loop_
_atom_site_label
_atom_site_type_symbol
_atom_site_fract_x
_atom_site_fract_y
_atom_site_fract_z
V1	V	-4.111507	-0.175842	-0.396257
O2	O	-4.070550	0.008447	-0.388713
O3	O	-4.088275	-0.348661	-0.393547
O4	O	-4.088282	-0.173138	-0.569078
O5	O	-4.070542	-0.168292	-0.211967
V6	V	-4.588612	-0.153798	-0.374214
O7	O	-4.386845	-0.224195	-0.444609
O8	O	-4.763472	-0.105445	-0.325862
O9	O	-4.388638	0.019022	-0.376924
O10	O	-4.746966	-0.338087	-0.381757
O11	O	-4.746973	-0.161348	-0.558503
O12	O	-4.388630	-0.156502	-0.201393
C13	C	-3.938584	-0.390791	-0.387295
C14	C	-4.001043	-0.532074	-0.386232
C15	C	-3.970222	-0.580299	-0.269348
C16	C	-4.028934	-0.713050	-0.268353
C17	C	-4.149279	-0.749341	-0.501137
C18	C	-4.090582	-0.616593	-0.502131
C19	C	-3.938592	-0.166892	-0.611201
C20	C	-4.001053	-0.165825	-0.752483
C21	C	-4.090556	-0.281708	-0.837008
C22	C	-4.149257	-0.280703	-0.969757
C23	C	-4.028933	-0.047920	-0.933444
C24	C	-3.970249	-0.048927	-0.800698
C25	C	-4.420008	-0.423234	-1.177147
C26	C	-4.509481	-0.539123	-1.261675
C27	C	-4.425260	-0.638131	-1.230461
C28	C	-4.251520	-0.621254	-1.114719
C29	C	-4.162031	-0.505363	-1.030196
C30	C	-4.246301	-0.406361	-1.061411
C31	C	-3.699483	0.093596	-0.593307
C32	C	-3.609978	0.209489	-0.508781
C33	C	-3.694180	0.308509	-0.539990
C34	C	-3.867885	0.291646	-0.655733
C35	C	-3.957390	0.175753	-0.740259
C36	C	-3.873188	0.076732	-0.709041
C37	C	-4.201671	0.061145	-0.383172
C38	C	-4.118451	0.202426	-0.384244
C39	C	-4.201662	-0.162752	-0.159263
C40	C	-4.118438	-0.163813	-0.017979
H41	H	-4.115696	-0.577330	-0.597318
Br42	Br	-3.987119	-0.778493	-0.109718
Br43	Br	-4.193167	0.152855	-0.897331
H44	H	-4.182934	-0.701876	-1.089323
Br45	Br	-4.270789	-0.864052	-0.658420
H46	H	-3.936447	0.372276	-0.681146
Br47	Br	-3.585205	-0.040795	-0.550940
H48	H	-3.897316	-0.511486	-0.174975
H49	H	-4.115643	-0.376894	-0.797757
Br50	Br	-3.926255	-0.482449	-0.873130
H51	H	-4.498116	-0.732490	-1.299295
H52	H	-4.650949	-0.552856	-1.355912
Br53	Br	-3.572678	0.465803	-0.425284
Br54	Br	-4.534348	-0.288872	-1.219509
Br55	Br	-3.987120	0.110719	-0.998887
Br56	Br	-3.374202	0.232385	-0.351710
