data_functionalizedCrystal
_audit_creation_method	'MofGen! by Chris Wilmer'
_symmetry_space_group_name_H-M	'P1'
_symmetry_Int_Tables_number	1
_symmetry_cell_setting	triclinic
loop_
_symmetry_equiv_pos_as_xyz
  x,y,z
_cell_length_a	34.571875
_cell_length_b	34.571051
_cell_length_c	34.567439
_cell_angle_alpha	60.004367
_cell_angle_beta	60.008842
_cell_angle_gamma	59.994195
loop_
_atom_site_label
_atom_site_type_symbol
_atom_site_fract_x
_atom_site_fract_y
_atom_site_fract_z
O1	O	0.053721	-0.565181	0.472559
O2	O	0.553721	-0.065181	0.972559
O3	O	0.020283	-0.440038	0.380761
O4	O	0.520283	0.059962	0.880761
O5	O	0.099534	-0.519209	0.380676
O6	O	0.599534	-0.019209	0.880676
O7	O	-0.025530	-0.486010	0.472643
O8	O	0.474470	0.013990	0.972643
O9	O	0.125831	-0.492917	0.406885
O10	O	0.625831	0.007083	0.906885
O11	O	0.046580	-0.413746	0.406969
O12	O	0.546580	0.086254	0.906969
O13	O	0.080018	-0.538889	0.498767
O14	O	0.580018	-0.038889	0.998767
Zn15	Zn	0.067475	-0.472143	0.457030
Zn16	Zn	0.567475	0.027857	0.957030
Zn17	Zn	0.032827	-0.506784	0.422498
Zn18	Zn	0.532827	-0.006784	0.922498
O19	O	0.000767	-0.459718	0.498852
O20	O	0.500767	0.040282	0.998852
N21	N	0.091122	-0.448505	0.480598
N22	N	0.591122	0.051495	0.980598
N23	N	0.009184	-0.530426	0.398930
N24	N	0.509184	-0.030426	0.898930
C25	C	0.124402	-0.415465	0.717633
C26	C	0.624402	0.084535	1.217633
C27	C	0.328327	-0.415388	0.513477
C28	C	0.828327	0.084612	1.013477
C29	C	0.124221	-0.415437	0.513630
C30	C	0.624221	0.084563	1.013630
C31	C	0.124201	-0.211364	0.513624
C32	C	0.624201	0.288636	1.013624
C33	C	0.157075	-0.309853	0.546423
C34	C	0.657075	0.190147	1.046423
C35	C	0.157084	-0.382601	0.546423
C36	C	0.657084	0.117399	1.046423
C37	C	0.175289	-0.364414	0.564591
C38	C	0.675289	0.135586	1.064591
C39	C	0.254624	-0.350722	0.522790
C40	C	0.754624	0.149278	1.022790
C41	C	0.304220	-0.367243	0.506229
C42	C	0.804220	0.132757	1.006229
C43	C	0.304249	-0.447494	0.536832
C44	C	0.804249	0.052506	1.036832
C45	C	0.254655	-0.430972	0.553394
C46	C	0.754655	0.069028	1.053394
C47	C	0.169014	-0.285043	0.497667
C48	C	0.669014	0.214957	0.997667
C49	C	0.152454	-0.235444	0.481153
C50	C	0.652454	0.264556	0.981153
C51	C	0.112020	-0.235469	0.562154
C52	C	0.612020	0.264531	1.062154
C53	C	0.128580	-0.285068	0.578668
C54	C	0.628580	0.214932	1.078668
C55	C	0.108321	-0.370634	0.558439
C56	C	0.608321	0.129366	1.058439
C57	C	0.091776	-0.387168	0.541918
C58	C	0.591776	0.112832	1.041918
C59	C	0.172754	-0.427637	0.501375
C60	C	0.672754	0.072363	1.001375
C61	C	0.189301	-0.411103	0.517891
C62	C	0.689301	0.088897	1.017891
C63	C	0.108399	-0.370649	0.643978
C64	C	0.608399	0.129351	1.143978
C65	C	0.091911	-0.387197	0.693575
C66	C	0.591911	0.112803	1.193575
C67	C	0.172928	-0.427676	0.693511
C68	C	0.672928	0.072324	1.193511
C69	C	0.189415	-0.411128	0.643912
C70	C	0.689415	0.088872	1.143912
C71	C	0.157149	-0.382613	0.619147
C72	C	0.657149	0.117387	1.119147
C73	C	0.229844	-0.382585	0.546371
C74	C	0.729844	0.117415	1.046371
C75	C	0.105624	-0.433333	0.772186
C76	C	0.605624	0.066667	1.272186
C77	C	0.382878	-0.432925	0.495007
C78	C	0.882878	0.067075	0.995007
C79	C	0.105380	-0.433313	0.495792
C80	C	0.605380	0.066687	0.995792
C81	C	0.105683	-0.156808	0.496094
C82	C	0.605683	0.343192	0.996094
C83	C	-0.023527	-0.563458	0.161535
C84	C	0.476473	-0.063458	0.661535
C85	C	-0.023851	-0.767445	0.365663
C86	C	0.476149	-0.267445	0.865663
C87	C	-0.023821	-0.563448	0.365756
C88	C	0.476179	-0.063448	0.865756
C89	C	-0.227785	-0.563229	0.365355
C90	C	0.272215	-0.063229	0.865355
C91	C	-0.129302	-0.596153	0.332678
C92	C	0.370698	-0.096153	0.832678
C93	C	-0.056593	-0.596234	0.332823
C94	C	0.443407	-0.096234	0.832823
C95	C	-0.074746	-0.614396	0.314578
C96	C	0.425254	-0.114396	0.814578
C97	C	-0.088477	-0.693710	0.356299
C98	C	0.411523	-0.193710	0.856299
C99	C	-0.071982	-0.743310	0.372851
C100	C	0.428018	-0.243310	0.872851
C101	C	0.008266	-0.743392	0.342376
C102	C	0.508266	-0.243392	0.842376
C103	C	-0.008230	-0.693794	0.325823
C104	C	0.491770	-0.193794	0.825823
C105	C	-0.154162	-0.608103	0.381422
C106	C	0.345838	-0.108103	0.881422
C107	C	-0.203757	-0.591517	0.397874
C108	C	0.296243	-0.091517	0.897874
C109	C	-0.203630	-0.551037	0.316836
C110	C	0.296370	-0.051037	0.816836
C111	C	-0.154034	-0.567623	0.300384
C112	C	0.345966	-0.067623	0.800384
C113	C	-0.068543	-0.547475	0.320829
C114	C	0.431457	-0.047475	0.820829
C115	C	-0.052041	-0.530969	0.337421
C116	C	0.447959	-0.030969	0.837421
C117	C	-0.011639	-0.611977	0.377990
C118	C	0.488361	-0.111977	0.877990
C119	C	-0.028141	-0.628485	0.361404
C120	C	0.471859	-0.128485	0.861404
C121	C	-0.068417	-0.547482	0.235199
C122	C	0.431583	-0.047482	0.735199
C123	C	-0.051814	-0.530977	0.185602
C124	C	0.448186	-0.030977	0.685602
C125	C	-0.011349	-0.611990	0.185649
C126	C	0.488651	-0.111990	0.685649
C127	C	-0.027951	-0.628493	0.235248
C128	C	0.472049	-0.128493	0.735248
C129	C	-0.056486	-0.596238	0.260022
C130	C	0.443514	-0.096238	0.760022
C131	C	-0.056602	-0.668955	0.332787
C132	C	0.443398	-0.168955	0.832787
C133	C	-0.005599	-0.544662	0.106983
C134	C	0.494401	-0.044662	0.606983
C135	C	-0.006342	-0.821999	0.384121
C136	C	0.493658	-0.321999	0.884121
C137	C	-0.005979	-0.544649	0.383673
C138	C	0.494021	-0.044649	0.883673
C139	C	-0.282336	-0.544682	0.382817
C140	C	0.217664	-0.044682	0.882817
N141	N	0.427518	-0.448428	0.480350
N142	N	0.927518	0.051572	0.980350
O143	O	0.589573	-0.456297	0.363634
O144	O	1.089573	0.043703	0.863634
O145	O	0.589761	-0.548399	0.488643
O146	O	1.089761	-0.048399	0.988643
O147	O	0.589681	-0.548188	0.409364
O148	O	1.089681	-0.048188	0.909364
O149	O	0.589654	-0.456508	0.442913
O150	O	1.089654	0.043492	0.942913
O151	O	0.510890	-0.521988	0.435708
O152	O	1.010890	-0.021988	0.935708
O153	O	0.510970	-0.522199	0.514987
O154	O	1.010970	-0.022199	1.014987
O155	O	0.510782	-0.430098	0.389978
O156	O	1.010782	0.069902	0.889978
Zn157	Zn	0.498366	-0.471989	0.456665
Zn158	Zn	0.998366	0.028011	0.956665
Zn159	Zn	0.602177	-0.506508	0.421956
Zn160	Zn	1.102177	-0.006508	0.921956
O161	O	0.510862	-0.430308	0.469257
O162	O	1.010862	0.069692	0.969257
N163	N	0.673025	-0.530068	0.398267
N164	N	1.173025	-0.030068	0.898267
N165	N	0.091092	-0.112167	0.480590
N166	N	0.591092	0.387833	0.980590
O167	O	-0.025539	0.049976	0.472612
O168	O	0.474461	0.549976	0.972612
O169	O	0.099472	0.050011	0.380491
O170	O	0.599472	0.550011	0.880491
O171	O	0.020155	0.049979	0.380751
O172	O	0.520155	0.549979	0.880751
O173	O	0.053778	0.050009	0.472352
O174	O	0.553778	0.550009	0.972352
O175	O	0.046458	-0.028818	0.407008
O176	O	0.546458	0.471182	0.907008
O177	O	0.125775	-0.028785	0.406748
O178	O	0.625775	0.471215	0.906748
O179	O	0.000764	-0.028821	0.498869
O180	O	0.500764	0.471179	0.998869
Zn181	Zn	0.067445	-0.041314	0.456977
Zn182	Zn	0.567445	0.458686	0.956977
Zn183	Zn	0.032791	0.062504	0.422382
Zn184	Zn	0.532791	0.562504	0.922382
O185	O	0.080081	-0.028788	0.498609
O186	O	0.580081	0.471212	0.998609
N187	N	0.009138	0.133358	0.398771
N188	N	0.509138	0.633358	0.898771
N189	N	0.091421	-0.448552	0.816827
N190	N	0.591421	0.051448	1.316827
O191	O	0.083469	-0.565164	0.978960
O192	O	0.583469	-0.065164	1.478960
O193	O	-0.008614	-0.440110	0.979002
O194	O	0.491386	0.059890	1.479002
O195	O	-0.008399	-0.519410	0.978978
O196	O	0.491601	-0.019410	1.478978
O197	O	0.083253	-0.485863	0.978984
O198	O	0.583253	0.014137	1.478984
O199	O	0.017837	-0.493128	0.900185
O200	O	0.517837	0.006872	1.400185
O201	O	0.017621	-0.413827	0.900208
O202	O	0.517621	0.086173	1.400208
O203	O	0.109704	-0.538881	0.900167
O204	O	0.609704	-0.038881	1.400167
Zn205	Zn	0.067828	-0.472181	0.887677
Zn206	Zn	0.567828	0.027819	1.387677
Zn207	Zn	0.033262	-0.506810	0.991491
Zn208	Zn	0.533262	-0.006810	1.491491
O209	O	0.109489	-0.459581	0.900191
O210	O	0.609489	0.040419	1.400191
N211	N	0.009668	-0.530444	1.062341
N212	N	0.509668	-0.030444	1.562341
C213	C	0.030297	-0.411123	0.381218
C214	C	0.530297	0.088877	0.881218
C215	C	0.128439	-0.509167	0.381113
C216	C	0.628439	-0.009167	0.881113
C217	C	0.070004	-0.567805	0.498310
C218	C	0.570004	-0.067805	0.998310
C219	C	-0.028138	-0.469761	0.498415
C220	C	0.471862	0.030239	0.998415
C221	C	0.550388	-0.547982	0.517564
C222	C	1.050388	-0.047982	1.017564
C223	C	0.550290	-0.547721	0.419387
C224	C	1.050290	-0.047721	0.919387
C225	C	0.550153	-0.430514	0.361058
C226	C	1.050153	0.069486	0.861058
C227	C	0.550253	-0.430775	0.459234
C228	C	1.050253	0.069225	0.959234
C229	C	0.128339	0.010714	0.380902
C230	C	0.628339	0.510714	0.880902
C231	C	0.030148	0.010577	0.381256
C232	C	0.530148	0.510577	0.881256
C233	C	-0.028136	0.010574	0.498426
C234	C	0.471864	0.510574	0.998426
C235	C	0.070089	0.010613	0.498104
C236	C	0.570089	0.510613	0.998104
C237	C	-0.008178	-0.411214	0.939610
C238	C	0.491822	0.088786	1.439610
C239	C	-0.007906	-0.509413	0.939566
C240	C	0.492094	-0.009413	1.439566
C241	C	0.109268	-0.567777	0.939558
C242	C	0.609268	-0.067777	1.439558
C243	C	0.109002	-0.469572	0.939586
C244	C	0.609002	0.030428	1.439586
H245	H	0.052212	-0.377448	0.713786
H246	H	0.552212	0.122552	1.213786
H247	H	0.077150	-0.603753	0.527142
H248	H	0.577150	-0.103753	1.027142
O249	O	0.550470	-0.582433	0.560414
O250	O	1.050470	-0.082433	1.060414
C251	C	0.550474	-0.565369	0.589896
C252	C	1.050474	-0.065369	1.089896
H253	H	0.565352	-0.534935	0.567113
H254	H	1.065352	-0.034935	1.067113
H255	H	0.512684	-0.552242	0.613851
H256	H	1.012684	-0.052242	1.113851
C257	C	0.563157	-0.642954	0.648501
C258	C	1.063157	-0.142954	1.148501
C259	C	0.581434	-0.605577	0.620518
C260	C	1.081434	-0.105577	1.120518
H261	H	0.582252	-0.667756	0.667392
H262	H	1.082252	-0.167756	1.167392
H263	H	0.563153	-0.654450	0.628640
H264	H	1.063153	-0.154450	1.128640
H265	H	0.531665	-0.632008	0.668459
H266	H	1.031665	-0.132008	1.168459
H267	H	0.612922	-0.616522	0.600557
H268	H	1.112922	-0.116522	1.100557
H269	H	0.581444	-0.594084	0.640377
H270	H	1.081444	-0.094084	1.140377
H271	H	0.077290	0.010621	0.526881
H272	H	0.577290	0.510621	1.026881
O273	O	0.143368	-0.460960	0.939496
O274	O	0.643368	0.039040	1.439496
C275	C	0.154220	-0.422582	0.898700
C276	C	0.654220	0.077418	1.398700
H277	H	0.143802	-0.418849	0.870181
H278	H	0.643802	0.081151	1.370181
H279	H	0.133778	-0.388614	0.907938
H280	H	0.633778	0.111386	1.407938
C281	C	0.220559	-0.436174	0.915212
C282	C	0.720559	0.063826	1.415212
C283	C	0.207767	-0.431592	0.880182
C284	C	0.707767	0.068408	1.380182
H285	H	0.253589	-0.441730	0.903790
H286	H	0.753589	0.058270	1.403790
H287	H	0.213247	-0.462029	0.942698
H288	H	0.713247	0.037971	1.442698
H289	H	0.203521	-0.407866	0.922907
H290	H	0.703521	0.092134	1.422907
H291	H	0.224801	-0.459901	0.872492
H292	H	0.724801	0.040099	1.372492
H293	H	0.215083	-0.405742	0.852694
H294	H	0.715083	0.094258	1.352694
O295	O	-0.042713	-0.368388	0.939603
O296	O	0.457287	0.131612	1.439603
C297	C	-0.083496	-0.368403	0.939617
C298	C	0.416504	0.131597	1.439617
H299	H	-0.072993	-0.396458	0.924691
H300	H	0.427007	0.103542	1.424691
H301	H	-0.109238	-0.376681	0.977420
H302	H	0.390762	0.123319	1.477420
C303	C	-0.120358	-0.284882	0.927060
C304	C	0.379642	0.215118	1.427060
C305	C	-0.107457	-0.319337	0.908724
C306	C	0.392543	0.180663	1.408724
H307	H	-0.135140	-0.254616	0.908006
H308	H	0.364860	0.245384	1.408006
H309	H	-0.092883	-0.284872	0.927052
H310	H	0.407117	0.215128	1.427052
H311	H	-0.141807	-0.291786	0.958562
H312	H	0.358193	0.208214	1.458562
H313	H	-0.086004	-0.312436	0.877225
H314	H	0.413996	0.187564	1.377225
H315	H	-0.134929	-0.319345	0.908726
H316	H	0.365071	0.180655	1.408726
H317	H	-0.064060	-0.462687	0.527292
H318	H	0.435940	0.037313	1.027292
H319	H	0.022945	0.010574	0.352477
H320	H	0.522945	0.510574	0.852477
H321	H	0.023152	-0.375173	0.352387
H322	H	0.523152	0.124827	0.852387
O323	O	0.550282	-0.582023	0.410755
O324	O	1.050282	-0.082023	0.910755
C325	C	0.550236	-0.564766	0.364194
C326	C	1.050236	-0.064766	0.864194
H327	H	0.535279	-0.524411	0.351748
H328	H	1.035279	-0.024411	0.851748
H329	H	0.588024	-0.576719	0.339653
H330	H	1.088024	-0.076719	0.839653
C331	C	0.537713	-0.633846	0.378585
C332	C	1.037713	-0.133846	0.878585
C333	C	0.519340	-0.584281	0.363299
C334	C	1.019340	-0.084281	0.863299
H335	H	0.518657	-0.645885	0.378032
H336	H	1.018657	-0.145885	0.878032
H337	H	0.537746	-0.645473	0.409953
H338	H	1.037746	-0.145473	0.909953
H339	H	0.569203	-0.643801	0.358132
H340	H	1.069203	-0.143801	0.858132
H341	H	0.487853	-0.574327	0.383755
H342	H	0.987853	-0.074327	0.883755
H343	H	0.519301	-0.572652	0.331934
H344	H	1.019301	-0.072652	0.831934
H345	H	0.324452	-0.486894	0.542541
H346	H	0.824452	0.013106	1.042541
O347	O	0.171323	-0.517674	0.346717
O348	O	0.671323	-0.017674	0.846717
C349	C	0.200767	-0.564230	0.363830
C350	C	0.700767	-0.064230	0.863830
H351	H	0.187919	-0.576779	0.404184
H352	H	0.687919	-0.076779	0.904184
H353	H	0.199462	-0.588731	0.351832
H354	H	0.699462	-0.088731	0.851832
C355	C	0.267828	-0.549622	0.294656
C356	C	0.767828	-0.049622	0.794656
C357	C	0.252050	-0.565033	0.344220
C358	C	0.752050	-0.065033	0.844220
H359	H	0.299462	-0.550119	0.282558
H360	H	0.799462	-0.050119	0.782558
H361	H	0.247991	-0.518257	0.283125
H362	H	0.747991	-0.018257	0.783125
H363	H	0.266736	-0.570042	0.284664
H364	H	0.766736	-0.070042	0.784664
H365	H	0.253136	-0.544610	0.354211
H366	H	0.753136	-0.044610	0.854211
H367	H	0.271888	-0.596395	0.355752
H368	H	0.771888	-0.096395	0.855752
O369	O	0.143803	-0.610586	0.939459
O370	O	0.643803	-0.110586	1.439459
C371	C	0.183714	-0.604333	0.898654
C372	C	0.683714	-0.104333	1.398654
H373	H	0.172284	-0.569638	0.870141
H374	H	0.672284	-0.069638	1.370141
H375	H	0.210458	-0.603242	0.907881
H376	H	0.710458	-0.103242	1.407881
C377	C	0.220665	-0.688457	0.915155
C378	C	0.720665	-0.188457	1.415155
C379	C	0.206626	-0.645846	0.880133
C380	C	0.706626	-0.145846	1.380133
H381	H	0.234800	-0.714065	0.903731
H382	H	0.734800	-0.214065	1.403731
H383	H	0.193777	-0.692670	0.942647
H384	H	0.693777	-0.192670	1.442647
H385	H	0.242949	-0.687541	0.922841
H386	H	0.742949	-0.187541	1.422841
H387	H	0.184338	-0.646760	0.872452
H388	H	0.684338	-0.146760	1.372452
H389	H	0.233511	-0.641634	0.852639
H390	H	0.733511	-0.141634	1.352639
O391	O	0.550103	-0.396073	0.318197
O392	O	1.050103	0.103927	0.818197
C393	C	0.550070	-0.413127	0.288724
C394	C	1.050070	0.086873	0.788724
H395	H	0.565031	-0.453483	0.301531
H396	H	1.065031	0.046517	0.801531
H397	H	0.512257	-0.401116	0.290048
H398	H	1.012257	0.098884	0.790048
C399	C	0.562526	-0.343902	0.221714
C400	C	1.062526	0.156098	0.721714
C401	C	0.580906	-0.393467	0.237441
C402	C	1.080906	0.106533	0.737441
H403	H	0.581545	-0.331773	0.190079
H404	H	1.081545	0.168227	0.690079
H405	H	0.562547	-0.332411	0.241570
H406	H	1.062547	0.167589	0.741570
H407	H	0.531016	-0.333899	0.222821
H408	H	1.031016	0.166101	0.722821
H409	H	0.612413	-0.403469	0.236339
H410	H	1.112413	0.096531	0.736339
H411	H	0.580891	-0.404959	0.217583
H412	H	1.080891	0.095041	0.717583
H413	H	-0.223768	-0.527810	0.290539
H414	H	0.276232	-0.027810	0.790539
H415	H	-0.036687	-0.516580	0.939532
H416	H	0.463313	-0.016580	1.439532
O417	O	0.550221	-0.396460	0.467879
O418	O	1.050221	0.103540	0.967879
C419	C	0.550293	-0.413726	0.514431
C420	C	1.050293	0.086274	1.014431
H421	H	0.535417	-0.444160	0.536853
H422	H	1.035417	0.055840	1.036853
H423	H	0.588107	-0.426914	0.513695
H424	H	1.088107	0.073086	1.013695
C425	C	0.537661	-0.336280	0.508452
C426	C	1.037661	0.163720	1.008452
C427	C	0.519385	-0.373657	0.535991
C428	C	1.019385	0.126343	1.035991
H429	H	0.518597	-0.311564	0.521751
H430	H	1.018597	0.188436	1.021751
H431	H	0.537614	-0.324648	0.477088
H432	H	1.037614	0.175352	0.977088
H433	H	0.569171	-0.347277	0.507840
H434	H	1.069171	0.152723	1.007840
H435	H	0.487877	-0.362662	0.536598
H436	H	0.987877	0.137338	1.036598
H437	H	0.519426	-0.385287	0.567356
H438	H	1.019426	0.114713	1.067356
H439	H	0.164166	0.010943	0.351910
H440	H	0.664166	0.510943	0.851910
O441	O	-0.071001	0.010653	0.532885
O442	O	0.428999	0.510653	1.032885
C443	C	-0.106736	0.051450	0.516696
C444	C	0.393264	0.551450	1.016696
H445	H	-0.090606	0.079975	0.487182
H446	H	0.409394	0.579975	0.987182
H447	H	-0.123498	0.042213	0.502576
H448	H	0.376502	0.542213	1.002576
C449	C	-0.164728	0.034925	0.594202
C450	C	0.335272	0.534925	1.094202
C451	C	-0.144917	0.069961	0.557956
C452	C	0.355083	0.569961	1.057956
H453	H	-0.188281	0.046343	0.619653
H454	H	0.311719	0.546343	1.119653
H455	H	-0.140653	0.007438	0.605109
H456	H	0.359347	0.507438	1.105109
H457	H	-0.178692	0.027231	0.582430
H458	H	0.321308	0.527231	1.082430
H459	H	-0.130948	0.077650	0.569727
H460	H	0.369052	0.577650	1.069727
H461	H	-0.168990	0.097449	0.547052
H462	H	0.331010	0.597449	1.047052
O463	O	0.076990	-0.342971	0.619994
O464	O	0.576990	0.157029	1.119994
C465	C	0.030425	-0.335947	0.652546
C466	C	0.530425	0.164053	1.152546
H467	H	0.030548	-0.365855	0.687891
H468	H	0.530548	0.134145	1.187891
H469	H	0.016215	-0.300617	0.657829
H470	H	0.516215	0.199383	1.157829
C471	C	-0.001561	-0.298864	0.589809
C472	C	0.498439	0.201136	1.089809
C473	C	-0.001411	-0.335601	0.633220
C474	C	0.498589	0.164399	1.133220
H475	H	-0.021200	-0.298648	0.577888
H476	H	0.478800	0.201352	1.077888
H477	H	0.029810	-0.303595	0.567878
H478	H	0.529810	0.196405	1.067878
H479	H	-0.013402	-0.269426	0.594218
H480	H	0.486598	0.230574	1.094218
H481	H	0.010435	-0.365038	0.628810
H482	H	0.510435	0.134962	1.128810
H483	H	-0.032781	-0.330875	0.655150
H484	H	0.467219	0.169125	1.155150
H485	H	0.229113	-0.420876	0.623698
H486	H	0.729113	0.079124	1.123698
O487	O	0.204290	-0.455434	0.717543
O488	O	0.704290	0.044566	1.217543
C489	C	0.232978	-0.497018	0.705393
C490	C	0.732978	0.002982	1.205393
H491	H	0.213813	-0.503923	0.691781
H492	H	0.713813	-0.003923	1.191781
H493	H	0.267803	-0.492493	0.676582
H494	H	0.767803	0.007507	1.176582
C495	C	0.266702	-0.530745	0.766148
C496	C	0.766702	-0.030745	1.266148
C497	C	0.243161	-0.539228	0.749433
C498	C	0.743161	-0.039228	1.249433
H499	H	0.272985	-0.556783	0.793313
H500	H	0.772985	-0.056783	1.293313
H501	H	0.247376	-0.502729	0.774333
H502	H	0.747376	-0.002729	1.274333
H503	H	0.295719	-0.526974	0.742134
H504	H	0.795719	-0.026974	1.242134
H505	H	0.214142	-0.542993	0.773445
H506	H	0.714142	-0.042993	1.273445
H507	H	0.262483	-0.567246	0.741254
H508	H	0.762483	-0.067246	1.241254
O509	O	0.044418	-0.375630	0.553607
O510	O	0.544418	0.124370	1.053607
C511	C	0.032461	-0.417314	0.578583
C512	C	0.532461	0.082686	1.078583
H513	H	0.065152	-0.448468	0.569612
H514	H	0.565152	0.051532	1.069612
H515	H	0.018878	-0.424295	0.618279
H516	H	0.518878	0.075705	1.118279
C517	C	-0.046561	-0.373068	0.575378
C518	C	0.453439	0.126932	1.075378
C519	C	-0.006411	-0.411331	0.564356
C520	C	0.493589	0.088669	1.064356
H521	H	-0.070541	-0.369377	0.566604
H522	H	0.429459	0.130623	1.066604
H523	H	-0.038506	-0.344984	0.558553
H524	H	0.461494	0.155016	1.058553
H525	H	-0.057874	-0.378890	0.608458
H526	H	0.442126	0.121110	1.108458
H527	H	0.004905	-0.405505	0.531276
H528	H	0.504905	0.094495	1.031276
H529	H	-0.014465	-0.439414	0.581175
H530	H	0.485535	0.060586	1.081175
H531	H	0.011877	-0.638258	0.165483
H532	H	0.511877	-0.138258	0.665483
H533	H	0.082085	-0.347427	0.581670
H534	H	0.582085	0.152573	1.081670
H535	H	0.198991	-0.450848	0.478149
H536	H	0.698991	0.049152	0.978149
H537	H	0.229008	-0.420842	0.508101
H538	H	0.729008	0.079158	1.008101
O539	O	-0.129956	-0.555992	0.253015
O540	O	0.370044	-0.055992	0.753015
C541	C	-0.162420	-0.527243	0.228040
C542	C	0.337580	-0.027243	0.728040
H543	H	-0.197796	-0.533528	0.251641
H544	H	0.302204	-0.033528	0.751641
H545	H	-0.167667	-0.488402	0.217344
H546	H	0.332333	0.011598	0.717344
C547	C	-0.099560	-0.532099	0.154339
C548	C	0.400440	-0.032099	0.654339
C549	C	-0.143008	-0.539821	0.183325
C550	C	0.356992	-0.039821	0.683325
H551	H	-0.087585	-0.539856	0.126756
H552	H	0.412415	-0.039856	0.626756
H553	H	-0.077687	-0.551466	0.171165
H554	H	0.422313	-0.051466	0.671165
H555	H	-0.103938	-0.499731	0.145431
H556	H	0.396062	0.000269	0.645431
H557	H	-0.138628	-0.572190	0.192238
H558	H	0.361372	-0.072190	0.692238
H559	H	-0.164879	-0.520460	0.166500
H560	H	0.335121	-0.020460	0.666500
H561	H	0.234479	-0.456922	0.572596
H562	H	0.734479	0.043078	1.072596
H563	H	0.234427	-0.311322	0.517070
H564	H	0.734427	0.188678	1.017070
O565	O	0.328270	-0.336260	0.483250
O566	O	0.828270	0.163740	0.983250
C567	C	0.316102	-0.302583	0.442382
C568	C	0.816102	0.197417	0.942382
H569	H	0.302456	-0.317870	0.430998
H570	H	0.802456	0.182130	0.930998
H571	H	0.287311	-0.269154	0.450505
H572	H	0.787311	0.230846	0.950505
C573	C	0.376896	-0.271529	0.416126
C574	C	0.876896	0.228471	0.916126
C575	C	0.360139	-0.290306	0.402142
C576	C	0.860139	0.209694	0.902142
H577	H	0.404059	-0.263954	0.391305
H578	H	0.904059	0.236046	0.891305
H579	H	0.385093	-0.294216	0.443661
H580	H	0.885093	0.205784	0.943661
H581	H	0.352899	-0.243674	0.422895
H582	H	0.852899	0.256326	0.922895
H583	H	0.384134	-0.318164	0.395379
H584	H	0.884134	0.181836	0.895379
H585	H	0.351947	-0.267623	0.374606
H586	H	0.851947	0.232377	0.874606
O587	O	0.196669	-0.309047	0.466282
O588	O	0.696669	0.190953	0.966282
C589	C	0.203659	-0.276510	0.419706
C590	C	0.703659	0.223490	0.919706
H591	H	0.173747	-0.241162	0.419818
H592	H	0.673747	0.258838	0.919818
H593	H	0.238986	-0.271223	0.405469
H594	H	0.738986	0.228777	0.905469
C595	C	0.240719	-0.339278	0.387773
C596	C	0.740719	0.160722	0.887773
C597	C	0.203978	-0.295864	0.387909
C598	C	0.703978	0.204136	0.887909
H599	H	0.240918	-0.351217	0.368158
H600	H	0.740918	0.148783	0.868158
H601	H	0.236011	-0.361199	0.419152
H602	H	0.736011	0.138801	0.919152
H603	H	0.270154	-0.334866	0.375910
H604	H	0.770154	0.165134	0.875910
H605	H	0.174543	-0.300277	0.399777
H606	H	0.674543	0.199723	0.899777
H607	H	0.208681	-0.273944	0.356531
H608	H	0.708681	0.226056	0.856531
H609	H	0.088825	-0.215289	0.588411
H610	H	0.588825	0.284711	1.088411
O611	O	0.163968	-0.211318	0.433793
O612	O	0.663968	0.288682	0.933793
C613	C	0.122273	-0.182626	0.421843
C614	C	0.622273	0.317374	0.921843
H615	H	0.092497	-0.197587	0.449819
H616	H	0.592497	0.302413	0.949819
H617	H	0.111827	-0.145038	0.420205
H618	H	0.611827	0.354962	0.920205
C619	C	0.167630	-0.163472	0.338852
C620	C	0.667630	0.336528	0.838852
C621	C	0.131060	-0.181851	0.373210
C622	C	0.631060	0.318149	0.873210
H623	H	0.173051	-0.162992	0.308852
H624	H	0.673051	0.337008	0.808852
H625	H	0.195721	-0.182801	0.346903
H626	H	0.695721	0.317199	0.846903
H627	H	0.158921	-0.132151	0.337493
H628	H	0.658921	0.367849	0.837493
H629	H	0.139773	-0.213173	0.374573
H630	H	0.639773	0.286827	0.874573
H631	H	0.102971	-0.162527	0.365159
H632	H	0.602971	0.337473	0.865159
H633	H	0.118851	-0.305270	0.618371
H634	H	0.618851	0.194730	1.118371
H635	H	-0.091654	-0.521212	0.255368
H636	H	0.408346	-0.021212	0.755368
O637	O	-0.063473	-0.483597	0.161568
O638	O	0.436527	0.016403	0.661568
C639	C	-0.092209	-0.458670	0.194072
C640	C	0.407791	0.041330	0.694072
H641	H	-0.110282	-0.482300	0.229409
H642	H	0.389718	0.017700	0.729409
H643	H	-0.069349	-0.447999	0.199400
H644	H	0.430651	0.052001	0.699400
C645	C	-0.107870	-0.384914	0.131245
C646	C	0.392130	0.115086	0.631245
C647	C	-0.130071	-0.413936	0.174645
C648	C	0.369929	0.086064	0.674645
H649	H	-0.131224	-0.357319	0.119262
H650	H	0.368776	0.142681	0.619262
H651	H	-0.088509	-0.401707	0.109346
H652	H	0.411491	0.098293	0.609346
H653	H	-0.088821	-0.376027	0.135691
H654	H	0.411179	0.123973	0.635691
H655	H	-0.149115	-0.422827	0.170198
H656	H	0.350885	0.077173	0.670198
H657	H	-0.149436	-0.397143	0.196544
H658	H	0.350564	0.102857	0.696544
H659	H	-0.091707	-0.521211	0.297556
H660	H	0.408293	-0.021211	0.797556
O661	O	-0.016418	-0.675863	0.259338
O662	O	0.483582	-0.175863	0.759338
C663	C	-0.033348	-0.696436	0.247157
C664	C	0.466652	-0.196436	0.747157
H665	H	-0.063899	-0.668172	0.233463
H666	H	0.436101	-0.168172	0.733463
H667	H	-0.003568	-0.712121	0.218399
H668	H	0.496432	-0.212121	0.718399
C669	C	-0.013278	-0.770614	0.308020
C670	C	0.486722	-0.270614	0.808020
C671	C	-0.050804	-0.735900	0.291204
C672	C	0.449196	-0.235900	0.791204
H673	H	-0.024044	-0.794959	0.335189
H674	H	0.475956	-0.294959	0.835189
H675	H	-0.001870	-0.756754	0.316226
H676	H	0.498130	-0.256754	0.816226
H677	H	0.011535	-0.783680	0.284050
H678	H	0.511535	-0.283680	0.784050
H679	H	-0.075614	-0.722831	0.315171
H680	H	0.424386	-0.222831	0.815171
H681	H	-0.062217	-0.749759	0.283003
H682	H	0.437783	-0.249759	0.783003
O683	O	-0.063663	-0.483589	0.325700
O684	O	0.436337	0.016411	0.825700
C685	C	-0.092316	-0.458661	0.296919
C686	C	0.407684	0.041339	0.796919
H687	H	-0.085975	-0.482322	0.278886
H688	H	0.414025	0.017678	0.778886
H689	H	-0.131180	-0.447908	0.319736
H690	H	0.368820	0.052092	0.819736
C691	C	-0.087470	-0.384934	0.281164
C692	C	0.412530	0.115066	0.781164
C693	C	-0.079679	-0.413993	0.259013
C694	C	0.420321	0.086007	0.759013
H695	H	-0.079677	-0.357379	0.257784
H696	H	0.420323	0.142621	0.757784
H697	H	-0.068167	-0.401727	0.300556
H698	H	0.431833	0.098273	0.800556
H699	H	-0.119857	-0.375978	0.300178
H700	H	0.380143	0.124022	0.800178
H701	H	-0.047292	-0.422953	0.240005
H702	H	0.452708	0.077047	0.740005
H703	H	-0.098976	-0.397200	0.239617
H704	H	0.401024	0.102800	0.739617
H705	H	-0.018411	-0.668189	0.371171
H706	H	0.481589	-0.168189	0.871171
O707	O	0.016050	-0.643353	0.405694
O708	O	0.516050	-0.143353	0.905694
C709	C	0.057665	-0.672057	0.380695
C710	C	0.557665	-0.172057	0.880695
H711	H	0.051058	-0.672535	0.351786
H712	H	0.551058	-0.172535	0.851786
H713	H	0.087508	-0.657178	0.363917
H714	H	0.587508	-0.157178	0.863917
C715	C	0.079850	-0.722276	0.450609
C716	C	0.579850	-0.222276	0.950609
C717	C	0.071734	-0.722867	0.415105
C718	C	0.571734	-0.222867	0.915105
H719	H	0.088531	-0.753618	0.471834
H720	H	0.588531	-0.253618	0.971834
H721	H	0.051814	-0.702937	0.467451
H722	H	0.551814	-0.202937	0.967451
H723	H	0.104718	-0.709875	0.436621
H724	H	0.604718	-0.209875	0.936621
H725	H	0.046863	-0.735262	0.429092
H726	H	0.546863	-0.235262	0.929092
H727	H	0.099766	-0.742209	0.398265
H728	H	0.599766	-0.242209	0.898265
O729	O	0.022788	-0.669796	0.302935
O730	O	0.522788	-0.169796	0.802935
C731	C	0.056491	-0.681940	0.262065
C732	C	0.556491	-0.181940	0.762065
H733	H	0.058817	-0.717943	0.266534
H734	H	0.558817	-0.217943	0.766534
H735	H	0.045334	-0.654025	0.229904
H736	H	0.545334	-0.154025	0.729904
C737	C	0.102380	-0.640061	0.249337
C738	C	0.602380	-0.140061	0.749337
C739	C	0.105239	-0.684282	0.254828
C740	C	0.605239	-0.184282	0.754828
H741	H	0.132450	-0.641504	0.244872
H742	H	0.632450	-0.141504	0.744872
H743	H	0.079673	-0.631878	0.276871
H744	H	0.579673	-0.131878	0.776871
H745	H	0.093081	-0.616803	0.222537
H746	H	0.593081	-0.116803	0.722537
H747	H	0.114532	-0.707538	0.281632
H748	H	0.614532	-0.207538	0.781632
H749	H	0.127949	-0.692470	0.227299
H750	H	0.627949	-0.192470	0.727299
H751	H	-0.097938	-0.763465	0.391989
H752	H	0.402062	-0.263465	0.891989
O753	O	0.055253	-0.767577	0.335589
O754	O	0.555253	-0.267577	0.835589
C755	C	0.072465	-0.796267	0.308603
C756	C	0.572465	-0.296267	0.808603
H757	H	0.041855	-0.803660	0.312429
H758	H	0.541855	-0.303660	0.812429
H759	H	0.089599	-0.777178	0.269748
H760	H	0.589599	-0.277178	0.769748
C761	C	0.147068	-0.834324	0.321744
C762	C	0.647068	-0.334324	0.821744
C763	C	0.109472	-0.843408	0.326446
C764	C	0.609472	-0.343408	0.826446
H765	H	0.169897	-0.863402	0.332748
H766	H	0.669897	-0.363402	0.832748
H767	H	0.135473	-0.814994	0.339923
H768	H	0.635473	-0.314994	0.839923
H769	H	0.161341	-0.818415	0.289364
H770	H	0.661341	-0.318415	0.789364
H771	H	0.095196	-0.859310	0.358826
H772	H	0.595196	-0.359310	0.858826
H773	H	0.121066	-0.862742	0.308272
H774	H	0.621066	-0.362742	0.808272
H775	H	-0.127865	-0.673490	0.361973
H776	H	0.372135	-0.173490	0.861973
H777	H	-0.223999	-0.601245	0.437568
H778	H	0.276001	-0.101245	0.937568
O779	O	-0.130209	-0.635795	0.412855
O780	O	0.369791	-0.135795	0.912855
C781	C	-0.162788	-0.642790	0.459407
C782	C	0.337212	-0.142790	0.959407
H783	H	-0.198120	-0.612858	0.459262
H784	H	0.301880	-0.112858	0.959262
H785	H	-0.168089	-0.678103	0.473603
H786	H	0.331911	-0.178103	0.973603
C787	C	-0.100091	-0.679924	0.491456
C788	C	0.399909	-0.179924	0.991456
C789	C	-0.143485	-0.643159	0.491278
C790	C	0.356515	-0.143159	0.991278
H791	H	-0.088184	-0.680154	0.511116
H792	H	0.411816	-0.180154	1.011116
H793	H	-0.078142	-0.675213	0.460093
H794	H	0.421858	-0.175213	0.960093
H795	H	-0.104515	-0.709348	0.503285
H796	H	0.395485	-0.209348	1.003285
H797	H	-0.139060	-0.613735	0.479443
H798	H	0.360940	-0.113735	0.979443
H799	H	-0.165433	-0.647865	0.522640
H800	H	0.334567	-0.147865	1.022640
