data_functionalizedCrystal
_audit_creation_method	'MofGen! by Chris Wilmer'
_symmetry_space_group_name_H-M	'P1'
_symmetry_Int_Tables_number	1
_symmetry_cell_setting	triclinic
loop_
_symmetry_equiv_pos_as_xyz
  x,y,z
_cell_length_a	19.805407
_cell_length_b	19.077119
_cell_length_c	19.805399
_cell_angle_alpha	87.736954
_cell_angle_beta	90.023391
_cell_angle_gamma	92.333261
loop_
_atom_site_label
_atom_site_type_symbol
_atom_site_fract_x
_atom_site_fract_y
_atom_site_fract_z
Zn1	Zn	-1.023851	0.280233	-0.393628
Zn2	Zn	-0.523851	0.780233	0.106372
Zn3	Zn	-1.019206	0.397935	-0.284972
Zn4	Zn	-0.519206	0.897935	0.215028
Zn5	Zn	-0.910670	0.280253	-0.280440
Zn6	Zn	-0.410670	0.780253	0.219560
Zn7	Zn	-0.906066	0.397892	-0.398104
Zn8	Zn	-0.406066	0.897892	0.101896
O9	O	-0.964948	0.339078	-0.339286
O10	O	-0.464948	0.839078	0.160714
O11	O	-1.117951	0.295857	-0.379237
O12	O	-0.617951	0.795857	0.120763
O13	O	-1.004792	0.382350	-0.189655
O14	O	-0.504792	0.882350	0.310345
O15	O	-0.929554	0.181759	-0.291685
O16	O	-0.429554	0.681759	0.208315
O17	O	-1.114539	0.382332	-0.299408
O18	O	-0.614539	0.882332	0.200592
O19	O	-1.012707	0.181745	-0.374843
O20	O	-0.512707	0.681745	0.125157
O21	O	-0.925050	0.295890	-0.186326
O22	O	-0.425050	0.795890	0.313674
O23	O	-0.815343	0.295848	-0.296025
O24	O	-0.315343	0.795848	0.203975
O25	O	-0.921707	0.382258	-0.492226
O26	O	-0.421707	0.882258	0.007774
O27	O	-0.811961	0.382277	-0.382473
O28	O	-0.311961	0.882277	0.117527
O29	O	-1.008243	0.295815	-0.488937
O30	O	-0.508243	0.795815	0.011063
O31	O	-1.000328	0.496420	-0.303749
O32	O	-0.500328	0.996420	0.196251
O33	O	-0.917204	0.496389	-0.386866
O34	O	-0.417204	0.996389	0.113134
C35	C	-0.789093	0.339060	-0.339243
C36	C	-0.289093	0.839060	0.160757
C37	C	-0.713861	0.339070	-0.339242
C38	C	-0.213861	0.839070	0.160758
C39	C	-0.250323	0.384158	-0.384254
C40	C	0.249677	0.884158	0.115746
C41	C	-0.321011	0.384158	-0.384242
C42	C	0.178989	0.884158	0.115758
C43	C	-0.358098	0.339088	-0.339293
C44	C	0.141902	0.839088	0.160707
C45	C	-0.324493	0.294021	-0.294348
C46	C	0.175507	0.794021	0.205652
C47	C	-0.253805	0.294026	-0.294358
C48	C	0.246195	0.794026	0.205642
C49	C	-0.609567	0.294003	-0.294309
C50	C	-0.109567	0.794003	0.205691
C51	C	-0.680259	0.294001	-0.294305
C52	C	-0.180259	0.794001	0.205695
C53	C	-0.676773	0.384135	-0.384194
C54	C	-0.176773	0.884135	0.115806
C55	C	-0.606085	0.384140	-0.384203
C56	C	-0.106085	0.884140	0.115797
C57	C	-0.572486	0.339076	-0.339256
C58	C	-0.072486	0.839076	0.160744
C59	C	-0.495837	0.339077	-0.339269
C60	C	0.004163	0.839077	0.160731
C61	C	-0.434745	0.339082	-0.339283
C62	C	0.065255	0.839082	0.160717
C63	C	-0.957781	0.521942	-0.346300
C64	C	-0.457781	1.021942	0.153700
C65	C	-0.954776	0.600172	-0.349323
C66	C	-0.454776	1.100172	0.150677
C67	C	-0.964980	0.339030	-0.515827
C68	C	-0.464980	0.839030	-0.015827
C69	C	-0.964993	0.339009	-0.591058
C70	C	-0.464993	0.839009	-0.091058
C71	C	-0.141490	0.339094	-0.339321
C72	C	0.358510	0.839094	0.160679
C73	C	-0.216722	0.339093	-0.339314
C74	C	0.283278	0.839093	0.160686
C75	C	-0.933238	1.040524	-0.371037
C76	C	-0.433238	1.540524	0.128963
C77	C	-0.936060	0.967019	-0.368189
C78	C	-0.436060	1.467019	0.131811
C79	C	-0.980782	0.930262	-0.323521
C80	C	-0.480782	1.430262	0.176479
C81	C	-1.022689	0.967013	-0.281703
C82	C	-0.522689	1.467013	0.218297
C83	C	-1.019869	1.040517	-0.284555
C84	C	-0.519869	1.540517	0.215445
C85	C	-0.993863	0.710428	-0.310357
C86	C	-0.493863	1.210428	0.189643
C87	C	-0.996678	0.636919	-0.307507
C88	C	-0.496678	1.136919	0.192493
C89	C	-0.910051	0.636929	-0.393994
C90	C	-0.410051	1.136929	0.106006
C91	C	-0.907232	0.710434	-0.396839
C92	C	-0.407232	1.210434	0.103161
C93	C	-0.949141	0.747180	-0.355024
C94	C	-0.449141	1.247180	0.144976
N95	N	-0.983667	0.855127	-0.320607
N96	N	-0.483667	1.355127	0.179393
N97	N	-0.946259	0.822313	-0.357942
N98	N	-0.446259	1.322313	0.142058
C99	C	-0.972138	1.155501	-0.332248
C100	C	-0.472138	1.655501	0.167752
C101	C	-0.975140	1.077271	-0.329221
C102	C	-0.475140	1.577271	0.170779
C103	C	-0.923484	0.293984	-0.624668
C104	C	-0.423484	0.793984	-0.124668
C105	C	-0.923494	0.293971	-0.695356
C106	C	-0.423494	0.793971	-0.195356
C107	C	-0.965017	0.338978	-0.732433
C108	C	-0.465017	0.838978	-0.232433
C109	C	-1.006528	0.384008	-0.698818
C110	C	-0.506528	0.884008	-0.198818
C111	C	-1.006514	0.384024	-0.628131
C112	C	-0.506514	0.884024	-0.128131
C113	C	-1.006584	0.383942	-0.983889
C114	C	-0.506584	0.883942	-0.483889
C115	C	-1.006596	0.383920	-1.054580
C116	C	-0.506596	0.883920	-0.554580
C117	C	-0.923564	0.293888	-1.051113
C118	C	-0.423564	0.793888	-0.551113
C119	C	-0.923550	0.293905	-0.980427
C120	C	-0.423550	0.793905	-0.480427
C121	C	-0.965058	0.338936	-0.946818
C122	C	-0.465058	0.838936	-0.446818
C123	C	-0.965046	0.338952	-0.870171
C124	C	-0.465046	0.838952	-0.370171
C125	C	-0.965033	0.338960	-0.809079
C126	C	-0.465033	0.838960	-0.309079
C127	C	-0.964958	0.339076	-0.163430
C128	C	-0.464958	0.839076	0.336570
C129	C	-0.965083	0.338899	-0.088191
C130	C	-0.465083	0.838899	0.411809
H131	H	-0.582219	0.257312	-0.257709
H132	H	-0.082219	0.757312	0.242291
H133	H	-0.354694	0.257328	-0.257747
H134	H	0.145306	0.757328	0.242253
H135	H	-0.226449	0.257327	-0.257765
H136	H	0.273551	0.757327	0.242235
Cl137	Cl	-1.046548	0.756613	-0.257788
Cl138	Cl	-0.546548	1.256613	0.242212
Cl139	Cl	-1.058695	0.440632	-0.585879
Cl140	Cl	-0.558695	0.940632	-0.085879
Cl141	Cl	-0.877008	1.086726	-0.427189
Cl142	Cl	-0.377008	1.586726	0.072811
H143	H	-0.889765	0.257223	-1.078486
H144	H	-0.389765	0.757223	-0.578486
H145	H	-0.575892	0.420838	-0.420807
H146	H	-0.075892	0.920838	0.079193
H147	H	-1.059106	0.937082	-0.245336
H148	H	-0.559106	1.437082	0.254664
H149	H	-0.220132	0.420855	-0.420860
H150	H	0.279868	0.920855	0.079140
Cl151	Cl	-1.052896	0.590711	-0.251340
Cl152	Cl	-0.552896	1.090711	0.248660
Cl153	Cl	-0.851017	0.756638	-0.453005
Cl154	Cl	-0.351017	1.256638	0.046995
H155	H	-1.040410	0.420573	-1.084766
H156	H	-0.540410	0.920573	-0.584766
H157	H	-0.889741	0.257253	-0.950242
H158	H	-0.389741	0.757253	-0.450242
H159	H	-0.901941	0.937100	-0.402239
H160	H	-0.401941	1.437100	0.097761
Cl161	Cl	-0.857373	0.590731	-0.446562
Cl162	Cl	-0.357373	1.090731	0.053438
Cl163	Cl	-0.363249	0.440816	-0.440739
Cl164	Cl	0.136751	0.940816	0.059261
H165	H	-1.053992	1.070436	-0.250506
H166	H	-0.553992	1.570436	0.249494
H167	H	-0.889676	0.257330	-0.594485
H168	H	-0.389676	0.757330	-0.094485
H169	H	-0.889691	0.257310	-0.722718
H170	H	-0.389691	0.757310	-0.222718
H171	H	-1.040374	0.420617	-0.956534
H172	H	-0.540374	0.920617	-0.456534
H173	H	-0.704137	0.420831	-0.420790
H174	H	-0.204137	0.920831	0.079210
Cl175	Cl	-0.726882	0.237338	-0.237793
Cl176	Cl	-0.226882	0.737338	0.262207
Cl177	Cl	-1.058724	0.440593	-0.745429
Cl178	Cl	-0.558724	0.940593	-0.245429
