data_functionalizedCrystal
_audit_creation_method	'MofGen! by Chris Wilmer'
_symmetry_space_group_name_H-M	'P1'
_symmetry_Int_Tables_number	1
_symmetry_cell_setting	triclinic
loop_
_symmetry_equiv_pos_as_xyz
  x,y,z
_cell_length_a	14.519731
_cell_length_b	9.065218
_cell_length_c	12.996460
_cell_angle_alpha	90.006701
_cell_angle_beta	90.005861
_cell_angle_gamma	95.647631
loop_
_atom_site_label
_atom_site_type_symbol
_atom_site_fract_x
_atom_site_fract_y
_atom_site_fract_z
O1	O	0.135227	-1.957859	0.085572
O2	O	0.635227	-1.457859	0.585572
O3	O	0.146319	-1.528368	0.085574
O4	O	0.646319	-1.028368	0.585574
O5	O	0.006619	-1.754485	0.085564
O6	O	0.506619	-1.254485	0.585564
O7	O	0.274927	-1.731743	0.085582
O8	O	0.774927	-1.231743	0.585582
O9	O	0.006611	-1.754514	-0.085570
O10	O	0.506611	-1.254514	0.414430
O11	O	0.146311	-1.528397	-0.085560
O12	O	0.646311	-1.028397	0.414440
O13	O	0.135219	-1.957889	-0.085562
O14	O	0.635219	-1.457889	0.414438
Cu15	Cu	0.140764	-1.743146	-0.101187
Cu16	Cu	0.640764	-1.243146	0.398813
Cu17	Cu	0.140774	-1.743111	0.101199
Cu18	Cu	0.640774	-1.243111	0.601199
O19	O	0.274919	-1.731772	-0.085551
O20	O	0.774919	-1.231772	0.414449
C21	C	0.145249	-1.473416	0.000007
C22	C	0.645249	-0.973416	0.500007
C23	C	0.142062	-1.309632	0.000007
C24	C	0.642062	-0.809632	0.500007
N25	N	0.140757	-1.743181	-0.243534
N26	N	0.640757	-1.243181	0.256466
C27	C	-0.027752	-1.753434	-0.000003
C28	C	0.472248	-1.253434	0.499997
C29	C	-0.130156	-1.750241	-0.000004
C30	C	0.369844	-1.250241	0.499996
C31	C	-0.213319	-1.747646	-0.000002
C32	C	0.286681	-1.247646	0.499998
C33	C	-0.317651	-1.744404	0.000006
C34	C	0.182349	-1.244404	0.500006
C35	C	-0.400809	-1.741831	0.000013
C36	C	0.099191	-1.241831	0.500013
C37	C	-0.505148	-1.738589	0.000019
C38	C	-0.005148	-1.238589	0.500019
C39	C	0.309290	-1.732823	0.000018
C40	C	0.809290	-1.232823	0.500018
C41	C	0.411694	-1.736016	0.000025
C42	C	0.911694	-1.236016	0.500025
C43	C	0.136289	-2.012841	0.000007
C44	C	0.636289	-1.512841	0.500007
C45	C	0.139476	-2.176624	0.000014
C46	C	0.639476	-1.676624	0.500014
N47	N	0.140773	-1.743088	0.243546
N48	N	0.640773	-1.243088	0.743546
C49	C	0.140775	-1.743092	0.336652
C50	C	0.640775	-1.243092	0.836652
C51	C	0.140773	-1.743113	0.453457
C52	C	0.640773	-1.243113	0.953457
C53	C	0.140767	-1.743137	0.546555
C54	C	0.640767	-1.243137	1.046555
C55	C	0.140763	-1.743156	0.663368
C56	C	0.640763	-1.243156	1.163368
