data_functionalizedCrystal
_audit_creation_method	'MofGen! by Chris Wilmer'
_symmetry_space_group_name_H-M	'P1'
_symmetry_Int_Tables_number	1
_symmetry_cell_setting	triclinic
loop_
_symmetry_equiv_pos_as_xyz
  x,y,z
_cell_length_a	19.077105
_cell_length_b	16.625546
_cell_length_c	19.076919
_cell_angle_alpha	87.730083
_cell_angle_beta	89.923776
_cell_angle_gamma	87.718759
loop_
_atom_site_label
_atom_site_type_symbol
_atom_site_fract_x
_atom_site_fract_y
_atom_site_fract_z
Zn1	Zn	1.058283	-0.390077	0.440407
Zn2	Zn	1.558283	0.109923	0.940407
Zn3	Zn	1.062927	-0.519720	0.322896
Zn4	Zn	1.562927	-0.019720	0.822896
Zn5	Zn	0.945500	-0.379275	0.318200
Zn6	Zn	1.445500	0.120725	0.818200
Zn7	Zn	0.940748	-0.519234	0.435649
Zn8	Zn	1.440748	-0.019234	0.935649
O9	O	1.001864	-0.452076	0.379288
O10	O	1.501864	0.047924	0.879288
O11	O	1.157231	-0.411998	0.428775
O12	O	1.657231	0.088002	0.928775
O13	O	1.051282	-0.496773	0.223942
O14	O	1.551282	0.003227	0.723942
O15	O	0.960506	-0.267879	0.334437
O16	O	1.460506	0.232121	0.834437
O17	O	1.160642	-0.507246	0.342441
O18	O	1.660642	-0.007246	0.842441
O19	O	1.043367	-0.275815	0.424222
O20	O	1.543367	0.224185	0.924222
O21	O	0.965009	-0.393589	0.220492
O22	O	1.465009	0.106411	0.720492
O23	O	0.846538	-0.393117	0.329824
O24	O	1.346538	0.106883	0.829824
O25	O	0.952407	-0.506418	0.534611
O26	O	1.452407	-0.006418	1.034611
O27	O	0.843047	-0.495944	0.416113
O28	O	1.343047	0.004056	0.916113
O29	O	1.038759	-0.411527	0.538107
O30	O	1.538759	0.088473	1.038107
O31	O	1.046674	-0.632485	0.337827
O32	O	1.546674	-0.132485	0.837827
O33	O	0.956910	-0.632127	0.420666
O34	O	1.456910	-0.132127	0.920666
C35	C	0.819296	-0.443306	0.371943
C36	C	1.319296	0.056694	0.871943
C37	C	0.741192	-0.439575	0.368817
C38	C	1.241192	0.060425	0.868817
C39	C	0.702702	-0.491432	0.412204
C40	C	1.202702	0.008568	0.912204
C41	C	0.629314	-0.487916	0.409270
C42	C	1.129314	0.012084	0.909270
C43	C	0.594418	-0.432544	0.362946
C44	C	1.094418	0.067456	0.862946
C45	C	0.632913	-0.380681	0.319557
C46	C	1.132913	0.119319	0.819557
C47	C	0.706299	-0.384194	0.322495
C48	C	1.206299	0.115806	0.822495
C49	C	0.375130	-0.416284	0.349354
C50	C	0.875130	0.083716	0.849354
C51	C	0.301739	-0.412776	0.346418
C52	C	0.801739	0.087224	0.846418
C53	C	0.298145	-0.520010	0.436133
C54	C	0.798145	-0.020010	0.936133
C55	C	0.371533	-0.523522	0.439063
C56	C	0.871533	-0.023522	0.939063
C57	C	0.410021	-0.471655	0.395677
C58	C	0.910021	0.028345	0.895677
N59	N	0.519405	-0.428950	0.359945
N60	N	1.019405	0.071050	0.859945
N61	N	0.485034	-0.475247	0.398682
N62	N	0.985034	0.024753	0.898682
C63	C	1.001799	-0.661563	0.379256
C64	C	1.501799	-0.161563	0.879256
C65	C	1.001834	-0.751186	0.379268
C66	C	1.501834	-0.251186	0.879268
C67	C	1.001954	-1.079371	0.379346
C68	C	1.501954	-0.579371	0.879346
C69	C	1.001918	-0.988060	0.379327
C70	C	1.501918	-0.488060	0.879327
C71	C	1.001894	-0.915281	0.379307
C72	C	1.501894	-0.415281	0.879307
C73	C	1.001859	-0.823965	0.379288
C74	C	1.501859	-0.323965	0.879288
C75	C	1.185146	-0.460881	0.386662
C76	C	1.685146	0.039119	0.886662
C77	C	1.263249	-0.464634	0.389805
C78	C	1.763249	0.035366	0.889805
C79	C	0.994535	-0.460123	0.562568
C80	C	1.494535	0.039877	1.062568
C81	C	0.991412	-0.463552	0.640671
C82	C	1.491412	0.036448	1.140671
C83	C	1.001948	-0.241774	0.379336
C84	C	1.501948	0.258226	0.879336
C85	C	1.001984	-0.152155	0.379357
C86	C	1.501984	0.347845	0.879357
C87	C	1.009205	-0.444005	0.196723
C88	C	1.509205	0.055995	0.696723
C89	C	1.012465	-0.440356	0.118626
C90	C	1.512465	0.059644	0.618626
C91	C	1.034901	-0.415760	0.679185
C92	C	1.534901	0.084240	1.179185
C93	C	1.031958	-0.418978	0.752571
C94	C	1.531958	0.081022	1.252571
C95	C	0.985529	-0.469993	0.787441
C96	C	1.485529	0.030007	1.287441
C97	C	0.942035	-0.517786	0.748922
C98	C	1.442035	-0.017786	1.248922
C99	C	0.944975	-0.514563	0.675537
C100	C	1.444975	-0.014563	1.175537
C101	C	0.971911	-0.484926	1.006722
C102	C	1.471911	0.015074	1.506722
C103	C	0.968976	-0.488147	1.080112
C104	C	1.468976	0.011853	1.580112
C105	C	1.058898	-0.389338	1.083755
C106	C	1.558898	0.110662	1.583755
C107	C	1.061837	-0.386123	1.010369
C108	C	1.561837	0.113877	1.510369
C109	C	1.018341	-0.433913	0.971856
C110	C	1.518341	0.066087	1.471856
N111	N	0.982521	-0.473286	0.862453
N112	N	1.482521	0.026714	1.362453
N113	N	1.021346	-0.430616	0.896846
N114	N	1.521346	0.069384	1.396846
H115	H	0.597979	-0.530145	0.444600
H116	H	1.097979	-0.030145	0.944600
H117	H	0.936503	-0.523853	0.975374
H118	H	1.436503	-0.023853	1.475374
H119	H	0.909554	-0.553472	0.644180
H120	H	1.409554	-0.053472	1.144180
O121	O	0.897031	-0.567433	0.782829
O122	O	1.397031	-0.067433	1.282829
C123	C	0.935314	-0.623284	0.826890
C124	C	1.435314	-0.123284	1.326890
H125	H	0.991541	-0.629954	0.807003
H126	H	1.491541	-0.129954	1.307003
H127	H	0.909840	-0.684149	0.826683
H128	H	1.409840	-0.184149	1.326683
H129	H	0.935519	-0.600914	0.882610
H130	H	1.435519	-0.100914	1.382610
O131	O	0.736485	-0.545244	0.457267
O132	O	1.236485	-0.045244	0.957267
C133	C	0.686773	-0.590273	0.494920
C134	C	1.186773	-0.090273	0.994920
H135	H	0.634372	-0.554855	0.495309
H136	H	1.134372	-0.054855	0.995309
H137	H	0.705770	-0.602416	0.551120
H138	H	1.205770	-0.102416	1.051120
H139	H	0.679977	-0.649956	0.468780
H140	H	1.179977	-0.149956	0.968780
H141	H	1.067373	-0.380063	0.783926
H142	H	1.567373	0.119937	1.283926
H143	H	1.072711	-0.374221	0.650799
H144	H	1.572711	0.125779	1.150799
H145	H	1.094310	-0.350429	1.115120
H146	H	1.594310	0.149571	1.615120
H147	H	0.406459	-0.374056	0.314021
H148	H	0.906459	0.125944	0.814021
O149	O	0.405317	-0.577333	0.484125
O150	O	0.905317	-0.077333	0.984125
C151	C	0.355608	-0.622366	0.521779
C152	C	0.855608	-0.122366	1.021779
H153	H	0.303206	-0.586950	0.522174
H154	H	0.803206	-0.086950	1.022174
H155	H	0.374609	-0.634515	0.577976
H156	H	0.874609	-0.134515	1.077976
H157	H	0.348811	-0.682047	0.495634
H158	H	0.848811	-0.182047	0.995634
O159	O	0.260649	-0.570302	0.478253
O160	O	0.760649	-0.070302	0.978253
C161	C	0.188394	-0.555345	0.465717
C162	C	0.688394	-0.055345	0.965717
H163	H	0.179299	-0.491595	0.442399
H164	H	0.679299	0.008405	0.942399
H165	H	0.158410	-0.561882	0.517227
H166	H	0.658410	-0.061882	1.017227
H167	H	0.169046	-0.600463	0.427390
H168	H	0.669046	-0.100463	0.927390
H169	H	1.099647	-0.344584	0.981983
H170	H	1.599647	0.155416	1.481983
H171	H	0.273329	-0.367677	0.308699
H172	H	0.773329	0.132323	0.808699
O173	O	0.923907	-0.537811	1.113914
O174	O	1.423907	-0.037811	1.613914
C175	C	0.939951	-0.618126	1.096599
C176	C	1.439951	-0.118126	1.596599
H177	H	0.969089	-0.618764	1.044401
H178	H	1.469089	-0.118764	1.544401
H179	H	0.889319	-0.651728	1.092046
H180	H	1.389319	-0.151728	1.592046
H181	H	0.974416	-0.648832	1.139347
H182	H	1.474416	-0.148832	1.639347
O183	O	0.598987	-0.327001	0.274484
O184	O	1.098987	0.172999	0.774484
C185	C	0.558319	-0.368793	0.227338
C186	C	1.058319	0.131207	0.727338
H187	H	0.580594	-0.433152	0.223777
H188	H	1.080594	0.066848	0.723777
H189	H	0.559641	-0.337118	0.173275
H190	H	1.059641	0.162882	0.673275
H191	H	0.501837	-0.369904	0.246835
H192	H	1.001837	0.130096	0.746835
O193	O	0.743585	-0.333791	0.280274
O194	O	1.243585	0.166209	0.780274
C195	C	0.697050	-0.284153	0.238767
C196	C	1.197050	0.215847	0.738767
H197	H	0.644827	-0.314560	0.234189
H198	H	1.144827	0.185440	0.734189
H199	H	0.720458	-0.274041	0.184265
H200	H	1.220458	0.225959	0.684265
H201	H	0.688237	-0.223721	0.264281
H202	H	1.188237	0.276279	0.764281
