data_functionalizedCrystal
_audit_creation_method	'MofGen! by Chris Wilmer'
_symmetry_space_group_name_H-M	'P1'
_symmetry_Int_Tables_number	1
_symmetry_cell_setting	triclinic
loop_
_symmetry_equiv_pos_as_xyz
  x,y,z
_cell_length_a	20.016444
_cell_length_b	14.560438
_cell_length_c	14.560438
_cell_angle_alpha	59.998713
_cell_angle_beta	90.001373
_cell_angle_gamma	60.004232
loop_
_atom_site_label
_atom_site_type_symbol
_atom_site_fract_x
_atom_site_fract_y
_atom_site_fract_z
Zr1	Zr	0.643676	1.005197	-0.120460
O2	O	0.537013	1.196796	-0.267112
O3	O	0.676365	0.813603	-0.075507
O4	O	0.676378	1.005198	-0.267107
O5	O	0.537000	1.005199	0.075629
O6	O	0.786323	1.005193	-0.267099
O7	O	0.537000	1.005202	-0.075512
O8	O	0.786299	0.662465	0.075638
O9	O	0.537023	1.347927	-0.267109
O10	O	0.772368	0.892403	-0.056325
O11	O	0.690318	0.892405	0.056464
O12	O	0.690333	1.117983	-0.169121
O13	O	0.608283	1.117985	-0.056331
Zr14	Zr	0.819025	1.005185	0.120604
Zr15	Zr	0.819025	1.005189	-0.120448
Zr16	Zr	0.643677	1.005193	0.120592
Zr17	Zr	0.643693	1.246233	-0.120455
Zr18	Zr	0.819009	0.764149	0.120598
O19	O	0.786336	1.196778	0.075650
O20	O	0.786336	1.196784	-0.267095
O21	O	0.537013	1.196791	0.075633
O22	O	0.925689	0.813586	0.267255
O23	O	0.925688	0.813591	-0.075490
O24	O	0.676365	0.813598	0.267238
O25	O	0.925702	1.005183	-0.075486
O26	O	0.786323	1.005184	0.267250
O27	O	0.676379	1.005189	0.267243
O28	O	0.925702	1.005180	0.075655
O29	O	0.676402	1.347920	-0.267099
O30	O	0.786299	0.662462	0.267243
O31	O	0.925678	0.662455	0.267252
O32	O	0.925678	0.662458	0.075648
O33	O	0.537023	1.347924	-0.075504
O34	O	0.676402	1.347917	-0.075495
O35	O	0.772368	0.892399	0.169264
O36	O	0.854418	0.892397	0.056475
O37	O	0.772384	1.117977	-0.056320
O38	O	0.690333	1.117979	0.056469
C39	C	0.731330	0.703692	0.000065
C40	C	0.731323	0.601366	0.000063
C41	C	0.791928	0.373860	0.083347
C42	C	0.791902	0.470036	0.083336
C43	C	0.670770	0.636521	-0.083212
C44	C	0.670800	0.540347	-0.083205
C45	C	0.861861	0.277742	0.179505
C46	C	0.861835	0.373917	0.179494
C47	C	0.512016	1.005202	0.000057
C48	C	0.437576	1.005205	0.000052
C49	C	0.266320	1.005191	-0.083196
C50	C	0.196380	1.005183	-0.083189
C51	C	0.196388	1.005187	0.083348
C52	C	0.266330	1.005186	0.083344
C53	C	0.301292	1.005195	0.000066
C54	C	0.161410	1.005187	0.000078
C55	C	0.085577	1.005178	0.000086
C56	C	0.377130	1.005201	0.000058
C57	C	0.950685	1.005180	0.000086
C58	C	1.025125	1.005177	0.000092
C59	C	0.731351	1.005196	-0.301448
C60	C	0.731350	1.005198	-0.403781
C61	C	0.731372	1.306690	0.000078
C62	C	0.731379	1.409016	0.000081
C63	C	0.688526	1.122946	-0.510735
C64	C	0.688528	1.122940	-0.606884
C65	C	0.774181	0.887427	-0.489110
C66	C	0.774183	0.887434	-0.392964
C67	C	0.639072	1.258918	-0.578731
C68	C	0.639074	1.258912	-0.674880
C69	C	0.731351	1.005186	0.301591
C70	C	0.731351	1.005184	0.403924
C71	C	0.950664	0.703681	0.000080
C72	C	1.025097	0.601351	0.000083
C73	C	0.731330	0.703687	0.301584
C74	C	0.731323	0.601359	0.403915
C75	C	0.950665	0.703676	0.301599
C76	C	1.025098	0.601345	0.403935
C77	C	0.512037	1.306706	-0.301456
C78	C	0.437604	1.409037	-0.403792
C79	C	0.512037	1.306701	0.000064
C80	C	0.437604	1.409030	0.000061
C81	C	0.731371	1.306695	-0.301441
C82	C	0.731378	1.409023	-0.403772
C83	C	1.017222	0.553299	-0.058807
C84	C	1.087154	0.457163	-0.058827
C85	C	1.164959	0.409074	0.000050
C86	C	1.172832	0.457136	0.058941
C87	C	1.102902	0.553277	0.058954
C88	C	1.102889	0.553288	0.393118
C89	C	1.172833	0.457150	0.489264
C90	C	1.164985	0.409064	0.596226
C91	C	1.087185	0.457130	0.607041
C92	C	1.017243	0.553273	0.510896
C93	C	0.359813	1.457106	-0.392975
C94	C	0.289868	1.553274	-0.489121
C95	C	0.297717	1.601365	-0.596083
C96	C	0.375516	1.553292	-0.606897
C97	C	0.445459	1.457132	-0.510752
C98	C	0.445479	1.457093	0.058940
C99	C	0.375548	1.553255	0.058934
C100	C	0.297743	1.601348	0.000053
C101	C	0.289870	1.553282	-0.058833
C102	C	0.359800	1.457127	-0.058832
C103	C	0.774151	0.553277	0.510871
C104	C	0.774137	0.457134	0.607018
C105	C	0.688468	0.457160	0.489239
C106	C	0.688477	0.553307	0.393095
C107	C	0.823614	0.553258	0.578870
C108	C	0.823601	0.457115	0.675017
H109	H	0.921603	0.214753	0.171230
Cl110	Cl	0.349885	1.396709	-0.132851
H111	H	0.889084	0.367092	0.727218
H112	H	0.953876	0.592453	-0.106765
Cl113	Cl	0.152419	1.005175	-0.187863
Cl114	Cl	0.919451	0.613668	0.524514
Cl115	Cl	0.152429	1.005183	0.188032
Cl116	Cl	0.947705	0.373956	0.153556
H117	H	0.796111	0.643266	0.578888
H118	H	0.294786	1.005196	-0.151005
H119	H	1.221894	0.330789	0.000031
Cl120	Cl	0.634620	0.613770	0.258636
Cl121	Cl	0.828016	0.739402	-0.258507
H122	H	0.240758	1.679663	-0.674361
H123	H	0.809054	0.791548	-0.480317
H124	H	0.666584	1.311129	-0.578751
Cl125	Cl	0.209838	1.722227	0.000067
H126	H	0.849644	0.218070	0.255976
Cl127	Cl	0.385369	1.613758	-0.741373
H128	H	0.855791	0.363103	0.261605
H129	H	0.226527	1.592398	-0.480293
Cl130	Cl	0.192051	1.613749	-0.132843
H131	H	0.353406	1.417956	-0.305890
Cl132	Cl	0.310302	1.005180	0.188029
Cl133	Cl	0.541327	1.323955	-0.565198
Cl134	Cl	0.634608	0.396746	0.475647
Cl135	Cl	0.689443	1.324072	-0.753517
Cl136	Cl	1.112777	0.613727	0.258663
Cl137	Cl	0.921374	0.497478	0.565391
Cl138	Cl	0.537972	1.339504	-0.755475
Cl139	Cl	1.077237	0.396757	-0.132862
H140	H	0.790974	0.493245	0.725939
H141	H	0.621501	0.568982	-0.151016
H142	H	1.236190	0.417967	0.106876
Cl143	Cl	0.594618	0.801623	-0.187907
H144	H	1.080807	0.417965	0.694142
Cl145	Cl	1.112816	0.613664	0.133003
Cl146	Cl	1.270628	0.396737	0.475643
Cl147	Cl	1.252922	0.288195	0.717085
Cl148	Cl	0.543251	1.396706	-0.524371
Cl149	Cl	0.543283	1.396660	0.132964
Cl150	Cl	0.385465	1.613656	0.132974
