data_functionalizedCrystal
_audit_creation_method	'MofGen! by Chris Wilmer'
_symmetry_space_group_name_H-M	'P1'
_symmetry_Int_Tables_number	1
_symmetry_cell_setting	triclinic
loop_
_symmetry_equiv_pos_as_xyz
  x,y,z
_cell_length_a	10.654550
_cell_length_b	15.995350
_cell_length_c	9.730223
_cell_angle_alpha	90.000899
_cell_angle_beta	89.996251
_cell_angle_gamma	83.988639
loop_
_atom_site_label
_atom_site_type_symbol
_atom_site_fract_x
_atom_site_fract_y
_atom_site_fract_z
O1	O	1.666298	0.117599	-0.114395
O2	O	1.300673	0.128803	-0.114373
O3	O	1.493480	0.001371	-0.114383
O4	O	1.473491	0.245031	-0.114385
O5	O	1.493478	0.001375	0.114197
O6	O	1.300671	0.128806	0.114207
O7	O	1.666295	0.117602	0.114185
Zn8	Zn	1.483483	0.123205	0.150488
Zn9	Zn	1.483486	0.123200	-0.150676
O10	O	1.473488	0.245034	0.114195
C11	C	1.253885	0.127982	-0.000080
C12	C	1.114473	0.125521	-0.000071
C13	C	1.034008	0.200551	-0.000092
C14	C	0.903017	0.198233	-0.000116
C15	C	0.932971	0.045849	-0.000104
C16	C	1.063959	0.048168	-0.000071
C17	C	1.016713	0.288528	-0.000104
C18	C	0.885722	0.286211	-0.000128
C19	C	1.492652	-0.029827	-0.000096
C20	C	1.490175	-0.122791	-0.000104
C21	C	1.481278	-0.460591	-0.000098
C22	C	1.343964	-0.413954	-0.000603
C23	C	1.346442	-0.317249	-0.000087
C24	C	1.485691	-0.293004	-0.000102
C25	C	1.553417	-0.333687	0.130422
C26	C	1.549968	-0.430342	0.130531
C27	C	1.552807	-0.430688	-0.129407
C28	C	1.552775	-0.333743	-0.131132
C29	C	1.488192	-0.198292	-0.000099
C30	C	1.478780	-0.555303	-0.000092
C31	C	1.713084	0.118423	-0.000111
C32	C	1.852495	0.120884	-0.000129
C33	C	1.474316	0.276232	-0.000095
C34	C	1.476793	0.369197	-0.000097
N35	N	1.483490	0.123207	0.356024
N36	N	1.483488	0.123191	-0.356212
C37	C	1.568886	0.066800	0.427946
C38	C	1.568883	0.066789	0.571829
C39	C	1.398083	0.179602	0.571856
C40	C	1.398081	0.179607	0.427976
C41	C	1.667501	0.001671	0.427931
C42	C	1.667497	0.001661	0.571814
H43	H	1.052003	0.316540	-0.098792
O44	O	1.683502	-0.472285	0.138403
H45	H	1.694513	-0.511621	0.232469
H46	H	1.293204	-0.289138	-0.093652
O47	O	1.640246	-0.083589	0.376224
H48	H	1.720715	-0.111329	0.312889
O49	O	1.305965	0.240437	0.350394
H50	H	1.321952	0.305812	0.378003
O51	O	0.829859	0.330122	-0.126840
H52	H	0.870990	0.297817	-0.219928
H53	H	1.654048	-0.461861	-0.130294
O54	O	1.271588	-0.440312	0.122712
H55	H	1.266244	-0.509205	0.119057
O56	O	1.150750	-0.032757	-0.000019
H57	H	1.132831	-0.069747	-0.093185
O58	O	1.688926	-0.314185	0.136867
H59	H	1.709487	-0.275194	0.046895
H60	H	1.289082	-0.432806	-0.094203
H61	H	1.506376	-0.305577	0.227563
H62	H	1.328544	0.225520	0.630455
H63	H	1.758418	0.022064	0.383299
H64	H	1.637779	-0.059156	0.616432
O65	O	0.878478	-0.037577	-0.000109
H66	H	0.910771	-0.073657	0.093072
H67	H	1.654321	-0.317791	-0.139024
H68	H	1.045593	0.322938	0.095561
H69	H	0.839703	0.312800	0.098556
O70	O	1.275476	-0.280739	0.124083
H71	H	1.239260	-0.332167	0.184005
H72	H	1.500580	-0.448929	0.228110
H73	H	1.763822	0.016006	0.610858
O74	O	1.493343	-0.458230	-0.260460
H75	H	1.412134	-0.493544	-0.234887
O76	O	1.487287	-0.297965	-0.259049
H77	H	1.407296	-0.251358	-0.229444
