data_functionalizedCrystal
_audit_creation_method	'MofGen! by Chris Wilmer'
_symmetry_space_group_name_H-M	'P1'
_symmetry_Int_Tables_number	1
_symmetry_cell_setting	triclinic
loop_
_symmetry_equiv_pos_as_xyz
  x,y,z
_cell_length_a	14.628931
_cell_length_b	23.196402
_cell_length_c	23.196401
_cell_angle_alpha	59.999265
_cell_angle_beta	90.005554
_cell_angle_gamma	60.000584
loop_
_atom_site_label
_atom_site_type_symbol
_atom_site_fract_x
_atom_site_fract_y
_atom_site_fract_z
Zr1	Zr	0.880623	0.631011	-0.075634
O2	O	0.734640	0.751292	-0.167688
O3	O	0.925371	0.510741	-0.047419
O4	O	0.925341	0.631027	-0.167693
O5	O	0.734698	0.630990	0.047466
O6	O	1.075773	0.631027	-0.167694
O7	O	0.734670	0.631006	-0.047413
O8	O	1.075826	0.415857	0.047456
O9	O	0.734645	0.846159	-0.167684
O10	O	1.056725	0.560205	-0.035381
O11	O	0.944480	0.560193	0.035426
O12	O	0.944445	0.701814	-0.106182
O13	O	0.832200	0.701802	-0.035374
Zr14	Zr	1.120589	0.630985	0.075686
Zr15	Zr	1.120545	0.631011	-0.075635
Zr16	Zr	0.880667	0.630985	0.075686
Zr17	Zr	0.880630	0.782313	-0.075628
Zr18	Zr	1.120582	0.479682	0.075680
O19	O	1.075841	0.751255	0.047470
O20	O	1.075778	0.751292	-0.167688
O21	O	0.734704	0.751255	0.047471
O22	O	1.266571	0.510704	0.167740
O23	O	1.266508	0.510741	-0.047419
O24	O	0.925434	0.510704	0.167740
O25	O	1.266514	0.631006	-0.047414
O26	O	1.075871	0.630969	0.167745
O27	O	0.925439	0.630969	0.167745
O28	O	1.266541	0.630990	0.047465
O29	O	0.925350	0.846159	-0.167684
O30	O	1.075862	0.415836	0.167736
O31	O	1.266567	0.415836	0.167735
O32	O	1.266532	0.415857	0.047456
O33	O	0.734680	0.846138	-0.047404
O34	O	0.925385	0.846138	-0.047404
O35	O	1.056767	0.560181	0.106233
O36	O	1.169012	0.560193	0.035426
O37	O	1.056731	0.701802	-0.035375
O38	O	0.944487	0.701790	0.035432
C39	C	1.000598	0.441742	0.000018
C40	C	1.000595	0.377510	0.000015
C41	C	1.059178	0.347346	-0.036948
C42	C	1.059189	0.286985	-0.036943
C43	C	1.000595	0.256801	0.000017
C44	C	0.942009	0.286970	0.036988
C45	C	0.942009	0.347324	0.036987
C46	C	0.902434	0.194773	-0.005258
C47	C	0.902431	0.134424	-0.005262
C48	C	1.000596	0.070647	0.000024
C49	C	1.098764	0.067234	0.005300
C50	C	1.098764	0.127588	0.005299
C51	C	1.000589	0.191357	0.000022
C52	C	1.059196	-0.024968	-0.036935
C53	C	1.059210	-0.085334	-0.036924
C54	C	0.942020	-0.085342	0.037002
C55	C	0.942017	-0.024984	0.036996
C56	C	1.000602	0.005202	0.000024
C57	C	0.700501	0.630998	0.000026
C58	C	0.598648	0.630998	0.000026
C59	C	0.553224	0.631006	-0.049648
C60	C	0.447954	0.631006	-0.049649
C61	C	1.300711	0.630998	0.000025
C62	C	1.402564	0.630998	0.000025
C63	C	1.000550	0.631030	-0.189253
C64	C	1.000532	0.631041	-0.253493
C65	C	1.000614	0.820254	0.000034
C66	C	1.000617	0.884486	0.000037
C67	C	1.083408	0.631043	-0.283656
C68	C	1.083433	0.631026	-0.344003
C69	C	1.000564	0.631025	-0.374192
C70	C	0.917680	0.631019	-0.344019
C71	C	0.917664	0.631027	-0.283670
C72	C	0.899429	0.678520	-0.493572
C73	C	0.899444	0.678517	-0.553923
C74	C	1.000613	0.630996	-0.560328
C75	C	1.101774	0.583489	-0.506381
C76	C	1.101758	0.583497	-0.446031
C77	C	1.000573	0.631016	-0.439631
C78	C	1.083524	0.630978	-0.655926
C79	C	1.083549	0.630957	-0.716271
C80	C	0.917787	0.630958	-0.716290
C81	C	0.917770	0.630971	-0.655942
C82	C	1.000638	0.630985	-0.625765
C83	C	1.000661	0.630965	0.189305
C84	C	1.000680	0.630954	0.253545
C85	C	1.300703	0.441742	0.000017
C86	C	1.402553	0.377510	0.000014
C87	C	1.000653	0.441709	0.189297
C88	C	1.000669	0.377466	0.253534
C89	C	1.300758	0.441709	0.189296
C90	C	1.402627	0.377466	0.253533
C91	C	0.700453	0.820287	-0.189245
C92	C	0.598584	0.884529	-0.253482
C93	C	0.700509	0.820254	0.000034
C94	C	0.598659	0.884486	0.000037
C95	C	1.000559	0.820287	-0.189245
C96	C	1.000543	0.884529	-0.253482
C97	C	1.391771	0.347352	-0.036954
C98	C	1.487461	0.287008	-0.036971
C99	C	1.593932	0.256818	-0.000015
C100	C	1.604712	0.286982	0.036954
C101	C	1.509023	0.347329	0.036967
C102	C	1.059289	0.347291	0.320667
C103	C	1.059300	0.286936	0.381030
C104	C	1.000697	0.256754	0.374258
C105	C	0.942070	0.286935	0.307118
C106	C	0.942053	0.347293	0.246757
C107	C	1.509067	0.347303	0.246739
C108	C	1.604793	0.286949	0.307090
C109	C	1.594077	0.256754	0.374235
C110	C	1.487626	0.286923	0.381028
C111	C	1.391903	0.347280	0.320678
C112	C	0.492145	0.914700	-0.246687
C113	C	0.396419	0.975073	-0.307039
C114	C	0.407135	1.005271	-0.374184
C115	C	0.513586	0.975098	-0.380977
C116	C	0.609309	0.914730	-0.320626
C117	C	0.609441	0.914650	0.036999
C118	C	0.513751	0.975011	0.036999
C119	C	0.407280	1.005203	0.000041
C120	C	0.396500	0.975036	-0.036925
C121	C	0.492189	0.914680	-0.036929
C122	C	1.059157	0.914692	-0.246688
C123	C	1.059164	0.975047	-0.307040
C124	C	1.000549	1.005242	-0.374185
C125	C	0.941933	0.975074	-0.380977
C126	C	0.941933	0.914716	-0.320626
H127	H	1.178696	0.124805	0.009596
H128	H	0.329182	1.054426	-0.423320
Br129	Br	1.195872	0.631058	-0.242700
Br130	Br	0.382844	0.631028	-0.120541
Br131	Br	1.138873	0.245987	0.472139
Br132	Br	0.762124	0.743081	-0.484919
Br133	Br	1.247286	0.388313	-0.087117
H134	H	1.478661	0.262456	-0.067075
Br135	Br	0.862494	0.388235	0.155650
Br136	Br	1.723785	0.174917	-0.000039
Br137	Br	1.138838	0.388235	0.329876
H138	H	1.517818	0.371876	0.067075
Br139	Br	0.618298	0.631009	-0.120530
H140	H	1.305238	0.371831	0.326220
H141	H	0.441617	0.630995	0.042554
H142	H	1.691461	0.262391	0.301547
Br143	Br	0.862502	0.246000	0.087157
Br144	Br	1.523641	0.388273	0.155621
H145	H	0.483394	0.890123	-0.067026
H146	H	0.559606	0.630986	0.042556
H147	H	1.478918	0.262329	0.435706
H148	H	1.000557	1.054390	-0.423320
H149	H	1.150924	0.631027	-0.368566
Br150	Br	0.805181	0.631024	-0.242730
Br151	Br	0.251994	1.016017	-0.087077
H152	H	0.483398	0.890116	-0.192020
H153	H	1.184126	0.544814	-0.402108
H154	H	1.672030	0.207607	0.423371
H155	H	0.894307	-0.000421	0.067093
Br156	Br	0.528110	1.016088	-0.472108
Br157	Br	1.000730	0.174839	0.456186
Br158	Br	1.231996	-0.019312	0.012468
H159	H	0.309752	0.999629	-0.301494
H160	H	0.894357	0.262352	0.301615
H161	H	0.822485	0.246710	-0.009577
Br162	Br	1.196042	0.630948	-0.757205
H163	H	0.695974	0.890166	-0.326167
H164	H	0.894210	0.999668	-0.435655
H165	H	0.894301	0.371884	0.067087
Br166	Br	1.239087	0.519000	-0.515068
Br167	Br	1.138710	0.015997	-0.087105
H168	H	1.106922	-0.109898	-0.067021
H169	H	1.691414	0.262392	0.067042
H170	H	1.151003	0.630986	-0.631353
Br171	Br	0.753926	0.873691	0.087160
H172	H	0.522551	0.999562	0.067104
H173	H	0.329373	1.054348	0.000050
H174	H	0.850317	0.630952	-0.740868
H175	H	0.850280	0.630975	-0.631384
Br176	Br	0.762159	0.742996	-0.627134
Br177	Br	1.138715	0.873727	-0.155570
Br178	Br	1.138715	1.015981	-0.297804
H179	H	0.894197	0.890164	-0.326168
H180	H	1.106885	0.371919	-0.067051
Br181	Br	0.805219	0.631008	-0.384984
H182	H	1.106896	0.262420	-0.067043
H183	H	0.822496	0.137211	-0.009562
Br184	Br	0.862500	-0.126300	0.087164
