data_functionalizedCrystal
_audit_creation_method	'MofGen! by Chris Wilmer'
_symmetry_space_group_name_H-M	'P1'
_symmetry_Int_Tables_number	1
_symmetry_cell_setting	triclinic
loop_
_symmetry_equiv_pos_as_xyz
  x,y,z
_cell_length_a	17.699083
_cell_length_b	17.699083
_cell_length_c	11.804610
_cell_angle_alpha	76.682845
_cell_angle_beta	103.309045
_cell_angle_gamma	96.716985
loop_
_atom_site_label
_atom_site_type_symbol
_atom_site_fract_x
_atom_site_fract_y
_atom_site_fract_z
O1	O	0.990490	-0.082106	-0.098860
O2	O	1.490490	0.417894	0.401140
O3	O	0.770106	-0.094553	-0.098899
O4	O	1.270106	0.405447	0.401101
O5	O	0.886526	0.021858	-0.098868
O6	O	1.386526	0.521858	0.401132
O7	O	0.874070	-0.198518	-0.098891
O8	O	1.374070	0.301482	0.401109
O9	O	0.913733	-0.005394	0.099181
O10	O	1.413733	0.494606	0.599181
O11	O	0.797313	-0.121805	0.099150
O12	O	1.297313	0.378195	0.599150
O13	O	1.017697	-0.109358	0.099189
O14	O	1.517697	0.390642	0.599189
Cu15	Cu	0.909989	-0.118070	0.117253
Cu16	Cu	1.409989	0.381930	0.617253
Cu17	Cu	0.877814	-0.085842	-0.116963
Cu18	Cu	1.377814	0.414158	0.383037
O19	O	0.901277	-0.225769	0.099158
O20	O	1.401277	0.274231	0.599158
C21	C	0.755512	-0.107732	0.000120
C22	C	1.255512	0.392268	0.500120
C23	C	0.671492	-0.106392	0.000106
C24	C	1.171492	0.393608	0.500106
C25	C	0.899683	0.036429	0.000157
C26	C	1.399683	0.536429	0.500157
C27	C	0.898345	0.120447	0.000157
C28	C	1.398345	0.620447	0.500157
C29	C	0.622870	-0.174724	0.000099
C30	C	1.122870	0.325276	0.500099
C31	C	0.543929	-0.173464	0.000114
C32	C	1.043929	0.326536	0.500114
C33	C	0.513610	-0.103869	0.000128
C34	C	1.013610	0.396131	0.500128
C35	C	0.562238	-0.035532	0.000139
C36	C	1.062238	0.464468	0.500139
C37	C	0.641179	-0.036794	0.000132
C38	C	1.141179	0.463206	0.500132
C39	C	0.243880	-0.030441	0.000169
C40	C	0.743880	0.469559	0.500169
C41	C	0.164932	-0.029184	0.000172
C42	C	0.664932	0.470816	0.500172
C43	C	0.146629	-0.167111	0.000151
C44	C	0.646629	0.332889	0.500151
C45	C	0.225570	-0.168373	0.000144
C46	C	0.725570	0.331627	0.500144
C47	C	0.274192	-0.100037	0.000161
C48	C	0.774192	0.399963	0.500161
C49	C	0.359790	-0.101404	0.000146
C50	C	0.859790	0.398596	0.500146
C51	C	0.428013	-0.102500	0.000134
C52	C	0.928013	0.397500	0.500134
C53	C	1.032291	-0.096179	0.000167
C54	C	1.532291	0.403821	0.500167
C55	C	1.116310	-0.097518	0.000174
C56	C	1.616310	0.402482	0.500174
N57	N	0.932625	-0.140736	0.281987
N58	N	1.432625	0.359264	0.781987
C59	C	0.888120	-0.240340	0.000131
C60	C	1.388120	0.259660	0.500131
C61	C	0.889457	-0.324357	0.000123
C62	C	1.389457	0.175643	0.500123
C63	C	0.966680	0.169066	0.000171
C64	C	1.466680	0.669066	0.500171
C65	C	0.965416	0.248011	0.000160
C66	C	1.465416	0.748011	0.500160
C67	C	0.895817	0.278334	0.000144
C68	C	1.395817	0.778334	0.500144
C69	C	0.827476	0.229709	0.000126
C70	C	1.327476	0.729709	0.500126
C71	C	0.828740	0.150767	0.000129
C72	C	1.328740	0.650767	0.500129
C73	C	0.822380	0.548074	0.000116
C74	C	1.322380	1.048074	0.500116
C75	C	0.821122	0.627021	0.000117
C76	C	1.321122	1.127021	0.500117
C77	C	0.959056	0.645317	0.000147
C78	C	1.459056	1.145317	0.500147
C79	C	0.960319	0.566375	0.000149
C80	C	1.460319	1.066375	0.500149
C81	C	0.891978	0.517758	0.000126
C82	C	1.391978	1.017758	0.500126
C83	C	0.893349	0.432158	0.000135
C84	C	1.393349	0.932158	0.500135
C85	C	0.894447	0.363932	0.000143
C86	C	1.394447	0.863932	0.500143
N87	N	0.855185	-0.063169	-0.281697
N88	N	1.355185	0.436831	0.218303
C89	C	0.987010	-0.195156	0.344319
C90	C	1.487010	0.304844	0.844319
C91	C	1.004156	-0.212291	0.468976
C92	C	1.504156	0.287709	0.968976
C93	C	0.966915	-0.175012	0.531314
C94	C	1.466915	0.324988	1.031314
C95	C	0.912524	-0.120595	0.468982
C96	C	1.412524	0.379405	0.968982
C97	C	0.895380	-0.103454	0.344313
C98	C	1.395380	0.396546	0.844313
C99	C	0.875285	-0.083310	0.531308
C100	C	1.375285	0.416690	1.031308
C101	C	0.820895	-0.028893	0.468976
C102	C	1.320895	0.471107	0.968976
C103	C	0.803753	-0.011756	0.344319
C104	C	1.303753	0.488244	0.844319
C105	C	0.840995	-0.049035	0.281981
C106	C	1.340995	0.450965	0.781981
C107	C	0.892429	-0.100451	0.655977
C108	C	1.392429	0.399549	1.155977
C109	C	0.800799	-0.008749	0.655971
C110	C	1.300799	0.491251	1.155971
C111	C	0.783653	0.008386	0.531314
C112	C	1.283653	0.508386	1.031314
H113	H	0.647549	-0.231396	0.000087
H114	H	1.147549	0.268604	0.500087
Cl115	Cl	1.054182	0.130953	0.000203
Cl116	Cl	1.554182	0.630953	0.500203
Cl117	Cl	1.072528	-0.280699	0.547326
Cl118	Cl	1.572528	0.219301	1.047326
Cl119	Cl	1.051328	0.309129	0.000181
Cl120	Cl	1.551328	0.809129	0.500181
H121	H	0.504343	-0.229107	0.000107
H122	H	1.004343	0.270893	0.500107
Cl123	Cl	0.733619	0.665140	0.000094
Cl124	Cl	1.233619	1.165140	0.500094
Cl125	Cl	1.044972	0.706442	0.000172
Cl126	Cl	1.544972	1.206442	0.500172
H127	H	1.016995	0.541690	0.000168
H128	H	1.516995	1.041690	0.500168
H129	H	0.980879	-0.188966	0.632815
H130	H	1.480879	0.311034	1.132815
H131	H	0.766732	0.508499	0.000097
H132	H	1.266732	1.008499	0.500097
Cl133	Cl	1.033828	-0.242007	0.265946
Cl134	Cl	1.533828	0.257993	0.765946
Cl135	Cl	0.702305	0.049112	0.000146
Cl136	Cl	1.202305	0.549112	0.500146
H137	H	0.827035	-0.035087	0.180475
H138	H	1.327035	0.464913	0.680475
Cl139	Cl	0.524124	0.051958	0.000164
Cl140	Cl	1.024124	0.551958	0.500164
H141	H	0.770807	0.254405	0.000106
H142	H	1.270807	0.754405	0.500106
H143	H	0.773094	0.111181	0.000117
H144	H	1.273094	0.611181	0.500117
Cl145	Cl	0.263679	-0.255865	0.000120
Cl146	Cl	0.763679	0.244135	0.500120
Cl147	Cl	0.960802	-0.168858	0.734321
Cl148	Cl	1.460802	0.331142	1.234321
Cl149	Cl	0.735371	0.056648	0.265963
Cl150	Cl	1.235371	0.556648	0.765963
Cl151	Cl	0.715278	0.076794	0.452941
Cl152	Cl	1.215278	0.576794	0.952941
H153	H	0.770474	0.021607	0.706726
H154	H	1.270474	0.521607	1.206726
Cl155	Cl	0.126819	0.058313	0.000190
Cl156	Cl	0.626819	0.558313	0.500190
H157	H	0.107032	-0.222754	0.000144
H158	H	0.607032	0.277246	0.500144
Cl159	Cl	0.304995	0.055468	0.000188
Cl160	Cl	0.804995	0.555468	0.500188
