data_functionalizedCrystal
_audit_creation_method	'MofGen! by Chris Wilmer'
_symmetry_space_group_name_H-M	'P1'
_symmetry_Int_Tables_number	1
_symmetry_cell_setting	triclinic
loop_
_symmetry_equiv_pos_as_xyz
  x,y,z
_cell_length_a	18.878441
_cell_length_b	14.560438
_cell_length_c	14.560438
_cell_angle_alpha	90.000977
_cell_angle_beta	59.992421
_cell_angle_gamma	60.003719
loop_
_atom_site_label
_atom_site_type_symbol
_atom_site_fract_x
_atom_site_fract_y
_atom_site_fract_z
Zr1	Zr	0.775415	0.884754	-0.120648
O2	O	0.923203	0.738108	-0.267325
O3	O	0.627627	0.929709	-0.075666
O4	O	0.775417	0.929709	-0.267296
O5	O	0.775410	0.738108	0.075446
O6	O	0.775419	1.080847	-0.267294
O7	O	0.775412	0.738108	-0.075695
O8	O	0.511049	1.080847	0.075498
O9	O	1.039780	0.738109	-0.267346
O10	O	0.688416	1.061675	-0.056501
O11	O	0.688413	0.948882	0.056292
O12	O	0.862417	0.948882	-0.169328
O13	O	0.862414	0.836090	-0.056536
Zr14	Zr	0.775415	1.125803	0.120408
Zr15	Zr	0.775418	1.125802	-0.120644
Zr16	Zr	0.775412	0.884755	0.120404
Zr17	Zr	0.961343	0.884755	-0.120681
Zr18	Zr	0.589487	1.125802	0.120441
O19	O	0.923203	1.080848	0.075425
O20	O	0.923207	1.080848	-0.267320
O21	O	0.923198	0.738109	0.075420
O22	O	0.627627	1.272449	0.267085
O23	O	0.627631	1.272448	-0.075660
O24	O	0.627622	0.929709	0.267079
O25	O	0.775419	1.272449	-0.075686
O26	O	0.775412	1.080848	0.267056
O27	O	0.775410	0.929710	0.267053
O28	O	0.775417	1.272449	0.075454
O29	O	1.039783	0.929710	-0.267343
O30	O	0.511047	1.080847	0.267102
O31	O	0.511049	1.272448	0.267105
O32	O	0.511052	1.272448	0.075501
O33	O	1.039778	0.738109	-0.075741
O34	O	1.039780	0.929710	-0.075738
O35	O	0.688413	1.061675	0.169088
O36	O	0.688416	1.174468	0.056295
O37	O	0.862417	1.061675	-0.056532
O38	O	0.862414	0.948882	0.056261
C39	C	0.542847	1.005278	-0.000079
C40	C	0.463916	1.005278	-0.000065
C41	C	0.491080	0.922011	-0.083354
C42	C	0.416930	0.922014	-0.083380
C43	C	0.315616	1.005281	-0.000113
C44	C	0.288452	1.088556	0.083180
C45	C	0.362602	1.088556	0.083201
C46	C	0.133905	1.088547	0.083133
C47	C	0.059749	1.088546	0.083114
C48	C	0.188233	0.922006	-0.083449
C49	C	0.262383	0.922006	-0.083428
C50	C	0.235213	1.005280	-0.000133
C51	C	0.775411	0.703764	-0.000125
C52	C	0.775409	0.601433	-0.000127
C53	C	0.684584	0.612231	0.058768
C54	C	0.684589	0.516076	0.058778
C55	C	0.866252	0.398328	-0.059010
C56	C	0.866246	0.494482	-0.059013
C57	C	0.593747	0.719182	0.117654
C58	C	0.502915	0.729984	0.176552
C59	C	0.502920	0.633830	0.176562
C60	C	0.593757	0.526872	0.117674
C61	C	1.007982	1.005279	-0.000161
C62	C	1.086914	1.005279	-0.000175
C63	C	0.775419	1.005278	-0.301640
C64	C	0.775420	1.005278	-0.403973
C65	C	0.775419	1.306793	-0.000115
C66	C	0.775420	1.409124	-0.000114
C67	C	0.866245	0.946397	-0.510944
C68	C	0.866240	0.946400	-0.607092
C69	C	0.684577	1.064167	-0.489286
C70	C	0.684583	1.064170	-0.393139
C71	C	0.957082	0.887505	-0.521777
C72	C	1.047915	0.828618	-0.628753
C73	C	1.047910	0.828622	-0.724901
C74	C	0.957073	0.887512	-0.714074
C75	C	0.775411	1.005279	0.301399
C76	C	0.775409	1.005279	0.403732
C77	C	0.542851	1.306792	-0.000074
C78	C	0.463921	1.409123	-0.000059
C79	C	0.542843	1.005278	0.301440
C80	C	0.463911	1.005278	0.403787
C81	C	0.542847	1.306793	0.301445
C82	C	0.463916	1.409124	0.403794
C83	C	1.007982	0.703764	-0.301685
C84	C	1.086914	0.601433	-0.404034
C85	C	1.007978	0.703765	-0.000166
C86	C	1.086908	0.601434	-0.000182
C87	C	1.007986	1.005279	-0.301681
C88	C	1.086919	1.005279	-0.404027
C89	C	0.426855	1.398302	-0.058940
C90	C	0.352702	1.494444	-0.058948
C91	C	0.315612	1.601406	-0.000068
C92	C	0.352686	1.612224	0.058816
C93	C	0.426842	1.516084	0.058816
C94	C	0.426843	1.064155	0.510739
C95	C	0.352688	1.064150	0.606914
C96	C	0.315597	1.005275	0.596134
C97	C	0.352671	0.946391	0.489171
C98	C	0.426830	0.946390	0.392999
C99	C	0.426851	1.516066	0.392981
C100	C	0.352697	1.612226	0.489139
C101	C	0.315604	1.601442	0.596109
C102	C	0.352677	1.494488	0.606919
C103	C	0.426835	1.398330	0.510762
C104	C	1.123988	0.494491	-0.393221
C105	C	1.198165	0.398331	-0.489379
C106	C	1.235261	0.409115	-0.596349
C107	C	1.198184	0.516069	-0.607160
C108	C	1.124013	0.612227	-0.511003
C109	C	1.123982	0.612255	0.058690
C110	C	1.198156	0.516113	0.058671
C111	C	1.235248	0.409152	-0.000213
C112	C	1.198171	0.398333	-0.059092
C113	C	1.124004	0.494473	-0.059079
C114	C	1.123987	1.064166	-0.393212
C115	C	1.198142	1.064188	-0.489369
C116	C	1.235234	1.005316	-0.596339
C117	C	1.198159	0.946427	-0.607153
C118	C	1.124000	0.946413	-0.510997
H119	H	-0.022744	1.156348	0.150918
H120	H	1.121870	0.780682	-0.812001
C121	C	0.584663	1.128930	-0.477384
N122	N	0.509407	1.177706	-0.468419
H123	H	0.255212	1.005286	0.674454
C124	C	1.238991	0.527914	-0.724837
N125	N	1.269723	0.536832	-0.813475
C126	C	0.593757	0.421101	0.117692
N127	N	0.593755	0.341437	0.117702
H128	H	1.093821	0.485647	-0.107016
C129	C	0.467586	0.881631	0.275354
N130	N	0.498278	0.832853	0.186744
C131	C	0.234030	1.707153	-0.000071
N132	N	0.172580	1.786798	-0.000073
C133	C	0.177003	1.180150	0.174776
N134	N	0.093059	1.249138	0.243770
H135	H	0.344876	0.854202	-0.151231
H136	H	1.093828	0.699302	-0.519820
H137	H	1.295640	0.330877	-0.000214
H138	H	0.322476	1.699325	0.106754
H139	H	1.093787	0.699340	0.106648
C140	C	0.467597	1.528006	0.123607
N141	N	0.498289	1.536994	0.172413
C142	C	0.584671	1.128939	-0.275465
N143	N	0.509414	1.177726	-0.186831
C144	C	0.311926	1.482518	-0.123715
N145	N	0.281213	1.473532	-0.172495
C146	C	1.238970	0.280664	-0.123842
N147	N	1.269695	0.192033	-0.172600
H148	H	0.457035	1.112098	0.519537
H149	H	1.228370	0.898496	-0.694261
H150	H	1.093788	0.485688	-0.306130
C151	C	0.311855	0.881639	0.477333
N152	N	0.281104	0.832874	0.468419
C153	C	0.234021	1.707230	0.701874
N154	N	0.172568	1.786914	0.781533
H155	H	1.093798	1.112106	-0.306120
C156	C	1.238935	0.280692	-0.477462
N157	N	1.269641	0.192090	-0.468483
H158	H	0.322510	1.112105	0.693998
H159	H	0.957076	0.887522	-0.792370
H160	H	0.457053	1.311218	-0.106902
C161	C	1.316814	1.005341	-0.702103
N162	N	1.378262	1.005362	-0.781760
H163	H	0.340477	1.156360	0.151024
H164	H	0.428960	0.642630	0.224528
H165	H	0.940208	0.311239	-0.106956
C166	C	0.966159	0.482604	-0.123801
N167	N	1.041416	0.473656	-0.172599
C168	C	1.083247	0.881611	-0.522913
N169	N	1.052557	0.832796	-0.531897
C170	C	1.316844	0.303327	-0.702114
N171	N	1.378287	0.223643	-0.781773
H172	H	0.593733	0.797483	0.117650
H173	H	1.228321	1.112140	-0.480542
C174	C	0.602525	0.830411	-0.174957
N175	N	0.686466	0.761417	-0.243959
C176	C	0.446819	0.830395	-0.174986
N177	N	0.469335	0.761378	-0.243981
H178	H	0.210353	0.854205	-0.151274
H179	H	0.111774	1.156359	0.150959
H180	H	0.428959	0.817073	0.224504
C181	C	0.957096	0.887502	-0.416017
N182	N	0.957105	0.887502	-0.336358
H183	H	1.228331	0.524944	0.106622
H184	H	0.457040	1.524869	0.305889
H185	H	1.121871	0.780679	-0.637559
H186	H	0.322465	1.485723	0.694027
H187	H	0.322519	1.699304	0.480317
H188	H	0.457004	1.311256	0.519582
