data_functionalizedCrystal
_audit_creation_method	'MofGen! by Chris Wilmer'
_symmetry_space_group_name_H-M	'P1'
_symmetry_Int_Tables_number	1
_symmetry_cell_setting	triclinic
loop_
_symmetry_equiv_pos_as_xyz
  x,y,z
_cell_length_a	8.559649
_cell_length_b	10.489741
_cell_length_c	7.088929
_cell_angle_alpha	83.712943
_cell_angle_beta	95.325015
_cell_angle_gamma	77.158919
loop_
_atom_site_label
_atom_site_type_symbol
_atom_site_fract_x
_atom_site_fract_y
_atom_site_fract_z
O1	O	2.103400	-0.028523	-0.158957
O2	O	1.638952	0.037276	-0.158967
O3	O	1.881746	-0.182335	-0.158950
O4	O	1.860607	0.191088	-0.158973
O5	O	1.914192	-0.211743	0.159027
O6	O	1.671399	0.007868	0.159010
O7	O	2.135846	-0.057931	0.159021
Cu8	Cu	1.906585	-0.027717	0.188049
Cu9	Cu	1.868214	0.007062	-0.187996
O10	O	1.893053	0.161680	0.159004
C11	C	1.595703	0.027558	0.000020
C12	C	1.418493	0.042401	0.000017
C13	C	1.896372	-0.244403	0.000037
C14	C	1.891596	-0.385529	0.000034
C15	C	1.737113	-0.437401	0.000016
C16	C	1.826086	-0.551707	0.156797
C17	C	1.794133	-0.522692	-0.156703
C18	C	1.980646	-0.497989	0.156944
C19	C	1.948657	-0.468948	-0.156697
C20	C	2.037747	-0.583242	0.000122
C21	C	2.179096	-0.048213	0.000029
C22	C	2.356304	-0.063054	0.000020
C23	C	1.878426	0.223748	0.000012
C24	C	1.883201	0.364876	0.000003
N25	N	1.933585	-0.052180	0.452539
N26	N	1.841226	0.031513	-0.452486
H27	H	1.438631	-0.164693	0.000017
O28	O	1.764075	-0.595232	0.314719
C29	C	1.624529	-0.638738	0.258437
H30	H	1.628738	-0.666006	0.107373
H31	H	1.619171	-0.728882	0.360983
H32	H	1.512841	-0.556509	0.261444
H33	H	2.029323	-0.138908	0.534202
H34	H	1.336155	0.144049	-0.000000
O35	O	1.585617	-0.362306	0.000528
C36	C	1.521650	-0.404618	0.166117
H37	H	1.624621	-0.457585	0.281081
H38	H	1.446120	-0.315501	0.220831
H39	H	1.442484	-0.474981	0.130341
O40	O	2.074843	-0.483923	0.315056
C41	C	2.203852	-0.431156	0.259118
H42	H	2.169662	-0.376214	0.107817
H43	H	2.230622	-0.359978	0.361413
H44	H	2.315591	-0.514603	0.262894
O45	O	2.189475	-0.658172	0.000559
C46	C	2.287198	-0.646275	0.166053
H47	H	2.207684	-0.614706	0.281064
H48	H	2.374153	-0.745395	0.220772
H49	H	2.358778	-0.569107	0.130148
H50	H	2.000441	-0.432522	-0.289249
O51	O	1.699791	-0.536623	-0.314779
C52	C	1.541396	-0.461331	-0.314153
H53	H	1.544142	-0.378974	-0.222365
H54	H	1.487887	-0.416617	-0.466625
H55	H	1.464076	-0.527514	-0.252969
H56	H	1.745507	0.118244	0.465862
