data_functionalizedCrystal
_audit_creation_method	'MofGen! by Chris Wilmer'
_symmetry_space_group_name_H-M	'P1'
_symmetry_Int_Tables_number	1
_symmetry_cell_setting	triclinic
loop_
_symmetry_equiv_pos_as_xyz
  x,y,z
_cell_length_a	10.654550
_cell_length_b	11.804783
_cell_length_c	10.654551
_cell_angle_alpha	76.809844
_cell_angle_beta	84.485132
_cell_angle_gamma	76.827619
loop_
_atom_site_label
_atom_site_type_symbol
_atom_site_fract_x
_atom_site_fract_y
_atom_site_fract_z
O1	O	1.645001	0.099109	0.153534
O2	O	1.279528	0.099089	0.170344
O3	O	1.470667	0.099100	-0.020800
O4	O	1.453862	0.099098	0.344678
O5	O	1.516290	-0.098938	0.024882
O6	O	1.325151	-0.098949	0.216027
O7	O	1.690624	-0.098929	0.199216
Cu8	Cu	1.512053	-0.117022	0.211792
Cu9	Cu	1.458099	0.117182	0.157768
O10	O	1.499485	-0.098940	0.390361
C11	C	1.255542	0.000067	0.191952
C12	C	1.116100	0.000060	0.188262
C13	C	1.036611	0.000077	0.300799
C14	C	0.905585	0.000098	0.297318
C15	C	0.933550	0.000090	0.068751
C16	C	1.064575	0.000061	0.072235
C17	C	1.088136	0.000077	0.416826
C18	C	1.008646	0.000095	0.529373
C19	C	0.877620	0.000115	0.525891
C20	C	0.826085	0.000118	0.409864
N21	N	1.550011	-0.281748	0.249790
C22	C	1.328955	-0.655781	0.028505
C23	C	1.300216	-0.531130	-0.000248
C24	C	1.362662	-0.468779	0.062259
C25	C	1.453853	-0.531090	0.153524
C26	C	1.482602	-0.655753	0.182272
C27	C	1.516309	-0.468750	0.216027
C28	C	1.607500	-0.531062	0.307291
C29	C	1.636244	-0.655712	0.336035
C30	C	1.573798	-0.718064	0.273528
C31	C	1.487559	-0.344087	0.187278
C32	C	1.641207	-0.344059	0.341046
C33	C	1.669946	-0.468710	0.369798
C34	C	1.714610	0.000095	0.177608
C35	C	1.854049	0.000110	0.181296
C36	C	1.492243	0.000084	-0.044758
C37	C	1.488549	0.000091	-0.184203
N38	N	1.420151	0.281908	0.119761
C39	C	1.461948	0.108040	-0.274616
C40	C	1.458469	0.108034	-0.405635
C41	C	1.508200	-0.107878	-0.355815
C42	C	1.511669	-0.107871	-0.224797
C43	C	1.438828	0.216003	-0.234021
C44	C	1.412227	0.323960	-0.324436
C45	C	1.408748	0.323954	-0.455455
C46	C	1.431870	0.215991	-0.496059
C47	C	1.477908	0.000079	0.414318
C48	C	1.481600	0.000079	0.553761
H49	H	0.891574	0.000111	-0.025719
H50	H	1.413311	-0.293366	0.112972
H51	H	1.339256	-0.367282	0.038844
C52	C	1.533645	-0.226625	-0.400480
H53	H	1.527781	-0.211168	-0.491461
H54	H	1.471327	-0.270988	-0.359836
H55	H	1.617550	-0.270973	-0.377716
C56	C	1.065324	0.000088	0.656996
H57	H	0.999217	0.000089	0.723524
H58	H	1.099963	0.069139	0.647175
H59	H	1.131748	-0.068990	0.679039
H60	H	1.710509	-0.706443	0.410337
C61	C	1.540932	-0.226612	-0.125339
H62	H	1.554222	-0.290911	-0.168281
H63	H	1.470209	-0.231095	-0.064254
H64	H	1.616436	-0.231093	-0.082137
C65	C	1.199908	-0.462597	-0.100621
H66	H	1.166825	-0.517581	-0.133722
H67	H	1.239652	-0.413951	-0.169161
H68	H	1.131340	-0.413988	-0.060893
H69	H	1.597188	-0.819565	0.296940
C70	C	1.232260	0.000048	0.420662
H71	H	1.251567	0.000042	0.505880
H72	H	1.251176	0.069098	0.363304
H73	H	1.282954	-0.069031	0.395185
H74	H	0.812904	0.000118	0.617535
C75	C	0.681959	0.000144	0.406035
H76	H	0.641994	0.000160	0.489675
H77	H	0.673365	-0.068907	0.378967
H78	H	0.641595	0.069223	0.347109
C79	C	1.152013	0.000059	-0.051557
H80	H	1.102558	0.000084	-0.121162
H81	H	1.219601	-0.069009	-0.039023
H82	H	1.187808	0.069120	-0.070871
C83	C	1.770259	-0.537260	0.470175
H84	H	1.778439	-0.620429	0.478332
H85	H	1.742964	-0.516844	0.551183
H86	H	1.851275	-0.516812	0.442915
H87	H	1.692057	-0.293293	0.391944
C88	C	1.260278	-0.724368	-0.040243
H89	H	1.290458	-0.807531	-0.010044
H90	H	1.278155	-0.703930	-0.130672
H91	H	1.169841	-0.703968	-0.022406
H92	H	1.441661	0.216019	-0.127342
H93	H	1.393389	0.411859	-0.291366
C94	C	1.379490	0.442699	-0.554907
H95	H	1.366229	0.506993	-0.511962
H96	H	1.303993	0.447193	-0.598116
H97	H	1.450223	0.447178	-0.615991
H98	H	1.429017	0.215995	-0.602744
