data_functionalizedCrystal
_audit_creation_method	'MofGen! by Chris Wilmer'
_symmetry_space_group_name_H-M	'P1'
_symmetry_Int_Tables_number	1
_symmetry_cell_setting	triclinic
loop_
_symmetry_equiv_pos_as_xyz
  x,y,z
_cell_length_a	17.077404
_cell_length_b	25.639239
_cell_length_c	17.077396
_cell_angle_alpha	90.031074
_cell_angle_beta	90.019501
_cell_angle_gamma	90.038911
loop_
_atom_site_label
_atom_site_type_symbol
_atom_site_fract_x
_atom_site_fract_y
_atom_site_fract_z
Zn1	Zn	1.199968	-0.208148	0.443829
Zn2	Zn	1.199839	-0.295585	0.312557
Zn3	Zn	1.068700	-0.208166	0.312576
Zn4	Zn	1.068632	-0.295554	0.443780
O5	O	1.134285	-0.251863	0.378185
O6	O	1.309798	-0.219752	0.426427
O7	O	1.182418	-0.284010	0.202712
O8	O	1.086196	-0.134998	0.330016
O9	O	1.309703	-0.283992	0.329982
O10	O	1.182638	-0.134985	0.426446
O11	O	1.086071	-0.219783	0.202727
O12	O	0.958844	-0.219753	0.329969
O13	O	1.086080	-0.283939	0.553634
O14	O	0.958794	-0.283957	0.426364
O15	O	1.182572	-0.219722	0.553669
O16	O	1.182352	-0.368746	0.329935
O17	O	1.085954	-0.368724	0.426345
C18	C	0.930337	-0.251854	0.378164
C19	C	0.843087	-0.251862	0.378173
C20	C	0.802092	-0.285344	0.428285
C21	C	0.720111	-0.285345	0.428298
C22	C	0.679128	-0.251867	0.378194
C23	C	0.720129	-0.218382	0.328079
C24	C	0.802108	-0.218378	0.328071
C25	C	0.549259	-0.218392	0.328098
C26	C	0.467275	-0.218396	0.328105
C27	C	0.467262	-0.285358	0.428325
C28	C	0.549241	-0.285355	0.428317
C29	C	0.590237	-0.251871	0.378201
C30	C	1.134153	-0.387706	0.378150
C31	C	1.134168	-0.445820	0.378160
C32	C	1.184610	-0.806182	0.328071
C33	C	1.184641	-0.860787	0.328081
O34	O	1.227391	-0.889023	0.285454
N35	N	1.134423	-0.888102	0.378237
C36	C	1.084177	-0.860811	0.428392
O37	O	1.041467	-0.889059	0.471056
C38	C	1.084151	-0.806208	0.428385
C39	C	1.134367	-0.778895	0.378220
C40	C	1.234822	-0.778869	0.277910
C41	C	1.234790	-0.724269	0.277899
C42	C	1.184547	-0.696981	0.328048
C43	C	1.134335	-0.724294	0.378209
C44	C	1.033910	-0.778917	0.478543
C45	C	1.033889	-0.724310	0.478532
C46	C	1.084104	-0.696997	0.428367
C47	C	1.084060	-0.642406	0.428346
N48	N	1.134278	-0.615090	0.378190
C49	C	1.184521	-0.642378	0.328041
C50	C	1.084236	-0.975482	0.428404
C51	C	1.084258	-1.030084	0.428408
C52	C	1.184722	-1.030056	0.328098
C53	C	1.184696	-0.975452	0.328091
C54	C	1.134454	-0.948166	0.378248
C55	C	1.184450	-0.527713	0.328020
C56	C	1.184412	-0.473107	0.328011
C57	C	1.083951	-0.473140	0.428324
C58	C	1.083986	-0.527741	0.428331
C59	C	1.134242	-0.555026	0.378176
O60	O	1.041334	-0.614135	0.470954
O61	O	1.227232	-0.614123	0.285392
C62	C	1.339029	-0.251873	0.378208
C63	C	1.426279	-0.251877	0.378217
C64	C	1.134333	-0.251825	0.582930
C65	C	1.134353	-0.251808	0.670180
C66	C	1.134439	-0.115490	0.378239
C67	C	1.134505	-0.057376	0.378261
C68	C	1.134283	-0.251864	0.174238
C69	C	1.134415	-0.251733	0.086988
C70	C	1.184598	-0.218368	0.711190
C71	C	1.184608	-0.218350	0.793170
C72	C	1.134375	-0.251777	0.834139
C73	C	1.084124	-0.285219	0.793123
C74	C	1.084111	-0.285233	0.711144
C75	C	1.084156	-0.285187	0.963994
C76	C	1.084169	-0.285174	1.045978
C77	C	1.184652	-0.218304	1.046019
C78	C	1.184639	-0.218319	0.964040
C79	C	1.134389	-0.251762	0.923030
H80	H	0.835454	-0.312607	0.469084
H81	H	0.686736	-0.312609	0.469104
H82	H	1.043264	-0.312391	1.079333
H83	H	1.225506	-0.191150	0.677838
H84	H	0.582607	-0.312619	0.469112
O85	O	1.233448	-0.185937	0.833099
C86	C	1.339466	-0.178885	0.925659
C87	C	1.284196	-0.215656	0.880500
H88	H	1.380521	-0.202899	0.963981
H89	H	1.303496	-0.151548	0.964090
H90	H	1.375334	-0.154983	0.882288
H91	H	1.248316	-0.239592	0.923815
H92	H	1.320211	-0.242959	0.842057
H93	H	1.043040	-0.450914	0.469153
H94	H	0.582636	-0.191121	0.287296
O95	O	1.233351	-0.185770	0.924285
C96	C	1.271574	-0.096838	0.899297
C97	C	1.216349	-0.133643	0.944350
H98	H	1.257859	-0.054686	0.915516
H99	H	1.262935	-0.102542	0.833649
H100	H	1.334857	-0.106045	0.915415
H101	H	1.153044	-0.124459	0.928298
H102	H	1.225055	-0.127932	1.009987
O103	O	1.233382	-0.185827	1.085973
C104	C	1.277951	-0.156177	1.212285
C105	C	1.222717	-0.192974	1.167131
H106	H	1.269359	-0.161950	1.277909
H107	H	1.264205	-0.114011	1.196231
H108	H	1.341228	-0.165355	1.196134
H109	H	1.159421	-0.183842	1.183258
H110	H	1.236531	-0.235129	1.183189
O111	O	1.035331	-0.317732	0.924277
C112	C	0.935670	-0.384056	0.932883
C113	C	0.990922	-0.347229	0.977959
H114	H	0.899739	-0.407907	0.976266
H115	H	0.971654	-0.411434	0.894529
H116	H	0.894673	-0.360061	0.894473
H117	H	1.031930	-0.371183	1.016412
H118	H	0.954889	-0.319851	1.016264
O119	O	0.427322	-0.317834	0.476987
C120	C	0.301023	-0.347538	0.521389
C121	C	0.346161	-0.310724	0.466259
H122	H	0.235397	-0.341810	0.512722
H123	H	0.317123	-0.338411	0.584725
H124	H	0.317141	-0.389679	0.507492
H125	H	0.330067	-0.268571	0.480084
H126	H	0.330057	-0.319896	0.402939
H127	H	0.993016	-0.801146	0.519390
O128	O	1.233163	-0.554274	0.279272
C129	C	1.243841	-0.615942	0.173288
C130	C	1.188589	-0.585901	0.228454
H131	H	1.207825	-0.641511	0.132177
H132	H	1.284866	-0.641493	0.209335
H133	H	1.279744	-0.587029	0.137474
H134	H	1.152635	-0.614776	0.264280
H135	H	1.147616	-0.560343	0.192362
O136	O	1.035288	-0.317773	0.671426
C137	C	0.935611	-0.384088	0.680032
C138	C	0.990875	-0.347269	0.725109
H139	H	0.899676	-0.407936	0.723415
H140	H	0.971585	-0.411467	0.641673
H141	H	0.894617	-0.360086	0.641628
H142	H	1.031880	-0.371229	0.763556
H143	H	0.954852	-0.319888	0.763418
H144	H	1.275682	-0.702034	0.237052
H145	H	0.433908	-0.191129	0.287315
O146	O	0.842022	-0.185929	0.279351
C147	C	0.934507	-0.178804	0.173353
C148	C	0.889368	-0.215614	0.228489
H149	H	0.972785	-0.202789	0.132206
H150	H	0.972981	-0.151503	0.209422
H151	H	0.891123	-0.154865	0.137577
H152	H	0.932696	-0.239587	0.264277
H153	H	0.850883	-0.242880	0.192375
H154	H	0.686754	-0.191121	0.287287
H155	H	1.043317	-0.953267	0.469246
O156	O	1.283762	-0.805297	0.229229
C157	C	1.417343	-0.821884	0.191294
C158	C	1.361994	-0.791930	0.246471
H159	H	1.480606	-0.811097	0.205225
H160	H	1.403655	-0.811159	0.127976
H161	H	1.408737	-0.865606	0.199867
H162	H	1.370568	-0.748201	0.237968
H163	H	1.375695	-0.802699	0.309768
H164	H	1.043221	-0.312433	0.826487
H165	H	1.225303	-0.450871	0.287158
H166	H	1.225586	-0.953217	0.287242
O167	O	1.233669	-1.056492	0.279426
C168	C	1.367254	-1.073099	0.241526
C169	C	1.311900	-1.043129	0.296678
H170	H	1.430516	-1.062314	0.255465
H171	H	1.353582	-1.062386	0.178201
H172	H	1.358639	-1.116818	0.250118
H173	H	1.320484	-0.999402	0.288155
H174	H	1.325586	-1.053885	0.359983
H175	H	1.043360	-1.052318	0.469250
H176	H	0.992977	-0.702096	0.519379
H177	H	1.043099	-0.549980	0.469182
