data_functionalizedCrystal
_audit_creation_method	'MofGen! by Chris Wilmer'
_symmetry_space_group_name_H-M	'P1'
_symmetry_Int_Tables_number	1
_symmetry_cell_setting	triclinic
loop_
_symmetry_equiv_pos_as_xyz
  x,y,z
_cell_length_a	11.792241
_cell_length_b	16.992695
_cell_length_c	16.053880
_cell_angle_alpha	87.273789
_cell_angle_beta	92.854951
_cell_angle_gamma	92.569181
loop_
_atom_site_label
_atom_site_type_symbol
_atom_site_fract_x
_atom_site_fract_y
_atom_site_fract_z
O1	O	1.520213	-0.110482	0.069348
O2	O	1.190780	-0.121563	0.069368
O3	O	1.354175	-0.001874	0.069351
O4	O	1.356817	-0.230171	0.069364
O5	O	1.345129	0.004077	-0.069506
O6	O	1.181734	-0.115612	-0.069490
O7	O	1.511167	-0.104531	-0.069509
Zn8	Zn	1.345014	-0.109127	-0.091546
Zn9	Zn	1.356933	-0.116968	0.091404
O10	O	1.347771	-0.224220	-0.069493
C11	C	1.346254	0.030328	-0.000077
C12	C	1.336117	0.117416	-0.000076
C13	C	1.143909	-0.117892	-0.000059
C14	C	1.017725	-0.115809	-0.000051
N15	N	1.336888	-0.103775	-0.216405
C16	C	0.786698	-0.111977	-0.000076
C17	C	0.915258	-0.114106	-0.000062
C18	C	1.558038	-0.108203	-0.000081
C19	C	1.684222	-0.110286	-0.000083
C20	C	1.355692	-0.256423	-0.000063
C21	C	1.365831	-0.343510	-0.000058
C22	C	1.433934	0.167241	-0.000083
C23	C	1.424402	0.249067	-0.000074
C24	C	1.317051	0.281068	-0.000065
C25	C	1.219227	0.231236	-0.000056
C26	C	1.228760	0.149411	-0.000059
C27	C	1.277539	0.524833	-0.000051
C28	C	1.268013	0.606665	-0.000051
C29	C	1.473190	0.624490	-0.000068
C30	C	1.482713	0.542663	-0.000076
C31	C	1.384889	0.492838	-0.000062
N32	N	1.307305	0.364708	-0.000059
N33	N	1.394636	0.409199	-0.000062
N34	N	1.365067	-0.122313	0.216263
C35	C	1.407074	-0.149895	0.739889
C36	C	1.401373	-0.146147	0.652483
C37	C	1.325481	-0.096282	0.608785
C38	C	1.255292	-0.050157	0.652497
C39	C	1.260999	-0.053901	0.739901
C40	C	1.300585	-0.079932	0.347380
C41	C	1.294881	-0.076193	0.259969
C42	C	1.440964	-0.172182	0.259962
C43	C	1.446660	-0.175926	0.347367
C44	C	1.376476	-0.129798	0.391072
N45	N	1.319649	-0.092451	0.519442
N46	N	1.382314	-0.133625	0.480413
H47	H	1.504056	0.289632	-0.000082
O48	O	1.182438	0.476519	0.000063
C49	C	1.122398	0.487996	0.071991
H50	H	1.146219	0.548910	0.095968
H51	H	1.027170	0.483344	0.055818
H52	H	1.145251	0.441015	0.122347
O53	O	1.509191	-0.217060	0.217636
C54	C	1.577423	-0.261857	0.274948
H55	H	1.534893	-0.268829	0.337258
H56	H	1.588252	-0.322511	0.249698
H57	H	1.664295	-0.230457	0.284233
O58	O	1.520436	-0.224260	0.389911
C59	C	1.597010	-0.179049	0.440448
H60	H	1.557424	-0.121182	0.453536
H61	H	1.616422	-0.213297	0.501914
H62	H	1.679103	-0.166112	0.406761
H63	H	1.468868	-0.190505	0.775462
O64	O	1.568186	0.672916	0.000075
C65	C	1.573480	0.717706	0.071981
H66	H	1.521409	0.685830	0.122247
H67	H	1.665676	0.725480	0.096118
H68	H	1.537638	0.778024	0.055726
H69	H	1.570129	0.516614	-0.000083
H70	H	1.233074	-0.035587	0.224393
O71	O	1.469591	-0.191031	0.610157
C72	C	1.537812	-0.235836	0.667469
H73	H	1.495283	-0.242802	0.729779
H74	H	1.548624	-0.296492	0.642218
H75	H	1.624692	-0.204447	0.676752
O76	O	1.181597	-0.001784	0.609924
C77	C	1.191637	-0.008340	0.523405
H78	H	1.228459	-0.067439	0.511459
H79	H	1.104206	-0.004438	0.490196
H80	H	1.250361	0.041555	0.498600
H81	H	1.131820	0.257297	-0.000043
H82	H	1.180590	0.632717	-0.000057
O83	O	1.133623	0.101122	-0.000089
C84	C	1.036828	0.146910	-0.000059
H85	H	1.058391	0.208979	-0.026353
H86	H	0.965205	0.118761	-0.040364
H87	H	1.008618	0.150014	0.066561
O88	O	1.232288	-0.035103	0.389697
C89	C	1.164099	0.009721	0.332382
H90	H	1.156267	-0.020053	0.270082
H91	H	1.076046	0.014035	0.357645
H92	H	1.204841	0.071427	0.323073
O93	O	1.192982	-0.009015	0.782398
C94	C	1.260798	0.041930	0.832958
H95	H	1.348673	0.050949	0.806604
H96	H	1.219383	0.101202	0.833953
H97	H	1.269175	0.014836	0.899201
H98	H	1.521350	0.141193	-0.000096
