data_functionalizedCrystal
_audit_creation_method	'MofGen! by Chris Wilmer'
_symmetry_space_group_name_H-M	'P1'
_symmetry_Int_Tables_number	1
_symmetry_cell_setting	triclinic
loop_
_symmetry_equiv_pos_as_xyz
  x,y,z
_cell_length_a	14.971482
_cell_length_b	10.540539
_cell_length_c	13.448316
_cell_angle_alpha	89.995557
_cell_angle_beta	89.993798
_cell_angle_gamma	84.069050
loop_
_atom_site_label
_atom_site_type_symbol
_atom_site_fract_x
_atom_site_fract_y
_atom_site_fract_z
O1	O	1.187881	0.165401	-0.082674
O2	O	0.927592	0.185215	-0.082678
O3	O	1.063675	-0.009466	-0.082675
O4	O	1.051799	0.360082	-0.082678
O5	O	1.063658	-0.009478	0.082709
O6	O	0.927575	0.185203	0.082705
O7	O	1.187864	0.165389	0.082710
Cu8	Cu	1.057718	0.175295	0.097808
Cu9	Cu	1.057738	0.175309	-0.097777
O10	O	1.051781	0.360070	0.082706
C11	C	0.894254	0.184324	0.000013
C12	C	0.794942	0.181671	0.000011
C13	C	0.748281	0.180415	0.090163
C14	C	0.654968	0.177902	0.090164
C15	C	0.608317	0.176654	0.000012
C16	C	0.654985	0.177907	-0.090147
C17	C	0.748297	0.180411	-0.090147
C18	C	0.460494	0.172691	-0.090140
C19	C	0.367176	0.170189	-0.090140
C20	C	0.367165	0.170182	0.090170
C21	C	0.460477	0.172686	0.090170
C22	C	0.507138	0.173941	0.000011
C23	C	1.062776	-0.056765	0.000015
C24	C	1.060111	-0.197683	0.000010
C25	C	0.958002	-0.379949	-0.000363
C26	C	0.960704	-0.233361	0.000009
C27	C	1.107941	-0.259891	0.094453
C28	C	1.104548	-0.406397	0.094532
C29	C	1.106589	-0.406924	-0.093540
C30	C	1.107505	-0.259953	-0.094789
C31	C	1.221202	0.166280	0.000016
C32	C	1.320515	0.168933	0.000011
C33	C	1.052681	0.407369	0.000014
C34	C	1.055345	0.548287	0.000013
N35	N	1.057710	0.175284	0.235373
N36	N	1.057753	0.175310	-0.235341
C37	C	1.117987	0.089115	0.287415
C38	C	1.117992	0.089114	0.391518
C39	C	1.057725	0.175289	0.443577
C40	C	0.997442	0.261463	0.391528
C41	C	0.997433	0.261457	0.287427
C42	C	0.997467	0.261471	0.608508
C43	C	0.997477	0.261479	0.712617
C44	C	1.118026	0.089128	0.712599
C45	C	1.118017	0.089122	0.608498
C46	C	1.057735	0.175298	0.556456
H47	H	0.786256	0.181442	0.163575
H48	H	1.167073	0.018947	0.433890
Cl49	Cl	0.308506	0.168606	0.203513
Cl50	Cl	1.220650	-0.226663	0.099882
Cl51	Cl	0.806958	0.181984	-0.203485
H52	H	1.167095	0.018958	0.566111
Cl53	Cl	0.921706	0.369817	0.778055
H54	H	0.923068	-0.190325	-0.067691
H55	H	1.069185	-0.434200	0.165129
Cl56	Cl	0.897380	-0.423404	-0.104929
H57	H	0.922790	-0.191179	0.067821
H58	H	1.178391	-0.454966	-0.094174
H59	H	1.167067	0.018946	0.245035
H60	H	1.176040	-0.455178	0.098818
Cl61	Cl	1.056919	-0.455046	-0.204058
Cl62	Cl	0.897439	-0.426449	0.103307
Cl63	Cl	1.056623	-0.193553	0.202963
Cl64	Cl	1.193809	-0.019202	0.778027
Cl65	Cl	1.053926	-0.195505	-0.202675
Cl66	Cl	1.219404	-0.223824	-0.103599
H67	H	0.948376	0.331641	0.566139
H68	H	0.948366	0.331624	0.433921
H69	H	0.948348	0.331623	0.245055
H70	H	0.329195	0.169174	-0.163550
H71	H	0.498456	0.173710	0.163580
Cl72	Cl	0.519153	0.174265	-0.203485
Cl73	Cl	0.596310	0.176346	0.203503
H74	H	0.616996	0.176882	-0.163550
