data_functionalizedCrystal
_audit_creation_method	'MofGen! by Chris Wilmer'
_symmetry_space_group_name_H-M	'P1'
_symmetry_Int_Tables_number	1
_symmetry_cell_setting	triclinic
loop_
_symmetry_equiv_pos_as_xyz
  x,y,z
_cell_length_a	16.109301
_cell_length_b	15.538191
_cell_length_c	14.586319
_cell_angle_alpha	89.999456
_cell_angle_beta	89.999213
_cell_angle_gamma	65.366787
loop_
_atom_site_label
_atom_site_type_symbol
_atom_site_fract_x
_atom_site_fract_y
_atom_site_fract_z
O1	O	1.066616	0.121093	-0.076175
O2	O	0.820010	0.136163	-0.076189
O3	O	0.991317	-0.008516	-0.076184
O4	O	0.895309	0.265773	-0.076180
O5	O	0.991309	-0.008518	0.076297
O6	O	0.820002	0.136161	0.076292
O7	O	1.066608	0.121091	0.076306
Cu8	Cu	0.943304	0.128626	0.090221
Cu9	Cu	0.943314	0.128629	-0.090105
O10	O	0.895301	0.265770	0.076300
C11	C	0.789215	0.135552	0.000050
C12	C	0.697472	0.133722	0.000044
C13	C	0.450596	0.215316	0.000056
C14	C	0.364396	0.213589	0.000062
C15	C	0.436032	0.041932	0.000056
C16	C	0.522229	0.043660	0.000056
C17	C	0.529508	0.130355	0.000052
C18	C	0.357111	0.126900	0.000057
C19	C	0.263649	0.125027	0.000063
C20	C	0.622975	0.132228	0.000047
C21	C	1.001358	-0.043615	0.000054
C22	C	1.031279	-0.148198	0.000047
C23	C	0.734025	-0.435898	0.000050
C24	C	0.762161	-0.534172	0.000053
C25	C	0.920419	-0.556664	0.000062
C26	C	0.892297	-0.458389	0.000054
C27	C	0.799099	-0.398013	0.000049
C28	C	0.957370	-0.420505	0.000053
C29	C	0.929249	-0.322239	0.000049
C30	C	0.836055	-0.261857	0.000047
C31	C	0.770978	-0.299747	0.000046
C32	C	1.050568	-0.480882	0.000064
C33	C	1.115641	-0.442998	0.000063
C34	C	1.087520	-0.344730	0.000053
C35	C	0.994326	-0.284349	0.000051
C36	C	1.152598	-0.306840	0.000055
C37	C	1.124477	-0.208574	0.000052
C38	C	0.966206	-0.186083	0.000048
C39	C	1.097403	0.121703	0.000065
C40	C	1.189147	0.123533	0.000065
C41	C	0.885260	0.300870	0.000060
C42	C	0.855340	0.405453	0.000062
N43	N	0.943304	0.128624	0.217053
N44	N	0.943324	0.128624	-0.216937
C45	C	1.019171	0.064581	0.452062
C46	C	1.019174	0.064579	0.548043
C47	C	0.867450	0.192669	0.548048
C48	C	0.867445	0.192666	0.452069
C49	C	0.943310	0.128623	0.404078
C50	C	0.943318	0.128624	0.596039
C51	C	0.943320	0.128622	0.700106
C52	C	0.943307	0.128624	0.300004
H53	H	0.300146	0.282773	0.000067
H54	H	0.586487	-0.025530	0.000056
H55	H	1.080944	0.012432	0.412990
O56	O	0.429006	-0.042303	0.000212
C57	C	0.471878	-0.094112	0.079167
H58	H	0.474614	-0.043424	0.134371
H59	H	0.431439	-0.134185	0.105667
H60	H	0.544246	-0.146621	0.061311
O61	O	0.643455	-0.377375	0.000075
C62	C	0.592043	-0.431880	0.000043
H63	H	0.635277	-0.505224	0.028920
H64	H	0.528564	-0.395614	0.044300
H65	H	0.570715	-0.438877	-0.073114
H66	H	1.177466	-0.177729	0.000052
O67	O	1.092957	0.002335	0.594512
C68	C	1.159901	-0.054204	0.531569
H69	H	1.149179	-0.015577	0.463152
H70	H	1.230627	-0.068554	0.559296
H71	H	1.154033	-0.124200	0.521363
O72	O	0.793754	0.255010	0.594565
C73	C	0.779132	0.348274	0.571121
H74	H	0.811209	0.348165	0.501432
H75	H	0.702644	0.394648	0.567837
H76	H	0.811716	0.377427	0.625136
H77	H	0.456517	0.285908	0.000059
H78	H	0.805665	0.244817	0.412997
O79	O	0.875646	-0.127519	-0.000087
C80	C	0.834388	-0.144671	-0.079076
H81	H	0.877304	-0.219219	-0.105398
H82	H	0.762951	-0.137734	-0.061326
H83	H	0.829548	-0.090930	-0.134376
H84	H	0.996301	-0.605834	0.000070
H85	H	0.695087	-0.250585	0.000035
O86	O	0.808844	-0.166416	0.000166
C87	C	0.842830	-0.139744	0.079148
H88	H	0.905243	-0.202935	0.105482
H89	H	0.862916	-0.079529	0.061386
H90	H	0.787813	-0.115201	0.134444
O91	O	0.699031	-0.571087	-0.000071
C92	C	0.710551	-0.627239	-0.079052
H93	H	0.783471	-0.651722	-0.105379
H94	H	0.696836	-0.691581	-0.061289
H95	H	0.660662	-0.583821	-0.134352
H96	H	1.073460	-0.560896	0.000059
H97	H	1.228479	-0.356012	0.000068
H98	H	1.191523	-0.492169	0.000071
