data_functionalizedCrystal
_audit_creation_method	'MofGen! by Chris Wilmer'
_symmetry_space_group_name_H-M	'P1'
_symmetry_Int_Tables_number	1
_symmetry_cell_setting	triclinic
loop_
_symmetry_equiv_pos_as_xyz
  x,y,z
_cell_length_a	9.065218
_cell_length_b	8.597304
_cell_length_c	8.140239
_cell_angle_alpha	82.296592
_cell_angle_beta	89.997198
_cell_angle_gamma	85.172810
loop_
_atom_site_label
_atom_site_type_symbol
_atom_site_fract_x
_atom_site_fract_y
_atom_site_fract_z
O1	O	1.960827	0.230168	-0.169189
O2	O	2.460827	0.730168	0.330811
O3	O	1.531577	0.249048	-0.171862
O4	O	2.031577	0.749048	0.328138
O5	O	1.754650	0.011261	-0.138202
O6	O	2.254650	0.511261	0.361798
O7	O	1.737755	0.467955	-0.202849
O8	O	2.237755	0.967955	0.297151
O9	O	1.754637	0.011258	0.135026
O10	O	2.254637	0.511258	0.635026
O11	O	1.531565	0.249045	0.101365
O12	O	2.031565	0.749045	0.601365
O13	O	1.960815	0.230165	0.104039
O14	O	2.460815	0.730165	0.604039
Zn15	Zn	1.746188	0.239605	0.146083
Zn16	Zn	2.246188	0.739605	0.646083
Zn17	Zn	1.746204	0.239608	-0.213906
Zn18	Zn	2.246204	0.739608	0.286094
O19	O	1.737742	0.467952	0.070378
O20	O	2.237742	0.967952	0.570378
C21	C	1.476581	0.247232	-0.034992
C22	C	1.976581	0.747232	0.465008
C23	C	1.312728	0.241807	-0.034225
C24	C	1.812728	0.741807	0.465775
C25	C	1.752829	-0.047238	0.006689
C26	C	2.252829	0.452762	0.506689
C27	C	1.747404	-0.221541	0.031352
C28	C	2.247404	0.278459	0.531352
C29	C	2.015811	0.231981	-0.032835
C30	C	2.515811	0.731981	0.467165
C31	C	2.179664	0.237406	-0.033613
C32	C	2.679664	0.737406	0.466387
C33	C	1.739563	0.526450	-0.074516
C34	C	2.239563	1.026450	0.425484
C35	C	1.744988	0.700754	-0.099190
C36	C	2.244988	1.200754	0.400810
N37	N	1.746187	0.239601	0.391766
N38	N	2.246187	0.739601	0.891766
N39	N	1.746216	0.239600	-0.459588
N40	N	2.246216	0.739600	0.040412
H41	H	1.747065	-0.232424	-0.229832
H42	H	2.247065	0.267576	0.270168
H43	H	1.745306	-0.288369	0.162002
H44	H	2.245306	0.211631	0.662002
