data_functionalizedCrystal
_audit_creation_method	'MofGen! by Chris Wilmer'
_symmetry_space_group_name_H-M	'P1'
_symmetry_Int_Tables_number	1
_symmetry_cell_setting	triclinic
loop_
_symmetry_equiv_pos_as_xyz
  x,y,z
_cell_length_a	10.489741
_cell_length_b	10.489741
_cell_length_c	8.965430
_cell_angle_alpha	89.999293
_cell_angle_beta	89.998843
_cell_angle_gamma	95.460826
loop_
_atom_site_label
_atom_site_type_symbol
_atom_site_fract_x
_atom_site_fract_y
_atom_site_fract_z
O1	O	1.694053	-0.179958	-0.123946
O2	O	1.322858	-0.196851	-0.123969
O3	O	1.516902	-0.002807	-0.123948
O4	O	1.500009	-0.374003	-0.123967
O5	O	1.516886	-0.002820	0.124130
O6	O	1.322841	-0.196864	0.124110
O7	O	1.694037	-0.179971	0.124133
Cu8	Cu	1.508438	-0.188419	0.146773
Cu9	Cu	1.508457	-0.188404	-0.146609
O10	O	1.499993	-0.374016	0.124112
C11	C	1.275318	-0.195582	0.000067
C12	C	1.133688	-0.191765	0.000059
C13	C	1.065548	-0.068300	0.000079
C14	C	0.973430	-0.126617	-0.122237
C15	C	0.973447	-0.126659	0.122349
C16	C	1.043435	-0.250133	-0.122358
C17	C	1.043462	-0.250158	0.122338
C18	C	0.951371	-0.308564	-0.000007
C19	C	1.515618	0.044718	0.000090
C20	C	1.511801	0.186348	0.000087
C21	C	1.741577	-0.181241	0.000093
C22	C	1.883206	-0.185058	0.000092
C23	C	1.501277	-0.421541	0.000070
C24	C	1.505094	-0.563170	0.000063
N25	N	1.508433	-0.188429	0.353122
C26	C	1.388336	0.254488	0.000069
C27	C	1.446652	0.346604	0.122388
C28	C	1.446697	0.346591	-0.122198
C29	C	1.570167	0.276599	0.122508
C30	C	1.570195	0.276576	-0.122189
C31	C	1.628600	0.368665	0.000161
N32	N	1.508471	-0.188384	-0.352958
C33	C	1.418666	-0.278138	0.450418
C34	C	1.534163	-0.303949	0.549838
C35	C	1.392986	-0.162629	0.549830
C36	C	1.623988	-0.214298	0.450352
C37	C	1.482735	-0.072927	0.450336
C38	C	1.598314	-0.098690	0.549711
H39	H	1.115238	0.033196	-0.000069
N40	N	1.377444	0.387663	0.259364
H41	H	1.300802	0.432700	0.228162
H42	H	1.437372	0.447890	0.320587
N43	N	1.639273	0.235779	0.259669
H44	H	1.729757	0.278410	0.260112
H45	H	1.641297	0.139715	0.258793
N46	N	0.932334	-0.057422	-0.259204
H47	H	0.959025	-0.103149	-0.351591
H48	H	0.974274	0.033327	-0.258978
N49	N	1.253876	0.188717	0.000204
H50	H	1.207401	0.214007	0.092685
H51	H	1.257508	0.092854	-0.000797
N52	N	1.698999	0.001823	0.607115
H53	H	1.697963	0.001794	0.719763
H54	H	1.680298	0.088779	0.569212
N55	N	1.763180	0.434140	0.000244
H56	H	1.809626	0.408697	0.092676
H57	H	1.759767	0.530033	-0.000692
H58	H	1.622398	0.245537	-0.225600
N59	N	1.453874	0.056394	0.392395
H60	H	1.366586	0.075789	0.428517
H61	H	1.454982	0.055567	0.279757
H62	H	1.394447	0.377561	-0.225620
N63	N	1.263648	-0.133744	0.607727
H64	H	1.195900	-0.201586	0.571610
H65	H	1.243635	-0.047151	0.569970
N66	N	1.318193	-0.378707	0.392672
H67	H	1.337791	-0.465908	0.428874
H68	H	1.318372	-0.377361	0.280032
N69	N	1.084263	-0.319270	-0.259494
H70	H	1.180320	-0.321389	-0.258684
H71	H	1.058113	-0.272938	-0.351687
H72	H	1.555925	-0.401606	0.593543
H73	H	1.074502	-0.302361	0.225749
H74	H	1.721659	-0.236216	0.406840
N75	N	0.885883	-0.443139	-0.000090
H76	H	0.952541	-0.506560	-0.001016
H77	H	0.830034	-0.456102	-0.091624
N78	N	0.932396	-0.057450	0.259327
H79	H	0.974338	0.033303	0.259215
H80	H	0.959103	-0.103273	0.351633
