data_functionalizedCrystal
_audit_creation_method	'MofGen! by Chris Wilmer'
_symmetry_space_group_name_H-M	'P1'
_symmetry_Int_Tables_number	1
_symmetry_cell_setting	triclinic
loop_
_symmetry_equiv_pos_as_xyz
  x,y,z
_cell_length_a	35.277628
_cell_length_b	35.288095
_cell_length_c	35.277682
_cell_angle_alpha	59.997929
_cell_angle_beta	89.998958
_cell_angle_gamma	60.000166
loop_
_atom_site_label
_atom_site_type_symbol
_atom_site_fract_x
_atom_site_fract_y
_atom_site_fract_z
O1	O	-0.323087	-0.271234	0.011271
O2	O	-0.267964	-0.193634	-0.011228
O3	O	-0.267962	-0.271233	0.066395
O4	O	-0.323089	-0.193635	-0.066351
O5	O	-0.204915	-0.334261	0.066394
O6	O	-0.204918	-0.256661	-0.011228
O7	O	-0.260040	-0.334261	0.011271
Cu8	Cu	-0.226722	-0.301216	0.000022
Cu9	Cu	-0.301282	-0.226679	0.000022
O10	O	-0.260043	-0.256662	-0.066351
C11	C	-0.163481	-0.071298	-0.023519
C12	C	-0.186872	-0.024531	-0.020298
C13	C	-0.117860	-0.093995	-0.023838
C14	C	-0.163483	-0.139918	-0.023524
C15	C	-0.186875	-0.166518	-0.020308
C16	C	-0.117862	-0.162510	-0.023843
C17	C	-0.094838	-0.139921	-0.023519
C18	C	-0.044836	-0.166525	-0.020298
C19	C	-0.186401	-0.093991	-0.023843
C20	C	-0.004439	-0.188019	-0.017694
C21	C	-0.205769	0.013252	-0.017695
C22	C	-0.205774	-0.188010	-0.017709
C23	C	0.046241	-0.214983	-0.014429
C24	C	-0.229477	0.060653	-0.014430
C25	C	-0.229483	-0.214971	-0.014450
C26	C	-0.500364	-0.466062	0.034181
C27	C	-0.477341	-0.511990	0.034503
C28	C	-0.431722	-0.466060	0.034178
C29	C	-0.408804	-0.511988	0.034500
C30	C	-0.431721	-0.534685	0.034181
C31	C	-0.477342	-0.443470	0.034500
C32	C	-0.665895	-0.342485	0.021756
C33	C	-0.712772	-0.317221	0.018243
C34	C	-0.736287	-0.338907	0.016481
C35	C	-0.787116	-0.311512	0.012664
C36	C	-0.712921	-0.385861	0.018236
C37	C	-0.666047	-0.411125	0.021755
C38	C	-0.642533	-0.389434	0.023515
C39	C	-0.389805	-0.687746	0.021758
C40	C	-0.368199	-0.731097	0.018245
C41	C	-0.322995	-0.752841	0.016478
C42	C	-0.299567	-0.799839	0.012662
C43	C	-0.299393	-0.731235	0.018230
C44	C	-0.320995	-0.687892	0.021751
C45	C	-0.366205	-0.666148	0.023512
C46	C	-0.389808	-0.342477	0.021744
C47	C	-0.368205	-0.317208	0.018222
C48	C	-0.322998	-0.338892	0.016457
C49	C	-0.299573	-0.311495	0.012637
C50	C	-0.299398	-0.385842	0.018210
C51	C	-0.321003	-0.411107	0.021730
C52	C	-0.366208	-0.389423	0.023501
C53	C	-0.591706	-0.416830	0.027326
C54	C	-0.551191	-0.438667	0.030366
C55	C	-0.408299	-0.438663	0.030360
C56	C	-0.389629	-0.416824	0.027317
C57	C	-0.408298	-0.581682	0.030365
C58	C	-0.389627	-0.619146	0.027325
C59	C	-0.432024	-0.061845	-0.438511
C60	C	-0.477645	-0.015917	-0.461431
C61	C	-0.432025	-0.061844	-0.369869
C62	C	-0.477645	-0.015916	-0.392892
C63	C	-0.500668	0.006779	-0.438513
C64	C	-0.409106	-0.084435	-0.392891
C65	C	-0.320834	-0.185425	-0.480424
C66	C	-0.299076	-0.210690	-0.502029
C67	C	-0.322531	-0.189005	-0.547237
C68	C	-0.298945	-0.216401	-0.570661
C69	C	-0.367745	-0.142051	-0.570839
C70	C	-0.389497	-0.116787	-0.549237
C71	C	-0.366040	-0.138476	-0.504027
C72	C	-0.666200	0.159838	-0.549704
C73	C	-0.713077	0.203188	-0.571462
C74	C	-0.736595	0.224934	-0.548009
C75	C	-0.787423	0.271931	-0.571594
C76	C	-0.713230	0.203329	-0.502796
C77	C	-0.666353	0.159987	-0.481041
C78	C	-0.642841	0.138241	-0.504500
C79	C	-0.320836	-0.185423	-0.204335
C80	C	-0.299080	-0.210691	-0.157455
C81	C	-0.322536	-0.189006	-0.133940
C82	C	-0.298950	-0.216402	-0.083110
C83	C	-0.367748	-0.142056	-0.157305
C84	C	-0.389502	-0.116792	-0.204182
C85	C	-0.366040	-0.138478	-0.227695
C86	C	-0.389632	-0.111079	-0.480604
C87	C	-0.408436	-0.089241	-0.461934
C88	C	-0.408437	-0.089240	-0.319041
C89	C	-0.389634	-0.111078	-0.278525
C90	C	-0.551496	0.053776	-0.462102
C91	C	-0.592011	0.091239	-0.480906
O92	O	0.196122	-0.334274	0.011291
O93	O	0.063378	-0.256674	-0.011208
O94	O	0.140994	-0.334276	0.066414
O95	O	0.118506	-0.256671	-0.066331
O96	O	0.140996	-0.271251	0.066419
O97	O	0.063380	-0.193649	-0.011203
O98	O	0.196124	-0.271249	0.011296
Cu99	Cu	0.129752	-0.226694	0.000047
Cu100	Cu	0.129750	-0.301228	0.000041
O101	O	0.118508	-0.193647	-0.066327
O102	O	-0.260036	0.184774	0.011294
O103	O	-0.204910	0.074561	-0.011204
O104	O	-0.204913	0.074554	0.066418
O105	O	-0.260033	0.184781	-0.066328
O106	O	-0.267961	0.074557	0.066413
O107	O	-0.267958	0.074564	-0.011209
O108	O	-0.323083	0.184777	0.011289
Cu109	Cu	-0.301278	0.129670	0.000040
Cu110	Cu	-0.226716	0.129668	0.000045
O111	O	-0.323081	0.184784	-0.066333
O112	O	-0.936929	0.397535	-0.602582
O113	O	-0.804185	0.287317	-0.547454
O114	O	-0.881802	0.287315	-0.547452
O115	O	-0.859312	0.397537	-0.602584
O116	O	-0.881801	0.287314	-0.610498
O117	O	-0.804183	0.287316	-0.610500
O118	O	-0.936927	0.397533	-0.665628
Cu119	Cu	-0.870555	0.342425	-0.643820
Cu120	Cu	-0.870557	0.342426	-0.569261
O121	O	-0.859310	0.397536	-0.665629
O122	O	-0.267961	-0.271234	-0.665316
O123	O	-0.323086	-0.193638	-0.610192
O124	O	-0.323085	-0.271236	-0.610189
O125	O	-0.267962	-0.193636	-0.665319
O126	O	-0.260038	-0.334264	-0.547142
O127	O	-0.260039	-0.256666	-0.547145
O128	O	-0.204914	-0.334262	-0.602269
Cu129	Cu	-0.226720	-0.301219	-0.568950
Cu130	Cu	-0.301280	-0.226681	-0.643511
O131	O	-0.204915	-0.256664	-0.602272
C132	C	-0.094840	-0.456607	0.293255
C133	C	-0.044837	-0.503376	0.316647
C134	C	-0.117862	-0.433912	0.316174
C135	C	-0.163483	-0.387984	0.224612
C136	C	-0.186875	-0.361381	0.174609
C137	C	-0.186401	-0.365393	0.247634
C138	C	-0.163483	-0.387984	0.293255
C139	C	-0.186874	-0.361382	0.316646
C140	C	-0.117862	-0.433912	0.247635
C141	C	-0.205772	-0.339889	0.335543
C142	C	-0.004440	-0.541160	0.335545
C143	C	-0.205773	-0.339888	0.134212
C144	C	-0.229480	-0.312925	0.359250
C145	C	0.046239	-0.588562	0.359254
C146	C	-0.229481	-0.312924	0.083532
C147	C	0.153295	-0.388013	0.293279
C148	C	0.150076	-0.361413	0.316673
C149	C	0.153614	-0.433940	0.316196
C150	C	0.153297	-0.388008	0.224634
C151	C	0.150079	-0.361403	0.174632
C152	C	0.153616	-0.433935	0.247655
C153	C	0.153293	-0.456633	0.293275
C154	C	0.150072	-0.503401	0.316665
C155	C	0.153617	-0.365420	0.247659
C156	C	0.147469	-0.541185	0.335561
C157	C	0.147474	-0.339922	0.335572
C158	C	0.147479	-0.339908	0.134234
C159	C	0.144204	-0.588587	0.359267
C160	C	0.144211	-0.312962	0.359282
C161	C	0.144218	-0.312942	0.083555
C162	C	-0.163482	-0.139963	0.293267
C163	C	-0.186875	-0.166567	0.316654
C164	C	-0.117861	-0.162559	0.316187
C165	C	-0.163482	-0.071333	0.224628
C166	C	-0.186873	-0.024557	0.174627
C167	C	-0.117860	-0.094033	0.247653
C168	C	-0.094838	-0.139967	0.293272
C169	C	-0.044835	-0.166574	0.316665
C170	C	-0.186401	-0.094030	0.247648
C171	C	-0.004438	-0.188070	0.335563
C172	C	-0.205773	-0.188061	0.335549
C173	C	-0.205771	0.013233	0.134231
C174	C	0.046242	-0.215038	0.359273
C175	C	-0.229482	-0.215026	0.359253
C176	C	-0.229479	0.060643	0.083553
C177	C	0.095627	0.006487	-0.438489
C178	C	0.095306	-0.016206	-0.461409
C179	C	0.095623	-0.062137	-0.369847
C180	C	0.095303	-0.084726	-0.392871
C181	C	0.095625	-0.062133	-0.438492
C182	C	0.095305	-0.016210	-0.392868
C183	C	0.108059	0.159543	-0.480399
C184	C	0.111575	0.202893	-0.502003
C185	C	0.113340	0.224640	-0.547210
C186	C	0.117161	0.271637	-0.570634
C187	C	0.111587	0.203038	-0.570814
C188	C	0.108065	0.159695	-0.549212
C189	C	0.106302	0.137948	-0.504002
C190	C	0.108054	-0.116452	-0.549685
C191	C	0.111568	-0.141562	-0.571444
C192	C	0.113332	-0.188519	-0.547992
C193	C	0.117148	-0.215753	-0.571578
C194	C	0.111577	-0.210363	-0.502779
C195	C	0.108055	-0.185249	-0.481023
C196	C	0.106297	-0.138292	-0.504481
C197	C	0.108046	-0.116473	-0.204312
C198	C	0.111564	-0.141591	-0.157432
C199	C	0.113326	-0.188548	-0.133918
C200	C	0.117142	-0.215786	-0.083088
C201	C	0.111574	-0.210388	-0.157283
C202	C	0.108058	-0.185270	-0.204161
C203	C	0.106290	-0.138308	-0.227673
C204	C	0.102487	0.090947	-0.480580
C205	C	0.099445	0.053484	-0.461911
C206	C	0.099438	-0.089371	-0.319019
C207	C	0.102477	-0.111078	-0.278503
C208	C	0.099442	-0.089362	-0.462081
C209	C	0.102482	-0.111066	-0.480886
O210	O	0.118477	-0.256700	0.452885
O211	O	0.140984	-0.334299	0.397762
O212	O	0.063360	-0.256699	0.397752
O213	O	0.196101	-0.334300	0.452895
O214	O	0.063367	-0.193672	0.334708
O215	O	0.140992	-0.271271	0.334718
O216	O	0.118484	-0.193673	0.389842
Cu217	Cu	0.129739	-0.226717	0.356523
Cu218	Cu	0.129730	-0.301254	0.431080
O219	O	0.196108	-0.271272	0.389852
C220	C	-0.500364	0.533998	-0.438484
C221	C	-0.477341	0.556591	-0.461399
C222	C	-0.431721	0.465364	-0.369840
C223	C	-0.408802	0.488061	-0.392859
C224	C	-0.431720	0.533995	-0.438478
C225	C	-0.477342	0.488064	-0.392865
C226	C	-0.665898	0.588334	-0.480407
C227	C	-0.712776	0.613450	-0.502014
C228	C	-0.736291	0.660414	-0.547220
C229	C	-0.787122	0.687654	-0.570647
C230	C	-0.712926	0.682257	-0.570819
C231	C	-0.666050	0.657138	-0.549214
C232	C	-0.642536	0.610174	-0.504006
C233	C	-0.389802	0.657585	-0.549654
C234	C	-0.368196	0.682850	-0.571408
C235	C	-0.322990	0.661164	-0.547952
C236	C	-0.299561	0.688558	-0.571532
C237	C	-0.299388	0.614205	-0.502740
C238	C	-0.320990	0.588935	-0.480990
C239	C	-0.366202	0.610633	-0.504452
C240	C	-0.389804	0.312282	-0.204314
C241	C	-0.368201	0.268929	-0.157436
C242	C	-0.322993	0.247179	-0.133918
C243	C	-0.299567	0.200174	-0.083089
C244	C	-0.299392	0.268786	-0.157278
C245	C	-0.320998	0.312139	-0.204154
C246	C	-0.366204	0.333881	-0.227670
C247	C	-0.591708	0.582942	-0.480581
C248	C	-0.551193	0.561234	-0.461909
C249	C	-0.408297	0.418359	-0.319013
C250	C	-0.389626	0.380890	-0.278499
C251	C	-0.408296	0.561393	-0.462062
C252	C	-0.389624	0.583232	-0.480862
H253	H	-0.223885	-0.074993	-0.024363
O254	O	-0.737974	-0.266587	0.016358
H255	H	-0.767649	-0.233589	-0.016630
H256	H	0.154133	-0.328462	0.229178
O257	O	-0.640521	-0.319123	0.023704
H258	H	-0.664636	-0.282245	0.021915
H259	H	-0.099376	-0.075038	0.229168
O260	O	0.154296	-0.459090	0.223169
H261	H	0.154461	-0.494904	0.246856
H262	H	-0.262584	-0.748943	0.016794
H263	H	-0.099372	-0.452898	0.229148
O264	O	-0.738286	0.732906	-0.619574
H265	H	-0.721011	0.724734	-0.643462
H266	H	0.154122	-0.452930	0.353678
O267	O	0.106148	-0.065829	-0.229668
H268	H	0.073154	-0.032888	-0.259343
O269	O	-0.093377	-0.211519	0.365836
H270	H	-0.061870	-0.244839	0.367865
O271	O	-0.393656	-0.266570	0.016331
H272	H	-0.373914	-0.273269	0.046116
H273	H	-0.099380	-0.199466	-0.024359
O274	O	0.106155	0.136093	-0.431639
H275	H	0.103419	0.102318	-0.420579
O276	O	-0.236052	-0.068861	0.223158
H277	H	-0.248193	-0.092374	0.246840
O278	O	-0.295544	-0.664586	0.023638
H279	H	-0.260482	-0.686984	0.021815
O280	O	-0.501822	0.605553	-0.511047
H281	H	-0.537483	0.617532	-0.523186
O282	O	-0.393651	0.245619	-0.132241
H283	H	-0.428713	0.268019	-0.156470
H284	H	0.094825	0.002760	-0.374372
O285	O	-0.438563	-0.664299	0.023662
H286	H	-0.449624	-0.630524	0.026396
O287	O	-0.502187	0.009267	-0.511070
H288	H	-0.482699	0.021396	-0.533363
O289	O	-0.501824	-0.394518	0.035184
H290	H	-0.503654	-0.361192	0.003880
O291	O	-0.359454	-0.133386	-0.368403
H292	H	-0.347313	-0.145356	-0.392087
H293	H	-0.262576	0.596543	-0.483644
H294	H	-0.099379	-0.074998	-0.024355
O295	O	-0.501824	-0.537151	0.035188
H296	H	-0.478133	-0.572969	0.035363
H297	H	-0.647332	0.142401	-0.444230
H298	H	0.094785	-0.121682	-0.374387
O299	O	-0.438567	-0.319087	0.023646
H300	H	-0.451352	-0.282191	0.021828
H301	H	-0.262581	0.251075	-0.138127
H302	H	0.094791	0.002793	-0.498893
H303	H	-0.426614	0.675254	-0.568760
H304	H	0.113001	-0.123813	-0.138408
O305	O	-0.359168	-0.537121	0.035137
H306	H	-0.347033	-0.513598	0.035285
O307	O	-0.738282	-0.409249	0.016331
H308	H	-0.774805	-0.383790	0.013584
O309	O	0.113476	0.226185	-0.476544
H310	H	0.111665	0.203777	-0.441478
O311	O	0.113499	0.226485	-0.619567
H312	H	0.116248	0.260249	-0.630622
H313	H	-0.387416	0.721084	-0.608218
H314	H	-0.647026	-0.449354	0.023185
O315	O	0.106168	0.136399	-0.574668
H316	H	0.107988	0.158801	-0.609731
O317	O	0.106165	-0.208807	-0.432260
H318	H	0.107987	-0.245680	-0.419603
H319	H	-0.099377	-0.452909	0.353658
H320	H	-0.426614	0.329984	-0.223458
O321	O	-0.250317	-0.261327	-0.132255
H322	H	-0.237658	-0.272158	-0.156483
O323	O	-0.393656	-0.754392	0.016344
H324	H	-0.428722	-0.731985	0.018155
H325	H	0.106619	-0.078217	-0.568789
O326	O	-0.295551	-0.461744	0.023619
H327	H	-0.260487	-0.472580	0.021803
H328	H	0.112999	-0.123775	-0.608256
H329	H	0.106630	-0.203055	-0.223182
H330	H	0.113006	-0.248593	-0.483685
H331	H	0.113009	-0.248624	-0.138135
O332	O	-0.250637	-0.409236	0.016311
H333	H	-0.239578	-0.383783	0.013574
O334	O	-0.359150	0.462900	-0.368379
H335	H	-0.347009	0.427081	-0.332722
O336	O	-0.501821	0.462897	-0.368381
H337	H	-0.537480	0.486412	-0.392066
H338	H	-0.301770	0.550701	-0.444180
O339	O	-0.502132	0.009250	-0.368415
H340	H	-0.478448	-0.014261	-0.332756
O341	O	-0.640535	0.537676	-0.431653
H342	H	-0.664654	0.526703	-0.418877
H343	H	-0.731797	0.595663	-0.482796
O344	O	-0.295533	-0.208823	-0.431663
H345	H	-0.318258	-0.183374	-0.420601
H346	H	-0.647028	0.674924	-0.568431
H347	H	-0.301778	0.329728	-0.223172
O348	O	-0.295536	-0.208818	-0.229694
H349	H	-0.263357	-0.210284	-0.229046
O350	O	-0.250319	-0.261336	-0.476567
H351	H	-0.226489	-0.253106	-0.467452
O352	O	-0.393044	-0.118663	-0.619595
H353	H	-0.370324	-0.144121	-0.630652
H354	H	-0.426308	-0.078556	-0.568458
O355	O	-0.640838	0.136387	-0.575004
H356	H	-0.664957	0.158695	-0.610098
O357	O	-0.236051	-0.316437	0.223153
H358	H	-0.258290	-0.325831	0.242689
H359	H	-0.732378	0.221040	-0.483702
O360	O	-0.738280	0.226484	-0.620221
H361	H	-0.714055	0.204077	-0.632874
H362	H	-0.426314	-0.078564	-0.223203
H363	H	-0.386847	-0.124399	-0.138156
