data_functionalizedCrystal
_audit_creation_method	'MofGen! by Chris Wilmer'
_symmetry_space_group_name_H-M	'P1'
_symmetry_Int_Tables_number	1
_symmetry_cell_setting	triclinic
loop_
_symmetry_equiv_pos_as_xyz
  x,y,z
_cell_length_a	10.723024
_cell_length_b	16.109301
_cell_length_c	9.198806
_cell_angle_alpha	89.999041
_cell_angle_beta	89.998000
_cell_angle_gamma	83.964675
loop_
_atom_site_label
_atom_site_type_symbol
_atom_site_fract_x
_atom_site_fract_y
_atom_site_fract_z
O1	O	0.160389	1.104075	-0.120797
O2	O	0.660389	1.604075	0.379203
O3	O	0.180350	0.862130	-0.120819
O4	O	0.680350	1.362130	0.379181
O5	O	-0.011280	0.988683	-0.120802
O6	O	0.488720	1.488683	0.379198
O7	O	0.352020	0.977522	-0.120814
O8	O	0.852020	1.477522	0.379186
O9	O	-0.011281	0.988674	0.120983
O10	O	0.488719	1.488674	0.620983
O11	O	0.180349	0.862121	0.120966
O12	O	0.680349	1.362121	0.620966
O13	O	0.160389	1.104065	0.120988
O14	O	0.660389	1.604065	0.620988
Cu15	Cu	0.170369	0.983092	0.143054
Cu16	Cu	0.670369	1.483092	0.643054
Cu17	Cu	0.170370	0.983103	-0.142885
Cu18	Cu	0.670370	1.483103	0.357115
O19	O	0.352019	0.977512	0.120971
O20	O	0.852019	1.477512	0.620971
C21	C	0.179541	0.831146	0.000070
C22	C	0.679541	1.331146	0.500070
C23	C	0.177117	0.738836	0.000062
C24	C	0.677117	1.238836	0.500062
C25	C	-0.057770	0.987866	0.000089
C26	C	0.442230	1.487866	0.500089
C27	C	-0.196292	0.985436	0.000083
C28	C	0.303708	1.485436	0.500083
C29	C	0.285190	0.517200	0.000075
C30	C	0.785190	1.017200	0.500075
C31	C	0.282903	0.430466	0.000084
C32	C	0.782903	0.930466	0.500084
C33	C	0.055540	0.449003	0.000086
C34	C	0.555540	0.949003	0.500086
C35	C	0.057829	0.535735	0.000087
C36	C	0.557829	1.035735	0.500087
C37	C	0.172657	0.569831	0.000074
C38	C	0.672657	1.069831	0.500074
C39	C	0.168081	0.396365	0.000082
C40	C	0.668081	0.896365	0.500082
C41	C	0.165600	0.302324	0.000093
C42	C	0.665600	0.802324	0.500093
C43	C	0.175139	0.663877	0.000066
C44	C	0.675139	1.163877	0.500066
C45	C	-0.272213	1.056249	0.000088
C46	C	0.227787	1.556249	0.500088
C47	C	-0.415383	1.053739	0.000082
C48	C	0.084617	1.553739	0.500082
C49	C	0.398508	0.978329	0.000077
C50	C	0.898508	1.478329	0.500077
C51	C	0.537031	0.980760	0.000073
C52	C	1.037031	1.480760	0.500073
C53	C	0.161198	1.135050	0.000096
C54	C	0.661198	1.635050	0.500096
C55	C	0.163622	1.227359	0.000095
C56	C	0.663622	1.727359	0.500095
N57	N	0.170368	0.983090	0.344168
N58	N	0.670368	1.483090	0.844168
N59	N	0.170361	0.983112	-0.343999
N60	N	0.670361	1.483112	0.156001
C61	C	0.098647	0.934622	0.416397
C62	C	0.598647	1.434622	0.916397
C63	C	0.098642	0.934633	0.583809
C64	C	0.598642	1.434633	1.083809
H65	H	0.378691	0.544958	0.000076
H66	H	0.878691	1.044958	0.500076
H67	H	-0.480619	1.114359	0.000093
H68	H	0.019381	1.614359	0.500093
H69	H	-0.237286	0.922953	0.000068
H70	H	0.262714	1.422953	0.500068
H71	H	-0.231219	1.118732	0.000103
H72	H	0.268781	1.618732	0.500103
H73	H	0.231775	1.024589	0.406270
H74	H	0.731775	1.524589	0.906270
H75	H	-0.037950	0.421231	0.000105
H76	H	0.462050	0.921231	0.500105
H77	H	-0.033815	0.578589	0.000090
H78	H	0.466185	1.078589	0.500090
H79	H	0.374539	0.387617	0.000088
H80	H	0.874539	0.887617	0.500088
H81	H	-0.397741	0.920135	0.000079
H82	H	0.102259	1.420135	0.500079
H83	H	0.037236	0.893140	0.645925
H84	H	0.537236	1.393140	1.145925
H85	H	0.037252	0.893116	0.354295
H86	H	0.537252	1.393116	0.854295
H87	H	0.231763	1.024612	0.593895
H88	H	0.731763	1.524612	1.093895
