data_functionalizedCrystal
_audit_creation_method	'MofGen! by Chris Wilmer'
_symmetry_space_group_name_H-M	'P1'
_symmetry_Int_Tables_number	1
_symmetry_cell_setting	triclinic
loop_
_symmetry_equiv_pos_as_xyz
  x,y,z
_cell_length_a	6.394989
_cell_length_b	9.065218
_cell_length_c	8.140239
_cell_angle_alpha	90.001686
_cell_angle_beta	90.002206
_cell_angle_gamma	85.756798
loop_
_atom_site_label
_atom_site_type_symbol
_atom_site_fract_x
_atom_site_fract_y
_atom_site_fract_z
O1	O	-2.776064	-0.241774	-0.136588
O2	O	-2.276064	0.258226	0.363412
O3	O	-2.168166	-0.253954	-0.136595
O4	O	-1.668166	0.246046	0.363405
O5	O	-2.484680	-0.033337	-0.136588
O6	O	-1.984680	0.466663	0.363412
O7	O	-2.459550	-0.462392	-0.136595
O8	O	-1.959550	0.037608	0.363405
O9	O	-2.484662	-0.033334	0.136639
O10	O	-1.984662	0.466666	0.636639
O11	O	-2.168148	-0.253951	0.136632
O12	O	-1.668148	0.246049	0.636632
O13	O	-2.776046	-0.241771	0.136639
O14	O	-2.276046	0.258229	0.636639
Zn15	Zn	-2.472094	-0.247861	0.180016
Zn16	Zn	-1.972094	0.252139	0.680016
Zn17	Zn	-2.472118	-0.247865	-0.179972
Zn18	Zn	-1.972118	0.252135	0.320028
O19	O	-2.459532	-0.462389	0.136632
O20	O	-1.959532	0.037611	0.636632
C21	C	-2.482256	0.021673	0.000023
C22	C	-1.982256	0.521673	0.500023
C23	C	-2.475034	0.185582	0.000015
C24	C	-1.975034	0.685582	0.500015
C25	C	-2.461956	-0.517399	0.000017
C26	C	-1.961956	-0.017399	0.500017
C27	C	-2.469177	-0.681308	0.000015
C28	C	-1.969177	-0.181308	0.500015
N29	N	-2.472094	-0.247858	0.425699
N30	N	-1.972094	0.252142	0.925699
C31	C	-2.090290	-0.251545	0.000027
C32	C	-1.590290	0.248455	0.500027
C33	C	-1.853916	-0.244185	0.000033
C34	C	-1.353916	0.255815	0.500033
N35	N	-2.472135	-0.247856	-0.425655
N36	N	-1.972135	0.252144	0.074345
