data_functionalizedCrystal
_audit_creation_method	'MofGen! by Chris Wilmer'
_symmetry_space_group_name_H-M	'P1'
_symmetry_Int_Tables_number	1
_symmetry_cell_setting	triclinic
loop_
_symmetry_equiv_pos_as_xyz
  x,y,z
_cell_length_a	31.640172
_cell_length_b	31.640172
_cell_length_c	19.902436
_cell_angle_alpha	59.998015
_cell_angle_beta	89.998099
_cell_angle_gamma	59.994337
loop_
_atom_site_label
_atom_site_type_symbol
_atom_site_fract_x
_atom_site_fract_y
_atom_site_fract_z
Zr1	Zr	0.407158	0.462621	-0.088322
O2	O	0.339665	0.550803	-0.195621
O3	O	0.427851	0.374439	-0.055412
O4	O	0.427847	0.462611	-0.195603
O5	O	0.339669	0.462639	0.055135
O6	O	0.497403	0.462604	-0.195607
O7	O	0.339669	0.462631	-0.055431
O8	O	0.497410	0.304880	0.055168
O9	O	0.339663	0.620363	-0.195640
O10	O	0.488582	0.410705	-0.041400
O11	O	0.436673	0.410716	0.041117
O12	O	0.436668	0.514528	-0.123939
O13	O	0.384759	0.514539	-0.041422
Zr14	Zr	0.518092	0.462623	0.088011
Zr15	Zr	0.518092	0.462610	-0.088329
Zr16	Zr	0.407158	0.462635	0.088018
Zr17	Zr	0.407153	0.573562	-0.088352
Zr18	Zr	0.518097	0.351683	0.088041
O19	O	0.497399	0.550806	0.055101
O20	O	0.497400	0.550787	-0.195631
O21	O	0.339665	0.550822	0.055111
O22	O	0.585585	0.374441	0.195310
O23	O	0.585585	0.374423	-0.055422
O24	O	0.427851	0.374458	0.195320
O25	O	0.585581	0.462606	-0.055446
O26	O	0.497403	0.462633	0.195292
O27	O	0.427847	0.462640	0.195296
O28	O	0.585581	0.462614	0.055119
O29	O	0.427840	0.620354	-0.195646
O30	O	0.497410	0.304890	0.195335
O31	O	0.585587	0.304881	0.195329
O32	O	0.585588	0.304871	0.055162
O33	O	0.339662	0.620374	-0.055474
O34	O	0.427840	0.620365	-0.055479
O35	O	0.488582	0.410717	0.123628
O36	O	0.540491	0.410705	0.041111
O37	O	0.488577	0.514528	-0.041428
O38	O	0.436668	0.514540	0.041089
C39	C	0.462631	0.323853	-0.000118
C40	C	0.462633	0.276756	-0.000105
C41	C	0.424305	0.023081	-0.061090
C42	C	0.424301	-0.153900	-0.061113
O43	O	0.391724	-0.144194	-0.112945
N44	N	0.462622	-0.214352	-0.000193
C45	C	0.500947	-0.230558	0.060734
O46	O	0.533544	-0.286037	0.112545
C47	C	0.500953	-0.053577	0.060753
C48	C	0.462627	0.006875	-0.000166
C49	C	0.385983	0.083530	-0.122005
C50	C	0.385983	0.127772	-0.121996
C51	C	0.424305	0.111565	-0.061072
C52	C	0.462627	0.051117	-0.000157
C53	C	0.539281	-0.069784	0.121676
C54	C	0.539279	-0.025532	0.121674
C55	C	0.500954	0.034919	0.060755
C56	C	0.500949	0.079153	0.060775
N57	N	0.462629	0.139604	-0.000145
C58	C	0.424307	0.155811	-0.061069
C59	C	0.500941	-0.323473	0.060721
C60	C	0.500939	-0.367718	0.060717
C61	C	0.424294	-0.291057	-0.061131
C62	C	0.424294	-0.246811	-0.061123
C63	C	0.462621	-0.263021	-0.000199
C64	C	0.424309	0.248720	-0.061045
C65	C	0.424311	0.292962	-0.061029
C66	C	0.500958	0.216298	0.060817
C67	C	0.500954	0.172059	0.060803
C68	C	0.462628	0.188274	-0.000135
O69	O	0.533513	0.069491	0.112575
O70	O	0.391722	0.211292	-0.112882
C71	C	0.424306	-0.021161	-0.061099
C72	C	0.462628	-0.081610	-0.000184
C73	C	0.500950	-0.097816	0.060740
C74	C	0.462626	-0.125855	-0.000188
C75	C	0.424304	-0.109649	-0.061111
C76	C	0.385984	-0.049197	-0.122032
C77	C	0.385984	-0.004955	-0.122023
C78	C	0.539270	-0.158268	0.121660
C79	C	0.539267	-0.202507	0.121646
C80	C	0.500945	-0.186301	0.060723
C81	C	0.323863	0.462637	-0.000147
C82	C	0.276769	0.462641	-0.000144
C83	C	-0.015237	0.462607	-0.061066
C84	C	-0.192223	0.462599	-0.061072
O85	O	-0.215096	0.462569	-0.112855
N86	N	-0.214354	0.462605	-0.000161
C87	C	-0.192233	0.462609	0.060759
O88	O	-0.215115	0.462607	0.112572
C89	C	-0.015245	0.462612	0.060768
C90	C	0.006880	0.462612	-0.000152
C91	C	0.006889	0.462607	-0.121980
C92	C	0.051131	0.462612	-0.121980
C93	C	0.073248	0.462617	-0.061066
C94	C	0.051122	0.462618	-0.000152
C95	C	0.006877	0.462612	0.121690
C96	C	0.051127	0.462611	0.121688
C97	C	0.073252	0.462611	0.060769
C98	C	0.117481	0.462628	0.060761
N99	N	0.139612	0.462622	-0.000150
C100	C	0.117495	0.462617	-0.061064
C101	C	-0.285155	0.462608	0.060749
C102	C	-0.329402	0.462609	0.060746
C103	C	-0.329389	0.462598	-0.061084
C104	C	-0.285143	0.462602	-0.061084
C105	C	-0.263024	0.462603	-0.000162
C106	C	0.210407	0.462628	-0.061060
C107	C	0.254652	0.462636	-0.061057
C108	C	0.254636	0.462643	0.060775
C109	C	0.210394	0.462639	0.060770
C110	C	0.188281	0.462629	-0.000152
O111	O	0.140385	0.462652	0.112522
O112	O	0.140391	0.462605	-0.112858
C113	C	-0.059479	0.462602	-0.061065
C114	C	-0.081605	0.462602	-0.000151
C115	C	-0.059488	0.462608	0.060763
C116	C	-0.125852	0.462602	-0.000154
C117	C	-0.147969	0.462597	-0.061067
C118	C	-0.125838	0.462591	-0.121978
C119	C	-0.081596	0.462596	-0.121979
C120	C	-0.081619	0.462613	0.121673
C121	C	-0.125862	0.462609	0.121668
C122	C	-0.147978	0.462603	0.060755
C123	C	0.601387	0.462608	-0.000164
C124	C	0.648481	0.462603	-0.000167
C125	C	0.462625	0.462606	-0.220730
C126	C	0.462625	0.462600	-0.295590
C127	C	0.462619	0.601392	-0.000193
C128	C	0.462617	0.648489	-0.000206
C129	C	0.462625	0.462630	-0.567639
C130	C	0.495529	0.397136	-0.487081
C131	C	0.495386	0.397095	-0.409178
C132	C	0.462625	0.462615	-0.432672
C133	C	0.406221	0.495144	-0.486797
C134	C	0.406401	0.494726	-0.564359
C135	C	0.485671	0.496063	-0.565504
C136	C	0.486812	0.494832	-0.486626
C137	C	0.462623	0.462610	-0.356397
C138	C	0.462624	0.462637	-0.643915
C139	C	0.462625	0.462639	0.220418
C140	C	0.462625	0.462644	0.295279
C141	C	0.601393	0.323839	-0.000127
C142	C	0.648489	0.276737	-0.000117
C143	C	0.462631	0.323869	0.220456
C144	C	0.462633	0.276778	0.295330
C145	C	0.601392	0.323855	0.220447
C146	C	0.648489	0.276759	0.295318
C147	C	0.323858	0.601390	-0.220759
C148	C	0.276761	0.648486	-0.295629
C149	C	0.323858	0.601406	-0.000185
C150	C	0.276761	0.648508	-0.000194
C151	C	0.462619	0.601375	-0.220767
C152	C	0.462617	0.648467	-0.295641
C153	C	0.643510	0.254617	-0.043189
C154	C	0.687758	0.210366	-0.043197
C155	C	0.736984	0.188232	-0.000126
C156	C	0.741962	0.210357	0.042948
C157	C	0.697715	0.254610	0.042950
C158	C	0.489730	0.254664	0.373568
C159	C	0.489729	0.210422	0.443927
C160	C	0.462635	0.188293	0.436045
C161	C	0.435535	0.210412	0.357798
C162	C	0.435532	0.254655	0.287441
C163	C	0.697706	0.254636	0.287405
C164	C	0.741963	0.210390	0.357747
C165	C	0.737000	0.188265	0.436002
C166	C	0.687777	0.210392	0.443913
C167	C	0.643522	0.254640	0.373572
C168	C	0.227544	0.670614	-0.287716
C169	C	0.183287	0.714874	-0.358058
C170	C	0.188250	0.737001	-0.436313
C171	C	0.237473	0.714871	-0.444224
C172	C	0.281728	0.670615	-0.373883
C173	C	0.281740	0.670632	0.042871
C174	C	0.237492	0.714896	0.042859
C175	C	0.188266	0.737031	-0.000214
C176	C	0.183288	0.714904	-0.043285
C177	C	0.227535	0.670645	-0.043277
C178	C	0.489717	0.670582	-0.287733
C179	C	0.489725	0.714824	-0.358078
C180	C	0.462631	0.736952	-0.436330
C181	C	0.435530	0.714833	-0.444237
C182	C	0.435525	0.670589	-0.373893
H183	H	0.393098	0.342186	-0.110635
H184	H	0.413470	0.732857	-0.507959
H185	H	0.272649	0.462650	0.110368
H186	H	0.782048	0.192329	0.078014
H187	H	0.570478	-0.171473	0.171271
H188	H	0.387951	0.471615	-0.564157
O189	O	0.145204	0.779970	-0.504554
C190	C	0.100702	0.794761	-0.480778
H191	H	0.110870	0.755948	-0.415841
H192	H	0.085803	0.836339	-0.482061
C193	C	0.045992	0.854851	-0.620552
C194	C	0.058479	0.807179	-0.540797
H195	H	0.019946	0.862514	-0.657576
H196	H	0.075974	0.844888	-0.636571
H197	H	0.033579	0.889494	-0.621610
H198	H	0.070898	0.772535	-0.539739
H199	H	0.028499	0.817136	-0.524779
H200	H	0.241556	0.732904	0.077935
O201	O	0.145247	0.779969	-0.000193
C202	C	0.115602	0.758353	0.034083
H203	H	0.125272	0.720713	0.028237
H204	H	0.124884	0.740712	0.101841
C205	C	0.045740	0.855644	-0.004928
C206	C	0.057614	0.809418	-0.012114
H207	H	0.009971	0.887143	-0.033421
H208	H	0.065713	0.870207	-0.028017
H209	H	0.053479	0.840935	0.051539
H210	H	0.049882	0.824124	-0.068579
H211	H	0.037639	0.794858	0.010965
H212	H	0.143202	0.732933	-0.078354
H213	H	0.321819	0.652613	0.077951
H214	H	0.413455	0.652588	-0.380343
H215	H	0.321802	0.652599	-0.380336
O216	O	0.387008	0.264512	-0.120170
C217	C	0.337958	0.298654	-0.116299
H218	H	0.342400	0.288375	-0.052037
H219	H	0.319890	0.348235	-0.163518
C220	C	0.297329	0.295484	-0.214017
C221	C	0.302784	0.282855	-0.135088
H222	H	0.275631	0.285741	-0.225611
H223	H	0.330375	0.272484	-0.216629
H224	H	0.282275	0.336802	-0.253357
H225	H	0.317845	0.241537	-0.095749
H226	H	0.269740	0.305848	-0.132471
O227	O	0.348705	0.099234	-0.181060
C228	C	0.320662	0.075958	-0.143730
H229	H	0.345386	0.036020	-0.077219
H230	H	0.283764	0.111914	-0.145047
C231	C	0.276110	0.104963	-0.272709
C232	C	0.306478	0.055907	-0.191021
H233	H	0.267358	0.092598	-0.301882
H234	H	0.295001	0.120647	-0.297860
H235	H	0.245366	0.134922	-0.273795
H236	H	0.337224	0.025953	-0.189936
H237	H	0.287592	0.040218	-0.165871
O238	O	0.383997	0.468286	-0.442104
C239	C	0.339099	0.509970	-0.438343
H240	H	0.341923	0.547300	-0.449234
H241	H	0.303633	0.529680	-0.487667
C242	C	0.330677	0.432602	-0.339518
C243	C	0.334149	0.478449	-0.352888
H244	H	0.327622	0.413159	-0.286807
H245	H	0.360925	0.404519	-0.342054
H246	H	0.301123	0.449034	-0.380627
H247	H	0.363706	0.462016	-0.311786
H248	H	0.303906	0.506528	-0.350343
O249	O	0.702648	0.276006	0.084873
C250	C	0.755585	0.246986	0.122869
H251	H	0.779177	0.202137	0.131387
H252	H	0.768622	0.276003	0.082498
C253	C	0.734956	0.291755	0.196938
C254	C	0.763932	0.236668	0.207407
H255	H	0.740105	0.285393	0.249084
H256	H	0.699290	0.311308	0.171338
H257	H	0.745823	0.315931	0.163293
H258	H	0.753060	0.212497	0.241042
H259	H	0.799596	0.217111	0.233015
H260	H	0.683694	0.192357	-0.078272
O261	O	0.516052	0.276114	0.381383
C262	C	0.539971	0.247095	0.465532
H263	H	0.518720	0.228861	0.503045
H264	H	0.582034	0.208663	0.486273
C265	C	0.564087	0.314340	0.432686
C266	C	0.537984	0.291949	0.478760
H267	H	0.562864	0.342007	0.440846
H268	H	0.547975	0.333890	0.375993
H269	H	0.599137	0.282308	0.449975
H270	H	0.502934	0.323980	0.461463
H271	H	0.554091	0.272406	0.535451
H272	H	0.773040	0.152235	0.493271
O273	O	0.135504	0.736371	-0.350257
C274	C	0.129836	0.761969	-0.306871
H275	H	0.169672	0.741976	-0.268055
H276	H	0.108680	0.812372	-0.352427
C277	C	0.049479	0.773410	-0.298046
C278	C	0.098408	0.748850	-0.250366
H279	H	0.030092	0.765320	-0.263194
H280	H	0.053297	0.756166	-0.327279
H281	H	0.031857	0.815410	-0.336007
H282	H	0.116032	0.706850	-0.212413
H283	H	0.094592	0.766087	-0.221125
O284	O	0.348732	0.186464	-0.181260
C285	C	0.314906	0.191268	-0.235016
H286	H	0.335556	0.148487	-0.232107
H287	H	0.279274	0.198350	-0.215844
C288	C	0.272833	0.297285	-0.327140
C289	C	0.298197	0.244742	-0.323571
H290	H	0.262524	0.330272	-0.381764
H291	H	0.295621	0.294050	-0.290922
H292	H	0.243143	0.303179	-0.311158
H293	H	0.327891	0.238846	-0.339543
H294	H	0.275414	0.247979	-0.359794
H295	H	0.223474	0.652632	-0.078344
H296	H	0.393083	-0.197591	-0.110724
H297	H	0.192374	0.462647	0.110369
H298	H	0.603449	0.272647	0.380026
H299	H	0.532143	-0.416938	0.110332
O300	O	0.387023	-0.275365	-0.120188
C301	C	0.358982	-0.298646	-0.082865
H302	H	0.383697	-0.338570	-0.016345
H303	H	0.322071	-0.262686	-0.084212
C304	C	0.314472	-0.269687	-0.211837
C305	C	0.344829	-0.318726	-0.130137
H306	H	0.305740	-0.282071	-0.240998
H307	H	0.333362	-0.254000	-0.236983
H308	H	0.283717	-0.239724	-0.212948
H309	H	0.375587	-0.348684	-0.129027
H310	H	0.325944	-0.334419	-0.104992
O311	O	0.515996	0.649042	-0.211662
C312	C	0.510198	0.605236	-0.151258
H313	H	0.473598	0.612507	-0.178664
H314	H	0.545207	0.558948	-0.129249
C315	C	0.550967	0.601160	-0.044325
C316	C	0.506011	0.610093	-0.077983
H317	H	0.548387	0.604153	0.000876
H318	H	0.554875	0.630671	-0.085020
H319	H	0.580136	0.562587	-0.025991
H320	H	0.476844	0.648668	-0.096326
H321	H	0.502098	0.580588	-0.037290
O322	O	0.222808	0.649043	-0.211643
C323	C	0.272418	0.605247	-0.151243
H324	H	0.301750	0.585882	-0.178646
H325	H	0.283695	0.626415	-0.129249
C326	C	0.235730	0.578754	-0.044299
C327	C	0.271755	0.554966	-0.077955
H328	H	0.235321	0.547739	0.000910
H329	H	0.202306	0.608262	-0.084992
H330	H	0.245132	0.596393	-0.025978
H331	H	0.262349	0.537334	-0.096285
H332	H	0.305177	0.525454	-0.037264
O333	O	0.682893	0.188889	0.519886
C334	C	0.655615	0.163274	0.528931
H335	H	0.631184	0.183263	0.465614
H336	H	0.684282	0.112873	0.562552
C337	C	0.650100	0.151823	0.656692
C338	C	0.620090	0.176378	0.578925
H339	H	0.628189	0.159903	0.687534
H340	H	0.668480	0.169078	0.650601
H341	H	0.673988	0.109824	0.684699
H342	H	0.596208	0.218376	0.550916
H343	H	0.601706	0.159130	0.585013
H344	H	-0.011113	0.462600	-0.171583
O345	O	0.242196	0.736413	-0.520305
C346	C	0.192578	0.780226	-0.580683
H347	H	0.163254	0.772960	-0.553249
H348	H	0.181304	0.826510	-0.602698
C349	C	0.229234	0.784300	-0.687653
C350	C	0.193219	0.775373	-0.653960
H351	H	0.229629	0.781309	-0.732856
H352	H	0.262663	0.754784	-0.646976
H353	H	0.219835	0.822870	-0.705993
H354	H	0.202622	0.736801	-0.635612
H355	H	0.159791	0.804883	-0.694636
O356	O	0.595722	0.276011	-0.084973
C357	C	0.590047	0.228794	-0.053286
H358	H	0.629882	0.184523	-0.021735
H359	H	0.568898	0.228206	-0.006789
C360	C	0.509682	0.292186	-0.162852
C361	C	0.558607	0.237812	-0.124107
H362	H	0.490286	0.297749	-0.206537
H363	H	0.513504	0.323997	-0.184200
H364	H	0.492064	0.291689	-0.124096
H365	H	0.576226	0.238312	-0.162860
H366	H	0.554788	0.206000	-0.102768
O367	O	0.375596	0.552014	-0.632506
C368	C	0.375451	0.552183	-0.703482
H369	H	0.411943	0.509094	-0.688483
H370	H	0.339898	0.555473	-0.725112
C371	C	0.329206	0.659052	-0.790477
C372	C	0.374028	0.606131	-0.772057
H373	H	0.328326	0.692331	-0.832779
H374	H	0.329302	0.658939	-0.742660
H375	H	0.299583	0.661785	-0.808497
H376	H	0.403650	0.603395	-0.754027
H377	H	0.373937	0.606245	-0.819873
O378	O	0.538197	-0.339328	0.119992
C379	C	0.572021	-0.402172	0.173742
H380	H	0.551368	-0.422466	0.170827
H381	H	0.607652	-0.418667	0.154567
C382	C	0.614100	-0.396198	0.265875
C383	C	0.588732	-0.421123	0.262300
H384	H	0.624411	-0.407888	0.320501
H385	H	0.591314	-0.353858	0.229661
H386	H	0.643790	-0.409946	0.249891
H387	H	0.559040	-0.407368	0.278273
H388	H	0.611514	-0.463460	0.298519
H389	H	0.511793	0.732829	-0.351624
O390	O	0.576565	-0.128472	0.180887
C391	C	0.610379	-0.133275	0.234659
H392	H	0.608543	-0.090491	0.201834
H393	H	0.598323	-0.140360	0.291309
C394	C	0.668339	-0.239290	0.301529
C395	C	0.666087	-0.186744	0.261210
H396	H	0.702702	-0.272274	0.317911
H397	H	0.645557	-0.236056	0.265305
H398	H	0.658289	-0.245187	0.348732
H399	H	0.676130	-0.180845	0.214003
H400	H	0.688872	-0.189979	0.297428
H401	H	0.526579	0.475099	-0.568488
O402	O	0.462671	0.779951	-0.504574
C403	C	0.492412	0.794711	-0.480803
H404	H	0.494444	0.782518	-0.415873
H405	H	0.533188	0.768827	-0.482070
C406	C	0.464579	0.877245	-0.620585
C407	C	0.467071	0.862274	-0.540839
H408	H	0.448949	0.918920	-0.657620
H409	H	0.444544	0.867300	-0.636601
H410	H	0.498561	0.855670	-0.621630
H411	H	0.433089	0.883842	-0.539794
H412	H	0.487100	0.872224	-0.524824
H413	H	0.462641	0.152267	0.493341
H414	H	0.570491	-0.038738	0.171286
O415	O	-0.060211	0.462725	0.180782
C416	C	-0.096788	0.514211	0.176912
H417	H	-0.126942	0.550196	0.112654
H418	H	-0.116657	0.502570	0.224140
C419	C	-0.032134	0.493370	0.274609
C420	C	-0.069167	0.537569	0.195685
H421	H	-0.015097	0.507778	0.286193
H422	H	-0.007492	0.458682	0.277220
H423	H	-0.048697	0.483674	0.313957
H424	H	-0.052604	0.547260	0.156338
H425	H	-0.093806	0.572260	0.193069
H426	H	-0.143875	0.462613	0.171276
O427	O	0.536368	0.466637	-0.442142
C428	C	0.541004	0.506985	-0.436722
H429	H	0.509021	0.554736	-0.489977
H430	H	0.537408	0.500732	-0.375916
C431	C	0.633413	0.436354	-0.375595
C432	C	0.594133	0.495003	-0.441008
H433	H	0.666186	0.428962	-0.378235
H434	H	0.630290	0.409169	-0.379244
H435	H	0.630410	0.431150	-0.324930
H436	H	0.597133	0.500204	-0.491671
H437	H	0.597258	0.522188	-0.437368
O438	O	0.375764	0.552593	-0.510288
C439	C	0.405092	0.564268	-0.478085
H440	H	0.439574	0.520421	-0.421938
H441	H	0.419551	0.586972	-0.526891
C442	C	0.328668	0.659437	-0.521787
C443	C	0.371016	0.605583	-0.452822
H444	H	0.307648	0.684924	-0.506207
H445	H	0.308909	0.651573	-0.543486
H446	H	0.340723	0.678350	-0.562453
H447	H	0.358961	0.586668	-0.412162
H448	H	0.390772	0.613445	-0.431116
H449	H	0.532158	0.122835	0.110416
O450	O	0.545236	0.366384	-0.484892
C451	C	0.573668	0.307912	-0.412004
H452	H	0.554068	0.307204	-0.363754
H453	H	0.575250	0.276178	-0.425418
C454	C	0.653137	0.288733	-0.438702
C455	C	0.629066	0.287865	-0.379439
H456	H	0.687309	0.276366	-0.418616
H457	H	0.633982	0.328126	-0.487810
H458	H	0.654450	0.262289	-0.449875
H459	H	0.627747	0.314314	-0.368275
H460	H	0.648222	0.248476	-0.330329
H461	H	0.773009	0.152198	-0.000134
O462	O	0.544924	0.366560	-0.362040
C463	C	0.555877	0.317644	-0.283984
H464	H	0.518181	0.326736	-0.271233
H465	H	0.576525	0.275533	-0.282765
C466	C	0.637171	0.297646	-0.233256
C467	C	0.590871	0.308815	-0.217591
H468	H	0.658759	0.292198	-0.192301
H469	H	0.629793	0.330600	-0.285844
H470	H	0.654370	0.262555	-0.232241
H471	H	0.573670	0.343909	-0.218617
H472	H	0.598247	0.275867	-0.165001
H473	H	0.461810	0.544315	-0.622275
O474	O	0.538116	0.200635	0.120014
C475	C	0.514668	0.223924	0.164600
H476	H	0.472809	0.263825	0.125356
H477	H	0.515559	0.187956	0.223327
C478	C	0.595804	0.195043	0.235188
C479	C	0.544394	0.244053	0.186984
H480	H	0.614142	0.207458	0.248999
H481	H	0.611602	0.179351	0.205151
H482	H	0.596540	0.165074	0.284121
H483	H	0.543659	0.274018	0.138048
H484	H	0.528596	0.259751	0.217013
O485	O	0.409272	0.188818	0.350295
C486	C	0.415085	0.145032	0.429177
H487	H	0.451676	0.125700	0.475793
H488	H	0.380071	0.166199	0.447091
C489	C	0.374365	0.118463	0.370918
C490	C	0.419309	0.094717	0.428172
H491	H	0.376967	0.087428	0.370299
H492	H	0.370446	0.147965	0.317774
H493	H	0.345190	0.136102	0.385854
H494	H	0.448481	0.077085	0.413230
H495	H	0.423232	0.065211	0.481314
O496	O	0.516014	0.188892	0.519991
C497	C	0.510219	0.145087	0.580408
H498	H	0.473619	0.152352	0.553012
H499	H	0.545229	0.098798	0.602424
C500	C	0.550986	0.141030	0.687318
C501	C	0.506032	0.149957	0.653672
H502	H	0.548406	0.144031	0.732513
H503	H	0.554892	0.170541	0.646615
H504	H	0.580157	0.102456	0.705659
H505	H	0.476863	0.188533	0.635323
H506	H	0.502121	0.120453	0.694374
O507	O	0.348798	0.053757	-0.181307
C508	C	0.351225	0.066248	-0.259291
H509	H	0.391644	0.031659	-0.252243
H510	H	0.321514	0.064454	-0.288021
C511	C	0.289766	0.171523	-0.323845
C512	C	0.339411	0.129043	-0.315189
H513	H	0.282476	0.210259	-0.358328
H514	H	0.288129	0.163108	-0.271307
H515	H	0.265013	0.170021	-0.347784
H516	H	0.364163	0.130541	-0.291242
H517	H	0.341052	0.137460	-0.367725
O518	O	0.789812	0.188859	0.350198
C519	C	0.827814	0.145056	0.429057
H520	H	0.810575	0.152319	0.475689
H521	H	0.841671	0.098766	0.446991
C522	C	0.895068	0.141006	0.370705
C523	C	0.873896	0.149930	0.427978
H524	H	0.923495	0.144010	0.370040
H525	H	0.869466	0.170515	0.317576
H526	H	0.906611	0.102431	0.385658
H527	H	0.862348	0.188506	0.413019
H528	H	0.899498	0.120427	0.481105
O529	O	0.348731	-0.033520	-0.181099
C530	C	0.320690	-0.056809	-0.143802
H531	H	0.345392	-0.096721	-0.077271
H532	H	0.283761	-0.020846	-0.145184
C533	C	0.276240	-0.027894	-0.272781
C534	C	0.306580	-0.076917	-0.191068
H535	H	0.267534	-0.040295	-0.301938
H536	H	0.295130	-0.012202	-0.297910
H537	H	0.245469	0.002071	-0.273922
H538	H	0.337353	-0.106877	-0.189928
H539	H	0.287695	-0.092615	-0.165940
O540	O	0.072619	0.462695	0.180758
C541	C	0.072447	0.514198	0.143468
H542	H	0.070493	0.531362	0.076932
H543	H	0.037360	0.550254	0.144865
C544	C	0.124694	0.477484	0.272446
C545	C	0.122299	0.498562	0.190727
H546	H	0.155444	0.467841	0.301599
H547	H	0.124809	0.442787	0.297571
H548	H	0.095452	0.507535	0.273599
H549	H	0.151537	0.468510	0.189575
H550	H	0.122190	0.533254	0.165603
O551	O	0.409206	0.276045	0.211503
C552	C	0.385286	0.247031	0.219645
H553	H	0.406542	0.202186	0.282433
H554	H	0.343227	0.276057	0.213871
C555	C	0.361153	0.291784	0.074405
C556	C	0.387263	0.236703	0.151520
H557	H	0.362370	0.285415	0.032381
H558	H	0.377267	0.311333	0.068919
H559	H	0.326106	0.315967	0.069605
H560	H	0.422311	0.212524	0.156323
H561	H	0.371156	0.217149	0.157005
H562	H	0.570476	-0.251730	0.171262
H563	H	0.701757	0.272644	0.223692
H564	H	0.192409	0.462619	-0.110667
O565	O	0.276179	0.462527	-0.120169
C566	C	0.291109	0.411039	-0.116300
H567	H	0.296943	0.375052	-0.052045
H568	H	0.259606	0.422674	-0.163532
C569	C	0.334925	0.431891	-0.213989
C570	C	0.342095	0.387689	-0.135067
H571	H	0.366374	0.417489	-0.225569
H572	H	0.324865	0.466581	-0.216599
H573	H	0.308670	0.441583	-0.253340
H574	H	0.368344	0.378003	-0.095717
H575	H	0.352161	0.352997	-0.132452
H576	H	0.069145	0.462610	-0.171584
O577	O	0.461263	0.551864	-0.508791
C578	C	0.484218	0.579033	-0.557059
H579	H	0.525900	0.543033	-0.543488
H580	H	0.461535	0.606605	-0.625027
C581	C	0.432435	0.664311	-0.552974
C582	C	0.483632	0.620095	-0.536300
H583	H	0.432072	0.689642	-0.540172
H584	H	0.416968	0.646008	-0.520457
H585	H	0.413538	0.687281	-0.609613
H586	H	0.502526	0.597121	-0.479659
H587	H	0.499102	0.638395	-0.568807
H588	H	-0.267130	0.462602	-0.110689
H589	H	-0.347404	0.462595	-0.110683
O590	O	-0.060156	0.462566	-0.181192
C591	C	-0.089180	0.462575	-0.234960
H592	H	-0.111307	0.443753	-0.202131
H593	H	-0.117738	0.510271	-0.291609
C594	C	-0.025237	0.446698	-0.301838
C595	C	-0.052411	0.423576	-0.261514
H596	H	-0.002557	0.422644	-0.318222
H597	H	-0.005684	0.446694	-0.265616
H598	H	-0.049041	0.486444	-0.349041
H599	H	-0.028607	0.383834	-0.214307
H600	H	-0.071959	0.423572	-0.297729
H601	H	0.479690	0.371562	-0.486324
O602	O	0.476247	0.366556	-0.362593
C603	C	0.431660	0.404785	-0.353830
H604	H	0.432635	0.442992	-0.363775
H605	H	0.395668	0.423727	-0.401296
C606	C	0.429058	0.322419	-0.254490
C607	C	0.430258	0.369343	-0.266698
H608	H	0.428191	0.300557	-0.200745
H609	H	0.459096	0.296663	-0.260396
H610	H	0.399064	0.338211	-0.294051
H611	H	0.460254	0.353550	-0.227144
H612	H	0.400225	0.395095	-0.260784
H613	H	-0.267149	0.462609	0.110360
O614	O	-0.350889	0.462695	0.119898
C615	C	-0.365838	0.514196	0.116006
H616	H	-0.342297	0.531363	0.085033
H617	H	-0.408771	0.550251	0.078903
C618	C	-0.384884	0.477475	0.241760
C619	C	-0.355967	0.498556	0.203724
H620	H	-0.378798	0.467829	0.295867
H621	H	-0.374814	0.442778	0.244380
H622	H	-0.420660	0.507524	0.210831
H623	H	-0.320192	0.468504	0.234646
H624	H	-0.366031	0.533247	0.201110
O625	O	-0.014616	0.462529	0.180889
C626	C	-0.014446	0.411029	0.225484
H627	H	-0.012492	0.393862	0.186240
H628	H	0.020640	0.374973	0.284203
C629	C	-0.066695	0.447750	0.296091
C630	C	-0.064299	0.426669	0.247888
H631	H	-0.097445	0.457396	0.309915
H632	H	-0.066808	0.482446	0.266050
H633	H	-0.037454	0.417700	0.345018
H634	H	-0.093536	0.456721	0.198958
H635	H	-0.064192	0.391978	0.277922
H636	H	-0.143854	0.462590	-0.171579
