data_functionalizedCrystal
_audit_creation_method	'MofGen! by Chris Wilmer'
_symmetry_space_group_name_H-M	'P1'
_symmetry_Int_Tables_number	1
_symmetry_cell_setting	triclinic
loop_
_symmetry_equiv_pos_as_xyz
  x,y,z
_cell_length_a	19.902436
_cell_length_b	18.426585
_cell_length_c	18.426585
_cell_angle_alpha	90.001096
_cell_angle_beta	60.003903
_cell_angle_gamma	59.997022
loop_
_atom_site_label
_atom_site_type_symbol
_atom_site_fract_x
_atom_site_fract_y
_atom_site_fract_z
Zr1	Zr	0.735509	-0.095330	0.699127
O2	O	0.875680	-0.211218	0.583254
O3	O	0.595332	-0.059794	0.734646
O4	O	0.735506	-0.211207	0.734649
O5	O	0.735510	0.059621	0.583251
O6	O	0.735510	-0.211210	0.854075
O7	O	0.735506	-0.059805	0.583251
O8	O	0.484765	0.059641	0.854070
O9	O	0.986256	-0.211230	0.583256
O10	O	0.652994	-0.044653	0.838924
O11	O	0.652994	0.044476	0.749798
O12	O	0.818031	-0.133794	0.749801
O13	O	0.818031	-0.044665	0.660675
Zr14	Zr	0.735524	0.095136	0.889598
Zr15	Zr	0.735516	-0.095335	0.889598
Zr16	Zr	0.735516	0.095141	0.699128
Zr17	Zr	0.911866	-0.095348	0.699131
Zr18	Zr	0.559167	0.095154	0.889594
O19	O	0.875701	0.059600	0.854079
O20	O	0.875691	-0.211225	0.854078
O21	O	0.875691	0.059606	0.583254
O22	O	0.595353	0.211024	1.005471
O23	O	0.595342	-0.059801	1.005471
O24	O	0.595342	0.211031	0.734647
O25	O	0.735522	-0.059815	1.005474
O26	O	0.735527	0.211013	0.854076
O27	O	0.735522	0.211016	0.734650
O28	O	0.735527	0.059610	1.005474
O29	O	0.986262	-0.211233	0.734655
O30	O	0.484770	0.211039	0.854070
O31	O	0.484776	0.211035	1.005469
O32	O	0.484770	0.059637	1.005469
O33	O	0.986262	-0.059831	0.583257
O34	O	0.986268	-0.059835	0.734655
O35	O	0.653001	0.133600	0.838924
O36	O	0.653001	0.044471	0.928050
O37	O	0.818038	-0.044670	0.838927
O38	O	0.818038	0.044458	0.749801
C39	C	0.514921	-0.000074	0.794358
C40	C	0.440053	-0.000066	0.794356
C41	C	0.735507	-0.000091	0.556113
C42	C	0.735504	-0.000089	0.475253
C43	C	0.735526	0.238152	0.794363
C44	C	0.735529	0.319012	0.794363
C45	C	0.168043	-0.000108	0.794365
C46	C	0.196281	0.056388	0.738415
C47	C	0.274400	0.056155	0.738111
C48	C	0.302990	-0.000086	0.794360
C49	C	0.338548	-0.096939	0.753357
C50	C	0.260711	-0.096641	0.752936
C51	C	0.133533	0.039472	0.891347
C52	C	0.210585	0.041444	0.891205
C53	C	0.379258	-0.000080	0.794359
C54	C	0.091779	-0.000121	0.794363
C55	C	0.956112	-0.000120	0.794368
C56	C	1.030980	-0.000128	0.794369
C57	C	0.735507	-0.238347	0.794362
C58	C	0.735504	-0.319206	0.794362
C59	C	0.735500	0.615127	0.794364
C60	C	0.735504	0.532741	0.794367
C61	C	0.735514	0.467072	0.794365
C62	C	0.735519	0.384681	0.794365
C63	C	0.735532	-0.000105	0.179139
C64	C	0.735529	-0.000103	0.261525
C65	C	0.735518	-0.000098	0.327193
C66	C	0.735514	-0.000094	0.409585
C67	C	0.735526	-0.000103	1.032612
C68	C	0.735529	-0.000105	1.113472
C69	C	0.514930	-0.000080	1.032607
C70	C	0.440066	-0.000074	1.113465
C71	C	0.514930	0.238175	0.794358
C72	C	0.440066	0.319043	0.794357
C73	C	0.514940	0.238169	1.032608
C74	C	0.440078	0.319035	1.113466
C75	C	0.956093	-0.238364	0.556118
C76	C	1.030955	-0.319229	0.475259
C77	C	0.956102	-0.000114	0.556118
C78	C	1.030967	-0.000120	0.475260
C79	C	0.956102	-0.238370	0.794367
C80	C	1.030967	-0.319237	0.794369
C81	C	0.404905	-0.046601	1.104914
C82	C	0.334571	-0.046614	1.180881
C83	C	0.299394	-0.000093	1.265399
C84	C	0.334562	0.046435	1.273949
C85	C	0.404900	0.046442	1.197982
C86	C	0.404912	0.403549	0.840879
C87	C	0.334578	0.479540	0.840874
C88	C	0.299395	0.471023	0.794352
C89	C	0.334555	0.386508	0.747824
C90	C	0.404892	0.310519	0.747824
C91	C	0.404922	0.310486	1.197969
C92	C	0.334591	0.386461	1.273951
C93	C	0.299413	0.470983	1.265428
C94	C	0.334576	0.479530	1.180917
C95	C	0.404910	0.403556	1.104936
C96	C	1.066119	-0.310680	0.390757
C97	C	1.136472	-0.386655	0.314774
C98	C	1.171654	-0.471177	0.323297
C99	C	1.136487	-0.479724	0.407809
C100	C	1.066140	-0.403751	0.483789
C101	C	1.066136	0.046399	0.483811
C102	C	1.136489	0.046391	0.407844
C103	C	1.171668	-0.000133	0.323326
C104	C	1.136496	-0.046657	0.314777
C105	C	1.066149	-0.046653	0.390743
C106	C	1.066129	-0.310692	0.840900
C107	C	1.136463	-0.386668	0.840919
C108	C	1.171639	-0.471189	0.794400
C109	C	1.136471	-0.479733	0.747868
C110	C	1.066133	-0.403757	0.747854
H111	H	0.247758	0.127474	0.765615
H112	H	1.037498	0.084290	0.552623
H113	H	1.165113	0.084280	0.414822
H114	H	0.433550	0.410501	0.878763
H115	H	1.165123	-0.548560	0.709993
H116	H	1.228949	-0.000128	0.261476
H117	H	0.305946	-0.084503	1.173903
H118	H	0.242121	-0.000105	1.327249
H119	H	0.114677	-0.001482	0.933229
H120	H	0.433525	0.410530	1.036133
H121	H	0.222237	0.029178	0.667300
H122	H	1.037510	-0.410722	0.552593
H123	H	1.165089	-0.379694	0.878810
H124	H	0.305912	0.084310	1.342773
H125	H	0.433544	-0.084495	1.036102
H126	H	0.433554	0.241670	1.204925
H127	H	1.037513	-0.410728	0.709959
H128	H	0.290249	-0.128327	0.681571
H129	H	0.242142	0.532838	1.327304
H130	H	0.433519	0.084335	1.204957
H131	H	0.305959	0.548348	0.878766
H132	H	1.165150	-0.084535	0.245952
H133	H	0.131779	0.127887	0.765773
H134	H	0.242122	0.532905	0.794359
H135	H	0.305898	0.379586	0.709946
H136	H	1.037517	-0.084532	0.383768
H137	H	1.037478	-0.241865	0.383800
H138	H	0.433505	0.241713	0.709943
H139	H	0.305969	0.379485	1.342757
H140	H	0.226192	0.004573	0.936404
H141	H	0.338855	0.028714	0.666575
H142	H	0.305923	0.548358	1.173991
H143	H	0.244762	-0.141022	0.791056
H144	H	0.405548	-0.128843	0.682675
H145	H	0.359441	-0.140855	0.792152
H146	H	1.165093	-0.379678	0.245969
H147	H	1.037499	-0.241877	0.878781
H148	H	1.228934	-0.533033	0.261422
H149	H	0.065490	0.109696	0.925605
H150	H	0.181845	0.112796	0.921837
H151	H	1.165141	-0.548552	0.414737
H152	H	1.228913	-0.533046	0.794418
