data_functionalizedCrystal
_audit_creation_method	'MofGen! by Chris Wilmer'
_symmetry_space_group_name_H-M	'P1'
_symmetry_Int_Tables_number	1
_symmetry_cell_setting	triclinic
loop_
_symmetry_equiv_pos_as_xyz
  x,y,z
_cell_length_a	14.395555
_cell_length_b	27.440280
_cell_length_c	14.395555
_cell_angle_alpha	90.004690
_cell_angle_beta	60.002398
_cell_angle_gamma	59.995745
loop_
_atom_site_label
_atom_site_type_symbol
_atom_site_fract_x
_atom_site_fract_y
_atom_site_fract_z
Zr1	Zr	1.016723	0.469472	-0.121801
O2	O	1.210537	0.391648	-0.270146
O3	O	0.822916	0.493333	-0.076324
O4	O	1.016711	0.493329	-0.270119
O5	O	1.016749	0.391652	0.076517
O6	O	1.016693	0.573531	-0.270100
O7	O	1.016742	0.391653	-0.076351
O8	O	0.670029	0.573540	0.076564
O9	O	1.363413	0.391644	-0.270147
O10	O	0.902615	0.563360	-0.056916
O11	O	0.902634	0.503505	0.057152
O12	O	1.130802	0.503499	-0.171016
O13	O	1.130821	0.443644	-0.056947
Zr14	Zr	1.016705	0.597385	0.122035
Zr15	Zr	1.016694	0.597386	-0.121771
Zr16	Zr	1.016734	0.469471	0.122004
Zr17	Zr	1.260542	0.469465	-0.121804
Zr18	Zr	0.772886	0.597393	0.122037
O19	O	1.210512	0.573524	0.076558
O20	O	1.210496	0.573526	-0.270102
O21	O	1.210553	0.391647	0.076515
O22	O	0.822891	0.675210	0.270379
O23	O	0.822875	0.675211	-0.076281
O24	O	0.822931	0.493332	0.270336
O25	O	1.016679	0.675205	-0.076283
O26	O	1.016717	0.573529	0.270353
O27	O	1.016735	0.493326	0.270334
O28	O	1.016686	0.675205	0.076584
O29	O	1.363390	0.493318	-0.270123
O30	O	0.670038	0.573539	0.270356
O31	O	0.670015	0.675214	0.270381
O32	O	0.670006	0.675215	0.076588
O33	O	1.363421	0.391643	-0.076354
O34	O	1.363399	0.493318	-0.076330
O35	O	0.902626	0.563359	0.171250
O36	O	0.902607	0.623214	0.057181
O37	O	1.130794	0.563353	-0.056919
O38	O	1.130813	0.503498	0.057150
C39	C	0.711733	0.533438	0.000120
C40	C	0.608226	0.533441	0.000121
C41	C	0.547637	0.566071	-0.062085
C42	C	0.409528	0.589722	0.045188
C43	C	0.561900	0.509793	-0.107141
C44	C	0.471417	0.557125	0.107458
C45	C	0.623863	0.477165	-0.044949
C46	C	0.485763	0.500802	0.062389
C47	C	1.016750	0.373428	0.000079
C48	C	1.016762	0.319125	0.000066
C49	C	0.897581	0.013674	0.059707
C50	C	0.897574	-0.037345	0.059717
O51	O	0.796274	-0.037159	0.110404
N52	N	1.016684	-0.094108	0.000157
C53	C	1.135809	-0.099852	-0.059407
O54	O	1.237120	-0.152819	-0.110066
C55	C	1.135815	-0.048834	-0.059410
C56	C	1.016697	0.007928	0.000144
C57	C	0.778473	0.070434	0.119258
C58	C	0.778481	0.121449	0.119246
C59	C	0.897596	0.115703	0.059683
C60	C	1.016705	0.058943	0.000132
C61	C	1.254938	-0.054579	-0.118967
C62	C	1.254934	-0.003555	-0.118964
C63	C	1.135816	0.053208	-0.059410
C64	C	1.135828	0.104213	-0.059443
N65	N	1.016718	0.160976	0.000117
C66	C	0.897602	0.166721	0.059680
C67	C	1.135787	-0.206991	-0.059395
C68	C	1.135783	-0.258008	-0.059400
C69	C	0.897547	-0.195497	0.059726
C70	C	0.897553	-0.144479	0.059724
C71	C	1.016677	-0.150228	0.000165
C72	C	0.897628	0.273854	0.059650
C73	C	0.897646	0.324870	0.059628
C74	C	1.135881	0.262355	-0.059493
C75	C	1.135863	0.211342	-0.059477
C76	C	1.016726	0.217096	0.000103
O77	O	1.237076	0.104072	-0.110100
O78	O	0.796308	0.219689	0.110343
C79	C	1.321694	0.533420	0.000114
C80	C	1.425202	0.533417	0.000113
C81	C	1.016700	0.533430	-0.304847
C82	C	1.016695	0.533430	-0.408349
C83	C	1.016678	0.693430	0.000155
C84	C	1.016666	0.747733	0.000168
C85	C	0.892278	0.566072	-0.406725
C86	C	0.954484	0.509790	-0.499761
C87	C	0.954495	0.589699	-0.499741
C88	C	1.078902	0.477115	-0.500021
C89	C	1.078895	0.557065	-0.499987
C90	C	1.141192	0.500749	-0.593040
C91	C	1.016728	0.533428	0.305080
C92	C	1.016732	0.533427	0.408582
C93	C	0.711698	0.693439	0.000158
C94	C	0.608178	0.747745	0.000172
C95	C	0.711747	0.533437	0.305084
C96	C	0.608244	0.533439	0.408586
C97	C	0.711711	0.693438	0.305122
C98	C	0.608196	0.747743	0.408638
C99	C	1.321716	0.373420	-0.304888
C100	C	1.425231	0.319115	-0.408404
C101	C	1.321730	0.373419	0.000075
C102	C	1.425250	0.319113	0.000061
C103	C	1.321681	0.533421	-0.304850
C104	C	1.425184	0.533419	-0.408353
C105	C	0.559568	0.742004	-0.059389
C106	C	0.462314	0.793026	-0.059399
C107	C	0.413664	0.849787	0.000160
C108	C	0.462284	0.855526	0.059723
C109	C	0.559543	0.804506	0.059726
C110	C	0.559575	0.804495	0.397707
C111	C	0.462325	0.855525	0.494962
C112	C	0.413692	0.849803	0.603146
C113	C	0.462323	0.793046	0.614075
C114	C	0.559578	0.742017	0.516821
C115	C	1.473865	0.262363	-0.397473
C116	C	1.571145	0.211332	-0.494728
C117	C	1.619783	0.217054	-0.602913
C118	C	1.571146	0.273812	-0.613841
C119	C	1.473874	0.324841	-0.516587
C120	C	1.473870	0.324853	0.059612
C121	C	1.571151	0.273832	0.059595
C122	C	1.619804	0.217071	0.000033
C123	C	1.571180	0.211332	-0.059526
C124	C	1.473907	0.262352	-0.059514
C125	C	0.547664	0.500805	0.406965
C126	C	0.409549	0.557091	0.499998
C127	C	0.561905	0.477177	0.499984
C128	C	0.471430	0.589759	0.500256
C129	C	0.623860	0.509804	0.500228
C130	C	0.485754	0.566124	0.593278
H131	H	0.599100	0.489804	-0.197846
N132	N	0.581619	0.600740	-0.127950
N133	N	0.667787	0.605957	-0.139176
H134	H	0.691785	0.630443	-0.185688
N135	N	1.719147	0.164920	-0.702238
N136	N	1.762548	0.114254	-0.692450
H137	H	1.832723	0.077431	-0.762594
N138	N	1.719141	0.164957	0.000051
N139	N	1.697434	0.128237	0.038595
H140	H	1.767588	0.091433	0.038615
N141	N	0.738836	0.484712	0.499001
N142	N	0.732242	0.508001	0.578650
H143	H	0.813453	0.490275	0.577777
H144	H	1.131426	0.577073	-0.499008
N145	N	1.424210	0.256494	-0.120318
N146	N	1.337351	0.302047	-0.120301
H147	H	1.302253	0.297906	-0.163244
H148	H	1.434269	0.257693	-0.309393
H149	H	0.599178	0.695791	-0.107903
H150	H	0.901884	0.637288	-0.500628
H151	H	0.681469	0.075122	0.167767
H152	H	0.458745	0.473204	0.115064
N153	N	0.412556	0.913508	0.120587
N154	N	0.358264	0.928735	0.225595
H155	H	0.323134	0.969686	0.268588
H156	H	0.458721	0.593766	0.672913
H157	H	0.599153	0.695809	0.525737
H158	H	0.317920	0.577091	0.500930
H159	H	0.599091	0.429593	0.500888
H160	H	0.317888	0.637304	0.083311
H161	H	1.232798	-0.211680	-0.107901
N162	N	0.775872	-0.189635	0.120596
N163	N	0.696126	-0.163014	0.225603
H164	H	0.610198	-0.158878	0.268590
N165	N	0.424487	0.649487	0.499253
N166	N	0.311047	0.692047	0.578583
H167	H	0.277893	0.734229	0.577872
N168	N	0.775952	0.382848	0.120463
N169	N	0.669611	0.387965	0.173638
H170	H	0.583666	0.428910	0.216603
N171	N	0.412658	0.913492	0.483762
N172	N	0.358388	0.928703	0.433027
H173	H	0.323312	0.969640	0.425112
H174	H	1.434264	0.371067	0.108123
N175	N	0.412678	0.787144	-0.120249
N176	N	0.456122	0.736459	-0.173407
H177	H	0.421069	0.732303	-0.216384
N178	N	1.620793	0.279714	0.120440
N179	N	1.577324	0.330399	0.173623
H180	H	1.612381	0.334555	0.216595
N181	N	0.775867	-0.086505	0.120557
N182	N	0.669528	-0.081391	0.173723
H183	H	0.583581	-0.040447	0.216690
H184	H	0.599158	0.809165	0.309627
N185	N	1.620902	0.153345	-0.120361
N186	N	1.707748	0.107801	-0.120349
H187	H	1.742864	0.066846	-0.163310
H188	H	0.599108	0.809188	0.108234
H189	H	1.610760	0.278464	-0.701936
H190	H	0.434027	0.577169	0.198207
N191	N	0.738866	0.417491	-0.092787
N192	N	0.780119	0.395683	-0.034357
H193	H	0.861349	0.353538	-0.068152
H194	H	1.434278	0.371049	-0.525501
H195	H	0.334501	0.891360	0.682327
H196	H	0.574752	0.473248	0.327200
N197	N	0.656792	0.179422	0.180090
N198	N	0.550457	0.184533	0.233266
H199	H	0.464506	0.225475	0.276245
H200	H	0.334469	0.891326	0.000150
N201	N	1.257471	-0.315982	-0.120261
N202	N	1.363809	-0.321096	-0.173440
H203	H	1.449757	-0.362040	-0.216422
N204	N	1.376628	-0.112549	-0.179809
N205	N	1.482961	-0.117657	-0.232972
H206	H	1.568913	-0.158599	-0.275943
N207	N	1.620800	0.153366	-0.483529
N208	N	1.577343	0.148271	-0.386926
H209	H	1.612409	0.107333	-0.379012
H210	H	0.422711	0.788396	0.702171
N211	N	1.376632	-0.009440	-0.179806
N212	N	1.482967	-0.060126	-0.232968
H213	H	1.568918	-0.064283	-0.275939
N214	N	1.257547	0.153363	-0.120337
N215	N	1.363891	0.148244	-0.173523
H216	H	1.449835	0.107299	-0.216503
H217	H	1.232862	0.257687	-0.107991
N218	N	0.760296	0.600643	-0.306668
N219	N	0.684769	0.586088	-0.288796
H220	H	0.591557	0.610502	-0.218132
N221	N	0.888558	0.484694	-0.500956
N222	N	0.929795	0.432400	-0.500623
H223	H	0.883230	0.414678	-0.501462
H224	H	0.800615	0.278547	0.108166
H225	H	1.131455	0.429505	-0.499211
H226	H	1.246485	0.473105	-0.672676
