data_functionalizedCrystal
_audit_creation_method	'MofGen! by Chris Wilmer'
_symmetry_space_group_name_H-M	'P1'
_symmetry_Int_Tables_number	1
_symmetry_cell_setting	triclinic
loop_
_symmetry_equiv_pos_as_xyz
  x,y,z
_cell_length_a	17.699083
_cell_length_b	15.995350
_cell_length_c	16.776229
_cell_angle_alpha	89.995580
_cell_angle_beta	89.998886
_cell_angle_gamma	83.387695
loop_
_atom_site_label
_atom_site_type_symbol
_atom_site_fract_x
_atom_site_fract_y
_atom_site_fract_z
O1	O	1.004255	0.105885	-0.066173
O2	O	1.504255	0.605885	0.433827
O3	O	0.783899	0.119661	-0.066198
O4	O	1.283899	0.619661	0.433802
O5	O	0.900100	-0.009127	-0.066184
O6	O	1.400100	0.490873	0.433816
O7	O	0.888053	0.234673	-0.066187
O8	O	1.388053	0.734673	0.433813
O9	O	0.900085	-0.009135	0.066393
O10	O	1.400085	0.490865	0.566393
O11	O	0.783884	0.119653	0.066378
O12	O	1.283884	0.619653	0.566378
O13	O	1.004239	0.105877	0.066404
O14	O	1.504239	0.605877	0.566404
Zn15	Zn	0.894059	0.112764	0.087441
Zn16	Zn	1.394059	0.612764	0.587441
Zn17	Zn	0.894079	0.112774	-0.087235
Zn18	Zn	1.394079	0.612774	0.412765
O19	O	0.888038	0.234665	0.066390
O20	O	1.388038	0.734665	0.566390
C21	C	0.755694	0.119163	0.000087
C22	C	1.255694	0.619163	0.500087
C23	C	0.671673	0.117683	0.000077
C24	C	1.171673	0.617683	0.500077
C25	C	0.623178	0.193278	0.000076
C26	C	1.123178	0.693278	0.500076
C27	C	0.544232	0.191882	0.000087
C28	C	1.044232	0.691882	0.500087
C29	C	0.513783	0.114889	0.000092
C30	C	1.013783	0.614889	0.500092
C31	C	0.562285	0.039287	0.000095
C32	C	1.062285	0.539287	0.500095
C33	C	0.641229	0.040685	0.000090
C34	C	1.141229	0.540685	0.500090
C35	C	0.243912	0.033651	0.000115
C36	C	0.743912	0.533651	0.500115
C37	C	0.164962	0.032259	0.000117
C38	C	0.664962	0.532259	0.500117
C39	C	0.146916	0.184848	0.000111
C40	C	0.646916	0.684848	0.500111
C41	C	0.225860	0.186245	0.000106
C42	C	0.725860	0.686245	0.500106
C43	C	0.274354	0.110644	0.000114
C44	C	0.774354	0.610644	0.500114
C45	C	0.359956	0.112159	0.000104
C46	C	0.859956	0.612159	0.500104
C47	C	0.428183	0.113373	0.000096
C48	C	0.928183	0.613373	0.500096
C49	C	0.899595	-0.040324	0.000103
C50	C	1.399595	0.459676	0.500103
C51	C	0.898101	-0.133272	0.000098
C52	C	1.398101	0.366728	0.500098
C53	C	0.892739	-0.471008	0.000100
C54	C	1.392739	0.028992	0.500100
C55	C	0.809983	-0.423406	-0.000207
C56	C	1.309983	0.076594	0.499793
C57	C	0.811476	-0.326719	0.000092
C58	C	1.311476	0.173281	0.500092
C59	C	0.895399	-0.303453	0.000099
C60	C	1.395399	0.196547	0.500099
C61	C	0.936209	-0.344618	0.075810
C62	C	1.436209	0.155382	0.575810
C63	C	0.934130	-0.441250	0.075873
C64	C	1.434130	0.058750	0.575873
C65	C	0.935857	-0.441602	-0.074891
C66	C	1.435857	0.058398	0.425109
C67	C	0.935837	-0.344657	-0.075892
C68	C	1.435837	0.155343	0.424108
C69	C	0.896907	-0.208759	0.000101
C70	C	1.396907	0.291241	0.500101
C71	C	0.891234	-0.565703	0.000104
C72	C	1.391234	-0.065703	0.500104
C73	C	1.032445	0.106375	0.000117
C74	C	1.532445	0.606375	0.500117
C75	C	1.116465	0.107856	0.000122
C76	C	1.616465	0.607856	0.500122
C77	C	0.888544	0.265863	0.000101
C78	C	1.388544	0.765863	0.500101
C79	C	0.890037	0.358810	0.000101
C80	C	1.390037	0.858810	0.500101
N81	N	0.894051	0.112756	0.206652
N82	N	1.394051	0.612756	0.706652
N83	N	0.894094	0.112775	-0.206446
N84	N	1.394094	0.612775	0.293554
C85	C	0.945520	0.055752	0.248375
C86	C	1.445520	0.555752	0.748375
C87	C	0.945524	0.055752	0.331827
C88	C	1.445524	0.555752	0.831827
C89	C	0.894062	0.112760	0.373555
C90	C	1.394062	0.612760	0.873555
C91	C	0.842587	0.169766	0.331825
C92	C	1.342587	0.669766	0.831825
C93	C	0.842580	0.169762	0.248375
C94	C	1.342580	0.669762	0.748375
C95	C	0.842614	0.169783	0.668373
C96	C	1.342614	0.669783	1.168373
C97	C	0.842627	0.169784	0.751829
C98	C	1.342627	0.669784	1.251829
C99	C	0.945559	0.055772	0.751825
C100	C	1.445559	0.555772	1.251825
C101	C	0.945552	0.055768	0.668375
C102	C	1.445552	0.555768	1.168375
C103	C	0.894074	0.112771	0.626653
C104	C	1.394074	0.612771	1.126653
C105	C	0.894069	0.112770	0.536164
C106	C	1.394069	0.612770	1.036164
C107	C	0.894070	0.112765	0.464041
C108	C	1.394070	0.612765	0.964041
H109	H	0.140174	-0.030442	0.000122
H110	H	0.640174	0.469558	0.500122
O111	O	0.898649	-0.306960	0.150439
O112	O	1.398649	0.193040	0.650439
H113	H	0.940925	-0.276988	0.186183
H114	H	1.440925	0.223012	0.686183
O115	O	0.296210	-0.047888	0.000124
O116	O	0.796210	0.452112	0.500124
H117	H	0.285389	-0.084738	-0.053912
H118	H	0.785389	0.415262	0.446088
H119	H	0.800717	0.216208	0.785802
H120	H	1.300717	0.716208	1.285802
H121	H	0.908806	-0.462084	-0.132275
H122	H	1.408806	0.037916	0.367725
H123	H	0.537487	-0.023402	0.000111
H124	H	1.037487	0.476598	0.500111
O125	O	0.896377	-0.308413	-0.150091
O126	O	1.396377	0.191587	0.349909
H127	H	0.848166	-0.261245	-0.132928
H128	H	1.348166	0.238755	0.367072
H129	H	0.800701	0.216198	0.634409
H130	H	1.300701	0.716198	1.134409
O131	O	0.894688	-0.465417	0.150830
O132	O	1.394688	0.034583	0.650830
H133	H	0.934238	-0.509857	0.186162
H134	H	1.434238	-0.009857	0.686162
O135	O	1.017876	-0.326066	0.079559
O136	O	1.517876	0.173934	0.579559
H137	H	1.048610	-0.351784	0.025637
H138	H	1.548610	0.148216	0.525637
O139	O	0.766164	-0.447854	-0.072120
O140	O	1.266164	0.052146	0.427880
H141	H	0.715043	-0.476277	-0.052177
H142	H	1.215043	0.023723	0.447823
O143	O	0.693541	-0.040850	0.000088
O144	O	1.193541	0.459150	0.500088
H145	H	0.659107	-0.094623	0.000086
H146	H	1.159107	0.405377	0.500086
H147	H	0.987473	0.009354	0.785804
H148	H	1.487473	0.509354	1.285804
O149	O	0.094612	0.266395	0.000120
O150	O	0.594612	0.766395	0.500120
H151	H	0.034601	0.252493	0.000137
H152	H	0.534601	0.752493	0.500137
H153	H	0.250646	0.248941	0.000098
H154	H	0.750646	0.748941	0.500098
O155	O	0.787067	0.231238	0.203359
O156	O	1.287067	0.731238	0.703359
H157	H	0.796707	0.296504	0.219353
H158	H	1.296707	0.796504	0.719353
H159	H	0.779397	-0.298228	-0.054181
H160	H	1.279397	0.201772	0.445819
O161	O	0.787081	0.231260	0.376825
O162	O	1.287081	0.731260	0.876825
H163	H	0.795739	0.221694	0.441864
H164	H	1.295739	0.721694	0.941864
O165	O	0.768687	-0.289714	0.072096
O166	O	1.268687	0.210286	0.572096
H167	H	0.807524	-0.257019	0.109944
H168	H	1.307524	0.242981	0.609944
H169	H	0.647962	0.255975	0.000071
H170	H	1.147962	0.755975	0.500071
H171	H	0.777046	-0.442936	0.053777
H172	H	1.277046	0.057064	0.553777
O173	O	1.014604	-0.484142	0.080454
O174	O	1.514604	0.015858	0.580454
H175	H	1.047321	-0.465691	0.028140
H176	H	1.547321	0.034309	0.528140
O177	O	0.491923	0.273416	0.000086
O178	O	0.991923	0.773416	0.500086
H179	H	0.526359	0.327189	0.000072
H180	H	1.026359	0.827189	0.500072
O181	O	1.016908	-0.324484	-0.081947
O182	O	1.516908	0.175516	0.418053
H183	H	1.029704	-0.284603	-0.030657
H184	H	1.529704	0.215397	0.469343
H185	H	0.996873	-0.473487	-0.075395
H186	H	1.496873	0.026513	0.424605
H187	H	0.987430	0.009334	0.214406
H188	H	1.487430	0.509334	0.714406
O189	O	1.001051	-0.005715	0.376832
O190	O	1.501051	0.494285	0.876832
H191	H	1.036846	-0.045344	0.333797
H192	H	1.536846	0.454656	0.833797
H193	H	0.987460	0.009350	0.634403
H194	H	1.487460	0.509350	1.134403
