data_functionalizedCrystal
_audit_creation_method	'MofGen! by Chris Wilmer'
_symmetry_space_group_name_H-M	'P1'
_symmetry_Int_Tables_number	1
_symmetry_cell_setting	triclinic
loop_
_symmetry_equiv_pos_as_xyz
  x,y,z
_cell_length_a	13.635800
_cell_length_b	17.150237
_cell_length_c	17.982651
_cell_angle_alpha	100.181263
_cell_angle_beta	102.445951
_cell_angle_gamma	100.206265
loop_
_atom_site_label
_atom_site_type_symbol
_atom_site_fract_x
_atom_site_fract_y
_atom_site_fract_z
V1	V	2.001784	0.111854	0.245257
O2	O	2.001607	-0.004622	0.232704
O3	O	1.972000	0.221065	0.251163
O4	O	1.975091	0.110464	0.348762
O5	O	1.998495	0.106744	0.134428
V6	V	2.244645	0.097883	0.231080
O7	O	2.130003	0.142501	0.276356
O8	O	2.341525	0.067237	0.199981
O9	O	2.162826	-0.011327	0.225174
O10	O	2.303520	0.214360	0.243633
O11	O	2.306633	0.102994	0.341908
O12	O	2.159735	0.099274	0.127575
V13	V	2.501784	0.111854	0.245257
O14	O	2.501607	-0.004622	0.232704
O15	O	2.472000	0.221065	0.251163
O16	O	2.475091	0.110464	0.348762
O17	O	2.498495	0.106744	0.134428
V18	V	2.744645	0.097883	0.231080
O19	O	2.630003	0.142501	0.276356
O20	O	2.841525	0.067237	0.199981
O21	O	2.662826	-0.011327	0.225174
O22	O	2.803520	0.214360	0.243633
O23	O	2.806633	0.102994	0.341908
O24	O	2.659735	0.099274	0.127575
C25	C	2.073274	-0.037935	0.227084
C26	C	2.046619	-0.127217	0.221571
C27	C	1.894496	-0.632775	0.186789
C28	C	1.919545	-0.548884	0.191981
C29	C	1.959588	-0.495257	0.265154
C30	C	1.974592	-0.525527	0.333139
C31	C	1.949551	-0.609417	0.327946
C32	C	2.036581	-0.241377	0.284363
C33	C	2.061620	-0.157482	0.289551
C34	C	2.006572	-0.180845	0.148392
C35	C	1.981527	-0.264735	0.143206
C36	C	1.996538	-0.294998	0.211191
C37	C	1.985189	-0.409506	0.270462
C38	C	1.970943	-0.380748	0.205881
C39	C	1.893223	0.247677	0.249251
C40	C	1.909497	0.336960	0.254769
C41	C	1.897165	0.106595	0.373747
C42	C	1.915946	0.106180	0.458413
C43	C	2.069332	0.103146	0.102586
C44	C	2.040171	0.103556	0.017919
C45	C	2.393223	0.247677	0.249251
C46	C	2.409497	0.336960	0.254769
C47	C	2.047410	0.177328	0.994087
C48	C	2.029742	0.177702	0.914531
C49	C	2.004841	0.104303	0.858807
C50	C	1.997599	0.030525	0.882643
C51	C	2.015260	0.030152	0.962198
C52	C	1.926372	0.032029	0.561806
C53	C	1.908714	0.032408	0.482246
C54	C	1.940853	0.179579	0.514139
C55	C	1.958515	0.179206	0.593694
C56	C	1.951266	0.105428	0.617522
C57	C	1.970422	0.105023	0.703787
C58	C	1.985692	0.104707	0.772544
C59	C	2.507902	0.382995	0.261451
C60	C	2.523211	0.466889	0.266648
C61	C	2.440112	0.504744	0.265158
C62	C	2.341700	0.458703	0.258479
C63	C	2.326394	0.374812	0.253287
C64	C	2.397165	0.106595	0.373747
C65	C	2.415946	0.106180	0.458413
C66	C	2.573274	-0.037935	0.227084
C67	C	2.546619	-0.127217	0.221571
C68	C	2.569332	0.103146	0.102586
C69	C	2.540171	0.103556	0.017919
C70	C	2.515528	0.110002	0.502334
C71	C	2.533186	0.109603	0.581885
C72	C	2.451262	0.105387	0.617515
C73	C	2.351671	0.101562	0.573588
C74	C	2.334013	0.101956	0.494037
C75	C	2.620707	-0.173252	0.214891
C76	C	2.595670	-0.257144	0.209698
C77	C	2.496546	-0.295000	0.211189
C78	C	2.422451	-0.248959	0.217867
C79	C	2.447487	-0.165069	0.223055
C80	C	2.439864	0.107763	-0.017693
C81	C	2.412448	0.108138	-0.097248
C82	C	2.485340	0.104313	-0.141189
C83	C	2.585654	0.100104	-0.105573
C84	C	2.613068	0.099722	-0.026020
H85	H	1.861883	-0.676433	0.127205
N86	N	2.597547	0.342185	0.263068
H87	H	2.607345	0.315507	0.309094
H88	H	2.583100	0.299657	0.213072
H89	H	2.330763	0.111566	-0.126235
H90	H	2.252922	0.098846	0.458283
H91	H	1.946749	0.239652	0.494729
H92	H	2.017795	-0.365834	0.330040
H93	H	2.476174	-0.363309	0.206964
H94	H	1.948927	-0.308394	0.083621
N95	N	1.970707	-0.048644	0.822543
H96	H	1.960611	-0.037216	0.768528
H97	H	2.028482	-0.078127	0.832297
H98	H	1.938344	-0.424414	0.146304
H99	H	2.701425	-0.142441	0.213677
H100	H	2.465654	0.105067	0.682291
H101	H	2.274046	0.489538	0.257267
N102	N	2.367568	-0.115427	0.230270
H103	H	2.392813	-0.072496	0.280602
H104	H	2.355391	-0.088434	0.184575
H105	H	2.048793	-0.266005	0.339722
N106	N	2.455765	0.104722	-0.226993
H107	H	2.381158	0.107968	-0.242878
H108	H	2.500764	0.153279	-0.236886
H109	H	2.380498	0.110877	0.018075
H110	H	1.994355	-0.156195	0.093043
N111	N	2.640609	0.113738	0.629246
H112	H	2.662910	0.163795	0.673291
H113	H	2.640994	0.063677	0.651528
N114	N	2.220252	0.325164	0.246080
H115	H	2.169940	0.361881	0.245924
H116	H	2.197840	0.282238	0.195750
H117	H	2.656015	-0.294619	0.204262
N118	N	2.263315	0.097016	0.612023
H119	H	2.289624	0.097351	0.669082
H120	H	2.231532	0.145376	0.607163
H121	H	2.341743	-0.279794	0.219080
H122	H	2.644996	0.096987	-0.141362
N123	N	2.603898	0.114551	0.463914
H124	H	2.669656	0.116907	0.503817
H125	H	2.589596	0.064845	0.420236
H126	H	2.694749	0.096301	0.002969
H127	H	1.907330	-0.524248	0.136624
H128	H	2.007205	-0.481857	0.392717
N129	N	2.104807	-0.099638	0.368476
H130	H	2.110518	-0.131538	0.410757
H131	H	2.175291	-0.067103	0.370926
H132	H	1.961779	-0.634057	0.383302
H133	H	2.035640	0.237775	0.895132
N134	N	2.074277	0.256495	1.054187
H135	H	2.076180	0.303286	1.027015
H136	H	2.020588	0.256815	1.085071
H137	H	2.603349	0.504364	0.272085
N138	N	1.985383	0.258371	0.653796
H139	H	1.987288	0.305164	0.626627
H140	H	1.931693	0.258689	0.684679
H141	H	1.920456	-0.028046	0.581196
N142	N	1.881856	-0.046761	0.422141
H143	H	1.879941	-0.093557	0.449307
H144	H	1.812111	-0.052539	0.385616
H145	H	2.009372	-0.029921	0.981599
N146	N	2.456628	0.595227	0.270758
H147	H	2.531580	0.618639	0.275214
H148	H	2.412525	0.605818	0.222399
