data_functionalizedCrystal
_audit_creation_method	'MofGen! by Chris Wilmer'
_symmetry_space_group_name_H-M	'P1'
_symmetry_Int_Tables_number	1
_symmetry_cell_setting	triclinic
loop_
_symmetry_equiv_pos_as_xyz
  x,y,z
_cell_length_a	17.699077
_cell_length_b	9.065218
_cell_length_c	7.540329
_cell_angle_alpha	90.001757
_cell_angle_beta	89.997601
_cell_angle_gamma	95.851769
loop_
_atom_site_label
_atom_site_type_symbol
_atom_site_fract_x
_atom_site_fract_y
_atom_site_fract_z
O1	O	1.005532	-0.186513	-0.147452
O2	O	1.505532	0.313487	0.352548
O3	O	0.785342	-0.210794	-0.147460
O4	O	1.285342	0.289206	0.352540
O5	O	0.899988	0.016124	-0.147452
O6	O	1.399988	0.516124	0.352548
O7	O	0.890886	-0.413431	-0.147459
O8	O	1.390886	0.086569	0.352541
O9	O	0.899981	0.016126	0.147513
O10	O	1.399981	0.516126	0.647513
O11	O	0.785335	-0.210792	0.147505
O12	O	1.285335	0.289208	0.647505
O13	O	1.005525	-0.186510	0.147513
O14	O	1.505525	0.313490	0.647513
Cu15	Cu	0.895429	-0.198651	0.174442
Cu16	Cu	1.395429	0.301349	0.674442
Cu17	Cu	0.895437	-0.198654	-0.174388
Cu18	Cu	1.395437	0.301346	0.325612
O19	O	0.890879	-0.413428	0.147506
O20	O	1.390879	0.086572	0.647506
C21	C	0.757135	-0.209924	0.000022
C22	C	1.257135	0.290076	0.500022
C23	C	0.673096	-0.207319	0.000019
C24	C	1.173096	0.292681	0.500019
C25	C	0.633615	-0.206089	0.160806
C26	C	1.133615	0.293911	0.660806
C27	C	0.554653	-0.203618	0.160808
C28	C	1.054653	0.296382	0.660808
C29	C	0.515173	-0.202386	0.000021
C30	C	1.015173	0.297614	0.500021
C31	C	0.554660	-0.203611	-0.160779
C32	C	1.054660	0.296389	0.339221
C33	C	0.633621	-0.206072	-0.160779
C34	C	1.133621	0.293928	0.339221
C35	C	0.236219	-0.193683	-0.160782
C36	C	0.736219	0.306317	0.339218
C37	C	0.157252	-0.191226	-0.160770
C38	C	0.657252	0.308774	0.339230
C39	C	0.157252	-0.191229	0.160805
C40	C	0.657252	0.308771	0.660805
C41	C	0.236213	-0.193690	0.160805
C42	C	0.736213	0.306310	0.660805
C43	C	0.275693	-0.194907	0.000006
C44	C	0.775693	0.305093	0.500006
C45	C	0.361312	-0.197584	0.000006
C46	C	0.861312	0.302416	0.500006
C47	C	0.429554	-0.199719	0.000019
C48	C	0.929554	0.300281	0.500019
C49	C	0.899110	0.071086	0.000028
C50	C	1.399110	0.571086	0.500028
C51	C	0.896494	0.234851	0.000019
C52	C	1.396494	0.734851	0.500019
C53	C	1.033732	-0.187380	0.000028
C54	C	1.533732	0.312620	0.500028
C55	C	1.117771	-0.189986	0.000019
C56	C	1.617771	0.310014	0.500019
C57	C	0.891757	-0.468390	0.000022
C58	C	1.391757	0.031610	0.500022
C59	C	0.894373	-0.632156	0.000019
C60	C	1.394373	-0.132156	0.500019
N61	N	0.895429	-0.198648	0.419790
N62	N	1.395429	0.301352	0.919790
N63	N	0.895444	-0.198645	-0.419737
N64	N	1.395444	0.301355	0.080263
H65	H	0.125110	-0.190221	-0.291710
H66	H	0.625110	0.309779	0.208290
H67	H	0.665754	-0.207105	0.291738
H68	H	1.165754	0.292895	0.791738
H69	H	0.522513	-0.202592	0.291737
H70	H	1.022513	0.297408	0.791737
H71	H	0.522509	-0.202597	-0.291695
H72	H	1.022509	0.297403	0.208305
C73	C	0.279638	-0.195036	0.337670
C74	C	0.779638	0.304964	0.837670
H75	H	0.244816	-0.193935	0.433432
H76	H	0.744816	0.306065	0.933432
H77	H	0.305258	-0.281988	0.344360
H78	H	0.805258	0.218012	0.844360
H79	H	0.315623	-0.109985	0.344343
H80	H	0.815623	0.390015	0.844343
H81	H	0.125098	-0.190231	0.291735
H82	H	0.625098	0.309769	0.791735
H83	H	0.665765	-0.207076	-0.291709
H84	H	1.165765	0.292924	0.208291
H85	H	0.268354	-0.194669	-0.291715
H86	H	0.768354	0.305331	0.208285
