data_functionalizedCrystal
_audit_creation_method	'MofGen! by Chris Wilmer'
_symmetry_space_group_name_H-M	'P1'
_symmetry_Int_Tables_number	1
_symmetry_cell_setting	triclinic
loop_
_symmetry_equiv_pos_as_xyz
  x,y,z
_cell_length_a	19.288859
_cell_length_b	11.792241
_cell_length_c	17.766277
_cell_angle_alpha	89.993523
_cell_angle_beta	89.989768
_cell_angle_gamma	83.663571
loop_
_atom_site_label
_atom_site_type_symbol
_atom_site_fract_x
_atom_site_fract_y
_atom_site_fract_z
O1	O	0.922160	0.141549	-0.062609
O2	O	1.422160	0.641549	0.437391
O3	O	0.720007	0.160655	-0.062608
O4	O	1.220007	0.660655	0.437392
O5	O	0.825989	-0.014143	-0.062603
O6	O	1.325989	0.485857	0.437397
O7	O	0.816178	0.316347	-0.062614
O8	O	1.316178	0.816347	0.437386
O9	O	0.825970	-0.014152	0.062585
O10	O	1.325970	0.485848	0.562585
O11	O	0.719988	0.160647	0.062581
O12	O	1.219988	0.660647	0.562581
O13	O	0.922141	0.141540	0.062579
O14	O	1.422141	0.641540	0.562579
Cu15	Cu	0.821063	0.151093	0.074011
Cu16	Cu	1.321063	0.651093	0.574011
Cu17	Cu	0.821085	0.151103	-0.074039
Cu18	Cu	1.321085	0.651103	0.425961
O19	O	0.816159	0.316338	0.062575
O20	O	1.316159	0.816338	0.562575
C21	C	0.694118	0.160037	-0.000013
C22	C	1.194118	0.660037	0.499987
C23	C	0.617003	0.158195	-0.000012
C24	C	1.117003	0.658195	0.499988
C25	C	0.053475	0.248298	-0.000016
C26	C	0.553475	0.748298	0.499984
C27	C	0.125931	0.250039	-0.000020
C28	C	0.625931	0.750039	0.499980
C29	C	0.170055	0.147475	-0.000016
C30	C	0.670055	0.647475	0.499984
C31	C	0.141718	0.043163	-0.000026
C32	C	0.641718	0.543163	0.499974
C33	C	0.069262	0.041426	-0.000030
C34	C	0.569262	0.541426	0.499970
C35	C	0.290884	0.070981	0.043849
C36	C	0.790884	0.570981	0.543849
C37	C	0.363338	0.072723	0.043857
C38	C	0.863338	0.572723	0.543857
C39	C	0.393531	0.152831	-0.000008
C40	C	0.893531	0.652831	0.499992
C41	C	0.351261	0.231216	-0.043872
C42	C	0.851261	0.731216	0.456128
C43	C	0.278806	0.229478	-0.043875
C44	C	0.778806	0.729478	0.456125
C45	C	0.248621	0.149348	-0.000012
C46	C	0.748621	0.649348	0.499988
C47	C	0.500426	0.259024	-0.000007
C48	C	1.000426	0.759024	0.499993
C49	C	0.572884	0.260760	-0.000016
C50	C	1.072884	0.760760	0.499984
C51	C	0.588670	0.053881	-0.000014
C52	C	1.088670	0.553881	0.499986
C53	C	0.516213	0.052148	-0.000013
C54	C	1.016213	0.552148	0.499987
C55	C	0.472095	0.154722	-0.000006
C56	C	0.972095	0.654722	0.499994
C57	C	0.825363	-0.056429	-0.000009
C58	C	1.325363	0.443571	0.499991
C59	C	0.823519	-0.182415	-0.000010
C60	C	1.323519	0.317585	0.499990
C61	C	0.820127	-0.413075	-0.000022
C62	C	1.320127	0.086925	0.499978
C63	C	0.822011	-0.284719	-0.000016
C64	C	1.322011	0.215281	0.499984
C65	C	0.948030	0.142158	-0.000017
C66	C	1.448030	0.642158	0.499983
C67	C	1.025145	0.144000	-0.000023
C68	C	1.525145	0.644000	0.499977
C69	C	0.816785	0.358624	-0.000021
C70	C	1.316785	0.858624	0.499979
C71	C	0.818629	0.484610	-0.000025
C72	C	1.318629	0.984610	0.499975
N73	N	0.821052	0.151084	0.178141
N74	N	1.321052	0.651084	0.678141
N75	N	0.821101	0.151102	-0.178170
N76	N	1.321101	0.651102	0.321830
C77	C	0.867997	0.073722	0.217530
C78	C	1.367997	0.573722	0.717530
C79	C	0.868001	0.073716	0.296332
C80	C	1.368001	0.573716	0.796332
C81	C	0.821067	0.151093	0.335742
C82	C	1.321067	0.651093	0.835742
C83	C	0.774114	0.228462	0.296343
C84	C	1.274114	0.728462	0.796343
C85	C	0.774107	0.228458	0.217543
C86	C	1.274107	0.728458	0.717543
C87	C	0.812356	0.254505	0.460576
C88	C	1.312356	0.754505	0.960576
C89	C	0.812368	0.254511	0.539375
C90	C	1.312368	0.754511	1.039375
C91	C	0.821086	0.151107	0.578788
C92	C	1.321086	0.651107	1.078788
C93	C	0.829806	0.047693	0.539392
C94	C	1.329806	0.547693	1.039392
C95	C	0.829799	0.047689	0.460592
C96	C	1.329799	0.547689	0.960592
C97	C	0.821070	0.151106	0.421187
C98	C	1.321070	0.651106	0.921187
C99	C	0.868037	0.073732	0.703623
C100	C	1.368037	0.573732	1.203623
C101	C	0.868036	0.073725	0.782426
C102	C	1.368036	0.573725	1.282426
C103	C	0.774153	0.228481	0.782436
C104	C	1.274153	0.728481	1.282436
C105	C	0.774150	0.228478	0.703634
C106	C	1.274150	0.728478	1.203634
C107	C	0.821096	0.151105	0.664232
C108	C	1.321096	0.651105	1.164232
H109	H	0.046198	-0.043509	-0.000035
H110	H	0.546198	0.456491	0.499965
H111	H	0.906221	0.010717	0.185451
H112	H	1.406221	0.510717	0.685451
Cl113	Cl	0.840772	-0.082309	0.588930
Cl114	Cl	1.340772	0.417691	1.088930
H115	H	0.906261	0.010726	0.671540
H116	H	1.406261	0.510726	1.171540
Cl117	Cl	0.480596	-0.078978	-0.000024
Cl118	Cl	0.980596	0.421022	0.499976
H119	H	0.906262	0.010721	0.814497
H120	H	1.406262	0.510721	1.314497
H121	H	0.244392	0.293300	-0.079591
H122	H	0.744392	0.793300	0.420409
H123	H	0.805272	0.338716	0.571445
H124	H	1.305272	0.838716	1.071445
H125	H	0.017558	0.331823	-0.000014
H126	H	0.517558	0.831823	0.499986
Cl127	Cl	0.161555	0.381167	-0.000010
Cl128	Cl	0.661555	0.881167	0.499990
H129	H	0.266308	0.005741	0.079570
H130	H	0.766308	0.505741	0.579570
H131	H	0.177648	-0.040345	-0.000025
H132	H	0.677648	0.459655	0.499975
Cl133	Cl	0.715145	0.325747	0.831974
Cl134	Cl	1.215145	0.825747	1.331974
H135	H	0.735926	0.291479	0.671562
H136	H	1.235926	0.791479	1.171562
H137	H	0.375842	0.296450	-0.079589
H138	H	0.875842	0.796450	0.420411
Cl139	Cl	0.801460	0.384514	0.411037
Cl140	Cl	1.301460	0.884514	0.911037
H141	H	0.735878	0.291457	0.185472
H142	H	1.235878	0.791457	0.685472
Cl143	Cl	0.444961	0.387971	-0.000001
Cl144	Cl	0.944961	0.887971	0.499999
H145	H	0.735899	0.291462	0.328435
H146	H	1.235899	0.791462	0.828435
Cl147	Cl	0.608499	0.391891	-0.000016
Cl148	Cl	1.108499	0.891891	0.499984
H149	H	0.836897	-0.036514	0.428519
H150	H	1.336897	0.463486	0.928519
H151	H	0.397749	0.008903	0.079577
H152	H	0.897749	0.508903	0.579577
Cl153	Cl	0.644133	-0.075058	-0.000020
Cl154	Cl	1.144133	0.424942	0.499980
Cl155	Cl	0.927022	-0.023548	0.345857
Cl156	Cl	1.427022	0.476452	0.845857
