data_functionalizedCrystal
_audit_creation_method	'MofGen! by Chris Wilmer'
_symmetry_space_group_name_H-M	'P1'
_symmetry_Int_Tables_number	1
_symmetry_cell_setting	triclinic
loop_
_symmetry_equiv_pos_as_xyz
  x,y,z
_cell_length_a	19.805407
_cell_length_b	19.120786
_cell_length_c	19.805399
_cell_angle_alpha	92.468930
_cell_angle_beta	90.019573
_cell_angle_gamma	92.465080
loop_
_atom_site_label
_atom_site_type_symbol
_atom_site_fract_x
_atom_site_fract_y
_atom_site_fract_z
Zn1	Zn	1.023244	-0.279646	0.371215
Zn2	Zn	1.523244	0.220354	0.871215
Zn3	Zn	1.018332	-0.397105	0.253195
Zn4	Zn	1.518332	0.102895	0.753195
Zn5	Zn	0.910058	-0.279666	0.258039
Zn6	Zn	1.410058	0.220334	0.758039
Zn7	Zn	0.905197	-0.397068	0.366343
Zn8	Zn	1.405197	0.102932	0.866343
O9	O	0.964208	-0.338371	0.312198
O10	O	1.464208	0.161629	0.812198
O11	O	1.117309	-0.295235	0.355571
O12	O	1.617309	0.204765	0.855571
O13	O	1.003948	-0.381550	0.159120
O14	O	1.503948	0.118450	0.659120
O15	O	0.929162	-0.181373	0.277118
O16	O	1.429162	0.318627	0.777118
O17	O	1.113700	-0.381532	0.268862
O18	O	1.613700	0.118468	0.768862
O19	O	1.012320	-0.181359	0.360269
O20	O	1.512320	0.318641	0.860269
O21	O	0.924399	-0.295268	0.162679
O22	O	1.424399	0.204732	0.662679
O23	O	0.814697	-0.295232	0.272394
O24	O	1.314697	0.204768	0.772394
O25	O	0.920877	-0.381468	0.461707
O26	O	1.420877	0.118532	0.961707
O27	O	0.811125	-0.381487	0.351965
O28	O	1.311125	0.118513	0.851965
O29	O	1.007606	-0.295199	0.465287
O30	O	1.507606	0.204801	0.965287
O31	O	0.999234	-0.495390	0.264138
O32	O	1.499234	0.004610	0.764138
O33	O	0.916114	-0.495363	0.347268
O34	O	1.416114	0.004637	0.847268
C35	C	0.788352	-0.338358	0.312177
C36	C	1.288352	0.161642	0.812177
C37	C	0.713120	-0.338369	0.312183
C38	C	1.213120	0.161631	0.812183
C39	C	0.956632	-0.520862	0.304663
C40	C	1.456632	-0.020862	0.804663
C41	C	0.953453	-0.598933	0.301462
C42	C	1.453453	-0.098933	0.801462
C43	C	0.675931	-0.383350	0.353543
C44	C	1.175931	0.116650	0.853543
C45	C	0.605242	-0.383351	0.353552
C46	C	1.105242	0.116649	0.853552
C47	C	0.571744	-0.338374	0.312198
C48	C	1.071744	0.161626	0.812198
C49	C	0.608938	-0.293389	0.270837
C50	C	1.108938	0.206611	0.770837
C51	C	0.679625	-0.293385	0.270831
C52	C	1.179625	0.206615	0.770831
C53	C	0.323864	-0.293404	0.270859
C54	C	0.823864	0.206596	0.770859
C55	C	0.253172	-0.293414	0.270866
C56	C	0.753172	0.206586	0.770866
C57	C	0.249481	-0.383371	0.353579
C58	C	0.749481	0.116629	0.853579
C59	C	0.320169	-0.383366	0.353574
C60	C	0.820169	0.116634	0.853574
C61	C	0.357356	-0.338378	0.312216
C62	C	0.857356	0.161622	0.812216
C63	C	0.434005	-0.338377	0.312207
C64	C	0.934005	0.161623	0.812207
C65	C	0.495097	-0.338379	0.312203
C66	C	0.995097	0.161621	0.812203
C67	C	0.995223	-0.635543	0.343286
C68	C	1.495223	-0.135543	0.843286
C69	C	0.992234	-0.708898	0.340279
C70	C	1.492234	-0.208898	0.840279
C71	C	0.947477	-0.745642	0.295446
C72	C	1.447477	-0.245642	0.795446
C73	C	0.905703	-0.709027	0.253621
C74	C	1.405703	-0.209027	0.753621
C75	C	0.908689	-0.635673	0.256631
C76	C	1.408689	-0.135673	0.756631
C77	C	0.936292	-0.967128	0.284192
C78	C	1.436292	-0.467128	0.784192
C79	C	0.933310	-1.040487	0.281184
C80	C	1.433310	-0.540487	0.781184
C81	C	1.019840	-1.040353	0.367844
C82	C	1.519840	-0.540353	0.867844
C83	C	1.022826	-0.966997	0.370847
C84	C	1.522826	-0.466997	0.870847
C85	C	0.981049	-0.930389	0.329025
C86	C	1.481049	-0.430389	0.829025
C87	C	0.944422	-0.820624	0.292370
C88	C	1.444422	-0.320624	0.792370
C89	C	0.984101	-0.855409	0.332104
C90	C	1.484101	-0.355409	0.832104
C91	C	1.140750	-0.338385	0.312220
C92	C	1.640750	0.161615	0.812220
C93	C	1.215982	-0.338391	0.312229
C94	C	1.715982	0.161609	0.812229
C95	C	0.964247	-0.338327	0.488743
C96	C	1.464247	0.161673	0.988743
C97	C	0.964264	-0.338308	0.563976
C98	C	1.464264	0.161692	1.063976
C99	C	0.971831	-0.155168	0.319777
C100	C	1.471831	0.344832	0.819777
C101	C	0.975080	-0.077097	0.323007
C102	C	1.475080	0.422903	0.823007
C103	C	0.964209	-0.338365	0.136342
C104	C	1.464209	0.161635	0.636342
C105	C	0.964331	-0.338186	0.061118
C106	C	1.464331	0.161814	0.561118
C107	C	1.009425	-0.293386	0.601185
C108	C	1.509425	0.206614	1.101185
C109	C	1.009433	-0.293365	0.671874
C110	C	1.509433	0.206635	1.171874
C111	C	0.964283	-0.338271	0.705353
C112	C	1.464283	0.161729	1.205353
C113	C	0.919117	-0.383196	0.668139
C114	C	1.419117	0.116804	1.168139
C115	C	0.919107	-0.383212	0.597451
C116	C	1.419107	0.116788	1.097451
C117	C	0.919158	-0.383131	0.953215
C118	C	1.419158	0.116869	1.453215
C119	C	0.919173	-0.383112	1.023908
C120	C	1.419173	0.116888	1.523908
C121	C	1.009484	-0.293283	1.027638
C122	C	1.509484	0.206717	1.527638
C123	C	1.009474	-0.293300	0.956950
C124	C	1.509474	0.206700	1.456950
C125	C	0.964306	-0.338221	0.919742
C126	C	1.464306	0.161779	1.419742
C127	C	0.964297	-0.338242	0.843093
C128	C	1.464297	0.161758	1.343093
C129	C	0.964294	-0.338255	0.782001
C130	C	1.464294	0.161745	1.282001
H131	H	0.574966	-0.419979	0.387231
H132	H	1.074966	0.080021	0.887231
H133	H	0.882326	-0.419786	0.567156
H134	H	1.382326	0.080214	1.067156
H135	H	1.046194	-0.256820	0.573932
H136	H	1.546194	0.243180	1.073932
O137	O	0.889734	-1.076153	0.237707
O138	O	1.389734	-0.576153	0.737707
C139	C	0.773705	-1.098708	0.203799
C140	C	1.273705	-0.598708	0.703799
C141	C	0.822972	-1.058283	0.253087
C142	C	1.322972	-0.558283	0.753087
H143	H	0.719719	-1.084264	0.216207
H144	H	1.219719	-0.584264	0.716207
H145	H	0.778695	-1.157432	0.208835
H146	H	1.278695	-0.657432	0.708835
H147	H	0.786239	-1.084318	0.149826
H148	H	1.286239	-0.584318	0.649826
H149	H	0.810470	-1.072615	0.307081
H150	H	1.310470	-0.572615	0.807081
H151	H	0.817973	-0.999569	0.247992
H152	H	1.317973	-0.499569	0.747992
H153	H	0.581658	-0.256765	0.237169
H154	H	1.081658	0.243235	0.737169
H155	H	0.347439	-0.419993	0.387246
H156	H	0.847439	0.080007	0.887246
H157	H	1.059270	-0.937082	0.407354
H158	H	1.559270	-0.437082	0.907354
O159	O	1.053369	-0.249708	0.707915
O160	O	1.553369	0.250292	1.207915
C161	C	1.142926	-0.160585	0.704157
C162	C	1.642926	0.339415	1.204157
C163	C	1.093213	-0.210005	0.663258
C164	C	1.593213	0.289995	1.163258
H165	H	1.175143	-0.128463	0.668069
H166	H	1.675143	0.371537	1.168069
H167	H	1.177025	-0.192796	0.735907
H168	H	1.677025	0.307204	1.235907
H169	H	1.113376	-0.123874	0.738781
H170	H	1.613376	0.376126	1.238781
H171	H	1.122709	-0.246726	0.628597
H172	H	1.622709	0.253274	1.128597
H173	H	1.059115	-0.177751	0.631552
H174	H	1.559115	0.322249	1.131552
O175	O	0.213254	-0.427002	0.393743
O176	O	0.713254	0.072998	0.893743
C177	C	0.102721	-0.466911	0.430386
C178	C	0.602721	0.033089	0.930386
C179	C	0.143662	-0.417452	0.384885
C180	C	0.643662	0.082548	0.884885
H181	H	0.046448	-0.459218	0.423230
H182	H	0.546448	0.040782	0.923230
H183	H	0.117103	-0.454652	0.485503
H184	H	0.617103	0.045348	0.985503
H185	H	0.114306	-0.523522	0.416076
H186	H	0.614306	-0.023522	0.916076
H187	H	0.132098	-0.360824	0.399134
H188	H	0.632098	0.139176	0.899134
H189	H	0.129274	-0.429772	0.329780
H190	H	0.629274	0.070228	0.829780
O191	O	1.032889	-0.744352	0.380921
O192	O	1.532889	-0.244352	0.880921
C193	C	1.119027	-0.736478	0.467196
C194	C	1.619027	-0.236478	0.967196
C195	C	1.073027	-0.696240	0.421199
C196	C	1.573027	-0.196240	0.921199
H197	H	1.151481	-0.697596	0.499782
H198	H	1.651481	-0.197596	0.999782
H199	H	1.153079	-0.770783	0.434765
H200	H	1.653079	-0.270783	0.934765
H201	H	1.086535	-0.770851	0.501127
H202	H	1.586535	-0.270851	1.001127
H203	H	1.105466	-0.661829	0.387260
H204	H	1.605466	-0.161829	0.887260
H205	H	1.038972	-0.661979	0.453670
H206	H	1.538972	-0.161979	0.953670
O207	O	1.053421	-0.249616	1.063680
O208	O	1.553421	0.250384	1.563680
C209	C	1.142973	-0.160489	1.059918
C210	C	1.642973	0.339511	1.559918
C211	C	1.093262	-0.209913	1.019021
C212	C	1.593262	0.290087	1.519021
H213	H	1.175187	-0.128365	1.023829
H214	H	1.675187	0.371635	1.523829
H215	H	1.177073	-0.192696	1.091669
H216	H	1.677073	0.307304	1.591669
H217	H	1.113420	-0.123778	1.094541
H218	H	1.613420	0.376222	1.594541
H219	H	1.122760	-0.246633	0.984361
H220	H	1.622760	0.253367	1.484361
H221	H	1.059161	-0.177662	0.987314
H222	H	1.559161	0.322338	1.487314
O223	O	0.708547	-0.426942	0.393753
O224	O	1.208547	0.073058	0.893753
C225	C	0.787963	-0.436507	0.484749
C226	C	1.287963	0.063493	0.984749
C227	C	0.751086	-0.387061	0.439243
C228	C	1.251086	0.112939	0.939243
H229	H	0.822354	-0.404282	0.521548
H230	H	1.322354	0.095718	1.021548
H231	H	0.819569	-0.473180	0.452138
H232	H	1.319569	0.026820	0.952138
H233	H	0.749225	-0.468670	0.514280
H234	H	1.249225	0.031330	1.014280
H235	H	0.789778	-0.354852	0.409703
H236	H	1.289778	0.145148	0.909703
H237	H	0.719468	-0.350434	0.471890
H238	H	1.219468	0.149566	0.971890
H239	H	0.225899	-0.256784	0.237190
H240	H	0.725899	0.243216	0.737190
H241	H	1.020540	-0.825490	0.368610
H242	H	1.520540	-0.325490	0.868610
O243	O	1.053235	-0.249633	0.924362
O244	O	1.553235	0.250367	1.424362
C245	C	1.066251	-0.154777	0.848529
C246	C	1.566251	0.345223	1.348529
C247	C	1.016623	-0.204206	0.885376
C248	C	1.516623	0.295794	1.385376
H249	H	1.036670	-0.118027	0.817011
H250	H	1.536670	0.381973	1.317011
H251	H	1.100294	-0.186982	0.814057
H252	H	1.600294	0.313018	1.314057
H253	H	1.098538	-0.122697	0.887284
H254	H	1.598538	0.377303	1.387284
H255	H	0.984292	-0.236297	0.846670
H256	H	1.484292	0.263703	1.346670
H257	H	0.982626	-0.171960	0.919860
H258	H	1.482626	0.328040	1.419860
H259	H	0.354134	-0.256778	0.237177
H260	H	0.854134	0.243222	0.737177
H261	H	1.053852	-1.070167	0.401894
H262	H	1.553852	-0.570167	0.901894
H263	H	0.902277	-0.937327	0.250138
H264	H	1.402277	-0.437327	0.750138
O265	O	0.868142	-0.600000	0.216071
O266	O	1.368142	-0.100000	0.716071
C267	C	0.834421	-0.487051	0.182275
C268	C	1.334421	0.012949	0.682275
C269	C	0.880371	-0.527362	0.228257
C270	C	1.380371	-0.027362	0.728257
H271	H	0.844302	-0.428317	0.192101
H272	H	1.344302	0.071683	0.692101
H273	H	0.779235	-0.501463	0.193520
H274	H	1.279235	-0.001463	0.693520
H275	H	0.845741	-0.501537	0.127121
H276	H	1.345741	-0.001537	0.627121
H277	H	0.869111	-0.512898	0.283426
H278	H	1.369111	-0.012898	0.783426
H279	H	0.935543	-0.512946	0.216953
H280	H	1.435543	-0.012946	0.716953
O281	O	0.715721	-0.249770	0.230551
O282	O	1.215721	0.250230	0.730551
C283	C	0.738696	-0.215492	0.116887
C284	C	1.238696	0.284508	0.616887
C285	C	0.697786	-0.264943	0.162423
C286	C	1.197786	0.235057	0.662423
H287	H	0.724200	-0.227732	0.061798
H288	H	1.224200	0.272268	0.561798
H289	H	0.794979	-0.223217	0.123929
H290	H	1.294979	0.276783	0.623929
H291	H	0.727160	-0.158876	0.131235
H292	H	1.227160	0.341124	0.631235
H293	H	0.709264	-0.321577	0.148105
H294	H	1.209264	0.178423	0.648105
H295	H	0.641515	-0.257156	0.155375
H296	H	1.141515	0.242844	0.655375
H297	H	0.882389	-0.419719	0.922928
H298	H	1.382389	0.080281	1.422928
O299	O	0.862286	-0.744827	0.210086
O300	O	1.362286	-0.244827	0.710086
C301	C	0.819311	-0.857890	0.167066
C302	C	1.319311	-0.357890	0.667066
C303	C	0.868521	-0.817437	0.216391
C304	C	1.368521	-0.317437	0.716391
H305	H	0.824325	-0.916602	0.172157
H306	H	1.324325	-0.416602	0.672157
H307	H	0.831815	-0.843540	0.113074
H308	H	1.331815	-0.343540	0.613074
H309	H	0.765320	-0.843468	0.179484
H310	H	1.265320	-0.343468	0.679484
H311	H	0.922528	-0.831837	0.204035
H312	H	1.422528	-0.331837	0.704035
H313	H	0.855958	-0.831790	0.270369
H314	H	1.355958	-0.331790	0.770369
H315	H	1.031672	-0.605630	0.379791
H316	H	1.531672	-0.105630	0.879791
H317	H	0.882353	-0.419757	0.695403
H318	H	1.382353	0.080243	1.195403
O319	O	0.900916	-0.856397	0.248906
O320	O	1.400916	-0.356397	0.748906
C321	C	0.806147	-0.939282	0.236313
C322	C	1.306147	-0.439282	0.736313
C323	C	0.855382	-0.898821	0.285609
C324	C	1.355382	-0.398821	0.785609
H325	H	0.769311	-0.973581	0.265969
H326	H	1.269311	-0.473581	0.765969
H327	H	0.835814	-0.973667	0.199558
H328	H	1.335814	-0.473667	0.699558
H329	H	0.776836	-0.900508	0.206915
H330	H	1.276836	-0.400508	0.706915
H331	H	0.884704	-0.937545	0.315053
H332	H	1.384704	-0.437545	0.815053
H333	H	0.825676	-0.864427	0.322320
H334	H	1.325676	-0.364427	0.822320
O335	O	0.875244	-0.426756	1.056324
O336	O	1.375244	0.073244	1.556324
C337	C	0.785683	-0.515881	1.045168
C338	C	1.285683	-0.015881	1.545168
C339	C	0.835382	-0.466483	1.008371
C340	C	1.335382	0.033517	1.508371
H341	H	0.753451	-0.548024	1.006413
H342	H	1.253451	-0.048024	1.506413
H343	H	0.751598	-0.483652	1.079572
H344	H	1.251598	0.016348	1.579572
H345	H	0.815246	-0.552575	1.076766
H346	H	1.315246	-0.052575	1.576766
H347	H	0.805873	-0.429779	0.976736
H348	H	1.305873	0.070221	1.476736
H349	H	0.869467	-0.498756	0.974007
H350	H	1.369467	0.001244	1.474007
