data_functionalizedCrystal
_audit_creation_method	'MofGen! by Chris Wilmer'
_symmetry_space_group_name_H-M	'P1'
_symmetry_Int_Tables_number	1
_symmetry_cell_setting	triclinic
loop_
_symmetry_equiv_pos_as_xyz
  x,y,z
_cell_length_a	23.532407
_cell_length_b	23.532407
_cell_length_c	17.766277
_cell_angle_alpha	89.996096
_cell_angle_beta	89.993822
_cell_angle_gamma	82.848712
loop_
_atom_site_label
_atom_site_type_symbol
_atom_site_fract_x
_atom_site_fract_y
_atom_site_fract_z
O1	O	0.069132	0.755262	-0.062554
O2	O	0.079135	0.589398	-0.062567
O3	O	-0.008798	0.677331	-0.062547
O4	O	0.157066	0.667328	-0.062575
O5	O	-0.008795	0.677320	0.062642
O6	O	0.079139	0.589386	0.062621
O7	O	0.069135	0.755250	0.062634
Cu8	Cu	0.074137	0.672317	0.074058
Cu9	Cu	0.074134	0.672331	-0.073991
O10	O	0.157069	0.667317	0.062614
C11	C	0.078882	0.568176	0.000026
C12	C	0.078116	0.504959	0.000021
C13	C	0.022921	0.238792	0.000051
C14	C	0.023632	0.298192	0.000051
O15	O	-0.020153	0.334937	0.000084
N16	N	0.075909	0.320818	0.000037
C17	C	0.127477	0.284041	0.000031
O18	O	0.172007	0.308740	0.000019
C19	C	0.126765	0.224642	0.000036
C20	C	0.074485	0.202019	0.000043
C21	C	-0.029354	0.216168	0.000058
C22	C	-0.030066	0.156772	0.000057
C23	C	0.021499	0.119999	0.000049
C24	C	0.073774	0.142623	0.000042
C25	C	0.178333	0.187865	0.000036
C26	C	0.177616	0.128463	0.000042
C27	C	0.125336	0.105840	0.000048
C28	C	0.124627	0.046454	0.000032
N29	N	0.072351	0.023828	0.000046
C30	C	0.020787	0.060600	0.000055
C31	C	0.128968	0.408783	0.000020
C32	C	0.129681	0.468181	0.000009
C33	C	0.025836	0.482328	0.000030
C34	C	0.025124	0.422929	0.000036
C35	C	0.076692	0.386157	0.000034
C36	C	0.019297	-0.064136	0.000052
C37	C	0.018590	-0.123538	0.000048
C38	C	0.122435	-0.137680	0.000030
C39	C	0.123142	-0.078284	0.000030
C40	C	0.071568	-0.041512	0.000044
O41	O	0.168390	0.009675	0.000002
O42	O	-0.023737	0.035892	0.000076
C43	C	-0.030012	0.677071	0.000050
C44	C	-0.093229	0.676305	0.000055
C45	C	-0.492332	0.723538	0.000018
C46	C	-0.551733	0.722827	0.000012
O47	O	-0.588477	0.766613	-0.000012
N48	N	-0.574359	0.670551	0.000008
C49	C	-0.537581	0.618982	0.000003
O50	O	-0.562281	0.574452	-0.000001
C51	C	-0.478182	0.619695	0.000003
C52	C	-0.455559	0.671974	0.000015
C53	C	-0.469709	0.775814	0.000028
C54	C	-0.410313	0.776525	0.000035
C55	C	-0.373540	0.724961	0.000032
C56	C	-0.396163	0.672685	0.000022
C57	C	-0.441406	0.568127	-0.000007
C58	C	-0.382003	0.568843	-0.000008
C59	C	-0.359381	0.621123	0.000004
C60	C	-0.299994	0.621832	0.000026
N61	N	-0.277368	0.674109	0.000029
C62	C	-0.314141	0.725673	0.000032
C63	C	-0.662324	0.617491	0.000001
C64	C	-0.721722	0.616778	0.000006
C65	C	-0.735869	0.720623	0.000013
C66	C	-0.676470	0.721335	0.000014
C67	C	-0.639698	0.669767	0.000004
C68	C	-0.189404	0.727163	0.000048
C69	C	-0.130002	0.727869	0.000058
C70	C	-0.115860	0.624025	0.000047
C71	C	-0.175257	0.623318	0.000041
C72	C	-0.212028	0.674891	0.000039
O73	O	-0.263215	0.578069	0.000047
O74	O	-0.289433	0.770196	0.000027
C75	C	0.178283	0.667577	0.000016
C76	C	0.241500	0.668343	0.000005
C77	C	0.069389	0.776472	0.000040
C78	C	0.070155	0.839689	0.000039
N79	N	0.074140	0.672311	0.178189
N80	N	0.074127	0.672341	-0.178122
C81	C	0.108488	0.706685	0.782473
C82	C	0.108494	0.706679	0.703672
C83	C	0.074127	0.672336	0.664278
C84	C	0.039764	0.637985	0.703692
C85	C	0.039764	0.637988	0.782492
C86	C	0.022783	0.671051	0.539442
C87	C	0.022782	0.671052	0.460643
C88	C	0.074129	0.672326	0.421231
C89	C	0.125477	0.673609	0.460628
C90	C	0.125476	0.673612	0.539428
C91	C	0.074124	0.672330	0.578832
C92	C	0.108499	0.706665	0.296381
C93	C	0.108506	0.706656	0.217577
C94	C	0.039770	0.637965	0.217599
C95	C	0.039769	0.637971	0.296401
C96	C	0.074132	0.672325	0.335787
H97	H	-0.017447	0.404515	0.000042
H98	H	-0.019029	0.670011	0.428572
H99	H	-0.111587	0.770443	0.000070
F100	F	0.003190	0.601433	0.824431
F101	F	0.145064	0.743244	0.824386
F102	F	0.183858	0.369651	0.000010
H103	H	0.136477	0.734646	0.671582
H104	H	0.172252	0.486595	-0.000007
F105	F	-0.508838	0.830701	0.000031
F106	F	-0.199334	0.567676	0.000042
F107	F	-0.465469	0.512483	-0.000023
F108	F	0.180123	0.674975	0.581354
F109	F	0.178783	-0.054206	0.000013
H110	H	-0.740135	0.574207	0.000010
F111	F	0.003191	0.601433	0.661765
H112	H	-0.019031	0.670008	0.571525
F113	F	-0.652399	0.776978	0.000026
F114	F	-0.084241	0.255297	0.000069
F115	F	0.232503	0.089330	0.000043
H116	H	0.136482	0.734635	0.328450
H117	H	-0.391900	0.819097	0.000041
H118	H	0.167288	0.674646	0.428541
F119	F	0.003199	0.601410	0.175678
F120	F	-0.623192	0.562602	-0.000002
F121	F	-0.342870	0.513956	-0.000019
H122	H	-0.765821	0.762610	0.000013
F123	F	0.233977	0.211929	0.000029
H124	H	-0.219337	0.769159	0.000044
H125	H	0.011786	0.610007	0.328485
H126	H	-0.085909	0.582043	0.000047
F127	F	0.145090	0.743200	0.175640
H128	H	-0.023984	-0.141954	0.000051
H129	H	-0.072637	0.138359	0.000066
F130	F	-0.035594	-0.025010	0.000066
H131	H	-0.016150	0.512280	0.000037
H132	H	0.164417	-0.167631	0.000019
