data_functionalizedCrystal
_audit_creation_method	'MofGen! by Chris Wilmer'
_symmetry_space_group_name_H-M	'P1'
_symmetry_Int_Tables_number	1
_symmetry_cell_setting	triclinic
loop_
_symmetry_equiv_pos_as_xyz
  x,y,z
_cell_length_a	17.038272
_cell_length_b	15.944545
_cell_length_c	14.421503
_cell_angle_alpha	89.995153
_cell_angle_beta	89.989101
_cell_angle_gamma	92.696136
loop_
_atom_site_label
_atom_site_type_symbol
_atom_site_fract_x
_atom_site_fract_y
_atom_site_fract_z
O1	O	-0.100803	1.121730	-0.077039
O2	O	-0.113241	0.878067	-0.077052
O3	O	0.006794	0.998450	-0.077054
O4	O	-0.220838	1.001347	-0.077037
O5	O	0.006776	0.998430	0.077170
O6	O	-0.113258	0.878047	0.077171
O7	O	-0.100821	1.121710	0.077185
Cu8	Cu	-0.107041	0.999877	0.091260
Cu9	Cu	-0.107020	0.999900	-0.091127
O10	O	-0.220856	1.001327	0.077186
C11	C	-0.112734	0.846727	0.000058
C12	C	-0.111189	0.753370	0.000052
C13	C	-0.032168	0.477095	0.000056
C14	C	-0.070274	0.530387	0.076101
C15	C	-0.105678	0.417333	0.000067
C16	C	-0.070276	0.530389	-0.075951
C17	C	-0.108381	0.582439	0.000058
C18	C	-0.143764	0.469395	0.076175
C19	C	-0.143756	0.469392	-0.075945
C20	C	-0.181916	0.522655	0.000119
C21	C	-0.104118	0.322219	0.000073
C22	C	-0.109947	0.677550	0.000059
C23	C	-0.249976	1.003971	0.000077
C24	C	-0.336771	1.011830	0.000083
C25	C	-0.386865	0.939673	0.000079
C26	C	-0.468418	0.947062	0.000068
C27	C	-0.499874	1.026610	0.000067
C28	C	-0.449774	1.098773	0.000069
C29	C	-0.368223	1.091383	0.000074
C30	C	-0.745639	1.052719	0.000048
C31	C	-0.827197	1.060104	0.000046
C32	C	-0.845835	0.908393	0.000043
C33	C	-0.764282	0.901009	0.000053
C34	C	-0.714188	0.973172	0.000050
C35	C	-0.583234	1.034166	0.000059
C36	C	-0.630830	0.965616	0.000051
C37	C	0.035914	0.995806	0.000054
C38	C	0.122709	0.987947	0.000041
C39	C	-0.101328	1.153051	0.000073
C40	C	-0.102873	1.246407	0.000073
N41	N	-0.107056	0.999866	0.219541
N42	N	-0.107000	0.999917	-0.219408
C43	C	-0.162535	0.944189	0.469195
C44	C	-0.177712	1.021173	0.531004
C45	C	-0.107037	0.999885	0.408703
C46	C	-0.091878	0.922922	0.530988
C47	C	-0.107021	0.999897	0.591424
C48	C	-0.122250	1.076910	0.469150
C49	C	-0.036385	0.978607	0.469129
C50	C	-0.051532	1.055644	0.530909
C51	C	-0.107049	0.999877	0.303441
C52	C	-0.107009	0.999913	0.696683
H53	H	-0.039237	0.557093	0.140387
H54	H	-0.361260	0.874896	0.000090
F55	F	-0.139090	1.162016	0.433799
F56	F	-0.255798	1.044712	0.566528
H57	H	-0.004590	1.102805	0.557837
F58	F	-0.029674	0.565300	-0.159977
F59	F	-0.483254	1.183435	0.000062
H60	H	0.023338	0.960577	0.441930
H61	H	-0.079064	0.857831	0.558153
H62	H	0.031139	0.456922	0.000125
H63	H	-0.209505	0.897142	0.442098
H64	H	-0.327436	1.150142	0.000073
H65	H	-0.886630	0.849642	0.000044
H66	H	-0.509202	0.888304	0.000061
H67	H	-0.174766	0.442669	-0.140233
H68	H	-0.605215	0.900848	0.000047
H69	H	-0.174793	0.442792	0.140534
H70	H	-0.245272	0.542671	0.000168
F71	F	-0.860673	1.144774	0.000066
H72	H	-0.738676	0.836233	0.000042
F73	F	-0.616720	1.118825	0.000060
H74	H	-0.704862	1.111480	0.000051
