data_functionalizedCrystal
_audit_creation_method	'MofGen! by Chris Wilmer'
_symmetry_space_group_name_H-M	'P1'
_symmetry_Int_Tables_number	1
_symmetry_cell_setting	triclinic
loop_
_symmetry_equiv_pos_as_xyz
  x,y,z
_cell_length_a	10.489746
_cell_length_b	10.489741
_cell_length_c	10.868271
_cell_angle_alpha	89.995151
_cell_angle_beta	89.998617
_cell_angle_gamma	84.540238
loop_
_atom_site_label
_atom_site_type_symbol
_atom_site_fract_x
_atom_site_fract_y
_atom_site_fract_z
O1	O	1.694049	0.180000	-0.102239
O2	O	2.194049	0.680000	0.397761
O3	O	1.322855	0.196886	-0.102259
O4	O	1.822855	0.696886	0.397741
O5	O	1.516898	0.002846	-0.102241
O6	O	2.016898	0.502846	0.397759
O7	O	1.500006	0.374041	-0.102257
O8	O	2.000006	0.874041	0.397743
O9	O	1.516882	0.002838	0.102403
O10	O	2.016882	0.502838	0.602403
O11	O	1.322838	0.196878	0.102385
O12	O	1.822838	0.696878	0.602385
O13	O	1.694033	0.179993	0.102406
O14	O	2.194033	0.679993	0.602406
Zn15	Zn	1.508433	0.188434	0.134887
Zn16	Zn	2.008433	0.688434	0.634887
Zn17	Zn	1.508455	0.188444	-0.134741
Zn18	Zn	2.008455	0.688444	0.365259
O19	O	1.499990	0.374033	0.102388
O20	O	1.999990	0.874033	0.602388
C21	C	1.275315	0.195606	0.000060
C22	C	1.775315	0.695606	0.500060
C23	C	1.133686	0.191786	0.000053
C24	C	1.633686	0.691786	0.500053
C25	C	0.980828	0.066062	0.000075
C26	C	1.480828	0.566062	0.500075
C27	C	1.058214	0.128915	0.100970
C28	C	1.558214	0.628915	0.600970
C29	C	1.058185	0.128952	-0.100794
C30	C	1.558185	0.628952	0.399206
C31	C	0.958722	0.247897	0.101061
C32	C	1.458722	0.747897	0.601061
C33	C	0.958688	0.247916	-0.100793
C34	C	1.458688	0.747916	0.399207
C35	C	1.036025	0.310856	0.000126
C36	C	1.536025	0.810856	0.500126
C37	C	1.515614	-0.044690	0.000080
C38	C	2.015614	0.455310	0.500080
C39	C	1.511797	-0.186320	0.000078
C40	C	2.011797	0.313680	0.500078
C41	C	1.388333	-0.254462	0.000062
C42	C	1.888333	0.245538	0.500062
C43	C	1.446648	-0.346587	0.100966
C44	C	1.946648	0.153413	0.600966
C45	C	1.446693	-0.346554	-0.100798
C46	C	1.946693	0.153446	0.399202
C47	C	1.570164	-0.276579	0.101065
C48	C	2.070164	0.223421	0.601065
C49	C	1.570192	-0.276537	-0.100789
C50	C	2.070192	0.223463	0.399211
C51	C	1.628597	-0.368635	0.000139
C52	C	2.128597	0.131365	0.500139
C53	C	1.741573	0.181273	0.000083
C54	C	2.241573	0.681273	0.500083
C55	C	1.883202	0.185093	0.000083
C56	C	2.383202	0.685093	0.500083
C57	C	1.501273	0.421569	0.000064
C58	C	2.001273	0.921569	0.500064
C59	C	1.505091	0.563198	0.000058
C60	C	2.005091	1.063198	0.500058
N61	N	1.508428	0.188427	0.318901
N62	N	2.008428	0.688427	0.818901
N63	N	1.508470	0.188442	-0.318755
N64	N	2.008470	0.688442	0.181245
C65	C	1.508448	0.188442	0.569907
C66	C	2.008448	0.688442	1.069907
C67	C	1.508433	0.188437	0.430230
C68	C	2.008433	0.688437	0.930230
H69	H	0.956107	-0.037439	0.000181
H70	H	1.456107	0.462561	0.500181
H71	H	1.101684	0.078663	0.186275
H72	H	1.601684	0.578663	0.686275
H73	H	1.101635	0.078684	-0.186095
H74	H	1.601635	0.578684	0.313905
H75	H	1.622352	-0.245750	0.186467
H76	H	2.122352	0.254250	0.686467
H77	H	1.730200	-0.418057	0.000200
H78	H	2.230200	0.081943	0.500200
H79	H	1.286821	-0.204813	0.000158
H80	H	1.786821	0.295187	0.500158
Br81	Br	0.886586	0.331588	0.243397
Br82	Br	1.386586	0.831588	0.743397
H83	H	1.060501	0.414436	0.000177
H84	H	1.560501	0.914436	0.500177
Br85	Br	0.886190	0.331601	-0.242982
Br86	Br	1.386190	0.831601	0.257018
H87	H	1.394401	-0.377603	0.186267
H88	H	1.894401	0.122397	0.686267
H89	H	1.622395	-0.245488	-0.186095
H90	H	2.122395	0.254512	0.313905
H91	H	1.394444	-0.377516	-0.186112
H92	H	1.894444	0.122484	0.313888
