data_functionalizedCrystal
_audit_creation_method	'MofGen! by Chris Wilmer'
_symmetry_space_group_name_H-M	'P1'
_symmetry_Int_Tables_number	1
_symmetry_cell_setting	triclinic
loop_
_symmetry_equiv_pos_as_xyz
  x,y,z
_cell_length_a	17.077404
_cell_length_b	21.295417
_cell_length_c	21.295412
_cell_angle_alpha	89.969860
_cell_angle_beta	89.984809
_cell_angle_gamma	90.027672
loop_
_atom_site_label
_atom_site_type_symbol
_atom_site_fract_x
_atom_site_fract_y
_atom_site_fract_z
Zn1	Zn	1.199993	-0.250656	-0.355895
Zn2	Zn	1.533326	0.082678	-0.022562
Zn3	Zn	1.866660	0.416011	0.310772
Zn4	Zn	1.199892	-0.355925	-0.250622
Zn5	Zn	1.533225	-0.022592	0.082711
Zn6	Zn	1.866558	0.310742	0.416044
Zn7	Zn	1.068732	-0.250670	-0.250642
Zn8	Zn	1.402065	0.082663	0.082691
Zn9	Zn	1.735399	0.415997	0.416024
Zn10	Zn	1.068677	-0.355887	-0.355856
Zn11	Zn	1.402010	-0.022554	-0.022523
Zn12	Zn	1.735344	0.310779	0.310810
O13	O	1.134323	-0.303285	-0.303254
O14	O	1.467657	0.030049	0.030079
O15	O	1.800990	0.363382	0.363413
O16	O	1.309826	-0.264630	-0.341938
O17	O	1.643160	0.068704	-0.008605
O18	O	1.976493	0.402037	0.324729
O19	O	1.182474	-0.341985	-0.162535
O20	O	1.515807	-0.008651	0.170798
O21	O	1.849140	0.324682	0.504131
O22	O	1.086209	-0.162579	-0.264629
O23	O	1.419543	0.170755	0.068705
O24	O	1.752876	0.504088	0.402038
O25	O	1.309752	-0.341971	-0.264595
O26	O	1.643085	-0.008637	0.068739
O27	O	1.976419	0.324696	0.402072
O28	O	1.182646	-0.162568	-0.341957
O29	O	1.515979	0.170765	-0.008624
O30	O	1.849313	0.504098	0.324709
O31	O	1.086111	-0.264654	-0.162550
O32	O	1.419444	0.068679	0.170783
O33	O	1.752778	0.402013	0.504117
O34	O	0.958878	-0.264617	-0.264591
O35	O	1.292211	0.068716	0.068742
O36	O	1.625544	0.402049	0.402075
O37	O	1.086116	-0.341906	-0.443951
O38	O	1.419449	-0.008573	-0.110617
O39	O	1.752782	0.324760	0.222716
O40	O	0.958837	-0.341920	-0.341892
O41	O	1.292171	-0.008587	-0.008558
O42	O	1.625504	0.324747	0.324775
O43	O	1.182593	-0.264593	-0.443979
O44	O	1.515926	0.068740	-0.110646
O45	O	1.849260	0.402074	0.222687
O46	O	1.182420	-0.444010	-0.264557
O47	O	1.515754	-0.110676	0.068776
O48	O	1.849087	0.222657	0.402109
O49	O	1.086018	-0.443982	-0.341872
O50	O	1.419351	-0.110648	-0.008539
O51	O	1.752684	0.222685	0.324795
C52	C	0.930375	-0.303267	-0.303240
C53	C	1.263709	0.030067	0.030094
C54	C	1.597042	0.363400	0.363427
C55	C	0.843126	-0.303274	-0.303249
C56	C	1.176459	0.030059	0.030085
C57	C	1.509792	0.363392	0.363418
C58	C	0.802175	-0.263074	-0.343583
C59	C	1.135508	0.070259	-0.010249
C60	C	1.468842	0.403592	0.323084
C61	C	0.720195	-0.263078	-0.343586
C62	C	1.053528	0.070255	-0.010252
C63	C	1.386861	0.403588	0.323081
C64	C	0.679166	-0.303286	-0.303257
C65	C	1.012500	0.030047	0.030076
C66	C	1.345833	0.363381	0.363409
C67	C	0.720123	-0.343488	-0.262919
C68	C	1.053456	-0.010154	0.070415
C69	C	1.386789	0.323179	0.403748
C70	C	0.802102	-0.343480	-0.262913
C71	C	1.135435	-0.010147	0.070420
C72	C	1.468768	0.323187	0.403754
C73	C	0.549253	-0.343502	-0.262934
C74	C	0.882586	-0.010169	0.070399
C75	C	1.215919	0.323165	0.403732
C76	C	0.467268	-0.343511	-0.262940
C77	C	0.800601	-0.010177	0.070393
C78	C	1.133935	0.323156	0.403726
C79	C	0.467346	-0.263100	-0.343607
C80	C	0.800679	0.070233	-0.010274
C81	C	1.134012	0.403566	0.323060
C82	C	0.549325	-0.263093	-0.343601
C83	C	0.882658	0.070241	-0.010268
C84	C	1.215991	0.403574	0.323065
C85	C	0.590275	-0.303295	-0.303263
C86	C	0.923609	0.030038	0.030070
C87	C	1.256942	0.363371	0.363403
C88	C	1.134223	-0.466836	-0.303222
C89	C	1.467557	-0.133503	0.030111
C90	C	1.800890	0.199830	0.363445
C91	C	1.134252	-0.536804	-0.303229
C92	C	1.467586	-0.203471	0.030104
C93	C	1.800919	0.129862	0.363437
C94	C	1.184438	-0.569608	-0.343523
C95	C	1.517772	-0.236275	-0.010190
C96	C	1.851105	0.097058	0.323143
C97	C	1.184466	-0.635351	-0.343539
C98	C	1.517799	-0.302017	-0.010205
C99	C	1.851133	0.031316	0.323128
C100	C	1.134316	-0.668287	-0.303249
C101	C	1.467649	-0.334953	0.030084
C102	C	1.800983	-0.001620	0.363417
C103	C	1.084120	-0.635475	-0.262953
C104	C	1.417454	-0.302142	0.070381
C105	C	1.750787	0.031192	0.403714
C106	C	1.084088	-0.569734	-0.262943
C107	C	1.417422	-0.236400	0.070391
C108	C	1.750755	0.096933	0.403724
N109	N	1.128391	-0.771548	-0.248158
N110	N	1.461724	-0.438215	0.085175
N111	N	1.795057	-0.104881	0.418508
N112	N	1.128425	-0.834000	-0.248170
N113	N	1.461759	-0.500666	0.085164
N114	N	1.795092	-0.167333	0.418497
C115	C	1.134408	-0.866361	-0.303278
C116	C	1.467741	-0.533028	0.030056
C117	C	1.801074	-0.199695	0.363389
N118	N	1.140369	-0.833913	-0.358375
N119	N	1.473702	-0.500579	-0.025042
N120	N	1.807036	-0.167246	0.308291
N121	N	1.140338	-0.771456	-0.358363
N122	N	1.473672	-0.438122	-0.025030
N123	N	1.807005	-0.104789	0.308303
C124	C	1.134345	-0.739572	-0.303256
C125	C	1.467678	-0.406239	0.030078
C126	C	1.801011	-0.072905	0.363411
C127	C	1.184626	-0.970451	-0.343592
C128	C	1.517960	-0.637118	-0.010258
C129	C	1.851293	-0.303784	0.323075
C130	C	1.184648	-1.036195	-0.343608
C131	C	1.517982	-0.702861	-0.010275
C132	C	1.851315	-0.369528	0.323058
C133	C	1.084307	-1.036317	-0.263017
C134	C	1.417640	-0.702984	0.070317
C135	C	1.750974	-0.369651	0.403650
C136	C	1.084281	-0.970575	-0.263006
C137	C	1.417614	-0.637242	0.070328
C138	C	1.750947	-0.303908	0.403661
C139	C	1.134444	-0.937646	-0.303292
C140	C	1.467778	-0.604312	0.030041
C141	C	1.801111	-0.270979	0.363374
C142	C	1.339068	-0.303303	-0.303268
C143	C	1.672401	0.030030	0.030065
C144	C	2.005734	0.363364	0.363398
C145	C	1.426317	-0.303311	-0.303275
C146	C	1.759651	0.030023	0.030059
C147	C	2.092984	0.363356	0.363392
C148	C	1.134360	-0.303244	-0.467444
C149	C	1.467693	0.030089	-0.134111
C150	C	1.801026	0.363423	0.199222
C151	C	1.134375	-0.303227	-0.537412
C152	C	1.467708	0.030107	-0.204079
C153	C	1.801042	0.363440	0.129254
C154	C	1.134445	-0.139094	-0.303300
C155	C	1.467778	0.194239	0.030034
C156	C	1.801112	0.527572	0.363367
C157	C	1.134497	-0.069126	-0.303319
C158	C	1.467830	0.264207	0.030014
C159	C	1.801164	0.597541	0.363347
C160	C	1.184685	-0.262870	-1.036886
C161	C	1.518018	0.070463	-0.703553
C162	C	1.851352	0.403797	-0.370220
C163	C	1.184679	-0.262885	-0.971144
C164	C	1.518012	0.070448	-0.637810
C165	C	1.851346	0.403781	-0.304477
C166	C	1.134443	-0.303143	-0.938252
C167	C	1.467776	0.030190	-0.604919
C168	C	1.801110	0.363523	-0.271585
C169	C	1.084224	-0.343401	-0.971108
C170	C	1.417557	-0.010068	-0.637775
C171	C	1.750890	0.323266	-0.304442
C172	C	1.084237	-0.343389	-1.036849
C173	C	1.417570	-0.010056	-0.703516
C174	C	1.750903	0.323278	-0.370183
N175	N	1.065707	-0.307985	-0.835025
N176	N	1.399040	0.025348	-0.501691
N177	N	1.732374	0.358681	-0.168358
N178	N	1.065697	-0.307993	-0.772573
N179	N	1.399030	0.025340	-0.439240
N180	N	1.732364	0.358674	-0.105906
C181	C	1.134402	-0.303183	-0.740177
C182	C	1.467735	0.030151	-0.406844
C183	C	1.801068	0.363484	-0.073511
N184	N	1.203119	-0.298352	-0.772592
N185	N	1.536452	0.034981	-0.439259
N186	N	1.869785	0.368314	-0.105925
N187	N	1.203128	-0.298342	-0.835049
N188	N	1.536461	0.034992	-0.501716
N189	N	1.869795	0.368325	-0.168383
C190	C	1.134424	-0.303161	-0.866967
C191	C	1.467757	0.030172	-0.533633
C192	C	1.801090	0.363505	-0.200300
C193	C	1.184615	-0.262948	-0.636043
C194	C	1.517949	0.070386	-0.302710
C195	C	1.851282	0.403719	0.030623
C196	C	1.184610	-0.262967	-0.570300
C197	C	1.517944	0.070366	-0.236966
C198	C	1.851277	0.403699	0.096367
C199	C	1.084148	-0.343480	-0.570265
C200	C	1.417481	-0.010146	-0.236932
C201	C	1.750815	0.323187	0.096401
C202	C	1.084160	-0.343463	-0.636008
C203	C	1.417493	-0.010130	-0.302674
C204	C	1.750827	0.323203	0.030659
C205	C	1.134392	-0.303194	-0.668893
C206	C	1.467726	0.030139	-0.335560
C207	C	1.801059	0.363473	-0.002226
C208	C	1.134332	-0.303280	-0.139702
C209	C	1.467666	0.030054	0.193631
C210	C	1.800999	0.363387	0.526964
C211	C	1.134469	-0.303120	-0.069735
C212	C	1.467803	0.030214	0.263599
C213	C	1.801136	0.363547	0.596932
H214	H	0.835574	-0.230334	-0.376425
H215	H	1.168908	0.102999	-0.043091
H216	H	1.502241	0.436332	0.290242
H217	H	0.835443	-0.376214	-0.230068
H218	H	1.168776	-0.042881	0.103265
H219	H	1.502109	0.290452	0.436598
C220	C	1.239680	-0.671443	-0.387864
C221	C	1.573013	-0.338109	-0.054531
C222	C	1.906346	-0.004776	0.278802
N223	N	1.281269	-0.698625	-0.421249
N224	N	1.614602	-0.365292	-0.087916
N225	N	1.947935	-0.031958	0.245418
H226	H	1.043322	-0.376181	-0.944323
H227	H	1.376656	-0.042847	-0.610990
H228	H	1.709989	0.290486	-0.277657
C229	C	0.674989	-0.387715	-0.218556
C230	C	1.008322	-0.054382	0.114778
C231	C	1.341655	0.278951	0.448111
N232	N	0.640994	-0.421031	-0.185142
N233	N	0.974328	-0.087697	0.148191
N234	N	1.307661	0.245636	0.481524
H235	H	0.433865	-0.376252	-0.230102
H236	H	0.767198	-0.042918	0.103231
H237	H	1.100532	0.290415	0.436565
H238	H	1.225470	-0.943639	-0.376398
H239	H	1.558804	-0.610306	-0.043064
H240	H	1.892137	-0.276972	0.290269
H241	H	1.043344	-0.376166	-1.063594
H242	H	1.376677	-0.042833	-0.730261
H243	H	1.710010	0.290501	-0.396927
H244	H	1.225517	-0.230157	-0.662820
H245	H	1.558850	0.103176	-0.329487
H246	H	1.892184	0.436509	0.003847
H247	H	1.043248	-0.376261	-0.543485
H248	H	1.376581	-0.042928	-0.210152
H249	H	1.709915	0.290406	0.123181
H250	H	0.582592	-0.376238	-0.230085
H251	H	0.915926	-0.042904	0.103248
H252	H	1.249259	0.290429	0.436582
H253	H	1.225508	-0.230193	-0.543556
H254	H	1.558841	0.103140	-0.210222
H255	H	1.892174	0.436474	0.123111
H256	H	1.225516	-1.062903	-0.376423
H257	H	1.558849	-0.729569	-0.043090
H258	H	1.892182	-0.396236	0.290243
H259	H	0.686856	-0.230345	-0.376431
H260	H	1.020189	0.102988	-0.043098
H261	H	1.353523	0.436322	0.290236
H262	H	0.582728	-0.230356	-0.376444
H263	H	0.916061	0.102977	-0.043111
H264	H	1.249394	0.436311	0.290223
C265	C	1.029130	-1.072543	-0.218706
C266	C	1.362464	-0.739210	0.114627
C267	C	1.695797	-0.405877	0.447961
N268	N	0.987565	-1.099832	-0.185334
N269	N	1.320898	-0.766498	0.147999
N270	N	1.654232	-0.433165	0.481333
C271	C	0.422298	-0.218879	-0.387981
C272	C	0.755632	0.114454	-0.054648
C273	C	1.088965	0.447787	0.278685
N274	N	0.388365	-0.185576	-0.421406
N275	N	0.721698	0.147757	-0.088072
N276	N	1.055032	0.481091	0.245261
C277	C	1.028909	-0.387735	-0.672142
C278	C	1.362242	-0.054401	-0.338809
C279	C	1.695576	0.278932	-0.005476
N280	N	0.987292	-0.421082	-0.699358
N281	N	1.320625	-0.087749	-0.366025
N282	N	1.653958	0.245584	-0.032692
C283	C	1.028986	-0.671706	-0.218610
C284	C	1.362319	-0.338372	0.114724
C285	C	1.695652	-0.005039	0.448057
N286	N	0.987466	-0.698995	-0.185202
N287	N	1.320799	-0.365661	0.148132
N288	N	1.654132	-0.032328	0.481465
H289	H	1.043220	-0.543024	-0.230130
H290	H	1.376553	-0.209691	0.103203
H291	H	1.709887	0.123643	0.436537
C292	C	1.239625	-0.533390	-0.387836
C293	C	1.572958	-0.200057	-0.054503
C294	C	1.906291	0.133277	0.278830
N295	N	1.281193	-0.506109	-0.421212
N296	N	1.614527	-0.172776	-0.087879
N297	N	1.947860	0.160558	0.245455
H298	H	1.043418	-0.943864	-0.230192
H299	H	1.376751	-0.610531	0.103141
H300	H	1.710084	-0.277198	0.436475
C301	C	1.239948	-0.218577	-1.073056
C302	C	1.573282	0.114756	-0.739723
C303	C	1.906615	0.448090	-0.406389
N304	N	1.281575	-0.185217	-1.100300
N305	N	1.614908	0.148117	-0.766967
N306	N	1.948242	0.481450	-0.433634
H307	H	1.225570	-0.230107	-0.944394
H308	H	1.558904	0.103227	-0.611060
H309	H	1.892237	0.436560	-0.277727
