data_functionalizedCrystal
_audit_creation_method	'MofGen! by Chris Wilmer'
_symmetry_space_group_name_H-M	'P1'
_symmetry_Int_Tables_number	1
_symmetry_cell_setting	triclinic
loop_
_symmetry_equiv_pos_as_xyz
  x,y,z
_cell_length_a	15.995350
_cell_length_b	10.868271
_cell_length_c	11.792241
_cell_angle_alpha	90.005281
_cell_angle_beta	96.157105
_cell_angle_gamma	89.999330
loop_
_atom_site_label
_atom_site_type_symbol
_atom_site_fract_x
_atom_site_fract_y
_atom_site_fract_z
O1	O	1.111649	-0.102218	-0.146296
O2	O	0.867956	-0.102244	-0.164362
O3	O	0.995716	-0.102222	0.009891
O4	O	0.983889	-0.102240	-0.320549
O5	O	0.995706	0.102423	0.009898
O6	O	0.867946	0.102401	-0.164355
O7	O	1.111639	0.102426	-0.146289
Zn8	Zn	0.989790	0.134905	-0.155321
Zn9	Zn	0.989804	-0.134723	-0.155330
O10	O	0.983878	0.102404	-0.320542
C11	C	0.836753	0.000075	-0.163612
C12	C	0.743792	0.000066	-0.161372
C13	C	0.406008	0.000092	-0.153331
C14	C	0.452879	0.000555	-0.029232
C15	C	0.549579	0.000085	-0.031471
C16	C	0.573587	0.000080	-0.157320
C17	C	0.532784	-0.116781	-0.218534
C18	C	0.436134	-0.116870	-0.215416
C19	C	0.435794	0.115849	-0.217973
C20	C	0.532740	0.117385	-0.217943
C21	C	0.668295	0.000069	-0.159581
C22	C	0.311300	0.000095	-0.151074
C23	C	0.994968	0.000100	0.052179
C24	C	0.992745	0.000099	0.178174
C25	C	1.142842	0.000104	-0.147040
C26	C	1.235803	0.000106	-0.149279
N27	N	0.989787	0.318919	-0.155314
N28	N	0.989814	-0.318737	-0.155328
C29	C	0.989800	0.569925	-0.155328
C30	C	0.989790	0.430248	-0.155324
C31	C	0.984627	0.000080	-0.362830
C32	C	0.986850	0.000073	-0.488825
C33	C	0.988655	0.000078	0.408852
C34	C	0.990927	0.000089	0.280486
H35	H	0.548521	0.124439	-0.309716
H36	H	0.560969	-0.203747	-0.176023
H37	H	0.404448	0.116635	-0.309470
H38	H	0.559849	0.203838	-0.173257
H39	H	0.577785	0.083857	0.016646
O40	O	0.552038	-0.122555	-0.341010
H41	H	0.586906	-0.208619	-0.354825
O42	O	0.428039	0.111567	0.036482
H43	H	0.399160	0.080793	0.113137
H44	H	0.433065	-0.082783	0.020143
H45	H	0.415070	0.204427	-0.177399
O46	O	0.586202	-0.111066	0.032684
H47	H	0.619241	-0.169494	-0.025558
H48	H	0.417627	-0.204222	-0.170782
H49	H	0.404299	-0.122178	-0.306528
