data_functionalizedCrystal
_audit_creation_method	'MofGen! by Chris Wilmer'
_symmetry_space_group_name_H-M	'P1'
_symmetry_Int_Tables_number	1
_symmetry_cell_setting	triclinic
loop_
_symmetry_equiv_pos_as_xyz
  x,y,z
_cell_length_a	9.065218
_cell_length_b	15.944551
_cell_length_c	8.140239
_cell_angle_alpha	89.995530
_cell_angle_beta	89.997198
_cell_angle_gamma	84.257312
loop_
_atom_site_label
_atom_site_type_symbol
_atom_site_fract_x
_atom_site_fract_y
_atom_site_fract_z
O1	O	1.957519	0.123161	-0.136622
O2	O	1.527998	0.133263	-0.136625
O3	O	1.754488	0.006026	-0.136608
O4	O	1.731029	0.250398	-0.136638
O5	O	1.754475	0.006024	0.136619
O6	O	1.527986	0.133261	0.136603
O7	O	1.957507	0.123159	0.136605
Zn8	Zn	1.742744	0.128210	0.179985
Zn9	Zn	1.742761	0.128212	-0.180004
O10	O	1.731017	0.250396	0.136589
C11	C	1.473028	0.132291	-0.000011
C12	C	1.309253	0.129388	-0.000012
C13	C	1.753508	-0.025276	0.000005
C14	C	1.750588	-0.118544	0.000006
C15	C	1.603221	-0.334518	-0.000017
C16	C	1.671647	-0.395017	0.134701
C17	C	1.745306	-0.289310	-0.000006
C18	C	1.671693	-0.394999	-0.134680
C19	C	1.740194	-0.454262	-0.000026
C20	C	1.813772	-0.348581	0.134823
C21	C	1.813798	-0.348557	-0.134679
C22	C	1.882327	-0.409038	0.000072
C23	C	1.748247	-0.194286	0.000006
C24	C	1.737264	-0.549285	-0.000026
C25	C	2.012477	0.124131	-0.000012
C26	C	2.176252	0.127034	-0.000022
C27	C	1.731997	0.281698	-0.000028
C28	C	1.734917	0.374966	-0.000040
N29	N	1.742744	0.128208	0.425667
N30	N	1.742773	0.128207	-0.425687
H31	H	1.485283	-0.302103	0.000117
O32	O	2.023169	-0.447500	0.000447
C33	C	2.097511	-0.423806	0.142648
H34	H	2.012809	-0.402543	0.241474
H35	H	2.166205	-0.369798	0.111793
C36	C	2.304374	-0.525720	0.084786
C37	C	2.200342	-0.499611	0.206170
H38	H	2.367810	-0.572477	0.123966
H39	H	2.254292	-0.541681	-0.011022
H40	H	2.361604	-0.480706	0.059084
H41	H	2.143102	-0.544620	0.231854
H42	H	2.250417	-0.483659	0.301983
H43	H	1.611545	-0.415581	0.248593
O44	O	1.885638	-0.324103	-0.270505
C45	C	2.031939	-0.363564	-0.271654
H46	H	2.037950	-0.423286	-0.193930
H47	H	2.110082	-0.318731	-0.218750
C48	C	2.070692	-0.313206	-0.544831
C49	C	2.078071	-0.386562	-0.449380
H50	H	2.099152	-0.327389	-0.654460
H51	H	1.972128	-0.286618	-0.544056
H52	H	2.135811	-0.275852	-0.500726
H53	H	2.012939	-0.423910	-0.493474
H54	H	2.176626	-0.413157	-0.450167
H55	H	1.611583	-0.415531	-0.248581
H56	H	1.873813	-0.328137	0.248841
