data_functionalizedCrystal
_audit_creation_method	'MofGen! by Chris Wilmer'
_symmetry_space_group_name_H-M	'P1'
_symmetry_Int_Tables_number	1
_symmetry_cell_setting	triclinic
loop_
_symmetry_equiv_pos_as_xyz
  x,y,z
_cell_length_a	14.628931
_cell_length_b	21.606444
_cell_length_c	21.606444
_cell_angle_alpha	59.991153
_cell_angle_beta	90.001559
_cell_angle_gamma	60.002975
loop_
_atom_site_label
_atom_site_type_symbol
_atom_site_fract_x
_atom_site_fract_y
_atom_site_fract_z
Zr1	Zr	0.880617	0.677513	-0.081337
O2	O	0.734650	0.806648	-0.180186
O3	O	0.925363	0.548382	-0.051020
O4	O	0.925355	0.677518	-0.180164
O5	O	0.734666	0.677508	0.050813
O6	O	1.075786	0.677518	-0.180164
O7	O	0.734659	0.677512	-0.051041
O8	O	1.075802	0.446517	0.050851
O9	O	0.734651	0.908508	-0.180203
O10	O	1.056713	0.601494	-0.038108
O11	O	0.944453	0.601491	0.037904
O12	O	0.944443	0.753532	-0.114146
O13	O	0.832183	0.753529	-0.038134
Zr14	Zr	1.120551	0.677506	0.081108
Zr15	Zr	1.120539	0.677513	-0.081338
Zr16	Zr	0.880629	0.677506	0.081108
Zr17	Zr	0.880619	0.839968	-0.081365
Zr18	Zr	1.120550	0.515051	0.081135
O19	O	1.075805	0.806638	0.050791
O20	O	1.075788	0.806648	-0.180186
O21	O	0.734667	0.806638	0.050791
O22	O	1.266518	0.548372	0.179956
O23	O	1.266501	0.548382	-0.051021
O24	O	0.925381	0.548372	0.179957
O25	O	1.266502	0.677512	-0.051042
O26	O	1.075813	0.677502	0.179935
O27	O	0.925382	0.677502	0.179935
O28	O	1.266509	0.677508	0.050812
O29	O	0.925356	0.908508	-0.180203
O30	O	1.075812	0.446512	0.179973
O31	O	1.266517	0.446512	0.179973
O32	O	1.266508	0.446517	0.050851
O33	O	0.734661	0.908502	-0.051080
O34	O	0.925366	0.908502	-0.051080
O35	O	1.056725	0.601488	0.113917
O36	O	1.168985	0.601491	0.037904
O37	O	1.056715	0.753529	-0.038134
O38	O	0.944455	0.753525	0.037879
C39	C	1.000582	0.474303	-0.000081
C40	C	1.000582	0.405337	-0.000069
C41	C	0.917700	0.429074	-0.056197
C42	C	0.917703	0.364285	-0.056213
C43	C	1.000584	0.275759	-0.000097
C44	C	1.083474	0.252022	0.056034
C45	C	1.083474	0.316810	0.056046
C46	C	1.083473	-0.009265	0.055987
C47	C	1.083464	-0.074054	0.055972
C48	C	0.917702	0.038209	-0.056273
C49	C	0.917703	0.102998	-0.056261
C50	C	1.000595	0.079256	-0.000132
C51	C	1.000592	0.149508	-0.000117
C52	C	1.000583	0.205507	-0.000109
C53	C	0.700479	0.677510	-0.000114
C54	C	0.598626	0.677510	-0.000114
C55	C	0.553213	0.677512	-0.053440
C56	C	0.447942	0.677512	-0.053442
C57	C	1.300689	0.677510	-0.000115
C58	C	1.402542	0.677510	-0.000115
C59	C	1.000569	0.677519	-0.203309
C60	C	1.000564	0.677521	-0.272272
C61	C	1.000586	0.880716	-0.000149
C62	C	1.000586	0.949683	-0.000160
C63	C	0.941959	0.756883	-0.344361
C64	C	0.941969	0.756880	-0.409156
C65	C	1.000577	0.677516	-0.401860
C66	C	1.059189	0.598148	-0.329763
C67	C	1.059185	0.598152	-0.264969
C68	C	1.059206	0.598133	-0.591066
C69	C	1.059203	0.598136	-0.655866
C70	C	0.941990	0.756862	-0.735253
C71	C	0.941987	0.756865	-0.670459
C72	C	1.000603	0.677498	-0.598368
C73	C	1.000593	0.677502	-0.528110
C74	C	1.000581	0.677511	-0.472116
C75	C	1.000599	0.677501	0.203080
C76	C	1.000604	0.677498	0.272042
C77	C	1.300688	0.474303	-0.000081
C78	C	1.402540	0.405337	-0.000070
C79	C	1.000598	0.474294	0.203114
C80	C	1.000602	0.405325	0.272088
C81	C	1.300703	0.474294	0.203113
C82	C	1.402560	0.405325	0.272087
C83	C	0.700465	0.880725	-0.203343
C84	C	0.598608	0.949695	-0.272317
C85	C	0.700480	0.880716	-0.000148
C86	C	0.598628	0.949683	-0.000160
C87	C	1.000570	0.880725	-0.203343
C88	C	1.000566	0.949695	-0.272317
C89	C	1.391766	0.372951	-0.039749
C90	C	1.487458	0.308159	-0.039753
C91	C	1.593923	0.275749	-0.000074
C92	C	1.604694	0.308141	0.039607
C93	C	1.509003	0.372936	0.039606
C94	C	1.059209	0.372934	0.344163
C95	C	1.059209	0.308139	0.408978
C96	C	1.000608	0.275732	0.401715
C97	C	0.941994	0.308128	0.329632
C98	C	0.941988	0.372927	0.264819
C99	C	1.509002	0.372938	0.264800
C100	C	1.604718	0.308143	0.329602
C101	C	1.593988	0.275731	0.401690
C102	C	1.487535	0.308125	0.408976
C103	C	1.391822	0.372923	0.344175
C104	C	0.492166	0.982090	-0.265030
C105	C	0.396450	1.046905	-0.329832
C106	C	0.407180	1.079320	-0.401920
C107	C	0.513633	1.046922	-0.409206
C108	C	0.609346	0.982112	-0.344404
C109	C	0.609402	0.982075	0.039513
C110	C	0.513710	1.046886	0.039499
C111	C	0.407245	1.079298	-0.000183
C112	C	0.396474	1.046903	-0.039860
C113	C	0.492165	0.982098	-0.039850
C114	C	1.059178	0.982082	-0.265030
C115	C	1.059196	1.046877	-0.329833
C116	C	1.000594	1.079289	-0.401921
C117	C	0.941980	1.046895	-0.409206
C118	C	0.941970	0.982097	-0.344405
H119	H	1.150970	-0.028607	0.101690
H120	H	0.329337	1.132066	-0.000184
N121	N	1.277018	0.407848	0.352040
H122	H	1.284756	0.377477	0.407542
H123	H	1.234762	0.396562	0.326894
H124	H	0.894250	0.821504	-0.467853
H125	H	0.850209	0.175078	-0.101954
N126	N	1.000638	0.205834	0.471629
H127	H	1.033997	0.152057	0.471674
H128	H	0.921252	0.228450	0.471627
H129	H	0.894257	0.821492	-0.676407
H130	H	1.106915	0.533528	-0.323826
H131	H	1.106906	0.533527	-0.206271
N132	N	0.396230	0.677512	-0.113922
H133	H	0.372987	0.731484	-0.165459
H134	H	0.328400	0.677478	-0.105287
H135	H	1.671933	0.222968	0.454450
H136	H	1.478666	0.281793	-0.072066
N137	N	1.122425	0.512534	-0.513317
H138	H	1.159548	0.462260	-0.518530
H139	H	1.068620	0.509074	-0.484702
N140	N	0.878769	0.842469	-0.813010
H141	H	0.887664	0.830429	-0.852952
H142	H	0.909532	0.877130	-0.819016
H143	H	1.305086	0.399338	-0.072070
N144	N	0.281640	1.081856	-0.082645
H145	H	0.289322	1.051505	-0.107778
H146	H	0.239376	1.146908	-0.122544
N147	N	1.475971	0.273162	0.486730
H148	H	1.552762	0.227196	0.526670
H149	H	1.433665	0.246315	0.492742
H150	H	0.559575	0.677503	0.045542
N151	N	0.878776	1.081858	-0.486960
H152	H	0.887679	1.127824	-0.526900
H153	H	0.796820	1.108705	-0.492972
N154	N	0.878741	0.947176	-0.352277
H155	H	0.796764	0.996630	-0.380915
H156	H	0.887703	0.901195	-0.300268
H157	H	0.894226	0.821511	-0.350311
N158	N	1.697128	0.205863	-0.000078
H159	H	1.674137	0.190268	-0.031237
H160	H	1.743154	0.152131	0.053688
H161	H	1.106932	0.533504	-0.649917
N162	N	1.000597	1.149190	-0.471809
H163	H	0.954578	1.164815	-0.518586
H164	H	1.080000	1.126583	-0.471759
H165	H	1.691390	0.281743	0.071912
N166	N	0.525197	1.081887	-0.486960
H167	H	0.448406	1.127855	-0.526899
H168	H	0.567501	1.032402	-0.492960
H169	H	1.517791	0.399296	0.071922
H170	H	0.894283	0.281732	0.323730
N171	N	0.454250	0.677507	0.060369
H172	H	0.454106	0.731478	0.035847
H173	H	0.533788	0.623500	0.089812
N174	N	1.719518	0.273207	0.321723
H175	H	1.761838	0.208158	0.346851
H176	H	1.761764	0.284547	0.346810
N177	N	1.122421	0.407878	0.352007
H178	H	1.159540	0.377522	0.407506
H179	H	1.068610	0.472930	0.326837
H180	H	1.106943	0.281769	0.467664
H181	H	1.150961	0.179938	0.101722
H182	H	0.483408	0.955701	-0.206338
N183	N	0.724218	0.947137	0.082311
H184	H	0.766530	0.958415	0.045914
H185	H	0.766456	0.882099	0.122257
H186	H	0.696013	0.955737	-0.350347
N187	N	0.281643	1.081838	-0.321964
H188	H	0.289379	1.051458	-0.266462
H189	H	0.239373	1.070569	-0.347121
N190	N	0.828311	0.524553	-0.116729
H191	H	0.840884	0.561997	-0.108206
H192	H	0.752264	0.537731	-0.114258
H193	H	0.329235	1.132091	-0.454679
N194	N	0.525341	1.081817	0.082297
H195	H	0.607308	1.051440	0.107441
H196	H	0.488188	1.070543	0.122188
N197	N	0.878707	0.407904	0.187082
H198	H	0.841567	0.377551	0.192323
H199	H	0.932455	0.396655	0.158429
N200	N	1.172872	0.291212	0.116581
H201	H	1.225377	0.225301	0.152129
H202	H	1.136636	0.315637	0.146016
N203	N	0.480537	0.947163	-0.082642
H204	H	0.398569	0.977533	-0.107778
H205	H	0.517680	0.882114	-0.046200
N206	N	1.122387	0.947133	-0.187283
H207	H	1.159519	0.977487	-0.192512
H208	H	1.181299	0.882081	-0.158661
H209	H	1.106924	1.073246	-0.323886
N210	N	0.828319	0.389886	-0.116757
H211	H	0.775814	0.455797	-0.152303
H212	H	0.784855	0.365438	-0.092229
N213	N	0.828296	0.063820	-0.116816
H214	H	0.840869	0.009347	-0.108314
H215	H	0.831951	0.099671	-0.168307
N216	N	1.520606	0.407876	0.187057
H217	H	1.562876	0.434765	0.180984
H218	H	1.443794	0.453806	0.147147
N219	N	1.172864	-0.169541	0.116494
H220	H	1.169262	-0.182824	0.168020
H221	H	1.248901	-0.182732	0.113975
N222	N	0.604931	0.677517	-0.113919
H223	H	0.672800	0.677518	-0.105347
H224	H	0.548389	0.731494	-0.165429
