data_functionalizedCrystal
_audit_creation_method	'MofGen! by Chris Wilmer'
_symmetry_space_group_name_H-M	'P1'
_symmetry_Int_Tables_number	1
_symmetry_cell_setting	triclinic
loop_
_symmetry_equiv_pos_as_xyz
  x,y,z
_cell_length_a	11.792254
_cell_length_b	15.944564
_cell_length_c	10.868271
_cell_angle_alpha	90.006315
_cell_angle_beta	89.995741
_cell_angle_gamma	96.148734
loop_
_atom_site_label
_atom_site_type_symbol
_atom_site_fract_x
_atom_site_fract_y
_atom_site_fract_z
O1	O	1.505958	-0.115178	-0.102325
O2	O	1.755958	0.134822	0.147675
O3	O	2.005958	0.384822	0.397675
O4	O	2.255958	0.634822	0.647675
O5	O	1.175522	-0.127032	-0.102328
O6	O	1.425522	0.122968	0.147672
O7	O	1.675522	0.372968	0.397672
O8	O	1.925522	0.622968	0.647672
O9	O	1.349756	0.001128	-0.102314
O10	O	1.599756	0.251128	0.147686
O11	O	1.849756	0.501128	0.397686
O12	O	2.099756	0.751128	0.647686
O13	O	1.331724	-0.243338	-0.102338
O14	O	1.581724	0.006662	0.147662
O15	O	1.831724	0.256662	0.397662
O16	O	2.081724	0.506662	0.647662
O17	O	1.349742	0.001133	0.102330
O18	O	1.599742	0.251133	0.352330
O19	O	1.849742	0.501133	0.602330
O20	O	2.099742	0.751133	0.852330
O21	O	1.175508	-0.127027	0.102317
O22	O	1.425508	0.122973	0.352317
O23	O	1.675508	0.372973	0.602317
O24	O	1.925508	0.622973	0.852317
O25	O	1.505944	-0.115173	0.102320
O26	O	1.755944	0.134827	0.352320
O27	O	2.005944	0.384827	0.602320
O28	O	2.255944	0.634827	0.852320
Zn29	Zn	1.340723	-0.121099	0.134810
Zn30	Zn	1.590723	0.128901	0.384810
Zn31	Zn	1.840723	0.378901	0.634810
Zn32	Zn	2.090723	0.628901	0.884810
Zn33	Zn	1.340742	-0.121106	-0.134818
Zn34	Zn	1.590742	0.128894	0.115182
Zn35	Zn	1.840742	0.378894	0.365182
Zn36	Zn	2.090742	0.628894	0.615182
O37	O	1.331710	-0.243333	0.102307
O38	O	1.581710	0.006667	0.352307
O39	O	1.831710	0.256667	0.602307
O40	O	2.081710	0.506667	0.852307
C41	C	1.133230	-0.126283	-0.000006
C42	C	1.383230	0.123717	0.249994
C43	C	1.633230	0.373717	0.499994
C44	C	1.883230	0.623717	0.749994
C45	C	1.007235	-0.124048	-0.000007
C46	C	1.257235	0.125952	0.249993
C47	C	1.507235	0.375952	0.499993
C48	C	1.757235	0.625952	0.749993
C49	C	0.904914	-0.122232	-0.000012
C50	C	1.154914	0.127768	0.249988
C51	C	1.404914	0.377768	0.499988
C52	C	1.654914	0.627768	0.749988
C53	C	0.776546	-0.119961	-0.000012
C54	C	1.026546	0.130039	0.249988
C55	C	1.276546	0.380039	0.499988
C56	C	1.526546	0.630039	0.749988
C57	C	1.348998	0.032428	0.000008
C58	C	1.598998	0.282428	0.250008
C59	C	1.848998	0.532428	0.500008
C60	C	2.098998	0.782428	0.750008
C61	C	1.346746	0.125683	0.000010
C62	C	1.596746	0.375683	0.250010
C63	C	1.846746	0.625683	0.500010
C64	C	2.096746	0.875683	0.750010
C65	C	1.233360	0.341054	-0.000007
C66	C	1.483360	0.591054	0.249993
C67	C	1.733360	0.841054	0.499993
C68	C	1.983360	1.091054	0.749993
C69	C	1.285996	0.401834	0.100896
C70	C	1.535996	0.651834	0.350896
C71	C	1.785996	0.901834	0.600896
C72	C	2.035996	1.151834	0.850896
C73	C	1.342672	0.296427	0.000001
C74	C	1.592672	0.546427	0.250001
C75	C	1.842672	0.796427	0.500001
C76	C	2.092672	1.046427	0.750001
C77	C	1.286036	0.401813	-0.100868
C78	C	1.536036	0.651813	0.149132
C79	C	1.786036	0.901813	0.399132
C80	C	2.036036	1.151813	0.649132
C81	C	1.338729	0.461356	-0.000013
C82	C	1.588729	0.711356	0.249987
C83	C	1.838729	0.961356	0.499987
C84	C	2.088729	1.211356	0.749987
C85	C	1.395337	0.355979	0.100987
C86	C	1.645337	0.605979	0.350987
C87	C	1.895337	0.855979	0.600987
C88	C	2.145337	1.105979	0.850987
C89	C	1.395362	0.355951	-0.100867
C90	C	1.645362	0.605951	0.149133
C91	C	1.895362	0.855951	0.399133
C92	C	2.145362	1.105951	0.649133
C93	C	1.448077	0.416713	0.000061
C94	C	1.698077	0.666713	0.250061
C95	C	1.948077	0.916713	0.500061
C96	C	2.198077	1.166713	0.750061
C97	C	1.344940	0.201415	0.000010
C98	C	1.594940	0.451415	0.250010
C99	C	1.844940	0.701415	0.500010
C100	C	2.094940	0.951415	0.750010
C101	C	1.336469	0.556367	-0.000013
C102	C	1.586469	0.806367	0.249987
C103	C	1.836469	1.056367	0.499987
C104	C	2.086469	1.306367	0.749987
C105	C	1.548235	-0.115922	-0.000005
C106	C	1.798235	0.134078	0.249995
C107	C	2.048235	0.384078	0.499995
C108	C	2.298235	0.634078	0.749995
C109	C	1.674230	-0.118157	-0.000012
C110	C	1.924230	0.131843	0.249988
C111	C	2.174230	0.381843	0.499988
C112	C	2.424230	0.631843	0.749988
N113	N	1.340719	-0.121094	0.318824
N114	N	1.590719	0.128906	0.568824
N115	N	1.840719	0.378906	0.818824
N116	N	2.090719	0.628906	1.068824
C117	C	1.332452	0.725366	-0.000017
C118	C	1.582452	0.975366	0.249983
C119	C	1.832452	1.225366	0.499983
C120	C	2.082452	1.475366	0.749983
C121	C	1.334658	0.632106	-0.000022
C122	C	1.584658	0.882106	0.249978
C123	C	1.834658	1.132106	0.499978
C124	C	2.084658	1.382106	0.749978
N125	N	1.340756	-0.121104	-0.318832
N126	N	1.590756	0.128896	-0.068832
N127	N	1.840756	0.378896	0.181168
N128	N	2.090756	0.628896	0.431168
C129	C	1.340736	-0.121104	0.569830
C130	C	1.590736	0.128896	0.819830
C131	C	1.840736	0.378896	1.069830
C132	C	2.090736	0.628896	1.319830
C133	C	1.340723	-0.121101	0.430153
C134	C	1.590723	0.128899	0.680153
C135	C	1.840723	0.378899	0.930153
C136	C	2.090723	0.628899	1.180153
H137	H	1.142631	0.308159	0.000093
H138	H	1.392631	0.558159	0.250093
H139	H	1.642631	0.808159	0.500093
H140	H	1.892631	1.058159	0.750093
F141	F	1.455751	0.329360	-0.212372
F142	F	1.705751	0.579360	0.037628
F143	F	1.955751	0.829360	0.287628
F144	F	2.205751	1.079360	0.537628
H145	H	1.441527	0.335780	0.186386
H146	H	1.691527	0.585780	0.436386
H147	H	1.941527	0.835780	0.686386
H148	H	2.191527	1.085780	0.936386
F149	F	1.566769	0.459516	0.000133
F150	F	1.816769	0.709516	0.250133
F151	F	2.066769	0.959516	0.500133
F152	F	2.316769	1.209516	0.750133
F153	F	1.225586	0.428345	-0.212359
F154	F	1.475586	0.678345	0.037641
F155	F	1.725586	0.928345	0.287641
F156	F	1.975586	1.178345	0.537641
H157	H	1.239755	0.422155	0.186200
H158	H	1.489755	0.672155	0.436200
H159	H	1.739755	0.922155	0.686200
H160	H	1.989755	1.172155	0.936200
