data_functionalizedCrystal
_audit_creation_method	'MofGen! by Chris Wilmer'
_symmetry_space_group_name_H-M	'P1'
_symmetry_Int_Tables_number	1
_symmetry_cell_setting	triclinic
loop_
_symmetry_equiv_pos_as_xyz
  x,y,z
_cell_length_a	21.883469
_cell_length_b	21.882911
_cell_length_c	21.879399
_cell_angle_alpha	60.006540
_cell_angle_beta	60.013207
_cell_angle_gamma	59.992231
loop_
_atom_site_label
_atom_site_type_symbol
_atom_site_fract_x
_atom_site_fract_y
_atom_site_fract_z
O1	O	0.084645	-0.892842	0.746620
O2	O	0.031867	-0.695139	0.601571
O3	O	0.157054	-0.820237	0.601476
O4	O	-0.040542	-0.767744	0.746716
O5	O	0.198586	-0.778715	0.642912
O6	O	0.073399	-0.653617	0.643007
O7	O	0.126177	-0.851320	0.788056
Cu8	Cu	0.103580	-0.748677	0.719315
Cu9	Cu	0.054464	-0.797782	0.670313
O10	O	0.000990	-0.726222	0.788151
N11	N	0.138128	-0.714145	0.753785
N12	N	0.019923	-0.832320	0.635843
C13	C	0.190018	-0.547369	0.805644
C14	C	0.190029	-0.662289	0.805630
C15	C	0.218780	-0.633565	0.834353
C16	C	0.344122	-0.611968	0.768360
C17	C	0.422474	-0.638085	0.742222
C18	C	0.422504	-0.764859	0.790561
C19	C	0.344154	-0.738739	0.816702
C20	C	0.208899	-0.508180	0.728617
C21	C	0.182748	-0.429822	0.702522
C22	C	0.118843	-0.429847	0.830485
C23	C	0.144993	-0.508205	0.856580
C24	C	0.112994	-0.643364	0.824587
C25	C	0.086865	-0.669476	0.798467
C26	C	0.214799	-0.733437	0.734451
C27	C	0.240932	-0.707325	0.760562
C28	C	0.113084	-0.643389	0.959747
C29	C	0.087018	-0.669524	1.038102
C30	C	0.214996	-0.733501	1.038048
C31	C	0.241061	-0.707367	0.959690
C32	C	0.190103	-0.662308	0.920542
C33	C	0.304966	-0.662293	0.805598
C34	C	-0.117460	-0.854702	0.612901
C35	C	-0.002405	-0.854864	0.498145
C36	C	-0.002621	-0.969735	0.613108
C37	C	-0.002603	-0.854858	0.613180
C38	C	-0.031272	-0.883541	0.584334
N39	N	0.460550	-0.714150	0.753681
O40	O	0.699805	-0.721060	0.574973
O41	O	0.700047	-0.866553	0.772482
O42	O	0.699952	-0.866219	0.647213
O43	O	0.699900	-0.721394	0.700242
O44	O	0.575478	-0.824800	0.688791
O45	O	0.575573	-0.825134	0.814060
O46	O	0.575331	-0.679641	0.616551
Cu47	Cu	0.564087	-0.748606	0.719102
Cu48	Cu	0.711292	-0.797588	0.669931
O49	O	0.575426	-0.679975	0.741820
N50	N	0.814828	-0.832044	0.635345
N51	N	0.138106	-0.391772	0.753815
O52	O	-0.040520	-0.152377	0.746758
O53	O	0.156993	-0.152371	0.601281
O54	O	0.031698	-0.152390	0.601639
O55	O	0.084775	-0.152358	0.746401
O56	O	0.073234	-0.276876	0.643130
O57	O	0.198529	-0.276856	0.642772
O58	O	0.001015	-0.276863	0.788249
Cu59	Cu	0.103564	-0.288226	0.719299
Cu60	Cu	0.054444	-0.141007	0.670231
O61	O	0.126310	-0.276844	0.787892
N62	N	0.019892	-0.037461	0.635717
N63	N	0.138332	-0.714192	1.076133
O64	O	0.131293	-0.892804	1.315506
O65	O	-0.014162	-0.695219	1.315533
O66	O	-0.013826	-0.820490	1.315480
O67	O	0.130957	-0.767533	1.315559
O68	O	0.027651	-0.778981	1.191001
O69	O	0.027314	-0.653710	1.191054
O70	O	0.172770	-0.851295	1.191026
Cu71	Cu	0.103829	-0.748713	1.179674
Cu72	Cu	0.054778	-0.797802	1.326885
O73	O	0.172434	-0.726024	1.191079
N74	N	0.020275	-0.832331	1.430426
C75	C	0.047687	-0.649466	0.602306
C76	C	0.202716	-0.804385	0.602188
C77	C	0.110357	-0.896993	0.787321
C78	C	-0.044672	-0.742074	0.787439
C79	C	0.637839	-0.865879	0.818154
C80	C	0.637724	-0.865466	0.663023
C81	C	0.637536	-0.680313	0.570880
C82	C	0.637655	-0.680728	0.726010
C83	C	0.202592	-0.214459	0.601942
C84	C	0.047481	-0.214636	0.602435
C85	C	-0.044635	-0.214620	0.787537
C86	C	0.110528	-0.214598	0.787096
C87	C	-0.013455	-0.649572	1.253296
C88	C	-0.013030	-0.804697	1.253206
C89	C	0.172063	-0.896942	1.253263
C90	C	0.171648	-0.741808	1.253325
H91	H	0.071582	-0.606692	0.927876
O92	O	0.123945	-0.214559	0.841427
C93	C	0.059703	-0.214580	0.906029
H94	H	0.008230	-0.191019	0.889696
H95	H	0.065769	-0.274303	0.946731
C96	C	0.114085	-0.194695	0.963738
C97	C	0.050864	-0.165750	0.943676
H98	H	0.108633	-0.164578	0.986963
H99	H	0.157367	-0.194683	0.920216
H100	H	0.119133	-0.244463	0.997653
H101	H	0.045822	-0.115987	0.909754
H102	H	0.007581	-0.165752	0.987194
O103	O	-0.112343	-0.728653	0.841876
C104	C	-0.125737	-0.668068	0.859148
H105	H	-0.070163	-0.662060	0.842598
H106	H	-0.161857	-0.614411	0.827011
C107	C	-0.234904	-0.689867	0.964113
C108	C	-0.166646	-0.682492	0.943791
H109	H	-0.260141	-0.698761	1.016323
H110	H	-0.225882	-0.730682	0.952475
H111	H	-0.264995	-0.645150	0.937325
H112	H	-0.136553	-0.727211	0.970571
H113	H	-0.175663	-0.641684	0.955436
O114	O	0.123677	-0.964747	0.841697
C115	C	0.072338	-0.997994	0.861835
H116	H	0.020503	-0.952659	0.846836
H117	H	0.099450	-1.038752	0.830316
C118	C	0.113315	-1.096174	0.965091
C119	C	0.049649	-1.040492	0.946675
H120	H	0.099322	-1.122393	1.017423
H121	H	0.147906	-1.073778	0.951523
H122	H	0.135903	-1.130132	0.938820
H123	H	0.027068	-1.006532	0.972938
H124	H	0.015054	-1.062884	0.960249
H125	H	0.454353	-0.597104	0.711898
O126	O	-0.067867	-0.581845	1.253337
C127	C	-0.040921	-0.535270	1.253347
H128	H	0.007126	-0.571270	1.276922
H129	H	-0.020146	-0.497471	1.193635
C130	C	-0.163468	-0.442610	1.273216
C131	C	-0.104459	-0.486826	1.302178
H132	H	-0.202661	-0.412724	1.303334
H133	H	-0.181622	-0.473987	1.273207
H134	H	-0.146145	-0.411117	1.223457
H135	H	-0.121780	-0.518324	1.351932
H136	H	-0.086309	-0.455453	1.302197
H137	H	0.071542	-0.606694	0.861281
O138	O	0.637538	-0.626357	0.739484
C139	C	0.573016	-0.563271	0.731238
H140	H	0.551488	-0.563869	0.693717
H141	H	0.527919	-0.564802	0.788495
C142	C	0.618975	-0.490751	0.741656
C143	C	0.592538	-0.491482	0.695566
H144	H	0.631015	-0.446468	0.719655
H145	H	0.662444	-0.533253	0.747215
H146	H	0.581390	-0.492029	0.789367
H147	H	0.630126	-0.490214	0.647861
H148	H	0.549076	-0.448978	0.689999
H149	H	0.259199	-0.214112	0.556156
O150	O	0.252667	-0.546341	0.679244
C151	C	0.271687	-0.623906	0.718793
H152	H	0.267047	-0.634618	0.777337
H153	H	0.231854	-0.646145	0.723186
C154	C	0.358237	-0.650966	0.605074
C155	C	0.352544	-0.664123	0.676976
H156	H	0.408112	-0.675775	0.579279
H157	H	0.345421	-0.598709	0.578428
H158	H	0.325038	-0.669499	0.608745
H159	H	0.385735	-0.645582	0.673305
H160	H	0.365367	-0.716378	0.703621
O161	O	0.270363	-0.817737	0.547704
C162	C	0.260520	-0.809331	0.484638
H163	H	0.205691	-0.817552	0.502658
H164	H	0.258863	-0.750823	0.442323
C165	C	0.393412	-0.857979	0.426433
C166	C	0.326073	-0.868083	0.448567
H167	H	0.433850	-0.894218	0.404180
H168	H	0.400044	-0.863640	0.468921
H169	H	0.392021	-0.809221	0.391174
H170	H	0.327461	-0.916837	0.483832
H171	H	0.319443	-0.862432	0.406084
O172	O	0.637413	-0.625722	0.503266
C173	C	0.637392	-0.561294	0.503293
H174	H	0.613874	-0.562199	0.563339
H175	H	0.697090	-0.560377	0.476509
C176	C	0.617379	-0.489819	0.384642
C177	C	0.588488	-0.490928	0.458391
H178	H	0.587216	-0.446414	0.356942
H179	H	0.617396	-0.533226	0.384622
H180	H	0.667127	-0.489058	0.362332
H181	H	0.538745	-0.491699	0.480703
H182	H	0.588461	-0.447519	0.458414
O183	O	0.033824	-0.214701	0.548278
C184	C	-0.039749	-0.214699	0.575546
H185	H	-0.059422	-0.238241	0.639300
H186	H	-0.078489	-0.154985	0.556602
C187	C	-0.017046	-0.234645	0.466500
C188	C	-0.041207	-0.263566	0.544803
H189	H	-0.017948	-0.264785	0.447534
H190	H	0.032520	-0.234644	0.448126
H191	H	-0.049333	-0.184884	0.450723
H192	H	-0.008915	-0.313322	0.560579
H193	H	-0.090769	-0.263577	0.563179
O194	O	-0.112361	-0.214574	0.841929
C195	C	-0.158954	-0.214599	0.815005
H196	H	-0.138703	-0.191050	0.751249
H197	H	-0.156932	-0.274321	0.834047
C198	C	-0.264810	-0.194688	0.924298
C199	C	-0.239941	-0.165757	0.845993
H200	H	-0.314767	-0.164563	0.943415
H201	H	-0.233419	-0.194674	0.942439
H202	H	-0.263119	-0.244455	0.940157
H203	H	-0.241623	-0.115995	0.830135
H204	H	-0.271333	-0.165762	0.827849
H205	H	0.217133	-0.730478	1.253340
H206	H	-0.058496	-0.816008	1.253133
H207	H	0.217732	-0.953686	1.253245
H208	H	0.637900	-0.911553	0.874882
O209	O	0.637613	-0.919678	0.649499
C210	C	0.573124	-0.893918	0.631905
H211	H	0.528054	-0.847460	0.656092
H212	H	0.587638	-0.871323	0.568524
C213	C	0.599310	-1.016117	0.635928
C214	C	0.543952	-0.959061	0.665639
H215	H	0.581317	-1.056300	0.656733
H216	H	0.642760	-1.033472	0.647779
H217	H	0.611400	-0.997279	0.583111
H218	H	0.531870	-0.977897	0.718454
H219	H	0.500500	-0.941710	0.653799
O220	O	0.012179	-0.651163	1.076095
C221	C	-0.020379	-0.677964	1.056972
H222	H	0.016742	-0.685640	1.000075
H223	H	-0.026186	-0.733962	1.101065
C224	C	-0.143839	-0.611801	1.123263
C225	C	-0.098249	-0.621222	1.053377
H226	H	-0.191874	-0.576802	1.121048
H227	H	-0.121905	-0.593747	1.136149
H228	H	-0.148670	-0.658470	1.160000
H229	H	-0.093411	-0.574556	1.016644
H230	H	-0.120184	-0.639268	1.040485
O231	O	0.264528	-0.777363	1.076036
C232	C	0.309849	-0.843064	1.056850
H233	H	0.279579	-0.853964	1.035327
H234	H	0.364872	-0.835931	1.011349
C235	C	0.363095	-0.896358	1.152866
C236	C	0.325914	-0.909749	1.126437
H237	H	0.373009	-0.937493	1.195788
H238	H	0.332564	-0.852093	1.165790
H239	H	0.408943	-0.890413	1.114941
H240	H	0.280063	-0.915685	1.164358
H241	H	0.356438	-0.954017	1.113520
O242	O	0.264349	-0.777154	0.690659
C243	C	0.337943	-0.788273	0.679553
H244	H	0.337802	-0.741037	0.688315
H245	H	0.360422	-0.844098	0.721242
C246	C	0.388329	-0.846833	0.588510
C247	C	0.388157	-0.788813	0.599265
H248	H	0.419305	-0.847169	0.538986
H249	H	0.338747	-0.839344	0.595994
H250	H	0.407060	-0.893347	0.623256
H251	H	0.369417	-0.742299	0.564526
H252	H	0.437736	-0.796293	0.591774
H253	H	0.024137	-0.654049	0.813885
O254	O	0.306232	-0.787724	0.852829
C255	C	0.357625	-0.860800	0.857033
H256	H	0.413458	-0.857818	0.810744
H257	H	0.365996	-0.890715	0.913809
C258	C	0.258459	-0.907902	0.904312
C259	C	0.327033	-0.904240	0.847455
H260	H	0.239588	-0.934700	0.898408
H261	H	0.223834	-0.858671	0.901483
H262	H	0.265444	-0.932830	0.951620
H263	H	0.320045	-0.879304	0.800150
H264	H	0.361656	-0.953469	0.850276
H265	H	0.303660	-0.722726	0.745118
O266	O	0.460693	-0.839092	0.801251
C267	C	0.538244	-0.851355	0.770211
H268	H	0.548917	-0.797429	0.725300
H269	H	0.560510	-0.869414	0.816064
C270	C	0.565353	-0.979431	0.790195
C271	C	0.578462	-0.913200	0.735029
H272	H	0.590162	-1.017582	0.768496
H273	H	0.513105	-0.971170	0.811109
H274	H	0.583908	-0.994471	0.828401
H275	H	0.559898	-0.898157	0.696829
H276	H	0.630707	-0.921460	0.714107
H277	H	0.312222	-0.549720	0.759316
O278	O	0.201181	-0.391864	0.627669
C279	C	0.246512	-0.443234	0.588308
H280	H	0.275030	-0.499095	0.625659
H281	H	0.210349	-0.451564	0.571426
C282	C	0.271328	-0.344029	0.471786
C283	C	0.306360	-0.412636	0.517659
H284	H	0.308244	-0.325154	0.428204
H285	H	0.240786	-0.309419	0.498303
H286	H	0.241194	-0.350979	0.457726
H287	H	0.336486	-0.405683	0.531726
H288	H	0.336909	-0.447244	0.491142
H289	H	0.082193	-0.397958	0.871963
O290	O	0.126612	-0.546163	0.931434
C291	C	0.081246	-0.494793	0.970795
H292	H	0.091218	-0.438931	0.933432
H293	H	0.019875	-0.486465	0.987704
C294	C	0.088877	-0.593998	1.087308
C295	C	0.101129	-0.525390	1.041421
H296	H	0.101139	-0.612872	1.130875
H297	H	0.119439	-0.628607	1.060790
H298	H	0.037735	-0.587049	1.101391
H299	H	0.152273	-0.532341	1.027330
H300	H	0.070577	-0.490782	1.067938
H301	H	0.036413	-0.592673	0.556752
H302	H	0.303780	-0.722782	0.927774
