data_functionalizedCrystal
_audit_creation_method	'MofGen! by Chris Wilmer'
_symmetry_space_group_name_H-M	'P1'
_symmetry_Int_Tables_number	1
_symmetry_cell_setting	triclinic
loop_
_symmetry_equiv_pos_as_xyz
  x,y,z
_cell_length_a	14.519731
_cell_length_b	14.519709
_cell_length_c	13.930277
_cell_angle_alpha	89.994503
_cell_angle_beta	89.992691
_cell_angle_gamma	83.684499
loop_
_atom_site_label
_atom_site_type_symbol
_atom_site_fract_x
_atom_site_fract_y
_atom_site_fract_z
O1	O	1.223859	0.120984	-0.079835
O2	O	1.723859	0.620984	0.420165
O3	O	0.955385	0.135200	-0.079837
O4	O	1.455385	0.635200	0.420163
O5	O	1.096740	-0.006146	-0.079827
O6	O	1.596740	0.493854	0.420173
O7	O	1.082504	0.262330	-0.079845
O8	O	1.582504	0.762330	0.420155
O9	O	1.096721	-0.006149	0.079835
O10	O	1.596721	0.493851	0.579835
O11	O	0.955365	0.135197	0.079825
O12	O	1.455365	0.635197	0.579825
O13	O	1.223839	0.120981	0.079827
O14	O	1.723839	0.620981	0.579827
Zn15	Zn	1.089599	0.128089	0.105176
Zn16	Zn	1.589599	0.628089	0.605176
Zn17	Zn	1.089625	0.128093	-0.105186
Zn18	Zn	1.589625	0.628093	0.394814
O19	O	1.082484	0.262327	0.079817
O20	O	1.582484	0.762327	0.579817
C21	C	0.921016	0.134532	-0.000006
C22	C	1.421016	0.634532	0.499994
C23	C	0.818635	0.132536	-0.000006
C24	C	1.318635	0.632536	0.499994
C25	C	0.735491	0.130915	-0.000010
C26	C	1.235491	0.630915	0.499990
C27	C	0.631182	0.128888	-0.000010
C28	C	1.131182	0.628888	0.499990
C29	C	0.548043	0.127280	-0.000010
C30	C	1.048043	0.627280	0.499990
C31	C	0.443728	0.125253	-0.000012
C32	C	0.943728	0.625253	0.499988
C33	C	1.096067	-0.040507	0.000004
C34	C	1.596067	0.459493	0.500004
C35	C	1.094079	-0.142889	0.000004
C36	C	1.594079	0.357111	0.500004
C37	C	1.086759	-0.517785	-0.000021
C38	C	1.586759	-0.017785	0.499979
C39	C	1.088792	-0.413477	-0.000013
C40	C	1.588792	0.086523	0.499987
C41	C	1.090419	-0.330340	-0.000007
C42	C	1.590419	0.169660	0.499993
C43	C	1.092452	-0.226025	-0.000002
C44	C	1.592452	0.273975	0.499998
C45	C	1.258209	0.121649	-0.000006
C46	C	1.758209	0.621649	0.499994
C47	C	1.360589	0.123645	-0.000012
C48	C	1.860589	0.623645	0.499988
C49	C	1.083157	0.296688	-0.000016
C50	C	1.583157	0.796688	0.499984
C51	C	1.085146	0.399070	-0.000023
C52	C	1.585146	0.899070	0.499977
N53	N	1.089588	0.128085	0.248742
N54	N	1.589588	0.628085	0.748742
N55	N	1.089643	0.128089	-0.248752
N56	N	1.589643	0.628089	0.251248
C57	C	1.027031	0.190656	0.701007
C58	C	1.527031	0.690656	1.201007
C59	C	1.152245	0.065522	0.700985
C60	C	1.652245	0.565522	1.200985
C61	C	1.152234	0.065519	0.600489
C62	C	1.652234	0.565519	1.100489
C63	C	1.089621	0.128087	0.550248
C64	C	1.589621	0.628087	1.050248
C65	C	1.027019	0.190657	0.600502
C66	C	1.527019	0.690657	1.100502
C67	C	1.214841	0.002956	0.550227
C68	C	1.714841	0.502956	1.050227
C69	C	1.214833	0.002952	0.449725
C70	C	1.714833	0.502952	0.949725
C71	C	1.152215	0.065515	0.399482
C72	C	1.652215	0.565515	0.899482
C73	C	1.089610	0.128087	0.449743
C74	C	1.589610	0.628087	0.949743
C75	C	1.026997	0.190655	0.399501
C76	C	1.526997	0.690655	0.899501
C77	C	0.964387	0.253223	0.449760
C78	C	1.464387	0.753223	0.949760
C79	C	0.964401	0.253221	0.550259
C80	C	1.464401	0.753221	1.050259
C81	C	1.152201	0.065518	0.298983
C82	C	1.652201	0.565518	0.798983
C83	C	1.026986	0.190656	0.298996
C84	C	1.526986	0.690656	0.798996
H85	H	0.975996	0.241603	0.258096
H86	H	1.475996	0.741603	0.758096
H87	H	0.913411	0.304170	0.408842
H88	H	1.413411	0.804170	0.908842
N89	N	1.282357	-0.064530	0.395521
N90	N	1.782357	0.435470	0.895521
H91	H	1.322023	-0.104164	0.442600
H92	H	1.822023	0.395836	0.942600
H93	H	1.246981	-0.105384	0.353840
H94	H	1.746981	0.394616	0.853840
N95	N	1.219764	-0.001966	0.755171
N96	N	1.719764	0.498034	1.255171
H97	H	1.259417	-0.041606	0.708084
H98	H	1.759417	0.458394	1.208084
H99	H	1.260597	0.033429	0.796857
H100	H	1.760597	0.533429	1.296857
N101	N	0.896883	0.320698	0.604473
N102	N	1.396883	0.820698	1.104473
H103	H	0.932199	0.361611	0.646153
H104	H	1.432199	0.861611	1.146153
H105	H	0.857227	0.360274	0.557343
H106	H	1.357227	0.860274	1.057343
N107	N	0.959498	0.258133	0.755205
N108	N	1.459498	0.758133	1.255205
H109	H	0.968999	0.248640	0.826495
H110	H	1.468999	0.748640	1.326495
H111	H	0.970251	0.323584	0.737631
H112	H	1.470251	0.823584	1.237631
N113	N	1.282364	-0.064514	0.604429
N114	N	1.782364	0.435486	1.104429
H115	H	1.247054	-0.105425	0.646135
H116	H	1.747054	0.394575	1.146135
H117	H	1.322016	-0.104092	0.557294
H118	H	1.822016	0.395908	1.057294
N119	N	1.219727	-0.001951	0.244775
N120	N	1.719727	0.498049	0.744775
H121	H	1.259397	-0.041583	0.291852
H122	H	1.759397	0.458417	0.791852
H123	H	1.184358	-0.042808	0.203091
H124	H	1.684358	0.457192	0.703091
