data_functionalizedCrystal
_audit_creation_method	'MofGen! by Chris Wilmer'
_symmetry_space_group_name_H-M	'P1'
_symmetry_Int_Tables_number	1
_symmetry_cell_setting	triclinic
loop_
_symmetry_equiv_pos_as_xyz
  x,y,z
_cell_length_a	17.052862
_cell_length_b	14.628931
_cell_length_c	14.628931
_cell_angle_alpha	60.000000
_cell_angle_beta	89.999927
_cell_angle_gamma	50.259505
loop_
_atom_site_label
_atom_site_type_symbol
_atom_site_fract_x
_atom_site_fract_y
_atom_site_fract_z
Zr1	Zr	0.914393	0.679066	0.040793
O2	O	0.762834	0.923061	-0.131813
O3	O	0.960853	0.472024	0.093706
O4	O	0.960854	0.662729	-0.097000
O5	O	0.762834	0.732356	0.209324
O6	O	1.117055	0.607806	-0.069539
O7	O	0.762834	0.732356	0.058893
O8	O	1.117054	0.266670	0.271599
O9	O	0.762835	1.073492	-0.131813
O10	O	1.097239	0.502509	0.136766
O11	O	0.980668	0.543497	0.228538
O12	O	0.980669	0.768028	0.004007
O13	O	0.864097	0.809016	0.095778
Zr14	Zr	1.163515	0.591471	0.324511
Zr15	Zr	1.163515	0.591471	0.084590
Zr16	Zr	0.914392	0.679066	0.280714
Zr17	Zr	0.914393	0.918987	0.040793
Zr18	Zr	1.163515	0.351550	0.324511
O19	O	1.117055	0.798513	0.271598
O20	O	1.117055	0.798512	-0.069539
O21	O	0.762834	0.923062	0.209324
O22	O	1.315073	0.347476	0.497117
O23	O	1.315074	0.347475	0.155980
O24	O	0.960852	0.472025	0.434843
O25	O	1.315074	0.538181	0.155979
O26	O	1.117054	0.607808	0.462304
O27	O	0.960853	0.662731	0.434843
O28	O	1.315074	0.538181	0.306411
O29	O	0.960854	1.003866	-0.097000
O30	O	1.117053	0.266671	0.462304
O31	O	1.315073	0.197045	0.497117
O32	O	1.315073	0.197044	0.306412
O33	O	0.762834	1.073493	0.058892
O34	O	0.960854	1.003867	0.093705
O35	O	1.097239	0.502510	0.361297
O36	O	1.213810	0.461521	0.269526
O37	O	1.097240	0.727040	0.136766
O38	O	0.980668	0.768028	0.228538
C39	C	1.038953	0.335163	0.182652
C40	C	1.038953	0.233311	0.182652
C41	C	1.096780	0.167568	0.137128
C42	C	1.096782	0.062298	0.137127
C43	C	0.727339	0.744836	0.127868
C44	C	0.621580	0.782023	0.109275
C45	C	0.566863	0.332439	0.334063
C46	C	0.666231	0.297496	0.351528
C47	C	0.655074	0.418624	0.290967
C48	C	0.544537	0.574703	0.212937
C49	C	0.445159	0.609649	0.195463
C50	C	0.533370	0.695834	0.152367
C51	C	0.422834	0.851913	0.074337
C52	C	0.323467	0.886853	0.056868
C53	C	0.334624	0.765725	0.117429
C54	C	0.632748	0.660888	0.169841
C55	C	0.511045	0.938098	0.031241
C56	C	0.411677	0.973041	0.013776
C57	C	1.350569	0.525701	0.237435
C58	C	1.456328	0.488514	0.256028
C59	C	1.038954	0.635267	-0.117453
C60	C	1.038954	0.635267	-0.219306
C61	C	1.038954	0.935374	0.182652
C62	C	1.038954	1.037227	0.182651
C63	C	0.981127	0.766982	-0.330572
C64	C	0.981126	0.766985	-0.435844
C65	C	1.038953	0.635270	0.482757
C66	C	1.038953	0.635270	0.584609
C67	C	1.350568	0.225596	0.237436
C68	C	1.456327	0.086556	0.256029
C69	C	1.038953	0.335164	0.482757
C70	C	1.038953	0.233312	0.584610
C71	C	1.350568	0.225597	0.537541
C72	C	1.456327	0.086558	0.657986
C73	C	0.727340	1.044940	-0.172237
C74	C	0.621581	1.183979	-0.292683
C75	C	0.727339	1.044941	0.127868
C76	C	0.621580	1.183981	0.109275
C77	C	1.038955	0.935373	-0.117453
C78	C	1.038955	1.037225	-0.219306
C79	C	1.445144	0.042657	0.195451
C80	C	1.544506	-0.087968	0.212898
C81	C	1.655051	-0.174699	0.290928
C82	C	1.666232	-0.130790	0.351507
C83	C	1.566870	-0.000160	0.334054
C84	C	1.566852	-0.000136	0.666647
C85	C	1.666233	-0.130767	0.779811
C86	C	1.655086	-0.174710	0.884313
C87	C	1.544550	-0.088003	0.875649
C88	C	1.445171	0.042633	0.762486
C89	C	0.511056	1.270684	-0.301343
C90	C	0.411675	1.401346	-0.414507
C91	C	0.422821	1.445293	-0.519009
C92	C	0.533358	1.358580	-0.510345
C93	C	0.632736	1.227928	-0.397182
C94	C	0.632764	1.227890	0.169842
C95	C	0.533401	1.358542	0.152370
C96	C	0.422857	1.445276	0.074336
C97	C	0.411676	1.401362	0.013762
C98	C	0.511037	1.270719	0.031228
C99	C	1.096780	0.167570	0.695877
C100	C	1.096781	0.062300	0.801149
H101	H	1.146285	0.005847	0.098145
H102	H	1.575992	0.035565	0.383393
Cl103	Cl	0.962506	0.199904	0.557849
H104	H	0.501958	1.234915	-0.216265
H105	H	0.501956	1.036731	-0.018075
H106	H	0.321665	1.100121	-0.049757
H107	H	0.722740	0.533806	0.233381
H108	H	0.575932	0.233833	0.383358
Cl109	Cl	0.272729	1.510326	-0.425372
Cl110	Cl	0.962504	0.124395	0.242824
H111	H	0.931612	0.879753	-0.531279
H112	H	1.146293	0.189210	0.098158
H113	H	1.535380	-0.123700	0.163564
H114	H	0.989449	0.093674	0.685265
Cl115	Cl	1.779952	-0.338921	0.312859
H116	H	1.756250	-0.201425	0.415040
H117	H	0.253715	0.794167	0.103219
Cl118	Cl	0.779997	0.374692	0.312926
Cl119	Cl	0.805181	0.101292	0.449618
Cl120	Cl	0.962521	0.199883	0.242838
Cl121	Cl	1.780033	-0.338947	1.026568
H122	H	0.233466	1.013943	-0.006679
H123	H	1.575949	0.035620	0.581569
Cl124	Cl	1.115389	0.461155	-0.268052
H125	H	1.535491	-0.123801	0.960750
Cl126	Cl	1.306229	0.151598	0.751619
Cl127	Cl	0.297875	1.609546	-0.661264
Cl128	Cl	0.904695	0.941088	-0.357331
Cl129	Cl	1.805178	-0.239751	0.790676
H130	H	0.321657	1.472000	-0.049774
H131	H	1.146290	0.005840	0.896583
H132	H	0.542420	1.394380	-0.595444
H133	H	1.088465	0.522502	-0.201981
Cl134	Cl	1.306185	0.151671	0.097343
H135	H	0.722766	1.157279	0.233392
Cl136	Cl	0.771678	1.118931	-0.386315
H137	H	0.542528	1.394272	0.201705
H138	H	0.341960	1.551651	0.060124
H139	H	0.501915	1.234976	-0.018093
H140	H	1.146282	0.189228	0.713200
