data_functionalizedCrystal
_audit_creation_method	'MofGen! by Chris Wilmer'
_symmetry_space_group_name_H-M	'P1'
_symmetry_Int_Tables_number	1
_symmetry_cell_setting	triclinic
loop_
_symmetry_equiv_pos_as_xyz
  x,y,z
_cell_length_a	8.559649
_cell_length_b	8.559648
_cell_length_c	8.140239
_cell_angle_alpha	90.008289
_cell_angle_beta	90.002894
_cell_angle_gamma	110.221336
loop_
_atom_site_label
_atom_site_type_symbol
_atom_site_fract_x
_atom_site_fract_y
_atom_site_fract_z
O1	O	2.126878	0.055037	0.136618
O2	O	2.626878	0.555037	0.636618
O3	O	1.651393	-0.028744	0.136604
O4	O	2.151393	0.471256	0.636604
O5	O	1.931026	0.250889	0.136653
O6	O	2.431026	0.750889	0.636653
O7	O	1.847245	-0.224596	0.136570
O8	O	2.347245	0.275404	0.636570
O9	O	1.931013	0.250890	-0.136574
O10	O	2.431013	0.750890	0.363426
O11	O	1.651380	-0.028743	-0.136623
O12	O	2.151380	0.471257	0.363377
O13	O	2.126864	0.055038	-0.136609
O14	O	2.626864	0.555038	0.363391
Zn15	Zn	1.889120	0.013148	-0.179997
Zn16	Zn	2.389120	0.513148	0.320003
Zn17	Zn	1.889138	0.013146	0.179992
Zn18	Zn	2.389138	0.513146	0.679992
O19	O	1.847231	-0.224595	-0.136658
O20	O	2.347231	0.275405	0.363342
C21	C	1.591077	-0.035093	-0.000010
C22	C	2.091077	0.464907	0.499990
C23	C	1.411378	-0.053992	-0.000013
C24	C	1.911378	0.446008	0.499987
C25	C	1.937369	0.311198	0.000053
C26	C	2.437369	0.811198	0.500053
C27	C	1.956268	0.490898	0.000095
C28	C	2.456268	0.990898	0.500095
C29	C	2.187180	0.061387	0.000009
C30	C	2.687180	0.561387	0.500009
C31	C	2.366879	0.080286	0.000022
C32	C	2.866879	0.580286	0.500022
N33	N	1.889120	0.013151	-0.425679
N34	N	2.389120	0.513151	0.074321
C35	C	1.840889	0.715096	-0.000009
C36	C	2.340889	1.215096	0.499991
C37	C	1.821990	0.535396	0.000097
C38	C	2.321990	1.035396	0.500097
N39	N	1.889152	0.013157	0.425674
N40	N	2.389152	0.513157	0.925674
H41	H	1.466268	0.209714	0.000045
H42	H	1.966268	0.709714	0.500045
H43	H	2.085696	0.590286	0.000100
H44	H	2.585696	1.090286	0.500100
O45	O	1.292619	-0.208273	-0.000097
O46	O	1.792619	0.291727	0.499903
C47	C	1.133619	-0.193433	-0.000025
C48	C	1.633619	0.306567	0.499975
H49	H	1.142918	-0.066762	-0.051728
H50	H	1.642918	0.433238	0.448272
H51	H	1.045402	-0.296013	-0.079354
H52	H	1.545402	0.203987	0.420646
H53	H	1.083964	-0.205524	0.131063
H54	H	1.583964	0.294476	0.631063
O55	O	1.667709	0.416637	0.000157
O56	O	2.167709	0.916637	0.500157
C57	C	1.682549	0.257637	0.000098
C58	C	2.182549	0.757637	0.500098
H59	H	1.809225	0.266951	0.051825
H60	H	2.309225	0.766951	0.551825
H61	H	1.579977	0.169443	0.079413
H62	H	2.079977	0.669443	0.579413
H63	H	1.670443	0.207945	-0.130989
H64	H	2.170443	0.707945	0.369011
