data_functionalizedCrystal
_audit_creation_method	'MofGen! by Chris Wilmer'
_symmetry_space_group_name_H-M	'P1'
_symmetry_Int_Tables_number	1
_symmetry_cell_setting	triclinic
loop_
_symmetry_equiv_pos_as_xyz
  x,y,z
_cell_length_a	13.897449
_cell_length_b	13.897448
_cell_length_c	12.759393
_cell_angle_alpha	89.966654
_cell_angle_beta	89.979470
_cell_angle_gamma	90.018972
loop_
_atom_site_label
_atom_site_type_symbol
_atom_site_fract_x
_atom_site_fract_y
_atom_site_fract_z
Zn1	Zn	1.474701	-0.383925	-0.594025
Zn2	Zn	1.474595	-0.545254	-0.418340
Zn3	Zn	1.313390	-0.383979	-0.418359
Zn4	Zn	1.313372	-0.545183	-0.593975
O5	O	1.394014	-0.464585	-0.506175
O6	O	1.609668	-0.405333	-0.570734
O7	O	1.453175	-0.523913	-0.271321
O8	O	1.334841	-0.248990	-0.441690
O9	O	1.609591	-0.523861	-0.441658
O10	O	1.453355	-0.248951	-0.570752
O11	O	1.334738	-0.405424	-0.271335
O12	O	1.178406	-0.405356	-0.441641
O13	O	1.334808	-0.523740	-0.741003
O14	O	1.178392	-0.523792	-0.570666
O15	O	1.453336	-0.405264	-0.741040
O16	O	1.453157	-0.680227	-0.441610
O17	O	1.334706	-0.680174	-0.570648
C18	C	1.143400	-0.464573	-0.506151
C19	C	1.036186	-0.464590	-0.506166
C20	C	0.839891	-0.464594	-0.506193
C21	C	0.949124	-0.464589	-0.506175
C22	C	1.393944	-0.715200	-0.506144
C23	C	1.394002	-0.822414	-0.506167
C24	C	1.394103	-1.018709	-0.506232
C25	C	1.394044	-0.909476	-0.506199
C26	C	1.645607	-0.464599	-0.506199
C27	C	1.752821	-0.464605	-0.506210
C28	C	1.394082	-0.464488	-0.780208
C29	C	1.394111	-0.464447	-0.896985
C30	C	1.394111	-0.212992	-0.506228
C31	C	1.394153	-0.105778	-0.506251
C32	C	1.455837	-0.402750	-0.951868
C33	C	1.455860	-0.402716	-1.061592
C34	C	1.332428	-0.526081	-1.061541
C35	C	1.332401	-0.526111	-0.951819
C36	C	1.517547	-0.341086	-0.897034
C37	C	1.579278	-0.279386	-0.951917
C38	C	1.579301	-0.279351	-1.061642
C39	C	1.517592	-0.341017	-1.116483
C40	C	1.394003	-0.464613	-0.233207
C41	C	1.394161	-0.464382	-0.116431
H42	H	1.517537	-0.341110	-0.807692
H43	H	1.629559	-0.229105	-1.106324
H44	H	1.517605	-0.340972	-1.205828
Cl45	Cl	1.656835	-0.201853	-0.882976
Cl46	Cl	1.254861	-0.603602	-1.130485
Cl47	Cl	1.254800	-0.603672	-0.882818
