data_functionalizedCrystal
_audit_creation_method	'MofGen! by Chris Wilmer'
_symmetry_space_group_name_H-M	'P1'
_symmetry_Int_Tables_number	1
_symmetry_cell_setting	triclinic
loop_
_symmetry_equiv_pos_as_xyz
  x,y,z
_cell_length_a	9.065215
_cell_length_b	14.472310
_cell_length_c	9.065218
_cell_angle_alpha	89.991628
_cell_angle_beta	94.984675
_cell_angle_gamma	90.012541
loop_
_atom_site_label
_atom_site_type_symbol
_atom_site_fract_x
_atom_site_fract_y
_atom_site_fract_z
O1	O	1.960423	0.076848	-0.216327
O2	O	2.460423	0.576848	0.283673
O3	O	1.531138	0.076854	-0.234078
O4	O	2.031138	0.576854	0.265922
O5	O	1.754654	0.076827	-0.010560
O6	O	2.254654	0.576827	0.489440
O7	O	1.736908	0.076875	-0.439845
O8	O	2.236908	0.576875	0.060155
O9	O	1.754596	-0.076855	-0.010572
O10	O	2.254596	0.423145	0.489428
O11	O	1.531080	-0.076828	-0.234090
O12	O	2.031080	0.423172	0.265910
O13	O	1.960365	-0.076834	-0.216339
O14	O	2.460365	0.423166	0.283661
Cu15	Cu	1.745717	-0.090864	-0.225216
Cu16	Cu	2.245717	0.409136	0.274784
Cu17	Cu	1.745786	0.090883	-0.225201
Cu18	Cu	2.245786	0.590883	0.274799
O19	O	1.736849	-0.076807	-0.439857
O20	O	2.236849	0.423193	0.060143
C21	C	1.476122	0.000013	-0.232379
C22	C	1.976122	0.500013	0.267621
C23	C	1.312279	0.000014	-0.227281
C24	C	1.812279	0.500014	0.272719
N25	N	1.745680	-0.218694	-0.225225
N26	N	2.245680	0.281306	0.274775
C27	C	1.745784	-0.592786	-0.225195
C28	C	2.245784	-0.092786	0.274805
C29	C	1.625773	-0.553606	-0.344383
C30	C	2.125773	-0.053606	0.155617
C31	C	1.626059	-0.446518	-0.344827
C32	C	2.126059	0.053482	0.155173
C33	C	1.745731	-0.407195	-0.225210
C34	C	2.245731	0.092805	0.274790
C35	C	1.900141	-0.446029	-0.260893
C36	C	2.400141	0.053971	0.239107
C37	C	1.899469	-0.553151	-0.261743
C38	C	2.399469	-0.053151	0.238257
C39	C	1.712754	-0.553332	-0.069984
C40	C	2.212754	-0.053332	0.430016
C41	C	1.709236	-0.446204	-0.070969
C42	C	2.209236	0.053796	0.429031
C43	C	1.745711	-0.302306	-0.225216
C44	C	2.245711	0.197694	0.274784
C45	C	1.745814	-0.697674	-0.225193
C46	C	2.245814	-0.197674	0.274807
C47	C	2.015381	0.000009	-0.218038
C48	C	2.515381	0.500009	0.281962
C49	C	2.179224	0.000014	-0.223136
C50	C	2.679224	0.500014	0.276864
C51	C	1.752919	-0.000018	0.044421
C52	C	2.252919	0.499982	0.544421
C53	C	1.747819	-0.000030	0.208264
C54	C	2.247819	0.499970	0.708264
N55	N	1.745835	0.218714	-0.225180
N56	N	2.245835	0.718714	0.274820
C57	C	1.738584	0.000014	0.505163
C58	C	2.238584	0.500014	1.005163
C59	C	1.743683	-0.000044	0.341320
C60	C	2.243683	0.499956	0.841320
H61	H	1.511350	-0.420263	-0.323264
H62	H	2.011350	0.079737	0.176736
H63	H	1.991664	-0.420556	-0.176478
H64	H	2.491664	0.079444	0.323522
C65	C	1.654199	-0.589901	-0.499058
C66	C	2.154199	-0.089901	0.000942
H67	H	1.581209	-0.565894	-0.570410
H68	H	2.081209	-0.065894	-0.070410
H69	H	1.749568	-0.570727	-0.522684
H70	H	2.249568	-0.070727	-0.022684
H71	H	1.649342	-0.655475	-0.499509
H72	H	2.149342	-0.155475	0.000491
C73	C	1.939898	-0.409768	-0.412168
C74	C	2.439898	0.090232	0.087832
H75	H	1.862609	-0.370974	-0.453776
H76	H	2.362609	0.129026	0.046224
H77	H	2.029517	-0.375532	-0.399461
H78	H	2.529517	0.124468	0.100539
H79	H	1.952062	-0.460437	-0.476610
H80	H	2.452062	0.039563	0.023390
C81	C	1.563766	-0.589861	-0.024351
C82	C	2.063766	-0.089861	0.475649
H83	H	1.520310	-0.629520	-0.099541
H84	H	2.020310	-0.129520	0.400459
H85	H	1.579794	-0.623233	0.065857
H86	H	2.079794	-0.123233	0.565857
H87	H	1.499260	-0.539359	-0.011256
H88	H	1.999260	-0.039359	0.488744
C89	C	1.470314	-0.588453	-0.315715
C90	C	1.970314	-0.088453	0.184285
H91	H	1.477201	-0.627214	-0.230807
H92	H	1.977201	-0.127214	0.269193
H93	H	1.408276	-0.537219	-0.299468
H94	H	1.908276	-0.037219	0.200532
H95	H	1.429566	-0.622448	-0.399184
H96	H	1.929566	-0.122448	0.100816
H97	H	1.647366	-0.420871	-0.459964
H98	H	2.147366	0.079129	0.040036
C99	C	1.938345	-0.586879	-0.414744
C100	C	2.438345	-0.086879	0.085256
H101	H	1.954392	-0.535114	-0.475798
H102	H	2.454392	-0.035114	0.024202
H103	H	2.025635	-0.623419	-0.403478
H104	H	2.525635	-0.123419	0.096522
H105	H	1.858964	-0.622899	-0.459364
H106	H	2.358964	-0.122899	0.040636
H107	H	1.991671	-0.579067	-0.178465
H108	H	2.491671	-0.079067	0.321535
C109	C	1.830928	-0.587566	0.049880
C110	C	2.330928	-0.087566	0.549880
H111	H	1.810385	-0.563494	0.143415
H112	H	2.310385	-0.063494	0.643415
H113	H	1.829436	-0.653161	0.053260
H114	H	2.329436	-0.153161	0.553260
H115	H	1.925875	-0.567149	0.026913
H116	H	2.425875	-0.067149	0.526913
H117	H	1.595640	-0.420824	-0.043937
H118	H	2.095640	0.079176	0.456063
H119	H	1.790811	-0.419441	0.022040
H120	H	2.290811	0.080559	0.522040
