data_functionalizedCrystal
_audit_creation_method	'MofGen! by Chris Wilmer'
_symmetry_space_group_name_H-M	'P1'
_symmetry_Int_Tables_number	1
_symmetry_cell_setting	triclinic
loop_
_symmetry_equiv_pos_as_xyz
  x,y,z
_cell_length_a	15.995350
_cell_length_b	10.654550
_cell_length_c	9.730223
_cell_angle_alpha	90.000193
_cell_angle_beta	89.996557
_cell_angle_gamma	83.988639
loop_
_atom_site_label
_atom_site_type_symbol
_atom_site_fract_x
_atom_site_fract_y
_atom_site_fract_z
O1	O	-1.111921	-0.161868	-0.114170
O2	O	-0.868261	-0.181857	-0.114198
O3	O	-0.995693	0.010950	-0.114178
O4	O	-0.984489	-0.354675	-0.114190
O5	O	-0.995692	0.010945	0.114402
O6	O	-0.868260	-0.181862	0.114382
O7	O	-1.111919	-0.161872	0.114410
Zn8	Zn	-0.990089	-0.171868	0.150688
Zn9	Zn	-0.990091	-0.171861	-0.150476
O10	O	-0.984487	-0.354680	0.114390
C11	C	-0.994870	0.057735	0.000110
C12	C	-0.992409	0.197146	0.000105
C13	C	-0.837061	-0.181033	0.000089
C14	C	-0.744096	-0.178555	0.000078
C15	C	-1.143119	-0.162696	0.000121
C16	C	-1.236084	-0.165174	0.000122
C17	C	-0.406297	-0.169658	0.000107
C18	C	-0.452934	-0.032344	0.000621
C19	C	-0.549639	-0.034822	0.000096
C20	C	-0.573883	-0.174071	0.000093
C21	C	-0.533190	-0.241796	-0.130434
C22	C	-0.436535	-0.238347	-0.130533
C23	C	-0.436211	-0.241189	0.129405
C24	C	-0.533156	-0.241157	0.131120
C25	C	-0.668595	-0.176573	0.000081
C26	C	-0.311585	-0.167161	0.000110
C27	C	-0.985311	-0.401464	0.000099
C28	C	-0.987772	-0.540875	0.000095
N29	N	-0.990094	-0.171871	0.356225
C30	C	-1.067438	0.277612	0.000118
C31	C	-1.065121	0.408603	0.000108
C32	C	-0.912737	0.378648	0.000078
C33	C	-0.915055	0.247660	0.000078
C34	C	-1.155416	0.294907	0.000141
C35	C	-1.153098	0.425897	0.000131
N36	N	-0.990093	-0.171848	-0.356012
C37	C	-1.046536	-0.086525	0.428159
C38	C	-1.046533	-0.086510	0.572042
C39	C	-0.933646	-0.257198	0.572043
C40	C	-0.933644	-0.257206	0.428163
C41	C	-1.111713	0.012017	0.428160
C42	C	-1.111711	0.012032	0.572043
H43	H	-0.434093	0.022541	0.094227
H44	H	-1.176054	-0.008646	0.611100
H45	H	-1.186246	0.468089	0.095793
N46	N	-1.186447	0.483634	-0.123658
N47	N	-1.141174	0.544084	-0.198166
H48	H	-1.164725	0.584867	-0.285588
N49	N	-1.093750	0.132854	0.379134
N50	N	-1.030708	0.141769	0.305266
H51	H	-1.018017	0.227104	0.270632
N52	N	-0.875972	-0.344374	0.354704
N53	N	-0.825576	-0.420552	0.418955
H54	H	-0.784840	-0.482116	0.367075
N55	N	-0.584927	0.031993	0.117447
N56	N	-0.637413	0.126375	0.101791
H57	H	-0.662335	0.173574	0.184669
H58	H	-0.577186	0.018777	-0.093631
H59	H	-1.172504	-0.017777	0.383540
N60	N	-0.427942	0.036195	-0.116146
N61	N	-0.375934	-0.015648	-0.199740
H62	H	-0.358281	0.032754	-0.282210
H63	H	-0.405037	-0.342430	0.130285
H64	H	-1.189828	0.266000	-0.095509
H65	H	-0.853959	0.182149	0.000049
N66	N	-0.875989	-0.344348	0.645550
N67	N	-0.875992	-0.344324	0.774013
H68	H	-0.835271	-0.405875	0.825928
H69	H	-0.549111	-0.342702	0.139002
H70	H	-0.404872	-0.339160	-0.136459
H71	H	-1.183431	0.259644	0.098840
N72	N	-0.413215	-0.176387	-0.252939
N73	N	-0.468300	-0.135987	-0.337697
H74	H	-0.451835	-0.092225	-0.424149
N75	N	-1.086175	0.126122	0.628018
N76	N	-1.014952	0.157924	0.601033
H77	H	-0.996912	0.238497	0.640565
N78	N	-0.551656	-0.370133	-0.136513
N79	N	-0.595118	-0.413216	-0.044495
H80	H	-0.608161	-0.503855	-0.048784
H81	H	-0.561292	-0.194753	-0.227572
H82	H	-0.560185	-0.191718	0.227684
N83	N	-0.833719	0.430230	0.000081
N84	N	-0.766734	0.358366	0.000080
H85	H	-0.710924	0.394792	0.000087
H86	H	-0.415414	-0.196300	0.228341
