data_functionalizedCrystal
_audit_creation_method	'MofGen! by Chris Wilmer'
_symmetry_space_group_name_H-M	'P1'
_symmetry_Int_Tables_number	1
_symmetry_cell_setting	triclinic
loop_
_symmetry_equiv_pos_as_xyz
  x,y,z
_cell_length_a	18.050589
_cell_length_b	12.759395
_cell_length_c	18.050583
_cell_angle_alpha	89.986213
_cell_angle_beta	90.031910
_cell_angle_gamma	89.974303
loop_
_atom_site_label
_atom_site_type_symbol
_atom_site_fract_x
_atom_site_fract_y
_atom_site_fract_z
Zn1	Zn	-0.295656	-1.606099	0.419891
Zn2	Zn	0.037677	-1.272765	0.753224
Zn3	Zn	0.371010	-0.939432	1.086558
Zn4	Zn	-0.419869	-1.605969	0.295710
Zn5	Zn	-0.086536	-1.272636	0.629044
Zn6	Zn	0.246797	-0.939302	0.962377
Zn7	Zn	-0.295692	-1.430418	0.295720
Zn8	Zn	0.037641	-1.097085	0.629053
Zn9	Zn	0.370975	-0.763751	0.962386
Zn10	Zn	-0.419803	-1.430348	0.419864
Zn11	Zn	-0.086470	-1.097014	0.753197
Zn12	Zn	0.246863	-0.763681	1.086530
O13	O	-0.357755	-1.518208	0.357796
O14	O	-0.024422	-1.184875	0.691129
O15	O	0.308911	-0.851542	1.024463
O16	O	-0.312146	-1.753102	0.403425
O17	O	0.021187	-1.419769	0.736759
O18	O	0.354521	-1.086436	1.070092
O19	O	-0.403439	-1.582657	0.191787
O20	O	-0.070106	-1.249323	0.525120
O21	O	0.263227	-0.915990	0.858454
O22	O	-0.191763	-1.453806	0.312207
O23	O	0.141571	-1.120473	0.645540
O24	O	0.474904	-0.787139	0.978873
O25	O	-0.403405	-1.753007	0.312191
O26	O	-0.070071	-1.419674	0.645524
O27	O	0.263262	-1.086340	0.978857
O28	O	-0.191736	-1.582878	0.403435
O29	O	0.141597	-1.249544	0.736768
O30	O	0.474930	-0.916211	1.070101
O31	O	-0.312207	-1.453680	0.191794
O32	O	0.021126	-1.120347	0.525127
O33	O	0.354460	-0.787013	0.858461
O34	O	-0.312143	-1.283387	0.312180
O35	O	0.021190	-0.950054	0.645514
O36	O	0.354523	-0.616721	0.978847
O37	O	-0.403293	-1.453686	0.523792
O38	O	-0.069959	-1.120353	0.857125
O39	O	0.263374	-0.787020	1.190459
O40	O	-0.403327	-1.283336	0.403388
O41	O	-0.069994	-0.950003	0.736722
O42	O	0.263339	-0.616669	1.070055
O43	O	-0.312082	-1.582810	0.523812
O44	O	0.021251	-1.249476	0.857145
O45	O	0.354585	-0.916143	1.190479
O46	O	-0.523785	-1.582589	0.312164
O47	O	-0.190452	-1.249255	0.645497
O48	O	0.142882	-0.915922	0.978831
O49	O	-0.523737	-1.453561	0.403379
O50	O	-0.190403	-1.120227	0.736712
O51	O	0.142930	-0.786894	1.070046
C52	C	-0.357733	-1.245241	0.357783
C53	C	-0.024399	-0.911907	0.691116
C54	C	0.308934	-0.578574	1.024449
C55	C	-0.357741	-1.128464	0.357795
C56	C	-0.024407	-0.795131	0.691128
C57	C	0.308926	-0.461797	1.024461
C58	C	-0.262867	-1.128544	0.452951
C59	C	0.070467	-0.795211	0.786285
C60	C	0.403800	-0.461877	1.119618
C61	C	-0.215437	-1.073723	0.500534
C62	C	0.117896	-0.740390	0.833868
C63	C	0.451230	-0.407056	1.167201
C64	C	-0.215447	-0.964001	0.500542
C65	C	0.117887	-0.630668	0.833875
C66	C	0.451220	-0.297335	1.167209
C67	C	-0.262890	-0.909098	0.452960
C68	C	0.070443	-0.575765	0.786293
C69	C	0.403777	-0.242432	1.119626
C70	C	-0.310320	-0.963919	0.405376
C71	C	0.023014	-0.630586	0.738710
C72	C	0.356347	-0.297252	1.072043
C73	C	-0.310306	-1.073643	0.405375
C74	C	0.023027	-0.740310	0.738709
C75	C	0.356361	-0.406977	1.072042
C76	C	-0.405189	-0.963839	0.310217
C77	C	-0.071856	-0.630506	0.643551
C78	C	0.261478	-0.297172	0.976884
C79	C	-0.405184	-1.073561	0.310212
C80	C	-0.071851	-0.740227	0.643546
C81	C	0.261483	-0.406894	0.976879
C82	C	-0.452632	-0.908936	0.262635
C83	C	-0.119299	-0.575603	0.595968
C84	C	0.214034	-0.242269	0.929301
C85	C	-0.500067	-0.963757	0.215054
C86	C	-0.166733	-0.630423	0.548387
C87	C	0.166600	-0.297090	0.881721
C88	C	-0.500055	-1.073485	0.215049
C89	C	-0.166722	-0.740152	0.548382
C90	C	0.166611	-0.406818	0.881716
C91	C	-0.452614	-1.128382	0.262629
C92	C	-0.119280	-0.795048	0.595962
C93	C	0.214053	-0.461715	0.929296
C94	C	-0.550707	-1.518081	0.357784
C95	C	-0.217374	-1.184748	0.691117
C96	C	0.115959	-0.851415	1.024450
C97	C	-0.633253	-1.518123	0.357803
C98	C	-0.299920	-1.184790	0.691137
C99	C	0.033414	-0.851457	1.024470
C100	C	-0.832704	-1.448027	0.407389
C101	C	-0.499371	-1.114693	0.740722
C102	C	-0.166038	-0.781360	1.074055
C103	C	-0.882154	-1.422422	0.339622
C104	C	-0.548821	-1.089089	0.672955
C105	C	-0.215487	-0.755755	1.006289
C106	C	-0.784383	-1.518226	0.357813
C107	C	-0.451050	-1.184893	0.691146
C108	C	-0.117717	-0.851560	1.024480
C109	C	-0.882016	-1.543883	0.425587
C110	C	-0.548682	-1.210549	0.758921
C111	C	-0.215349	-0.877216	1.092254
C112	C	-0.930369	-1.518324	0.357828
C113	C	-0.597035	-1.184991	0.691162
C114	C	-0.263702	-0.851658	1.024495
C115	C	-0.832746	-1.492571	0.290011
C116	C	-0.499412	-1.159238	0.623344
C117	C	-0.166079	-0.825905	0.956677
C118	C	-0.832603	-1.614077	0.376022
C119	C	-0.499270	-1.280743	0.709355
C120	C	-0.165937	-0.947410	1.042688
C121	C	-0.882030	-1.588508	0.308208
C122	C	-0.548697	-1.255175	0.641542
C123	C	-0.215364	-0.921842	0.974875
C124	C	-0.700285	-1.518168	0.357805
C125	C	-0.366952	-1.184834	0.691139
C126	C	-0.033619	-0.851501	1.024472
C127	C	-1.014465	-1.518383	0.357829
C128	C	-0.681132	-1.185050	0.691162
C129	C	-0.347798	-0.851717	1.024495
C130	C	-0.164050	-1.518364	0.357825
C131	C	0.169284	-1.185031	0.691158
C132	C	0.502617	-0.851698	1.024491
C133	C	-0.081504	-1.518431	0.357837
C134	C	0.251830	-1.185097	0.691170
C135	C	0.585163	-0.851764	1.024504
C136	C	-0.357676	-1.518255	0.551502
C137	C	-0.024343	-1.184921	0.884835
C138	C	0.308991	-0.851588	1.218168
C139	C	-0.357642	-1.518274	0.634048
C140	C	-0.024309	-1.184941	0.967381
C141	C	0.309024	-0.851608	1.300714
C142	C	-0.357771	-0.792242	0.357806
C143	C	-0.024438	-0.458908	0.691139
C144	C	0.308895	-0.125575	1.024473
C145	C	-0.357759	-0.909018	0.357801
C146	C	-0.024426	-0.575685	0.691134
C147	C	0.308907	-0.242352	1.024467
C148	C	-0.357781	-1.518222	0.164844
C149	C	-0.024447	-1.184889	0.498177
C150	C	0.308886	-0.851556	0.831511
C151	C	-0.357605	-1.518406	0.082299
C152	C	-0.024272	-1.185073	0.415632
C153	C	0.309061	-0.851740	0.748965
C154	C	-0.308018	-1.588562	0.833509
C155	C	0.025315	-1.255229	1.166843
C156	C	0.358649	-0.921895	1.500176
C157	C	-0.289839	-1.492740	0.882905
C158	C	0.043494	-1.159407	1.216239
C159	C	0.376828	-0.826073	1.549572
C160	C	-0.357629	-1.518317	0.785178
C161	C	-0.024296	-1.184983	1.118511
C162	C	0.309037	-0.851650	1.451845
C163	C	-0.375762	-1.614177	0.882864
C164	C	-0.042428	-1.280844	1.216197
C165	C	0.290905	-0.947511	1.549530
C166	C	-0.357616	-1.518366	0.931163
C167	C	-0.024282	-1.185032	1.264497
C168	C	0.309051	-0.851699	1.597830
C169	C	-0.339415	-1.422444	0.833487
C170	C	-0.006082	-1.089110	1.166820
C171	C	0.327251	-0.755777	1.500154
C172	C	-0.425369	-1.543946	0.833441
C173	C	-0.092036	-1.210612	1.166774
C174	C	0.241297	-0.877279	1.500108
C175	C	-0.407216	-1.448057	0.882815
C176	C	-0.073883	-1.114724	1.216148
C177	C	0.259451	-0.781391	1.549481
C178	C	-0.357635	-1.518290	0.701080
C179	C	-0.024302	-1.184956	1.034413
C180	C	0.309031	-0.851623	1.367746
C181	C	-0.357610	-1.518382	1.015260
C182	C	-0.024276	-1.185048	1.348593
C183	C	0.309057	-0.851715	1.681926
H184	H	-0.176808	-1.118437	0.539274
H185	H	0.156525	-0.785104	0.872607
H186	H	0.489858	-0.451771	1.205941
H187	H	-0.266037	-1.647869	0.811857
H188	H	0.067297	-1.314536	1.145191
H189	H	0.400630	-0.981202	1.478524
H190	H	-0.903659	-1.565544	0.482897
H191	H	-0.570325	-1.232211	0.816231
H192	H	-0.236992	-0.898877	1.149564
H193	H	-0.176821	-0.919366	0.539284
H194	H	0.156512	-0.586033	0.872618
H195	H	0.489846	-0.252700	1.205951
H196	H	-0.810824	-1.695070	0.391441
H197	H	-0.477491	-1.361737	0.724774
H198	H	-0.144157	-1.028403	1.058108
H199	H	-0.538688	-0.919046	0.176313
H200	H	-0.205355	-0.585713	0.509646
H201	H	0.127979	-0.252379	0.842980
H202	H	-0.903935	-1.341410	0.324235
H203	H	-0.570602	-1.008077	0.657568
H204	H	-0.237268	-0.674744	0.990902
H205	H	-0.811046	-1.388574	0.449254
H206	H	-0.477712	-1.055240	0.782587
H207	H	-0.144379	-0.721907	1.115921
H208	H	-0.449165	-1.388606	0.904328
H209	H	-0.115832	-1.055272	1.237661
H210	H	0.217502	-0.721939	1.570994
H211	H	-0.232547	-1.471078	0.904633
H212	H	0.100787	-1.137744	1.237966
H213	H	0.434120	-0.804411	1.571300
H214	H	-0.903552	-1.647916	0.266242
H215	H	-0.570219	-1.314583	0.599575
H216	H	-0.236885	-0.981249	0.932909
H217	H	-0.324007	-1.341373	0.811888
H218	H	0.009327	-1.008040	1.145222
H219	H	0.342660	-0.674706	1.478555
H220	H	-0.452596	-1.217723	0.262626
H221	H	-0.119263	-0.884389	0.595959
H222	H	0.214071	-0.551056	0.929292
H223	H	-0.262850	-1.217885	0.452947
H224	H	0.070483	-0.884552	0.786280
H225	H	0.403816	-0.551218	1.119613
H226	H	-0.811192	-1.470816	0.232685
H227	H	-0.477859	-1.137483	0.566018
H228	H	-0.144526	-0.804150	0.899352
H229	H	-0.538676	-1.118114	0.176298
H230	H	-0.205343	-0.784780	0.509631
H231	H	0.127991	-0.451447	0.842965
H232	H	-0.482646	-1.565637	0.811699
H233	H	-0.149312	-1.232303	1.145032
H234	H	0.184021	-0.898970	1.478366
H235	H	-0.262888	-0.819757	0.452964
H236	H	0.070445	-0.486424	0.786297
H237	H	0.403779	-0.153090	1.119631
H238	H	-0.452635	-0.819595	0.262642
H239	H	-0.119302	-0.486261	0.595976
H240	H	0.214032	-0.152928	0.929309
H241	H	-0.391102	-1.695224	0.904556
H242	H	-0.057769	-1.361891	1.237889
H243	H	0.275564	-1.028558	1.571222
