data_functionalizedCrystal
_audit_creation_method	'MofGen! by Chris Wilmer'
_symmetry_space_group_name_H-M	'P1'
_symmetry_Int_Tables_number	1
_symmetry_cell_setting	triclinic
loop_
_symmetry_equiv_pos_as_xyz
  x,y,z
_cell_length_a	14.446369
_cell_length_b	19.851628
_cell_length_c	14.446369
_cell_angle_alpha	60.004308
_cell_angle_beta	89.999999
_cell_angle_gamma	59.994816
loop_
_atom_site_label
_atom_site_type_symbol
_atom_site_fract_x
_atom_site_fract_y
_atom_site_fract_z
Zr1	Zr	0.891593	0.737421	-0.121531
O2	O	0.743768	0.877952	-0.269326
O3	O	0.936927	0.596881	-0.076222
O4	O	0.936903	0.737417	-0.269334
O5	O	0.743792	0.737423	0.076115
O6	O	1.089231	0.737423	-0.269342
O7	O	0.743792	0.737417	-0.076214
O8	O	1.089275	0.486031	0.076100
O9	O	0.743749	0.988815	-0.269327
O10	O	1.069922	0.654695	-0.056906
O11	O	0.956240	0.654695	0.056781
O12	O	0.956212	0.820157	-0.170584
O13	O	0.842531	0.820157	-0.056896
Zr14	Zr	1.134540	0.737440	0.121403
Zr15	Zr	1.134540	0.737430	-0.121544
Zr16	Zr	0.891593	0.737430	0.121416
Zr17	Zr	0.891563	0.914234	-0.121533
Zr18	Zr	1.134571	0.560627	0.121406
O19	O	1.089206	0.877980	0.076095
O20	O	1.089207	0.877966	-0.269344
O21	O	0.743767	0.877966	0.076113
O22	O	1.282365	0.596909	0.269198
O23	O	1.282366	0.596895	-0.076241
O24	O	0.936926	0.596895	0.269217
O25	O	1.282341	0.737438	-0.076242
O26	O	1.089231	0.737444	0.269207
O27	O	0.936902	0.737438	0.269215
O28	O	1.282341	0.737444	0.076086
O29	O	0.936859	0.988822	-0.269337
O30	O	1.089275	0.486038	0.269210
O31	O	1.282385	0.486046	0.269200
O32	O	1.282385	0.486038	0.076090
O33	O	0.743748	0.988822	-0.076217
O34	O	0.936859	0.988830	-0.076227
O35	O	1.069922	0.654704	0.170456
O36	O	1.183603	0.654704	0.056769
O37	O	1.069893	0.820166	-0.056908
O38	O	0.956212	0.820166	0.056779
C39	C	1.013105	0.516264	-0.000061
C40	C	1.013118	0.441202	-0.000060
C41	C	0.709177	0.737418	-0.000047
C42	C	0.606040	0.737414	-0.000042
C43	C	1.075062	0.259865	-0.062058
C44	C	1.119993	0.159717	0.044829
C45	C	1.013084	0.303795	-0.000060
C46	C	0.968173	0.270194	-0.106936
C47	C	1.013052	0.171069	-0.000069
C48	C	1.058078	0.204590	0.106890
C49	C	0.906198	0.315121	-0.044952
C50	C	0.951102	0.214980	0.061999
C51	C	1.013106	0.380254	-0.000056
C52	C	1.013033	0.094607	-0.000061
C53	C	0.531076	0.633068	0.071282
C54	C	0.638404	0.632998	0.071691
C55	C	0.531471	0.789252	0.052256
C56	C	0.424612	0.788590	0.052771
C57	C	0.423039	0.790732	-0.123779
C58	C	0.531711	0.788765	-0.123577
C59	C	1.316956	0.737442	-0.000080
C60	C	1.420093	0.737447	-0.000085
C61	C	1.013067	0.737418	-0.303953
C62	C	1.013067	0.737414	-0.407090
C63	C	1.013028	0.958597	-0.000066
C64	C	1.013015	1.033659	-0.000067
C65	C	1.085141	0.633068	-0.482075
C66	C	1.084829	0.632998	-0.374747
C67	C	0.889535	0.789245	-0.481644
C68	C	0.889930	0.788583	-0.588503
C69	C	1.063527	0.790739	-0.590086
C70	C	1.066027	0.788772	-0.481414
C71	C	1.013066	0.737442	0.303826
C72	C	1.013066	0.737447	0.406963
C73	C	1.316995	0.516276	-0.000077
C74	C	1.420145	0.441218	-0.000082
C75	C	1.013105	0.516276	0.303829
C76	C	1.013118	0.441218	0.406967
C77	C	1.316994	0.516288	0.303812
C78	C	1.420144	0.441234	0.406945
C79	C	0.709139	0.958573	-0.303940
C80	C	0.605989	1.033626	-0.407072
C81	C	0.709139	0.958585	-0.000050
C82	C	0.605988	1.033643	-0.000046
C83	C	1.013029	0.958585	-0.303956
C84	C	1.013016	1.033643	-0.407094
C85	C	1.409245	0.405965	-0.059431
C86	C	1.506157	0.335450	-0.059458
C87	C	1.613967	0.300184	-0.000128
C88	C	1.624864	0.335444	0.059223
C89	C	1.527954	0.405963	0.059243
C90	C	1.072464	0.405975	0.514749
C91	C	1.072472	0.335460	0.611668
C92	C	1.013139	0.300185	0.600802
C93	C	0.953786	0.335435	0.493008
C94	C	0.953772	0.405953	0.396092
C95	C	1.527936	0.405988	0.396034
C96	C	1.624865	0.335477	0.492929
C97	C	1.614002	0.300209	0.600734
C98	C	1.506199	0.335462	0.611643
C99	C	1.409272	0.405976	0.514749
C100	C	0.498198	1.068881	-0.396161
C101	C	0.401268	1.139414	-0.493056
C102	C	0.412132	1.174686	-0.600861
C103	C	0.519934	1.139429	-0.611770
C104	C	0.616862	1.068902	-0.514876
C105	C	0.616888	1.068903	0.059294
C106	C	0.519977	1.139437	0.059294
C107	C	0.412167	1.174706	-0.000039
C108	C	0.401269	1.139443	-0.059386
C109	C	0.498179	1.068914	-0.059392
C110	C	1.072360	1.068896	-0.396192
C111	C	1.072370	1.139411	-0.493092
C112	C	1.013028	1.174677	-0.600893
C113	C	0.953682	1.139417	-0.611793
C114	C	0.953680	1.068898	-0.514894
H115	H	1.127551	0.279503	-0.114396
H116	H	1.712634	0.306781	0.484026
F117	F	1.294555	0.443476	0.526379
F118	F	1.039817	0.579781	-0.480717
H119	H	1.120683	1.040193	-0.308423
H120	H	1.536845	0.434656	0.107579
H121	H	0.898688	0.195380	0.114498
F122	F	0.598924	0.742200	0.170105
F123	F	1.717099	0.225130	-0.000158
H124	H	0.528872	1.168136	0.107625
F125	F	1.135531	1.176928	-0.481467
F126	F	1.494655	0.297916	0.726387
H127	H	1.692935	0.242791	0.679622
F128	F	0.486610	1.031352	-0.281436
H129	H	0.704664	1.040193	0.107618
F130	F	1.539523	0.443515	0.281308
F131	F	0.286548	1.176922	-0.481422
H132	H	0.704627	1.040198	-0.523774
F133	F	0.995237	0.891244	-0.692313
H134	H	1.013039	1.232098	-0.679785
F135	F	1.294514	0.443488	-0.122586
H136	H	0.905368	1.168142	-0.699578
H137	H	1.497261	0.306750	-0.107789
H138	H	1.712656	0.306720	0.107527
F139	F	0.308962	1.249748	-0.703976
H140	H	1.120780	0.434688	0.523618
F141	F	1.135650	0.297955	0.726379
F142	F	0.321884	0.888685	-0.010785
H143	H	0.418925	0.757329	-0.167470
H144	H	1.013160	0.242764	0.679726
H145	H	0.905449	0.434639	0.308334
F146	F	0.890504	1.031394	-0.526515
F147	F	0.531479	1.176976	-0.726514
F148	F	0.890645	0.297882	0.481461
H149	H	0.344811	0.867625	-0.177203
F150	F	0.309035	1.249768	-0.000021
F151	F	0.286520	1.176985	-0.122526
H152	H	1.210373	0.093273	0.082801
H153	H	1.018988	0.864949	-0.506928
F154	F	1.039016	0.579544	-0.304474
F155	F	1.107844	0.169152	0.225080
F156	F	0.788089	0.401989	-0.094615
H157	H	0.424888	0.751755	0.143794
F158	F	0.486561	1.031390	-0.122546
H159	H	0.930205	0.297165	-0.197315
H160	H	0.692675	0.592341	0.036596
F161	F	0.498324	0.888340	-0.198923
F162	F	0.534143	0.579513	0.025667
F163	F	1.204348	0.579519	-0.479025
F164	F	0.532438	0.579787	0.189831
H165	H	0.692274	0.591955	0.162949
H166	H	0.583140	0.750969	-0.162646
F167	F	0.495853	0.889604	-0.012412
H168	H	1.175795	0.592331	-0.320477
H169	H	0.849531	0.751743	-0.588231
F170	F	0.816292	0.889595	-0.517235
F171	F	0.836354	0.742185	-0.414196
F172	F	1.180631	0.747085	-0.595473
F173	F	0.815925	0.888678	-0.691211
F174	F	1.184984	0.739377	-0.414211
