data_functionalizedCrystal
_audit_creation_method	'MofGen! by Chris Wilmer'
_symmetry_space_group_name_H-M	'P1'
_symmetry_Int_Tables_number	1
_symmetry_cell_setting	triclinic
loop_
_symmetry_equiv_pos_as_xyz
  x,y,z
_cell_length_a	15.538191
_cell_length_b	16.176319
_cell_length_c	17.699083
_cell_angle_alpha	90.007696
_cell_angle_beta	114.722446
_cell_angle_gamma	89.990661
loop_
_atom_site_label
_atom_site_type_symbol
_atom_site_fract_x
_atom_site_fract_y
_atom_site_fract_z
O1	O	1.250479	-0.068751	0.245973
O2	O	1.750479	0.431249	0.745973
O3	O	0.976020	-0.068752	0.158526
O4	O	1.476020	0.431248	0.658526
O5	O	1.121003	-0.068745	0.314557
O6	O	1.621003	0.431255	0.814557
O7	O	1.105495	-0.068759	0.089941
O8	O	1.605495	0.431241	0.589941
O9	O	1.120983	0.068749	0.314559
O10	O	1.620983	0.568749	0.814559
O11	O	0.976000	0.068741	0.158528
O12	O	1.476000	0.568741	0.658528
O13	O	1.250459	0.068742	0.245975
O14	O	1.750459	0.568742	0.745975
Cu15	Cu	1.113227	0.081296	0.202251
Cu16	Cu	1.613227	0.581296	0.702251
Cu17	Cu	1.113251	-0.081306	0.202249
Cu18	Cu	1.613251	0.418694	0.702249
O19	O	1.105475	0.068734	0.089943
O20	O	1.605475	0.568734	0.589943
C21	C	0.940893	-0.000006	0.149378
C22	C	1.440893	0.499994	0.649378
C23	C	0.836257	-0.000006	0.122125
C24	C	1.336257	0.499994	0.622125
N25	N	1.113218	0.195661	0.202255
N26	N	1.613218	0.695661	0.702255
N27	N	1.113268	-0.195671	0.202253
N28	N	1.613268	0.304329	0.702253
C29	C	0.549086	-0.000001	0.392872
C30	C	1.049086	0.499999	0.892872
C31	C	0.450762	-0.000004	0.367245
C32	C	0.950762	0.499996	0.867245
C33	C	0.427989	-0.000013	0.223099
C34	C	0.927989	0.499987	0.723099
C35	C	0.526313	-0.000007	0.248714
C36	C	1.026313	0.499993	0.748714
C37	C	0.586855	-0.000002	0.333602
C38	C	1.086855	0.499998	0.833602
C39	C	0.564082	-0.000007	0.189444
C40	C	1.064082	0.499993	0.689444
C41	C	0.662398	-0.000005	0.215057
C42	C	1.162398	0.499995	0.715057
C43	C	0.722945	-0.000003	0.299940
C44	C	1.222945	0.499997	0.799940
C45	C	0.685171	0.000000	0.359215
C46	C	1.185171	0.500000	0.859215
C47	C	0.503539	-0.000018	0.104556
C48	C	1.003539	0.499982	0.604556
C49	C	0.541308	-0.000018	0.045286
C50	C	1.041308	0.499982	0.545286
C51	C	0.639625	-0.000010	0.070899
C52	C	1.139625	0.499990	0.570899
C53	C	0.700173	-0.000008	0.155782
C54	C	1.200173	0.499992	0.655782
C55	C	0.677400	-0.000013	0.011624
C56	C	1.177400	0.499987	0.511624
C57	C	0.775716	-0.000011	0.037238
C58	C	1.275716	0.499989	0.537238
C59	C	0.798489	-0.000006	0.181396
C60	C	1.298489	0.499994	0.681396
C61	C	1.285585	-0.000006	0.255123
C62	C	1.785585	0.499994	0.755123
C63	C	1.390221	-0.000012	0.282375
C64	C	1.890221	0.499988	0.782375
C65	C	1.120438	0.000002	0.342603
C66	C	1.620438	0.500002	0.842603
C67	C	1.118771	0.000003	0.426166
C68	C	1.618771	0.500003	0.926166
C69	C	1.177436	0.238928	0.271330
C70	C	1.677436	0.738928	0.771330
C71	C	1.177441	0.325476	0.271332
C72	C	1.677441	0.825476	0.771332
C73	C	1.113231	0.368753	0.202256
C74	C	1.613231	0.868753	0.702256
C75	C	1.049006	0.325480	0.133177
C76	C	1.549006	0.825480	0.633177
C77	C	1.048998	0.238934	0.133178
C78	C	1.548998	0.738934	0.633178
C79	C	1.049038	0.674508	0.133172
C80	C	1.549038	1.174508	0.633172
C81	C	1.049054	0.761059	0.133175
C82	C	1.549054	1.261059	0.633175
C83	C	1.177481	0.761049	0.271326
C84	C	1.677481	1.261049	0.771326
C85	C	1.177473	0.674504	0.271327
C86	C	1.677473	1.174504	0.771327
C87	C	1.113245	0.631238	0.202250
C88	C	1.613245	1.131238	0.702250
C89	C	1.113239	0.537393	0.202249
C90	C	1.613239	1.037393	0.702249
C91	C	1.113240	0.462596	0.202254
C92	C	1.613240	0.962596	0.702254
C93	C	1.106041	-0.000014	0.061897
C94	C	1.606041	0.499986	0.561897
C95	C	1.107708	-0.000020	-0.021665
C96	C	1.607708	0.499980	0.478335
C97	C	1.203873	0.000004	0.498041
C98	C	1.703873	0.500004	0.998041
C99	C	1.202301	-0.000003	0.576554
C100	C	1.702301	0.499997	1.076554
C101	C	1.115626	-0.000006	0.583192
C102	C	1.615626	0.499994	1.083192
C103	C	1.030517	-0.000010	0.511309
C104	C	1.530517	0.499990	1.011309
C105	C	1.032090	-0.000009	0.432797
C106	C	1.532090	0.499991	0.932797
C107	C	1.024171	-0.000017	0.827938
C108	C	1.524171	0.499983	1.327938
C109	C	1.022605	-0.000016	0.906458
C110	C	1.522605	0.499984	1.406458
C111	C	1.194382	-0.000011	0.971696
C112	C	1.694382	0.499989	1.471696
C113	C	1.195955	-0.000010	0.893184
C114	C	1.695955	0.499990	1.393184
C115	C	1.110847	-0.000018	0.821308
C116	C	1.610847	0.499982	1.321308
C117	C	1.112552	-0.000012	0.736175
C118	C	1.612552	0.499988	1.236175
C119	C	1.113919	-0.000007	0.668323
C120	C	1.613919	0.499993	1.168323
H121	H	0.847785	0.000003	0.250520
H122	H	1.347785	0.500003	0.750520
F123	F	1.245787	0.371525	0.344850
F124	F	1.745787	0.871525	0.844850
F125	F	1.245782	0.192877	0.344850
F126	F	1.745782	0.692877	0.844850
H127	H	0.628093	-0.000025	-0.057491
H128	H	1.128093	0.499975	0.442509
F129	F	0.815914	-0.000013	-0.025844
F130	F	1.315914	0.499987	0.474156
F131	F	1.296126	0.000015	0.490986
F132	F	1.796126	0.500015	0.990986
H133	H	0.959944	-0.000018	0.516719
H134	H	1.459944	0.499982	1.016719
H135	H	0.492002	-0.000025	-0.023830
H136	H	0.992002	0.499975	0.476170
H137	H	0.962790	-0.000010	0.374274
H138	H	1.462790	0.499990	0.874274
F139	F	0.980709	0.807117	0.059652
F140	F	1.480709	1.307117	0.559652
F141	F	0.398901	-0.000021	0.077298
F142	F	0.898901	0.499979	0.577298
F143	F	1.288207	-0.000008	0.886126
F144	F	1.788207	0.499992	1.386126
F145	F	1.245816	0.628448	0.344845
F146	F	1.745816	1.128448	0.844845
F147	F	1.292879	-0.000000	0.653047
F148	F	1.792879	0.500000	1.153047
H149	H	0.803000	-0.000012	0.320793
H150	H	1.303000	0.499988	0.820793
H151	H	0.734468	0.000009	0.428339
H152	H	1.234468	0.500009	0.928339
H153	H	0.952019	-0.000017	0.911855
H154	H	1.452019	0.499983	1.411855
F155	F	0.613525	0.000013	0.483220
F156	F	1.113525	0.500013	0.983220
F157	F	1.284963	-0.000005	1.048198
F158	F	1.784963	0.499995	1.548198
H159	H	0.954870	-0.000024	0.769424
H160	H	1.454870	0.499976	1.269424
H161	H	1.229776	0.796286	0.327574
H162	H	1.729776	1.296286	0.827574
F163	F	0.410570	0.000007	0.430336
F164	F	0.910570	0.500007	0.930336
H165	H	0.378683	-0.000020	0.153983
H166	H	0.878683	0.499980	0.653983
H167	H	0.996744	0.639287	0.076926
H168	H	1.496744	1.139287	0.576926
F169	F	0.980664	0.371540	0.059663
F170	F	1.480664	0.871540	0.559663
F171	F	0.980645	0.192887	0.059660
F172	F	1.480645	0.692887	0.559660
