data_functionalizedCrystal
_audit_creation_method	'MofGen! by Chris Wilmer'
_symmetry_space_group_name_H-M	'P1'
_symmetry_Int_Tables_number	1
_symmetry_cell_setting	triclinic
loop_
_symmetry_equiv_pos_as_xyz
  x,y,z
_cell_length_a	12.594516
_cell_length_b	16.625548
_cell_length_c	16.625539
_cell_angle_alpha	89.979432
_cell_angle_beta	90.023327
_cell_angle_gamma	89.982879
loop_
_atom_site_label
_atom_site_type_symbol
_atom_site_fract_x
_atom_site_fract_y
_atom_site_fract_z
Zn1	Zn	-0.423710	-1.232716	0.455937
Zn2	Zn	-0.173710	-0.982716	0.705937
Zn3	Zn	0.076290	-0.732716	0.955937
Zn4	Zn	0.326290	-0.482716	1.205937
Zn5	Zn	-0.601711	-1.232635	0.321116
Zn6	Zn	-0.351711	-0.982635	0.571116
Zn7	Zn	-0.101711	-0.732635	0.821116
Zn8	Zn	0.148289	-0.482635	1.071116
Zn9	Zn	-0.423750	-1.097878	0.321118
Zn10	Zn	-0.173750	-0.847878	0.571118
Zn11	Zn	0.076250	-0.597878	0.821118
Zn12	Zn	0.326250	-0.347878	1.071118
Zn13	Zn	-0.601650	-1.097864	0.455906
Zn14	Zn	-0.351650	-0.847864	0.705906
Zn15	Zn	-0.101650	-0.597864	0.955906
Zn16	Zn	0.148350	-0.347864	1.205906
O17	O	-0.512705	-1.165273	0.388519
O18	O	-0.262705	-0.915273	0.638519
O19	O	-0.012705	-0.665273	0.888519
O20	O	0.237295	-0.415273	1.138519
O21	O	-0.447331	-1.345538	0.438065
O22	O	-0.197331	-1.095538	0.688065
O23	O	0.052669	-0.845538	0.938065
O24	O	0.302669	-0.595538	1.188065
O25	O	-0.578147	-1.214731	0.208284
O26	O	-0.328147	-0.964731	0.458284
O27	O	-0.078147	-0.714731	0.708284
O28	O	0.171853	-0.464731	0.958284
O29	O	-0.274799	-1.115805	0.339016
O30	O	-0.024799	-0.865805	0.589016
O31	O	0.225201	-0.615805	0.839016
O32	O	0.475201	-0.365805	1.089016
O33	O	-0.578108	-1.345478	0.339013
O34	O	-0.328108	-1.095478	0.589013
O35	O	-0.078108	-0.845478	0.839013
O36	O	0.171892	-0.595478	1.089013
O37	O	-0.274769	-1.214870	0.438067
O38	O	-0.024769	-0.964870	0.688067
O39	O	0.225231	-0.714870	0.938067
O40	O	0.475231	-0.464870	1.188067
O41	O	-0.447400	-1.115726	0.208285
O42	O	-0.197400	-0.865726	0.458285
O43	O	0.052600	-0.615726	0.708285
O44	O	0.302600	-0.365726	0.958285
O45	O	-0.447341	-0.985044	0.338985
O46	O	-0.197341	-0.735044	0.588985
O47	O	0.052659	-0.485044	0.838985
O48	O	0.302659	-0.235044	1.088985
O49	O	-0.578003	-1.115780	0.568743
O50	O	-0.328003	-0.865780	0.818743
O51	O	-0.078003	-0.615780	1.068743
O52	O	0.171997	-0.365780	1.318743
O53	O	-0.578043	-0.985033	0.438014
O54	O	-0.328043	-0.735033	0.688014
O55	O	-0.078043	-0.485033	0.938014
O56	O	0.171957	-0.235033	1.188014
O57	O	-0.447271	-1.214856	0.568766
O58	O	-0.197271	-0.964856	0.818766
O59	O	0.052729	-0.714856	1.068766
O60	O	0.302729	-0.464856	1.318766
O61	O	-0.750649	-1.214717	0.338983
O62	O	-0.500649	-0.964717	0.588983
O63	O	-0.250649	-0.714717	0.838983
O64	O	-0.000649	-0.464717	1.088983
O65	O	-0.750604	-1.115701	0.438012
O66	O	-0.500604	-0.865701	0.688012
O67	O	-0.250604	-0.615701	0.938012
O68	O	-0.000604	-0.365701	1.188012
C69	C	-0.512690	-0.955782	0.388497
C70	C	-0.262690	-0.705782	0.638497
C71	C	-0.012690	-0.455782	0.888497
C72	C	0.237310	-0.205782	1.138497
C73	C	-0.512709	-0.866161	0.388506
C74	C	-0.262709	-0.616161	0.638506
C75	C	-0.012709	-0.366161	0.888506
C76	C	0.237291	-0.116161	1.138506
C77	C	-0.789246	-1.165220	0.388511
C78	C	-0.539246	-0.915220	0.638511
C79	C	-0.289246	-0.665220	0.888511
C80	C	-0.039246	-0.415220	1.138511
C81	C	-0.907552	-1.165272	0.388535
C82	C	-0.657552	-0.915272	0.638535
C83	C	-0.407552	-0.665272	0.888535
C84	C	-0.157552	-0.415272	1.138535
C85	C	-0.512626	-1.165326	0.598828
C86	C	-0.262626	-0.915326	0.848828
C87	C	-0.012626	-0.665326	1.098828
C88	C	0.237374	-0.415326	1.348828
C89	C	-0.512592	-1.165348	0.688449
C90	C	-0.262592	-0.915348	0.938449
C91	C	-0.012592	-0.665348	1.188449
C92	C	0.237408	-0.415348	1.438449
C93	C	-0.976819	-1.111412	0.442359
C94	C	-0.726819	-0.861412	0.692359
C95	C	-0.476819	-0.611412	0.942359
C96	C	-0.226819	-0.361412	1.192359
C97	C	-1.047680	-1.091767	0.368785
C98	C	-0.797680	-0.841767	0.618785
C99	C	-0.547680	-0.591767	0.868785
C100	C	-0.297680	-0.341767	1.118785
C101	C	-1.047490	-1.184990	0.462122
C102	C	-0.797490	-0.934990	0.712122
C103	C	-0.547490	-0.684990	0.962122
C104	C	-0.297490	-0.434990	1.212122
C105	C	-0.976855	-1.145588	0.314921
C106	C	-0.726855	-0.895588	0.564921
C107	C	-0.476855	-0.645588	0.814921
C108	C	-0.226855	-0.395588	1.064921
C109	C	-0.976658	-1.238845	0.408308
C110	C	-0.726658	-0.988845	0.658308
C111	C	-0.476658	-0.738845	0.908308
C112	C	-0.226658	-0.488845	1.158308
C113	C	-1.047487	-1.219228	0.334683
C114	C	-0.797487	-0.969228	0.584683
C115	C	-0.547487	-0.719228	0.834683
C116	C	-0.297487	-0.469228	1.084683
C117	C	-0.235085	-1.165348	0.388545
C118	C	0.014915	-0.915348	0.638545
C119	C	0.264915	-0.665348	0.888545
C120	C	0.514915	-0.415348	1.138545
C121	C	-0.116779	-1.165380	0.388556
C122	C	0.133221	-0.915380	0.638556
C123	C	0.383221	-0.665380	0.888556
C124	C	0.633221	-0.415380	1.138556
C125	C	-0.512721	-1.375582	0.388542
C126	C	-0.262721	-1.125582	0.638542
C127	C	-0.012721	-0.875582	0.888542
C128	C	0.237279	-0.625582	1.138542
C129	C	-0.512728	-1.465203	0.388552
C130	C	-0.262728	-1.215203	0.638552
C131	C	-0.012728	-0.965203	0.888552
C132	C	0.237272	-0.715203	1.138552
C133	C	-0.512716	-0.537986	0.388541
C134	C	-0.262716	-0.287986	0.638541
C135	C	-0.012716	-0.037986	0.888541
C136	C	0.237284	0.212014	1.138541
C137	C	-0.512711	-0.629294	0.388529
C138	C	-0.262711	-0.379294	0.638529
C139	C	-0.012711	-0.129294	0.888529
C140	C	0.237289	0.120706	1.138529
C141	C	-0.512713	-0.702071	0.388523
C142	C	-0.262713	-0.452071	0.638523
C143	C	-0.012713	-0.202071	0.888523
C144	C	0.237287	0.047929	1.138523
C145	C	-0.512707	-0.793385	0.388512
C146	C	-0.262707	-0.543385	0.638512
C147	C	-0.012707	-0.293385	0.888512
C148	C	0.237293	-0.043385	1.138512
C149	C	-0.512708	-1.165267	0.179028
C150	C	-0.262708	-0.915267	0.429028
C151	C	-0.012708	-0.665267	0.679028
C152	C	0.237292	-0.415267	0.929028
C153	C	-0.512442	-1.165401	0.089408
C154	C	-0.262442	-0.915401	0.339408
C155	C	-0.012442	-0.665401	0.589408
C156	C	0.237558	-0.415401	0.839408
C157	C	-0.512473	-1.165385	1.016625
C158	C	-0.262473	-0.915385	1.266625
C159	C	-0.012473	-0.665385	1.516625
C160	C	0.237527	-0.415385	1.766625
C161	C	-0.512510	-1.165373	0.925317
C162	C	-0.262510	-0.915373	1.175317
C163	C	-0.012510	-0.665373	1.425317
C164	C	0.237490	-0.415373	1.675317
C165	C	-0.512534	-1.165367	0.852540
C166	C	-0.262534	-0.915367	1.102540
C167	C	-0.012534	-0.665367	1.352540
C168	C	0.237466	-0.415367	1.602540
C169	C	-0.512568	-1.165354	0.761226
C170	C	-0.262568	-0.915354	1.011226
C171	C	-0.012568	-0.665354	1.261226
C172	C	0.237432	-0.415354	1.511226
H173	H	-0.945789	-1.065783	0.487811
H174	H	-0.695789	-0.815783	0.737811
H175	H	-0.445789	-0.565783	0.987811
H176	H	-0.195789	-0.315783	1.237811
Cl177	Cl	-1.095843	-0.995778	0.342967
Cl178	Cl	-0.845843	-0.745778	0.592967
Cl179	Cl	-0.595843	-0.495778	0.842967
Cl180	Cl	-0.345843	-0.245778	1.092967
H181	H	-0.945955	-1.128882	0.252681
H182	H	-0.695955	-0.878882	0.502681
H183	H	-0.445955	-0.628882	0.752681
H184	H	-0.195955	-0.378882	1.002681
H185	H	-1.078321	-1.264822	0.289122
H186	H	-0.828321	-1.014822	0.539122
H187	H	-0.578321	-0.764822	0.789122
H188	H	-0.328321	-0.514822	1.039122
H189	H	-0.945441	-1.301000	0.425051
H190	H	-0.695441	-1.051000	0.675051
H191	H	-0.445441	-0.801000	0.925051
H192	H	-0.195441	-0.551000	1.175051
Cl193	Cl	-1.095399	-1.210671	0.558188
Cl194	Cl	-0.845399	-0.960671	0.808188
Cl195	Cl	-0.595399	-0.710671	1.058188
Cl196	Cl	-0.345399	-0.460671	1.308188
