data_functionalizedCrystal
_audit_creation_method	'MofGen! by Chris Wilmer'
_symmetry_space_group_name_H-M	'P1'
_symmetry_Int_Tables_number	1
_symmetry_cell_setting	triclinic
loop_
_symmetry_equiv_pos_as_xyz
  x,y,z
_cell_length_a	16.959455
_cell_length_b	16.625539
_cell_length_c	16.959453
_cell_angle_alpha	90.027698
_cell_angle_beta	89.971083
_cell_angle_gamma	89.980159
loop_
_atom_site_label
_atom_site_type_symbol
_atom_site_fract_x
_atom_site_fract_y
_atom_site_fract_z
Zn1	Zn	1.208372	-0.455897	0.314692
Zn2	Zn	1.208261	-0.321066	0.446880
Zn3	Zn	1.076189	-0.321079	0.314719
Zn4	Zn	1.076144	-0.455857	0.446831
O5	O	1.142241	-0.388475	0.380781
O6	O	1.318968	-0.438022	0.332237
O7	O	1.190714	-0.208235	0.429381
O8	O	1.093789	-0.338986	0.204104
O9	O	1.318887	-0.338962	0.429355
O10	O	1.190903	-0.438036	0.204085
O11	O	1.093681	-0.208245	0.332282
O12	O	0.965572	-0.338947	0.332234
O13	O	1.093712	-0.568695	0.429271
O14	O	0.965539	-0.437968	0.429297
O15	O	1.190859	-0.568724	0.332189
O16	O	1.190670	-0.338924	0.557485
O17	O	1.093604	-0.437955	0.557449
C18	C	0.936875	-0.388455	0.380763
C19	C	0.849019	-0.388466	0.380775
C20	C	0.807700	-0.336816	0.431268
C21	C	0.807783	-0.440121	0.330288
C22	C	0.725237	-0.440131	0.330295
C23	C	0.683919	-0.388482	0.380788
C24	C	0.725147	-0.336823	0.431274
C25	C	0.684004	-0.491783	0.279803
C26	C	0.601453	-0.491794	0.279807
C27	C	0.560133	-0.440148	0.330304
C28	C	0.601366	-0.388488	0.380794
C29	C	0.560047	-0.336839	0.431287
C30	C	0.601278	-0.285182	0.481781
C31	C	0.683827	-0.285177	0.481772
C32	C	0.477584	-0.440153	0.330313
C33	C	0.477494	-0.336845	0.431293
C34	C	1.142293	-0.598784	0.380722
C35	C	1.142315	-0.688405	0.380697
C36	C	1.142351	-1.016581	0.380608
C37	C	1.142339	-0.925272	0.380635
C38	C	1.142333	-0.852496	0.380653
C39	C	1.142320	-0.761182	0.380679
C40	C	1.348410	-0.388495	0.380798
C41	C	1.436266	-0.388504	0.380806
C42	C	1.142141	-0.388451	0.586147
C43	C	1.142171	-0.388468	0.674004
C44	C	1.142236	-0.178984	0.380782
C45	C	1.142367	-0.089363	0.380585
C46	C	1.192763	-0.440166	1.045411
C47	C	1.091720	-0.336940	1.045548
C48	C	1.091704	-0.336919	0.963002
C49	C	1.142218	-0.388523	0.921656
C50	C	1.192748	-0.440148	0.962857
C51	C	1.041170	-0.285301	0.921795
C52	C	1.041151	-0.285279	0.839244
C53	C	1.091670	-0.336880	0.797897
C54	C	1.142202	-0.388506	0.839103
C55	C	1.192716	-0.440110	0.797758
C56	C	1.243253	-0.491733	0.838962
C57	C	1.243266	-0.491749	0.921510
C58	C	1.091657	-0.336864	0.715349
C59	C	1.192701	-0.440093	0.715204
C60	C	1.142322	-0.388523	1.174612
C61	C	1.142249	-0.388562	1.086756
H62	H	0.717405	-0.243118	0.522879
O63	O	0.561441	-0.542092	0.230849
C64	C	0.581661	-0.622419	0.248206
H65	H	0.604330	-0.626375	0.311355
H66	H	0.527396	-0.662275	0.241451
H67	H	0.629605	-0.643562	0.205849
H68	H	0.443858	-0.294789	0.472414
H69	H	1.000003	-0.243245	0.805701
O70	O	1.292344	-0.541939	0.798917
C71	C	1.336967	-0.587493	0.852979
H72	H	1.304612	-0.590266	0.911850
H73	H	1.345353	-0.651024	0.829077
H74	H	1.397020	-0.558026	0.861726
O75	O	1.042690	-0.286704	1.085619
C76	C	1.060021	-0.206352	1.065508
H77	H	1.090399	-0.204695	1.005553
H78	H	1.002995	-0.170142	1.062747
H79	H	1.100682	-0.179245	1.111961
O80	O	1.241735	-0.490397	1.085471
C81	C	1.196711	-0.542425	1.133233
H82	H	1.134449	-0.547341	1.108396
H83	H	1.225262	-0.604505	1.134112
H84	H	1.194014	-0.517502	1.195813
O85	O	0.437567	-0.490441	0.281356
C86	C	0.457782	-0.570772	0.298705
H87	H	0.480453	-0.574735	0.361852
H88	H	0.403515	-0.610623	0.291948
H89	H	0.505723	-0.591913	0.256344
H90	H	1.284410	-0.533778	0.955066
O91	O	1.042460	-0.286768	0.675409
C92	C	0.963675	-0.304344	0.695606
H93	H	0.962033	-0.335350	0.755523
H94	H	0.928257	-0.246125	0.698491
H95	H	0.937028	-0.345769	0.649136
H96	H	1.000042	-0.243290	0.955464
O97	O	0.561103	-0.235126	0.530912
C98	C	0.513329	-0.280950	0.582000
H99	H	0.538231	-0.344443	0.586957
H100	H	0.512343	-0.251685	0.642796
H101	H	0.450782	-0.283776	0.557559
H102	H	0.841274	-0.294761	0.472381
H103	H	0.717651	-0.533830	0.238692
O104	O	0.848039	-0.490263	0.281315
C105	C	0.929739	-0.479162	0.292119
H106	H	0.940976	-0.452647	0.353086
H107	H	0.961144	-0.539562	0.286826
H108	H	0.953164	-0.436302	0.245180
H109	H	1.233839	-0.482112	0.681546
