data_functionalizedCrystal
_audit_creation_method	'MofGen! by Chris Wilmer'
_symmetry_space_group_name_H-M	'P1'
_symmetry_Int_Tables_number	1
_symmetry_cell_setting	triclinic
loop_
_symmetry_equiv_pos_as_xyz
  x,y,z
_cell_length_a	12.759401
_cell_length_b	16.994747
_cell_length_c	12.759393
_cell_angle_alpha	90.011549
_cell_angle_beta	90.018496
_cell_angle_gamma	90.011218
loop_
_atom_site_label
_atom_site_type_symbol
_atom_site_fract_x
_atom_site_fract_y
_atom_site_fract_z
Zn1	Zn	1.606282	-0.313978	0.594127
Zn2	Zn	1.606188	-0.445905	0.418509
Zn3	Zn	1.430584	-0.314019	0.418467
Zn4	Zn	1.430584	-0.445844	0.594150
O5	O	1.518409	-0.379937	0.506313
O6	O	1.753290	-0.331487	0.570839
O7	O	1.582854	-0.428453	0.271482
O8	O	1.453930	-0.203633	0.441741
O9	O	1.753221	-0.428413	0.441813
O10	O	1.583015	-0.203602	0.570798
O11	O	1.453839	-0.331557	0.271451
O12	O	1.283563	-0.331498	0.441764
O13	O	1.453930	-0.428309	0.741168
O14	O	1.283563	-0.428349	0.570838
O15	O	1.583015	-0.331428	0.741152
O16	O	1.582854	-0.556278	0.441835
O17	O	1.453838	-0.556234	0.570878
C18	C	1.245442	-0.379922	0.506299
C19	C	1.128665	-0.379935	0.506318
C20	C	1.518349	-0.584877	0.506361
C21	C	1.518356	-0.674199	0.506358
Zn22	Zn	1.430614	-0.945106	0.418437
Zn23	Zn	1.606329	-0.945043	0.594081
Zn24	Zn	1.430620	-0.813237	0.594133
Zn25	Zn	1.606207	-0.813160	0.418475
O26	O	1.518442	-0.879136	0.506282
O27	O	1.453972	-1.055479	0.441700
O28	O	1.583074	-0.927564	0.741109
O29	O	1.283598	-0.830788	0.570832
O30	O	1.583069	-1.055433	0.570744
O31	O	1.283594	-0.927672	0.441750
O32	O	1.453981	-0.830727	0.741147
O33	O	1.453863	-0.702845	0.570869
O34	O	1.582861	-0.830657	0.271449
O35	O	1.582866	-0.702789	0.441813
O36	O	1.453853	-0.927597	0.271421
O37	O	1.753334	-0.927490	0.570781
O38	O	1.753244	-0.830597	0.441763
C39	C	1.073831	-0.430446	0.573416
C40	C	0.964107	-0.430456	0.573427
C41	C	0.964061	-0.329442	0.439234
C42	C	1.073784	-0.329428	0.439229
C43	C	1.128713	-0.480953	0.640505
C44	C	1.073878	-0.531469	0.707607
C45	C	0.964154	-0.531479	0.707619
C46	C	0.909264	-0.480973	0.640528
C47	C	1.792443	-0.379952	0.506328
C48	C	1.909219	-0.379958	0.506335
C49	C	1.518483	-0.379857	0.780347
C50	C	1.518514	-0.379823	0.897124
C51	C	1.518476	-0.174197	0.506260
C52	C	1.518508	-0.084875	0.506238
C53	C	1.518397	-0.379959	0.233346
C54	C	1.518569	-0.379771	0.116570
C55	C	1.585738	-0.329372	0.951979
C56	C	1.585763	-0.329344	1.061703
C57	C	1.451338	-0.430224	1.061707
C58	C	1.451308	-0.430248	0.951985
C59	C	1.652944	-0.278947	0.897117
C60	C	1.720174	-0.228493	0.951972
C61	C	1.720199	-0.228464	1.061696
C62	C	1.652994	-0.278890	1.116565
C63	C	1.791410	-0.879030	0.506273
C64	C	1.908186	-0.879008	0.506300
C65	C	1.518343	-0.879126	0.232248
C66	C	1.518300	-0.879121	0.115471
C67	C	1.244409	-0.879245	0.506293
C68	C	1.127632	-0.879291	0.506297
C69	C	1.518467	-0.879192	0.779249
C70	C	1.518216	-0.879347	0.896025
C71	C	1.963060	-0.929486	0.573425
C72	C	2.072784	-0.929472	0.573430
C73	C	2.072751	-0.828497	0.439185
C74	C	1.963029	-0.828515	0.439175
C75	C	1.908218	-0.979979	0.640550
C76	C	1.963092	-1.030460	0.707681
C77	C	2.072816	-1.030447	0.707687
C78	C	2.127666	-0.979952	0.640562
C79	C	1.451115	-0.929587	0.060593
C80	C	1.451068	-0.929571	-0.049131
C81	C	1.585400	-0.828620	-0.049089
C82	C	1.585441	-0.828633	0.060633
C83	C	1.383975	-0.980075	0.115432
C84	C	1.316785	-1.030546	0.060554
C85	C	1.316738	-1.030530	-0.049170
C86	C	1.383880	-0.980043	-0.104016
H87	H	1.218055	-0.480952	0.640501
H88	H	1.118576	-0.572584	0.762237
H89	H	2.117491	-1.071556	0.762340
C90	C	1.383776	-0.980216	-0.223147
C91	C	1.310611	-1.035251	-0.259472
C92	C	1.310529	-1.035465	-0.369206
H93	H	1.365558	-0.929380	-0.248142
H94	H	1.451573	-0.993880	-0.247949
H95	H	1.242828	-1.021583	-0.234681
H96	H	1.328812	-1.086095	-0.234506
H97	H	1.378326	-1.049129	-0.394008
H98	H	1.292312	-0.984626	-0.394191
H99	H	1.260894	-1.072811	-0.393867
H100	H	1.818875	-0.979993	0.640555
C101	C	1.658257	-0.773898	-0.108823
C102	C	1.643860	-0.784703	-0.216659
C103	C	1.710971	-0.734315	-0.271716
H104	H	1.642930	-0.720876	-0.090943
H105	H	1.728884	-0.785422	-0.090912
H106	H	1.573250	-0.773174	-0.234562
H107	H	1.659196	-0.837715	-0.234570
H108	H	1.781597	-0.745839	-0.253805
H109	H	1.695637	-0.681296	-0.253827
H110	H	1.701218	-0.741644	-0.344888
C111	C	1.243949	-1.085485	0.119960
C112	C	1.266835	-1.163513	0.093203
C113	C	1.199748	-1.214144	0.147894
H114	H	1.253530	-1.078377	0.193183
H115	H	1.173327	-1.074014	0.101968
H116	H	1.337439	-1.174980	0.111202
H117	H	1.257247	-1.170646	0.019990
H118	H	1.129127	-1.202674	0.129902
H119	H	1.209335	-1.207030	0.221114
H120	H	1.215261	-1.267092	0.129740
C121	C	1.658500	-0.773813	0.120034
C122	C	1.717316	-0.729614	0.048527
C123	C	1.784636	-0.679110	0.103209
H124	H	1.618424	-0.739398	0.162858
H125	H	1.704363	-0.803956	0.162798
H126	H	1.671460	-0.699474	0.005780
H127	H	1.757414	-0.764008	0.005700
H128	H	1.830498	-0.709252	0.145973
H129	H	1.744551	-0.644700	0.146031
H130	H	1.824557	-0.649120	0.054700
H131	H	0.919510	-0.572606	0.762264
H132	H	0.819920	-0.480978	0.640551
C133	C	1.903356	-1.085196	0.780513
C134	C	1.795521	-1.074391	0.766163
C135	C	1.740463	-1.124794	0.833248
H136	H	1.921205	-1.138215	0.765132
H137	H	1.921298	-1.073686	0.851143
H138	H	1.777586	-1.085907	0.695549
H139	H	1.777641	-1.021383	0.781552
H140	H	1.758404	-1.113284	0.903879
H141	H	1.758320	-1.177810	0.817862
H142	H	1.667291	-1.117465	0.823529
H143	H	2.217011	-0.979950	0.640566
H144	H	0.919362	-0.288323	0.384611
H145	H	2.117419	-0.787386	0.384536
H146	H	1.918349	-0.787407	0.384522
H147	H	1.118431	-0.288292	0.384600
H148	H	1.774883	-0.187433	0.907291
C149	C	1.793299	-0.173656	1.121066
C150	C	1.852163	-0.129518	1.049531
C151	C	1.919529	-0.079029	1.104181
H152	H	1.753254	-0.139202	1.163864
H153	H	1.839130	-0.203807	1.163854
H154	H	1.806338	-0.099369	1.006761
H155	H	1.892229	-0.163951	1.006731
H156	H	1.965359	-0.109180	1.146969
H157	H	1.879475	-0.044580	1.146977
H158	H	1.959482	-0.049081	1.055654
H159	H	1.396552	-0.471318	0.907321
H160	H	1.652934	-0.278967	0.807774
C161	C	1.383831	-0.980181	0.234560
C162	C	1.310637	-1.035182	0.270843
C163	C	1.310469	-1.035294	0.380577
H164	H	1.451586	-0.993821	0.259498
H165	H	1.365592	-0.929304	0.259448
H166	H	1.328882	-1.086048	0.245966
H167	H	1.242872	-1.021555	0.245934
H168	H	1.292231	-0.984417	0.405465
H169	H	1.378228	-1.048932	0.405504
H170	H	1.260802	-1.072606	0.405208
H171	H	1.653008	-0.278854	1.205910
C172	C	1.378501	-0.484946	1.121466
C173	C	1.392937	-0.474143	1.229297
C174	C	1.325871	-0.524551	1.284377
H175	H	1.307865	-0.473455	1.103610
H176	H	1.393866	-0.537966	1.103550
H177	H	1.377565	-0.421136	1.247205
H178	H	1.463559	-0.485640	1.247184
H179	H	1.341236	-0.577570	1.266461
H180	H	1.255240	-0.513055	1.266512
H181	H	1.335664	-0.517233	1.357545
H182	H	1.262020	-1.071619	-0.093849
