data_functionalizedCrystal
_audit_creation_method	'MofGen! by Chris Wilmer'
_symmetry_space_group_name_H-M	'P1'
_symmetry_Int_Tables_number	1
_symmetry_cell_setting	triclinic
loop_
_symmetry_equiv_pos_as_xyz
  x,y,z
_cell_length_a	14.395555
_cell_length_b	23.196402
_cell_length_c	23.196402
_cell_angle_alpha	90.003332
_cell_angle_beta	59.999759
_cell_angle_gamma	60.002323
loop_
_atom_site_label
_atom_site_type_symbol
_atom_site_fract_x
_atom_site_fract_y
_atom_site_fract_z
Zr1	Zr	1.016767	-0.075675	0.555386
O2	O	1.210564	-0.167725	0.463329
O3	O	0.822971	-0.047455	0.583603
O4	O	1.016764	-0.167726	0.583597
O5	O	1.016774	0.047415	0.463344
O6	O	1.016760	-0.167728	0.678469
O7	O	1.016772	-0.047454	0.463336
O8	O	0.670100	0.047414	0.678481
O9	O	1.363434	-0.167726	0.463332
O10	O	0.902679	-0.035423	0.666443
O11	O	0.902683	0.035379	0.595647
O12	O	1.130849	-0.106224	0.595639
O13	O	1.130854	-0.035422	0.524843
Zr14	Zr	1.016765	0.075629	0.706708
Zr15	Zr	1.016761	-0.075678	0.706695
Zr16	Zr	1.016771	0.075632	0.555399
Zr17	Zr	1.260576	-0.075677	0.555390
Zr18	Zr	0.772955	0.075631	0.706704
O19	O	1.210561	0.047409	0.678491
O20	O	1.210556	-0.167729	0.678472
O21	O	1.210570	0.047414	0.463348
O22	O	0.822967	0.167679	0.798765
O23	O	0.822962	-0.047460	0.798746
O24	O	0.822976	0.167683	0.583622
O25	O	1.016758	-0.047462	0.798750
O26	O	1.016768	0.167679	0.678497
O27	O	1.016772	0.167681	0.583625
O28	O	1.016760	0.047408	0.798758
O29	O	1.363429	-0.167729	0.583603
O30	O	0.670103	0.167683	0.678491
O31	O	0.670098	0.167680	0.798762
O32	O	0.670095	0.047412	0.798752
O33	O	1.363437	-0.047458	0.463343
O34	O	1.363432	-0.047460	0.583614
O35	O	0.902682	0.106178	0.666455
O36	O	0.902678	0.035376	0.737251
O37	O	1.130848	-0.035425	0.666447
O38	O	1.130853	0.035377	0.595651
C39	C	0.711798	-0.000020	0.631041
C40	C	0.608294	-0.000019	0.631039
C41	C	1.016774	-0.000019	0.441782
C42	C	1.016776	-0.000018	0.377547
C43	C	1.016771	0.189238	0.631063
C44	C	1.016772	0.253472	0.631069
C45	C	0.547704	0.038587	0.592441
C46	C	0.561960	-0.027987	0.564457
C47	C	0.409643	0.066535	0.659006
C48	C	0.623976	-0.066633	0.603017
C49	C	0.471596	0.027937	0.697603
C50	C	0.485898	-0.038677	0.669636
C51	C	1.321734	-0.000026	0.631053
C52	C	1.425237	-0.000027	0.631055
C53	C	1.016761	-0.189285	0.631031
C54	C	1.016760	-0.253518	0.631026
C55	C	1.135871	0.246690	0.594113
C56	C	1.135873	0.307044	0.594103
C57	C	1.016769	0.374180	0.631062
C58	C	0.897654	0.380960	0.668019
C59	C	0.897656	0.320606	0.668022
C60	C	0.925517	0.498117	0.692963
C61	C	0.925521	0.558469	0.692961
C62	C	1.016759	0.560334	0.631050
C63	C	1.108016	0.501834	0.569140
C64	C	1.108018	0.441480	0.569144
C65	C	1.016754	0.439628	0.631062
C66	C	1.135868	0.618993	0.594079
C67	C	1.135865	0.679349	0.594067
C68	C	0.897642	0.753265	0.667990
C69	C	0.897649	0.692909	0.667996
C70	C	1.016766	0.625775	0.631042
C71	C	1.016785	-0.052286	0.347370
C72	C	1.016773	-0.052286	0.287019
C73	C	1.016779	-0.000023	0.256839
C74	C	1.016763	0.052255	0.287025
C75	C	1.016762	0.052257	0.347379
C76	C	1.093330	0.016262	0.137466
C77	C	1.093340	0.016255	0.077111
C78	C	1.016778	-0.000026	0.070688
C79	C	0.940223	-0.016316	0.124623
C80	C	0.940221	-0.016313	0.184977
C81	C	1.016780	-0.000019	0.191395
C82	C	1.016771	-0.052297	-0.024927
C83	C	1.016751	-0.052293	-0.085277
C84	C	1.016755	0.052245	-0.085274
C85	C	1.016762	0.052243	-0.024921
C86	C	1.016776	-0.000032	0.005246
C87	C	1.016758	-0.000027	0.820312
C88	C	1.016755	-0.000029	0.884547
C89	C	0.711790	-0.000024	0.820307
C90	C	0.608284	-0.000025	0.884540
C91	C	0.711802	0.189241	0.631057
C92	C	0.608301	0.253476	0.631061
C93	C	0.711795	0.189237	0.820323
C94	C	0.608290	0.253470	0.884561
C95	C	1.321737	-0.189283	0.441771
C96	C	1.425242	-0.253517	0.377533
C97	C	1.321742	-0.000022	0.441787
C98	C	1.425248	-0.000021	0.377554
C99	C	1.321729	-0.189287	0.631037
C100	C	1.425231	-0.253522	0.631033
C101	C	0.559677	-0.036987	0.877743
C102	C	0.462435	-0.037002	0.938091
C103	C	0.413796	-0.000049	1.005235
C104	C	0.462413	0.036915	1.012030
C105	C	0.559659	0.036925	0.951683
C106	C	0.559695	0.320604	0.668023
C107	C	0.462457	0.380965	0.668024
C108	C	0.413821	0.374196	0.631066
C109	C	0.462437	0.307061	0.594099
C110	C	0.559679	0.246702	0.594094
C111	C	0.559681	0.246677	0.951689
C112	C	0.462441	0.307025	1.012054
C113	C	0.413805	0.374166	1.005289
C114	C	0.462424	0.380958	0.938154
C115	C	0.559669	0.320610	0.877791
C116	C	1.473863	-0.246723	0.310405
C117	C	1.571133	-0.307071	0.250040
C118	C	1.619773	-0.374212	0.256805
C119	C	1.571148	-0.381004	0.323940
C120	C	1.473887	-0.320657	0.384303
C121	C	1.473865	0.036935	0.384351
C122	C	1.571133	0.036933	0.324003
C123	C	1.619776	-0.000022	0.256859
C124	C	1.571155	-0.036983	0.250064
C125	C	1.473895	-0.036985	0.310411
C126	C	1.473836	-0.246731	0.667999
C127	C	1.571074	-0.307080	0.668009
C128	C	1.619712	-0.374220	0.631050
C129	C	1.571097	-0.381010	0.594083
C130	C	1.473854	-0.320661	0.594077
H131	H	0.574932	0.071187	0.559755
H132	H	0.422823	0.301561	0.564008
O133	O	1.623606	-0.453422	0.331233
H134	H	1.699392	-0.494237	0.277978
O135	O	1.623531	-0.453429	0.554246
H136	H	1.573382	-0.448022	0.528549
O137	O	0.612139	0.174267	0.958999
H138	H	0.530504	0.168127	0.988316
H139	H	1.610707	-0.301528	0.195382
H140	H	1.434265	-0.192059	0.304883
O141	O	1.421448	-0.076839	0.303078
H142	H	1.471610	-0.102527	0.246248
O143	O	1.175914	0.033820	0.018943
H144	H	1.163069	0.031073	-0.024109
H145	H	0.599241	0.192046	0.563997
H146	H	1.182311	0.503349	0.518726
H147	H	0.422865	0.301483	1.066713
H148	H	0.599283	0.326128	0.698120
O149	O	0.409940	0.076768	1.084454
H150	H	0.460077	0.102472	1.079050
O151	O	0.769182	0.327930	0.707909
H152	H	0.712043	0.357237	0.686565
O153	O	0.409999	-0.076865	0.930755
H154	H	0.460146	-0.102545	0.873926
O155	O	1.016775	-0.108670	0.007623
H156	H	0.927710	-0.106095	0.023685
H157	H	0.599234	0.326151	0.823134
O158	O	1.264330	0.546578	0.554222
H159	H	1.321442	0.540426	0.497415
O160	O	0.611280	-0.059346	0.489894
H161	H	0.635917	-0.027215	0.457947
O162	O	1.724692	-0.439296	0.191693
H163	H	1.687369	-0.439254	0.159820
H164	H	1.434291	-0.326200	0.563972
O165	O	0.410010	0.453370	0.707910
H166	H	0.460150	0.447929	0.733620
O167	O	0.308905	0.439254	1.070397
H168	H	0.283270	0.423243	1.118210
O169	O	0.745261	-0.141230	0.571600
H170	H	0.821712	-0.140638	0.571813
H171	H	1.434300	-0.326196	0.438961
H172	H	0.599222	0.067028	0.957226
O173	O	1.724610	-0.439305	0.631054
H174	H	1.687296	-0.471178	0.654183
O175	O	1.421429	0.076784	0.456767
H176	H	1.471606	0.102468	0.451342
O177	O	1.623548	0.076809	0.331339
H178	H	1.573357	0.102517	0.388168
H179	H	1.698971	-0.000015	0.207726
H180	H	0.458953	-0.071374	0.702276
O181	O	1.623624	-0.076841	0.177643
H182	H	1.699412	-0.070621	0.136828
O183	O	0.409945	0.453375	0.930861
H184	H	0.334145	0.494191	0.984117
H185	H	1.434251	-0.192068	0.698095
H186	H	1.016792	-0.094849	0.371932
O187	O	0.422374	0.059282	0.772143
H188	H	0.334466	0.114559	0.795244
O189	O	1.016757	0.108618	0.007627
H190	H	1.105805	0.083489	0.007496
O191	O	1.175921	0.033818	0.144389
H192	H	1.229171	0.045131	0.096742
H193	H	1.610646	-0.301538	0.698111
O194	O	1.016808	-0.108669	0.254450
H195	H	0.927768	-0.106116	0.293660
O196	O	0.288289	0.141091	0.690333
H197	H	0.313240	0.173026	0.658190
O198	O	1.264340	0.174282	0.554250
H199	H	1.347159	0.179709	0.528546
H200	H	1.182320	0.393851	0.518734
O201	O	1.264332	0.299742	0.554244
H202	H	1.321432	0.270451	0.575612
O203	O	1.264328	0.672038	0.554202
H204	H	1.347150	0.615215	0.528512
H205	H	0.800665	0.807928	0.698078
O206	O	0.857645	-0.033882	0.117702
H207	H	0.804425	-0.045214	0.165341
H208	H	0.800665	0.698434	0.698093
O209	O	0.308915	0.439301	0.631086
H210	H	0.283280	0.487114	0.663009
H211	H	0.851220	0.606094	0.743373
H212	H	0.800679	0.435627	0.698109
O213	O	0.827109	0.496108	0.759746
H214	H	0.726112	0.539032	0.777264
O215	O	0.857655	-0.033877	0.243152
H216	H	0.752720	0.004606	0.264137
O217	O	1.016769	-0.108672	-0.117832
H218	H	1.016794	-0.145024	-0.086718
O219	O	1.016752	0.108622	-0.117809
H220	H	1.105810	0.083495	-0.172940
O221	O	1.016776	0.108624	0.254477
H222	H	1.016793	0.099837	0.207434
H223	H	0.599278	-0.067088	0.823077
O224	O	1.016751	0.108635	0.379933
H225	H	1.105809	0.106064	0.340717
H226	H	0.334611	-0.000062	1.054368
