data_functionalizedCrystal
_audit_creation_method	'MofGen! by Chris Wilmer'
_symmetry_space_group_name_H-M	'P1'
_symmetry_Int_Tables_number	1
_symmetry_cell_setting	triclinic
loop_
_symmetry_equiv_pos_as_xyz
  x,y,z
_cell_length_a	14.971494
_cell_length_b	10.967819
_cell_length_c	13.448316
_cell_angle_alpha	102.130692
_cell_angle_beta	90.005561
_cell_angle_gamma	84.176749
loop_
_atom_site_label
_atom_site_type_symbol
_atom_site_fract_x
_atom_site_fract_y
_atom_site_fract_z
O1	O	0.125494	1.655888	0.366446
O2	O	0.625494	2.155888	0.866446
O3	O	0.137494	1.292608	0.304195
O4	O	0.637494	1.792608	0.804195
O5	O	0.001347	1.483979	0.336986
O6	O	0.501347	1.983979	0.836986
O7	O	0.261641	1.464517	0.333655
O8	O	0.761641	1.964517	0.833655
O9	O	0.001335	1.483975	0.171601
O10	O	0.501335	1.983975	0.671601
O11	O	0.137482	1.292604	0.138810
O12	O	0.637482	1.792604	0.638810
O13	O	0.125482	1.655884	0.201062
O14	O	0.625482	2.155884	0.701062
Cu15	Cu	0.131481	1.474243	0.154835
Cu16	Cu	0.631481	1.974243	0.654835
Cu17	Cu	0.131495	1.474248	0.350422
Cu18	Cu	0.631495	1.974248	0.850422
O19	O	0.261629	1.464512	0.168271
O20	O	0.761629	1.964512	0.668271
C21	C	0.136613	1.246115	0.213536
C22	C	0.636613	1.746115	0.713536
C23	C	0.133995	1.107587	0.189798
C24	C	0.633995	1.607587	0.689798
C25	C	0.130138	0.902659	0.240374
C26	C	0.630138	1.402659	0.740374
C27	C	0.132837	1.045836	0.264902
C28	C	0.632837	1.545836	0.764902
C29	C	-0.031989	1.483105	0.254146
C30	C	0.468011	1.983105	0.754146
C31	C	-0.131299	1.480491	0.253702
C32	C	0.368701	1.980491	0.753702
C33	C	-0.177944	1.479268	0.343645
C34	C	0.322056	1.979268	0.843645
C35	C	-0.271257	1.476804	0.343224
C36	C	0.228743	1.976804	0.843224
C37	C	-0.317923	1.475572	0.252861
C38	C	0.182077	1.975572	0.752861
C39	C	-0.271271	1.476791	0.162911
C40	C	0.228729	1.976791	0.662911
C41	C	-0.177960	1.479246	0.163332
C42	C	0.322040	1.979246	0.663332
C43	C	-0.465762	1.471677	0.162041
C44	C	0.034238	1.971677	0.662041
C45	C	-0.559080	1.469224	0.161621
C46	C	-0.059080	1.969224	0.661621
C47	C	-0.559059	1.469234	0.341933
C48	C	-0.059059	1.969234	0.841933
C49	C	-0.465747	1.471690	0.342354
C50	C	0.034253	1.971690	0.842354
C51	C	-0.419102	1.472911	0.252404
C52	C	0.080898	1.972911	0.752404
C53	C	0.294964	1.465387	0.251113
C54	C	0.794964	1.965387	0.751113
C55	C	0.394275	1.468001	0.251563
C56	C	0.894275	1.968001	0.751563
C57	C	0.126363	1.702377	0.291723
C58	C	0.626363	2.202377	0.791723
C59	C	0.128980	1.840905	0.315467
C60	C	0.628980	2.340905	0.815467
N61	N	0.131498	1.474253	0.487987
N62	N	0.631498	1.974253	0.987987
N63	N	0.131471	1.474249	0.017272
N64	N	0.631471	1.974249	0.517272
C65	C	0.071333	1.559150	0.554574
C66	C	0.571333	2.059150	1.054574
C67	C	0.071330	1.559155	0.658678
C68	C	0.571330	2.059155	1.158678
C69	C	0.131490	1.474256	0.696192
C70	C	0.631490	1.974256	1.196192
C71	C	0.191661	1.389355	0.629596
C72	C	0.691661	1.889355	1.129596
C73	C	0.191667	1.389356	0.525495
C74	C	0.691667	1.889356	1.025495
C75	C	0.191643	1.389355	0.846577
C76	C	0.691643	1.889355	1.346577
C77	C	0.191636	1.389352	0.950685
C78	C	0.691636	1.889352	1.450685
C79	C	0.071306	1.559154	0.979759
C80	C	0.571306	2.059154	1.479759
C81	C	0.071312	1.559156	0.875658
C82	C	0.571312	2.059156	1.375658
C83	C	0.131483	1.474252	0.809070
C84	C	0.631483	1.974252	1.309070
H85	H	-0.309231	1.475813	0.416465
H86	H	0.190769	1.975813	0.916465
O87	O	0.132702	1.037302	0.080551
O88	O	0.632702	1.537302	0.580551
H89	H	0.194045	1.051258	0.039745
H90	H	0.694045	1.551258	0.539745
H91	H	-0.427784	1.472644	0.088790
H92	H	0.072216	1.972644	0.588790
O93	O	0.256538	1.297784	0.670069
O94	O	0.756538	1.797784	1.170069
H95	H	0.326413	1.313596	0.652831
H96	H	0.826413	1.813596	1.152831
O97	O	0.129374	0.832202	0.131139
O98	O	0.629374	1.332202	0.631139
H99	H	0.127666	0.730750	0.129008
H100	H	0.627666	1.230750	0.629008
O101	O	-0.415409	1.473026	0.439815
O102	O	0.084591	1.973026	0.939815
H103	H	-0.365443	1.389165	0.429748
H104	H	0.134557	1.889165	0.929748
O105	O	0.130316	0.911260	0.424686
O106	O	0.630316	1.411260	0.924686
H107	H	0.068994	0.897363	0.465561
H108	H	0.568994	1.397363	0.965561
H109	H	-0.139956	1.480278	0.417230
H110	H	0.360044	1.980278	0.917230
H111	H	0.240661	1.320226	0.471280
H112	H	0.740661	1.820226	0.971280
H113	H	0.022313	1.628285	1.033982
H114	H	0.522313	2.128285	1.533982
O115	O	-0.609346	1.467887	0.438957
O116	O	-0.109346	1.967887	0.938957
H117	H	-0.659319	1.551738	0.457656
H118	H	-0.159319	2.051738	0.957656
O119	O	-0.321609	1.475483	0.065453
O120	O	0.178391	1.975483	0.565453
H121	H	-0.356689	1.389393	0.046386
H122	H	0.143311	1.889393	0.546386
H123	H	-0.139981	1.480224	0.090088
H124	H	0.360019	1.980224	0.590088
H125	H	0.022322	1.628281	0.845115
H126	H	0.522322	2.128281	1.345115
O127	O	0.134173	1.116196	0.374124
O128	O	0.634173	1.616196	0.874124
H129	H	0.132921	1.049179	0.425401
H130	H	0.632921	1.549179	0.925401
O131	O	-0.609418	1.467875	0.064158
O132	O	-0.109418	1.967875	0.564158
H133	H	-0.561306	1.469114	0.001677
H134	H	-0.061306	1.969114	0.501677
O135	O	0.006453	1.650730	0.514115
O136	O	0.506453	2.150730	1.014115
H137	H	-0.035375	1.709776	0.577913
H138	H	0.464625	2.209776	1.077913
H139	H	0.022340	1.628286	0.712894
H140	H	0.522340	2.128286	1.212894
H141	H	0.240625	1.320219	0.981222
H142	H	0.740625	1.820219	1.481222
O143	O	0.256545	1.297790	0.774752
O144	O	0.756545	1.797790	1.274752
H145	H	0.298372	1.238747	0.818323
H146	H	0.798372	1.738747	1.318323
