data_functionalizedCrystal
_audit_creation_method	'MofGen! by Chris Wilmer'
_symmetry_space_group_name_H-M	'P1'
_symmetry_Int_Tables_number	1
_symmetry_cell_setting	triclinic
loop_
_symmetry_equiv_pos_as_xyz
  x,y,z
_cell_length_a	18.050591
_cell_length_b	18.050590
_cell_length_c	17.077396
_cell_angle_alpha	90.031378
_cell_angle_beta	90.022005
_cell_angle_gamma	90.015000
loop_
_atom_site_label
_atom_site_type_symbol
_atom_site_fract_x
_atom_site_fract_y
_atom_site_fract_z
Zn1	Zn	1.135359	-0.295718	0.443939
Zn2	Zn	1.135286	-0.419919	0.312670
Zn3	Zn	1.011173	-0.295739	0.312676
Zn4	Zn	1.011147	-0.419863	0.443882
O5	O	1.073241	-0.357810	0.378292
O6	O	1.239274	-0.312208	0.426547
O7	O	1.118802	-0.403478	0.202824
O8	O	1.027688	-0.191812	0.330114
O9	O	1.239220	-0.403458	0.330105
O10	O	1.118927	-0.191796	0.426553
O11	O	1.027617	-0.312244	0.202828
O12	O	0.907245	-0.312190	0.330059
O13	O	1.027644	-0.403363	0.553737
O14	O	0.907226	-0.403383	0.426456
O15	O	1.118902	-0.312154	0.553779
O16	O	1.118777	-0.523836	0.330050
O17	O	1.027573	-0.523795	0.426451
C18	C	0.880289	-0.357784	0.378253
C19	C	0.797743	-0.357790	0.378254
C20	C	0.548907	-0.308148	0.325958
C21	C	0.598338	-0.290058	0.397597
C22	C	0.500623	-0.357828	0.378319
C23	C	0.598273	-0.375865	0.306652
C24	C	0.646608	-0.357808	0.378283
C25	C	0.548967	-0.339703	0.449996
C26	C	0.548898	-0.425542	0.359003
C27	C	0.598307	-0.407477	0.430691
C28	C	0.416525	-0.357838	0.378338
C29	C	0.730705	-0.357798	0.378272
C30	C	1.073184	-0.550762	0.378261
C31	C	1.073228	-0.633308	0.378274
C32	C	1.122928	-0.832754	0.325924
C33	C	1.141066	-0.882084	0.397568
C34	C	1.073270	-0.784438	0.378305
C35	C	1.055207	-0.882189	0.306693
C36	C	1.073312	-0.930423	0.378329
C37	C	1.091443	-0.832681	0.449987
C38	C	1.005553	-0.832782	0.359063
C39	C	1.023665	-0.882090	0.430757
C40	C	1.073247	-0.700340	0.378290
C41	C	1.073334	-1.014520	0.378352
C42	C	1.266947	-0.357837	0.378332
C43	C	1.349493	-0.357848	0.378349
C44	C	1.073278	-0.357750	0.583036
C45	C	1.073294	-0.357724	0.670286
C46	C	1.073319	-0.164104	0.378341
C47	C	1.073352	-0.081558	0.378361
C48	C	1.073247	-0.357816	0.174344
C49	C	1.073376	-0.357633	0.087095
C50	C	1.120841	-0.405143	1.046101
C51	C	1.120822	-0.405165	0.964121
C52	C	1.073341	-0.357672	0.923135
C53	C	1.025871	-0.310159	0.964135
C54	C	1.025886	-0.310142	1.046114
C55	C	1.025843	-0.310197	0.793265
C56	C	1.025828	-0.310213	0.711280
C57	C	1.120779	-0.405220	0.711271
C58	C	1.120794	-0.405203	0.793250
C59	C	1.073325	-0.357689	0.834244
H60	H	0.620042	-0.232782	0.413933
O61	O	0.979667	-0.264189	0.671375
C62	C	0.931672	-0.306484	0.623944
H63	H	0.957846	-0.362770	0.611659
H64	H	0.876636	-0.314631	0.655518
C65	C	0.886086	-0.196516	0.561166
C66	C	0.918236	-0.265645	0.546071
H67	H	0.877794	-0.171324	0.513132
H68	H	0.918418	-0.168020	0.593123
H69	H	0.840226	-0.203315	0.587479
H70	H	0.964099	-0.258845	0.519768
H71	H	0.885911	-0.294139	0.514108
O72	O	0.522898	-0.258059	0.273227
C73	C	0.444796	-0.259198	0.273480
H74	H	0.424618	-0.314851	0.296712
H75	H	0.423198	-0.212826	0.312643
C76	C	0.440697	-0.179553	0.160936
C77	C	0.415914	-0.247909	0.189464
H78	H	0.422880	-0.172586	0.109113
H79	H	0.493315	-0.178783	0.160768
H80	H	0.422696	-0.140917	0.193580
H81	H	0.433922	-0.286544	0.156827
H82	H	0.363297	-0.248685	0.189625
O83	O	1.109897	-0.806819	0.522220
C84	C	1.174571	-0.763313	0.516760
H85	H	1.206881	-0.779749	0.462105
H86	H	1.158681	-0.702297	0.512961
C87	C	1.183350	-0.755819	0.656886
C88	C	1.223038	-0.776012	0.589761
H89	H	1.213246	-0.763649	0.701918
H90	H	1.139777	-0.785128	0.660566
H91	H	1.170111	-0.704974	0.653710
H92	H	1.236268	-0.826858	0.592934
H93	H	1.266615	-0.746712	0.586084
O94	O	0.973680	-0.907867	0.483720
C95	C	1.010391	-0.951755	0.539904
H96	H	1.064425	-0.973528	0.514148
H97	H	1.022923	-0.916836	0.593959
C98	C	0.894209	-0.990710	0.594684
C99	C	0.960571	-1.017457	0.563048
H100	H	0.863477	-1.031236	0.608964
H101	H	0.869475	-0.961140	0.556834
H102	H	0.904662	-0.961611	0.639726
H103	H	0.950118	-1.046547	0.518002
H104	H	0.985302	-1.047034	0.600891
O105	O	1.166968	-0.451210	0.924210
C106	C	1.214951	-0.408942	0.876826
H107	H	1.188776	-0.352661	0.864561
H108	H	1.269997	-0.400782	0.908430
C109	C	1.260511	-0.518946	0.814006
C110	C	1.228360	-0.449823	0.798936
H111	H	1.268786	-0.544164	0.765962
H112	H	1.228186	-0.547423	0.845932
H113	H	1.306380	-0.512136	0.840345
H114	H	1.182489	-0.456634	0.772607
H115	H	1.260678	-0.421348	0.767005
H116	H	0.987236	-0.271453	1.079490
H117	H	0.527399	-0.324372	0.510605
O118	O	0.979640	-0.264105	0.924357
C119	C	0.905620	-0.280308	0.944382
H120	H	0.901849	-0.339631	0.966898
H121	H	0.886231	-0.240478	0.991976
C122	C	0.860678	-0.198813	0.843895
C123	C	0.856047	-0.271677	0.871544
H124	H	0.830098	-0.193486	0.798967
H125	H	0.910547	-0.187895	0.830406
H126	H	0.844523	-0.165630	0.883564
H127	H	0.872211	-0.304858	0.831879
H128	H	0.806179	-0.282601	0.885025
H129	H	0.527165	-0.482798	0.342655
H130	H	0.619860	-0.449481	0.475007
H131	H	0.987188	-0.271507	0.826639
H132	H	1.198351	-0.903742	0.413858
O133	O	0.937255	-0.806953	0.339469
C134	C	0.918394	-0.832151	0.263883
H135	H	0.971044	-0.846017	0.230076
H136	H	0.882377	-0.883829	0.268808
C137	C	0.810656	-0.754107	0.261857
C138	C	0.875323	-0.771131	0.220332
H139	H	0.784085	-0.716469	0.234993
H140	H	0.823361	-0.737132	0.312782
H141	H	0.780651	-0.797177	0.265958
H142	H	0.905331	-0.728064	0.216240
H143	H	0.862622	-0.788098	0.169405
H144	H	0.619933	-0.391129	0.246060
H145	H	1.159509	-0.443814	1.079465
O146	O	1.172936	-0.806869	0.273042
C147	C	1.136064	-0.763950	0.216143
H148	H	1.075242	-0.780813	0.213660
H149	H	1.140410	-0.702807	0.232269
C150	C	1.246783	-0.756173	0.138607
C151	C	1.172081	-0.776889	0.135553
H152	H	1.269000	-0.764151	0.088896
H153	H	1.271625	-0.785086	0.176942
H154	H	1.250394	-0.705221	0.152049
H155	H	1.168471	-0.827841	0.122121
H156	H	1.147238	-0.747985	0.097213
H157	H	1.039913	-0.903936	0.246121
O158	O	1.166819	-0.451364	0.833156
C159	C	1.124528	-0.499323	0.880544
H160	H	1.068257	-0.473124	0.892813
H161	H	1.116350	-0.554371	0.848940
C162	C	1.234509	-0.544916	0.943356
C163	C	1.165397	-0.512736	0.958431
H164	H	1.259719	-0.553193	0.991399
H165	H	1.263001	-0.512608	0.911428
H166	H	1.227684	-0.590786	0.917018
H167	H	1.172224	-0.466863	0.984759
H168	H	1.136907	-0.545037	0.990365
O169	O	1.166818	-0.451356	0.671333
C170	C	1.156635	-0.441181	0.590188
H171	H	1.099330	-0.416852	0.578988
H172	H	1.200697	-0.401645	0.566942
C173	C	1.233784	-0.546215	0.561835
C174	C	1.163398	-0.516340	0.548079
H175	H	1.237959	-0.592576	0.535859
H176	H	1.240647	-0.553069	0.616504
H177	H	1.270494	-0.513262	0.542464
H178	H	1.126690	-0.549289	0.567459
H179	H	1.156529	-0.509493	0.493412
