data_functionalizedCrystal
_audit_creation_method	'MofGen! by Chris Wilmer'
_symmetry_space_group_name_H-M	'P1'
_symmetry_Int_Tables_number	1
_symmetry_cell_setting	triclinic
loop_
_symmetry_equiv_pos_as_xyz
  x,y,z
_cell_length_a	10.489741
_cell_length_b	11.026607
_cell_length_c	9.482900
_cell_angle_alpha	101.363848
_cell_angle_beta	99.430409
_cell_angle_gamma	83.437405
loop_
_atom_site_label
_atom_site_type_symbol
_atom_site_fract_x
_atom_site_fract_y
_atom_site_fract_z
O1	O	0.519526	-1.633618	-0.120902
O2	O	1.019526	-1.133618	0.379098
O3	O	0.458584	-1.279780	-0.120903
O4	O	0.958584	-0.779780	0.379097
O5	O	0.305229	-1.464749	-0.120894
O6	O	0.805229	-0.964749	0.379106
O7	O	0.672881	-1.448649	-0.120911
O8	O	1.172881	-0.948649	0.379089
O9	O	0.336539	-1.427179	0.120897
O10	O	0.836539	-0.927179	0.620897
O11	O	0.489894	-1.242210	0.120887
O12	O	0.989894	-0.742210	0.620887
O13	O	0.550836	-1.596048	0.120889
O14	O	1.050836	-1.096048	0.620889
Cu15	Cu	0.523224	-1.415698	0.142965
Cu16	Cu	1.023224	-0.915698	0.642965
Cu17	Cu	0.486196	-1.460129	-0.142980
Cu18	Cu	0.986196	-0.960129	0.357020
O19	O	0.704190	-1.411079	0.120879
O20	O	1.204190	-0.911079	0.620879
C21	C	0.462996	-1.215686	-0.000008
C22	C	0.962996	-0.715686	0.499992
C23	C	0.429482	-1.080679	-0.000008
C24	C	0.929482	-0.580679	0.499992
C25	C	0.273085	-1.444748	0.000000
C26	C	0.773085	-0.944748	0.500000
C27	C	0.130655	-1.441110	-0.000002
C28	C	0.630655	-0.941110	0.499998
C29	C	0.546423	-1.660143	-0.000010
C30	C	1.046423	-1.160143	0.499990
C31	C	0.579936	-1.795151	-0.000019
C32	C	1.079936	-1.295151	0.499981
C33	C	0.036624	-1.323420	-0.000013
C34	C	0.536624	-0.823420	0.499987
C35	C	-0.027831	-1.360492	0.119202
C36	C	0.472169	-0.860492	0.619202
C37	C	-0.058669	-1.397561	-0.119184
C38	C	0.441331	-0.897561	0.380816
C39	C	0.068088	-1.478215	0.119312
C40	C	0.568088	-0.978215	0.619312
C41	C	0.037242	-1.515284	-0.119182
C42	C	0.537242	-1.015284	0.380818
C43	C	-0.027163	-1.552438	0.000063
C44	C	0.472837	-1.052438	0.500063
C45	C	0.736334	-1.431080	-0.000018
C46	C	1.236334	-0.931080	0.499982
C47	C	0.878763	-1.434720	-0.000025
C48	C	1.378763	-0.934720	0.499975
N49	N	0.549268	-1.384457	0.344084
N50	N	1.049268	-0.884457	0.844084
C51	C	0.522021	-1.007683	-0.000014
C52	C	1.022021	-0.507683	0.499986
C53	C	0.487384	-0.868146	-0.000014
C54	C	0.987384	-0.368146	0.499986
N55	N	0.460144	-1.491380	-0.344099
N56	N	0.960144	-0.991380	0.155901
C57	C	0.493869	-1.450906	0.416286
C58	C	0.993869	-0.950906	0.916286
C59	C	0.515551	-1.424922	0.583703
C60	C	1.015551	-0.924922	1.083703
H61	H	0.065005	-1.226636	0.000107
H62	H	0.565005	-0.726636	0.500107
H63	H	0.430383	-1.527029	0.354162
H64	H	0.930383	-1.027029	0.854162
F65	F	0.075069	-1.600791	-0.250926
F66	F	0.575069	-1.100791	0.249074
F67	F	0.292409	-1.027344	0.000008
F68	F	0.792409	-0.527344	0.500008
F69	F	0.598522	-1.325406	0.664895
F70	F	1.098522	-0.825406	1.164895
F71	F	0.377424	-1.591096	0.574712
F72	F	0.877424	-1.091096	1.074712
F73	F	-0.130550	-1.352914	-0.250914
F74	F	0.369450	-0.852914	0.249086
F75	F	0.632235	-1.284946	0.425282
F76	F	1.132235	-0.784946	0.925282
H77	H	0.122930	-1.512292	0.220212
H78	H	0.622930	-1.012292	0.720212
F79	F	-0.063910	-1.679016	0.000145
F80	F	0.436090	-1.179016	0.500145
F81	F	-0.065624	-1.274936	0.250940
F82	F	0.434376	-0.774936	0.750940
H83	H	0.626890	-1.048490	-0.000010
H84	H	1.126890	-0.548490	0.499990
H85	H	0.684814	-0.835951	-0.000014
H86	H	1.184814	-0.335951	0.499986
F87	F	0.350304	-0.814817	0.000002
F88	F	0.850304	-0.314817	0.500002
