data_functionalizedCrystal
_audit_creation_method	'MofGen! by Chris Wilmer'
_symmetry_space_group_name_H-M	'P1'
_symmetry_Int_Tables_number	1
_symmetry_cell_setting	triclinic
loop_
_symmetry_equiv_pos_as_xyz
  x,y,z
_cell_length_a	23.532407
_cell_length_b	23.532357
_cell_length_c	12.996460
_cell_angle_alpha	89.988323
_cell_angle_beta	89.997089
_cell_angle_gamma	82.838519
loop_
_atom_site_label
_atom_site_type_symbol
_atom_site_fract_x
_atom_site_fract_y
_atom_site_fract_z
O1	O	0.755248	0.069138	-0.085514
O2	O	0.589383	0.079141	-0.085532
O3	O	0.677332	-0.008794	-0.085502
O4	O	0.667299	0.157073	-0.085545
O5	O	0.677323	-0.008799	0.085632
O6	O	0.589374	0.079137	0.085602
O7	O	0.755239	0.069133	0.085620
Cu8	Cu	0.672305	0.074134	0.101236
Cu9	Cu	0.672316	0.074140	-0.101149
O10	O	0.667290	0.157069	0.085589
C11	C	0.568162	0.078884	0.000033
C12	C	0.504945	0.078118	0.000027
C13	C	0.677076	-0.030013	0.000069
C14	C	0.676322	-0.093232	0.000078
C15	C	0.238788	0.022922	0.000069
C16	C	0.298188	0.023633	0.000069
O17	O	0.334940	-0.020154	0.000116
N18	N	0.320805	0.075911	0.000048
C19	C	0.284018	0.127480	0.000038
O20	O	0.308710	0.172012	0.000022
C21	C	0.224619	0.126768	0.000046
C22	C	0.202006	0.074487	0.000056
C23	C	0.216174	-0.029355	0.000081
C24	C	0.156778	-0.030066	0.000079
C25	C	0.119996	0.021499	0.000066
C26	C	0.142610	0.073776	0.000055
C27	C	0.187833	0.178337	0.000044
C28	C	0.128431	0.177620	0.000052
C29	C	0.105818	0.125339	0.000063
C30	C	0.046431	0.124630	0.000041
N31	N	0.023815	0.072353	0.000061
C32	C	0.060597	0.020787	0.000074
C33	C	0.408760	0.128971	0.000024
C34	C	0.468158	0.129684	0.000009
C35	C	0.482324	0.025837	0.000041
C36	C	0.422925	0.025125	0.000049
C37	C	0.386143	0.076694	0.000044
C38	C	-0.064140	0.019297	0.000070
C39	C	-0.123542	0.018591	0.000064
C40	C	-0.137702	0.122438	0.000038
C41	C	-0.078306	0.123145	0.000038
C42	C	-0.041525	0.071570	0.000058
O43	O	0.009644	0.168394	-0.000002
O44	O	0.035897	-0.023737	0.000104
C45	C	0.671590	-0.485240	-0.093263
C46	C	0.670873	-0.544640	-0.093269
O47	O	0.670487	-0.575354	-0.172604
N48	N	0.670512	-0.574354	0.000015
C49	C	0.670863	-0.544664	0.093311
O50	O	0.670490	-0.575392	0.172655
C51	C	0.671576	-0.485265	0.093315
C52	C	0.671942	-0.455555	0.000026
C53	C	0.671956	-0.455530	-0.186545
C54	C	0.672674	-0.396135	-0.186539
C55	C	0.673026	-0.366450	-0.093250
C56	C	0.672661	-0.396160	0.000032
C57	C	0.671923	-0.455576	0.186610
C58	C	0.672636	-0.396173	0.186607
C59	C	0.673002	-0.366463	0.093317
C60	C	0.673732	-0.307080	0.093327
N61	N	0.674092	-0.277366	0.000043
C62	C	0.673740	-0.307051	-0.093245
C63	C	0.669364	-0.669406	0.093293
C64	C	0.668655	-0.728804	0.093289
C65	C	0.668664	-0.728775	-0.093290
C66	C	0.669377	-0.669377	-0.093286
C67	C	0.669725	-0.639692	0.000010
C68	C	0.675249	-0.182317	-0.093225
C69	C	0.675969	-0.122917	-0.093210
C70	C	0.675957	-0.122950	0.093369
C71	C	0.675240	-0.182345	0.093355
C72	C	0.674883	-0.212027	0.000050
O73	O	0.674116	-0.276327	0.172622
O74	O	0.674105	-0.276315	-0.172577
C75	C	0.776459	0.069390	0.000052
C76	C	0.839676	0.070156	0.000052
C77	C	0.667545	0.178288	0.000017
C78	C	0.668300	0.241506	0.000000
N79	N	0.672302	0.074130	0.243584
N80	N	0.672324	0.074140	-0.243496
C81	C	0.672315	0.074141	0.663398
C82	C	0.672310	0.074140	0.546593
C83	C	0.672309	0.074136	0.453494
C84	C	0.672303	0.074134	0.336682
H85	H	-0.141950	-0.023984	0.000070
H86	H	0.668366	-0.752990	0.169255
H87	H	0.098485	0.219615	0.000054
Br88	Br	0.218507	0.249294	0.000027
Br89	Br	0.673106	-0.355890	0.313229
Br90	Br	0.674756	-0.222669	0.219963
Br91	Br	0.676437	-0.082652	0.219969
H92	H	0.378815	0.170968	0.000013
H93	H	-0.034199	-0.022700	0.000086
H94	H	0.676269	-0.098730	-0.169182
H95	H	0.138372	-0.072639	0.000092
H96	H	0.512283	-0.016151	0.000051
H97	H	0.671667	-0.479693	-0.262516
H98	H	0.246117	-0.071348	0.000094
Br99	Br	0.674764	-0.222590	-0.219854
Br100	Br	0.669840	-0.629126	0.219920
Br101	Br	0.392242	-0.045830	0.000065
Br102	Br	0.673167	-0.355823	-0.313153
Br103	Br	0.669874	-0.629062	-0.219897
H104	H	0.486564	0.172256	-0.000014
H105	H	-0.059893	0.165716	0.000028
H106	H	-0.167661	0.164421	0.000022
H107	H	0.668375	-0.752956	-0.169251
Br108	Br	0.671423	-0.495881	0.313226
