data_functionalizedCrystal
_audit_creation_method	'MofGen! by Chris Wilmer'
_symmetry_space_group_name_H-M	'P1'
_symmetry_Int_Tables_number	1
_symmetry_cell_setting	triclinic
loop_
_symmetry_equiv_pos_as_xyz
  x,y,z
_cell_length_a	10.540514
_cell_length_b	15.944493
_cell_length_c	9.016244
_cell_angle_alpha	90.003635
_cell_angle_beta	89.992124
_cell_angle_gamma	83.995102
loop_
_atom_site_label
_atom_site_type_symbol
_atom_site_fract_x
_atom_site_fract_y
_atom_site_fract_z
O1	O	1.684264	0.118272	-0.123338
O2	O	1.314691	0.129447	-0.123334
O3	O	1.509608	0.001641	-0.123348
O4	O	1.489347	0.246078	-0.123324
O5	O	1.509580	0.001644	0.123332
O6	O	1.314663	0.129450	0.123346
O7	O	1.684236	0.118274	0.123343
Cu8	Cu	1.499447	0.123862	0.145869
Cu9	Cu	1.499480	0.123859	-0.145860
O10	O	1.489319	0.246081	0.123357
C11	C	1.267385	0.128615	0.000006
C12	C	1.126470	0.126121	0.000006
C13	C	1.508766	-0.029657	-0.000014
C14	C	1.506283	-0.122921	-0.000033
C15	C	1.054491	0.217526	0.000013
C16	C	0.907914	0.214963	-0.000555
C17	C	0.934841	0.076409	-0.140600
C18	C	1.081336	0.079620	-0.140710
C19	C	1.081725	0.078271	0.139822
C20	C	0.934758	0.077389	0.141662
C21	C	1.621016	-0.358003	-0.000006
C22	C	1.559159	-0.408938	-0.121631
C23	C	1.501683	-0.293669	-0.000015
C24	C	1.559103	-0.408911	0.121577
C25	C	1.497248	-0.458605	0.000009
C26	C	1.439858	-0.343375	-0.121741
C27	C	1.439820	-0.343345	0.121577
C28	C	1.377875	-0.394247	-0.000078
C29	C	1.504241	-0.198654	-0.000030
C30	C	1.494681	-0.553617	0.000014
C31	C	1.731542	0.119107	-0.000000
C32	C	1.872457	0.121601	-0.000010
C33	C	1.490161	0.277379	0.000020
C34	C	1.492644	0.370642	0.000029
N35	N	1.499432	0.123864	0.351055
N36	N	1.499505	0.123851	-0.351046
C37	C	1.394851	0.192003	0.586095
C38	C	1.395076	0.192258	0.414204
C39	C	1.631879	0.143795	0.413395
C40	C	1.631307	0.144278	0.585340
C41	C	1.472888	0.035571	0.585590
C42	C	1.469835	0.036144	0.413635
H43	H	0.864743	0.250508	0.100202
H44	H	1.609512	-0.437544	0.224395
C45	C	1.759868	-0.336063	-0.000168
H46	H	1.802088	-0.358633	-0.086697
H47	H	1.802657	-0.359482	0.085358
H48	H	1.760516	-0.276530	0.000702
H49	H	1.389455	-0.314680	0.224408
H50	H	1.411611	0.257127	0.629295
H51	H	1.112783	0.108699	0.246417
H52	H	1.378414	0.016600	0.629036
H53	H	1.275005	-0.410320	-0.000144
H54	H	1.654764	0.208683	0.625435
H55	H	1.296626	0.180267	0.372059
C56	C	1.261430	0.176066	0.642026
H57	H	1.268350	0.127709	0.704224
H58	H	1.208233	0.166971	0.559786
H59	H	1.225402	0.223685	0.696614
C60	C	1.418031	0.280733	0.358616
H61	H	1.427267	0.316657	0.441121
H62	H	1.347527	0.303136	0.300146
H63	H	1.493487	0.276991	0.300304
C64	C	1.566103	-0.035666	0.355578
H65	H	1.545918	-0.087875	0.395142
H66	H	1.649760	-0.025953	0.385377
H67	H	1.562006	-0.037478	0.250386
H68	H	1.711613	0.096638	0.626917
H69	H	1.609567	-0.437587	-0.224459
H70	H	1.389503	-0.314854	-0.224675
C71	C	1.147459	-0.011079	-0.148848
H72	H	1.084753	-0.049723	-0.152082
H73	H	1.199755	-0.022188	-0.063841
H74	H	1.198643	-0.017284	-0.235680
H75	H	0.911521	0.009337	0.150562
C76	C	0.878741	0.121993	0.282179
H77	H	0.916809	0.094961	0.367505
H78	H	0.789188	0.119191	0.284779
H79	H	0.895685	0.179348	0.280952
C80	C	1.664319	0.229819	0.355225
H81	H	1.597327	0.253699	0.292966
H82	H	1.741572	0.222364	0.300266
H83	H	1.674041	0.266475	0.436570
H84	H	1.372406	0.021036	0.372893
C85	C	1.575975	-0.032957	0.640509
H86	H	1.634956	-0.007937	0.701758
H87	H	1.619611	-0.059220	0.557815
H88	H	1.536951	-0.073982	0.695871
H89	H	1.082503	0.254607	0.100816
C90	C	1.094634	0.266883	-0.135981
H91	H	1.155066	0.232027	-0.192765
H92	H	1.131788	0.315531	-0.103878
H93	H	1.021805	0.283527	-0.195220
H94	H	0.913483	0.007837	-0.145438
H95	H	1.109113	0.112625	-0.246198
C96	C	0.850874	0.262796	-0.137462
H97	H	0.917300	0.283862	-0.192961
H98	H	0.791757	0.308458	-0.106286
H99	H	0.808389	0.225576	-0.197617
C100	C	0.876781	0.118283	-0.282476
H101	H	0.814540	0.163300	-0.256334
H102	H	0.837826	0.077813	-0.339239
H103	H	0.942169	0.139591	-0.339372
C104	C	1.146836	-0.012806	0.141658
H105	H	1.201034	-0.021661	0.057681
H106	H	1.083701	-0.051146	0.138780
H107	H	1.195968	-0.021790	0.229634
H108	H	1.711608	0.095512	0.372485
