data_functionalizedCrystal
_audit_creation_method	'MofGen! by Chris Wilmer'
_symmetry_space_group_name_H-M	'P1'
_symmetry_Int_Tables_number	1
_symmetry_cell_setting	triclinic
loop_
_symmetry_equiv_pos_as_xyz
  x,y,z
_cell_length_a	15.944551
_cell_length_b	15.944551
_cell_length_c	15.021413
_cell_angle_alpha	89.996935
_cell_angle_beta	89.997174
_cell_angle_gamma	96.501262
loop_
_atom_site_label
_atom_site_type_symbol
_atom_site_fract_x
_atom_site_fract_y
_atom_site_fract_z
O1	O	1.114529	-0.108321	-0.073941
O2	O	0.869979	-0.121677	-0.073964
O3	O	0.998932	0.007276	-0.073944
O4	O	0.985576	-0.237274	-0.073961
O5	O	0.998912	0.007257	0.074121
O6	O	0.869959	-0.121695	0.074101
O7	O	1.114508	-0.108339	0.074123
Zn8	Zn	0.992230	-0.115020	0.097620
Zn9	Zn	0.992257	-0.114996	-0.097461
O10	O	0.985555	-0.237292	0.074103
C11	C	0.838675	-0.121132	0.000066
C12	C	0.745429	-0.119470	0.000057
C13	C	0.998367	0.038561	0.000089
C14	C	0.996705	0.131807	0.000089
C15	C	0.530572	-0.035565	0.000081
C16	C	0.469562	-0.074518	-0.072926
C17	C	0.574703	-0.116462	0.000068
C18	C	0.469564	-0.074556	0.073054
C19	C	0.409790	-0.113551	0.000083
C20	C	0.514921	-0.155438	-0.072998
C21	C	0.514930	-0.155464	0.073047
C22	C	0.453937	-0.194476	0.000023
C23	C	0.669705	-0.118137	0.000059
C24	C	0.314789	-0.111883	0.000085
C25	C	1.145813	-0.108885	0.000092
C26	C	1.239059	-0.110547	0.000094
C27	C	0.986120	-0.268577	0.000069
C28	C	0.987782	-0.361823	0.000063
N29	N	0.992218	-0.115036	0.230758
C30	C	0.912801	0.346663	0.000069
C31	C	0.951753	0.407672	0.073077
C32	C	0.993698	0.302533	0.000082
C33	C	0.951792	0.407673	-0.072903
C34	C	0.990787	0.467445	0.000071
C35	C	1.032672	0.362313	0.073150
C36	C	1.032700	0.362308	-0.072895
C37	C	1.071711	0.423298	0.000131
C38	C	0.995372	0.207530	0.000089
C39	C	0.989119	0.562446	0.000070
N40	N	0.992276	-0.114973	-0.230598
C41	C	0.932581	-0.174636	0.470432
C42	C	1.008481	-0.190943	0.529772
C43	C	0.992239	-0.115015	0.412365
C44	C	0.916360	-0.098727	0.529766
C45	C	0.992253	-0.114997	0.587789
C46	C	1.068178	-0.131360	0.470398
C47	C	0.976006	-0.039111	0.470387
C48	C	1.051962	-0.055386	0.529701
C49	C	0.992230	-0.115028	0.311307
C50	C	0.992271	-0.114984	0.688844
H51	H	0.449461	-0.040295	-0.134642
H52	H	1.066896	0.342185	-0.134615
N53	N	0.906420	0.434310	0.154821
H54	H	0.946188	0.474365	0.191391
H55	H	0.886473	0.382855	0.191581
N56	N	1.077951	0.335834	0.154999
H57	H	1.078769	0.272589	0.154512
H58	H	1.047592	0.352771	0.210024
H59	H	0.535052	-0.189659	0.134767
N60	N	0.831357	-0.080472	0.564308
H61	H	0.832156	-0.080055	0.631539
H62	H	0.786380	-0.125565	0.542687
H63	H	0.563905	0.031573	-0.000005
N64	N	0.442950	-0.029238	0.154818
H65	H	0.379642	-0.028928	0.154522
H66	H	0.471172	0.030754	0.154709
N67	N	0.541398	-0.200717	-0.154847
H68	H	0.604643	-0.201535	-0.154361
H69	H	0.524459	-0.170358	-0.209872
N70	N	1.160729	0.467232	0.000182
H71	H	1.202092	0.423715	0.000733
H72	H	1.169601	0.504085	0.054815
N73	N	0.410006	-0.283495	-0.000031
H74	H	0.426484	-0.313925	-0.055199
H75	H	0.346878	-0.281819	0.000527
N76	N	0.906467	0.434300	-0.154656
H77	H	0.846451	0.406135	-0.154592
H78	H	0.936486	0.416994	-0.209749
N79	N	0.823857	0.302542	0.000146
H80	H	0.793401	0.318914	0.055342
H81	H	0.825673	0.239434	-0.000453
N82	N	0.865812	-0.241467	0.435963
H83	H	0.878193	-0.298776	0.457569
H84	H	0.865943	-0.240575	0.368735
H85	H	1.102474	-0.004956	0.555561
N86	N	1.026693	-0.275955	0.564326
H87	H	0.981593	-0.320963	0.542772
H88	H	1.027127	-0.275072	0.631553
N89	N	1.153209	-0.149696	0.436012
H90	H	1.152672	-0.149614	0.368777
H91	H	1.165565	-0.206816	0.458202
N92	N	0.957780	0.045881	0.435807
H93	H	0.900412	0.058127	0.457365
H94	H	0.958509	0.045348	0.368580
