data_functionalizedCrystal
_audit_creation_method	'MofGen! by Chris Wilmer'
_symmetry_space_group_name_H-M	'P1'
_symmetry_Int_Tables_number	1
_symmetry_cell_setting	triclinic
loop_
_symmetry_equiv_pos_as_xyz
  x,y,z
_cell_length_a	25.639239
_cell_length_b	11.169417
_cell_length_c	11.169409
_cell_angle_alpha	89.979747
_cell_angle_beta	89.960777
_cell_angle_gamma	90.039936
loop_
_atom_site_label
_atom_site_type_symbol
_atom_site_fract_x
_atom_site_fract_y
_atom_site_fract_z
Zn1	Zn	-0.208091	1.834735	-0.678475
Zn2	Zn	-0.295541	1.834522	-0.477767
Zn3	Zn	-0.208124	1.634018	-0.477810
Zn4	Zn	-0.295499	1.633929	-0.678413
O5	O	-0.251814	1.734301	-0.578116
O6	O	-0.219696	2.002656	-0.651858
O7	O	-0.283976	1.807873	-0.309823
O8	O	-0.134954	1.660770	-0.504473
O9	O	-0.283945	2.002500	-0.504399
O10	O	-0.134930	1.808235	-0.651900
O11	O	-0.219751	1.660564	-0.309855
O12	O	-0.219710	1.466056	-0.504413
O13	O	-0.283874	1.660618	-0.846371
O14	O	-0.283905	1.465991	-0.651795
O15	O	-0.219655	1.808149	-0.846416
O16	O	-0.368701	1.807787	-0.504340
O17	O	-0.368670	1.660412	-0.651754
C18	C	-0.387657	1.734099	-0.578062
C19	C	-0.445771	1.734123	-0.578078
C20	C	-0.251807	1.422476	-0.578103
C21	C	-0.251817	1.289076	-0.578125
C22	C	-0.806137	1.811239	-0.501489
C23	C	-0.860741	1.811286	-0.501505
O24	O	-0.888981	1.876644	-0.436326
N25	N	-0.888053	1.734512	-0.578196
C26	C	-0.860757	1.657695	-0.654885
O27	O	-0.889002	1.592398	-0.720118
C28	C	-0.806154	1.657655	-0.654874
C29	C	-0.778845	1.734426	-0.578169
C30	C	-0.778828	1.888005	-0.424791
C31	C	-0.724228	1.887956	-0.424774
C32	C	-0.696936	1.811143	-0.501454
C33	C	-0.724245	1.734377	-0.578152
C34	C	-0.778860	1.580845	-0.731567
C35	C	-0.724253	1.580813	-0.731551
C36	C	-0.696944	1.657583	-0.654846
C37	C	-0.642353	1.657515	-0.654814
N38	N	-0.615041	1.734289	-0.578123
C39	C	-0.642333	1.811103	-0.501443
C40	C	-0.975428	1.657785	-0.654903
C41	C	-1.030030	1.657818	-0.654909
C42	C	-1.030010	1.811411	-0.501530
C43	C	-0.975407	1.811371	-0.501520
C44	C	-0.948116	1.734559	-0.578212
C45	C	-0.527668	1.810995	-0.501412
C46	C	-0.473062	1.810936	-0.501398
C47	C	-0.473087	1.657348	-0.654780
C48	C	-0.527688	1.657402	-0.654790
C49	C	-0.554977	1.734235	-0.578102
O50	O	-0.614078	1.592194	-0.719964
O51	O	-0.614081	1.876400	-0.436232
C52	C	-0.115441	1.734536	-0.578198
C53	C	-0.057327	1.734637	-0.578233
C54	C	-0.251756	1.734397	-0.891159
C55	C	-0.251731	1.734438	-1.024559
C56	C	-0.251821	2.047343	-0.578131
C57	C	-0.251825	2.180743	-0.578137
C58	C	-0.251834	1.734274	-0.266292
C59	C	-0.251711	1.734466	-0.132892
H60	H	-0.450829	1.873452	-0.438932
Br61	Br	-0.564694	1.915269	-0.397335
Br62	Br	-0.938396	1.553523	-0.758988
H63	H	-0.801043	1.950562	-0.362349
Br64	Br	-0.687174	1.992168	-0.320687
H65	H	-0.953176	1.873885	-0.439061
H66	H	-0.801085	1.518325	-0.794023
H67	H	-1.052241	1.873961	-0.439097
Br68	Br	-1.067086	1.553608	-0.758994
Br69	Br	-0.687218	1.476567	-0.835644
H70	H	-0.549924	1.594893	-0.717253
H71	H	-0.450858	1.594804	-0.717209
