data_functionalizedCrystal
_audit_creation_method	'MofGen! by Chris Wilmer'
_symmetry_space_group_name_H-M	'P1'
_symmetry_Int_Tables_number	1
_symmetry_cell_setting	triclinic
loop_
_symmetry_equiv_pos_as_xyz
  x,y,z
_cell_length_a	13.033293
_cell_length_b	18.050590
_cell_length_c	13.033109
_cell_angle_alpha	97.150860
_cell_angle_beta	74.800007
_cell_angle_gamma	97.187921
loop_
_atom_site_label
_atom_site_type_symbol
_atom_site_fract_x
_atom_site_fract_y
_atom_site_fract_z
Zn1	Zn	1.700277	-0.215182	-0.807163
Zn2	Zn	2.200277	0.284818	-0.307163
Zn3	Zn	1.677604	-0.325397	-0.629527
Zn4	Zn	2.177604	0.174603	-0.129527
Zn5	Zn	1.500081	-0.215196	-0.606965
Zn6	Zn	2.000081	0.284804	-0.106965
Zn7	Zn	1.522602	-0.353309	-0.784499
Zn8	Zn	2.022602	0.146691	-0.284499
O9	O	1.600141	-0.277271	-0.707039
O10	O	2.100141	0.222729	-0.207039
O11	O	1.845921	-0.218115	-0.802526
O12	O	2.345921	0.281885	-0.302526
O13	O	1.635141	-0.299103	-0.477895
O14	O	2.135141	0.200897	0.022105
O15	O	1.526702	-0.111267	-0.633565
O16	O	2.026702	0.388733	-0.133565
O17	O	1.829263	-0.299090	-0.672018
O18	O	2.329263	0.200910	-0.172018
O19	O	1.673785	-0.111257	-0.780649
O20	O	2.173785	0.388743	-0.280649
O21	O	1.504716	-0.218138	-0.461319
O22	O	2.004716	0.281862	0.038681
O23	O	1.354417	-0.245204	-0.611588
O24	O	1.854417	0.254796	-0.111588
O25	O	1.565085	-0.346662	-0.936145
O26	O	2.065085	0.153338	-0.436145
O27	O	1.370963	-0.346675	-0.742021
O28	O	1.870963	0.153325	-0.242021
O29	O	1.695622	-0.245180	-0.952796
O30	O	2.195622	0.254820	-0.452796
O31	O	1.656978	-0.433026	-0.650042
O32	O	2.156978	0.066974	-0.150042
O33	O	1.543099	-0.453533	-0.763899
O34	O	2.043099	0.046467	-0.263899
C35	C	1.324147	-0.298970	-0.671898
C36	C	1.824147	0.201030	-0.171898
C37	C	1.206078	-0.308274	-0.656890
C38	C	1.706078	0.191726	-0.156890
C39	C	1.600054	-0.470226	-0.706986
C40	C	2.100054	0.029774	-0.206986
C41	C	1.600119	-0.552768	-0.707011
C42	C	2.100119	-0.052768	-0.207011
C43	C	1.161695	-0.272434	-0.714871
C44	C	1.661695	0.227566	-0.214871
C45	C	1.039665	-0.282049	-0.699361
C46	C	1.539665	0.217951	-0.199361
C47	C	1.662206	-0.741037	-0.645214
C48	C	2.162206	-0.241037	-0.145214
C49	C	1.700468	-0.795962	-0.745455
C50	C	2.200468	-0.295962	-0.245455
C51	C	1.600184	-0.703897	-0.707061
C52	C	2.100184	-0.203897	-0.207061
C53	C	1.562036	-0.796049	-0.606877
C54	C	2.062036	-0.296049	-0.106877
C55	C	1.600249	-0.849880	-0.707101
C56	C	2.100249	-0.349880	-0.207101
C57	C	1.638502	-0.757735	-0.807360
C58	C	2.138502	-0.257735	-0.307360
C59	C	1.500017	-0.757817	-0.668711
C60	C	2.000017	-0.257817	-0.168711
C61	C	1.538250	-0.812728	-0.769015
C62	C	2.038250	-0.312728	-0.269015
C63	C	1.600150	-0.619800	-0.707037
C64	C	2.100150	-0.119800	-0.207037
C65	C	1.600284	-0.933977	-0.707136
C66	C	2.100284	-0.433977	-0.207136
C67	C	1.877213	-0.255487	-0.742317
C68	C	2.377213	0.244513	-0.242317
C69	C	1.995285	-0.246204	-0.757351
C70	C	2.495285	0.253796	-0.257351
C71	C	1.635395	-0.299033	-0.984089
C72	C	2.135395	0.200967	-0.484089
C73	C	1.650418	-0.308307	-1.102151
C74	C	2.150418	0.191693	-0.602151
C75	C	1.600260	-0.083562	-0.707118
C76	C	2.100260	0.416438	-0.207118
C77	C	1.600311	-0.001015	-0.707153
C78	C	2.100311	0.498985	-0.207153
C79	C	1.592584	-0.272382	-1.146585
C80	C	2.092584	0.227618	-0.646585
C81	C	1.608110	-0.281966	-1.268608
C82	C	2.108110	0.218034	-0.768608
C83	C	1.565085	-0.255535	-0.431074
C84	C	2.065085	0.244465	0.068926
C85	C	1.550268	-0.246036	-0.313039
C86	C	2.050268	0.253964	0.186961
H87	H	1.214037	-0.234630	-0.775990
H88	H	1.714037	0.265370	-0.275990
N89	N	1.140441	-0.355705	-0.580212
N90	N	1.640441	0.144295	-0.080212
N91	N	1.182107	-0.389407	-0.525695
N92	N	1.682107	0.110593	-0.025695
H93	H	1.135754	-0.422908	-0.471539
H94	H	1.635754	0.077092	0.028461
N95	N	1.060929	-0.198765	-0.834021
N96	N	1.560929	0.301235	-0.334021
N97	N	1.118109	-0.143627	-0.804583
N98	N	1.618109	0.356373	-0.304583
H99	H	1.164470	-0.110122	-0.858729
H100	H	1.664470	0.389878	-0.358729
N101	N	1.684638	-0.329459	-1.334213
N102	N	2.184638	0.170541	-0.834213
N103	N	1.697138	-0.337180	-1.433243
N104	N	2.197138	0.162820	-0.933243
H105	H	1.751184	-0.370722	-1.479579
H106	H	2.251184	0.129278	-0.979579
N107	N	1.728044	-0.702012	-0.579685
N108	N	2.228044	-0.202012	-0.079685
N109	N	1.825222	-0.711044	-0.601743
N110	N	2.325222	-0.211044	-0.101743
H111	H	1.871723	-0.683483	-0.555468
H112	H	2.371723	-0.183483	-0.055468
N113	N	1.806767	-0.817228	-0.786139
N114	N	2.306767	-0.317228	-0.286139
N115	N	1.882769	-0.768485	-0.814431
N116	N	2.382769	-0.268485	-0.314431
H117	H	1.957844	-0.783507	-0.843140
H118	H	2.457844	-0.283507	-0.343140
N119	N	1.393752	-0.736513	-0.627950
N120	N	1.893752	-0.236513	-0.127950
N121	N	1.376656	-0.669320	-0.622167
N122	N	1.876656	-0.169320	-0.122167
H123	H	1.301605	-0.654269	-0.593367
H124	H	1.801605	-0.154269	-0.093367
N125	N	0.973998	-0.329463	-0.622671
N126	N	1.473998	0.170537	-0.122671
N127	N	0.874961	-0.337203	-0.610175
N128	N	1.374961	0.162797	-0.110175
H129	H	0.828581	-0.370688	-0.556012
H130	H	1.328581	0.129312	-0.056012
H131	H	1.670720	-0.740828	-0.892162
H132	H	2.170720	-0.240828	-0.392162
N133	N	1.472499	-0.851609	-0.834725
N134	N	1.972499	-0.351609	-0.334725
N135	N	1.461291	-0.921716	-0.844849
N136	N	1.961291	-0.421716	-0.344849
H137	H	1.414854	-0.949177	-0.891258
H138	H	1.914854	-0.449177	-0.391258
H139	H	1.529746	-0.813060	-0.522136
H140	H	2.029746	-0.313060	-0.022136
H141	H	1.489254	-0.208183	-1.260748
H142	H	1.989254	0.291817	-0.760748
N143	N	1.516044	-0.224905	-1.080975
N144	N	2.016044	0.275095	-0.580975
N145	N	1.503536	-0.217190	-0.981943
N146	N	2.003536	0.282810	-0.481943
H147	H	1.449476	-0.183659	-0.935606
H148	H	1.949476	0.316341	-0.435606
N149	N	1.726942	-0.355798	-1.167759
N150	N	2.226942	0.144202	-0.667759
N151	N	1.739442	-0.363519	-1.266789
N152	N	2.239442	0.136481	-0.766789
H153	H	1.793487	-0.397061	-1.313125
H154	H	2.293487	0.102939	-0.813125
