data_functionalizedCrystal
_audit_creation_method	'MofGen! by Chris Wilmer'
_symmetry_space_group_name_H-M	'P1'
_symmetry_Int_Tables_number	1
_symmetry_cell_setting	triclinic
loop_
_symmetry_equiv_pos_as_xyz
  x,y,z
_cell_length_a	19.188930
_cell_length_b	19.288864
_cell_length_c	17.766277
_cell_angle_alpha	89.976755
_cell_angle_beta	90.010343
_cell_angle_gamma	96.859488
loop_
_atom_site_label
_atom_site_type_symbol
_atom_site_fract_x
_atom_site_fract_y
_atom_site_fract_z
O1	O	0.087098	-0.921360	0.062844
O2	O	0.337098	-0.671360	0.312844
O3	O	0.587098	-0.421360	0.562844
O4	O	0.837098	-0.171360	0.812844
O5	O	0.098848	-0.719100	0.062794
O6	O	0.348848	-0.469100	0.312794
O7	O	0.598848	-0.219100	0.562794
O8	O	0.848848	0.030900	0.812794
O9	O	-0.008683	-0.826067	0.062806
O10	O	0.241317	-0.576067	0.312806
O11	O	0.491317	-0.326067	0.562806
O12	O	0.741317	-0.076067	0.812806
O13	O	0.194629	-0.814393	0.062832
O14	O	0.444629	-0.564393	0.312832
O15	O	0.694629	-0.314393	0.562832
O16	O	0.944629	-0.064393	0.812832
O17	O	-0.008686	-0.826048	-0.062383
O18	O	0.241314	-0.576048	0.187617
O19	O	0.491314	-0.326048	0.437617
O20	O	0.741314	-0.076048	0.687617
O21	O	0.098844	-0.719081	-0.062395
O22	O	0.348844	-0.469081	0.187605
O23	O	0.598844	-0.219081	0.437605
O24	O	0.848844	0.030919	0.687605
O25	O	0.087095	-0.921341	-0.062345
O26	O	0.337095	-0.671341	0.187655
O27	O	0.587095	-0.421341	0.437655
O28	O	0.837095	-0.171341	0.687655
Cu29	Cu	0.092969	-0.820209	-0.073800
Cu30	Cu	0.342969	-0.570209	0.176200
Cu31	Cu	0.592969	-0.320209	0.426200
Cu32	Cu	0.842969	-0.070209	0.676200
Cu33	Cu	0.092973	-0.820232	0.074250
Cu34	Cu	0.342973	-0.570232	0.324250
Cu35	Cu	0.592973	-0.320232	0.574250
Cu36	Cu	0.842973	-0.070232	0.824250
O37	O	0.194626	-0.814374	-0.062356
O38	O	0.444626	-0.564374	0.187644
O39	O	0.694626	-0.314374	0.437644
O40	O	0.944626	-0.064374	0.687644
C41	C	0.098468	-0.693214	0.000193
C42	C	0.348468	-0.443214	0.250193
C43	C	0.598468	-0.193214	0.500193
C44	C	0.848468	0.056786	0.750193
C45	C	0.097333	-0.616110	0.000173
C46	C	0.347333	-0.366110	0.250173
C47	C	0.597333	-0.116110	0.500173
C48	C	0.847333	0.133890	0.750173
C49	C	-0.034696	-0.825679	0.000209
C50	C	0.215304	-0.575679	0.250209
C51	C	0.465304	-0.325679	0.500209
C52	C	0.715304	-0.075679	0.750209
C53	C	-0.112200	-0.824544	0.000202
C54	C	0.137800	-0.574544	0.250202
C55	C	0.387800	-0.324544	0.500202
C56	C	0.637800	-0.074544	0.750202
C57	C	0.087475	-0.947227	0.000258
C58	C	0.337475	-0.697227	0.250258
C59	C	0.587475	-0.447227	0.500258
C60	C	0.837475	-0.197227	0.750258
C61	C	0.088609	-1.024330	0.000283
C62	C	0.338609	-0.774330	0.250283
C63	C	0.588609	-0.524330	0.500283
C64	C	0.838609	-0.274330	0.750283
C65	C	-0.157129	-0.887309	0.000214
C66	C	0.092871	-0.637309	0.250214
C67	C	0.342871	-0.387309	0.500214
C68	C	0.592871	-0.137309	0.750214
C69	C	-0.229953	-0.886243	0.000226
C70	C	0.020047	-0.636243	0.250226
C71	C	0.270047	-0.386243	0.500226
C72	C	0.520047	-0.136243	0.750226
C73	C	-0.257844	-0.822408	0.000211
C74	C	-0.007844	-0.572408	0.250211
C75	C	0.242156	-0.322408	0.500211
C76	C	0.492156	-0.072408	0.750211
C77	C	-0.212906	-0.759636	0.000203
C78	C	0.037094	-0.509636	0.250203
C79	C	0.287094	-0.259636	0.500203
C80	C	0.537094	-0.009636	0.750203
C81	C	-0.140084	-0.760704	0.000199
C82	C	0.109916	-0.510704	0.250199
C83	C	0.359916	-0.260704	0.500199
C84	C	0.609916	-0.010704	0.750199
N85	N	-0.365847	-0.773608	-0.042405
N86	N	-0.115847	-0.523608	0.207595
N87	N	0.134153	-0.273608	0.457595
N88	N	0.384153	-0.023608	0.707595
N89	N	-0.435025	-0.772598	-0.042403
N90	N	-0.185025	-0.522598	0.207597
N91	N	0.064975	-0.272598	0.457597
N92	N	0.314975	-0.022598	0.707597
C93	C	-0.477253	-0.819187	0.000225
C94	C	-0.227253	-0.569187	0.250225
C95	C	0.022747	-0.319187	0.500225
C96	C	0.272747	-0.069187	0.750225
N97	N	-0.447690	-0.866835	0.042841
N98	N	-0.197690	-0.616835	0.292841
N99	N	0.052310	-0.366835	0.542841
N100	N	0.302310	-0.116835	0.792841
N101	N	-0.378505	-0.867847	0.042836
N102	N	-0.128505	-0.617847	0.292836
N103	N	0.121495	-0.367847	0.542836
N104	N	0.371495	-0.117847	0.792836
C105	C	-0.336807	-0.821243	0.000216
C106	C	-0.086807	-0.571243	0.250216
C107	C	0.163193	-0.321243	0.500216
C108	C	0.413193	-0.071243	0.750216
C109	C	-0.601146	-0.880800	0.000251
C110	C	-0.351146	-0.630800	0.250251
C111	C	-0.101146	-0.380800	0.500251
C112	C	0.148854	-0.130800	0.750251
C113	C	-0.673971	-0.879731	0.000268
C114	C	-0.423971	-0.629731	0.250268
C115	C	-0.173971	-0.379731	0.500268
C116	C	0.076029	-0.129731	0.750268
C117	C	-0.656922	-0.753122	0.000237
C118	C	-0.406922	-0.503122	0.250237
C119	C	-0.156922	-0.253122	0.500237
C120	C	0.093078	-0.003122	0.750237
C121	C	-0.584099	-0.754193	0.000228
C122	C	-0.334099	-0.504193	0.250228
C123	C	-0.084099	-0.254193	0.500228
C124	C	0.165901	-0.004193	0.750228
C125	C	-0.556216	-0.818034	0.000231
C126	C	-0.306216	-0.568034	0.250231
C127	C	-0.056216	-0.318034	0.500231
C128	C	0.193784	-0.068034	0.750231
C129	C	0.220638	-0.814762	0.000242
C130	C	0.470638	-0.564762	0.250242
C131	C	0.720638	-0.314762	0.500242
C132	C	0.970638	-0.064762	0.750242
C133	C	0.298143	-0.815896	0.000253
C134	C	0.548143	-0.565896	0.250253
C135	C	0.798143	-0.315896	0.500253
C136	C	1.048143	-0.065896	0.750253
N137	N	0.092966	-0.820198	-0.177931
N138	N	0.342966	-0.570198	0.072069
N139	N	0.592966	-0.320198	0.322069
N140	N	0.842966	-0.070198	0.572069
C141	C	0.160427	-0.571419	0.000193
C142	C	0.410427	-0.321419	0.250193
C143	C	0.660427	-0.071419	0.500193
C144	C	0.910427	0.178581	0.750193
C145	C	0.159361	-0.498972	0.000201
C146	C	0.409361	-0.248972	0.250201
C147	C	0.659361	0.001028	0.500201
C148	C	0.909361	0.251028	0.750201
C149	C	0.095197	-0.471219	0.000204
C150	C	0.345197	-0.221219	0.250204
C151	C	0.595197	0.028781	0.500204
C152	C	0.845197	0.278781	0.750204
C153	C	0.032095	-0.515921	0.000180
C154	C	0.282095	-0.265921	0.250180
C155	C	0.532095	-0.015921	0.500180
C156	C	0.782095	0.234079	0.750180
C157	C	0.033163	-0.588366	0.000164
C158	C	0.283163	-0.338366	0.250164
C159	C	0.533163	-0.088366	0.500164
C160	C	0.783163	0.161634	0.750164
C161	C	0.044758	-0.362960	0.044082
C162	C	0.294758	-0.112960	0.294082
C163	C	0.544758	0.137040	0.544082
C164	C	0.794758	0.387040	0.794082
C165	C	0.043693	-0.290516	0.044103
C166	C	0.293693	-0.040516	0.294103
C167	C	0.543693	0.209484	0.544103
C168	C	0.793693	0.459484	0.794103
C169	C	0.091900	-0.247773	0.000249
C170	C	0.341900	0.002227	0.250249
C171	C	0.591900	0.252227	0.500249
C172	C	0.841900	0.502227	0.750249
C173	C	0.141185	-0.277483	-0.043614
C174	C	0.391185	-0.027483	0.206386
C175	C	0.641185	0.222517	0.456386
C176	C	0.891185	0.472517	0.706386
C177	C	0.142253	-0.349929	-0.043630
C178	C	0.392253	-0.099929	0.206370
C179	C	0.642253	0.150071	0.456370
C180	C	0.892253	0.400071	0.706370
C181	C	0.094032	-0.392665	0.000221
C182	C	0.344032	-0.142665	0.250221
C183	C	0.594032	0.107335	0.500221
C184	C	0.844032	0.357335	0.750221
C185	C	0.153843	-0.124526	0.000277
C186	C	0.403843	0.125474	0.250277
C187	C	0.653843	0.375474	0.500277
C188	C	0.903843	0.625474	0.750277
C189	C	0.152774	-0.052078	0.000281
C190	C	0.402774	0.197922	0.250281
C191	C	0.652774	0.447922	0.500281
C192	C	0.902774	0.697922	0.750281
C193	C	0.025506	-0.069028	0.000267
C194	C	0.275506	0.180972	0.250267
C195	C	0.525506	0.430972	0.500267
C196	C	0.775506	0.680972	0.750267
C197	C	0.026576	-0.141475	0.000256
C198	C	0.276576	0.108525	0.250256
C199	C	0.526576	0.358525	0.500256
C200	C	0.776576	0.608525	0.750256
C201	C	0.090747	-0.169219	0.000265
C202	C	0.340747	0.080781	0.250265
C203	C	0.590747	0.330781	0.500265
C204	C	0.840747	0.580781	0.750265
C205	C	0.135209	-0.862189	-0.217294
C206	C	0.385209	-0.612189	0.032706
C207	C	0.635209	-0.362189	0.282706
C208	C	0.885209	-0.112189	0.532706
C209	C	0.135207	-0.862200	-0.296096
C210	C	0.385207	-0.612200	-0.046096
C211	C	0.635207	-0.362200	0.203904
C212	C	0.885207	-0.112200	0.453904
C213	C	0.092971	-0.820207	-0.335531
C214	C	0.342971	-0.570207	-0.085531
C215	C	0.592971	-0.320207	0.164469
C216	C	0.842971	-0.070207	0.414469
C217	C	0.050720	-0.778214	-0.296158
C218	C	0.300720	-0.528214	-0.046158
C219	C	0.550720	-0.278214	0.203842
C220	C	0.800720	-0.028214	0.453842
C221	C	0.050718	-0.778210	-0.217358
C222	C	0.300718	-0.528210	0.032642
C223	C	0.550718	-0.278210	0.282642
C224	C	0.800718	-0.028210	0.532642
C225	C	0.091205	-0.757595	-0.460407
C226	C	0.341205	-0.507595	-0.210407
C227	C	0.591205	-0.257595	0.039593
C228	C	0.841205	-0.007595	0.289593
C229	C	0.091212	-0.757598	-0.539206
C230	C	0.341212	-0.507598	-0.289206
C231	C	0.591212	-0.257598	-0.039206
C232	C	0.841212	-0.007598	0.210794
C233	C	0.092973	-0.820222	-0.578578
C234	C	0.342973	-0.570222	-0.328578
C235	C	0.592973	-0.320222	-0.078578
C236	C	0.842973	-0.070222	0.171422
C237	C	0.094741	-0.882844	-0.539141
C238	C	0.344741	-0.632844	-0.289141
C239	C	0.594741	-0.382844	-0.039141
C240	C	0.844741	-0.132844	0.210859
C241	C	0.094739	-0.882839	-0.460341
C242	C	0.344739	-0.632839	-0.210341
C243	C	0.594739	-0.382839	0.039659
C244	C	0.844739	-0.132839	0.289659
C245	C	0.092968	-0.820208	-0.420977
C246	C	0.342968	-0.570208	-0.170977
C247	C	0.592968	-0.320208	0.079023
C248	C	0.842968	-0.070208	0.329023
C249	C	0.135215	-0.862228	-0.703387
C250	C	0.385215	-0.612228	-0.453387
C251	C	0.635215	-0.362228	-0.203387
C252	C	0.885215	-0.112228	0.046613
C253	C	0.135208	-0.862240	-0.782191
C254	C	0.385208	-0.612240	-0.532191
C255	C	0.635208	-0.362240	-0.282191
C256	C	0.885208	-0.112240	-0.032191
C257	C	0.050725	-0.778248	-0.782251
C258	C	0.300725	-0.528248	-0.532251
C259	C	0.550725	-0.278248	-0.282251
C260	C	0.800725	-0.028248	-0.032251
C261	C	0.050728	-0.778242	-0.703449
C262	C	0.300728	-0.528242	-0.453449
C263	C	0.550728	-0.278242	-0.203449
C264	C	0.800728	-0.028242	0.046551
C265	C	0.092977	-0.820231	-0.664022
C266	C	0.342977	-0.570231	-0.414022
C267	C	0.592977	-0.320231	-0.164022
C268	C	0.842977	-0.070231	0.085978
N269	N	0.092971	-0.820248	0.178380
N270	N	0.342971	-0.570248	0.428380
N271	N	0.592971	-0.320248	0.678380
N272	N	0.842971	-0.070248	0.928380
H273	H	-0.134431	-0.939293	0.000220
H274	H	0.115569	-0.689293	0.250220
H275	H	0.365569	-0.439293	0.500220
H276	H	0.615569	-0.189293	0.750220
Br277	Br	-0.006608	-0.721268	-0.835761
Br278	Br	0.243392	-0.471268	-0.585761
Br279	Br	0.493392	-0.221268	-0.335761
Br280	Br	0.743392	0.028732	-0.085761
Br281	Br	-0.734948	-0.964920	0.000292
Br282	Br	-0.484948	-0.714920	0.250292
Br283	Br	-0.234948	-0.464920	0.500292
Br284	Br	0.015052	-0.214920	0.750292
Br285	Br	-0.523120	-0.669008	0.000211
Br286	Br	-0.273120	-0.419008	0.250211
Br287	Br	-0.023120	-0.169008	0.500211
Br288	Br	0.226880	0.080992	0.750211
Br289	Br	0.247515	-0.609069	0.000203
Br290	Br	0.497515	-0.359069	0.250203
Br291	Br	0.747515	-0.109069	0.500203
Br292	Br	0.997515	0.140931	0.750203
Br293	Br	-0.023184	-0.250201	0.103641
Br294	Br	0.226816	-0.000201	0.353641
Br295	Br	0.476816	0.249799	0.603641
Br296	Br	0.726816	0.499799	0.853641
Br297	Br	-0.694767	-0.666488	0.000224
Br298	Br	-0.444767	-0.416488	0.250224
Br299	Br	-0.194767	-0.166488	0.500224
Br300	Br	0.055233	0.083512	0.750224
Br301	Br	0.088821	-0.672611	-0.592719
Br302	Br	0.338821	-0.422611	-0.342719
Br303	Br	0.588821	-0.172611	-0.092719
Br304	Br	0.838821	0.077389	0.157281
H305	H	0.204155	-0.015690	0.000293
H306	H	0.454155	0.234310	0.250293
H307	H	0.704155	0.484310	0.500293
H308	H	0.954155	0.734310	0.750293
Br309	Br	0.244995	-0.438307	0.000224
Br310	Br	0.494995	-0.188307	0.250224
Br311	Br	0.744995	0.061693	0.500224
Br312	Br	0.994995	0.311693	0.750224
Br313	Br	0.240929	-0.162183	0.000283
Br314	Br	0.490929	0.087817	0.250283
Br315	Br	0.740929	0.337817	0.500283
Br316	Br	0.990929	0.587817	0.750283
Br317	Br	-0.250757	-0.673003	0.000192
Br318	Br	-0.000757	-0.423003	0.250192
Br319	Br	0.249243	-0.173003	0.500192
Br320	Br	0.499243	0.076997	0.750192
H321	H	0.089775	-0.706594	-0.428357
H322	H	0.339775	-0.456594	-0.178357
H323	H	0.589775	-0.206594	0.071643
H324	H	0.839775	0.043406	0.321643
H325	H	0.182381	-0.374115	-0.079348
H326	H	0.432381	-0.124115	0.170652
H327	H	0.682381	0.125885	0.420652
H328	H	0.932381	0.375885	0.670652
Br329	Br	-0.020674	-0.420961	0.103600
Br330	Br	0.229326	-0.170961	0.353600
Br331	Br	0.479326	0.079039	0.603600
Br332	Br	0.729326	0.329039	0.853600
H333	H	0.169616	-0.896418	-0.671284
H334	H	0.419616	-0.646418	-0.421284
H335	H	0.669616	-0.396418	-0.171284
H336	H	0.919616	-0.146418	0.078716
Br337	Br	-0.563299	-0.967438	0.000248
Br338	Br	-0.313299	-0.717438	0.250248
Br339	Br	-0.063299	-0.467438	0.500248
Br340	Br	0.186701	-0.217438	0.750248
Br341	Br	-0.006613	-0.721215	-0.163932
Br342	Br	0.243387	-0.471215	0.086068
Br343	Br	0.493387	-0.221215	0.336068
Br344	Br	0.743387	0.028785	0.586068
H345	H	-0.103502	-0.709591	0.000189
H346	H	0.146498	-0.459591	0.250189
H347	H	0.396498	-0.209591	0.500189
H348	H	0.646498	0.040409	0.750189
Br349	Br	0.192537	-0.919238	-0.835615
Br350	Br	0.442537	-0.669238	-0.585615
Br351	Br	0.692537	-0.419238	-0.335615
Br352	Br	0.942537	-0.169238	-0.085615
H353	H	-0.020148	-0.493320	0.000193
H354	H	0.229852	-0.243320	0.250193
H355	H	0.479852	0.006680	0.500193
H356	H	0.729852	0.256680	0.750193
Br357	Br	0.097140	-0.967821	-0.406821
Br358	Br	0.347140	-0.717821	-0.156821
Br359	Br	0.597140	-0.467821	0.093179
Br360	Br	0.847140	-0.217821	0.343179
Br361	Br	0.206617	-0.219485	-0.103131
Br362	Br	0.456617	0.030515	0.146869
Br363	Br	0.706617	0.280515	0.396869
Br364	Br	0.956617	0.530515	0.646869
Br365	Br	-0.006606	-0.721228	-0.349675
Br366	Br	0.243394	-0.471228	-0.099675
Br367	Br	0.493394	-0.221228	0.150325
Br368	Br	0.743394	0.028772	0.400325
Br369	Br	-0.061576	-0.031373	0.000259
Br370	Br	0.188424	0.218627	0.250259
Br371	Br	0.438424	0.468627	0.500259
Br372	Br	0.688424	0.718627	0.750259
Br373	Br	-0.290939	-0.971429	0.000246
Br374	Br	-0.040939	-0.721429	0.250246
Br375	Br	0.209061	-0.471429	0.500246
Br376	Br	0.459061	-0.221429	0.750246
Br377	Br	-0.059056	-0.202132	0.000231
Br378	Br	0.190944	0.047868	0.250231
Br379	Br	0.440944	0.297868	0.500231
Br380	Br	0.690944	0.547868	0.750231
H381	H	-0.018218	-0.624755	0.000148
H382	H	0.231782	-0.374755	0.250148
H383	H	0.481782	-0.124755	0.500148
H384	H	0.731782	0.125245	0.750148
Br385	Br	0.097134	-0.967839	-0.592564
Br386	Br	0.347134	-0.717839	-0.342564
Br387	Br	0.597134	-0.467839	-0.092564
Br388	Br	0.847134	-0.217839	0.157436
Br389	Br	0.192563	-0.919156	-0.163790
Br390	Br	0.442563	-0.669156	0.086210
Br391	Br	0.692563	-0.419156	0.336210
Br392	Br	0.942563	-0.169156	0.586210
H393	H	0.169607	-0.896394	-0.328152
H394	H	0.419607	-0.646394	-0.078152
H395	H	0.669607	-0.396394	0.171848
H396	H	0.919607	-0.146394	0.421848
Br397	Br	-0.006591	-0.721238	-0.650023
Br398	Br	0.243409	-0.471238	-0.400023
Br399	Br	0.493409	-0.221238	-0.150023
Br400	Br	0.743409	0.028762	0.099977
