data_functionalizedCrystal
_audit_creation_method	'MofGen! by Chris Wilmer'
_symmetry_space_group_name_H-M	'P1'
_symmetry_Int_Tables_number	1
_symmetry_cell_setting	triclinic
loop_
_symmetry_equiv_pos_as_xyz
  x,y,z
_cell_length_a	19.077068
_cell_length_b	19.805407
_cell_length_c	19.805399
_cell_angle_alpha	90.016886
_cell_angle_beta	92.267915
_cell_angle_gamma	87.672914
loop_
_atom_site_label
_atom_site_type_symbol
_atom_site_fract_x
_atom_site_fract_y
_atom_site_fract_z
Zn1	Zn	-0.280208	-1.023886	-0.393533
Zn2	Zn	0.053125	-0.690553	-0.060200
Zn3	Zn	0.386459	-0.357219	0.273133
Zn4	Zn	-0.397910	-1.019256	-0.284888
Zn5	Zn	-0.064577	-0.685923	0.048446
Zn6	Zn	0.268757	-0.352589	0.381779
Zn7	Zn	-0.280230	-0.910705	-0.280359
Zn8	Zn	0.053103	-0.577372	0.052974
Zn9	Zn	0.386436	-0.244038	0.386308
Zn10	Zn	-0.397870	-0.906116	-0.398033
Zn11	Zn	-0.064536	-0.572782	-0.064699
Zn12	Zn	0.268797	-0.239449	0.268634
O13	O	-0.339054	-0.964991	-0.339203
O14	O	-0.005721	-0.631657	-0.005870
O15	O	0.327612	-0.298324	0.327463
O16	O	-0.295829	-1.117988	-0.379134
O17	O	0.037504	-0.784655	-0.045800
O18	O	0.370838	-0.451321	0.287533
O19	O	-0.382326	-1.004840	-0.189571
O20	O	-0.048992	-0.671506	0.143762
O21	O	0.284341	-0.338173	0.477095
O22	O	-0.181736	-0.929577	-0.291594
O23	O	0.151597	-0.596244	0.041740
O24	O	0.484930	-0.262910	0.375073
O25	O	-0.382304	-1.114587	-0.299312
O26	O	-0.048971	-0.781253	0.034021
O27	O	0.284363	-0.447920	0.367355
O28	O	-0.181720	-1.012730	-0.374742
O29	O	0.151613	-0.679397	-0.041409
O30	O	0.484947	-0.346064	0.291924
O31	O	-0.295867	-0.925088	-0.186244
O32	O	0.037466	-0.591754	0.147089
O33	O	0.370800	-0.258421	0.480423
O34	O	-0.295828	-0.815380	-0.295956
O35	O	0.037505	-0.482047	0.037377
O36	O	0.370839	-0.148713	0.370710
O37	O	-0.382235	-0.921755	-0.492152
O38	O	-0.048902	-0.588422	-0.158818
O39	O	0.284431	-0.255088	0.174515
O40	O	-0.382257	-0.812008	-0.382411
O41	O	-0.048924	-0.478675	-0.049077
O42	O	0.284410	-0.145342	0.284256
O43	O	-0.295790	-1.008280	-0.488846
O44	O	0.037543	-0.674947	-0.155513
O45	O	0.370877	-0.341614	0.177821
O46	O	-0.496396	-1.000390	-0.303675
O47	O	-0.163062	-0.667056	0.029659
O48	O	0.170271	-0.333723	0.362992
O49	O	-0.496366	-0.917266	-0.386802
O50	O	-0.163033	-0.583933	-0.053469
O51	O	0.170301	-0.250599	0.279865
C52	C	-0.339041	-0.789135	-0.339181
C53	C	-0.005708	-0.455802	-0.005847
C54	C	0.327626	-0.122469	0.327486
C55	C	-0.339052	-0.713903	-0.339188
C56	C	-0.005719	-0.380569	-0.005855
C57	C	0.327615	-0.047236	0.327479
C58	C	-0.521918	-0.957846	-0.346233
C59	C	-0.188585	-0.624512	-0.012900
C60	C	0.144748	-0.291179	0.320434
C61	C	-0.600148	-0.954851	-0.349263
C62	C	-0.266815	-0.621518	-0.015929
C63	C	0.066518	-0.288184	0.317404
C64	C	-0.339006	-0.965022	-0.515744
C65	C	-0.005672	-0.631689	-0.182411
C66	C	0.327661	-0.298356	0.150923
C67	C	-0.338985	-0.965036	-0.590975
C68	C	-0.005651	-0.631702	-0.257642
C69	C	0.327682	-0.298369	0.075691
C70	C	-0.636893	-0.996756	-0.307442
C71	C	-0.303560	-0.663422	0.025891
C72	C	0.029774	-0.330089	0.359224
C73	C	-0.710399	-0.993943	-0.310296
C74	C	-0.377065	-0.660610	0.023037
C75	C	-0.043732	-0.327276	0.356371
C76	C	-0.747158	-0.949222	-0.354967
C77	C	-0.413825	-0.615888	-0.021634
C78	C	-0.080491	-0.282555	0.311699
C79	C	-0.710408	-0.907315	-0.396793
C80	C	-0.377075	-0.573982	-0.063459
C81	C	-0.043741	-0.240649	0.269874
C82	C	-0.636904	-0.910132	-0.393942
C83	C	-0.303571	-0.576798	-0.060608
C84	C	0.029763	-0.243465	0.272725
C85	C	-0.966992	-0.936157	-0.368134
C86	C	-0.633659	-0.602823	-0.034801
C87	C	-0.300326	-0.269490	0.298533
C88	C	-1.040502	-0.933342	-0.370980
C89	C	-0.707168	-0.600008	-0.037647
C90	C	-0.373835	-0.266675	0.295686
C91	C	-1.040487	-1.019971	-0.284484
C92	C	-0.707154	-0.686638	0.048849
C93	C	-0.373820	-0.353304	0.382182
C94	C	-0.966982	-1.022781	-0.281635
C95	C	-0.633648	-0.689447	0.051699
C96	C	-0.300315	-0.356114	0.385032
C97	C	-0.930238	-0.980877	-0.323462
C98	C	-0.596905	-0.647543	0.009871
C99	C	-0.263571	-0.314210	0.343204
N100	N	-0.822292	-0.946344	-0.357884
N101	N	-0.488959	-0.613011	-0.024551
N102	N	-0.155626	-0.279677	0.308783
N103	N	-0.855105	-0.983758	-0.320549
N104	N	-0.521772	-0.650425	0.012785
N105	N	-0.188438	-0.317092	0.346118
C106	C	-0.155476	-0.972182	-0.332161
C107	C	0.177857	-0.638849	0.001172
C108	C	0.511190	-0.305515	0.334506
C109	C	-0.077246	-0.975247	-0.329160
C110	C	0.256087	-0.641913	0.004173
C111	C	0.589420	-0.308580	0.337507
C112	C	-0.339068	-1.141533	-0.339226
C113	C	-0.005735	-0.808200	-0.005893
C114	C	0.327598	-0.474866	0.327441
C115	C	-0.339074	-1.216765	-0.339236
C116	C	-0.005741	-0.883431	-0.005903
C117	C	0.327592	-0.550098	0.327431
C118	C	-0.384124	-0.676818	-0.384137
C119	C	-0.050790	-0.343485	-0.050804
C120	C	0.282543	-0.010151	0.282529
C121	C	-0.384125	-0.606130	-0.384147
C122	C	-0.050791	-0.272796	-0.050814
C123	C	0.282542	0.060537	0.282520
C124	C	-0.339058	-0.572527	-0.339203
C125	C	-0.005724	-0.239194	-0.005870
C126	C	0.327609	0.094140	0.327463
C127	C	-0.293981	-0.609617	-0.294252
C128	C	0.039352	-0.276284	0.039082
C129	C	0.372685	0.057050	0.372415
C130	C	-0.293977	-0.680304	-0.294246
C131	C	0.039356	-0.346971	0.039087
C132	C	0.372690	-0.013638	0.372421
C133	C	-0.293997	-0.324543	-0.294275
C134	C	0.039336	0.008790	0.039059
C135	C	0.372670	0.342124	0.372392
C136	C	-0.294006	-0.253851	-0.294283
C137	C	0.039327	0.079483	0.039051
C138	C	0.372661	0.412816	0.372384
C139	C	-0.384145	-0.250368	-0.384176
C140	C	-0.050811	0.082965	-0.050842
C141	C	0.282522	0.416298	0.282491
C142	C	-0.384140	-0.321056	-0.384170
C143	C	-0.050807	0.012278	-0.050837
C144	C	0.282526	0.345611	0.282497
C145	C	-0.339062	-0.358139	-0.339221
C146	C	-0.005728	-0.024806	-0.005888
C147	C	0.327605	0.308527	0.327446
C148	C	-0.339060	-0.434788	-0.339212
C149	C	-0.005727	-0.101455	-0.005879
C150	C	0.327607	0.231879	0.327455
C151	C	-0.339062	-0.495880	-0.339208
C152	C	-0.005729	-0.162546	-0.005875
C153	C	0.327604	0.170787	0.327458
C154	C	-0.293962	-0.923521	-0.624586
C155	C	0.039372	-0.590188	-0.291253
C156	C	0.372705	-0.256855	0.042080
C157	C	-0.293948	-0.923531	-0.695274
C158	C	0.039386	-0.590198	-0.361941
C159	C	0.372719	-0.256865	-0.028608
C160	C	-0.338954	-0.965059	-0.732350
C161	C	-0.005621	-0.631726	-0.399016
C162	C	0.327712	-0.298393	-0.065683
C163	C	-0.383983	-1.006576	-0.698734
C164	C	-0.050649	-0.673242	-0.365401
C165	C	0.282684	-0.339909	-0.032067
C166	C	-0.383999	-1.006562	-0.628048
C167	C	-0.050666	-0.673228	-0.294714
C168	C	0.282667	-0.339895	0.038619
C169	C	-0.383917	-1.006632	-0.983805
C170	C	-0.050583	-0.673298	-0.650472
C171	C	0.282750	-0.339965	-0.317138
C172	C	-0.383895	-1.006644	-1.054496
C173	C	-0.050562	-0.673311	-0.721163
C174	C	0.282772	-0.339977	-0.387830
C175	C	-0.293865	-0.923601	-1.051032
C176	C	0.039468	-0.590268	-0.717698
C177	C	0.372801	-0.256935	-0.384365
C178	C	-0.293882	-0.923587	-0.980345
C179	C	0.039451	-0.590254	-0.647012
C180	C	0.372785	-0.256921	-0.313679
C181	C	-0.338913	-0.965101	-0.946736
C182	C	-0.005579	-0.631767	-0.613402
C183	C	0.327754	-0.298434	-0.280069
C184	C	-0.338928	-0.965088	-0.870088
C185	C	-0.005594	-0.631755	-0.536754
C186	C	0.327739	-0.298422	-0.203421
C187	C	-0.338936	-0.965076	-0.808996
C188	C	-0.005603	-0.631742	-0.475663
C189	C	0.327731	-0.298409	-0.142330
C190	C	-0.339052	-0.965000	-0.163347
C191	C	-0.005719	-0.631667	0.169986
C192	C	0.327614	-0.298334	0.503320
C193	C	-0.338875	-0.965126	-0.088109
C194	C	-0.005542	-0.631792	0.245225
C195	C	0.327792	-0.298459	0.578558
H196	H	-0.606968	-1.033170	-0.271063
H197	H	-0.273635	-0.699836	0.062270
H198	H	0.059698	-0.366503	0.395604
H199	H	-0.420548	-1.040463	-1.084682
H200	H	-0.087214	-0.707129	-0.751348
H201	H	0.246119	-0.373796	-0.418015
H202	H	-0.937082	-0.902036	-0.402191
H203	H	-0.603748	-0.568702	-0.068857
H204	H	-0.270415	-0.235369	0.264476
H205	H	-1.070411	-1.054088	-0.250432
H206	H	-0.737078	-0.720754	0.082901
H207	H	-0.403745	-0.387421	0.416235
H208	H	-0.740343	-0.870905	-0.433168
H209	H	-0.407010	-0.537572	-0.099835
H210	H	-0.073677	-0.204238	0.233499
H211	H	-0.606987	-0.876009	-0.427997
H212	H	-0.273654	-0.542676	-0.094664
H213	H	0.059679	-0.209343	0.238669
N214	N	-0.245330	-0.878800	-0.940364
N215	N	0.088004	-0.545467	-0.607031
N216	N	0.421337	-0.212133	-0.273698
H217	H	-0.256252	-0.830013	-0.953078
H218	H	0.077082	-0.496680	-0.619745
H219	H	0.410415	-0.163346	-0.286412
H220	H	-0.252188	-0.885146	-0.890496
H221	H	0.081145	-0.551813	-0.557163
H222	H	0.414478	-0.218479	-0.223830
N223	N	-0.432737	-0.713058	-0.432608
N224	N	-0.099404	-0.379725	-0.099275
N225	N	0.233930	-0.046392	0.234058
H226	H	-0.461289	-0.678836	-0.461085
H227	H	-0.127955	-0.345503	-0.127752
H228	H	0.205378	-0.012170	0.205581
H229	H	-0.404129	-0.743517	-0.462875
H230	H	-0.070796	-0.410183	-0.129541
H231	H	0.262537	-0.076850	0.203792
N232	N	-0.245394	-0.217606	-0.245807
N233	N	0.087939	0.115727	0.087527
N234	N	0.421273	0.449060	0.420860
H235	H	-0.273960	-0.187156	-0.215494
H236	H	0.059374	0.146177	0.117839
H237	H	0.392707	0.479511	0.451173
H238	H	-0.216846	-0.251868	-0.217377
H239	H	0.116487	0.081465	0.115956
H240	H	0.449820	0.414799	0.449289
H241	H	-0.937054	-1.059196	-0.245260
H242	H	-0.603720	-0.725863	0.088074
H243	H	-0.270387	-0.392530	0.421407
H244	H	-0.420847	-0.220166	-0.420778
H245	H	-0.087514	0.113167	-0.087444
H246	H	0.245819	0.446500	0.245889
N247	N	-0.432747	-0.566130	-0.432618
N248	N	-0.099414	-0.232796	-0.099285
N249	N	0.233919	0.100537	0.234048
H250	H	-0.461303	-0.598143	-0.461083
H251	H	-0.127970	-0.264809	-0.127749
H252	H	0.205364	0.068524	0.205584
H253	H	-0.465277	-0.535525	-0.406257
H254	H	-0.131944	-0.202192	-0.072923
H255	H	0.201390	0.131141	0.260410
N256	N	-0.245307	-0.878811	-1.087282
N257	N	0.088026	-0.545478	-0.753949
N258	N	0.421359	-0.212145	-0.420615
H259	H	-0.252129	-0.885114	-1.137688
H260	H	0.081205	-0.551780	-0.804355
H261	H	0.414538	-0.218447	-0.471021
H262	H	-0.256269	-0.830044	-1.075332
H263	H	0.077064	-0.496710	-0.741999
H264	H	0.410397	-0.163377	-0.408666
H265	H	-0.257288	-0.889723	-0.722637
H266	H	0.076045	-0.556390	-0.389304
H267	H	0.409379	-0.223057	-0.055971
H268	H	-0.420591	-1.040427	-0.956449
H269	H	-0.087258	-0.707093	-0.623116
H270	H	0.246076	-0.373760	-0.289782
H271	H	-1.070429	-0.896932	-0.407369
H272	H	-0.737096	-0.563599	-0.074036
H273	H	-0.403762	-0.230266	0.259298
H274	H	-0.420841	-0.348411	-0.420765
H275	H	-0.087508	-0.015078	-0.087432
H276	H	0.245826	0.318256	0.245901
N277	N	-0.245389	-0.364532	-0.245786
N278	N	0.087945	-0.031199	0.087548
N279	N	0.421278	0.302134	0.420881
H280	H	-0.252220	-0.414412	-0.252599
H281	H	0.081114	-0.081079	0.080734
H282	H	0.414447	0.252255	0.414068
H283	H	-0.195137	-0.354141	-0.254465
H284	H	0.138196	-0.020807	0.078868
H285	H	0.471530	0.312526	0.412201
H286	H	-0.420631	-1.040385	-0.728927
H287	H	-0.087298	-0.707052	-0.395593
H288	H	0.246035	-0.373718	-0.062260
H289	H	-0.257272	-0.710498	-0.257647
H290	H	0.076062	-0.377165	0.075686
H291	H	0.409395	-0.043831	0.409020
N292	N	-0.750031	-1.039140	-0.265190
N293	N	-0.416698	-0.705807	0.068143
N294	N	-0.083365	-0.372473	0.401477
H295	H	-0.715591	-1.067894	-0.236455
H296	H	-0.382257	-0.734561	0.096878
H297	H	-0.048924	-0.401228	0.430212
H298	H	-0.780576	-1.010436	-0.235028
H299	H	-0.447243	-0.677103	0.098305
H300	H	-0.113909	-0.343769	0.431638
N301	N	-0.245385	-0.573378	-0.245764
N302	N	0.087948	-0.240044	0.087570
N303	N	0.421282	0.093289	0.420903
H304	H	-0.252233	-0.522969	-0.252580
H305	H	0.081100	-0.189636	0.080753
H306	H	0.414433	0.143697	0.414086
H307	H	-0.256291	-0.585300	-0.197831
H308	H	0.077042	-0.251967	0.135502
H309	H	0.410376	0.081366	0.468836
N310	N	-0.245411	-0.878737	-0.584600
N311	N	0.087922	-0.545403	-0.251266
N312	N	0.421255	-0.212070	0.082067
H313	H	-0.216888	-0.852439	-0.616621
H314	H	0.116446	-0.519106	-0.283288
H315	H	0.449779	-0.185773	0.050045
H316	H	-0.274062	-0.846284	-0.556364
H317	H	0.059272	-0.512951	-0.223030
H318	H	0.392605	-0.179618	0.110303
H319	H	-0.420657	-1.040372	-0.600682
H320	H	-0.087323	-0.707039	-0.267349
H321	H	0.246010	-0.373706	0.065984
