data_functionalizedCrystal
_audit_creation_method	'MofGen! by Chris Wilmer'
_symmetry_space_group_name_H-M	'P1'
_symmetry_Int_Tables_number	1
_symmetry_cell_setting	triclinic
loop_
_symmetry_equiv_pos_as_xyz
  x,y,z
_cell_length_a	12.784890
_cell_length_b	12.837942
_cell_length_c	9.730223
_cell_angle_alpha	89.998888
_cell_angle_beta	90.000977
_cell_angle_gamma	83.967749
loop_
_atom_site_label
_atom_site_type_symbol
_atom_site_fract_x
_atom_site_fract_y
_atom_site_fract_z
O1	O	1.410963	0.006423	-0.114248
O2	O	1.105963	0.050417	-0.114259
O3	O	1.251700	-0.121873	-0.114245
O4	O	1.265226	0.178713	-0.114262
O5	O	1.251698	-0.121869	0.114335
O6	O	1.105962	0.050421	0.114321
O7	O	1.410961	0.006427	0.114332
Zn8	Zn	1.258461	0.028425	0.150618
Zn9	Zn	1.258463	0.028419	-0.150545
O10	O	1.265224	0.178717	0.114318
C11	C	1.066653	0.053280	0.000029
C12	C	0.949521	0.061794	0.000025
C13	C	0.781351	0.168495	0.000017
C14	C	0.891407	0.160502	0.000018
C15	C	0.897572	-0.028928	0.000028
C16	C	0.787516	-0.020935	0.000027
C17	C	0.729410	0.077780	0.000024
C18	C	0.619353	0.085771	0.000033
C19	C	0.625519	-0.103657	0.000033
C20	C	0.735575	-0.111650	0.000034
C21	C	1.247130	-0.160080	0.000044
C22	C	1.233502	-0.273929	0.000041
C23	C	1.397334	-0.529655	0.000019
C24	C	1.384534	-0.636627	0.000016
C25	C	1.195104	-0.594847	0.000023
C26	C	1.207904	-0.487875	0.000026
C27	C	1.309022	-0.455284	0.000026
C28	C	1.321821	-0.348309	0.000038
C29	C	1.132391	-0.306531	0.000035
C30	C	1.119592	-0.413503	0.000033
C31	C	1.450272	0.003563	0.000041
C32	C	1.567404	-0.004950	0.000036
C33	C	1.269795	0.216924	0.000026
C34	C	1.283422	0.330772	0.000020
N35	N	1.258468	0.028427	0.356155
N36	N	1.258464	0.028408	-0.356082
C37	C	1.323020	-0.047841	0.428087
C38	C	1.323016	-0.047853	0.571970
C39	C	1.193904	0.104680	0.571976
C40	C	1.193903	0.104687	0.428095
C41	C	1.397566	-0.135903	0.428085
C42	C	1.397562	-0.135915	0.571968
H43	H	0.572044	0.166150	0.000038
H44	H	1.480064	-0.126284	0.611021
H45	H	0.734040	0.248872	0.000031
F46	F	1.125193	0.185837	0.648551
H47	H	1.372304	-0.213154	0.389034
H48	H	0.933693	0.234372	0.000015
H49	H	1.476288	-0.118406	0.383460
H50	H	1.479668	-0.503120	0.000032
F51	F	0.959430	-0.133978	0.000026
F52	F	0.797427	-0.216703	0.000037
F53	F	1.125186	0.185849	0.351540
H54	H	1.365101	-0.208069	0.616586
H55	H	0.583217	-0.177525	-0.000071
F56	F	1.478528	-0.715777	0.000004
H57	H	1.404156	-0.321777	0.000043
H58	H	1.112778	-0.621402	0.000008
H59	H	1.037264	-0.440054	0.000027
H60	H	1.060481	-0.245964	0.000052
