data_functionalizedCrystal
_audit_creation_method	'MofGen! by Chris Wilmer'
_symmetry_space_group_name_H-M	'P1'
_symmetry_Int_Tables_number	1
_symmetry_cell_setting	triclinic
loop_
_symmetry_equiv_pos_as_xyz
  x,y,z
_cell_length_a	18.215407
_cell_length_b	15.297327
_cell_length_c	18.215399
_cell_angle_alpha	99.648308
_cell_angle_beta	89.980167
_cell_angle_gamma	99.707397
loop_
_atom_site_label
_atom_site_type_symbol
_atom_site_fract_x
_atom_site_fract_y
_atom_site_fract_z
Zn1	Zn	1.074360	-0.359166	-0.466794
Zn2	Zn	1.574360	0.140834	0.033206
Zn3	Zn	1.052966	-0.510038	-0.365016
Zn4	Zn	1.552966	-0.010038	0.134984
Zn5	Zn	0.951288	-0.359195	-0.343746
Zn6	Zn	1.451288	0.140805	0.156254
Zn7	Zn	0.929963	-0.509988	-0.488034
Zn8	Zn	1.429963	-0.009988	0.011966
O9	O	1.002144	-0.434597	-0.415897
O10	O	1.502144	0.065403	0.084103
O11	O	1.174505	-0.379188	-0.453306
O12	O	1.674505	0.120812	0.046694
O13	O	1.039449	-0.490062	-0.259215
O14	O	1.539449	0.009938	0.240785
O15	O	0.985492	-0.232944	-0.342278
O16	O	1.485492	0.267056	0.157722
O17	O	1.158787	-0.490033	-0.378530
O18	O	1.658787	0.009967	0.121470
O19	O	1.075912	-0.232922	-0.432681
O20	O	1.575912	0.267078	0.067319
O21	O	0.964747	-0.379238	-0.243588
O22	O	1.464747	0.120762	0.256412
O23	O	0.845476	-0.379190	-0.362873
O24	O	1.345476	0.120810	0.137127
O25	O	0.949146	-0.489948	-0.588196
O26	O	1.449146	0.010052	-0.088196
O27	O	0.829808	-0.489976	-0.468881
O28	O	1.329808	0.010024	0.031119
O29	O	1.055234	-0.379139	-0.572591
O30	O	1.555234	0.120861	-0.072591
O31	O	1.018771	-0.636279	-0.399125
O32	O	1.518771	-0.136279	0.100875
O33	O	0.928401	-0.636242	-0.489506
O34	O	1.428401	-0.136242	0.010494
C35	C	0.810940	-0.434581	-0.415874
C36	C	1.310940	0.065419	0.084126
C37	C	0.729139	-0.434597	-0.415885
C38	C	1.229139	0.065403	0.084115
C39	C	0.968970	-0.668995	-0.448944
C40	C	1.468970	-0.168995	0.051056
C41	C	0.954846	-0.769272	-0.463106
C42	C	1.454846	-0.269272	0.036894
C43	C	0.532793	-0.492374	-0.471037
C44	C	1.032793	0.007626	0.028963
C45	C	0.455934	-0.492377	-0.471046
C46	C	0.955934	0.007623	0.028954
C47	C	0.472244	-0.376836	-0.360776
C48	C	0.972244	0.123164	0.139224
C49	C	0.549103	-0.376830	-0.360771
C50	C	1.049103	0.123170	0.139229
C51	C	0.579374	-0.434603	-0.415900
C52	C	1.079374	0.065397	0.084100
C53	C	0.425657	-0.434613	-0.415916
C54	C	0.925657	0.065387	0.084084
C55	C	0.342323	-0.434616	-0.415926
C56	C	0.842323	0.065384	0.084074
C57	C	0.662714	-0.434600	-0.415891
C58	C	1.162714	0.065400	0.084109
C59	C	1.103397	-1.051887	-0.314929
C60	C	1.603397	-0.551887	0.185071
C61	C	1.116667	-0.957672	-0.301619
C62	C	1.616667	-0.457672	0.198381
C63	C	1.076213	-0.910567	-0.341990
C64	C	1.576213	-0.410567	0.158010
C65	C	1.022486	-0.957687	-0.395673
C66	C	1.522486	-0.457687	0.104327
C67	C	1.009211	-1.051911	-0.408980
C68	C	1.509211	-0.551911	0.091020
C69	C	0.982027	-0.910591	-0.436041
C70	C	1.482027	-0.410591	0.063959
C71	C	0.928300	-0.957711	-0.489723
C72	C	1.428300	-0.457711	0.010277
C73	C	0.915027	-1.051926	-0.503028
C74	C	1.415027	-0.551926	-0.003028
C75	C	0.955481	-1.099031	-0.462658
C76	C	1.455481	-0.599031	0.037342
C77	C	0.995303	-0.816367	-0.422734
C78	C	1.495303	-0.316367	0.077266
C79	C	0.901116	-0.816392	-0.516784
C80	C	1.401116	-0.316392	-0.016784
C81	C	0.887846	-0.910606	-0.530094
C82	C	1.387846	-0.410606	-0.030094
C83	C	1.194095	-0.434613	-0.415921
C84	C	1.694095	0.065387	0.084079
C85	C	1.275892	-0.434620	-0.415931
C86	C	1.775892	0.065380	0.084069
C87	C	1.002198	-0.434535	-0.607842
C88	C	1.502198	0.065465	-0.107842
C89	C	1.002220	-0.434508	-0.689637
C90	C	1.502220	0.065492	-0.189637
C91	C	1.035467	-0.199283	-0.382738
C92	C	1.535467	0.300717	0.117262
C93	C	1.049667	-0.099006	-0.368607
C94	C	1.549667	0.400994	0.131393
C95	C	1.057485	-0.376756	-0.869699
C96	C	1.557485	0.123244	-0.369699
C97	C	1.057497	-0.376730	-0.946554
C98	C	1.557497	0.123270	-0.446554
C99	C	0.947028	-0.492120	-0.962793
C100	C	1.447028	0.007880	-0.462793
C101	C	0.947013	-0.492141	-0.885938
C102	C	1.447013	0.007859	-0.385938
C103	C	1.002245	-0.434461	-0.839394
C104	C	1.502245	0.065539	-0.339394
C105	C	1.002273	-0.434413	-0.993103
C106	C	1.502273	0.065587	-0.493103
C107	C	1.002286	-0.434385	-1.076433
C108	C	1.502286	0.065615	-0.576433
C109	C	1.002232	-0.434487	-0.756058
C110	C	1.502232	0.065513	-0.256058
C111	C	1.002142	-0.434594	-0.224691
C112	C	1.502142	0.065406	0.275309
C113	C	1.002298	-0.434366	-0.142860
C114	C	1.502298	0.065634	0.357140
H115	H	0.557438	-0.539415	-0.515928
H116	H	1.057438	-0.039415	-0.015928
Br117	Br	0.431156	-0.298433	-0.285961
Br118	Br	0.931156	0.201567	0.214039
H119	H	0.944681	-1.175748	-0.473493
H120	H	1.444681	-0.675748	0.026507
Br121	Br	1.132473	-0.298420	-0.987681
Br122	Br	1.632473	0.201580	-0.487681
H123	H	1.102457	-0.329786	-0.831804
H124	H	1.602457	0.170214	-0.331804
Br125	Br	1.068214	-0.752431	-0.349880
Br126	Br	1.568214	-0.252431	0.150120
H127	H	0.587032	-0.329780	-0.315871
H128	H	1.087032	0.170220	0.184129
Br129	Br	1.158289	-1.115817	-0.260143
Br130	Br	1.658289	-0.615817	0.239857
Br131	Br	1.189585	-0.893730	-0.228774
Br132	Br	1.689585	-0.393730	0.271226
Br133	Br	0.842107	-1.115873	-0.575878
Br134	Br	1.342107	-0.615873	-0.075878
H135	H	0.844101	-0.948985	-0.573803
H136	H	1.344101	-0.448985	-0.073803
Br137	Br	0.846204	-0.752472	-0.571570
Br138	Br	1.346204	-0.252472	-0.071570
Br139	Br	0.872075	-0.570401	-1.025965
Br140	Br	1.372075	-0.070401	-0.525965
Br141	Br	0.392719	-0.570779	-0.545880
Br142	Br	0.892719	-0.070779	-0.045880
Br143	Br	0.872034	-0.570452	-0.844804
Br144	Br	1.372034	-0.070452	-0.344804
H145	H	1.087021	-0.833853	-0.331149
H146	H	1.587021	-0.333853	0.168851
