data_functionalizedCrystal
_audit_creation_method	'MofGen! by Chris Wilmer'
_symmetry_space_group_name_H-M	'P1'
_symmetry_Int_Tables_number	1
_symmetry_cell_setting	triclinic
loop_
_symmetry_equiv_pos_as_xyz
  x,y,z
_cell_length_a	21.295417
_cell_length_b	16.625547
_cell_length_c	16.625539
_cell_angle_alpha	90.023545
_cell_angle_beta	89.968491
_cell_angle_gamma	89.970308
loop_
_atom_site_label
_atom_site_type_symbol
_atom_site_fract_x
_atom_site_fract_y
_atom_site_fract_z
Zn1	Zn	-0.250633	-1.232608	-0.456021
Zn2	Zn	-0.355903	-1.232500	-0.321176
Zn3	Zn	-0.250650	-1.097778	-0.321186
Zn4	Zn	-0.355867	-1.097721	-0.455950
O5	O	-0.303264	-1.165151	-0.388583
O6	O	-0.264606	-1.345426	-0.438158
O7	O	-0.341964	-1.214608	-0.208345
O8	O	-0.162559	-1.115732	-0.339105
O9	O	-0.341947	-1.345347	-0.339088
O10	O	-0.162546	-1.214791	-0.438168
O11	O	-0.264635	-1.115628	-0.208352
O12	O	-0.264600	-0.984938	-0.339037
O13	O	-0.341885	-1.115635	-0.568792
O14	O	-0.341902	-0.984896	-0.438048
O15	O	-0.264570	-1.214736	-0.568844
O16	O	-0.443988	-1.214553	-0.339020
O17	O	-0.443961	-1.115531	-0.438039
C18	C	-0.303249	-0.955661	-0.388537
C19	C	-0.303258	-0.866040	-0.388536
C20	C	-0.303259	-0.793257	-0.388543
C21	C	-0.303261	-0.701949	-0.388560
C22	C	-0.303266	-0.629172	-0.388578
C23	C	-0.303269	-0.537858	-0.388593
C24	C	-0.466815	-1.165046	-0.388538
C25	C	-0.536783	-1.165074	-0.388546
C26	C	-0.569643	-1.216681	-0.337040
C27	C	-0.635385	-1.216719	-0.337058
C28	C	-0.668266	-1.165136	-0.388574
C29	C	-0.635398	-1.113525	-0.440090
C30	C	-0.569657	-1.113495	-0.440076
N31	N	-0.771531	-1.094600	-0.394705
N32	N	-0.833982	-1.094632	-0.394714
C33	C	-0.866340	-1.165226	-0.388620
N34	N	-0.833888	-1.235789	-0.382502
N35	N	-0.771431	-1.235757	-0.382490
C36	C	-0.739551	-1.165163	-0.388595
C37	C	-0.970486	-1.216878	-0.337131
C38	C	-1.036229	-1.216917	-0.337155
C39	C	-1.036241	-1.113716	-0.440183
C40	C	-0.970498	-1.113685	-0.440163
C41	C	-0.937625	-1.165264	-0.388633
C42	C	-0.139073	-1.165280	-0.388646
C43	C	-0.069105	-1.165334	-0.388672
C44	C	-0.303222	-1.165191	-0.598892
C45	C	-0.303204	-1.165208	-0.688513
C46	C	-0.303276	-0.375460	-0.388620
C47	C	-0.303275	-0.465081	-0.388611
C48	C	-0.303190	-1.165221	-0.761296
C49	C	-0.303167	-1.165240	-0.852604
C50	C	-0.303145	-1.165259	-0.925381
C51	C	-0.303122	-1.165279	-1.016695
C52	C	-0.303259	-1.165159	-0.179092
C53	C	-0.303100	-1.165298	-0.089472
H54	H	-0.662145	-1.258746	-0.295116
H55	H	-0.943742	-1.071658	-0.482101
N56	N	-0.668992	-1.060833	-0.492699
N57	N	-0.705726	-1.009488	-0.464281
H58	H	-0.729453	-0.972273	-0.501440
H59	H	-0.542902	-1.071470	-0.482020
N60	N	-0.936888	-1.269561	-0.284511
N61	N	-0.900251	-1.241210	-0.233094
H62	H	-0.876522	-1.278418	-0.195932
H63	H	-0.542879	-1.258682	-0.295084
H64	H	-1.062982	-1.258946	-0.295214
N65	N	-1.069829	-1.061035	-0.492805
N66	N	-1.128526	-1.061070	-0.492814
H67	H	-1.152251	-1.023864	-0.529982
