data_functionalizedCrystal
_audit_creation_method	'MofGen! by Chris Wilmer'
_symmetry_space_group_name_H-M	'P1'
_symmetry_Int_Tables_number	1
_symmetry_cell_setting	triclinic
loop_
_symmetry_equiv_pos_as_xyz
  x,y,z
_cell_length_a	11.792241
_cell_length_b	13.101039
_cell_length_c	11.792241
_cell_angle_alpha	93.385153
_cell_angle_beta	95.806584
_cell_angle_gamma	93.376518
loop_
_atom_site_label
_atom_site_type_symbol
_atom_site_fract_x
_atom_site_fract_y
_atom_site_fract_z
O1	O	1.513107	0.085115	-0.149349
O2	O	2.013107	0.585115	0.350651
O3	O	1.182768	0.085139	-0.165380
O4	O	1.682768	0.585139	0.334620
O5	O	1.355953	0.085119	0.007805
O6	O	1.855953	0.585119	0.507805
O7	O	1.339921	0.085135	-0.322535
O8	O	1.839921	0.585135	0.177465
O9	O	1.343527	-0.085309	-0.004641
O10	O	1.843527	0.414691	0.495359
O11	O	1.170342	-0.085289	-0.177827
O12	O	1.670342	0.414711	0.322173
O13	O	1.500681	-0.085313	-0.161796
O14	O	2.000681	0.414687	0.338204
Zn15	Zn	1.333539	-0.112361	-0.171787
Zn16	Zn	1.833539	0.387639	0.328213
Zn17	Zn	1.349910	0.112186	-0.155388
Zn18	Zn	1.849910	0.612186	0.344612
O19	O	1.327496	-0.085294	-0.334981
O20	O	1.827496	0.414706	0.165019
C21	C	1.134264	-0.000072	-0.170596
C22	C	1.634264	0.499928	0.329404
C23	C	1.008251	-0.000063	-0.167581
C24	C	1.508251	0.499937	0.332419
C25	C	0.777537	-0.000093	-0.162040
C26	C	1.277537	0.499907	0.337960
C27	C	0.905923	-0.000077	-0.165119
C28	C	1.405923	0.499923	0.334881
N29	N	1.322374	-0.265608	-0.182978
N30	N	1.822374	0.234392	0.317022
C31	C	1.307184	-0.474649	-0.198215
C32	C	1.807184	0.025351	0.301785
C33	C	1.376270	-0.525532	-0.128956
C34	C	1.876270	-0.025532	0.371044
C35	C	1.367818	-0.641850	-0.137433
C36	C	1.867818	-0.141850	0.362567
C37	C	1.315634	-0.358321	-0.189739
C38	C	1.815634	0.141679	0.310261
C39	C	1.549185	-0.000100	-0.156579
C40	C	2.049185	0.499900	0.343421
C41	C	1.675198	-0.000102	-0.159594
C42	C	2.175198	0.499898	0.340406
N43	N	1.361084	0.265433	-0.144188
N44	N	1.861084	0.765433	0.355812
C45	C	1.348733	-0.000095	0.043873
C46	C	1.848733	0.499905	0.543873
C47	C	1.345719	-0.000093	0.169887
C48	C	1.845719	0.499907	0.669887
C49	C	1.334716	-0.000078	-0.371049
C50	C	1.834716	0.499922	0.128951
C51	C	1.337730	-0.000072	-0.497062
C52	C	1.837730	0.499928	0.002938
C53	C	1.340177	-0.000076	0.400600
C54	C	1.840177	0.499924	0.900600
C55	C	1.343256	-0.000085	0.272214
C56	C	1.843256	0.499915	0.772214
H57	H	1.241694	-0.518438	-0.263873
H58	H	1.741694	-0.018438	0.236127
H59	H	1.441765	-0.481737	-0.063295
H60	H	1.941765	0.018263	0.436705
