data_functionalizedCrystal
_audit_creation_method	'MofGen! by Chris Wilmer'
_symmetry_space_group_name_H-M	'P1'
_symmetry_Int_Tables_number	1
_symmetry_cell_setting	triclinic
loop_
_symmetry_equiv_pos_as_xyz
  x,y,z
_cell_length_a	17.699097
_cell_length_b	15.944499
_cell_length_c	16.776229
_cell_angle_alpha	89.996595
_cell_angle_beta	89.989262
_cell_angle_gamma	83.383020
loop_
_atom_site_label
_atom_site_type_symbol
_atom_site_fract_x
_atom_site_fract_y
_atom_site_fract_z
O1	O	1.004236	0.106278	-0.066349
O2	O	1.504236	0.606278	0.433651
O3	O	0.783880	0.120086	-0.066335
O4	O	1.283880	0.620086	0.433665
O5	O	0.900096	-0.009108	-0.066344
O6	O	1.400096	0.490892	0.433656
O7	O	0.888020	0.235472	-0.066340
O8	O	1.388020	0.735472	0.433660
O9	O	0.900080	-0.009116	0.066233
O10	O	1.400080	0.490884	0.566233
O11	O	0.783865	0.120078	0.066241
O12	O	1.283865	0.620078	0.566241
O13	O	1.004220	0.106270	0.066228
O14	O	1.504220	0.606270	0.566228
Zn15	Zn	0.894040	0.113173	0.087284
Zn16	Zn	1.394040	0.613173	0.587284
Zn17	Zn	0.894060	0.113183	-0.087391
Zn18	Zn	1.394060	0.613183	0.412609
O19	O	0.888005	0.235464	0.066236
O20	O	1.388005	0.735464	0.566236
C21	C	0.755675	0.119585	-0.000045
C22	C	1.255675	0.619585	0.499955
C23	C	0.671655	0.118095	-0.000040
C24	C	1.171655	0.618095	0.499960
C25	C	0.155931	0.108966	-0.072340
C26	C	0.655931	0.608966	0.427660
C27	C	0.234877	0.110361	-0.072336
C28	C	0.734877	0.610361	0.427664
C29	C	0.274336	0.111055	-0.000065
C30	C	0.774336	0.611055	0.499935
C31	C	0.234845	0.110346	0.072206
C32	C	0.734845	0.610346	0.572206
C33	C	0.155901	0.108946	0.072201
C34	C	0.655901	0.608946	0.572201
C35	C	0.553218	0.115992	0.072227
C36	C	1.053218	0.615992	0.572227
C37	C	0.632167	0.117395	0.072227
C38	C	1.132167	0.617395	0.572227
C39	C	0.632194	0.117407	-0.072310
C40	C	1.132194	0.617407	0.427690
C41	C	0.553250	0.116007	-0.072315
C42	C	1.053250	0.616007	0.427685
C43	C	0.513767	0.115294	-0.000044
C44	C	1.013767	0.615294	0.499956
C45	C	0.428165	0.113780	-0.000049
C46	C	0.928165	0.613780	0.499951
C47	C	0.359936	0.112574	-0.000059
C48	C	0.859936	0.612574	0.499941
C49	C	0.899594	-0.040406	-0.000057
C50	C	1.399594	0.459594	0.499943
C51	C	0.898112	-0.133651	-0.000063
C52	C	1.398112	0.366349	0.499937
C53	C	0.965630	-0.425326	-0.000063
C54	C	1.465630	0.074674	0.499937
C55	C	0.930524	-0.364233	0.065309
C56	C	1.430524	0.135767	0.565309
C57	C	0.892727	-0.469277	-0.000054
C58	C	1.392727	0.030723	0.499946
C59	C	0.930520	-0.364231	-0.065401
C60	C	1.430520	0.135769	0.434599
C61	C	0.895376	-0.304374	-0.000060
C62	C	1.395376	0.195626	0.499940
C63	C	0.857601	-0.409412	0.065373
C64	C	1.357601	0.090588	0.565373
C65	C	0.857607	-0.409416	-0.065396
C66	C	1.357607	0.090584	0.434604
C67	C	0.822449	-0.348341	-0.000008
C68	C	1.322449	0.151659	0.499992
C69	C	0.891202	-0.564274	-0.000049
C70	C	1.391202	-0.064274	0.499951
C71	C	0.896895	-0.209378	-0.000058
C72	C	1.396895	0.290622	0.499942
C73	C	1.032426	0.106770	-0.000064
C74	C	1.532426	0.606770	0.499936
C75	C	1.116446	0.108260	-0.000074
C76	C	1.616446	0.608260	0.499926
C77	C	0.888507	0.266762	-0.000052
C78	C	1.388507	0.766762	0.499948
C79	C	0.889989	0.360007	-0.000051
C80	C	1.389989	0.860007	0.499949
N81	N	0.894032	0.113165	0.206495
N82	N	1.394032	0.613165	0.706495
N83	N	0.894075	0.113184	-0.206602
N84	N	1.394075	0.613184	0.293398
C85	C	0.945508	0.055981	0.248209
C86	C	1.445508	0.555981	0.748209
C87	C	0.945512	0.055980	0.331661
C88	C	1.445512	0.555980	0.831661
C89	C	0.894043	0.113168	0.373398
C90	C	1.394043	0.613168	0.873398
C91	C	0.842562	0.170355	0.331679
C92	C	1.342562	0.670355	0.831679
C93	C	0.842555	0.170351	0.248228
C94	C	1.342555	0.670351	0.748228
C95	C	0.842589	0.170371	0.668226
C96	C	1.342589	0.670371	1.168226
C97	C	0.842602	0.170372	0.751683
C98	C	1.342602	0.670372	1.251683
C99	C	0.945547	0.056001	0.751659
C100	C	1.445547	0.556001	1.251659
C101	C	0.945539	0.055997	0.668208
C102	C	1.445539	0.555997	1.168208
C103	C	0.894056	0.113180	0.626496
C104	C	1.394056	0.613180	1.126496
C105	C	0.894051	0.113179	0.536008
C106	C	1.394051	0.613179	1.036008
C107	C	0.894051	0.113174	0.463885
C108	C	1.394051	0.613174	0.963885
H109	H	0.521082	0.115399	0.131075
H110	H	1.021082	0.615399	0.631075
H111	H	0.987427	0.009416	0.365623
H112	H	1.487427	0.509416	0.865623
C113	C	0.972163	-0.337184	0.139968
C114	C	1.472163	0.162816	0.639968
H115	H	0.938425	-0.299436	0.170751
H116	H	1.438425	0.200564	0.670751
H117	H	1.014711	-0.309828	0.124265
H118	H	1.514711	0.190172	0.624265
H119	H	0.989030	-0.385610	0.170958
H120	H	1.489030	0.114390	0.670958
H121	H	0.800671	0.216933	0.634271
H122	H	1.300671	0.716933	1.134271
H123	H	0.800687	0.216943	0.785664
H124	H	1.300687	0.716943	1.285664
H125	H	0.800637	0.216915	0.214266
H126	H	1.300637	0.716915	0.714266
C127	C	0.278308	0.111142	-0.151828
C128	C	0.778308	0.611142	0.348172
H129	H	0.243500	0.110539	-0.194870
H130	H	0.743500	0.610539	0.305130
H131	H	0.314881	0.062724	-0.154838
H132	H	0.814881	0.562724	0.345162
H133	H	0.303326	0.160659	-0.154826
H134	H	0.803326	0.660659	0.345174
H135	H	0.123752	0.108380	0.131048
H136	H	0.623752	0.608380	0.631048
C137	C	0.509850	0.115240	-0.151812
C138	C	1.009850	0.615240	0.348188
H139	H	0.544675	0.115852	-0.194852
H140	H	1.044675	0.615852	0.305148
H141	H	0.473275	0.163656	-0.154820
H142	H	0.973275	0.663656	0.345180
H143	H	0.484835	0.065722	-0.154815
H144	H	0.984835	0.565722	0.345185
C145	C	1.002171	-0.006909	0.797544
C146	C	1.502171	0.493091	1.297544
H147	H	0.994801	0.001274	0.853222
H148	H	1.494801	0.501274	1.353222
H149	H	1.052678	0.002146	0.783852
H150	H	1.552678	0.502146	1.283852
H151	H	0.993955	-0.062962	0.783872
H152	H	1.493955	0.437038	1.283872
C153	C	0.278247	0.111086	0.151705
C154	C	0.778247	0.611086	0.651705
H155	H	0.243424	0.110451	0.194743
H156	H	0.743424	0.610451	0.694743
H157	H	0.303273	0.160590	0.154727
H158	H	0.803273	0.660590	0.654727
H159	H	0.314813	0.062656	0.154695
H160	H	0.814813	0.562656	0.654695
C161	C	0.815974	-0.436318	0.140114
C162	C	1.315974	0.063682	0.640114
H163	H	0.815293	-0.495808	0.139674
H164	H	1.315293	0.004192	0.639674
H165	H	0.765266	-0.409263	0.140307
H166	H	1.265266	0.090737	0.640307
H167	H	0.841698	-0.420494	0.186476
H168	H	1.341698	0.079506	0.686476
H169	H	0.664351	0.117984	-0.131157
H170	H	1.164351	0.617984	0.368843
C171	C	1.002152	-0.006912	0.622301
C172	C	1.502152	0.493088	1.122301
H173	H	1.032806	-0.040975	0.659097
H174	H	1.532806	0.459025	1.159097
H175	H	1.033649	0.023258	0.589731
H176	H	1.533649	0.523258	1.089731
H177	H	0.974922	-0.041845	0.589762
H178	H	1.474922	0.458155	1.089762
H179	H	0.664292	0.117960	0.131082
H180	H	1.164292	0.617960	0.631082
H181	H	1.026132	-0.458780	-0.000004
H182	H	1.526132	0.041220	0.499996
C183	C	0.740650	-0.303337	0.000048
C184	C	1.240650	0.196663	0.500048
H185	H	0.714874	-0.318791	0.046525
H186	H	1.214874	0.181209	0.546525
H187	H	0.714565	-0.319490	-0.045944
H188	H	1.214565	0.180510	0.454056
H189	H	0.742050	-0.243955	-0.000385
H190	H	1.242050	0.256045	0.499615
C191	C	0.785949	0.233262	0.377588
C192	C	1.285949	0.733262	0.877588
H193	H	0.793330	0.225081	0.433263
H194	H	1.293330	0.725081	0.933263
H195	H	0.735438	0.224208	0.363930
H196	H	1.235438	0.724208	0.863930
H197	H	0.794163	0.289313	0.363900
H198	H	1.294163	0.789313	0.863900
C199	C	0.815994	-0.436503	-0.140051
C200	C	1.315994	0.063497	0.359949
H201	H	0.841974	-0.421216	-0.186455
H202	H	1.341974	0.078784	0.313545
H203	H	0.765416	-0.409081	-0.140514
H204	H	1.265416	0.090919	0.359486
H205	H	0.814935	-0.495932	-0.139251
H206	H	1.314935	0.004068	0.360749
H207	H	0.987423	0.009416	0.214231
H208	H	1.487423	0.509416	0.714231
C209	C	0.112533	0.108210	-0.151839
C210	C	0.612533	0.608210	0.348161
H211	H	0.147359	0.108825	-0.194877
H212	H	0.647359	0.608825	0.305123
H213	H	0.075962	0.156629	-0.154843
H214	H	0.575962	0.656629	0.345157
H215	H	0.087514	0.058695	-0.154850
H216	H	0.587514	0.558695	0.345150
H217	H	0.961375	-0.344211	-0.120663
H218	H	1.461375	0.155789	0.379337
