data_functionalizedCrystal
_audit_creation_method	'MofGen! by Chris Wilmer'
_symmetry_space_group_name_H-M	'P1'
_symmetry_Int_Tables_number	1
_symmetry_cell_setting	triclinic
loop_
_symmetry_equiv_pos_as_xyz
  x,y,z
_cell_length_a	15.995350
_cell_length_b	17.038272
_cell_length_c	14.472310
_cell_angle_alpha	89.999298
_cell_angle_beta	89.990621
_cell_angle_gamma	87.301966
loop_
_atom_site_label
_atom_site_type_symbol
_atom_site_fract_x
_atom_site_fract_y
_atom_site_fract_z
O1	O	1.118175	0.100774	-0.076763
O2	O	0.875286	0.113219	-0.076782
O3	O	0.995287	-0.006819	-0.076766
O4	O	0.998174	0.220812	-0.076780
O5	O	0.995254	-0.006812	0.076916
O6	O	0.875253	0.113226	0.076900
O7	O	1.118142	0.100781	0.076919
Cu8	Cu	0.996695	0.107004	0.090942
Cu9	Cu	0.996733	0.106996	-0.090805
O10	O	0.998141	0.220819	0.076902
C11	C	0.844038	0.112708	0.000056
C12	C	0.750978	0.111165	0.000049
C13	C	0.412836	0.105626	0.000069
C14	C	0.454180	0.020137	0.000417
C15	C	0.550981	0.021680	0.000064
C16	C	0.580592	0.108374	0.000060
C17	C	0.542527	0.150536	-0.087699
C18	C	0.445739	0.148388	-0.087766
C19	C	0.445488	0.150162	0.086999
C20	C	0.542432	0.150142	0.088152
C21	C	0.675401	0.109931	0.000051
C22	C	0.318027	0.104071	0.000071
C23	C	0.992645	-0.035945	0.000075
C24	C	0.984810	-0.122740	0.000074
C25	C	1.056739	-0.172836	0.000081
C26	C	1.049373	-0.254389	0.000072
C27	C	0.970077	-0.285843	0.000062
C28	C	0.898143	-0.235740	0.000053
C29	C	0.905510	-0.154189	0.000056
C30	C	0.944051	-0.531607	0.000047
C31	C	0.936689	-0.613164	0.000048
C32	C	1.087920	-0.631807	0.000065
C33	C	1.095280	-0.550254	0.000073
C34	C	1.023346	-0.500158	0.000059
C35	C	0.962546	-0.369202	0.000056
C36	C	1.030878	-0.416801	0.000059
C37	C	1.149390	0.101292	0.000078
C38	C	1.242450	0.102834	0.000079
C39	C	1.000784	0.249944	0.000059
C40	C	1.008618	0.336739	0.000054
N41	N	0.996674	0.107009	0.218773
N42	N	0.996761	0.106984	-0.218636
C43	C	0.996732	0.106993	0.592864
C44	C	0.932276	0.171007	0.553689
C45	C	0.932452	0.171241	0.446601
C46	C	0.996702	0.107001	0.407273
C47	C	1.085336	0.124819	0.446115
C48	C	1.084981	0.125274	0.553237
C49	C	0.973320	0.024970	0.553397
C50	C	0.971356	0.025517	0.446269
C51	C	0.996691	0.107004	0.302385
C52	C	0.996749	0.106991	0.697752
H53	H	0.425254	0.117636	-0.153365
N54	N	0.845431	0.157202	0.411798
H55	H	0.846776	0.107951	0.372886
H56	H	0.806654	0.150839	0.466090
N57	N	0.889133	0.002284	0.589204
H58	H	0.895878	-0.048665	0.624686
H59	H	0.865361	0.044997	0.631343
H60	H	1.146484	-0.672604	0.000074
N61	N	0.577347	0.111730	-0.174211
H62	H	0.552473	0.139272	-0.230306
H63	H	0.640200	0.115201	-0.175136
N64	N	1.126952	-0.308422	0.000084
H65	H	1.178303	-0.276121	0.000099
H66	H	1.127170	-0.342664	0.057056
N67	N	1.116400	-0.382877	0.000079
H68	H	1.160855	-0.426985	0.000087
H69	H	1.122765	-0.349445	-0.056890
N70	N	1.180805	-0.516330	0.000088
H71	H	1.225256	-0.560442	0.000091
H72	H	1.187171	-0.482897	-0.056880
H73	H	0.906126	0.011995	0.420882
H74	H	0.885477	-0.490828	0.000036
N75	N	0.426401	-0.025119	0.083786
H76	H	0.363552	-0.028611	0.082581
H77	H	0.453700	-0.079779	0.082630
N78	N	0.812616	-0.269661	0.000037
H79	H	0.818862	-0.328925	0.000039
H80	H	0.780872	-0.251333	0.057005
N81	N	0.851160	-0.647092	0.000036
H82	H	0.806707	-0.602983	0.000025
H83	H	0.844830	-0.680524	-0.056936
H84	H	0.846938	-0.113400	0.000050
N85	N	1.111113	0.204514	0.586323
H86	H	1.111139	0.205605	0.656099
H87	H	1.169176	0.214104	0.562729
H88	H	1.134688	0.079434	0.420639
N89	N	0.415648	0.113139	0.175113
H90	H	0.437315	0.142617	0.230011
H91	H	0.352447	0.115482	0.176268
H92	H	1.014806	-0.024352	0.419501
H93	H	0.567542	0.119364	0.153076
N94	N	1.150789	0.065840	0.587571
H95	H	1.179907	0.039466	0.533117
H96	H	1.193090	0.093296	0.626256
H97	H	0.576475	-0.011692	-0.062951
N98	N	0.877019	-0.403125	0.000054
H99	H	0.870605	-0.436544	-0.056918
H100	H	0.870640	-0.436509	0.057060
N101	N	0.844989	0.157186	0.587840
H102	H	0.846376	0.109297	0.629040
H103	H	0.823112	0.204548	0.623944
H104	H	0.947652	0.231532	0.580596
H105	H	0.948007	0.232108	0.420964
N106	N	1.111924	0.203149	0.410567
H107	H	1.066691	0.227199	0.369311
H108	H	1.121355	0.239332	0.464462
N109	N	1.142266	-0.138914	0.000093
H110	H	1.148680	-0.105498	0.057068
H111	H	1.186660	-0.183071	0.000061
H112	H	1.020257	-0.022668	0.578729
H113	H	0.577035	-0.011462	0.062974
H114	H	0.432177	-0.013880	-0.062167
H115	H	0.417962	0.211153	-0.091752
N116	N	0.409352	0.233647	0.087784
H117	H	0.375524	0.243036	0.146007
H118	H	0.456343	0.271178	0.085695
H119	H	0.561190	0.214227	-0.090966
H120	H	0.562300	0.213362	0.093450
