data_functionalizedCrystal
_audit_creation_method	'MofGen! by Chris Wilmer'
_symmetry_space_group_name_H-M	'P1'
_symmetry_Int_Tables_number	1
_symmetry_cell_setting	triclinic
loop_
_symmetry_equiv_pos_as_xyz
  x,y,z
_cell_length_a	19.077409
_cell_length_b	21.295417
_cell_length_c	19.077271
_cell_angle_alpha	87.717260
_cell_angle_beta	85.513571
_cell_angle_gamma	92.331622
loop_
_atom_site_label
_atom_site_type_symbol
_atom_site_fract_x
_atom_site_fract_y
_atom_site_fract_z
Zn1	Zn	1.061584	-0.225300	0.355437
Zn2	Zn	1.561584	0.274700	0.855437
Zn3	Zn	1.066251	-0.326137	0.237549
Zn4	Zn	1.566251	0.173863	0.737549
Zn5	Zn	0.948461	-0.225293	0.242284
Zn6	Zn	1.448461	0.274707	0.742284
Zn7	Zn	0.943656	-0.334946	0.360112
Zn8	Zn	1.443656	0.165054	0.860112
O9	O	1.004988	-0.277919	0.298845
O10	O	1.504988	0.222081	0.798845
O11	O	1.160853	-0.234993	0.335860
O12	O	1.660853	0.265007	0.835860
O13	O	1.054590	-0.309071	0.139530
O14	O	1.554590	0.190929	0.639530
O15	O	0.963524	-0.137204	0.257319
O16	O	1.463524	0.362796	0.757319
O17	O	1.164281	-0.309078	0.249249
O18	O	1.664281	0.190922	0.749249
O19	O	1.046636	-0.137209	0.340452
O20	O	1.546636	0.362791	0.840452
O21	O	0.968050	-0.234982	0.143009
O22	O	1.468050	0.265018	0.643009
O23	O	0.849174	-0.243523	0.261853
O24	O	1.349174	0.256477	0.761853
O25	O	0.955336	-0.324090	0.458139
O26	O	1.455336	0.175910	0.958139
O27	O	0.845645	-0.324083	0.348420
O28	O	1.345645	0.175917	0.848420
O29	O	1.041977	-0.243534	0.454704
O30	O	1.541977	0.256466	0.954704
O31	O	1.049931	-0.415396	0.253782
O32	O	1.549931	0.084604	0.753782
O33	O	0.959861	-0.421868	0.343828
O34	O	1.459861	0.078132	0.843828
C35	C	0.821831	-0.284759	0.306158
C36	C	1.321831	0.215241	0.806158
C37	C	0.743475	-0.287700	0.309303
C38	C	1.243475	0.212300	0.809303
C39	C	0.302215	-0.308750	0.331892
C40	C	0.802215	0.191250	0.831892
C41	C	0.375840	-0.305990	0.328924
C42	C	0.875840	0.194010	0.828924
C43	C	0.414464	-0.262605	0.282444
C44	C	0.914464	0.237395	0.782444
C45	C	0.379460	-0.221981	0.238924
C46	C	0.879460	0.278019	0.738924
C47	C	0.305837	-0.224744	0.241889
C48	C	0.805837	0.275256	0.741889
C49	C	0.634848	-0.249839	0.268748
C50	C	1.134848	0.250161	0.768748
C51	C	0.708476	-0.247078	0.265787
C52	C	1.208476	0.252922	0.765787
C53	C	0.704851	-0.331089	0.355787
C54	C	1.204851	0.168911	0.855787
C55	C	0.631226	-0.333846	0.358751
C56	C	1.131226	0.166154	0.858751
C57	C	0.596229	-0.293224	0.315228
C58	C	1.096229	0.206776	0.815228
N59	N	0.489720	-0.259782	0.279410
N60	N	0.989720	0.240218	0.779410
N61	N	0.520974	-0.296050	0.318259
N62	N	1.020974	0.203950	0.818259
C63	C	1.004900	-0.441473	0.298813
C64	C	1.504900	0.058527	0.798813
C65	C	1.004926	-0.511440	0.298821
C66	C	1.504926	-0.011440	0.798821
C67	C	1.048175	-0.544254	0.342141
C68	C	1.548175	-0.044254	0.842141
C69	C	1.048199	-0.609997	0.342157
C70	C	1.548199	-0.109997	0.842157
C71	C	1.004982	-0.642921	0.298840
C72	C	1.504982	-0.142921	0.798840
C73	C	0.961724	-0.610100	0.255517
C74	C	1.461724	-0.110100	0.755517
C75	C	0.961696	-0.544359	0.255507
C76	C	1.461696	-0.044359	0.755507
N77	N	1.002150	-0.744061	0.237359
N78	N	1.502150	-0.244061	0.737359
N79	N	1.002181	-0.806512	0.237370
N80	N	1.502181	-0.306512	0.737370
C81	C	1.005063	-0.840994	0.298869
C82	C	1.505063	-0.340994	0.798869
N83	N	1.007926	-0.810666	0.360357
N84	N	1.507926	-0.310666	0.860357
N85	N	1.007899	-0.748210	0.360344
N86	N	1.507899	-0.248210	0.860344
C87	C	1.005007	-0.714206	0.298847
C88	C	1.505007	-0.214206	0.798847
C89	C	1.048340	-0.945094	0.342211
C90	C	1.548340	-0.445094	0.842211
C91	C	1.048360	-1.010837	0.342229
C92	C	1.548360	-0.510837	0.842229
C93	C	0.961889	-1.010939	0.255582
C94	C	1.461889	-0.510939	0.755582
C95	C	0.961866	-0.945197	0.255571
C96	C	1.461866	-0.445197	0.755571
C97	C	1.005095	-0.912278	0.298884
C98	C	1.505095	-0.412278	0.798884
C99	C	1.188861	-0.271053	0.291505
C100	C	1.688861	0.228947	0.791505
C101	C	1.267216	-0.268128	0.288377
C102	C	1.767216	0.231872	0.788377
C103	C	0.997600	-0.284795	0.482715
C104	C	1.497600	0.215205	0.982715
C105	C	0.994452	-0.287725	0.561069
C106	C	1.494452	0.212275	1.061069
C107	C	1.005096	-0.113727	0.298892
C108	C	1.505096	0.386273	0.798892
C109	C	1.005141	-0.043758	0.298912
C110	C	1.505141	0.456242	0.798912
C111	C	1.038080	-0.247162	0.596093
C112	C	1.538080	0.252838	1.096093
C113	C	1.035113	-0.249913	0.669715
C114	C	1.535113	0.250087	1.169715
C115	C	0.988522	-0.293231	0.708312
C116	C	1.488522	0.206769	1.208312
C117	C	0.944889	-0.333795	0.673284
C118	C	1.444889	0.166205	1.173284
C119	C	0.947852	-0.331041	0.599663
C120	C	1.447852	0.168959	1.099663
C121	C	0.974817	-0.305963	0.928687
C122	C	1.474817	0.194037	1.428687
C123	C	0.971859	-0.308716	1.002313
C124	C	1.471859	0.191284	1.502313
C125	C	1.062083	-0.224833	0.998740
C126	C	1.562083	0.275167	1.498740
C127	C	1.065045	-0.222085	0.925118
C128	C	1.565045	0.277915	1.425118
C129	C	1.021410	-0.262647	0.890095
C130	C	1.521410	0.237353	1.390095
N131	N	0.985490	-0.296045	0.783566
N132	N	1.485490	0.203955	1.283566
N133	N	1.024439	-0.259829	0.814843
N134	N	1.524439	0.240171	1.314843
C135	C	1.012341	-0.271084	1.115691
C136	C	1.512341	0.228916	1.615691
C137	C	1.015487	-0.268153	1.037337
C138	C	1.515487	0.231847	1.537337
H139	H	0.410913	-0.186658	0.201076
H140	H	0.910913	0.313342	0.701076
H141	H	1.070642	-0.216884	0.698228
H142	H	1.570642	0.283116	1.198228
H143	H	0.926651	-0.918477	0.220292
H144	H	1.426651	-0.418477	0.720292
O145	O	1.090341	-0.913211	0.384359
O146	O	1.590341	-0.413211	0.884359
C147	C	1.128525	-0.956275	0.422594
C148	C	1.628525	-0.456275	0.922594
H149	H	1.099572	-1.004330	0.426167
H150	H	1.599572	-0.504330	0.926167
H151	H	1.183128	-0.960266	0.394694
H152	H	1.683128	-0.460266	0.894694
C153	C	1.171148	-0.873987	0.492836
C154	C	1.671148	-0.373987	0.992836
C155	C	1.135584	-0.933009	0.497229
C156	C	1.635584	-0.433009	0.997229
H157	H	1.175506	-0.859635	0.538874
H158	H	1.675506	-0.359635	1.038874
H159	H	1.145425	-0.844974	0.467075
H160	H	1.645425	-0.344974	0.967075
H161	H	1.216647	-0.877321	0.469583
H162	H	1.716647	-0.377321	0.969583
H163	H	1.090084	-0.929673	0.520475
H164	H	1.590084	-0.429673	1.020475
H165	H	1.161300	-0.962021	0.522997
H166	H	1.661300	-0.462021	1.022997
H167	H	1.076022	-0.211890	0.564672
H168	H	1.576022	0.288110	1.064672
H169	H	0.939297	-0.339001	0.900181
H170	H	1.439297	0.160999	1.400181
H171	H	1.102987	-0.186813	0.893697
H172	H	1.602987	0.313187	1.393697
O173	O	0.926632	-0.350876	1.039733
O174	O	1.426632	0.149124	1.539733
C175	C	0.942722	-0.412372	1.021127
C176	C	1.442722	0.087628	1.521127
H177	H	0.971964	-0.410673	0.966590
H178	H	1.471964	0.089327	1.466590
H179	H	0.977288	-0.433771	1.061108
H180	H	1.477288	0.066229	1.561108
C181	C	0.838189	-0.455024	1.087452
C182	C	1.338189	0.044976	1.587452
C183	C	0.874100	-0.452937	1.020465
C184	C	1.374100	0.047063	1.520465
H185	H	0.795860	-0.480048	1.087046
H186	H	1.295860	0.019952	1.587046
H187	H	0.827350	-0.413593	1.099989
H188	H	1.327350	0.086407	1.599989
H189	H	0.867001	-0.472855	1.120762
H190	H	1.367001	0.027145	1.620762
H191	H	0.845291	-0.435099	0.987158
H192	H	1.345291	0.064901	1.487158
H193	H	0.884933	-0.494366	1.007922
H194	H	1.384933	0.005634	1.507922
O195	O	1.090254	-0.641941	0.384143
O196	O	1.590254	-0.141941	0.884143
C197	C	1.137457	-0.676729	0.342229
C198	C	1.637457	-0.176729	0.842229
H199	H	1.114786	-0.685552	0.289781
H200	H	1.614786	-0.185552	0.789781
H201	H	1.190002	-0.649109	0.332432
H202	H	1.690002	-0.149109	0.832432
C203	C	1.176509	-0.729288	0.444946
C204	C	1.676509	-0.229288	0.944946
C205	C	1.148661	-0.740128	0.380530
C206	C	1.648661	-0.240128	0.880530
H207	H	1.183424	-0.768394	0.468572
H208	H	1.683424	-0.268394	0.968572
H209	H	1.144710	-0.705849	0.473184
H210	H	1.644710	-0.205849	0.973184
H211	H	1.220293	-0.706269	0.436772
H212	H	1.720293	-0.206269	0.936772
H213	H	1.104874	-0.763139	0.388705
H214	H	1.604874	-0.263139	0.888705
H215	H	1.180453	-0.763573	0.352294
H216	H	1.680453	-0.263573	0.852294
H217	H	0.277341	-0.191663	0.206456
H218	H	0.777341	0.308337	0.706456
H219	H	1.097607	-0.191809	1.027263
H220	H	1.597607	0.308191	1.527263
O221	O	0.745890	-0.204920	0.220562
O222	O	1.245890	0.295080	0.720562
C223	C	0.699214	-0.169652	0.182791
C224	C	1.199214	0.330348	0.682791
H225	H	0.646818	-0.197305	0.182416
H226	H	1.146818	0.302695	0.682416
H227	H	0.690379	-0.123134	0.209007
H228	H	1.190379	0.376866	0.709007
C229	C	0.795296	-0.122644	0.107085
C230	C	1.295296	0.377356	0.607085
C231	C	0.730944	-0.156611	0.106620
C232	C	1.230944	0.343389	0.606620
H233	H	0.814868	-0.114597	0.060100
H234	H	1.314868	0.385403	0.560100
H235	H	0.826743	-0.146404	0.132534
H236	H	1.326743	0.353596	0.632534
H237	H	0.787924	-0.083884	0.128935
H238	H	1.287924	0.416116	0.628935
H239	H	0.738318	-0.195374	0.084779
H240	H	1.238318	0.304626	0.584779
H241	H	0.699498	-0.132858	0.081166
H242	H	1.199498	0.367142	0.581166
O243	O	1.090271	-1.042748	0.384392
O244	O	1.590271	-0.542748	0.884392
C245	C	1.048293	-1.084003	0.431495
C246	C	1.548293	-0.584003	0.931495
H247	H	0.992586	-1.066473	0.438023
H248	H	1.492586	-0.566473	0.938023
H249	H	1.046777	-1.133114	0.409805
H250	H	1.546777	-0.633114	0.909805
C251	C	1.148157	-1.107939	0.495412
C252	C	1.648157	-0.607939	0.995412
C253	C	1.079739	-1.086405	0.503434
C254	C	1.579739	-0.586405	1.003434
H255	H	1.167555	-1.109424	0.539786
H256	H	1.667555	-0.609424	1.039786
H257	H	1.176440	-1.080147	0.463676
H258	H	1.676440	-0.580147	0.963676
H259	H	1.146884	-1.148863	0.477334
H260	H	1.646884	-0.648863	0.977334
H261	H	1.081013	-1.045480	0.521503
H262	H	1.581013	-0.545480	1.021503
H263	H	1.051457	-1.114191	0.535175
H264	H	1.551457	-0.614191	1.035175
H265	H	1.083373	-0.517454	0.377411
H266	H	1.583373	-0.017454	0.877411
H267	H	0.906950	-0.369063	0.704715
H268	H	1.406950	0.130937	1.204715
O269	O	0.905555	-0.370536	0.565662
O270	O	1.405555	0.129464	1.065662
C271	C	0.920190	-0.433373	0.583032
C272	C	1.420190	0.066627	1.083032
H273	H	0.975688	-0.435201	0.601032
H274	H	1.475688	0.064799	1.101032
H275	H	0.880662	-0.452843	0.627261
H276	H	1.380662	0.047157	1.127261
C277	C	0.846443	-0.470998	0.495835
C278	C	1.346443	0.029002	0.995835
C279	C	0.914608	-0.473243	0.517937
C280	C	1.414608	0.026757	1.017937
H281	H	0.842996	-0.495593	0.455683
H282	H	1.342996	0.004407	0.955683
H283	H	0.836580	-0.428664	0.484134
H284	H	1.336580	0.071336	0.984134
H285	H	0.813510	-0.487222	0.532698
H286	H	1.313510	0.012778	1.032698
H287	H	0.947539	-0.457012	0.481077
H288	H	1.447539	0.042988	0.981077
H289	H	0.924476	-0.515576	0.529630
H290	H	1.424476	-0.015576	1.029630
O291	O	0.264807	-0.350948	0.377065
O292	O	0.764807	0.149052	0.877065
C293	C	0.311489	-0.386199	0.414849
C294	C	0.811489	0.113801	0.914849
H295	H	0.365118	-0.385291	0.383855
H296	H	0.865118	0.114709	0.883855
H297	H	0.317199	-0.364929	0.468118
H298	H	0.817199	0.135071	0.968118
C299	C	0.216458	-0.455779	0.464102
C300	C	0.716458	0.044221	0.964102
C301	C	0.282324	-0.454668	0.426031
C302	C	0.782324	0.045332	0.926031
H303	H	0.198467	-0.498013	0.471002
H304	H	0.698467	0.001987	0.971002
H305	H	0.185007	-0.432029	0.438648
H306	H	0.685007	0.067971	0.938648
H307	H	0.221225	-0.438051	0.508488
H308	H	0.721225	0.061949	1.008488
H309	H	0.277555	-0.472388	0.381642
H310	H	0.777555	0.027612	0.881642
H311	H	0.313775	-0.478422	0.451477
H312	H	0.813775	0.021578	0.951477
O313	O	0.919705	-0.642154	0.213538
O314	O	1.419705	-0.142154	0.713538
C315	C	0.872537	-0.683396	0.255462
C316	C	1.372537	-0.183396	0.755462
H317	H	0.895215	-0.694275	0.307914
H318	H	1.395215	-0.194275	0.807914
H319	H	0.819968	-0.660343	0.265249
H320	H	1.319968	-0.160343	0.765249
C321	C	0.833536	-0.731532	0.152759
C322	C	1.333536	-0.231532	0.652759
C323	C	0.861393	-0.744897	0.217180
C324	C	1.361393	-0.244897	0.717180
H325	H	0.826659	-0.769468	0.129144
H326	H	1.326659	-0.269468	0.629144
H327	H	0.865312	-0.703744	0.124513
H328	H	1.365312	-0.203744	0.624513
H329	H	0.789732	-0.712320	0.160924
H330	H	1.289732	-0.212320	0.660924
H331	H	0.905200	-0.764102	0.209013
H332	H	1.405200	-0.264102	0.709013
H333	H	0.829624	-0.772690	0.245423
H334	H	1.329624	-0.272690	0.745423
H335	H	0.926696	-1.037746	0.220317
H336	H	1.426696	-0.537746	0.720317
O337	O	0.409911	-0.345359	0.371233
O338	O	0.909911	0.154641	0.871233
C339	C	0.450682	-0.309688	0.415132
C340	C	0.950682	0.190312	0.915132
H341	H	0.462725	-0.260610	0.389919
H342	H	0.962725	0.239390	0.889919
H343	H	0.420227	-0.305856	0.468526
H344	H	0.920227	0.194144	0.968526
C345	C	0.505301	-0.402472	0.455985
C346	C	1.005301	0.097528	0.955985
C347	C	0.520097	-0.342196	0.425015
C348	C	1.020097	0.157804	0.925015
H349	H	0.548118	-0.422526	0.462085
H350	H	1.048118	0.077474	0.962085
H351	H	0.477831	-0.426505	0.426412
H352	H	0.977831	0.073495	0.926412
H353	H	0.479920	-0.399271	0.500477
H354	H	0.979920	0.100729	1.000477
H355	H	0.545470	-0.345399	0.380520
H356	H	1.045470	0.154601	0.880520
H357	H	0.547573	-0.318164	0.454581
H358	H	1.047573	0.181836	0.954581
H359	H	0.606362	-0.216764	0.233306
H360	H	1.106362	0.283236	0.733306
H361	H	0.733354	-0.364161	0.391220
H362	H	1.233354	0.135839	0.891220
H363	H	0.599783	-0.369176	0.396598
H364	H	1.099783	0.130824	0.896598
H365	H	0.926477	-0.517641	0.220230
H366	H	1.426477	-0.017641	0.720230
