data_functionalizedCrystal
_audit_creation_method	'MofGen! by Chris Wilmer'
_symmetry_space_group_name_H-M	'P1'
_symmetry_Int_Tables_number	1
_symmetry_cell_setting	triclinic
loop_
_symmetry_equiv_pos_as_xyz
  x,y,z
_cell_length_a	16.109301
_cell_length_b	17.699083
_cell_length_c	14.586319
_cell_angle_alpha	89.995320
_cell_angle_beta	89.999213
_cell_angle_gamma	83.372248
loop_
_atom_site_label
_atom_site_type_symbol
_atom_site_fract_x
_atom_site_fract_y
_atom_site_fract_z
O1	O	1.102963	0.097285	-0.076184
O2	O	0.860880	0.109391	-0.076199
O3	O	0.988761	-0.006841	-0.076183
O4	O	0.975082	0.213517	-0.076200
O5	O	0.988752	-0.006843	0.076298
O6	O	0.860872	0.109390	0.076282
O7	O	1.102954	0.097283	0.076297
Cu8	Cu	0.981912	0.103336	0.090212
Cu9	Cu	0.981923	0.103338	-0.090114
O10	O	0.975074	0.213516	0.076281
C11	C	0.829902	0.108900	0.000040
C12	C	0.737609	0.107430	0.000034
C13	C	0.515224	0.172981	0.000040
C14	C	0.428506	0.171594	0.000046
C15	C	0.448618	0.033688	0.000053
C16	C	0.535334	0.035076	0.000053
C17	C	0.568635	0.104725	0.000042
C18	C	0.395200	0.101949	0.000047
C19	C	0.301177	0.100445	0.000054
C20	C	0.662664	0.106230	0.000037
C21	C	0.988267	-0.035040	0.000057
C22	C	0.986796	-0.119060	0.000058
C23	C	1.061860	-0.167574	0.000064
C24	C	1.060473	-0.246519	0.000055
C25	C	0.984022	-0.276949	0.000048
C26	C	0.908953	-0.228429	0.000039
C27	C	0.910341	-0.149485	0.000041
C28	C	0.903356	-0.546800	0.000031
C29	C	0.901974	-0.625750	0.000033
C30	C	1.053488	-0.643834	0.000046
C31	C	1.054876	-0.564890	0.000048
C32	C	0.979807	-0.516377	0.000034
C33	C	0.981312	-0.430776	0.000041
C34	C	0.982517	-0.362549	0.000047
C35	C	1.133933	0.097774	0.000056
C36	C	1.226226	0.099244	0.000055
C37	C	0.975568	0.241714	0.000038
C38	C	0.977039	0.325734	0.000032
N39	N	0.981911	0.103334	0.217044
N40	N	0.981931	0.103334	-0.216946
C41	C	1.038555	0.051884	0.452057
C42	C	1.038558	0.051882	0.548038
C43	C	0.925280	0.154787	0.548034
C44	C	0.925274	0.154785	0.452054
C45	C	0.981917	0.103334	0.404068
C46	C	0.981925	0.103334	0.596029
C47	C	0.981927	0.103333	0.700096
C48	C	0.981914	0.103334	0.299995
H49	H	0.421494	-0.023018	0.000067
H50	H	0.842230	-0.507310	0.000021
C51	C	0.370420	0.245645	-0.000106
C52	C	0.320033	0.248869	-0.078541
C53	C	0.266508	0.317071	-0.078705
H54	H	0.402571	0.287383	-0.000160
H55	H	0.336125	0.247978	0.053041
H56	H	0.354324	0.246543	-0.131674
H57	H	0.287864	0.207147	-0.078504
H58	H	0.232213	0.319404	-0.025559
H59	H	0.298666	0.358804	-0.078757
H60	H	0.232309	0.319265	-0.131918
H61	H	1.084677	0.009985	0.587108
H62	H	1.114613	-0.683343	0.000052
H63	H	0.542334	0.229694	0.000038
C64	C	0.593192	-0.039118	0.000008
C65	C	0.545471	-0.100411	-0.000015
C66	C	0.598740	-0.168765	-0.000065
H67	H	0.627456	-0.041551	0.053168
H68	H	0.627428	-0.041481	-0.053186
H69	H	0.511250	-0.098049	0.053174
H70	H	0.511209	-0.098003	-0.053171
H71	H	0.632976	-0.171128	-0.053259
H72	H	0.633001	-0.171190	0.053096
H73	H	0.566369	-0.210360	-0.000088
C74	C	0.863885	0.210618	0.600301
C75	C	0.876027	0.199625	0.694628
C76	C	0.819494	0.251052	0.742802
H77	H	0.808378	0.202435	0.584690
H78	H	0.872819	0.261149	0.584614
H79	H	0.867087	0.149106	0.710308
H80	H	0.931523	0.207813	0.710265
H81	H	0.828428	0.301583	0.727115
H82	H	0.763990	0.242865	0.727184
H83	H	0.827730	0.243604	0.806807
H84	H	0.879149	0.196682	0.412979
C85	C	1.144951	-0.134686	0.000022
C86	C	1.210390	-0.194074	-0.000002
C87	C	1.286947	-0.163810	-0.000058
H88	H	1.148762	-0.104281	0.053180
H89	H	1.148687	-0.104285	-0.053173
H90	H	1.206656	-0.224462	0.053188
H91	H	1.206607	-0.224484	-0.053157
H92	H	1.290684	-0.133409	-0.053253
H93	H	1.290749	-0.133405	0.053102
H94	H	1.331357	-0.204099	-0.000083
H95	H	1.117130	-0.540119	0.000058
C96	C	1.141948	-0.299225	-0.000128
C97	C	1.145599	-0.345051	-0.078593
C98	C	1.220650	-0.393603	-0.078803
H99	H	1.144637	-0.330476	0.052979
H100	H	1.187699	-0.269819	-0.000169
H101	H	1.099861	-0.374454	-0.078543
H102	H	1.142925	-0.313820	-0.131713
H103	H	1.266401	-0.364197	-0.078844
H104	H	1.223332	-0.424849	-0.025692
H105	H	1.223141	-0.424697	-0.132044
C106	C	0.828869	-0.096773	-0.000153
C107	C	0.825237	-0.050933	-0.078614
C108	C	0.750191	-0.002373	-0.078834
H109	H	0.826176	-0.065531	0.052957
H110	H	0.783113	-0.126173	-0.000206
H111	H	0.870980	-0.021535	-0.078552
H112	H	0.827916	-0.082154	-0.131736
H113	H	0.704436	-0.031773	-0.078887
H114	H	0.747505	0.028864	-0.025721
H115	H	0.747714	0.028730	-0.132073
H116	H	1.084675	0.009988	0.412989
C117	C	0.818941	-0.658747	-0.000174
C118	C	0.773594	-0.634104	-0.078643
C119	C	0.697109	-0.664494	-0.078870
H120	H	0.787928	-0.642118	0.052930
H121	H	0.828834	-0.712714	-0.000220
H122	H	0.763698	-0.580148	-0.078589
H123	H	0.804580	-0.650732	-0.131760
H124	H	0.707002	-0.718461	-0.078916
H125	H	0.666105	-0.647862	-0.025763
H126	H	0.666335	-0.647783	-0.132115
C127	C	0.826032	-0.261611	0.000078
C128	C	0.840881	-0.341131	0.000105
C129	C	0.764513	-0.371722	0.000157
H130	H	0.795071	-0.245039	-0.053083
H131	H	0.795121	-0.245002	0.053271
H132	H	0.871778	-0.357733	-0.053082
H133	H	0.871830	-0.357724	0.053262
H134	H	0.733602	-0.355113	0.053349
H135	H	0.733557	-0.355144	-0.053005
H136	H	0.774577	-0.425678	0.000183
