data_functionalizedCrystal
_audit_creation_method	'MofGen! by Chris Wilmer'
_symmetry_space_group_name_H-M	'P1'
_symmetry_Int_Tables_number	1
_symmetry_cell_setting	triclinic
loop_
_symmetry_equiv_pos_as_xyz
  x,y,z
_cell_length_a	12.827893
_cell_length_b	12.759399
_cell_length_c	12.759393
_cell_angle_alpha	89.967969
_cell_angle_beta	89.980340
_cell_angle_gamma	90.015277
loop_
_atom_site_label
_atom_site_type_symbol
_atom_site_fract_x
_atom_site_fract_y
_atom_site_fract_z
Zn1	Zn	1.597676	-0.418199	-0.594012
Zn2	Zn	1.597569	-0.593918	-0.418331
Zn3	Zn	1.422916	-0.418254	-0.418348
Zn4	Zn	1.422903	-0.593837	-0.593969
O5	O	1.510266	-0.506052	-0.506165
O6	O	1.743898	-0.441520	-0.570719
O7	O	1.574362	-0.570673	-0.271312
O8	O	1.446148	-0.271226	-0.441675
O9	O	1.743819	-0.570620	-0.441647
O10	O	1.574543	-0.271186	-0.570735
O11	O	1.446045	-0.441614	-0.271324
O12	O	1.276678	-0.441535	-0.441633
O13	O	1.446126	-0.570482	-0.740996
O14	O	1.276669	-0.570535	-0.570661
O15	O	1.574531	-0.441441	-0.741028
O16	O	1.574350	-0.740929	-0.441605
O17	O	1.446023	-0.740869	-0.570645
C18	C	1.238756	-0.506033	-0.506145
C19	C	1.122603	-0.506050	-0.506161
C20	C	1.510202	-0.779020	-0.506141
C21	C	1.510270	-0.895796	-0.506166
C22	C	1.577166	-0.950654	-0.439051
C23	C	1.577233	-1.060378	-0.439086
C24	C	1.443499	-1.060377	-0.573354
C25	C	1.443438	-0.950655	-0.573324
C26	C	1.700580	-1.210258	-0.401698
C27	C	1.767467	-1.265119	-0.334567
C28	C	1.783545	-1.229581	-0.232057
C29	C	1.732722	-1.139183	-0.196657
C30	C	1.665827	-1.084327	-0.263783
C31	C	1.649769	-1.119863	-0.366308
C32	C	1.320090	-0.800774	-0.610701
C33	C	1.253189	-0.745915	-0.677822
C34	C	1.237100	-0.781451	-0.780334
C35	C	1.287905	-0.871853	-0.815730
C36	C	1.354806	-0.926711	-0.748609
C37	C	1.370897	-0.891168	-0.646098
C38	C	1.070857	-0.442281	-0.570130
C39	C	0.950806	-0.442297	-0.570148
C40	C	1.782836	-0.506073	-0.506186
C41	C	1.898989	-0.506081	-0.506194
C42	C	1.510339	-0.505946	-0.780198
C43	C	1.510370	-0.505901	-0.896975
C44	C	1.510359	-0.232019	-0.506212
C45	C	1.510398	-0.115242	-0.506232
C46	C	1.443579	-0.438687	-0.951843
C47	C	1.443604	-0.438655	-1.061567
C48	C	1.577218	-0.573053	-1.061546
C49	C	1.577188	-0.573089	-0.951824
C50	C	1.320415	-0.401055	-1.211518
C51	C	1.253633	-0.333825	-1.266390
C52	C	1.237616	-0.231321	-1.230801
C53	C	1.288395	-0.196026	-1.140342
C54	C	1.355184	-0.263251	-1.085476
C55	C	1.371182	-0.365769	-1.121063
C56	C	1.700378	-0.610678	-0.801871
C57	C	1.767174	-0.677898	-0.747003
C58	C	1.783202	-0.780404	-0.782590
C59	C	1.732441	-0.815695	-0.873052
C60	C	1.665646	-0.748475	-0.927920
C61	C	1.649616	-0.645971	-0.892326
C62	C	1.510253	-0.506082	-0.233198
C63	C	1.510425	-0.505832	-0.116421
H64	H	1.631586	-0.905991	-0.384369
H65	H	1.745810	-1.110261	-0.113178
H66	H	0.906306	-0.387705	-0.624917
H67	H	0.943483	-0.560685	-0.451432
C68	C	1.063124	-0.579000	-0.433326
C69	C	1.000502	-0.646376	-0.492767
C70	C	0.945710	-0.713603	-0.425707
H71	H	1.020443	-0.538848	-0.387642
H72	H	1.111124	-0.619068	-0.393210
H73	H	0.952508	-0.606311	-0.532866
H74	H	1.043158	-0.686551	-0.538450
H75	H	0.993710	-0.753672	-0.385591
H76	H	0.903034	-0.673442	-0.380026
H77	H	0.903222	-0.759332	-0.466028
H78	H	1.389086	-1.105056	-0.628030
H79	H	1.274806	-0.900787	-0.899204
H80	H	1.389172	-0.383978	-0.907189
C81	C	1.270835	-0.084708	-1.101846
C82	C	1.201456	-0.033398	-1.169241
C83	C	1.185241	0.069145	-1.133800
H84	H	1.335353	-0.048171	-1.100812
H85	H	1.242360	-0.086493	-1.033122
H86	H	1.229933	-0.031608	-1.237946
H87	H	1.136925	-0.069904	-1.170283
H88	H	1.156766	0.067360	-1.065076
H89	H	1.249764	0.105672	-1.132766
H90	H	1.138159	0.103968	-1.179516
H91	H	1.624315	-0.777217	-1.001581
H92	H	1.182621	-0.736777	-0.834982
C93	C	1.410174	-0.224768	-0.987258
C94	C	1.381840	-0.120612	-0.967819
C95	C	1.432458	-0.085130	-0.877336
H96	H	1.483477	-0.228919	-0.996964
H97	H	1.390410	-0.267195	-0.929351
H98	H	1.401610	-0.078196	-1.025712
H99	H	1.308546	-0.116432	-0.958093
H100	H	1.412694	-0.127558	-0.819429
H101	H	1.505758	-0.089288	-0.887051
H102	H	1.413233	-0.014461	-0.864129
H103	H	1.211827	-0.672301	-0.648996
H104	H	1.183240	-0.176582	-1.275485
H105	H	1.838007	-1.274257	-0.177398
H106	H	1.624450	-1.010725	-0.234962
C107	C	1.198304	-0.372056	-1.364520
C108	C	1.090332	-0.365647	-1.349772
C109	C	1.039333	-0.400835	-1.440153
H110	H	1.217266	-0.442746	-1.377943
H111	H	1.217977	-0.329565	-1.422412
H112	H	1.070666	-0.408138	-1.291897
H113	H	1.071340	-0.294968	-1.336362
H114	H	1.059007	-0.358344	-1.498045
H115	H	1.058304	-0.471523	-1.453569
H116	H	0.966070	-0.396482	-1.430162
H117	H	1.333438	-0.484526	-1.240495
H118	H	1.837603	-0.835130	-0.737912
H119	H	1.631620	-0.627754	-1.106217
C120	C	1.130223	-0.369290	-0.643016
C121	C	1.103771	-0.265290	-0.620335
C122	C	1.158445	-0.198021	-0.687451
H123	H	1.112463	-0.384600	-0.713635
H124	H	1.203023	-0.378885	-0.633294
H125	H	1.030987	-0.255700	-0.630065
H126	H	1.121534	-0.249948	-0.549727
H127	H	1.231244	-0.207616	-0.677729
H128	H	1.140680	-0.213341	-0.758066
H129	H	1.140512	-0.127450	-0.672064
H130	H	1.808848	-1.338721	-0.363399
H131	H	1.745496	-0.899162	-0.902032
H132	H	1.687506	-1.239195	-0.485174
H133	H	1.333193	-0.771825	-0.527229
H134	H	1.687304	-0.527221	-0.772866
H135	H	1.396178	-1.000318	-0.777439
H136	H	1.808517	-0.649151	-0.673352
