data_functionalizedCrystal
_audit_creation_method	'MofGen! by Chris Wilmer'
_symmetry_space_group_name_H-M	'P1'
_symmetry_Int_Tables_number	1
_symmetry_cell_setting	triclinic
loop_
_symmetry_equiv_pos_as_xyz
  x,y,z
_cell_length_a	10.654562
_cell_length_b	9.065215
_cell_length_c	8.140239
_cell_angle_alpha	89.997785
_cell_angle_beta	89.995712
_cell_angle_gamma	84.752401
loop_
_atom_site_label
_atom_site_type_symbol
_atom_site_fract_x
_atom_site_fract_y
_atom_site_fract_z
O1	O	1.668646	0.207322	-0.136718
O2	O	1.303247	0.227046	-0.136697
O3	O	1.493501	0.002500	-0.136701
O4	O	1.478392	0.431867	-0.136714
O5	O	1.493495	0.002499	0.136526
O6	O	1.303241	0.227044	0.136530
O7	O	1.668640	0.207320	0.136509
Zn8	Zn	1.485940	0.217182	0.179900
Zn9	Zn	1.485948	0.217184	-0.180088
O10	O	1.478386	0.431866	0.136513
C11	C	1.256441	0.225593	-0.000081
C12	C	1.116981	0.221248	-0.000073
C13	C	1.051439	0.219221	0.148850
C14	C	0.920401	0.215150	0.148823
C15	C	0.920458	0.215141	-0.149064
C16	C	1.051495	0.219201	-0.149035
C17	C	1.051405	0.219233	0.320833
C18	C	0.920366	0.215162	0.320806
C19	C	1.492047	-0.052479	-0.000089
C20	C	1.487708	-0.216299	-0.000094
C21	C	1.715446	0.208773	-0.000111
C22	C	1.854906	0.213118	-0.000129
C23	C	1.479840	0.486845	-0.000103
C24	C	1.484180	0.650665	-0.000109
N25	N	1.485943	0.217180	0.425583
N26	N	1.485954	0.217175	-0.425771
H27	H	0.867122	0.213474	-0.270344
C28	C	0.858352	0.353129	0.409580
N29	N	0.811636	0.457120	0.476294
C30	C	0.879810	0.069805	0.392931
N31	N	0.849261	-0.039674	0.447259
C32	C	1.123590	0.221395	-0.312862
N33	N	1.177892	0.223042	-0.436263
C34	C	1.113359	0.081479	0.410051
N35	N	1.160023	-0.022277	0.477245
C36	C	1.091939	0.364595	0.392939
N37	N	1.122469	0.474083	0.447251
