data_functionalizedCrystal
_audit_creation_method	'MofGen! by Chris Wilmer'
_symmetry_space_group_name_H-M	'P1'
_symmetry_Int_Tables_number	1
_symmetry_cell_setting	triclinic
loop_
_symmetry_equiv_pos_as_xyz
  x,y,z
_cell_length_a	11.026607
_cell_length_b	10.489741
_cell_length_c	9.482900
_cell_angle_alpha	99.430409
_cell_angle_beta	78.636152
_cell_angle_gamma	96.562595
loop_
_atom_site_label
_atom_site_type_symbol
_atom_site_fract_x
_atom_site_fract_y
_atom_site_fract_z
O1	O	1.633618	0.519526	-0.120902
O2	O	1.279780	0.458584	-0.120903
O3	O	1.464749	0.305229	-0.120894
O4	O	1.448649	0.672881	-0.120911
O5	O	1.427179	0.336539	0.120897
O6	O	1.242210	0.489894	0.120887
O7	O	1.596048	0.550836	0.120889
Cu8	Cu	1.415698	0.523224	0.142965
Cu9	Cu	1.460129	0.486196	-0.142980
O10	O	1.411079	0.704190	0.120879
C11	C	1.215686	0.462996	-0.000008
C12	C	1.080679	0.429482	-0.000008
C13	C	1.007683	0.522021	-0.000014
C14	C	0.868146	0.487384	-0.000014
C15	C	1.444748	0.273085	0.000000
C16	C	1.441110	0.130655	-0.000002
C17	C	1.323420	0.036624	-0.000013
C18	C	1.360492	-0.027831	0.119202
C19	C	1.397561	-0.058669	-0.119184
C20	C	1.478215	0.068088	0.119312
C21	C	1.515284	0.037242	-0.119182
C22	C	1.552438	-0.027163	0.000063
C23	C	1.660143	0.546423	-0.000010
C24	C	1.795151	0.579936	-0.000019
C25	C	1.431080	0.736334	-0.000018
C26	C	1.434720	0.878763	-0.000025
N27	N	1.384457	0.549268	0.344084
N28	N	1.491380	0.460144	-0.344099
C29	C	1.450906	0.493869	0.416286
C30	C	1.424922	0.515551	0.583703
H31	H	1.048490	0.626890	-0.000010
H32	H	1.348785	0.579029	0.645823
O33	O	1.293552	0.624991	0.417963
C34	C	1.236834	0.672318	0.318324
H35	H	1.251629	0.605610	0.209784
H36	H	1.133113	0.675427	0.362437
H37	H	1.279895	0.774186	0.302180
O38	O	1.582217	0.384322	0.582031
C39	C	1.638976	0.337053	0.681674
H40	H	1.572332	0.338264	0.790226
H41	H	1.663183	0.233492	0.637585
H42	H	1.727309	0.401177	0.697783
H43	H	0.827348	0.382504	-0.000046
O44	O	1.541600	0.417962	0.342216
C45	C	1.514720	0.291685	0.379298
H46	H	1.410864	0.274304	0.421281
H47	H	1.543447	0.217826	0.279103
H48	H	1.568112	0.280812	0.467491
O49	O	0.843694	0.705078	-0.000224
C50	C	0.824058	0.750011	-0.125476
H51	H	0.742225	0.689680	-0.167220
H52	H	0.803130	0.856083	-0.097325
H53	H	0.910937	0.740607	-0.213162
O54	O	1.031990	0.304356	-0.000262
C55	C	0.978829	0.263265	-0.125468
H56	H	1.023096	0.325574	-0.212996
H57	H	0.995713	0.157404	-0.167500
H58	H	0.874695	0.273589	-0.097156
H59	H	1.226636	0.065005	0.000107
H60	H	1.295034	-0.056746	0.219990
O61	O	1.356652	-0.124127	-0.239384
C62	C	1.235856	-0.091955	-0.238906
H63	H	1.219967	0.006122	-0.169110
H64	H	1.224958	-0.086712	-0.354845
H65	H	1.164964	-0.169259	-0.192380
O66	O	1.593483	0.071646	-0.239380
C67	C	1.713689	0.037467	-0.240399
H68	H	1.707168	-0.043427	-0.171619
H69	H	1.759692	0.002555	-0.356824
H70	H	1.771407	0.125630	-0.193580
H71	H	1.649280	-0.055274	0.000129
H72	H	1.512292	0.122930	0.220212
