data_functionalizedCrystal
_audit_creation_method	'MofGen! by Chris Wilmer'
_symmetry_space_group_name_H-M	'P1'
_symmetry_Int_Tables_number	1
_symmetry_cell_setting	triclinic
loop_
_symmetry_equiv_pos_as_xyz
  x,y,z
_cell_length_a	19.121241
_cell_length_b	17.077402
_cell_length_c	17.077396
_cell_angle_alpha	89.968612
_cell_angle_beta	87.539368
_cell_angle_gamma	92.457116
loop_
_atom_site_label
_atom_site_type_symbol
_atom_site_fract_x
_atom_site_fract_y
_atom_site_fract_z
Zn1	Zn	1.073745	-0.261404	-0.495123
Zn2	Zn	1.407078	0.071929	-0.161789
Zn3	Zn	1.740412	0.405262	0.171544
Zn4	Zn	1.073667	-0.392687	-0.363850
Zn5	Zn	1.407000	-0.059353	-0.030516
Zn6	Zn	1.740334	0.273980	0.302817
Zn7	Zn	0.956296	-0.267024	-0.358261
Zn8	Zn	1.289630	0.066310	-0.024927
Zn9	Zn	1.622963	0.399643	0.308406
Zn10	Zn	0.956263	-0.398222	-0.489466
Zn11	Zn	1.289596	-0.064889	-0.156132
Zn12	Zn	1.622929	0.268444	0.177201
O13	O	1.014993	-0.329834	-0.426675
O14	O	1.348326	0.003499	-0.093341
O15	O	1.681659	0.336832	0.239992
O16	O	1.172021	-0.274151	-0.482415
O17	O	1.505355	0.059182	-0.149082
O18	O	1.838688	0.392516	0.184251
O19	O	1.058079	-0.376052	-0.253260
O20	O	1.391412	-0.042719	0.080073
O21	O	1.724746	0.290614	0.413406
O22	O	0.971923	-0.156429	-0.376444
O23	O	1.305256	0.176904	-0.043111
O24	O	1.638590	0.510238	0.290223
O25	O	1.171964	-0.370603	-0.385970
O26	O	1.505297	-0.037270	-0.052637
O27	O	1.838631	0.296063	0.280697
O28	O	1.058212	-0.152301	-0.476996
O29	O	1.391545	0.181033	-0.143662
O30	O	1.724879	0.514366	0.189671
O31	O	0.971847	-0.283728	-0.249154
O32	O	1.305181	0.049605	0.084179
O33	O	1.638514	0.382939	0.417513
O34	O	0.858005	-0.289096	-0.370959
O35	O	1.191339	0.044238	-0.037625
O36	O	1.524672	0.377571	0.295708
O37	O	0.971866	-0.380038	-0.600064
O38	O	1.305199	-0.046705	-0.266731
O39	O	1.638532	0.286629	0.066603
O40	O	0.857981	-0.385487	-0.467354
O41	O	1.191314	-0.052153	-0.134021
O42	O	1.524647	0.281180	0.199312
O43	O	1.058179	-0.279519	-0.604220
O44	O	1.391513	0.053815	-0.270887
O45	O	1.724846	0.387148	0.062447
O46	O	1.058046	-0.503270	-0.380485
O47	O	1.391380	-0.169937	-0.047151
O48	O	1.724713	0.163397	0.286182
O49	O	0.971790	-0.507337	-0.472774
O50	O	1.305123	-0.174004	-0.139441
O51	O	1.638457	0.159330	0.193893
C52	C	0.832508	-0.338502	-0.417937
C53	C	1.165842	-0.005169	-0.084603
C54	C	1.499175	0.328164	0.248730
C55	C	0.754441	-0.342229	-0.414217
C56	C	1.087774	-0.008896	-0.080884
C57	C	1.421107	0.324437	0.252450
C58	C	1.014925	-0.533785	-0.426640
C59	C	1.348258	-0.200452	-0.093307
C60	C	1.681592	0.132881	0.240027
C61	C	1.014960	-0.621033	-0.426655
C62	C	1.348294	-0.287700	-0.093321
C63	C	1.681627	0.045633	0.240012
C64	C	1.059920	-0.659878	-0.378656
C65	C	1.393253	-0.326544	-0.045322
C66	C	1.726586	0.006789	0.288011
C67	C	1.059954	-0.741856	-0.378677
C68	C	1.393287	-0.408523	-0.045344
C69	C	1.726621	-0.075190	0.287989
C70	C	1.015025	-0.784990	-0.426694
C71	C	1.348358	-0.451656	-0.093361
C72	C	1.681692	-0.118323	0.239972
C73	C	0.970063	-0.746140	-0.474699
C74	C	1.303397	-0.412807	-0.141365
C75	C	1.636730	-0.079473	0.191968
C76	C	0.970033	-0.664162	-0.474681
C77	C	1.303366	-0.330829	-0.141347
C78	C	1.636700	0.002504	0.191986
C79	C	0.970128	-0.917007	-0.474732
C80	C	1.303462	-0.583673	-0.141398
C81	C	1.636795	-0.250340	0.191935
C82	C	0.970158	-0.998990	-0.474749
C83	C	1.303491	-0.665657	-0.141416
C84	C	1.636824	-0.332323	0.191918
C85	C	1.060050	-0.994701	-0.378728
C86	C	1.393383	-0.661368	-0.045395
C87	C	1.726716	-0.328034	0.287938
C88	C	1.060019	-0.912723	-0.378710
C89	C	1.393353	-0.579390	-0.045377
C90	C	1.726686	-0.246057	0.287957
C91	C	1.015057	-0.873879	-0.426714
C92	C	1.348390	-0.540546	-0.093380
C93	C	1.681723	-0.207213	0.239953
C94	C	0.717795	-0.293842	-0.462760
C95	C	1.051128	0.039491	-0.129427
C96	C	1.384461	0.372824	0.203906
C97	C	0.644442	-0.297341	-0.459259
C98	C	0.977775	0.035993	-0.125925
C99	C	1.311108	0.369326	0.207408
C100	C	0.607736	-0.349230	-0.407217
C101	C	0.941069	-0.015897	-0.073884
C102	C	1.274403	0.317436	0.259449
C103	C	0.644387	-0.397619	-0.358669
C104	C	0.977720	-0.064286	-0.025335
C105	C	1.311054	0.269047	0.307998
C106	C	0.717739	-0.394117	-0.362167
C107	C	1.051072	-0.060783	-0.028834
C108	C	1.384405	0.272550	0.304500
C109	C	0.386260	-0.362311	-0.394135
C110	C	0.719594	-0.028978	-0.060802
C111	C	1.052927	0.304356	0.272531
C112	C	0.312903	-0.365812	-0.390642
C113	C	0.646237	-0.032479	-0.057309
C114	C	0.979570	0.300855	0.276024
C115	C	0.312963	-0.265532	-0.491232
C116	C	0.646297	0.067802	-0.157898
C117	C	0.979630	0.401135	0.175435
C118	C	0.386316	-0.262037	-0.494729
C119	C	0.719650	0.071296	-0.161395
C120	C	1.052983	0.404630	0.171938
C121	C	0.422961	-0.310423	-0.446177
C122	C	0.756294	0.022910	-0.112844
C123	C	1.089628	0.356244	0.220489
C124	C	0.532758	-0.352809	-0.403638
C125	C	0.866091	-0.019476	-0.070305
C126	C	1.199424	0.313858	0.263028
C127	C	0.497938	-0.306840	-0.449753
C128	C	0.831271	0.026494	-0.116419
C129	C	1.164605	0.359827	0.216914
C130	C	1.198190	-0.321133	-0.435447
C131	C	1.531523	0.012200	-0.102114
C132	C	1.864857	0.345534	0.231220
C133	C	1.276258	-0.317425	-0.439185
C134	C	1.609591	0.015908	-0.105852
C135	C	1.942924	0.349242	0.227481
C136	C	1.015028	-0.329769	-0.631421
C137	C	1.348361	0.003564	-0.298087
C138	C	1.681694	0.336898	0.035246
C139	C	1.015042	-0.329741	-0.718671
C140	C	1.348376	0.003592	-0.385338
C141	C	1.681709	0.336925	-0.052005
C142	C	1.015080	-0.125086	-0.426727
C143	C	1.348413	0.208248	-0.093394
C144	C	1.681747	0.541581	0.239939
C145	C	1.015117	-0.037834	-0.426750
C146	C	1.348450	0.295499	-0.093417
C147	C	1.681784	0.628832	0.239917
C148	C	1.060007	-0.377720	-1.096629
C149	C	1.393340	-0.044387	-0.763296
C150	C	1.726674	0.288947	-0.429963
C151	C	1.059989	-0.377744	-1.014648
C152	C	1.393323	-0.044410	-0.681315
C153	C	1.726656	0.288923	-0.347981
C154	C	1.015088	-0.329684	-0.971522
C155	C	1.348421	0.003650	-0.638189
C156	C	1.681754	0.336983	-0.304856
C157	C	0.970196	-0.281603	-1.010382
C158	C	1.303529	0.051731	-0.677049
C159	C	1.636862	0.385064	-0.343715
C160	C	0.970210	-0.281584	-1.092362
C161	C	1.303544	0.051750	-0.759028
C162	C	1.636877	0.385083	-0.425695
C163	C	0.970169	-0.281644	-0.839511
C164	C	1.303503	0.051689	-0.506177
C165	C	1.636836	0.385022	-0.172844
C166	C	0.970155	-0.281662	-0.757525
C167	C	1.303489	0.051671	-0.424192
C168	C	1.636822	0.385005	-0.090859
C169	C	1.059948	-0.377805	-0.761797
C170	C	1.393281	-0.044471	-0.428464
C171	C	1.726615	0.288862	-0.095130
C172	C	1.059963	-0.377785	-0.843777
C173	C	1.393296	-0.044452	-0.510443
C174	C	1.726630	0.288881	-0.177110
C175	C	1.015072	-0.329703	-0.882631
C176	C	1.348405	0.003630	-0.549297
C177	C	1.681738	0.336964	-0.215964
C178	C	1.014999	-0.329841	-0.222727
C179	C	1.348332	0.003493	0.110606
C180	C	1.681665	0.336826	0.443940
C181	C	1.015120	-0.329641	-0.135483
C182	C	1.348453	0.003693	0.197850
C183	C	1.681787	0.337026	0.531183
H184	H	1.096503	-0.624764	-0.339551
H185	H	1.429837	-0.291431	-0.006218
H186	H	1.763170	0.041903	0.327116
F187	F	0.493686	-0.408034	-0.348255
F188	F	0.827020	-0.074700	-0.014921
F189	F	1.160353	0.258633	0.318412
H190	H	0.933633	-0.242475	-0.975262
H191	H	1.266966	0.090858	-0.641929
H192	H	1.600299	0.424192	-0.308596
F193	F	0.922250	-0.792048	-0.525807
F194	F	1.255583	-0.458714	-0.192474
F195	F	1.588917	-0.125381	0.140860
H196	H	0.933660	-0.242432	-1.123995
H197	H	1.266993	0.090902	-0.790662
H198	H	1.600326	0.424235	-0.457329
H199	H	0.933423	-0.632536	-0.513767
H200	H	1.266757	-0.299203	-0.180434
H201	H	1.600090	0.034130	0.152899
H202	H	0.933595	-0.242525	-0.722414
H203	H	1.266928	0.090808	-0.389081
H204	H	1.600261	0.424142	-0.055748
H205	H	0.416087	-0.401711	-0.354602
H206	H	0.749421	-0.068378	-0.021269
H207	H	1.082754	0.264955	0.312065
F208	F	0.922399	-0.230460	-0.880860
F209	F	1.255732	0.102873	-0.547527
F210	F	1.589065	0.436206	-0.214194
H211	H	0.527827	-0.264588	-0.492121
H212	H	0.861160	0.068745	-0.158788
H213	H	1.194494	0.402079	0.174545
H214	H	1.096529	-0.416916	-0.878888
H215	H	1.429863	-0.083583	-0.545554
H216	H	1.763196	0.249751	-0.212221
F217	F	1.107723	-0.428980	-0.720445
F218	F	1.441056	-0.095647	-0.387112
F219	F	1.774390	0.237687	-0.053778
F220	F	0.922276	-0.875668	-0.525825
F221	F	1.255609	-0.542335	-0.192492
F222	F	1.588942	-0.209001	0.140842
H223	H	1.096564	-0.773480	-0.339591
H224	H	1.429898	-0.440146	-0.006258
H225	H	1.763231	-0.106813	0.327076
F226	F	1.107802	-0.428868	-1.142520
F227	F	1.441136	-0.095535	-0.809187
F228	F	1.774469	0.237798	-0.475853
F229	F	1.107837	-0.866819	-0.327604
F230	F	1.441170	-0.533486	0.005729
F231	F	1.774504	-0.200153	0.339063
H232	H	0.416197	-0.219786	-0.537109
H233	H	0.749530	0.113548	-0.203776
H234	H	1.082864	0.446881	0.129558
F235	F	0.273958	-0.214039	-0.542899
F236	F	0.607292	0.119295	-0.209565
F237	F	0.940625	0.452628	0.123768
F238	F	0.605320	-0.452840	-0.303278
F239	F	0.938653	-0.119507	0.030056
F240	F	1.271987	0.213826	0.363389
F241	F	1.107897	-1.036043	-0.327633
F242	F	1.441231	-0.702709	0.005701
F243	F	1.774564	-0.369376	0.339034
H244	H	0.933585	-1.034106	-0.513864
H245	H	1.266919	-0.700773	-0.180531
H246	H	1.600252	-0.367440	0.152803
F247	F	0.605444	-0.245842	-0.510927
F248	F	0.938777	0.087492	-0.177594
F249	F	1.272110	0.420825	0.155740
F250	F	0.756853	-0.238617	-0.518154
F251	F	1.090187	0.094716	-0.184821
F252	F	1.423520	0.428049	0.148512
H253	H	1.096532	-0.416904	-0.983017
H254	H	1.429865	-0.083571	-0.649683
H255	H	1.763199	0.249762	-0.316350
F256	F	0.273840	-0.421057	-0.335265
F257	F	0.607173	-0.087724	-0.001931
F258	F	0.940507	0.245609	0.331402
H259	H	0.747575	-0.433518	-0.322637
H260	H	1.080908	-0.100185	0.010696
H261	H	1.414241	0.233149	0.344029
