data_functionalizedCrystal
_audit_creation_method	'MofGen! by Chris Wilmer'
_symmetry_space_group_name_H-M	'P1'
_symmetry_Int_Tables_number	1
_symmetry_cell_setting	triclinic
loop_
_symmetry_equiv_pos_as_xyz
  x,y,z
_cell_length_a	10.654549
_cell_length_b	14.519731
_cell_length_c	9.730223
_cell_angle_alpha	89.994614
_cell_angle_beta	89.997731
_cell_angle_gamma	84.086815
loop_
_atom_site_label
_atom_site_type_symbol
_atom_site_fract_x
_atom_site_fract_y
_atom_site_fract_z
O1	O	1.666607	0.129529	-0.114262
O2	O	1.999941	0.462863	0.219072
O3	O	2.333274	0.796196	0.552405
O4	O	1.301011	0.141871	-0.114272
O5	O	1.634345	0.475204	0.219062
O6	O	1.967678	0.808537	0.552395
O7	O	1.493489	0.001513	-0.114254
O8	O	1.826822	0.334846	0.219079
O9	O	2.160155	0.668180	0.552413
O10	O	1.474130	0.269887	-0.114279
O11	O	1.807463	0.603220	0.219054
O12	O	2.140797	0.936554	0.552387
O13	O	1.493476	0.001509	0.114326
O14	O	1.826810	0.334842	0.447659
O15	O	2.160143	0.668176	0.780993
O16	O	1.300999	0.141867	0.114308
O17	O	1.634332	0.475200	0.447642
O18	O	1.967666	0.808533	0.780975
O19	O	1.666595	0.129525	0.114318
O20	O	1.999928	0.462859	0.447652
O21	O	2.333262	0.796192	0.780985
Zn22	Zn	1.483795	0.135695	0.150605
Zn23	Zn	1.817128	0.469029	0.483939
Zn24	Zn	2.150462	0.802362	0.817272
Zn25	Zn	1.483811	0.135701	-0.150559
Zn26	Zn	1.817145	0.469034	0.182775
Zn27	Zn	2.150478	0.802367	0.516108
O28	O	1.474118	0.269883	0.114301
O29	O	1.807451	0.603216	0.447634
O30	O	2.140784	0.936550	0.780967
C31	C	1.254216	0.140963	0.000017
C32	C	1.587549	0.474296	0.333350
C33	C	1.920883	0.807629	0.666684
C34	C	1.114798	0.138252	0.000014
C35	C	1.448132	0.471585	0.333347
C36	C	1.781465	0.804918	0.666680
C37	C	0.903522	0.218338	0.000012
C38	C	1.236855	0.551671	0.333345
C39	C	1.570189	0.885004	0.666678
C40	C	1.034518	0.220892	0.000003
C41	C	1.367852	0.554225	0.333337
C42	C	1.701185	0.887559	0.666670
C43	C	1.064076	0.053051	0.000019
C44	C	1.397410	0.386385	0.333352
C45	C	1.730743	0.719718	0.666685
C46	C	0.933082	0.050498	0.000017
C47	C	1.266416	0.383832	0.333351
C48	C	1.599749	0.717165	0.666684
C49	C	1.492575	-0.032853	0.000036
C50	C	1.825909	0.300480	0.333370
C51	C	2.159242	0.633814	0.666703
C52	C	1.489857	-0.135247	0.000037
C53	C	1.823191	0.198086	0.333370
C54	C	2.156524	0.531419	0.666704
C55	C	1.487649	-0.218403	0.000034
C56	C	1.820982	0.114930	0.333367
C57	C	2.154315	0.448264	0.666701
C58	C	1.484889	-0.322726	0.000023
C59	C	1.818222	0.010607	0.333357
C60	C	2.151556	0.343941	0.666690
C61	C	1.482699	-0.405876	0.000014
C62	C	1.816032	-0.072543	0.333348
C63	C	2.149365	0.260790	0.666681
C64	C	1.479939	-0.510206	0.000006
C65	C	1.813273	-0.176873	0.333340
C66	C	2.146606	0.156460	0.666673
C67	C	1.713391	0.130433	0.000026
C68	C	2.046724	0.463767	0.333360
C69	C	2.380057	0.797100	0.666693
C70	C	1.852808	0.133144	0.000021
C71	C	2.186141	0.466478	0.333354
C72	C	2.519475	0.799811	0.666688
C73	C	1.475031	0.304249	0.000007
C74	C	1.808364	0.637582	0.333341
C75	C	2.141698	0.970916	0.666674
C76	C	1.477749	0.406643	-0.000003
C77	C	1.811082	0.739977	0.333331
C78	C	2.144416	1.073310	0.666664
N79	N	1.483793	0.135691	0.356142
N80	N	1.817126	0.469025	0.689475
N81	N	2.150460	0.802358	1.022808
N82	N	1.483823	0.135697	-0.356095
N83	N	1.817157	0.469031	-0.022762
N84	N	2.150490	0.802364	0.310572
C85	C	1.569051	0.073568	0.428075
C86	C	1.902384	0.406901	0.761409
C87	C	2.235718	0.740234	1.094742
C88	C	1.569063	0.073568	0.571958
C89	C	1.902397	0.406901	0.905292
C90	C	2.235730	0.740235	1.238625
C91	C	1.398556	0.197824	0.571961
C92	C	1.731890	0.531157	0.905294
C93	C	2.065223	0.864491	1.238628
C94	C	1.398539	0.197819	0.428081
C95	C	1.731872	0.531152	0.761414
C96	C	2.065205	0.864485	1.094747
H97	H	0.891792	-0.018880	0.000020
H98	H	1.225125	0.314453	0.333354
H99	H	1.558459	0.647786	0.666687
H100	H	1.638468	0.022979	0.369506
H101	H	1.971802	0.356312	0.702839
H102	H	2.305135	0.689645	1.036173
H103	H	1.638486	0.022980	0.630523
H104	H	1.971820	0.356313	0.963856
H105	H	2.305153	0.689647	1.297190
H106	H	1.329146	0.248408	0.630548
H107	H	1.662479	0.581741	0.963882
H108	H	1.995812	0.915075	1.297215
H109	H	1.329106	0.248408	0.369508
H110	H	1.662439	0.581741	0.702842
H111	H	1.995772	0.915074	1.036175
H112	H	0.838165	0.285634	0.000014
H113	H	1.171499	0.618967	0.333347
H114	H	1.504832	0.952300	0.666680
H115	H	1.129451	-0.014236	0.000019
H116	H	1.462785	0.319098	0.333352
H117	H	1.796118	0.652431	0.666686
H118	H	1.075802	0.290265	-0.000005
H119	H	1.409136	0.623598	0.333328
H120	H	1.742469	0.956931	0.666661
