data_functionalizedCrystal
_audit_creation_method	'MofGen! by Chris Wilmer'
_symmetry_space_group_name_H-M	'P1'
_symmetry_Int_Tables_number	1
_symmetry_cell_setting	triclinic
loop_
_symmetry_equiv_pos_as_xyz
  x,y,z
_cell_length_a	14.044220
_cell_length_b	11.026607
_cell_length_c	10.065918
_cell_angle_alpha	97.684983
_cell_angle_beta	80.947333
_cell_angle_gamma	79.112553
loop_
_atom_site_label
_atom_site_type_symbol
_atom_site_fract_x
_atom_site_fract_y
_atom_site_fract_z
O1	O	0.419792	-1.671493	-0.113517
O2	O	0.373744	-1.313202	-0.113517
O3	O	0.257864	-1.486968	-0.113504
O4	O	0.535672	-1.497728	-0.113531
O5	O	0.227068	-1.451847	0.113487
O6	O	0.342948	-1.278082	0.113474
O7	O	0.388996	-1.636373	0.113474
Zn8	Zn	0.361083	-1.451651	0.149514
Zn9	Zn	0.401657	-1.497924	-0.149557
O10	O	0.504876	-1.462607	0.113460
C11	C	0.206348	-1.464699	-0.000008
C12	C	0.098726	-1.450655	-0.000006
C13	C	0.349851	-1.249512	-0.000021
C14	C	0.324526	-1.112056	-0.000020
C15	C	0.412890	-1.700064	-0.000025
C16	C	0.438215	-1.837521	-0.000035
C17	C	-0.098314	-1.424983	-0.000025
C18	C	-0.138951	-1.524588	-0.000030
C19	C	-0.248591	-1.510304	-0.000041
C20	C	0.011335	-1.439266	-0.000015
C21	C	0.556392	-1.484876	-0.000039
C22	C	0.664016	-1.498922	-0.000049
N23	N	0.333392	-1.420080	0.353621
C24	C	0.394452	-1.045821	-0.000028
C25	C	0.368280	-0.903753	-0.000027
N26	N	0.429341	-1.529504	-0.353664
C27	C	0.370712	-1.462653	0.578561
C28	C	0.392030	-1.486941	0.421392
H29	H	-0.145863	-1.328988	-0.000029
H30	H	-0.091386	-1.620606	-0.000122
H31	H	0.473692	-1.094290	-0.000028
O32	O	0.263304	-0.839573	-0.000017
H33	H	0.259221	-0.738061	-0.000026
O34	O	0.543192	-0.901699	-0.000049
H35	H	0.547280	-1.003214	-0.000059
H36	H	0.245289	-1.063591	-0.000048
H37	H	0.495316	-1.604722	0.588003
O38	O	0.283315	-1.363014	0.655808
H39	H	0.280290	-1.359566	0.767133
O40	O	0.479438	-1.586575	0.344150
H41	H	0.482473	-1.590009	0.232826
H42	H	0.267410	-1.344861	0.411946
