data_functionalizedCrystal
_audit_creation_method	'MofGen! by Chris Wilmer'
_symmetry_space_group_name_H-M	'P1'
_symmetry_Int_Tables_number	1
_symmetry_cell_setting	triclinic
loop_
_symmetry_equiv_pos_as_xyz
  x,y,z
_cell_length_a	14.519709
_cell_length_b	12.837942
_cell_length_c	11.892095
_cell_angle_alpha	85.697431
_cell_angle_beta	86.099364
_cell_angle_gamma	90.745457
loop_
_atom_site_label
_atom_site_type_symbol
_atom_site_fract_x
_atom_site_fract_y
_atom_site_fract_z
O1	O	1.240918	-0.129302	-0.093854
O2	O	0.973826	-0.145304	-0.093888
O3	O	1.101449	0.013610	-0.093865
O4	O	1.113295	-0.288216	-0.093877
O5	O	1.090807	0.000381	0.094141
O6	O	0.963184	-0.158534	0.094118
O7	O	1.230275	-0.142531	0.094152
Zn8	Zn	1.095040	-0.152633	0.123985
Zn9	Zn	1.109062	-0.135203	-0.123721
O10	O	1.102652	-0.301446	0.094129
C11	C	0.934081	-0.151173	0.000110
C12	C	0.831507	-0.148937	0.000097
C13	C	1.092127	0.045624	0.000137
C14	C	1.080193	0.160723	0.000134
N15	N	1.085477	-0.164528	0.293037
C16	C	0.455897	-0.140712	0.000149
C17	C	0.560404	-0.142996	0.000134
C18	C	0.643699	-0.144824	0.000122
C19	C	0.748212	-0.147109	0.000110
C20	C	1.270021	-0.136663	0.000151
C21	C	1.372595	-0.138898	0.000157
C22	C	1.111975	-0.333459	0.000124
C23	C	1.123910	-0.448558	0.000120
C24	C	1.223663	0.401416	0.000129
C25	C	1.212455	0.509563	0.000125
C26	C	1.046568	0.485166	0.000116
C27	C	1.057777	0.377019	0.000119
C28	C	1.146327	0.335148	0.000127
C29	C	1.157535	0.226999	0.000139
C30	C	0.991649	0.202605	0.000121
C31	C	0.980440	0.310752	0.000118
N32	N	1.118632	-0.123299	-0.292773
C33	C	1.185172	-0.040467	0.529703
C34	C	1.178494	-0.048789	0.648044
C35	C	1.065441	-0.189489	0.648061
C36	C	1.072118	-0.181167	0.529721
C37	C	1.131986	-0.106655	0.470546
C38	C	1.138668	-0.098338	0.352203
C39	C	1.025610	-0.239032	0.352222
C40	C	1.018933	-0.247355	0.470563
H41	H	1.229637	0.192909	0.000149
H42	H	1.275431	0.563515	0.000123
H43	H	1.295764	0.367323	0.000146
O44	O	0.968243	-0.310431	0.288418
H45	H	0.893894	-0.298650	0.311148
H46	H	0.970186	-0.308019	0.518757
O47	O	1.000872	-0.269852	0.711893
H48	H	1.005170	-0.264518	0.804120
H49	H	0.974474	0.519278	0.000097
H50	H	0.908345	0.344859	0.000107
O51	O	0.908233	0.131121	0.000124
H52	H	0.861984	0.140639	0.076757
H53	H	1.233925	0.020197	0.481522
O54	O	1.203230	-0.017970	0.288370
H55	H	1.239082	0.026665	0.349393
O56	O	1.235868	0.022585	0.711855
H57	H	1.278625	0.075786	0.650821
