data_functionalizedCrystal
_audit_creation_method	'MofGen! by Chris Wilmer'
_symmetry_space_group_name_H-M	'P1'
_symmetry_Int_Tables_number	1
_symmetry_cell_setting	triclinic
loop_
_symmetry_equiv_pos_as_xyz
  x,y,z
_cell_length_a	17.019311
_cell_length_b	16.098538
_cell_length_c	9.065218
_cell_angle_alpha	92.765239
_cell_angle_beta	95.795254
_cell_angle_gamma	96.609511
loop_
_atom_site_label
_atom_site_type_symbol
_atom_site_fract_x
_atom_site_fract_y
_atom_site_fract_z
O1	O	1.055315	0.144936	-0.174195
O2	O	1.555315	0.644936	0.325805
O3	O	0.824990	0.128419	-0.199723
O4	O	1.324990	0.628419	0.300277
O5	O	0.944913	0.137017	0.027844
O6	O	1.444913	0.637017	0.527844
O7	O	0.935392	0.136338	-0.401762
O8	O	1.435392	0.636338	0.098238
O9	O	0.937907	-0.001998	0.014603
O10	O	1.437907	0.498002	0.514603
O11	O	0.817984	-0.010596	-0.212965
O12	O	1.317984	0.489404	0.287035
O13	O	1.048309	0.005921	-0.187436
O14	O	1.548309	0.505921	0.312564
Zn15	Zn	0.932034	-0.024409	-0.202303
Zn16	Zn	1.432034	0.475591	0.297697
Zn17	Zn	0.941265	0.158749	-0.184857
Zn18	Zn	1.441265	0.658749	0.315143
O19	O	0.928386	-0.002677	-0.415004
O20	O	1.428386	0.497323	0.084996
C21	C	0.791985	0.056796	-0.205635
C22	C	1.291985	0.556796	0.294365
C23	C	0.704078	0.050492	-0.203506
C24	C	1.204078	0.550492	0.296494
C25	C	0.206700	0.011040	-0.191872
C26	C	0.706700	0.511040	0.308128
C27	C	0.289298	0.016964	-0.193873
C28	C	0.789298	0.516964	0.306127
C29	C	0.334416	0.095705	-0.187644
C30	C	0.834416	0.595705	0.312356
C31	C	0.296932	0.168526	-0.179429
C32	C	0.796932	0.668526	0.320571
C33	C	0.214335	0.162601	-0.177439
C34	C	0.714335	0.662601	0.322561
C35	C	0.583997	0.117388	-0.193300
C36	C	1.083997	0.617388	0.306700
C37	C	0.666600	0.123308	-0.195287
C38	C	1.166600	0.623308	0.304713
C39	C	0.658959	-0.028255	-0.209733
C40	C	1.158959	0.471745	0.290267
C41	C	0.576362	-0.034173	-0.207734
C42	C	1.076362	0.465827	0.292266
C43	C	0.538884	0.038647	-0.199527
C44	C	1.038884	0.538647	0.300473
C45	C	0.418845	0.101763	-0.189684
C46	C	0.918845	0.601763	0.310316
C47	C	0.454456	0.032589	-0.197497
C48	C	0.954456	0.532589	0.302503
N49	N	0.925741	-0.149410	-0.214208
N50	N	1.425741	0.350590	0.285792
C51	C	0.976660	-0.189344	-0.117654
C52	C	1.476660	0.310656	0.382346
C53	C	0.972265	-0.276848	-0.125996
C54	C	1.472265	0.223152	0.374004
C55	C	0.916954	-0.324416	-0.230901
C56	C	1.416954	0.175584	0.269099
C57	C	0.866029	-0.284476	-0.327460
C58	C	1.366029	0.215524	0.172540
C59	C	0.870421	-0.196974	-0.319110
C60	C	1.370421	0.303026	0.180890
C61	C	0.901032	-0.588808	-0.261148
C62	C	1.401032	-0.088808	0.238852
C63	C	0.896645	-0.676316	-0.269494
C64	C	1.396645	-0.176316	0.230506
C65	C	1.002881	-0.668682	-0.068027
C66	C	1.502881	-0.168682	0.431973
C67	C	1.007271	-0.581178	-0.059691
C68	C	1.507271	-0.081178	0.440309
C69	C	0.956344	-0.541246	-0.156245
C70	C	1.456344	-0.041246	0.343755
C71	C	0.912461	-0.413859	-0.239434
C72	C	1.412461	0.086141	0.260566
C73	C	0.960833	-0.451804	-0.147704
C74	C	1.460833	0.048196	0.352296
C75	C	1.081314	0.077546	-0.181524
C76	C	1.581314	0.577546	0.318476
C77	C	1.169221	0.083855	-0.183653
C78	C	1.669221	0.583855	0.316347
C79	C	0.940495	0.067445	0.076179
C80	C	1.440495	0.567445	0.576179
C81	C	0.937759	0.067253	0.239930
C82	C	1.437759	0.567253	0.739930
N83	N	0.947565	0.283750	-0.172939
N84	N	1.447565	0.783750	0.327061
C85	C	0.932804	0.066896	-0.463338
C86	C	1.432804	0.566896	0.036662
C87	C	0.935540	0.067094	-0.627089
C88	C	1.435540	0.567094	-0.127089
H89	H	0.689482	-0.087541	-0.216418
H90	H	1.189482	0.412459	0.283582
Br91	Br	0.515132	-0.141040	-0.216220
Br92	Br	1.015132	0.358960	0.283780
Br93	Br	1.041367	-0.331048	0.005049
Br94	Br	1.541367	0.168952	0.505049
Br95	Br	0.393222	-0.074271	-0.205964
Br96	Br	0.893222	0.425729	0.294036
Br97	Br	1.051735	-0.124796	0.024715
Br98	Br	1.551735	0.375204	0.524715
Br99	Br	0.358163	0.275390	-0.170981
Br100	Br	0.858163	0.775390	0.329019
H101	H	0.183821	0.221895	-0.170750
H102	H	0.683821	0.721895	0.329250
Br103	Br	1.071992	-0.722879	0.063007
Br104	Br	1.571992	-0.222879	0.563007
Br105	Br	1.082340	-0.516620	0.082675
Br106	Br	1.582340	-0.016620	0.582675
H107	H	0.553493	0.176684	-0.186612
H108	H	1.053493	0.676684	0.313388
H109	H	0.455590	0.165874	-0.184608
H110	H	0.955590	0.665874	0.315392
H111	H	0.851602	-0.715042	-0.354927
H112	H	1.351602	-0.215042	0.145073
H113	H	0.859566	-0.556302	-0.339768
H114	H	1.359566	-0.056302	0.160232
Br115	Br	0.727833	0.230178	-0.186828
Br116	Br	1.227833	0.730178	0.313172
Br117	Br	0.801307	-0.142778	-0.450145
Br118	Br	1.301307	0.357222	0.049855
Br119	Br	0.837396	-0.478419	-0.381805
Br120	Br	1.337396	0.021581	0.118195
H121	H	0.169969	-0.053080	-0.196951
H122	H	0.669969	0.446920	0.303049
H123	H	0.319809	-0.042330	-0.200562
H124	H	0.819809	0.457670	0.299438
Br125	Br	0.790956	-0.349030	-0.469825
Br126	Br	1.290956	0.150970	0.030175
H127	H	1.005864	-0.413072	-0.062285
H128	H	1.505864	0.086928	0.437715
