data_functionalizedCrystal
_audit_creation_method	'MofGen! by Chris Wilmer'
_symmetry_space_group_name_H-M	'P1'
_symmetry_Int_Tables_number	1
_symmetry_cell_setting	triclinic
loop_
_symmetry_equiv_pos_as_xyz
  x,y,z
_cell_length_a	16.120297
_cell_length_b	16.120530
_cell_length_c	16.120484
_cell_angle_alpha	90.167327
_cell_angle_beta	84.385569
_cell_angle_gamma	89.871860
loop_
_atom_site_label
_atom_site_type_symbol
_atom_site_fract_x
_atom_site_fract_y
_atom_site_fract_z
Zn1	Zn	-0.554813	-1.224987	0.422264
Zn2	Zn	-0.422118	-1.224883	0.554948
Zn3	Zn	-0.408056	-1.093726	0.408180
Zn4	Zn	-0.554051	-1.078880	0.554181
O5	O	-0.484760	-1.155619	0.484893
O6	O	-0.543415	-1.341009	0.446081
O7	O	-0.303620	-1.213654	0.529906
O8	O	-0.421958	-1.117395	0.293418
O9	O	-0.445925	-1.340932	0.543563
O10	O	-0.529780	-1.213832	0.303765
O11	O	-0.293289	-1.117294	0.422076
O12	O	-0.421218	-0.975721	0.421332
O13	O	-0.670785	-1.092092	0.542255
O14	O	-0.528480	-0.964814	0.528598
O15	O	-0.671345	-1.199436	0.445336
O16	O	-0.445185	-1.199258	0.671477
O17	O	-0.542116	-1.091990	0.670913
C18	C	-0.473241	-0.940181	0.473354
C19	C	-0.468334	-0.848013	0.468438
C20	C	-0.495113	-1.144023	0.701438
C21	C	-0.499574	-1.139137	0.794083
C22	C	-0.702152	-1.144119	0.495281
C23	C	-0.794791	-1.139219	0.499708
C24	C	-0.964403	-1.130243	0.507770
C25	C	-1.005965	-1.181172	0.461776
C26	C	-1.100342	-1.176177	0.466262
C27	C	-0.870017	-1.135236	0.503285
C28	C	-0.268213	-1.167125	0.474489
C29	C	-0.175571	-1.172198	0.469836
C30	C	-0.496324	-1.371899	0.496479
C31	C	-0.501252	-1.464064	0.501416
C32	C	-0.459381	-0.679262	0.459445
C33	C	-0.510202	-0.632810	0.510407
C34	C	-0.505220	-0.538911	0.505403
C35	C	-0.464361	-0.773169	0.464448
C36	C	-0.474385	-1.167282	0.267505
C37	C	-0.469964	-1.172251	0.174867
C38	C	-0.507736	-1.130220	0.963706
C39	C	-0.461804	-1.181166	1.005249
C40	C	-0.466346	-1.176204	1.099633
C41	C	-0.503196	-1.135180	0.869313
H42	H	-0.970668	-1.228524	0.419031
H43	H	-0.999698	-1.082894	0.550512
O44	O	-0.566610	-0.669584	0.566837
C45	C	-0.620878	-0.719374	0.524669
H46	H	-0.589239	-0.737173	0.460732
H47	H	-0.680495	-0.683287	0.516825
C48	C	-0.681226	-0.776603	0.654102
C49	C	-0.642363	-0.798470	0.575576
H50	H	-0.694483	-0.825392	0.685504
H51	H	-0.644667	-0.743057	0.682512
H52	H	-0.730902	-0.746530	0.647553
H53	H	-0.592684	-0.828533	0.582125
H54	H	-0.678915	-0.832023	0.547168
H55	H	-0.412135	-0.648511	0.412060
H56	H	-0.419069	-1.228508	0.969931
O57	O	-0.558640	-1.073762	1.005958
C58	C	-0.551902	-1.081326	1.092154
H59	H	-0.489616	-1.111338	1.102322
H60	H	-0.604899	-1.121551	1.121527
C61	C	-0.633586	-0.957849	1.120410
C62	C	-0.557083	-0.994704	1.132898
H63	H	-0.636786	-0.904418	1.145544
H64	H	-0.638129	-0.952754	1.062338
H65	H	-0.677743	-0.991378	1.144887
H66	H	-0.512929	-0.961180	1.108412
H67	H	-0.552533	-0.999791	1.190967
