data_functionalizedCrystal
_audit_creation_method	'MofGen! by Chris Wilmer'
_symmetry_space_group_name_H-M	'P1'
_symmetry_Int_Tables_number	1
_symmetry_cell_setting	triclinic
loop_
_symmetry_equiv_pos_as_xyz
  x,y,z
_cell_length_a	10.654550
_cell_length_b	12.837942
_cell_length_c	9.130313
_cell_angle_alpha	89.998975
_cell_angle_beta	89.996220
_cell_angle_gamma	89.656921
loop_
_atom_site_label
_atom_site_type_symbol
_atom_site_fract_x
_atom_site_fract_y
_atom_site_fract_z
O1	O	1.683735	0.145718	-0.121920
O2	O	1.319772	0.159602	-0.121897
O3	O	1.493683	0.001699	-0.121899
O4	O	1.509824	0.303621	-0.121918
O5	O	1.493681	0.001703	0.121700
O6	O	1.319770	0.159606	0.121702
O7	O	1.683734	0.145722	0.121679
Cu8	Cu	1.501752	0.152665	0.143933
Cu9	Cu	1.501754	0.152660	-0.144151
O10	O	1.509822	0.303625	0.121681
C11	C	1.272862	0.158585	-0.000094
C12	C	1.133086	0.155535	-0.000085
C13	C	1.063745	0.248505	-0.000112
C14	C	0.932411	0.245633	-0.000138
C15	C	0.939770	0.056812	-0.000114
C16	C	1.071101	0.059685	-0.000079
C17	C	1.059496	0.357520	-0.000132
C18	C	0.928162	0.354648	-0.000157
C19	C	1.488230	-0.036959	-0.000100
C20	C	1.471967	-0.152153	-0.000101
C21	C	1.667472	-0.391705	-0.000145
C22	C	1.652197	-0.499941	-0.000146
C23	C	1.426146	-0.476862	-0.000116
C24	C	1.441420	-0.368626	-0.000115
C25	C	1.562087	-0.326052	-0.000127
C26	C	1.577360	-0.217814	-0.000115
C27	C	1.351309	-0.194737	-0.000096
C28	C	1.336035	-0.302973	-0.000097
C29	C	1.730644	0.146740	-0.000127
C30	C	1.870420	0.149790	-0.000146
C31	C	1.515276	0.342283	-0.000121
C32	C	1.531538	0.457477	-0.000130
N33	N	1.501759	0.152668	0.346555
N34	N	1.501755	0.152648	-0.346774
C35	C	1.578792	0.082772	0.423206
C36	C	1.578787	0.082760	0.576543
C37	C	1.424714	0.222547	0.576565
C38	C	1.424713	0.222554	0.423230
C39	C	1.667748	0.002070	0.423195
C40	C	1.667744	0.002058	0.576532
H41	H	0.890912	0.395721	-0.102113
H42	H	1.675613	-0.183153	-0.000119
H43	H	1.098940	0.392230	-0.105306
H44	H	1.766195	0.019834	0.618141
H45	H	1.361985	0.279446	0.639010
C46	C	1.798578	-0.345674	-0.000231
C47	C	1.887604	-0.426339	-0.000278
C48	C	2.008393	-0.383977	-0.000380
H49	H	1.809414	-0.303945	0.084691
H50	H	1.809295	-0.303961	-0.085216
H51	H	1.876891	-0.468035	0.084699
H52	H	1.876809	-0.468075	-0.085194
H53	H	2.019110	-0.342263	-0.085365
H54	H	2.019215	-0.342248	0.084544
H55	H	2.068811	-0.438701	-0.000425
H56	H	0.889286	-0.021226	-0.000132
H57	H	1.738013	-0.553393	-0.000165
H58	H	1.629007	-0.073301	0.624086
C59	C	1.792973	0.035621	0.359524
C60	C	1.842375	-0.044916	0.273226
C61	C	1.957709	-0.014022	0.214517
H62	H	1.849638	0.050815	0.436836
H63	H	1.781026	0.096012	0.300898
H64	H	1.854329	-0.105288	0.331848
H65	H	1.785746	-0.060120	0.195890
H66	H	1.945761	0.046369	0.155891
H67	H	2.014363	0.001172	0.291839
H68	H	1.991237	-0.068657	0.155947
H69	H	1.361976	0.279459	0.360823
H70	H	1.327904	-0.511545	-0.000122
C71	C	1.104576	0.414352	0.135926
C72	C	1.000853	0.446245	0.219118
C73	C	1.042333	0.498586	0.344470
H74	H	1.151794	0.473609	0.107809
H75	H	1.155842	0.368952	0.192662
H76	H	0.949608	0.491642	0.162392
H77	H	0.953624	0.387008	0.247272
H78	H	1.093599	0.453186	0.401206
H79	H	1.089551	0.557838	0.316339
H80	H	0.971965	0.520223	0.400938
H81	H	0.886085	0.387595	0.105009
C82	C	1.146319	-0.041290	-0.000334
C83	C	1.116648	-0.098949	-0.125673
C84	C	1.185924	-0.191970	-0.125964
H85	H	1.126340	-0.080664	0.084519
H86	H	1.233428	-0.025901	-0.000389
H87	H	1.029559	-0.114341	-0.125604
H88	H	1.136631	-0.059606	-0.210546
H89	H	1.273033	-0.176581	-0.126020
H90	H	1.165940	-0.231335	-0.041106
H91	H	1.165811	-0.231099	-0.211011
C92	C	1.627461	-0.104308	0.367981
C93	C	1.602818	-0.169386	0.487501
C94	C	1.565686	-0.267380	0.436694
H95	H	1.692670	-0.133921	0.310207
H96	H	1.553757	-0.097022	0.310230
H97	H	1.676513	-0.176675	0.545227
H98	H	1.537602	-0.139806	0.545286
H99	H	1.491982	-0.260094	0.378943
H100	H	1.630900	-0.296984	0.378920
H101	H	1.548951	-0.311545	0.517779
H102	H	1.237791	-0.337651	-0.000093
H103	H	1.265497	-0.141270	-0.000069
