data_functionalizedCrystal
_audit_creation_method	'MofGen! by Chris Wilmer'
_symmetry_space_group_name_H-M	'P1'
_symmetry_Int_Tables_number	1
_symmetry_cell_setting	triclinic
loop_
_symmetry_equiv_pos_as_xyz
  x,y,z
_cell_length_a	11.792241
_cell_length_b	11.026607
_cell_length_c	9.482900
_cell_angle_alpha	101.363848
_cell_angle_beta	99.398500
_cell_angle_gamma	83.610284
loop_
_atom_site_label
_atom_site_type_symbol
_atom_site_fract_x
_atom_site_fract_y
_atom_site_fract_z
O1	O	0.461983	-1.632118	-0.120906
O2	O	0.795317	-1.298785	0.212427
O3	O	1.128650	-0.965452	0.545760
O4	O	0.407791	-1.278456	-0.120907
O5	O	0.741125	-0.945122	0.212426
O6	O	1.074458	-0.611789	0.545760
O7	O	0.271422	-1.463868	-0.120897
O8	O	0.604756	-1.130535	0.212437
O9	O	0.938089	-0.797201	0.545770
O10	O	0.598353	-1.446706	-0.120917
O11	O	0.931686	-1.113373	0.212416
O12	O	1.265019	-0.780040	0.545750
O13	O	0.299264	-1.426207	0.120894
O14	O	0.632597	-1.092874	0.454227
O15	O	0.965931	-0.759541	0.787560
O16	O	0.435633	-1.240795	0.120883
O17	O	0.768967	-0.907462	0.454217
O18	O	1.102300	-0.574129	0.787550
O19	O	0.489825	-1.594458	0.120884
O20	O	0.823159	-1.261125	0.454217
O21	O	1.156492	-0.927791	0.787551
Cu22	Cu	0.465271	-1.414188	0.142961
Cu23	Cu	0.798605	-1.080855	0.476294
Cu24	Cu	1.131938	-0.747521	0.809628
Cu25	Cu	0.432345	-1.458726	-0.142984
Cu26	Cu	0.765679	-1.125392	0.190349
Cu27	Cu	1.099012	-0.792059	0.523683
O28	O	0.626195	-1.409046	0.120873
O29	O	0.959528	-1.075712	0.454207
O30	O	1.292861	-0.742379	0.787540
C31	C	0.411715	-1.214349	-0.000012
C32	C	0.745048	-0.881016	0.333321
C33	C	1.078382	-0.547682	0.666655
C34	C	0.381912	-1.079439	-0.000012
C35	C	0.715246	-0.746105	0.333321
C36	C	1.048579	-0.412772	0.666655
C37	C	0.242838	-1.443960	-0.000002
C38	C	0.576171	-1.110626	0.333331
C39	C	0.909505	-0.777293	0.666665
C40	C	0.116183	-1.440733	-0.000003
C41	C	0.449517	-1.107399	0.333330
C42	C	0.782850	-0.774066	0.666663
C43	C	0.485901	-1.658565	-0.000014
C44	C	0.819235	-1.325232	0.333319
C45	C	1.152568	-0.991899	0.666652
C46	C	0.515703	-1.793477	-0.000024
C47	C	0.849036	-1.460144	0.333309
C48	C	1.182370	-1.126810	0.666643
C49	C	-0.115710	-1.434802	-0.000028
C50	C	0.217623	-1.101469	0.333306
C51	C	0.550957	-0.768135	0.666639
C52	C	0.013331	-1.438097	-0.000014
C53	C	0.346665	-1.104764	0.333319
C54	C	0.679998	-0.771431	0.666652
C55	C	0.654778	-1.428955	-0.000025
C56	C	0.988112	-1.095621	0.333309
C57	C	1.321445	-0.762288	0.666642
C58	C	0.781432	-1.432183	-0.000033
C59	C	1.114765	-1.098850	0.333301
C60	C	1.448099	-0.765516	0.666634
N61	N	0.488431	-1.382871	0.344079
N62	N	0.821765	-1.049538	0.677413
N63	N	1.155098	-0.716205	1.010746
C64	C	0.464202	-1.006176	-0.000018
C65	C	0.797535	-0.672842	0.333315
C66	C	1.130868	-0.339509	0.666649
C67	C	0.433401	-0.866739	-0.000018
C68	C	0.766735	-0.533405	0.333315
C69	C	1.100068	-0.200072	0.666649
N70	N	0.409178	-1.490052	-0.344102
N71	N	0.742512	-1.156719	-0.010769
N72	N	1.075845	-0.823385	0.322564
C73	C	0.439169	-1.449480	0.416282
C74	C	0.772502	-1.116147	0.749616
C75	C	1.105835	-0.782814	1.082949
C76	C	0.458448	-1.423433	0.583698
C77	C	0.791782	-1.090100	0.917032
C78	C	1.125115	-0.756767	1.250365
H79	H	0.557456	-1.046680	-0.000015
H80	H	0.890789	-0.713347	0.333318
H81	H	1.224123	-0.380013	0.666651
O82	O	0.334397	-1.591140	0.573626
O83	O	0.667730	-1.257806	0.906959
O84	O	1.001063	-0.924473	1.240292
H85	H	0.245981	-1.570287	0.602764
H86	H	0.579314	-1.236954	0.936097
H87	H	0.912647	-0.903621	1.269430
O88	O	0.563232	-1.281811	0.426364
O89	O	0.896566	-0.948478	0.759697
O90	O	1.229899	-0.615145	1.093031
H91	H	0.596390	-1.236984	0.348007
H92	H	0.929723	-0.903651	0.681341
H93	H	1.263057	-0.570317	1.014674
H94	H	0.340138	-0.826244	-0.000049
H95	H	0.673471	-0.492911	0.333284
H96	H	1.006804	-0.159577	0.666617
H97	H	0.288655	-1.038939	-0.000043
H98	H	0.621988	-0.705605	0.333290
H99	H	0.955321	-0.372272	0.666623
O100	O	0.364380	-1.550560	0.334021
O101	O	0.697714	-1.217226	0.667354
O102	O	1.031047	-0.883893	1.000688
H103	H	0.275970	-1.529694	0.363175
H104	H	0.609303	-1.196360	0.696509
H105	H	0.942637	-0.863027	1.029842
O106	O	0.639243	-0.847097	-0.000024
O107	O	0.972577	-0.513763	0.333310
O108	O	1.305910	-0.180430	0.666643
H109	H	0.645408	-0.919547	-0.098578
H110	H	0.978741	-0.586214	0.234755
H111	H	1.312074	-0.252881	0.568089
O112	O	0.533234	-1.322347	0.665965
O113	O	0.866567	-0.989014	0.999299
O114	O	1.199901	-0.655680	1.332632
H115	H	0.536650	-1.317759	0.784550
H116	H	0.869984	-0.984425	1.117883
H117	H	1.203317	-0.651092	1.451217
