data_functionalizedCrystal
_audit_creation_method	'MofGen! by Chris Wilmer'
_symmetry_space_group_name_H-M	'P1'
_symmetry_Int_Tables_number	1
_symmetry_cell_setting	triclinic
loop_
_symmetry_equiv_pos_as_xyz
  x,y,z
_cell_length_a	11.169417
_cell_length_b	13.897447
_cell_length_c	13.897449
_cell_angle_alpha	90.007994
_cell_angle_beta	90.001373
_cell_angle_gamma	90.020779
loop_
_atom_site_label
_atom_site_type_symbol
_atom_site_fract_x
_atom_site_fract_y
_atom_site_fract_z
Zn1	Zn	1.834671	-0.384155	0.545325
Zn2	Zn	2.168004	-0.050822	0.878658
Zn3	Zn	2.501337	0.282512	1.211992
Zn4	Zn	1.834591	-0.545417	0.384030
Zn5	Zn	2.167925	-0.212083	0.717363
Zn6	Zn	2.501258	0.121250	1.050697
Zn7	Zn	1.634020	-0.384141	0.384050
Zn8	Zn	1.967354	-0.050808	0.717384
Zn9	Zn	2.300687	0.282526	1.050717
Zn10	Zn	1.633932	-0.545413	0.545290
Zn11	Zn	1.967265	-0.212080	0.878623
Zn12	Zn	2.300599	0.121253	1.211956
O13	O	1.734304	-0.464782	0.464674
O14	O	2.067637	-0.131448	0.798007
O15	O	2.400970	0.201885	1.131340
O16	O	2.002610	-0.405554	0.523935
O17	O	2.335943	-0.072221	0.857268
O18	O	2.669277	0.261112	1.190602
O19	O	1.807989	-0.524019	0.249051
O20	O	2.141322	-0.190685	0.582384
O21	O	2.474656	0.142648	0.915718
O22	O	1.660707	-0.249161	0.405467
O23	O	1.994040	0.084172	0.738801
O24	O	2.327374	0.417506	1.072134
O25	O	2.002552	-0.524032	0.405432
O26	O	2.335885	-0.190699	0.738766
O27	O	2.669218	0.142634	1.072099
O28	O	1.808124	-0.249172	0.523955
O29	O	2.141457	0.084162	0.857288
O30	O	2.474791	0.417495	1.190622
O31	O	1.660630	-0.405530	0.249066
O32	O	1.993963	-0.072197	0.582399
O33	O	2.327297	0.261137	0.915733
O34	O	1.466059	-0.405527	0.405433
O35	O	1.799392	-0.072193	0.738766
O36	O	2.132725	0.261140	1.072100
O37	O	1.660557	-0.524027	0.680276
O38	O	1.993890	-0.190693	1.013609
O39	O	2.327223	0.142640	1.346942
O40	O	1.465994	-0.524013	0.523895
O41	O	1.799327	-0.190679	0.857228
O42	O	2.132661	0.142654	1.190561
O43	O	1.808039	-0.405551	0.680302
O44	O	2.141372	-0.072218	1.013635
O45	O	2.474705	0.261116	1.346968
O46	O	1.807903	-0.680398	0.405398
O47	O	2.141237	-0.347065	0.738731
O48	O	2.474570	-0.013731	1.072065
O49	O	1.660480	-0.680395	0.523875
O50	O	1.993813	-0.347062	0.857208
O51	O	2.327146	-0.013729	1.190541
C52	C	1.422479	-0.464769	0.464663
C53	C	1.755812	-0.131435	0.797996
C54	C	2.089146	0.201898	1.131329
C55	C	1.289079	-0.464786	0.464681
C56	C	1.622412	-0.131453	0.798014
C57	C	1.955746	0.201880	1.131347
C58	C	1.734206	-0.715396	0.464651
C59	C	2.067539	-0.382063	0.797985
C60	C	2.400873	-0.048729	1.131318
C61	C	1.734274	-0.822610	0.464674
C62	C	2.067607	-0.489276	0.798007
C63	C	2.400941	-0.155943	1.131341
C64	C	1.734332	-0.909680	0.464696
C65	C	2.067665	-0.576346	0.798029
C66	C	2.400999	-0.243013	1.131363
C67	C	1.734416	-1.018912	0.464721
C68	C	2.067750	-0.685579	0.798054
C69	C	2.401083	-0.352245	1.131387
C70	C	2.047346	-0.464795	0.464685
C71	C	2.380679	-0.131462	0.798019
C72	C	2.714013	0.201871	1.131352
C73	C	2.180746	-0.464801	0.464690
C74	C	2.514079	-0.131468	0.798024
C75	C	2.847413	0.201866	1.131357
C76	C	1.734297	-0.464790	0.716267
C77	C	2.067630	-0.131457	1.049600
C78	C	2.400963	0.201877	1.382933
C79	C	1.734294	-0.464794	0.823481
C80	C	2.067627	-0.131460	1.156814
C81	C	2.400960	0.201873	1.490147
C82	C	1.734434	-0.213189	0.464717
C83	C	2.067768	0.120145	0.798051
C84	C	2.401101	0.453478	1.131384
C85	C	1.734490	-0.105975	0.464736
C86	C	2.067823	0.227359	0.798069
C87	C	2.401157	0.560692	1.131402
C88	C	1.734290	-0.464797	0.910550
C89	C	2.067624	-0.131464	1.243884
C90	C	2.400957	0.201869	1.577217
C91	C	1.734290	-0.464793	1.019783
C92	C	2.067623	-0.131459	1.353116
C93	C	2.400956	0.201874	1.686449
C94	C	1.734299	-0.464793	1.214059
C95	C	2.067633	-0.131459	1.547393
C96	C	2.400966	0.201874	1.880726
C97	C	1.734295	-0.464784	1.106845
C98	C	2.067629	-0.131450	1.440179
C99	C	2.400962	0.201883	1.773512
