data_functionalizedCrystal
_audit_creation_method	'MofGen! by Chris Wilmer'
_symmetry_space_group_name_H-M	'P1'
_symmetry_Int_Tables_number	1
_symmetry_cell_setting	triclinic
loop_
_symmetry_equiv_pos_as_xyz
  x,y,z
_cell_length_a	14.560438
_cell_length_b	23.196402
_cell_length_c	14.560438
_cell_angle_alpha	119.999848
_cell_angle_beta	90.000667
_cell_angle_gamma	60.000829
loop_
_atom_site_label
_atom_site_type_symbol
_atom_site_fract_x
_atom_site_fract_y
_atom_site_fract_z
Zr1	Zr	0.884788	0.631000	0.120480
O2	O	0.738146	0.751268	0.267122
O3	O	0.929738	0.510734	0.075532
O4	O	0.929743	0.631003	0.267129
O5	O	0.738140	0.630997	-0.075617
O6	O	1.080883	0.631003	0.267128
O7	O	0.738140	0.630999	0.075524
O8	O	1.080873	0.415864	-0.075604
O9	O	0.738150	0.846136	0.267115
O10	O	1.061706	0.560201	0.056354
O11	O	0.948913	0.560199	-0.056440
O12	O	0.948919	0.701800	0.169141
O13	O	0.836125	0.701797	0.056346
Zr14	Zr	1.125837	0.630996	-0.120575
Zr15	Zr	1.125838	0.631000	0.120478
Zr16	Zr	0.884787	0.630996	-0.120574
Zr17	Zr	0.884794	0.782303	0.120469
Zr18	Zr	1.125831	0.479693	-0.120565
O19	O	1.080887	0.751262	-0.075627
O20	O	1.080888	0.751268	0.267120
O21	O	0.738145	0.751262	-0.075626
O22	O	1.272479	0.510728	-0.267217
O23	O	1.272480	0.510734	0.075530
O24	O	0.929737	0.510728	-0.267216
O25	O	1.272485	0.631000	0.075522
O26	O	1.080882	0.630993	-0.267225
O27	O	0.929742	0.630993	-0.267224
O28	O	1.272485	0.630997	-0.075620
O29	O	0.929753	0.846136	0.267114
O30	O	1.080872	0.415861	-0.267210
O31	O	1.272475	0.415861	-0.267211
O32	O	1.272475	0.415864	-0.075605
O33	O	0.738150	0.846132	0.075510
O34	O	0.929752	0.846132	0.075509
O35	O	1.061706	0.560197	-0.169236
O36	O	1.174500	0.560199	-0.056442
O37	O	1.061713	0.701798	0.056345
O38	O	0.948919	0.701795	-0.056450
C39	C	1.005304	0.441742	-0.000035
C40	C	1.005301	0.377510	-0.000031
C41	C	0.703796	0.630998	-0.000046
C42	C	0.601464	0.630998	-0.000046
C43	C	1.064171	0.347341	0.058851
C44	C	1.064182	0.286980	0.058842
C45	C	1.005301	0.256802	-0.000034
C46	C	0.946429	0.286975	-0.058928
C47	C	0.946429	0.347329	-0.058927
C48	C	0.906681	0.194773	0.008370
C49	C	0.906677	0.134423	0.008376
C50	C	1.005303	0.070647	-0.000045
C51	C	1.103930	0.067235	-0.008450
C52	C	1.103931	0.127589	-0.008448
C53	C	1.005295	0.191357	-0.000042
C54	C	1.064189	-0.024973	0.058830
C55	C	1.064203	-0.085339	0.058813
C56	C	0.946440	-0.085337	-0.058950
C57	C	0.946437	-0.024978	-0.058941
C58	C	1.005309	0.005203	-0.000044
C59	C	0.516108	0.557084	-0.058925
C60	C	0.612260	0.557084	-0.058921
C61	C	0.494506	0.704918	0.058837
C62	C	0.398356	0.704917	0.058838
C63	C	0.526913	0.483165	-0.117813
C64	C	0.633865	0.409245	-0.176695
C65	C	0.730017	0.409244	-0.176690
C66	C	0.719218	0.483164	-0.117804
C67	C	1.306829	0.630998	-0.000049
C68	C	1.409161	0.630998	-0.000050
C69	C	1.005313	0.631004	0.301474
C70	C	1.005313	0.631006	0.403807
C71	C	1.005321	0.820254	-0.000061
C72	C	1.005324	0.884486	-0.000065
C73	C	0.946435	0.704918	0.510757
C74	C	0.946439	0.704915	0.606906
C75	C	1.064200	0.557081	0.489142
C76	C	1.064202	0.557085	0.392995
C77	C	0.887546	0.778839	0.521569
C78	C	0.828662	0.852757	0.628523
C79	C	0.828665	0.852754	0.724673
C80	C	0.887553	0.778832	0.713867
C81	C	1.005313	0.630994	0.698432
C82	C	1.005315	0.630998	0.596103
C83	C	1.306821	0.441742	-0.000036
C84	C	1.409150	0.377510	-0.000032
C85	C	1.005304	0.441736	-0.301556
C86	C	1.005301	0.377502	-0.403886
C87	C	1.306821	0.441736	-0.301558
C88	C	1.409150	0.377503	-0.403887
C89	C	0.703805	0.820260	0.301462
C90	C	0.601475	0.884494	0.403792
C91	C	0.703804	0.820254	-0.000059
C92	C	0.601475	0.884486	-0.000063
C93	C	1.005321	0.820260	0.301461
C94	C	1.005324	0.884494	0.403790
C95	C	1.398328	0.347347	0.058858
C96	C	1.494468	0.287003	0.058884
C97	C	1.601429	0.256819	0.000013
C98	C	1.612249	0.286987	-0.058879
C99	C	1.516110	0.347335	-0.058898
C100	C	1.064176	0.347337	-0.510829
C101	C	1.064169	0.286991	-0.606987
C102	C	1.005293	0.256808	-0.596200
C103	C	0.946410	0.286979	-0.489245
C104	C	0.946411	0.347328	-0.393089
C105	C	1.516092	0.347339	-0.393065
C106	C	1.612250	0.286993	-0.489205
C107	C	1.601464	0.256808	-0.596167
C108	C	1.494510	0.286977	-0.606988
C109	C	1.398354	0.347326	-0.510848
C110	C	0.494533	0.914665	0.392969
C111	C	0.398375	0.975029	0.489109
C112	C	0.409161	1.005218	0.596071
C113	C	0.516115	0.975044	0.606892
C114	C	0.612271	0.914685	0.510753
C115	C	0.612297	0.914655	-0.058944
C116	C	0.516157	0.975016	-0.058943
C117	C	0.409196	1.005203	-0.000068
C118	C	0.398376	0.975031	0.058819
C119	C	0.494515	0.914675	0.058825
C120	C	1.064213	0.914658	0.392966
C121	C	1.064237	0.975004	0.489106
C122	C	1.005367	1.005189	0.596069
C123	C	0.946477	0.975020	0.606890
C124	C	0.946459	0.914670	0.510751
H125	H	1.112122	0.262411	0.106792
H126	H	0.524884	0.999632	0.693992
N127	N	1.727619	0.254414	-0.122391
H128	H	1.719900	0.282673	-0.159710
H129	H	1.770081	0.264914	-0.068331
N130	N	0.482857	0.784640	0.122347
H131	H	0.559996	0.773424	0.113410
H132	H	0.440339	0.816918	0.091431
N133	N	0.822921	0.483168	-0.117793
H134	H	0.822961	0.512190	-0.038049
H135	H	0.892257	0.425106	-0.164073
N136	N	1.727602	0.254449	-0.477532
H137	H	1.736606	0.300497	-0.435044
H138	H	1.736527	0.229395	-0.435095
N139	N	1.527791	0.379862	-0.122424
H140	H	1.610141	0.351577	-0.159714
H141	H	1.490474	0.369349	-0.181625
H142	H	0.699345	0.890120	0.519578
H143	H	0.311274	0.765105	0.106782
H144	H	0.524989	0.999572	-0.106901
N145	N	0.887545	0.778841	0.417866
H146	H	0.841308	0.836883	0.440940
H147	H	0.967318	0.749789	0.371641
H148	H	1.005390	1.054330	0.674342
H149	H	1.112121	0.371905	-0.519634
H150	H	0.699381	0.890082	-0.106894
N151	N	0.882917	0.254417	-0.477619
H152	H	0.891864	0.211605	-0.554767
H153	H	0.913843	0.229414	-0.435111
N154	N	0.305508	1.070301	-0.000080
H155	H	0.328604	1.084826	-0.046320
H156	H	0.259270	1.049252	-0.033565
H157	H	0.898500	0.890117	0.519579
H158	H	0.780728	0.912941	0.811755
N159	N	1.282971	0.379894	0.122357
H160	H	1.290720	0.351625	0.159666
H161	H	1.240516	0.440480	0.181541
H162	H	0.780725	0.912941	0.637313
H163	H	0.485687	0.890113	0.106769
N164	N	1.127667	0.379892	0.122371
H165	H	1.164963	0.351617	0.159671
H166	H	1.186861	0.369390	0.068314
H167	H	1.112131	-0.000402	0.106783
N168	N	1.005315	0.191709	-0.699923
H169	H	1.038828	0.141625	-0.699973
H170	H	0.925556	0.212773	-0.699927
N171	N	1.127712	0.882109	0.277608
H172	H	1.165020	0.910379	0.285356
H173	H	1.186897	0.821524	0.235154
H174	H	0.887563	0.778836	0.792164
N175	N	1.127760	1.007535	0.477420
H176	H	1.165039	0.979257	0.395070
H177	H	1.073710	1.068120	0.514748
H178	H	0.311275	0.999618	0.106753
H179	H	0.898546	0.999606	0.693991
N180	N	1.127685	0.254453	-0.722335
H181	H	1.164991	0.282728	-0.714569
H182	H	1.186872	0.193868	-0.764795
H183	H	0.448628	0.483157	-0.117826
H184	H	1.112144	0.496899	0.305911
H185	H	1.184237	0.124807	-0.015295
N186	N	0.482883	0.882108	0.277611
H187	H	0.400538	0.910391	0.285360
H188	H	0.520219	0.892605	0.235146
N189	N	1.482784	0.254472	0.122407
H190	H	1.400435	0.282749	0.159686
H191	H	1.520112	0.193886	0.068357
H192	H	1.679703	0.207679	0.000036
N193	N	0.882919	0.379880	-0.277726
H194	H	0.823681	0.440464	-0.235219
H195	H	0.845680	0.351557	-0.285547
N196	N	1.527757	0.379878	-0.277713
H197	H	1.570228	0.404920	-0.268709
H198	H	1.450588	0.422654	-0.218503
N199	N	1.210315	-0.001544	-0.017530
H200	H	1.195355	-0.039264	-0.016262
H201	H	1.271023	-0.032888	-0.090319
H202	H	1.311281	0.371878	-0.519676
H203	H	0.826356	0.246709	0.015250
H204	H	1.112149	-0.109907	0.106757
H205	H	0.311298	0.999586	0.480277
N206	N	1.127711	0.477356	0.477487
H207	H	1.118773	0.488569	0.554625
H208	H	1.096797	0.445077	0.434963
H209	H	0.898498	-0.109907	-0.106889
H210	H	1.679769	0.207667	-0.674441
N211	N	1.482885	0.254416	-0.722356
H212	H	1.560033	0.211606	-0.781609
H213	H	1.440378	0.229412	-0.731268
N214	N	0.305445	1.070319	0.699760
H215	H	0.236065	1.084845	0.676663
H216	H	0.305490	1.049273	0.746000
H217	H	0.898494	-0.000411	-0.106884
H218	H	0.826368	0.137210	0.015226
H219	H	0.898489	0.262400	-0.106867
H220	H	0.898488	0.371894	-0.106876
H221	H	0.642649	0.349063	-0.224629
H222	H	0.817097	0.349055	-0.224627
