data_functionalizedCrystal
_audit_creation_method	'MofGen! by Chris Wilmer'
_symmetry_space_group_name_H-M	'P1'
_symmetry_Int_Tables_number	1
_symmetry_cell_setting	triclinic
loop_
_symmetry_equiv_pos_as_xyz
  x,y,z
_cell_length_a	19.288864
_cell_length_b	14.519709
_cell_length_c	17.766277
_cell_angle_alpha	89.992699
_cell_angle_beta	89.976791
_cell_angle_gamma	83.408195
loop_
_atom_site_label
_atom_site_type_symbol
_atom_site_fract_x
_atom_site_fract_y
_atom_site_fract_z
O1	O	0.921767	0.115045	-0.062837
O2	O	0.719562	0.130564	-0.062786
O3	O	0.826026	-0.011468	-0.062806
O4	O	0.815304	0.257077	-0.062817
O5	O	0.826007	-0.011475	0.062382
O6	O	0.719544	0.130557	0.062402
O7	O	0.921748	0.115038	0.062351
Cu8	Cu	0.820644	0.122797	0.073808
Cu9	Cu	0.820666	0.122805	-0.074242
O10	O	0.815285	0.257070	0.062371
C11	C	0.693675	0.130061	-0.000185
C12	C	0.616566	0.128562	-0.000165
C13	C	0.825517	-0.045828	-0.000212
C14	C	0.824019	-0.148200	-0.000211
C15	C	0.572169	0.211900	-0.000181
C16	C	0.499717	0.210492	-0.000189
C17	C	0.471665	0.125741	-0.000197
C18	C	0.516071	0.042392	-0.000178
C19	C	0.588521	0.043803	-0.000162
C20	C	0.363169	0.059120	-0.044079
C21	C	0.290720	0.057713	-0.044099
C22	C	0.248203	0.121387	-0.000242
C23	C	0.278144	0.186483	0.043625
C24	C	0.350594	0.187894	0.043641
C25	C	0.393105	0.124202	-0.000214
C26	C	0.125246	0.203203	-0.000265
C27	C	0.052792	0.201792	-0.000269
C28	C	0.069148	0.033689	-0.000265
C29	C	0.141599	0.035103	-0.000254
C30	C	0.169644	0.119863	-0.000258
C31	C	0.818507	-0.523061	-0.000229
C32	C	0.820037	-0.418762	-0.000224
C33	C	0.821263	-0.335633	-0.000219
C34	C	0.822794	-0.231329	-0.000215
C35	C	0.947636	0.115541	-0.000251
C36	C	1.024745	0.117040	-0.000276
C37	C	0.815794	0.291430	-0.000225
C38	C	0.817291	0.393802	-0.000230
N39	N	0.820634	0.122790	0.177938
N40	N	0.820682	0.122805	-0.178373
C41	C	0.867791	0.059929	0.217316
C42	C	0.867795	0.059925	0.296118
C43	C	0.820648	0.122798	0.335538
C44	C	0.773482	0.185664	0.296151
C45	C	0.773475	0.185660	0.217351
C46	C	0.811652	0.206826	0.460375
C47	C	0.811664	0.206831	0.539173
C48	C	0.820667	0.122809	0.578585
C49	C	0.829672	0.038778	0.539188
C50	C	0.829665	0.038775	0.460387
C51	C	0.820651	0.122808	0.420984
C52	C	0.867831	0.059938	0.703409
C53	C	0.867830	0.059932	0.782212
C54	C	0.773521	0.185679	0.782244
C55	C	0.773518	0.185676	0.703442
C56	C	0.820677	0.122807	0.664029
H57	H	0.594998	0.280918	-0.000185
Cl58	Cl	0.927115	-0.019105	0.831719
Cl59	Cl	0.253087	-0.024114	-0.099254
H60	H	0.735130	0.236867	0.814340
H61	H	0.836996	-0.029646	0.428314
Cl62	Cl	0.644337	-0.060974	-0.000143
H63	H	0.735121	0.236867	0.671378
H64	H	0.463563	0.278358	-0.000199
H65	H	0.837003	-0.029641	0.571275
Cl66	Cl	0.927072	-0.019110	0.167769
Cl67	Cl	0.800348	0.312467	0.588693
H68	H	0.016645	0.269658	-0.000277
Cl69	Cl	0.800398	0.312466	0.410837
H70	H	0.735073	0.236850	0.185288
H71	H	0.046308	-0.035317	-0.000319
Cl72	Cl	0.714209	0.264700	0.345707
Cl73	Cl	0.416612	-0.020936	-0.099218
H74	H	0.374969	0.240895	0.079362
Cl75	Cl	0.927113	-0.019103	0.653860
H76	H	0.243528	0.238332	0.079338
Cl77	Cl	0.160505	0.309756	-0.000263
H78	H	0.493226	-0.026613	-0.000195
H79	H	0.177748	-0.032760	-0.000246
H80	H	0.906198	0.008734	0.328185
