data_functionalizedCrystal
_audit_creation_method	'MofGen! by Chris Wilmer'
_symmetry_space_group_name_H-M	'P1'
_symmetry_Int_Tables_number	1
_symmetry_cell_setting	triclinic
loop_
_symmetry_equiv_pos_as_xyz
  x,y,z
_cell_length_a	12.594517
_cell_length_b	25.639239
_cell_length_c	12.594509
_cell_angle_alpha	89.965872
_cell_angle_beta	89.978673
_cell_angle_gamma	90.038486
loop_
_atom_site_label
_atom_site_type_symbol
_atom_site_fract_x
_atom_site_fract_y
_atom_site_fract_z
Zn1	Zn	1.627100	-0.208138	-0.601816
Zn2	Zn	1.626920	-0.295580	-0.423819
Zn3	Zn	1.449103	-0.208160	-0.423845
Zn4	Zn	1.449015	-0.295544	-0.601750
O5	O	1.538035	-0.251855	-0.512808
O6	O	1.776022	-0.219743	-0.578222
O7	O	1.603294	-0.284008	-0.274877
O8	O	1.472827	-0.134992	-0.447492
O9	O	1.775890	-0.283987	-0.447448
O10	O	1.603600	-0.134976	-0.578247
O11	O	1.472653	-0.219781	-0.274896
O12	O	1.300146	-0.219746	-0.447427
O13	O	1.472677	-0.283925	-0.750704
O14	O	1.300081	-0.283946	-0.578133
O15	O	1.603515	-0.219708	-0.750753
O16	O	1.603209	-0.368740	-0.447384
O17	O	1.472503	-0.368714	-0.578108
C18	C	1.261494	-0.251845	-0.512776
C19	C	1.143188	-0.251853	-0.512788
C20	C	1.073939	-0.216887	-0.441833
C21	C	1.003090	-0.264579	-0.415643
C22	C	1.003239	-0.204184	-0.538996
C23	C	1.073897	-0.299570	-0.486547
C24	C	1.074052	-0.239144	-0.609946
C25	C	1.003234	-0.286869	-0.583793
C26	C	1.537856	-0.387698	-0.512759
C27	C	1.537876	-0.445812	-0.512774
C28	C	1.606271	-0.806176	-0.444855
C29	C	1.606312	-0.860781	-0.444870
O30	O	1.664278	-0.889019	-0.387070
N31	N	1.538222	-0.888094	-0.512878
C32	C	1.470093	-0.860801	-0.580885
O33	O	1.412182	-0.889048	-0.638733
C34	C	1.470058	-0.806198	-0.580875
C35	C	1.538145	-0.778887	-0.512854
C36	C	1.674353	-0.778865	-0.376841
C37	C	1.674310	-0.724265	-0.376826
C38	C	1.606185	-0.696975	-0.444825
C39	C	1.538102	-0.724286	-0.512839
C40	C	1.401936	-0.778905	-0.648886
C41	C	1.401907	-0.724298	-0.648871
C42	C	1.469994	-0.696987	-0.580850
C43	C	1.469934	-0.642396	-0.580822
N44	N	1.538024	-0.615083	-0.512814
C45	C	1.606150	-0.642372	-0.444815
C46	C	1.470174	-0.975472	-0.580901
C47	C	1.470202	-1.030074	-0.580906
C48	C	1.606423	-1.030050	-0.444892
C49	C	1.606388	-0.975447	-0.444883
C50	C	1.538264	-0.948158	-0.512892
C51	C	1.606054	-0.527707	-0.444787
C52	C	1.606002	-0.473102	-0.444775
C53	C	1.469786	-0.473131	-0.580792
C54	C	1.469833	-0.527731	-0.580801
C55	C	1.537976	-0.555018	-0.512795
O56	O	1.412001	-0.614124	-0.638596
O57	O	1.664062	-0.614119	-0.386986
C58	C	1.815655	-0.251866	-0.512840
C59	C	1.933961	-0.251871	-0.512853
C60	C	1.538106	-0.251810	-0.790429
C61	C	1.538136	-0.251790	-0.908734
C62	C	1.538243	-0.115482	-0.512880
C63	C	1.538332	-0.057368	-0.512911
C64	C	1.466996	-0.286698	-0.977961
C65	C	1.564106	-0.299473	-1.048748
C66	C	1.441102	-0.238984	-1.048746
C67	C	1.635297	-0.264590	-0.977964
C68	C	1.512227	-0.204079	-0.977955
C69	C	1.609405	-0.216836	-1.048711
C70	C	1.538025	-0.251863	-0.236267
C71	C	1.538201	-0.251736	-0.117962
H72	H	1.661544	-0.549918	-0.389413
O73	O	1.733264	-0.277617	-0.941165
C74	C	1.760598	-0.327747	-0.978092
H75	H	1.713136	-0.336954	-1.052830
H76	H	1.849062	-0.328956	-0.997125
H77	H	1.741703	-0.357865	-0.914183
H78	H	1.104806	-0.339902	-0.464317
H79	H	1.669663	-0.187292	-1.079579
H80	H	0.971923	-0.275340	-0.333507
H81	H	1.661831	-0.953213	-0.389495
H82	H	1.586055	-0.339798	-1.079845
O83	O	1.335632	-0.697872	-0.714975
C84	C	1.275574	-0.733691	-0.775028
H85	H	1.271938	-0.772630	-0.731433
H86	H	1.191695	-0.717955	-0.786315
H87	H	1.314522	-0.739452	-0.855897
H88	H	1.490250	-0.163765	-0.946835
H89	H	1.359014	-0.228175	-1.079838
O90	O	1.403806	-0.554242	-0.647021
C91	C	1.426983	-0.540835	-0.753117
H92	H	1.511996	-0.525774	-0.758560
H93	H	1.417822	-0.576728	-0.805709
H94	H	1.369873	-0.509161	-0.780876
H95	H	1.414316	-0.450903	-0.636153
O96	O	1.403930	-0.948908	-0.646812
C97	C	1.335174	-0.917389	-0.586145
H98	H	1.372755	-0.909211	-0.505521
H99	H	1.320848	-0.878987	-0.629487
H100	H	1.256323	-0.938480	-0.574373
O101	O	0.966470	-0.322263	-0.655290
C102	C	1.002689	-0.372444	-0.627313
H103	H	1.022390	-0.373383	-0.538996
H104	H	0.938081	-0.402349	-0.645086
H105	H	1.076880	-0.382177	-0.675233
O106	O	1.740510	-0.697680	-0.310907
C107	C	1.809221	-0.666052	-0.371564
H108	H	1.771627	-0.657858	-0.452186
H109	H	1.823495	-0.627665	-0.328210
H110	H	1.888100	-0.687057	-0.383346
H111	H	1.729835	-0.801079	-0.321468
H112	H	1.105245	-0.228368	-0.692058
H113	H	1.661898	-1.052279	-0.389527
O114	O	1.404020	-1.056520	-0.647073
C115	C	1.343867	-1.020718	-0.707061
H116	H	1.387438	-0.981772	-0.710769
H117	H	1.332475	-1.036466	-0.790919
H118	H	1.263048	-1.014964	-0.668005
O119	O	1.395400	-0.322038	-0.940942
C120	C	1.423141	-0.372259	-0.977040
H121	H	1.511433	-0.373244	-0.996899
H122	H	1.405320	-0.402102	-0.912298
H123	H	1.375103	-0.382041	-1.051110
H124	H	1.104984	-0.187346	-0.381755
H125	H	1.346487	-0.801133	-0.704271
H126	H	0.972144	-0.163870	-0.561099
H127	H	1.661446	-0.450867	-0.389381
