data_functionalizedCrystal
_audit_creation_method	'MofGen! by Chris Wilmer'
_symmetry_space_group_name_H-M	'P1'
_symmetry_Int_Tables_number	1
_symmetry_cell_setting	triclinic
loop_
_symmetry_equiv_pos_as_xyz
  x,y,z
_cell_length_a	25.639242
_cell_length_b	25.639239
_cell_length_c	25.639233
_cell_angle_alpha	89.981253
_cell_angle_beta	89.977834
_cell_angle_gamma	90.034213
loop_
_atom_site_label
_atom_site_type_symbol
_atom_site_fract_x
_atom_site_fract_y
_atom_site_fract_z
Zn1	Zn	0.799225	-0.208277	-0.295742
Zn2	Zn	1.132558	0.125057	0.037591
Zn3	Zn	1.465892	0.458390	0.370924
Zn4	Zn	0.799149	-0.295696	-0.208307
Zn5	Zn	1.132482	0.037638	0.125027
Zn6	Zn	1.465815	0.370971	0.458360
Zn7	Zn	0.711801	-0.208269	-0.208306
Zn8	Zn	1.045135	0.125064	0.125027
Zn9	Zn	1.378468	0.458398	0.458360
Zn10	Zn	0.711746	-0.295676	-0.295696
Zn11	Zn	1.045080	0.037657	0.037637
Zn12	Zn	1.378413	0.370990	0.370970
O13	O	0.755480	-0.251979	-0.252013
O14	O	1.088814	0.081354	0.081320
O15	O	1.422147	0.414687	0.414654
O16	O	0.872380	-0.219884	-0.284163
O17	O	1.205713	0.113449	0.049170
O18	O	1.539047	0.446782	0.382504
O19	O	0.787553	-0.284103	-0.135141
O20	O	1.120886	0.049230	0.198192
O21	O	1.454219	0.382563	0.531525
O22	O	0.723453	-0.135105	-0.219924
O23	O	1.056787	0.198228	0.113409
O24	O	1.390120	0.531562	0.446743
O25	O	0.872324	-0.284111	-0.219924
O26	O	1.205657	0.049223	0.113409
O27	O	1.538991	0.382556	0.446742
O28	O	0.787683	-0.135111	-0.284163
O29	O	1.121016	0.198223	0.049171
O30	O	1.454350	0.531556	0.382504
O31	O	0.723379	-0.219871	-0.135141
O32	O	1.056712	0.113462	0.198192
O33	O	1.390046	0.446795	0.531526
O34	O	0.638629	-0.219853	-0.219880
O35	O	0.971962	0.113481	0.113454
O36	O	1.305296	0.446814	0.446787
O37	O	0.723360	-0.284078	-0.368868
O38	O	1.056693	0.049256	-0.035534
O39	O	1.390026	0.382589	0.297799
O40	O	0.638589	-0.284070	-0.284085
O41	O	0.971922	0.049263	0.049249
O42	O	1.305255	0.382597	0.382582
O43	O	0.787630	-0.219866	-0.368901
O44	O	1.120963	0.113468	-0.035568
O45	O	1.454297	0.446801	0.297765
O46	O	0.787499	-0.368858	-0.219880
O47	O	1.120833	-0.035525	0.113453
O48	O	1.454166	0.297808	0.446787
O49	O	0.723286	-0.368844	-0.284085
O50	O	1.056619	-0.035511	0.049248
O51	O	1.389952	0.297823	0.382582
C52	C	0.619638	-0.251959	-0.251977
C53	C	0.952971	0.081375	0.081356
C54	C	1.286304	0.414708	0.414689
C55	C	0.561524	-0.251963	-0.251975
C56	C	0.894857	0.081371	0.081359
C57	C	1.228190	0.414704	0.414692
C58	C	0.201149	-0.285473	-0.285413
C59	C	0.534482	0.047860	0.047920
C60	C	0.867815	0.381193	0.381254
C61	C	0.146544	-0.285477	-0.285421
C62	C	0.479878	0.047857	0.047912
C63	C	0.813211	0.381190	0.381246
O64	O	0.118297	-0.313943	-0.313821
O65	O	0.451631	0.019390	0.019512
O66	O	0.784964	0.352724	0.352845
N67	N	0.119241	-0.251994	-0.252047
N68	N	0.452575	0.081340	0.081286
N69	N	0.785908	0.414673	0.414620
C70	C	0.146545	-0.218502	-0.218666
C71	C	0.479879	0.114831	0.114667
C72	C	0.813212	0.448165	0.448000
O73	O	0.118308	-0.190022	-0.190280
O74	O	0.451641	0.143311	0.143053
O75	O	0.784975	0.476644	0.476387
C76	C	0.201149	-0.218496	-0.218661
C77	C	0.534482	0.114837	0.114672
C78	C	0.867815	0.448170	0.448006
C79	C	0.228449	-0.251985	-0.252034
C80	C	0.561782	0.081348	0.081300
C81	C	0.895116	0.414681	0.414633
C82	C	0.228449	-0.318959	-0.318783
C83	C	0.561782	0.014374	0.014550
C84	C	0.895115	0.347708	0.347884
C85	C	0.283049	-0.318956	-0.318774
C86	C	0.616383	0.014377	0.014559
C87	C	0.949716	0.347710	0.347893
C88	C	0.310350	-0.285468	-0.285395
C89	C	0.643683	0.047865	0.047939
C90	C	0.977016	0.381199	0.381272
C91	C	0.283049	-0.251983	-0.252024
C92	C	0.616383	0.081351	0.081309
C93	C	0.949716	0.414684	0.414642
C94	C	0.228452	-0.185002	-0.185283
C95	C	0.561785	0.148331	0.148050
C96	C	0.895119	0.481664	0.481383
C97	C	0.283059	-0.185000	-0.185281
C98	C	0.616392	0.148334	0.148052
C99	C	0.949726	0.481667	0.481385
C100	C	0.310359	-0.218488	-0.218654
C101	C	0.643692	0.114845	0.114680
C102	C	0.977026	0.448178	0.448013
C103	C	0.364950	-0.218492	-0.218636
C104	C	0.698284	0.114842	0.114697
C105	C	1.031617	0.448175	0.448031
N106	N	0.392253	-0.251974	-0.252010
N107	N	0.725587	0.081359	0.081323
N108	N	1.058920	0.414692	0.414656
C109	C	0.364953	-0.285463	-0.285389
C110	C	0.698286	0.047871	0.047944
C111	C	1.031620	0.381204	0.381277
C112	C	0.031875	-0.218515	-0.218680
C113	C	0.365208	0.114818	0.114653
C114	C	0.698541	0.448151	0.447986
C115	C	-0.022728	-0.218523	-0.218683
C116	C	0.310606	0.114810	0.114651
C117	C	0.643939	0.448144	0.447984
C118	C	-0.022725	-0.285497	-0.285438
C119	C	0.310608	0.047836	0.047895
C120	C	0.643942	0.381170	0.381228
C121	C	0.031878	-0.285492	-0.285433
C122	C	0.365212	0.047842	0.047900
C123	C	0.698545	0.381175	0.381234
C124	C	0.059178	-0.251998	-0.252054
C125	C	0.392511	0.081335	0.081279
C126	C	0.725844	0.414669	0.414612
C127	C	0.479618	-0.285455	-0.285368
C128	C	0.812951	0.047878	0.047966
C129	C	1.146285	0.381212	0.381299
C130	C	0.534223	-0.285451	-0.285354
C131	C	0.867557	0.047883	0.047979
C132	C	1.200890	0.381216	0.381313
C133	C	0.534216	-0.218475	-0.218601
C134	C	0.867549	0.114858	0.114733
C135	C	1.200883	0.448192	0.448066
C136	C	0.479615	-0.218481	-0.218612
C137	C	0.812949	0.114853	0.114721
C138	C	1.146282	0.448186	0.448055
C139	C	0.452318	-0.251972	-0.252000
C140	C	0.785651	0.081361	0.081334
C141	C	1.118984	0.414694	0.414667
O142	O	0.393232	-0.190038	-0.190252
O143	O	0.726565	0.143295	0.143082
O144	O	1.059899	0.476628	0.476415
O145	O	0.393197	-0.313933	-0.313776
O146	O	0.726530	0.019401	0.019558
O147	O	1.059864	0.352734	0.352891
C148	C	0.755392	-0.387822	-0.251989
C149	C	1.088726	-0.054489	0.081344
C150	C	1.422059	0.278845	0.414678
C151	C	0.755403	-0.445936	-0.251996
C152	C	1.088736	-0.112603	0.081337
C153	C	1.422069	0.220731	0.414670
C154	C	0.789004	-0.806294	-0.218638
C155	C	1.122337	-0.472961	0.114695
C156	C	1.455670	-0.139627	0.448028
C157	C	0.789024	-0.860898	-0.218645
C158	C	1.122357	-0.527565	0.114688
C159	C	1.455691	-0.194232	0.448021
O160	O	0.817502	-0.889131	-0.190257
O161	O	1.150835	-0.555797	0.143076
O162	O	1.484168	-0.222464	0.476410
N163	N	0.755572	-0.888218	-0.252048
N164	N	1.088906	-0.554885	0.081286
N165	N	1.422239	-0.221552	0.414619
C166	C	0.722102	-0.860932	-0.285449
C167	C	1.055435	-0.527598	0.047885
C168	C	1.388768	-0.194265	0.381218
O169	O	0.693651	-0.889184	-0.313861
O170	O	1.026984	-0.555850	0.019472
O171	O	1.360317	-0.222517	0.352806
C172	C	0.722085	-0.806328	-0.285444
C173	C	1.055418	-0.472995	0.047889
C174	C	1.388751	-0.139662	0.381223
C175	C	0.755535	-0.779011	-0.252036
C176	C	1.088868	-0.445678	0.081298
C177	C	1.422201	-0.112344	0.414631
C178	C	0.822452	-0.778976	-0.185233
C179	C	1.155785	-0.445643	0.148100
C180	C	1.489118	-0.112310	0.481433
C181	C	0.822431	-0.724376	-0.185226
C182	C	1.155764	-0.391043	0.148108
C183	C	1.489097	-0.057709	0.481441
C184	C	0.788962	-0.697093	-0.218623
C185	C	1.122295	-0.363760	0.114710
C186	C	1.455628	-0.030426	0.448043
C187	C	0.755514	-0.724410	-0.252028
C188	C	1.088847	-0.391077	0.081305
C189	C	1.422180	-0.057744	0.414638
C190	C	0.688617	-0.779042	-0.318847
C191	C	1.021950	-0.445709	0.014486
C192	C	1.355284	-0.112376	0.347819
C193	C	0.688603	-0.724435	-0.318840
C194	C	1.021936	-0.391102	0.014493
C195	C	1.355270	-0.057769	0.347827
C196	C	0.722053	-0.697118	-0.285432
C197	C	1.055387	-0.363785	0.047901
C198	C	1.388720	-0.030451	0.381235
C199	C	0.722024	-0.642527	-0.285418
C200	C	1.055357	-0.309193	0.047915
C201	C	1.388690	0.024140	0.381249
N202	N	0.755475	-0.615206	-0.252016
N203	N	1.088809	-0.281873	0.081317
N204	N	1.422142	0.051460	0.414651
C205	C	0.788944	-0.642490	-0.218618
C206	C	1.122278	-0.309156	0.114715
C207	C	1.455611	0.024177	0.448048
C208	C	0.722141	-0.975602	-0.285457
C209	C	1.055474	-0.642269	0.047877
C210	C	1.388808	-0.308936	0.381210
C211	C	0.722155	-1.030204	-0.285459
C212	C	1.055489	-0.696871	0.047874
C213	C	1.388822	-0.363538	0.381207
C214	C	0.789078	-1.030167	-0.218656
C215	C	1.122412	-0.696834	0.114677
C216	C	1.455745	-0.363501	0.448010
C217	C	0.789061	-0.975564	-0.218652
C218	C	1.122395	-0.642231	0.114682
C219	C	1.455728	-0.308897	0.448015
C220	C	0.755593	-0.948282	-0.252055
C221	C	1.088926	-0.614949	0.081279
C222	C	1.422260	-0.281615	0.414612
C223	C	0.788897	-0.527824	-0.218605
C224	C	1.122231	-0.194491	0.114728
C225	C	1.455564	0.138842	0.448062
C226	C	0.788872	-0.473219	-0.218599
C227	C	1.122205	-0.139886	0.114735
C228	C	1.455538	0.193448	0.448068
C229	C	0.721951	-0.473261	-0.285403
C230	C	1.055284	-0.139928	0.047930
C231	C	1.388617	0.193406	0.381263
C232	C	0.721974	-0.527862	-0.285408
C233	C	1.055307	-0.194528	0.047926
C234	C	1.388641	0.138805	0.381259
C235	C	0.755452	-0.555142	-0.252007
C236	C	1.088785	-0.221809	0.081327
C237	C	1.422118	0.111525	0.414660
O238	O	0.693562	-0.614260	-0.313793
O239	O	1.026895	-0.280926	0.019540
O240	O	1.360229	0.052407	0.352873
O241	O	0.817396	-0.614231	-0.190216
O242	O	1.150729	-0.280898	0.143117
O243	O	1.484062	0.052436	0.476451
C244	C	0.891853	-0.252000	-0.252049
C245	C	1.225187	0.081333	0.081285
C246	C	1.558520	0.414666	0.414618
C247	C	0.949967	-0.252009	-0.252064
C248	C	1.283301	0.081324	0.081269
C249	C	1.616634	0.414657	0.414603
C250	C	0.755497	-0.251970	-0.388386
C251	C	1.088831	0.081363	-0.055053
C252	C	1.422164	0.414696	0.278281
C253	C	0.755504	-0.251966	-0.446500
C254	C	1.088838	0.081367	-0.113167
C255	C	1.422171	0.414700	0.220167
C256	C	0.755583	-0.115606	-0.252048
C257	C	1.088916	0.217727	0.081285
C258	C	1.422250	0.551060	0.414618
C259	C	0.755627	-0.057492	-0.252064
C260	C	1.088960	0.275841	0.081270
C261	C	1.422293	0.609174	0.414603
C262	C	0.789012	-0.218432	-0.806886
C263	C	1.122346	0.114902	-0.473553
C264	C	1.455679	0.448235	-0.140220
C265	C	0.789019	-0.218417	-0.861491
C266	C	1.122352	0.114916	-0.528157
C267	C	1.455685	0.448249	-0.194824
O268	O	0.817466	-0.189967	-0.889747
O269	O	1.150799	0.143367	-0.556414
O270	O	1.484133	0.476700	-0.223080
N271	N	0.755562	-0.251844	-0.888783
N272	N	1.088895	0.081490	-0.555449
N273	N	1.422229	0.414823	-0.222116
C274	C	0.722093	-0.285283	-0.861468
C275	C	1.055426	0.048050	-0.528134
C276	C	1.388760	0.381384	-0.194801
O277	O	0.693636	-0.313713	-0.889695
O278	O	1.026969	0.019620	-0.556362
O279	O	1.360302	0.352954	-0.223029
C280	C	0.722084	-0.285294	-0.806864
C281	C	1.055418	0.048039	-0.473531
C282	C	1.388751	0.381372	-0.140198
C283	C	0.755547	-0.251870	-0.779575
C284	C	1.088880	0.081464	-0.446242
C285	C	1.422214	0.414797	-0.112908
C286	C	0.822472	-0.185009	-0.779597
C287	C	1.155805	0.148324	-0.446264
C288	C	1.489138	0.481657	-0.112930
C289	C	0.822466	-0.185025	-0.724997
C290	C	1.155799	0.148309	-0.391663
C291	C	1.489133	0.481642	-0.058330
C292	C	0.789000	-0.218462	-0.697685
C293	C	1.122334	0.114871	-0.364352
C294	C	1.455667	0.448204	-0.031019
C295	C	0.755541	-0.251885	-0.724974
C296	C	1.088874	0.081448	-0.391641
C297	C	1.422208	0.414782	-0.058308
C298	C	0.688613	-0.318731	-0.779550
C299	C	1.021946	0.014603	-0.446217
C300	C	1.355280	0.347936	-0.112883
C301	C	0.688607	-0.318739	-0.724943
C302	C	1.021940	0.014594	-0.391610
C303	C	1.355273	0.347928	-0.058276
C304	C	0.722069	-0.285314	-0.697654
C305	C	1.055403	0.048019	-0.364320
C306	C	1.388736	0.381352	-0.030987
C307	C	0.722070	-0.285338	-0.643063
C308	C	1.055403	0.047995	-0.309729
C309	C	1.388736	0.381329	0.023604
N310	N	0.755526	-0.251912	-0.615771
N311	N	1.088860	0.081422	-0.282437
N312	N	1.422193	0.414755	0.050896
C313	C	0.788992	-0.218474	-0.643082
C314	C	1.122325	0.114860	-0.309749
C315	C	1.455658	0.448193	0.023585
C316	C	0.722113	-0.285256	-0.976138
C317	C	1.055446	0.048077	-0.642805
C318	C	1.388780	0.381411	-0.309472
C319	C	0.722124	-0.285247	-1.030741
C320	C	1.055457	0.048086	-0.697407
C321	C	1.388791	0.381419	-0.364074
C322	C	0.789049	-0.218381	-1.030760
C323	C	1.122383	0.114952	-0.697427
C324	C	1.455716	0.448286	-0.364093
C325	C	0.789041	-0.218392	-0.976157
C326	C	1.122374	0.114941	-0.642823
C327	C	1.455707	0.448274	-0.309490
C328	C	0.755570	-0.251829	-0.948846
C329	C	1.088903	0.081504	-0.615513
C330	C	1.422237	0.414837	-0.282180
C331	C	0.788977	-0.218509	-0.528417
C332	C	1.122311	0.114825	-0.195083
C333	C	1.455644	0.448158	0.138250
C334	C	0.788970	-0.218529	-0.473811
C335	C	1.122303	0.114805	-0.140478
C336	C	1.455636	0.448138	0.192855
C337	C	0.722043	-0.285393	-0.473797
C338	C	1.055376	0.047940	-0.140463
C339	C	1.388710	0.381274	0.192870
C340	C	0.722052	-0.285375	-0.528397
C341	C	1.055385	0.047958	-0.195064
C342	C	1.388719	0.381291	0.138269
C343	C	0.755521	-0.251929	-0.555706
C344	C	1.088854	0.081404	-0.222373
C345	C	1.422187	0.414738	0.110961
O346	O	0.693635	-0.313773	-0.614771
O347	O	1.026969	0.019561	-0.281438
O348	O	1.360302	0.352894	0.051895
O349	O	0.817439	-0.190044	-0.614847
O350	O	1.150773	0.143290	-0.281514
O351	O	1.484106	0.476623	0.051819
C352	C	0.755494	-0.251951	-0.116170
C353	C	1.088827	0.081383	0.217163
C354	C	1.422160	0.414716	0.550496
C355	C	0.755588	-0.251807	-0.058057
C356	C	1.088921	0.081526	0.275277
C357	C	1.422254	0.414859	0.608610
H358	H	0.206233	-0.157734	-0.158106
H359	H	0.539567	0.175600	0.175227
H360	H	0.872900	0.508933	0.508560
H361	H	-0.044963	-0.312763	-0.312619
H362	H	0.288371	0.020570	0.020714
H363	H	0.621704	0.353903	0.354047
C364	C	0.858869	-0.148684	-0.809149
C365	C	1.192202	0.184650	-0.475816
C366	C	1.525535	0.517983	-0.142483
C367	C	0.888173	-0.119430	-0.773553
C368	C	1.221507	0.213903	-0.440220
C369	C	1.554840	0.547236	-0.106886
C370	C	0.921718	-0.085968	-0.800753
C371	C	1.255051	0.247366	-0.467419
C372	C	1.588385	0.580699	-0.134086
H373	H	0.838954	-0.125844	-0.830452
H374	H	1.172287	0.207489	-0.497118
H375	H	1.505621	0.540822	-0.163785
H376	H	0.881668	-0.168672	-0.830439
H377	H	1.215002	0.164662	-0.497106
H378	H	1.548335	0.497995	-0.163773
H379	H	0.865377	-0.099444	-0.752272
H380	H	1.198710	0.233890	-0.418938
H381	H	1.532043	0.567223	-0.085605
H382	H	0.908099	-0.142256	-0.752249
H383	H	1.241432	0.191077	-0.418916
H384	H	1.574765	0.524411	-0.085583
H385	H	0.944518	-0.105956	-0.822043
H386	H	1.277851	0.227377	-0.488709
H387	H	1.611184	0.560711	-0.155376
H388	H	0.901799	-0.063132	-0.822054
H389	H	1.235132	0.270202	-0.488721
H390	H	1.568466	0.603535	-0.155387
H391	H	0.941609	-0.066119	-0.776605
H392	H	1.274942	0.267215	-0.443271
H393	H	1.608275	0.600548	-0.109938
C394	C	0.061539	-0.182090	-0.182518
C395	C	0.394872	0.151243	0.150815
C396	C	0.728206	0.484577	0.484149
C397	C	0.092909	-0.148605	-0.212173
C398	C	0.426243	0.184728	0.121161
C399	C	0.759576	0.518062	0.454494
C400	C	0.120235	-0.115039	-0.178879
C401	C	0.453568	0.218294	0.154454
C402	C	0.786901	0.551628	0.487788
H403	H	0.082860	-0.201994	-0.159687
H404	H	0.416193	0.131340	0.173646
H405	H	0.749527	0.464673	0.506979
H406	H	0.037471	-0.162122	-0.162653
H407	H	0.370804	0.171211	0.170680
H408	H	0.704137	0.504544	0.504013
H409	H	0.116975	-0.168570	-0.232029
H410	H	0.450308	0.164763	0.101305
H411	H	0.783642	0.498096	0.434638
H412	H	0.071601	-0.128690	-0.235002
H413	H	0.404935	0.204644	0.098331
H414	H	0.738268	0.537977	0.431664
H415	H	0.096166	-0.095071	-0.159014
H416	H	0.429500	0.238262	0.174319
H417	H	0.762833	0.571595	0.507652
H418	H	0.141553	-0.134947	-0.156050
H419	H	0.474886	0.198386	0.177284
H420	H	0.808219	0.531720	0.510617
H421	H	0.141519	-0.092312	-0.198995
H422	H	0.474852	0.241021	0.134338
H423	H	0.808185	0.574354	0.467672
C424	C	0.563769	-0.321830	-0.321648
C425	C	0.897102	0.011503	0.011685
C426	C	1.230435	0.344836	0.345019
C427	C	0.528169	-0.351146	-0.350892
C428	C	0.861502	-0.017813	-0.017558
C429	C	1.194835	0.315521	0.315775
C430	C	0.555364	-0.384657	-0.384335
C431	C	0.888697	-0.051323	-0.051002
C432	C	1.222031	0.282010	0.282331
H433	H	0.585048	-0.344628	-0.301663
H434	H	0.918381	-0.011295	0.031670
H435	H	1.251715	0.322038	0.365004
H436	H	0.585081	-0.301874	-0.344490
H437	H	0.918414	0.031459	-0.011157
H438	H	1.251748	0.364792	0.322176
H439	H	0.506865	-0.371100	-0.328052
H440	H	0.840198	-0.037767	0.005281
H441	H	1.173532	0.295566	0.338615
H442	H	0.506888	-0.328362	-0.370887
H443	H	0.840221	0.004972	-0.037554
H444	H	1.173555	0.338305	0.295779
H445	H	0.576677	-0.364701	-0.407178
H446	H	0.910010	-0.031367	-0.073845
H447	H	1.243343	0.301966	0.259489
H448	H	0.576643	-0.407451	-0.364346
H449	H	0.909976	-0.074118	-0.031013
H450	H	1.243309	0.259215	0.302320
H451	H	0.531214	-0.404548	-0.404185
H452	H	0.864547	-0.071215	-0.070851
H453	H	1.197880	0.262119	0.262482
C454	C	0.652287	-0.354988	-0.695198
C455	C	0.985620	-0.021655	-0.361865
C456	C	1.318954	0.311678	-0.028532
C457	C	0.659430	-0.347842	-0.641537
C458	C	0.992763	-0.014508	-0.308204
C459	C	1.326097	0.318825	0.025130
C460	C	0.625978	-0.381221	-0.614121
C461	C	0.959311	-0.047888	-0.280788
C462	C	1.292645	0.285446	0.052545
H463	H	0.659879	-0.390138	-0.704085
H464	H	0.993212	-0.056805	-0.370752
H465	H	1.326545	0.276529	-0.037419
H466	H	0.617154	-0.347321	-0.704109
H467	H	0.950487	-0.013988	-0.370776
H468	H	1.283820	0.319346	-0.037442
H469	H	0.694555	-0.355513	-0.632630
H470	H	1.027889	-0.022179	-0.299297
H471	H	1.361222	0.311154	0.034037
H472	H	0.651834	-0.312699	-0.632634
H473	H	0.985168	0.020634	-0.299301
H474	H	1.318501	0.353967	0.034032
H475	H	0.590845	-0.373554	-0.623032
H476	H	0.924178	-0.040220	-0.289699
H477	H	1.257511	0.293113	0.043634
H478	H	0.633573	-0.416368	-0.623013
H479	H	0.966906	-0.083035	-0.289679
H480	H	1.300239	0.250298	0.043654
H481	H	0.630816	-0.376373	-0.577710
H482	H	0.964150	-0.043040	-0.244376
H483	H	1.297483	0.290294	0.088957
C484	C	0.312792	-0.148655	-0.149095
C485	C	0.646125	0.184678	0.184238
C486	C	0.979458	0.518012	0.517571
C487	C	0.366455	-0.155806	-0.156236
C488	C	0.699789	0.177527	0.177097
C489	C	1.033122	0.510860	0.510430
C490	C	0.393860	-0.122332	-0.122916
C491	C	0.727193	0.211001	0.210418
C492	C	1.060527	0.544335	0.543751
H493	H	0.303881	-0.156221	-0.113932
H494	H	0.637215	0.177113	0.219401
H495	H	0.970548	0.510446	0.552734
H496	H	0.303895	-0.113527	-0.156820
H497	H	0.637228	0.219807	0.176514
H498	H	0.970562	0.553140	0.509847
H499	H	0.375348	-0.190927	-0.148508
H500	H	0.708682	0.142407	0.184825
H501	H	1.042015	0.475740	0.518158
H502	H	0.375381	-0.148237	-0.191392
H503	H	0.708714	0.185096	0.141941
H504	H	1.042048	0.518430	0.475274
H505	H	0.384963	-0.087204	-0.130640
H506	H	0.718296	0.246130	0.202693
H507	H	1.051630	0.579463	0.536027
H508	H	0.384945	-0.129900	-0.087755
H509	H	0.718279	0.203433	0.245579
H510	H	1.051612	0.536766	0.578912
H511	H	0.430273	-0.127176	-0.127759
H512	H	0.763607	0.206157	0.205574
H513	H	1.096940	0.539491	0.538907
C514	C	0.061583	-0.321762	-0.321700
C515	C	0.394916	0.011571	0.011633
C516	C	0.728250	0.344904	0.344966
C517	C	0.092969	-0.292206	-0.355257
C518	C	0.426302	0.041127	-0.021923
C519	C	0.759636	0.374460	0.311410
C520	C	0.120342	-0.325602	-0.388671
C521	C	0.453675	0.007732	-0.055338
C522	C	0.787009	0.341065	0.277995
H523	H	0.037559	-0.341719	-0.341628
H524	H	0.370892	-0.008385	-0.008295
H525	H	0.704226	0.324948	0.325039
H526	H	0.082894	-0.344505	-0.301674
H527	H	0.416228	-0.011171	0.031660
H528	H	0.749561	0.322162	0.364993
H529	H	0.071660	-0.269473	-0.375282
H530	H	0.404993	0.063860	-0.041948
H531	H	0.738326	0.397193	0.291385
H532	H	0.117003	-0.272251	-0.335343
H533	H	0.450336	0.061082	-0.002010
H534	H	0.783669	0.394415	0.331323
H535	H	0.141654	-0.348344	-0.368645
H536	H	0.474987	-0.015010	-0.035311
H537	H	0.808320	0.318323	0.298022
H538	H	0.096314	-0.345556	-0.408595
H539	H	0.429648	-0.012223	-0.075262
H540	H	0.762981	0.321111	0.258071
H541	H	0.141644	-0.305553	-0.411440
H542	H	0.474978	0.027780	-0.078107
H543	H	0.808311	0.361114	0.255227
H544	H	0.816300	-0.953325	-0.191448
H545	H	1.149633	-0.619992	0.141885
H546	H	1.482966	-0.286659	0.475218
C547	C	0.858696	-0.694627	-0.148977
C548	C	1.192029	-0.361294	0.184356
C549	C	1.525363	-0.027961	0.517690
C550	C	0.851515	-0.640966	-0.156103
C551	C	1.184848	-0.307633	0.177230
C552	C	1.518181	0.025700	0.510563
C553	C	0.884911	-0.613550	-0.122715
C554	C	1.218244	-0.280217	0.210619
C555	C	1.551578	0.053117	0.543952
H556	H	0.893843	-0.703481	-0.156637
H557	H	1.227176	-0.370147	0.176696
H558	H	1.560509	-0.036814	0.510029
H559	H	0.851067	-0.703571	-0.113829
H560	H	1.184400	-0.370238	0.219504
H561	H	1.517733	-0.036904	0.552837
H562	H	0.859147	-0.632026	-0.191243
H563	H	1.192481	-0.298693	0.142090
H564	H	1.525814	0.034640	0.475424
H565	H	0.816375	-0.632097	-0.148439
H566	H	1.149708	-0.298764	0.184894
H567	H	1.483041	0.034569	0.518227
H568	H	0.877282	-0.622494	-0.087567
H569	H	1.210615	-0.289160	0.245766
H570	H	1.543949	0.044173	0.579100
H571	H	0.920056	-0.622408	-0.130378
H572	H	1.253389	-0.289074	0.202956
H573	H	1.586723	0.044259	0.536289
H574	H	0.880040	-0.577138	-0.127542
H575	H	1.213373	-0.243805	0.205791
H576	H	1.546706	0.089528	0.539125
C577	C	0.563932	-0.182202	-0.182333
C578	C	0.897265	0.151131	0.151001
C579	C	1.230599	0.484464	0.484334
C580	C	0.595259	-0.211755	-0.148775
C581	C	0.928592	0.121579	0.184559
C582	C	1.261925	0.454912	0.517892
C583	C	0.622648	-0.178356	-0.115366
C584	C	0.955981	0.154978	0.217968
C585	C	1.289314	0.488311	0.551301
H586	H	0.539918	-0.162244	-0.162406
H587	H	0.873251	0.171090	0.170927
H588	H	1.206584	0.504423	0.504261
H589	H	0.585285	-0.159463	-0.202363
H590	H	0.918618	0.173871	0.130970
H591	H	1.251952	0.507204	0.464303
H592	H	0.573907	-0.234485	-0.128746
H593	H	0.907241	0.098848	0.204587
H594	H	1.240574	0.432181	0.537921
H595	H	0.619283	-0.231712	-0.168687
H596	H	0.952616	0.101621	0.164646
H597	H	1.285949	0.434954	0.497980
H598	H	0.644001	-0.155616	-0.135396
H599	H	0.977334	0.177717	0.197937
H600	H	1.310668	0.511051	0.531271
H601	H	0.598630	-0.158399	-0.095443
H602	H	0.931963	0.174935	0.237891
H603	H	1.265296	0.508268	0.571224
H604	H	0.643910	-0.198402	-0.092596
H605	H	0.977243	0.134932	0.240738
H606	H	1.310576	0.468265	0.574071
H607	H	0.694798	-0.312619	-0.451550
H608	H	1.028131	0.020715	-0.118217
H609	H	1.361464	0.354048	0.215117
H610	H	0.816111	-0.450979	-0.191392
H611	H	1.149444	-0.117646	0.141941
H612	H	1.482777	0.215688	0.475275
H613	H	0.816159	-0.550030	-0.191408
H614	H	1.149492	-0.216696	0.141926
H615	H	1.482826	0.116637	0.475259
C616	C	0.825230	-0.182133	-0.558088
C617	C	1.158563	0.151200	-0.224755
C618	C	1.491896	0.484534	0.108579
C619	C	0.795661	-0.148594	-0.589420
C620	C	1.128994	0.184739	-0.256086
C621	C	1.462327	0.518073	0.077247
C622	C	0.829040	-0.115076	-0.616754
C623	C	1.162373	0.218257	-0.283421
C624	C	1.495707	0.551591	0.049912
H625	H	0.848010	-0.202069	-0.579436
H626	H	1.181343	0.131264	-0.246102
H627	H	1.514677	0.464597	0.087231
H628	H	0.845145	-0.162203	-0.534025
H629	H	1.178478	0.171131	-0.200692
H630	H	1.511811	0.504464	0.132642
H631	H	0.775754	-0.168522	-0.613480
H632	H	1.109088	0.164811	-0.280146
H633	H	1.442421	0.498145	0.053187
H634	H	0.772881	-0.128646	-0.568085
H635	H	1.106215	0.204687	-0.234752
H636	H	1.439548	0.538021	0.098582
H637	H	0.848955	-0.095146	-0.592692
H638	H	1.182288	0.238188	-0.259358
H639	H	1.515622	0.571521	0.073975
H640	H	0.851819	-0.135016	-0.638099
H641	H	1.185152	0.198317	-0.304766
H642	H	1.518486	0.531650	0.028568
H643	H	0.808982	-0.092313	-0.638013
H644	H	1.142316	0.241021	-0.304679
H645	H	1.475649	0.574354	0.028654
C646	C	0.652233	-0.694750	-0.355023
C647	C	0.985566	-0.361417	-0.021689
C648	C	1.318900	-0.028084	0.311644
C649	C	0.618735	-0.663438	-0.325384
C650	C	0.952068	-0.330105	0.007949
C651	C	1.285401	0.003228	0.341282
C652	C	0.585228	-0.636082	-0.358697
C653	C	0.918561	-0.302749	-0.025364
C654	C	1.251895	0.030585	0.307970
H655	H	0.632267	-0.718784	-0.374929
H656	H	0.965601	-0.385451	-0.041596
H657	H	1.298934	-0.052118	0.291737
H658	H	0.672196	-0.673390	-0.377815
H659	H	1.005529	-0.340057	-0.044481
H660	H	1.338862	-0.006723	0.288852
H661	H	0.598774	-0.684797	-0.302601
H662	H	0.932107	-0.351463	0.030732
H663	H	1.265441	-0.018130	0.364065
H664	H	0.638686	-0.639395	-0.305479
H665	H	0.972019	-0.306061	0.027854
H666	H	1.305353	0.027272	0.361188
H667	H	0.605191	-0.614722	-0.381489
H668	H	0.938524	-0.281388	-0.048156
H669	H	1.271857	0.051945	0.285178
H670	H	0.565266	-0.660120	-0.378602
H671	H	0.898599	-0.326786	-0.045268
H672	H	1.231933	0.006547	0.288065
H673	H	0.562499	-0.614830	-0.338593
H674	H	0.895832	-0.281497	-0.005259
H675	H	1.229165	0.051837	0.328074
H676	H	0.849709	-0.801185	-0.158037
H677	H	1.183042	-0.467851	0.175296
H678	H	1.516376	-0.134518	0.508630
H679	H	0.457387	-0.191213	-0.191436
H680	H	0.790720	0.142121	0.141897
H681	H	1.124053	0.475454	0.475230
C682	C	0.825443	-1.059890	-0.182497
C683	C	1.158776	-0.726556	0.150836
C684	C	1.492109	-0.393223	0.484170
C685	C	0.818324	-1.113555	-0.189685
C686	C	1.151658	-0.780221	0.143648
C687	C	1.484991	-0.446888	0.476981
C688	C	0.851835	-1.140952	-0.156410
C689	C	1.185168	-0.807619	0.176923
C690	C	1.518501	-0.474286	0.510257
H691	H	0.817889	-1.051053	-0.147321
H692	H	1.151222	-0.717719	0.186012
H693	H	1.484556	-0.384386	0.519346
H694	H	0.860561	-1.050914	-0.190233
H695	H	1.193894	-0.717581	0.143101
H696	H	1.527227	-0.384247	0.476434
H697	H	0.783214	-1.122527	-0.181946
H698	H	1.116547	-0.789193	0.151387
H699	H	1.449881	-0.455860	0.484721
H700	H	0.825882	-1.122407	-0.224854
H701	H	1.159215	-0.789074	0.108479
H702	H	1.492548	-0.455741	0.441812
H703	H	0.886953	-1.131977	-0.164146
H704	H	1.220286	-0.798643	0.169187
H705	H	1.553620	-0.465310	0.502521
H706	H	0.844278	-1.132111	-0.121236
H707	H	1.177611	-0.798778	0.212097
H708	H	1.510945	-0.465444	0.545430
H709	H	0.847013	-1.177366	-0.161286
H710	H	1.180346	-0.844033	0.172047
H711	H	1.513680	-0.510700	0.505380
C712	C	0.685813	-1.059766	-0.321784
C713	C	1.019147	-0.726432	0.011549
C714	C	1.352480	-0.393099	0.344882
C715	C	0.656510	-1.024178	-0.351037
C716	C	0.989843	-0.690845	-0.017704
C717	C	1.323176	-0.357512	0.315630
C718	C	0.623032	-1.051388	-0.384513
C719	C	0.956366	-0.718055	-0.051180
C720	C	1.289699	-0.384722	0.282153
H721	H	0.663006	-1.081100	-0.301823
H722	H	0.996340	-0.747766	0.031511
H723	H	1.329673	-0.414433	0.364844
H724	H	0.705793	-1.081024	-0.344620
H725	H	1.039126	-0.747691	-0.011287
H726	H	1.372460	-0.414358	0.322047
H727	H	0.636532	-1.002928	-0.328204
H728	H	0.969865	-0.669595	0.005129
H729	H	1.303198	-0.336262	0.338462
H730	H	0.679303	-1.002843	-0.371009
H731	H	1.012636	-0.669509	-0.037676
H732	H	1.345970	-0.336176	0.295657
H733	H	0.643012	-1.072647	-0.407349
H734	H	0.976345	-0.739314	-0.074016
H735	H	1.309679	-0.405981	0.259318
H736	H	0.600229	-1.072722	-0.364548
H737	H	0.933562	-0.739388	-0.031214
H738	H	1.266895	-0.406055	0.302119
H739	H	0.603149	-1.027247	-0.404369
H740	H	0.936483	-0.693913	-0.071035
H741	H	1.269816	-0.360580	0.262298
C742	C	0.652239	-0.808721	-0.355037
C743	C	0.985573	-0.475388	-0.021704
C744	C	1.318906	-0.142054	0.311629
C745	C	0.618742	-0.840107	-0.325413
C746	C	0.952075	-0.506773	0.007920
C747	C	1.285409	-0.173440	0.341254
C748	C	0.585219	-0.867448	-0.358737
C749	C	0.918553	-0.534115	-0.025403
C750	C	1.251886	-0.200782	0.307930
H751	H	0.672174	-0.830033	-0.377852
H752	H	1.005507	-0.496700	-0.044519
H753	H	1.338841	-0.163366	0.288815
H754	H	0.632279	-0.784662	-0.374918
H755	H	0.965612	-0.451329	-0.041585
H756	H	1.298945	-0.117996	0.291748
H757	H	0.638701	-0.864162	-0.305541
H758	H	0.972034	-0.530829	0.027792
H759	H	1.305367	-0.197496	0.361126
H760	H	0.598796	-0.818808	-0.302600
H761	H	0.932129	-0.485474	0.030734
H762	H	1.265463	-0.152141	0.364067
H763	H	0.565259	-0.843390	-0.378617
H764	H	0.898592	-0.510056	-0.045284
H765	H	1.231925	-0.176723	0.288049
H766	H	0.605159	-0.888757	-0.381550
H767	H	0.938492	-0.555424	-0.048216
H768	H	1.271825	-0.222091	0.285117
H769	H	0.562485	-0.888743	-0.338641
H770	H	0.895818	-0.555410	-0.005308
H771	H	1.229151	-0.222076	0.328026
C772	C	0.685882	-0.945956	-0.321784
C773	C	1.019216	-0.612623	0.011549
C774	C	1.352549	-0.279289	0.344882
C775	C	0.715448	-0.914577	-0.355338
C776	C	1.048781	-0.581243	-0.022005
C777	C	1.382115	-0.247910	0.311328
C778	C	0.682066	-0.887267	-0.388815
C779	C	1.015399	-0.553934	-0.055482
C780	C	1.348733	-0.220601	0.277852
H781	H	0.663097	-0.924643	-0.301819
H782	H	0.996430	-0.591309	0.031514
H783	H	1.329763	-0.257976	0.364848
H784	H	0.665973	-0.970034	-0.341706
H785	H	0.999306	-0.636701	-0.008373
H786	H	1.332640	-0.303367	0.324961
H787	H	0.735349	-0.890501	-0.335419
H788	H	1.068682	-0.557168	-0.002086
H789	H	1.402015	-0.223835	0.331248
H790	H	0.738232	-0.935877	-0.375315
H791	H	1.071566	-0.602544	-0.041982
H792	H	1.404899	-0.269210	0.291351
H793	H	0.662157	-0.911346	-0.408737
H794	H	0.995490	-0.578012	-0.075403
H795	H	1.328823	-0.244679	0.257930
H796	H	0.659282	-0.865957	-0.368845
H797	H	0.992615	-0.532624	-0.035512
H798	H	1.325949	-0.199290	0.297821
H799	H	0.702122	-0.865977	-0.411588
H800	H	1.035455	-0.532644	-0.078255
H801	H	1.368788	-0.199310	0.255078
H802	H	0.457399	-0.312726	-0.312556
H803	H	0.790732	0.020608	0.020777
H804	H	1.124065	0.353941	0.354110
H805	H	0.694738	-0.550105	-0.312613
H806	H	1.028071	-0.216771	0.020720
H807	H	1.361405	0.116562	0.354054
H808	H	0.694809	-0.312597	-0.550617
H809	H	1.028142	0.020736	-0.217284
H810	H	1.361475	0.354069	0.116049
H811	H	0.694699	-0.451039	-0.312594
H812	H	1.028032	-0.117705	0.020740
H813	H	1.361366	0.215628	0.354073
C814	C	0.825321	-0.182178	-0.444278
C815	C	1.158654	0.151155	-0.110945
C816	C	1.491988	0.484489	0.222389
C817	C	0.854618	-0.152882	-0.479888
C818	C	1.187951	0.180452	-0.146555
C819	C	1.521284	0.513785	0.186779
C820	C	0.888103	-0.119386	-0.452703
C821	C	1.221436	0.213947	-0.119370
C822	C	1.554769	0.547281	0.213963
H823	H	0.848132	-0.202128	-0.422981
H824	H	1.181466	0.131206	-0.089647
H825	H	1.514799	0.464539	0.243686
H826	H	0.805347	-0.159371	-0.422985
H827	H	1.138681	0.173962	-0.089651
H828	H	1.472014	0.507296	0.243682
H829	H	0.874590	-0.175686	-0.501172
H830	H	1.207923	0.157648	-0.167839
H831	H	1.541257	0.490981	0.165494
H832	H	0.831820	-0.132921	-0.501187
H833	H	1.165153	0.200412	-0.167853
H834	H	1.498487	0.533745	0.165480
H835	H	0.868129	-0.096579	-0.431410
H836	H	1.201462	0.236755	-0.098076
H837	H	1.534795	0.570088	0.235257
H838	H	0.910910	-0.139340	-0.431407
H839	H	1.244244	0.193994	-0.098073
H840	H	1.577577	0.527327	0.235260
H841	H	0.907981	-0.099501	-0.476860
H842	H	1.241314	0.233832	-0.143527
H843	H	1.574647	0.567166	0.189806
H844	H	0.849714	-0.157806	-0.702783
H845	H	1.183047	0.175528	-0.369449
H846	H	1.516380	0.508861	-0.036116
H847	H	0.816288	-0.191174	-0.953941
H848	H	1.149621	0.142159	-0.620608
H849	H	1.482955	0.475493	-0.287275
C850	C	0.825466	-0.182137	-1.060393
C851	C	1.158800	0.151197	-0.727060
C852	C	1.492133	0.484530	-0.393727
C853	C	0.877191	-0.193535	-1.047141
C854	C	1.210524	0.139798	-0.713808
C855	C	1.543858	0.473132	-0.380475
C856	C	0.910750	-0.160165	-1.074437
C857	C	1.244083	0.173169	-0.741103
C858	C	1.577417	0.506502	-0.407770
H859	H	0.817907	-0.146989	-1.051471
H860	H	1.151241	0.186344	-0.718137
H861	H	1.484574	0.519678	-0.384804
H862	H	0.820709	-0.186924	-1.096825
H863	H	1.154042	0.146410	-0.763492
H864	H	1.487375	0.479743	-0.430159
H865	H	0.881946	-0.188743	-1.010718
H866	H	1.215280	0.144590	-0.677384
H867	H	1.548613	0.477923	-0.344051
H868	H	0.884766	-0.228676	-1.056065
H869	H	1.218100	0.104657	-0.722732
H870	H	1.551433	0.437990	-0.389399
H871	H	0.905992	-0.164952	-1.110869
H872	H	1.239326	0.168381	-0.777535
H873	H	1.572659	0.501715	-0.444202
H874	H	0.903186	-0.125019	-1.065512
H875	H	1.236519	0.208314	-0.732179
H876	H	1.569853	0.541648	-0.398845
H877	H	0.945849	-0.167897	-1.065453
H878	H	1.279182	0.165436	-0.732119
H879	H	1.612515	0.498770	-0.398786
C880	C	0.312591	-0.355332	-0.355070
C881	C	0.645924	-0.021998	-0.021736
C882	C	0.979257	0.311335	0.311597
C883	C	0.276986	-0.384645	-0.384310
C884	C	0.610319	-0.051312	-0.050977
C885	C	0.943653	0.282022	0.282357
C886	C	0.304176	-0.418155	-0.417759
C887	C	0.637509	-0.084821	-0.084426
C888	C	0.970843	0.248512	0.248908
H889	H	0.333872	-0.378131	-0.335089
H890	H	0.667206	-0.044798	-0.001755
H891	H	1.000539	0.288535	0.331578
H892	H	0.333901	-0.335375	-0.377914
H893	H	0.667234	-0.002042	-0.044581
H894	H	1.000567	0.331292	0.288753
H895	H	0.255685	-0.404600	-0.361469
H896	H	0.589018	-0.071267	-0.028135
H897	H	0.922352	0.262066	0.305198
H898	H	0.255703	-0.361859	-0.404302
H899	H	0.589036	-0.028526	-0.070968
H900	H	0.922370	0.304807	0.262365
H901	H	0.325486	-0.398198	-0.440604
H902	H	0.658819	-0.064865	-0.107270
H903	H	0.992153	0.268469	0.226063
H904	H	0.325457	-0.440951	-0.397774
H905	H	0.658790	-0.107618	-0.064441
H906	H	0.992124	0.225716	0.268893
H907	H	0.280023	-0.438044	-0.437606
H908	H	0.613356	-0.104711	-0.104273
H909	H	0.946689	0.228622	0.229060
H910	H	0.206227	-0.346229	-0.345967
H911	H	0.539560	-0.012896	-0.012634
H912	H	0.872893	0.320437	0.320699
H913	H	0.694881	-0.312471	-1.052955
H914	H	1.028214	0.020862	-0.719621
H915	H	1.361548	0.354196	-0.386288
H916	H	0.694857	-0.312487	-0.953905
H917	H	1.028190	0.020846	-0.620572
H918	H	1.361523	0.354180	-0.287239
H919	H	0.661364	-0.345949	-0.801759
H920	H	0.994697	-0.012615	-0.468426
H921	H	1.328031	0.320718	-0.135093
H922	H	-0.044951	-0.191258	-0.191502
H923	H	0.288383	0.142075	0.141831
H924	H	0.621716	0.475408	0.475165
