data_functionalizedCrystal
_audit_creation_method	'MofGen! by Chris Wilmer'
_symmetry_space_group_name_H-M	'P1'
_symmetry_Int_Tables_number	1
_symmetry_cell_setting	triclinic
loop_
_symmetry_equiv_pos_as_xyz
  x,y,z
_cell_length_a	19.805407
_cell_length_b	19.077119
_cell_length_c	19.805399
_cell_angle_alpha	87.736954
_cell_angle_beta	90.023391
_cell_angle_gamma	92.333261
loop_
_atom_site_label
_atom_site_type_symbol
_atom_site_fract_x
_atom_site_fract_y
_atom_site_fract_z
Zn1	Zn	-1.023851	0.280233	-0.393628
Zn2	Zn	-0.690517	0.613567	-0.060294
Zn3	Zn	-0.357184	0.946900	0.273039
Zn4	Zn	-1.019206	0.397935	-0.284972
Zn5	Zn	-0.685873	0.731268	0.048362
Zn6	Zn	-0.352540	1.064602	0.381695
Zn7	Zn	-0.910670	0.280253	-0.280440
Zn8	Zn	-0.577336	0.613586	0.052893
Zn9	Zn	-0.244003	0.946920	0.386226
Zn10	Zn	-0.906066	0.397892	-0.398104
Zn11	Zn	-0.572733	0.731225	-0.064771
Zn12	Zn	-0.239399	1.064559	0.268563
O13	O	-0.964948	0.339078	-0.339286
O14	O	-0.631615	0.672412	-0.005953
O15	O	-0.298282	1.005745	0.327381
O16	O	-1.117951	0.295857	-0.379237
O17	O	-0.784617	0.629190	-0.045904
O18	O	-0.451284	0.962523	0.287429
O19	O	-1.004792	0.382350	-0.189655
O20	O	-0.671458	0.715684	0.143678
O21	O	-0.338125	1.049017	0.477012
O22	O	-0.929554	0.181759	-0.291685
O23	O	-0.596220	0.515093	0.041648
O24	O	-0.262887	0.848426	0.374982
O25	O	-1.114539	0.382332	-0.299408
O26	O	-0.781205	0.715665	0.033925
O27	O	-0.447872	1.048998	0.367258
O28	O	-1.012707	0.181745	-0.374843
O29	O	-0.679374	0.515078	-0.041510
O30	O	-0.346041	0.848412	0.291823
O31	O	-0.925050	0.295890	-0.186326
O32	O	-0.591717	0.629223	0.147008
O33	O	-0.258384	0.962557	0.480341
O34	O	-0.815343	0.295848	-0.296025
O35	O	-0.482010	0.629181	0.037308
O36	O	-0.148676	0.962515	0.370641
O37	O	-0.921707	0.382258	-0.492226
O38	O	-0.588374	0.715591	-0.158892
O39	O	-0.255041	1.048925	0.174441
O40	O	-0.811961	0.382277	-0.382473
O41	O	-0.478627	0.715610	-0.049139
O42	O	-0.145294	1.048944	0.284194
O43	O	-1.008243	0.295815	-0.488937
O44	O	-0.674910	0.629148	-0.155604
O45	O	-0.341577	0.962482	0.177730
O46	O	-1.000328	0.496420	-0.303749
O47	O	-0.666994	0.829754	0.029585
O48	O	-0.333661	1.163087	0.362918
O49	O	-0.917204	0.496389	-0.386866
O50	O	-0.583871	0.829722	-0.053533
O51	O	-0.250537	1.163055	0.279800
C52	C	-0.789093	0.339060	-0.339243
C53	C	-0.455760	0.672394	-0.005910
C54	C	-0.122426	1.005727	0.327423
C55	C	-0.713861	0.339070	-0.339242
C56	C	-0.380527	0.672403	-0.005909
C57	C	-0.047194	1.005736	0.327425
C58	C	-0.250323	0.384158	-0.384254
C59	C	0.083011	0.717492	-0.050921
C60	C	0.416344	1.050825	0.282413
C61	C	-0.321011	0.384158	-0.384242
C62	C	0.012322	0.717491	-0.050909
C63	C	0.345655	1.050825	0.282425
C64	C	-0.358098	0.339088	-0.339293
C65	C	-0.024765	0.672422	-0.005960
C66	C	0.308569	1.005755	0.327374
C67	C	-0.324493	0.294021	-0.294348
C68	C	0.008841	0.627355	0.038985
C69	C	0.342174	0.960688	0.372318
C70	C	-0.253805	0.294026	-0.294358
C71	C	0.079528	0.627359	0.038976
C72	C	0.412861	0.960692	0.372309
C73	C	-0.609567	0.294003	-0.294309
C74	C	-0.276233	0.627336	0.039024
C75	C	0.057100	0.960670	0.372357
C76	C	-0.680259	0.294001	-0.294305
C77	C	-0.346926	0.627334	0.039028
C78	C	-0.013592	0.960667	0.372362
C79	C	-0.676773	0.384135	-0.384194
C80	C	-0.343439	0.717469	-0.050860
C81	C	-0.010106	1.050802	0.282473
C82	C	-0.606085	0.384140	-0.384203
C83	C	-0.272752	0.717473	-0.050870
C84	C	0.060581	1.050806	0.282464
C85	C	-0.572486	0.339076	-0.339256
C86	C	-0.239153	0.672409	-0.005923
C87	C	0.094181	1.005742	0.327410
C88	C	-0.495837	0.339077	-0.339269
C89	C	-0.162504	0.672411	-0.005936
C90	C	0.170829	1.005744	0.327398
C91	C	-0.434745	0.339082	-0.339283
C92	C	-0.101412	0.672416	-0.005950
C93	C	0.231921	1.005749	0.327384
C94	C	-0.957781	0.521942	-0.346300
C95	C	-0.624447	0.855275	-0.012966
C96	C	-0.291114	1.188609	0.320367
C97	C	-0.954776	0.600172	-0.349323
C98	C	-0.621443	0.933505	-0.015990
C99	C	-0.288110	1.266839	0.317344
C100	C	-0.964980	0.339030	-0.515827
C101	C	-0.631646	0.672363	-0.182494
C102	C	-0.298313	1.005696	0.150840
C103	C	-0.964993	0.339009	-0.591058
C104	C	-0.631660	0.672342	-0.257725
C105	C	-0.298327	1.005675	0.075609
C106	C	-0.141490	0.339094	-0.339321
C107	C	0.191843	0.672427	-0.005987
C108	C	0.525176	1.005761	0.327346
C109	C	-0.216722	0.339093	-0.339314
C110	C	0.116611	0.672427	-0.005981
C111	C	0.449944	1.005760	0.327352
C112	C	-0.933238	1.040524	-0.371037
C113	C	-0.599904	1.373857	-0.037703
C114	C	-0.266571	1.707191	0.295630
C115	C	-0.936060	0.967019	-0.368189
C116	C	-0.602727	1.300352	-0.034855
C117	C	-0.269394	1.633685	0.298478
C118	C	-0.980782	0.930262	-0.323521
C119	C	-0.647449	1.263595	0.009813
C120	C	-0.314116	1.596928	0.343146
C121	C	-1.022689	0.967013	-0.281703
C122	C	-0.689356	1.300347	0.051630
C123	C	-0.356022	1.633680	0.384964
C124	C	-1.019869	1.040517	-0.284555
C125	C	-0.686536	1.373851	0.048778
C126	C	-0.353202	1.707184	0.382112
C127	C	-0.993863	0.710428	-0.310357
C128	C	-0.660530	1.043761	0.022976
C129	C	-0.327197	1.377094	0.356309
C130	C	-0.996678	0.636919	-0.307507
C131	C	-0.663345	0.970252	0.025826
C132	C	-0.330012	1.303585	0.359160
C133	C	-0.910051	0.636929	-0.393994
C134	C	-0.576717	0.970262	-0.060661
C135	C	-0.243384	1.303596	0.272673
C136	C	-0.907232	0.710434	-0.396839
C137	C	-0.573898	1.043768	-0.063506
C138	C	-0.240565	1.377101	0.269828
C139	C	-0.949141	0.747180	-0.355024
C140	C	-0.615807	1.080513	-0.021691
C141	C	-0.282474	1.413846	0.311643
N142	N	-0.983667	0.855127	-0.320607
N143	N	-0.650334	1.188461	0.012726
N144	N	-0.317000	1.521794	0.346060
N145	N	-0.946259	0.822313	-0.357942
N146	N	-0.612926	1.155646	-0.024608
N147	N	-0.279592	1.488979	0.308725
C148	C	-0.972138	1.155501	-0.332248
C149	C	-0.638804	1.488834	0.001085
C150	C	-0.305471	1.822167	0.334418
C151	C	-0.975140	1.077271	-0.329221
C152	C	-0.641806	1.410604	0.004113
C153	C	-0.308473	1.743937	0.337446
C154	C	-0.923484	0.293984	-0.624668
C155	C	-0.590151	0.627318	-0.291335
C156	C	-0.256818	0.960651	0.041999
C157	C	-0.923494	0.293971	-0.695356
C158	C	-0.590161	0.627304	-0.362023
C159	C	-0.256828	0.960637	-0.028689
C160	C	-0.965017	0.338978	-0.732433
C161	C	-0.631684	0.672312	-0.399099
C162	C	-0.298350	1.005645	-0.065766
C163	C	-1.006528	0.384008	-0.698818
C164	C	-0.673194	0.717341	-0.365485
C165	C	-0.339861	1.050674	-0.032151
C166	C	-1.006514	0.384024	-0.628131
C167	C	-0.673180	0.717358	-0.294798
C168	C	-0.339847	1.050691	0.038535
C169	C	-1.006584	0.383942	-0.983889
C170	C	-0.673250	0.717275	-0.650555
C171	C	-0.339917	1.050608	-0.317222
C172	C	-1.006596	0.383920	-1.054580
C173	C	-0.673263	0.717253	-0.721247
C174	C	-0.339929	1.050587	-0.387913
C175	C	-0.923564	0.293888	-1.051113
C176	C	-0.590231	0.627221	-0.717780
C177	C	-0.256898	0.960555	-0.384447
C178	C	-0.923550	0.293905	-0.980427
C179	C	-0.590217	0.627238	-0.647094
C180	C	-0.256884	0.960572	-0.313760
C181	C	-0.965058	0.338936	-0.946818
C182	C	-0.631725	0.672270	-0.613485
C183	C	-0.298391	1.005603	-0.280152
C184	C	-0.965046	0.338952	-0.870171
C185	C	-0.631713	0.672285	-0.536837
C186	C	-0.298379	1.005618	-0.203504
C187	C	-0.965033	0.338960	-0.809079
C188	C	-0.631700	0.672293	-0.475746
C189	C	-0.298366	1.005627	-0.142412
C190	C	-0.964958	0.339076	-0.163430
C191	C	-0.631624	0.672410	0.169903
C192	C	-0.298291	1.005743	0.503237
C193	C	-0.965083	0.338899	-0.088191
C194	C	-0.631750	0.672232	0.245142
C195	C	-0.298416	1.005565	0.578475
H196	H	-0.582219	0.257312	-0.257709
H197	H	-0.248885	0.590645	0.075625
H198	H	0.084448	0.923978	0.408958
H199	H	-0.354694	0.257328	-0.257747
H200	H	-0.021361	0.590661	0.075586
H201	H	0.311972	0.923995	0.408919
H202	H	-0.226449	0.257327	-0.257765
H203	H	0.106884	0.590661	0.075568
H204	H	0.440218	0.923994	0.408902
Cl205	Cl	-1.046548	0.756613	-0.257788
Cl206	Cl	-0.713215	1.089946	0.075545
Cl207	Cl	-0.379882	1.423279	0.408879
Cl208	Cl	-1.058695	0.440632	-0.585879
Cl209	Cl	-0.725362	0.773965	-0.252545
Cl210	Cl	-0.392029	1.107298	0.080788
Cl211	Cl	-0.877008	1.086726	-0.427189
Cl212	Cl	-0.543675	1.420059	-0.093856
Cl213	Cl	-0.210342	1.753392	0.239477
H214	H	-0.889765	0.257223	-1.078486
H215	H	-0.556431	0.590557	-0.745153
H216	H	-0.223098	0.923890	-0.411819
H217	H	-0.575892	0.420838	-0.420807
H218	H	-0.242559	0.754171	-0.087474
H219	H	0.090774	1.087504	0.245859
H220	H	-1.059106	0.937082	-0.245336
H221	H	-0.725773	1.270415	0.087998
H222	H	-0.392439	1.603748	0.421331
H223	H	-0.220132	0.420855	-0.420860
H224	H	0.113202	0.754189	-0.087527
H225	H	0.446535	1.087522	0.245807
Cl226	Cl	-1.052896	0.590711	-0.251340
Cl227	Cl	-0.719563	0.924044	0.081993
Cl228	Cl	-0.386229	1.257377	0.415327
Cl229	Cl	-0.851017	0.756638	-0.453005
Cl230	Cl	-0.517684	1.089971	-0.119672
Cl231	Cl	-0.184351	1.423305	0.213662
H232	H	-1.040410	0.420573	-1.084766
H233	H	-0.707077	0.753907	-0.751433
H234	H	-0.373744	1.087240	-0.418100
H235	H	-0.889741	0.257253	-0.950242
H236	H	-0.556408	0.590586	-0.616909
H237	H	-0.223074	0.923919	-0.283576
H238	H	-0.901941	0.937100	-0.402239
H239	H	-0.568608	1.270433	-0.068906
H240	H	-0.235274	1.603766	0.264428
Cl241	Cl	-0.857373	0.590731	-0.446562
Cl242	Cl	-0.524039	0.924064	-0.113229
Cl243	Cl	-0.190706	1.257397	0.220104
Cl244	Cl	-0.363249	0.440816	-0.440739
Cl245	Cl	-0.029915	0.774149	-0.107405
Cl246	Cl	0.303418	1.107482	0.225928
H247	H	-1.053992	1.070436	-0.250506
H248	H	-0.720658	1.403769	0.082828
H249	H	-0.387325	1.737102	0.416161
H250	H	-0.889676	0.257330	-0.594485
H251	H	-0.556342	0.590663	-0.261152
H252	H	-0.223009	0.923997	0.072182
H253	H	-0.889691	0.257310	-0.722718
H254	H	-0.556358	0.590643	-0.389385
H255	H	-0.223024	0.923977	-0.056051
H256	H	-1.040374	0.420617	-0.956534
H257	H	-0.707041	0.753950	-0.623200
H258	H	-0.373708	1.087283	-0.289867
H259	H	-0.704137	0.420831	-0.420790
H260	H	-0.370804	0.754164	-0.087456
H261	H	-0.037471	1.087497	0.245877
Cl262	Cl	-0.726882	0.237338	-0.237793
Cl263	Cl	-0.393548	0.570671	0.095541
Cl264	Cl	-0.060215	0.904005	0.428874
Cl265	Cl	-1.058724	0.440593	-0.745429
Cl266	Cl	-0.725390	0.773927	-0.412095
Cl267	Cl	-0.392057	1.107260	-0.078762
