data_functionalizedCrystal
_audit_creation_method	'MofGen! by Chris Wilmer'
_symmetry_space_group_name_H-M	'P1'
_symmetry_Int_Tables_number	1
_symmetry_cell_setting	triclinic
loop_
_symmetry_equiv_pos_as_xyz
  x,y,z
_cell_length_a	27.732048
_cell_length_b	15.944551
_cell_length_c	15.021413
_cell_angle_alpha	90.002826
_cell_angle_beta	89.999048
_cell_angle_gamma	96.929303
loop_
_atom_site_label
_atom_site_type_symbol
_atom_site_fract_x
_atom_site_fract_y
_atom_site_fract_z
O1	O	0.062334	-1.113714	-0.073949
O2	O	0.562334	-0.613714	0.426051
O3	O	0.070020	-0.869064	-0.073973
O4	O	0.570020	-0.369064	0.426027
O5	O	-0.004187	-0.998987	-0.073943
O6	O	0.495813	-0.498987	0.426057
O7	O	0.136541	-0.983790	-0.073979
O8	O	0.636541	-0.483790	0.426021
O9	O	-0.004176	-0.998966	0.074121
O10	O	0.495824	-0.498966	0.574121
O11	O	0.070030	-0.869043	0.074092
O12	O	0.570030	-0.369043	0.574092
O13	O	0.062345	-1.113693	0.074115
O14	O	0.562345	-0.613693	0.574115
Zn15	Zn	0.066189	-0.991365	0.097612
Zn16	Zn	0.566189	-0.491365	0.597612
Zn17	Zn	0.066175	-0.991392	-0.097469
Zn18	Zn	0.566175	-0.491392	0.402531
O19	O	0.136551	-0.983770	0.074086
O20	O	0.636551	-0.483770	0.574086
C21	C	0.069706	-0.837763	0.000057
C22	C	0.569706	-0.337763	0.500057
C23	C	0.068749	-0.744530	0.000049
C24	C	0.568749	-0.244530	0.500049
C25	C	-0.022190	-0.998658	0.000091
C26	C	0.477810	-0.498658	0.500091
C27	C	-0.075849	-0.997697	0.000099
C28	C	0.424151	-0.497697	0.500099
N29	N	0.066198	-0.991352	0.230749
N30	N	0.566198	-0.491352	0.730749
C31	C	-0.414358	-1.068426	0.000060
C32	C	0.085642	-0.568426	0.500060
C33	C	-0.616033	-1.064862	0.000047
C34	C	-0.116033	-0.564862	0.500047
O35	O	-0.647008	-1.129539	0.000014
O36	O	-0.147008	-0.629539	0.500014
N37	N	-0.635490	-0.987823	0.000040
N38	N	-0.135490	-0.487823	0.500040
C39	C	-0.604525	-0.911669	0.000031
C40	C	-0.104525	-0.411669	0.500031
O41	O	-0.625703	-0.846061	0.000016
O42	O	-0.125703	-0.346061	0.500016
C43	C	-0.402851	-0.915234	0.000038
C44	C	0.097149	-0.415234	0.500038
C45	C	-0.383397	-0.992278	0.000053
C46	C	0.116603	-0.492278	0.500053
C47	C	-0.394903	-1.145464	0.000074
C48	C	0.105097	-0.645464	0.500074
C49	C	-0.344487	-1.146354	0.000082
C50	C	0.155513	-0.646354	0.500082
C51	C	-0.313526	-1.070206	0.000076
C52	C	0.186474	-0.570206	0.500076
C53	C	-0.332981	-0.993168	0.000061
C54	C	0.167019	-0.493168	0.500061
C55	C	-0.371887	-0.839081	0.000022
C56	C	0.128113	-0.339081	0.500022
C57	C	-0.321466	-0.839979	0.000021
C58	C	0.178534	-0.339979	0.500021
C59	C	-0.302012	-0.917024	0.000037
C60	C	0.197988	-0.417024	0.500037
C61	C	-0.251604	-0.917911	0.000063
C62	C	0.248396	-0.417911	0.500063
N63	N	-0.232147	-0.994950	0.000069
N64	N	0.267853	-0.494950	0.500069
C65	C	-0.263108	-1.071098	0.000076
C66	C	0.236892	-0.571098	0.500076
C67	C	-0.710408	-0.909803	0.000030
C68	C	-0.210408	-0.409803	0.500030
C69	C	-0.760826	-0.908912	0.000030
C70	C	-0.260826	-0.408912	0.500030
C71	C	-0.772330	-1.062105	0.000044
C72	C	-0.272330	-0.562105	0.500044
C73	C	-0.721911	-1.062995	0.000050
C74	C	-0.221911	-0.562995	0.500050
C75	C	-0.690950	-0.986842	0.000036
C76	C	-0.190950	-0.486842	0.500036
C77	C	-0.157231	-1.072961	0.000093
C78	C	0.342769	-0.572961	0.500093
C79	C	-0.106810	-1.073845	0.000105
C80	C	0.393190	-0.573845	0.500105
C81	C	-0.095310	-0.920652	0.000086
C82	C	0.404690	-0.420652	0.500086
C83	C	-0.145727	-0.919768	0.000079
C84	C	0.354273	-0.419768	0.500079
C85	C	-0.176686	-0.995930	0.000080
C86	C	0.323314	-0.495930	0.500080
O87	O	-0.220600	-0.853269	0.000085
O88	O	0.279400	-0.353269	0.500085
O89	O	-0.241921	-1.136697	0.000071
O90	O	0.258079	-0.636697	0.500071
C91	C	-0.464774	-1.067536	0.000052
C92	C	0.035226	-0.567536	0.500052
C93	C	-0.484228	-0.990498	0.000037
C94	C	0.015772	-0.490498	0.500037
C95	C	-0.453268	-0.914350	0.000031
C96	C	0.046732	-0.414350	0.500031
C97	C	-0.534647	-0.989607	0.000037
C98	C	-0.034647	-0.489607	0.500037
C99	C	-0.565608	-1.065754	0.000044
C100	C	-0.065608	-0.565754	0.500044
C101	C	-0.546150	-1.142794	0.000050
C102	C	-0.046150	-0.642794	0.500050
C103	C	-0.495734	-1.143684	0.000058
C104	C	0.004266	-0.643684	0.500058
C105	C	-0.472725	-0.837311	0.000024
C106	C	0.027275	-0.337311	0.500024
C107	C	-0.523141	-0.836427	0.000017
C108	C	-0.023141	-0.336427	0.500017
C109	C	-0.554102	-0.912575	0.000023
C110	C	-0.054102	-0.412575	0.500023
C111	C	0.154554	-0.984099	0.000049
C112	C	0.654554	-0.484099	0.500049
C113	C	0.208213	-0.985059	0.000036
C114	C	0.708213	-0.485059	0.500036
C115	C	0.062658	-1.144993	0.000084
C116	C	0.562658	-0.644993	0.500084
C117	C	0.063615	-1.238227	0.000086
C118	C	0.563615	-0.738227	0.500086
C119	C	0.020466	-0.530305	0.000078
C120	C	0.520466	-0.030305	0.500078
C121	C	0.042882	-0.469001	-0.072931
C122	C	0.542882	0.030999	0.427069
C123	C	0.067019	-0.573827	0.000060
C124	C	0.567019	-0.073827	0.500060
C125	C	0.042904	-0.469003	0.073049
C126	C	0.542904	0.030997	0.573049
C127	C	0.065344	-0.408936	0.000074
C128	C	0.565344	0.091064	0.500074
C129	C	0.089448	-0.513752	-0.073010
C130	C	0.589448	-0.013752	0.426990
C131	C	0.089463	-0.513760	0.073036
C132	C	0.589463	-0.013760	0.573036
C133	C	0.111912	-0.452474	0.000009
C134	C	0.611912	0.047526	0.500009
C135	C	0.067983	-0.668816	0.000051
C136	C	0.567983	-0.168816	0.500051
C137	C	0.064384	-0.313947	0.000077
C138	C	0.564384	0.186053	0.500077
N139	N	0.066162	-0.991411	-0.230607
N140	N	0.566162	-0.491411	0.269393
C141	C	0.100495	-0.931267	0.470419
C142	C	0.600495	-0.431267	0.970419
C143	C	0.109879	-1.007044	0.529758
C144	C	0.609879	-0.507044	1.029758
C145	C	0.066186	-0.991374	0.412356
C146	C	0.566186	-0.491374	0.912356
C147	C	0.056813	-0.915617	0.529759
C148	C	0.556813	-0.415617	1.029759
C149	C	0.066176	-0.991388	0.587780
C150	C	0.566176	-0.491388	1.087780
C151	C	0.075592	-1.067190	0.470389
C152	C	0.575592	-0.567190	0.970389
C153	C	0.022507	-0.975712	0.470385
C154	C	0.522507	-0.475712	0.970385
C155	C	0.031872	-1.051545	0.529697
C156	C	0.531872	-0.551545	1.029697
C157	C	0.066194	-0.991365	0.311299
C158	C	0.566194	-0.491365	0.811299
C159	C	0.066168	-0.991406	0.688836
C160	C	0.566168	-0.491406	1.188836
H161	H	-0.090973	-1.136586	0.000120
H162	H	0.409027	-0.636586	0.500120
H163	H	0.083560	-1.131275	0.444419
H164	H	0.583560	-0.631275	0.944419
Cl165	Cl	-0.396332	-0.742219	-0.000003
Cl166	Cl	0.103668	-0.242219	0.499997
H167	H	-0.014416	-0.962429	0.444285
H168	H	0.485584	-0.462429	0.944285
H169	H	0.002852	-1.102437	0.555561
H170	H	0.502852	-0.602437	1.055561
Cl171	Cl	-0.811261	-1.157833	0.000047
Cl172	Cl	-0.311261	-0.657833	0.500047
Cl173	Cl	-0.785276	-0.812052	0.000027
Cl174	Cl	-0.285276	-0.312052	0.500027
H175	H	-0.161567	-0.857033	0.000091
H176	H	0.338433	-0.357033	0.500091
H177	H	-0.447521	-0.775301	0.000017
H178	H	0.052479	-0.275301	0.500017
H179	H	0.129533	-0.880487	0.444392
H180	H	0.629533	-0.380487	0.944392
Cl181	Cl	-0.056379	-0.824929	0.000076
Cl182	Cl	0.443621	-0.324929	0.500076
Cl183	Cl	0.119817	-0.544222	-0.168412
Cl184	Cl	0.619817	-0.044222	0.331588
Cl185	Cl	0.044579	-0.816695	0.570025
Cl186	Cl	0.544579	-0.316695	1.070025
Cl187	Cl	-0.671492	-0.814057	0.000013
Cl188	Cl	-0.171492	-0.314057	0.500013
Cl189	Cl	-0.471285	-1.240545	0.000070
Cl190	Cl	0.028715	-0.740545	0.500070
H191	H	-0.018169	-0.564143	-0.000003
H192	H	0.481831	-0.064143	0.499997
Cl193	Cl	-0.282547	-0.744238	0.000003
Cl194	Cl	0.217453	-0.244238	0.500003
Cl195	Cl	-0.547591	-0.739561	0.000002
Cl196	Cl	-0.047591	-0.239561	0.500002
Cl197	Cl	-0.196143	-1.168709	0.000095
Cl198	Cl	0.303857	-0.668709	0.500095
Cl199	Cl	-0.320038	-1.243215	0.000076
Cl200	Cl	0.179962	-0.743215	0.500076
Cl201	Cl	0.166902	-1.027518	0.570025
Cl202	Cl	0.666902	-0.527518	1.070025
H203	H	-0.420107	-1.207476	0.000076
H204	H	0.079893	-0.707476	0.500076
H205	H	0.150587	-0.418809	-0.000042
H206	H	0.650587	0.081191	0.499958
H207	H	0.023188	-0.449157	-0.134645
H208	H	0.523188	0.050843	0.365355
Cl209	Cl	-0.697459	-1.159854	0.000068
Cl210	Cl	-0.197459	-0.659854	0.500068
H211	H	0.023209	-0.449166	0.134770
H212	H	0.523209	0.050834	0.634770
Cl213	Cl	-0.585082	-1.238521	0.000062
Cl214	Cl	-0.085082	-0.738521	0.500062
Cl215	Cl	0.119844	-0.544435	0.168323
Cl216	Cl	0.619844	-0.044435	0.668323
