data_functionalizedCrystal
_audit_creation_method	'MofGen! by Chris Wilmer'
_symmetry_space_group_name_H-M	'P1'
_symmetry_Int_Tables_number	1
_symmetry_cell_setting	triclinic
loop_
_symmetry_equiv_pos_as_xyz
  x,y,z
_cell_length_a	11.792241
_cell_length_b	10.654550
_cell_length_c	9.730223
_cell_angle_alpha	89.993622
_cell_angle_beta	90.000176
_cell_angle_gamma	95.660841
loop_
_atom_site_label
_atom_site_type_symbol
_atom_site_fract_x
_atom_site_fract_y
_atom_site_fract_z
O1	O	0.159412	-1.667388	0.114404
O2	O	0.174601	-1.301867	0.114382
O3	O	0.001856	-1.493498	0.114383
O4	O	0.332156	-1.475757	0.114402
O5	O	0.001866	-1.493485	-0.114196
O6	O	0.174610	-1.301854	-0.114198
O7	O	0.159422	-1.667376	-0.114176
Zn8	Zn	0.167018	-1.484613	-0.150479
Zn9	Zn	0.167005	-1.484629	0.150685
O10	O	0.332166	-1.475745	-0.114178
C11	C	-0.040432	-1.492377	0.000094
C12	C	-0.166454	-1.489042	0.000095
C13	C	0.173490	-1.255066	0.000089
C14	C	0.170154	-1.115632	0.000080
C15	C	0.160532	-1.714177	0.000120
C16	C	0.163869	-1.853611	0.000137
C17	C	-0.397180	-1.482908	0.000118
C18	C	-0.268787	-1.486316	0.000105
C19	C	0.374455	-1.476865	0.000114
C20	C	0.500476	-1.480201	0.000122
N21	N	0.167026	-1.484611	-0.356016
C22	C	0.271863	-1.035858	0.000106
C23	C	0.268721	-0.904847	0.000129
C24	C	0.062152	-0.933394	0.000107
C25	C	0.065295	-1.064404	0.000074
C26	C	0.391124	-1.019376	0.000124
C27	C	0.387982	-0.888364	0.000148
C28	C	0.236501	-1.561244	-0.427946
C29	C	0.236479	-1.561263	-0.571829
C30	C	0.097505	-1.408005	-0.571839
C31	C	0.097521	-1.407994	-0.427958
C32	C	0.316740	-1.649723	-0.427942
C33	C	0.316719	-1.649742	-0.571825
N34	N	0.166988	-1.484641	0.356221
H35	H	-0.023221	-0.891668	0.000123
H36	H	0.432914	-0.846509	0.095818
H37	H	-0.017527	-1.129352	0.000033
C38	C	0.430598	-1.596473	-0.368366
C39	C	0.414923	-1.490879	-0.287495
C40	C	0.519784	-1.441784	-0.232604
H41	H	0.460939	-1.658773	-0.313318
H42	H	0.482021	-1.572475	-0.441049
H43	H	0.363520	-1.514881	-0.214823
H44	H	0.384600	-1.428553	-0.342513
H45	H	0.571206	-1.417786	-0.305286
H46	H	0.550117	-1.504093	-0.177561
H47	H	0.509165	-1.370127	-0.177737
H48	H	0.040936	-1.345605	-0.369398
H49	H	0.281041	-1.744434	-0.616423
H50	H	0.424028	-0.842585	-0.098534
C51	C	0.453139	-1.058517	-0.127477
C52	C	0.379703	-1.141647	-0.205552
C53	C	0.436792	-1.177743	-0.323095
H54	H	0.476928	-0.985959	-0.180763
H55	H	0.517885	-1.099194	-0.100958
H56	H	0.314978	-1.100969	-0.232073
H57	H	0.355910	-1.214223	-0.152306
H58	H	0.501538	-1.218421	-0.296575
H59	H	0.460579	-1.105179	-0.376369
H60	H	0.386978	-1.234160	-0.376076
H61	H	0.040917	-1.345626	-0.630432
C62	C	0.436022	-1.607894	-0.623860
C63	C	0.470008	-1.486119	-0.575790
C64	C	0.579890	-1.447520	-0.623714
H65	H	0.487488	-1.664358	-0.591349
H66	H	0.436034	-1.607831	-0.721500
H67	H	0.470005	-1.486191	-0.478171
H68	H	0.418573	-1.429627	-0.608297
H69	H	0.579901	-1.447456	-0.721354
H70	H	0.631346	-1.503991	-0.591199
H71	H	0.602959	-1.364888	-0.591116
C72	C	0.279294	-1.781873	-0.375954
C73	C	0.169349	-1.819833	-0.424078
C74	C	0.134798	-1.941555	-0.376220
H75	H	0.330492	-1.838623	-0.408473
H76	H	0.279219	-1.781934	-0.278314
H77	H	0.169431	-1.819782	-0.521698
H78	H	0.118125	-1.763117	-0.391563
H79	H	0.134723	-1.941616	-0.278580
H80	H	0.186004	-1.998294	-0.408742
H81	H	0.060194	-1.967322	-0.408854
C82	C	0.441841	-1.066542	0.131778
C83	C	0.472226	-0.964245	0.219037
C84	C	0.518959	-1.007646	0.340322
H85	H	0.387211	-1.124286	0.176222
H86	H	0.507580	-1.107613	0.110415
H87	H	0.406495	-0.923193	0.240402
H88	H	0.526867	-0.906491	0.174636
H89	H	0.584699	-1.048718	0.318958
H90	H	0.464323	-1.065391	0.384753
H91	H	0.539591	-0.938244	0.399536
