data_functionalizedCrystal
_audit_creation_method	'MofGen! by Chris Wilmer'
_symmetry_space_group_name_H-M	'P1'
_symmetry_Int_Tables_number	1
_symmetry_cell_setting	triclinic
loop_
_symmetry_equiv_pos_as_xyz
  x,y,z
_cell_length_a	19.805399
_cell_length_b	18.215407
_cell_length_c	18.215405
_cell_angle_alpha	89.968971
_cell_angle_beta	90.029242
_cell_angle_gamma	89.986462
loop_
_atom_site_label
_atom_site_type_symbol
_atom_site_fract_x
_atom_site_fract_y
_atom_site_fract_z
Zn1	Zn	-0.382603	1.125064	0.292881
Zn2	Zn	-0.269411	1.124975	0.415949
Zn3	Zn	-0.269439	1.001999	0.292914
Zn4	Zn	-0.382570	1.001963	0.415923
O5	O	-0.326006	1.063500	0.354417
O6	O	-0.367590	1.228037	0.309203
O7	O	-0.174698	1.108640	0.399653
O8	O	-0.284476	1.018377	0.189926
O9	O	-0.284428	1.227971	0.399621
O10	O	-0.367617	1.108792	0.189901
O11	O	-0.174719	1.018290	0.309260
O12	O	-0.284444	0.899010	0.309235
O13	O	-0.477291	1.018315	0.399577
O14	O	-0.367561	0.898983	0.399609
O15	O	-0.477315	1.108757	0.309178
O16	O	-0.284397	1.108604	0.518930
O17	O	-0.367534	1.018228	0.518911
C18	C	-0.325973	1.063423	0.545623
C19	C	-0.325982	1.063457	0.627422
C20	C	-0.326003	0.872294	0.354423
C21	C	-0.326017	0.790495	0.354444
C22	C	-0.502549	1.063542	0.354371
C23	C	-0.577781	1.063559	0.354351
C24	C	-0.613139	1.110653	0.307278
C25	C	-0.683827	1.110661	0.307256
C26	C	-0.719156	1.063577	0.354312
C27	C	-0.683794	1.016478	0.401387
C28	C	-0.613106	1.016467	0.401404
C29	C	-0.968867	1.016519	0.401319
C30	C	-1.039559	1.016535	0.401300
C31	C	-1.039588	1.110713	0.307171
C32	C	-0.968900	1.110703	0.307188
C33	C	-0.933544	1.063601	0.354260
C34	C	-0.856895	1.063592	0.354281
C35	C	-0.795804	1.063589	0.354295
C36	C	-0.150150	1.063501	0.354410
C37	C	-0.074918	1.063627	0.354222
C38	C	-0.326010	1.255453	0.354411
C39	C	-0.326011	1.337252	0.354408
C40	C	-0.369312	1.525481	0.307349
C41	C	-0.369315	1.602340	0.307356
C42	C	-0.282715	1.602260	0.401508
C43	C	-0.282716	1.525403	0.401504
C44	C	-0.326014	1.487016	0.354421
C45	C	-0.326015	1.640732	0.354431
C46	C	-0.326017	1.724065	0.354439
C47	C	-0.326012	1.403677	0.354414
C48	C	-0.326053	1.063598	0.162464
C49	C	-0.326074	1.063640	0.080665
C50	C	-0.282772	1.110626	0.815601
C51	C	-0.282789	1.110659	0.892460
C52	C	-0.369288	1.016468	0.892480
C53	C	-0.369275	1.016440	0.815623
C54	C	-0.326013	1.063518	0.777185
C55	C	-0.326043	1.063579	0.930902
C56	C	-0.326061	1.063614	1.014235
C57	C	-0.325996	1.063483	0.693847
H58	H	-0.584378	1.148997	0.268962
Br59	Br	-0.920892	0.952594	0.465201
H60	H	-0.404568	1.494228	0.269011
H61	H	-0.247456	1.494083	0.439840
Br62	Br	-0.920957	1.174608	0.243328
Br63	Br	-0.427969	0.952508	0.763482
H64	H	-0.404573	1.633655	0.269027
Br65	Br	-0.223954	1.654362	0.465402
Br66	Br	-0.224060	1.174517	0.763438
H67	H	-0.247579	1.149021	0.923735
H68	H	-0.404510	0.978138	0.923785
H69	H	-0.712612	1.149012	0.268927
Br70	Br	-1.087575	1.174638	0.243285
Br71	Br	-0.731740	0.952573	0.465245
H72	H	-0.584319	0.978111	0.439729
Br73	Br	-1.087506	0.952633	0.465167
