data_functionalizedCrystal
_audit_creation_method	'MofGen! by Chris Wilmer'
_symmetry_space_group_name_H-M	'P1'
_symmetry_Int_Tables_number	1
_symmetry_cell_setting	triclinic
loop_
_symmetry_equiv_pos_as_xyz
  x,y,z
_cell_length_a	27.354012
_cell_length_b	27.353283
_cell_length_c	27.349551
_cell_angle_alpha	60.005606
_cell_angle_beta	60.011434
_cell_angle_gamma	59.993282
loop_
_atom_site_label
_atom_site_type_symbol
_atom_site_fract_x
_atom_site_fract_y
_atom_site_fract_z
O1	O	0.067635	-0.714267	0.597330
O2	O	0.025429	-0.556105	0.481282
O3	O	0.125575	-0.656186	0.481214
O4	O	-0.032512	-0.614186	0.597397
O5	O	0.158797	-0.622968	0.514367
O6	O	0.058650	-0.522887	0.514434
O7	O	0.100856	-0.681048	0.630482
Zn8	Zn	0.085028	-0.596693	0.577722
Zn9	Zn	0.041257	-0.640460	0.534042
O10	O	0.000709	-0.580967	0.630549
N11	N	0.114901	-0.566828	0.607534
N12	N	0.011389	-0.670331	0.504229
C13	C	0.179404	-0.338196	0.672015
C14	C	0.179501	-0.502386	0.836160
C15	C	0.179415	-0.502363	0.671996
C16	C	0.343611	-0.502373	0.671960
C17	C	0.197478	-0.392371	0.690061
C18	C	0.197534	-0.484321	0.781984
C19	C	0.289434	-0.484312	0.690032
C20	C	0.197486	-0.484308	0.690051
C21	C	0.156398	-0.269238	0.649045
C22	C	0.156418	-0.525342	0.649015
C23	C	0.220484	-0.461329	0.713032
C24	C	0.443889	-0.485097	0.619172
C25	C	0.506571	-0.505993	0.598266
C26	C	0.506589	-0.607412	0.636940
C27	C	0.443909	-0.586515	0.657848
C28	C	0.171510	-0.237888	0.587422
C29	C	0.150593	-0.175201	0.566543
C30	C	0.099458	-0.175218	0.668913
C31	C	0.120375	-0.237905	0.689792
C32	C	0.094789	-0.510201	0.664176
C33	C	0.073888	-0.531091	0.643278
C34	C	0.176239	-0.582263	0.592072
C35	C	0.197142	-0.561373	0.612963
C36	C	0.094933	-0.510244	0.936476
C37	C	0.074073	-0.531151	0.999161
C38	C	0.176453	-0.582335	0.999126
C39	C	0.197312	-0.561429	0.936439
C40	C	0.156551	-0.525382	0.905116
C41	C	0.412561	-0.525357	0.648961
C42	C	-0.098513	-0.688235	0.485867
C43	C	-0.006461	-0.688368	0.394066
C44	C	-0.006645	-0.780264	0.486040
C45	C	-0.006630	-0.688361	0.486097
C46	C	-0.029562	-0.711308	0.463018
N47	N	0.537030	-0.566846	0.607436
O48	O	0.741877	-0.576849	0.459995
O49	O	0.742050	-0.693241	0.618010
O50	O	0.741986	-0.692977	0.517791
O51	O	0.741941	-0.577114	0.560214
O52	O	0.642405	-0.659839	0.551046
O53	O	0.642469	-0.660104	0.651265
O54	O	0.642296	-0.543712	0.493251
Zn55	Zn	0.626572	-0.596646	0.577538
Zn56	Zn	0.757774	-0.640307	0.533723
O57	O	0.642360	-0.543976	0.593469
N58	N	0.847316	-0.670107	0.503818
N59	N	0.114877	-0.144758	0.607577
O60	O	-0.032498	0.060193	0.597441
O61	O	0.125523	0.060193	0.481067
O62	O	0.025289	0.060179	0.481345
O63	O	0.067736	0.060207	0.597163
O64	O	0.058511	-0.039410	0.514543
O65	O	0.158745	-0.039397	0.514265
O66	O	0.000724	-0.039396	0.630638
Zn67	Zn	0.085009	-0.055208	0.577722
Zn68	Zn	0.041238	0.076005	0.533983
O69	O	0.100958	-0.039382	0.630360
N70	N	0.011362	0.165555	0.504130
N71	N	0.115121	-0.566884	1.029592
O72	O	0.104990	-0.714248	1.234528
O73	O	-0.011371	-0.556177	1.234539
O74	O	-0.011103	-0.656395	1.234497
O75	O	0.104722	-0.614030	1.234569
O76	O	0.022090	-0.623190	1.134913
O77	O	0.021822	-0.522972	1.134954
O78	O	0.138182	-0.681044	1.134943
Zn79	Zn	0.085272	-0.596736	1.119137
Zn80	Zn	0.041539	-0.640484	1.250344
O81	O	0.137914	-0.580826	1.134984
N82	N	0.011689	-0.670343	1.339890
C83	C	0.038085	-0.519567	0.481870
C84	C	0.162104	-0.643505	0.481786
C85	C	0.088200	-0.717587	0.629893
C86	C	-0.035819	-0.593649	0.629977
C87	C	0.692280	-0.692701	0.654545
C88	C	0.692203	-0.692374	0.530435
C89	C	0.692063	-0.544251	0.456717
C90	C	0.692144	-0.544580	0.580825
C91	C	0.162000	0.010521	0.481600
C92	C	0.037914	0.010381	0.481984
C93	C	-0.035795	0.010399	0.630065
C94	C	0.088333	0.010415	0.629722
C95	C	-0.010799	-0.519660	1.184747
C96	C	-0.010461	-0.643761	1.184677
C97	C	0.137610	-0.717561	1.184734
C98	C	0.137280	-0.593452	1.184783
H99	H	0.061737	-0.480889	0.910978
H100	H	0.692323	-0.729239	0.699929
O101	O	0.025884	0.010376	0.433782
H102	H	-0.020443	0.010371	0.450916
O103	O	0.100135	-0.777765	0.678178
H104	H	0.111209	-0.813299	0.662042
H105	H	0.692221	-0.728771	0.521355
O106	O	0.692003	-0.495846	0.396605
H107	H	0.692002	-0.512781	0.367233
O108	O	-0.095910	0.010413	0.678461
H109	H	-0.125289	0.010414	0.661535
O110	O	0.692122	-0.496362	0.592843
H111	H	0.692158	-0.513493	0.639168
H112	H	0.207290	0.010797	0.444973
O113	O	0.100364	0.010415	0.677926
H114	H	0.146695	0.010411	0.660795
H115	H	-0.047330	-0.474261	1.184750
H116	H	-0.046832	-0.652809	1.184615
H117	H	0.209648	-0.611676	1.024626
O118	O	0.186002	-0.777698	1.184744
H119	H	0.169072	-0.807061	1.184732
H120	H	0.173667	-0.584388	1.184797
O121	O	-0.095964	-0.581797	0.678308
H122	H	-0.089816	-0.587073	0.718047
O123	O	0.007611	-0.514808	1.032982
H124	H	-0.017223	-0.486222	1.000666
H125	H	0.061625	-0.480862	0.693528
O126	O	0.263775	-0.577749	0.902614
H127	H	0.284328	-0.627172	0.914633
O128	O	0.007418	-0.514769	0.659628
H129	H	-0.017391	-0.486214	0.688217
H130	H	0.209407	-0.611608	0.562721
O131	O	0.540399	-0.673375	0.646520
H132	H	0.589249	-0.681140	0.626972
O133	O	0.263613	-0.577706	0.596621
H134	H	0.288419	-0.606276	0.568047
O135	O	0.222248	-0.655362	0.433456
H136	H	0.222333	-0.614846	0.392818
O137	O	0.410118	-0.629937	0.689969
H138	H	0.442452	-0.675972	0.692623
O139	O	0.540369	-0.462573	0.566133
H140	H	0.508042	-0.416534	0.563461
H141	H	0.200842	-0.263395	0.554238
O142	O	0.410075	-0.419133	0.609597
H143	H	0.422088	-0.393630	0.560885
O144	O	0.166892	-0.141380	0.500075
H145	H	0.195462	-0.173700	0.475250
H146	H	0.108067	-0.263426	0.739970
O147	O	0.060612	-0.141416	0.712856
H148	H	0.019220	-0.153447	0.741419
O149	O	0.026152	-0.459389	0.433586
H150	H	-0.020167	-0.430114	0.450641
