data_functionalizedCrystal
_audit_creation_method	'MofGen! by Chris Wilmer'
_symmetry_space_group_name_H-M	'P1'
_symmetry_Int_Tables_number	1
_symmetry_cell_setting	triclinic
loop_
_symmetry_equiv_pos_as_xyz
  x,y,z
_cell_length_a	14.853569
_cell_length_b	15.995292
_cell_length_c	13.930277
_cell_angle_alpha	90.001505
_cell_angle_beta	89.997168
_cell_angle_gamma	83.552090
loop_
_atom_site_label
_atom_site_type_symbol
_atom_site_fract_x
_atom_site_fract_y
_atom_site_fract_z
O1	O	1.196193	0.109323	-0.079780
O2	O	0.933713	0.122344	-0.079791
O3	O	1.072155	-0.006049	-0.079786
O4	O	1.057751	0.237716	-0.079784
O5	O	1.072142	-0.006045	0.079875
O6	O	0.933699	0.122348	0.079871
O7	O	1.196179	0.109326	0.079882
Zn8	Zn	1.064937	0.115838	0.105226
Zn9	Zn	1.064955	0.115833	-0.105135
O10	O	1.057737	0.237720	0.079878
C11	C	0.900118	0.121756	0.000039
C12	C	0.800038	0.119987	0.000034
C13	C	0.763782	0.042889	0.000030
C14	C	0.742253	0.195423	0.000042
C15	C	0.648221	0.193764	0.000044
C16	C	0.611966	0.116666	0.000039
C17	C	0.669742	0.041227	0.000034
C18	C	0.590438	0.269202	0.000059
C19	C	0.496401	0.267546	0.000061
C20	C	0.460144	0.190446	0.000050
C21	C	0.517926	0.115004	0.000043
C22	C	0.481671	0.037906	0.000039
C23	C	0.539452	-0.037537	0.000026
C24	C	0.633485	-0.035872	0.000023
C25	C	0.366110	0.188782	0.000053
C26	C	0.387631	0.036245	0.000043
C27	C	1.071562	-0.037244	0.000042
C28	C	1.069805	-0.130199	0.000035
C29	C	1.063343	-0.467945	0.000043
C30	C	1.163267	-0.444516	0.000404
C31	C	1.165166	-0.347838	0.000041
C32	C	1.066549	-0.300385	0.000040
C33	C	1.016600	-0.329546	-0.091134
C34	C	1.015397	-0.426338	-0.091207
C35	C	1.013341	-0.426194	0.090358
C36	C	1.017044	-0.329697	0.091560
C37	C	1.068356	-0.205687	0.000034
C38	C	1.061533	-0.562642	0.000042
C39	C	1.229774	0.109915	0.000050
C40	C	1.329855	0.111684	0.000048
C41	C	1.058330	0.268914	0.000047
C42	C	1.060088	0.361869	0.000048
N43	N	1.064931	0.115840	0.248792
N44	N	1.064968	0.115824	-0.248701
C45	C	1.003621	0.172675	0.299054
C46	C	1.126248	0.059002	0.299036
C47	C	1.126257	0.058999	0.399532
C48	C	1.064947	0.115834	0.449793
C49	C	1.003627	0.172672	0.399559
C50	C	1.187570	0.002155	0.449773
C51	C	1.187581	0.002149	0.550275
C52	C	1.126274	0.058989	0.600539
C53	C	1.064953	0.115830	0.550298
C54	C	1.003642	0.172665	0.600560
C55	C	0.942324	0.229512	0.550321
C56	C	0.942320	0.229512	0.449822
C57	C	1.126278	0.058988	0.701037
C58	C	1.003648	0.172662	0.701065
H59	H	0.771778	0.258193	0.000052
H60	H	1.204286	-0.328765	0.065396
O61	O	0.629537	0.352355	0.000068
H62	H	0.704633	0.340834	0.000052
O63	O	1.192339	-0.002316	0.244815
H64	H	1.236149	0.032987	0.199009
O65	O	1.253688	-0.059144	0.395561
H66	H	1.296319	-0.098678	0.447376
O67	O	0.876211	0.290820	0.604541
H68	H	0.833571	0.330351	0.552730
O69	O	0.434088	0.348914	0.000071
H70	H	0.362608	0.334809	0.000078
H71	H	1.237510	-0.044137	0.591174
H72	H	1.176199	0.012701	0.741937
O73	O	0.303785	0.270139	0.000073
H74	H	0.316665	0.307035	-0.065000
H75	H	1.051297	-0.309447	-0.158984
O76	O	1.061677	-0.461870	-0.181222
H77	H	1.084658	-0.409889	-0.224317
O78	O	1.214280	-0.481512	0.087027
H79	H	1.168968	-0.517004	0.130746
H80	H	0.942132	-0.440974	-0.095339
H81	H	1.044803	-0.454244	0.159467
H82	H	0.939789	-0.440270	0.090971
H83	H	0.944031	-0.297763	-0.094525
H84	H	1.201574	-0.473490	-0.064611
O85	O	0.937490	0.233986	0.244871
H86	H	0.894865	0.273508	0.296708
O87	O	0.348527	-0.046912	0.000047
H88	H	0.404504	-0.099088	0.000046
H89	H	1.204528	-0.329389	-0.065427
O90	O	1.065205	-0.305041	0.180913
H91	H	1.124154	-0.272043	0.160238
H92	H	0.945063	-0.296811	0.097065
H93	H	0.509920	-0.100310	0.000017
O94	O	0.937537	0.233980	0.755276
H95	H	0.894905	0.273507	0.703456
O96	O	0.876184	0.290803	0.395620
H97	H	0.887652	0.356103	0.414887
O98	O	0.695802	-0.117238	0.000029
H99	H	0.767280	-0.103128	0.000043
H100	H	0.810831	-0.018535	0.000016
