data_functionalizedCrystal
_audit_creation_method	'MofGen! by Chris Wilmer'
_symmetry_space_group_name_H-M	'P1'
_symmetry_Int_Tables_number	1
_symmetry_cell_setting	triclinic
loop_
_symmetry_equiv_pos_as_xyz
  x,y,z
_cell_length_a	12.759401
_cell_length_b	25.639239
_cell_length_c	12.759393
_cell_angle_alpha	89.963997
_cell_angle_beta	89.981287
_cell_angle_gamma	90.040211
loop_
_atom_site_label
_atom_site_type_symbol
_atom_site_fract_x
_atom_site_fract_y
_atom_site_fract_z
Zn1	Zn	1.606068	-0.208104	-0.593980
Zn2	Zn	1.605893	-0.295549	-0.418283
Zn3	Zn	1.430374	-0.208132	-0.418315
Zn4	Zn	1.430285	-0.295513	-0.593921
O5	O	1.518155	-0.251824	-0.506125
O6	O	1.753066	-0.219708	-0.570685
O7	O	1.582573	-0.283980	-0.271266
O8	O	1.453791	-0.134963	-0.441656
O9	O	1.752937	-0.283953	-0.441601
O10	O	1.582873	-0.134943	-0.570716
O11	O	1.453620	-0.219755	-0.271290
O12	O	1.283341	-0.219720	-0.441598
O13	O	1.453640	-0.283891	-0.740950
O14	O	1.283276	-0.283918	-0.570615
O15	O	1.582787	-0.219672	-0.740993
O16	O	1.582487	-0.368710	-0.441544
O17	O	1.453469	-0.368683	-0.570584
C18	C	1.245188	-0.251818	-0.506104
C19	C	1.128411	-0.251828	-0.506120
C20	C	1.073543	-0.285307	-0.573193
C21	C	0.963819	-0.285309	-0.573214
C22	C	0.963841	-0.218352	-0.439079
C23	C	1.073563	-0.218347	-0.439065
C24	C	0.813902	-0.304070	-0.697071
C25	C	0.759030	-0.337557	-0.764135
C26	C	0.794584	-0.388581	-0.780073
C27	C	0.885009	-0.406129	-0.728931
C28	C	0.939875	-0.372645	-0.661860
C29	C	0.904322	-0.321613	-0.645942
C30	C	1.223481	-0.199592	-0.315206
C31	C	1.278350	-0.166110	-0.248129
C32	C	1.242798	-0.115085	-0.232180
C33	C	1.152370	-0.097538	-0.283303
C34	C	1.097501	-0.131020	-0.350380
C35	C	1.133061	-0.182045	-0.366331
C36	C	1.517978	-0.387667	-0.506077
C37	C	1.517999	-0.445781	-0.506091
C38	C	1.585510	-0.806146	-0.439048
C39	C	1.585551	-0.860750	-0.439062
O40	O	1.642768	-0.888988	-0.382007
N41	N	1.518340	-0.888064	-0.506194
C42	C	1.451091	-0.860770	-0.573324
O43	O	1.393927	-0.889016	-0.630428
C44	C	1.451056	-0.806167	-0.573315
C45	C	1.518264	-0.778856	-0.506171
C46	C	1.652713	-0.778835	-0.371910
C47	C	1.652671	-0.724234	-0.371895
C48	C	1.585425	-0.696944	-0.439018
C49	C	1.518222	-0.724255	-0.506156
C50	C	1.383814	-0.778874	-0.640449
C51	C	1.383786	-0.724267	-0.640435
C52	C	1.450994	-0.696956	-0.573291
C53	C	1.450934	-0.642365	-0.573263
N54	N	1.518145	-0.615052	-0.506131
C55	C	1.585391	-0.642341	-0.439008
C56	C	1.451170	-0.975441	-0.573341
C57	C	1.451199	-1.030043	-0.573346
C58	C	1.585660	-1.030019	-0.439085
C59	C	1.585625	-0.975416	-0.439075
C60	C	1.518381	-0.948127	-0.506208
C61	C	1.585296	-0.527676	-0.438981
C62	C	1.585244	-0.473071	-0.438969
C63	C	1.450788	-0.473100	-0.573233
C64	C	1.450835	-0.527700	-0.573242
C65	C	1.518097	-0.554987	-0.506112
O66	O	1.393749	-0.614093	-0.630292
O67	O	1.642554	-0.614088	-0.381925
C68	C	1.792188	-0.251831	-0.506146
C69	C	1.908965	-0.251834	-0.506156
C70	C	1.518223	-0.251774	-0.780158
C71	C	1.518252	-0.251753	-0.896935
C72	C	1.518361	-0.115451	-0.506196
C73	C	1.518449	-0.057337	-0.506226
C74	C	1.451028	-0.285176	-0.951776
C75	C	1.451065	-0.285156	-1.061500
C76	C	1.585554	-0.218286	-1.061533
C77	C	1.585521	-0.218309	-0.951811
C78	C	1.413477	-0.346786	-1.211422
C79	C	1.346236	-0.380205	-1.266267
C80	C	1.243699	-0.388236	-1.230650
C81	C	1.208381	-0.362841	-1.140190
C82	C	1.275616	-0.329418	-1.085351
C83	C	1.378168	-0.321397	-1.120966
C84	C	1.623099	-0.156678	-0.801886
C85	C	1.690329	-0.123253	-0.747045
C86	C	1.792868	-0.115217	-0.782660
C87	C	1.828182	-0.140602	-0.873124
C88	C	1.760952	-0.174028	-0.927965
C89	C	1.658414	-0.182065	-0.892342
C90	C	1.518148	-0.251837	-0.233157
C91	C	1.518322	-0.251711	-0.116381
H92	H	1.118197	-0.312568	-0.627796
H93	H	1.707478	-0.801048	-0.317251
H94	H	0.749900	-0.415846	-0.834679
H95	H	1.023875	-0.116729	-0.392014
O96	O	1.523440	-0.164441	-0.767385
C97	C	1.469509	-0.116469	-0.765866
H98	H	1.508489	-0.088168	-0.822765
H99	H	1.384554	-0.122960	-0.790261
H100	H	1.471871	-0.099487	-0.683345
O101	O	1.385581	-0.317593	-0.898427
C102	C	1.317759	-0.287843	-0.834949
H103	H	1.311337	-0.246656	-0.868025
H104	H	1.236879	-0.306755	-0.833702
H105	H	1.350215	-0.286063	-0.751792
O106	O	0.671245	-0.320420	-0.813772
C107	C	0.651619	-0.268203	-0.785319
H108	H	0.727587	-0.249237	-0.757744
H109	H	0.619920	-0.246008	-0.855954
H110	H	0.591483	-0.267139	-0.719255
H111	H	1.396461	-1.052275	-0.628011
O112	O	1.117997	-0.047949	-0.267734
C113	C	1.185800	-0.022163	-0.197550
H114	H	1.265818	-0.041906	-0.198668
H115	H	1.194622	0.020355	-0.222229
H116	H	1.151790	-0.024087	-0.115003
H117	H	1.789711	-0.194696	-1.001628
H118	H	1.496974	-0.340256	-1.240423
H119	H	1.013496	-0.386932	-0.620221
O120	O	1.651170	-1.056458	-0.373940
C121	C	1.755838	-1.043038	-0.397054
H122	H	1.757910	-1.003380	-0.437452
H123	H	1.803017	-1.041153	-0.321291
H124	H	1.791225	-1.073727	-0.451109
H125	H	0.913943	-0.447681	-0.741905
H126	H	1.351981	-0.180401	-0.206501
H127	H	1.640352	-0.953182	-0.384401
H128	H	1.640070	-0.549887	-0.384320
O129	O	1.385886	-0.948991	-0.638694
C130	C	1.408811	-0.962278	-0.743429
H131	H	1.449232	-1.001900	-0.745646
H132	H	1.332959	-0.964175	-0.790468
H133	H	1.462777	-0.931505	-0.778866
O134	O	0.779517	-0.254467	-0.681705
C135	C	0.857804	-0.218966	-0.713409
H136	H	0.912170	-0.238672	-0.772188
H137	H	0.819604	-0.183535	-0.751530
H138	H	0.904941	-0.205984	-0.642149
H139	H	1.329081	-0.801101	-0.695120
O140	O	1.927836	-0.132759	-0.907557
C141	C	1.979595	-0.097805	-0.839770
H142	H	1.939892	-0.098417	-0.759727
H143	H	2.065041	-0.110014	-0.831009
H144	H	1.975708	-0.056719	-0.873758
H145	H	0.919170	-0.191094	-0.384484
H146	H	1.287477	-0.087826	-0.177550
O147	O	1.258138	-0.249151	-0.330551
C148	C	1.349726	-0.257455	-0.271057
H149	H	1.351980	-0.228688	-0.203005
H150	H	1.349725	-0.299006	-0.239200
H151	H	1.421530	-0.251387	-0.322856
H152	H	1.639973	-0.450836	-0.384288
O153	O	1.718067	-0.697789	-0.306649
C154	C	1.777406	-0.733594	-0.247401
H155	H	1.781026	-0.772498	-0.290452
H156	H	1.860186	-0.717786	-0.236273
H157	H	1.738990	-0.739450	-0.167571
H158	H	1.329028	-0.702051	-0.695106
H159	H	1.396112	-0.549938	-0.627919
H160	H	1.396034	-0.450872	-0.627881
O161	O	1.178432	-0.420657	-1.284088
C162	C	1.165449	-0.402017	-1.387251
H163	H	1.235005	-0.376306	-1.409215
H164	H	1.160718	-0.436416	-1.443625
H165	H	1.090127	-0.378260	-1.392334
H166	H	1.847602	-0.087992	-0.738006
O167	O	1.241181	-0.304824	-0.997456
C168	C	1.136251	-0.319072	-0.977782
H169	H	1.118865	-0.358062	-1.017017
H170	H	1.123363	-0.322741	-0.889669
H171	H	1.081678	-0.287936	-1.010752
H172	H	1.124880	-0.369377	-1.111205
H173	H	1.375001	-0.400881	-1.339920
O174	O	1.650791	-0.185815	-1.115003
C175	C	1.636424	-0.192969	-1.223608
H176	H	1.555322	-0.210087	-1.238584
H177	H	1.643624	-0.153798	-1.265324
H178	H	1.698707	-0.220808	-1.254735
O179	O	1.656238	-0.098616	-0.659059
C180	C	1.719358	-0.113345	-0.573341
H181	H	1.798685	-0.127401	-0.603163
H182	H	1.731155	-0.078402	-0.519402
H183	H	1.679278	-0.146140	-0.528146
