data_functionalizedCrystal
_audit_creation_method	'MofGen! by Chris Wilmer'
_symmetry_space_group_name_H-M	'P1'
_symmetry_Int_Tables_number	1
_symmetry_cell_setting	triclinic
loop_
_symmetry_equiv_pos_as_xyz
  x,y,z
_cell_length_a	14.044191
_cell_length_b	14.044190
_cell_length_c	10.868271
_cell_angle_alpha	89.990065
_cell_angle_beta	89.998192
_cell_angle_gamma	93.191777
loop_
_atom_site_label
_atom_site_type_symbol
_atom_site_fract_x
_atom_site_fract_y
_atom_site_fract_z
O1	O	1.277178	0.230201	-0.102288
O2	O	1.527178	0.480201	0.147712
O3	O	1.777178	0.730201	0.397712
O4	O	2.027178	0.980201	0.647712
O5	O	1.000505	0.221889	-0.102303
O6	O	1.250505	0.471889	0.147697
O7	O	1.500505	0.721889	0.397697
O8	O	1.750505	0.971889	0.647697
O9	O	1.134685	0.087709	-0.102272
O10	O	1.384685	0.337709	0.147728
O11	O	1.634685	0.587709	0.397728
O12	O	1.884685	0.837709	0.647728
O13	O	1.142998	0.364381	-0.102320
O14	O	1.392998	0.614381	0.147680
O15	O	1.642998	0.864381	0.397680
O16	O	1.892998	1.114381	0.647680
O17	O	1.134673	0.087702	0.102373
O18	O	1.384673	0.337702	0.352373
O19	O	1.634673	0.587702	0.602373
O20	O	1.884673	0.837702	0.852373
O21	O	1.000493	0.221882	0.102342
O22	O	1.250493	0.471882	0.352342
O23	O	1.500493	0.721882	0.602342
O24	O	1.750493	0.971882	0.852342
O25	O	1.277166	0.230195	0.102356
O26	O	1.527166	0.480195	0.352356
O27	O	1.777166	0.730195	0.602356
O28	O	2.027166	0.980195	0.852356
Zn29	Zn	1.138827	0.226037	0.134841
Zn30	Zn	1.388827	0.476037	0.384841
Zn31	Zn	1.638827	0.726037	0.634841
Zn32	Zn	1.888827	0.976037	0.884841
Zn33	Zn	1.138844	0.226046	-0.134787
Zn34	Zn	1.388844	0.476046	0.115213
Zn35	Zn	1.638844	0.726046	0.365213
Zn36	Zn	1.888844	0.976046	0.615213
O37	O	1.142986	0.364375	0.102325
O38	O	1.392986	0.614375	0.352325
O39	O	1.642986	0.864375	0.602325
O40	O	1.892986	1.114375	0.852325
C41	C	0.964877	0.218249	0.000018
C42	C	1.214877	0.468249	0.250018
C43	C	1.464877	0.718249	0.500018
C44	C	1.714877	0.968249	0.750018
C45	C	0.858734	0.207401	0.000013
C46	C	1.108734	0.457401	0.250013
C47	C	1.358734	0.707401	0.500013
C48	C	1.608734	0.957401	0.750013
C49	C	0.613277	0.264502	0.000016
C50	C	0.863277	0.514502	0.250016
C51	C	1.113277	0.764502	0.500016
C52	C	1.363277	1.014502	0.750016
C53	C	0.664400	0.187585	0.000027
C54	C	0.914400	0.437585	0.250027
C55	C	1.164400	0.687585	0.500027
C56	C	1.414400	0.937585	0.750027
C57	C	0.772537	0.198614	0.000019
C58	C	1.022537	0.448614	0.250019
C59	C	1.272537	0.698614	0.500019
C60	C	1.522537	0.948614	0.750019
C61	C	0.505130	0.253475	0.000023
C62	C	0.755130	0.503475	0.250023
C63	C	1.005130	0.753475	0.500023
C64	C	1.255130	1.003475	0.750023
C65	C	1.131043	0.052083	0.000054
C66	C	1.381043	0.302083	0.250054
C67	C	1.631043	0.552083	0.500054
C68	C	1.881043	0.802083	0.750054
C69	C	1.120195	-0.054060	0.000064
C70	C	1.370195	0.195940	0.250064
C71	C	1.620195	0.445940	0.500064
C72	C	1.870195	0.695940	0.750064
C73	C	1.177296	-0.299517	0.000019
C74	C	1.427296	-0.049517	0.250019
C75	C	1.677296	0.200483	0.500019
C76	C	1.927296	0.450483	0.750019
C77	C	1.100379	-0.248394	0.000024
C78	C	1.350379	0.001606	0.250024
C79	C	1.600379	0.251606	0.500024
C80	C	1.850379	0.501606	0.750024
C81	C	1.111408	-0.140257	0.000046
C82	C	1.361408	0.109743	0.250046
C83	C	1.611408	0.359743	0.500046
C84	C	1.861408	0.609743	0.750046
C85	C	1.166269	-0.407664	-0.000004
C86	C	1.416269	-0.157664	0.249996
C87	C	1.666269	0.092336	0.499996
C88	C	1.916269	0.342336	0.749996
C89	C	1.312794	0.233834	0.000033
C90	C	1.562794	0.483834	0.250033
C91	C	1.812794	0.733834	0.500033
C92	C	2.062794	0.983834	0.750033
C93	C	1.418937	0.244682	0.000029
C94	C	1.668937	0.494682	0.250029
C95	C	1.918937	0.744682	0.500029
C96	C	2.168937	0.994682	0.750029
C97	C	1.146628	0.400000	-0.000003
C98	C	1.396628	0.650000	0.249997
C99	C	1.646628	0.900000	0.499997
C100	C	1.896628	1.150000	0.749997
C101	C	1.157476	0.506143	-0.000022
C102	C	1.407476	0.756143	0.249978
C103	C	1.657476	1.006143	0.499978
C104	C	1.907476	1.256143	0.749978
N105	N	1.138823	0.226031	0.318855
N106	N	1.388823	0.476031	0.568855
N107	N	1.638823	0.726031	0.818855
N108	N	1.888823	0.976031	1.068855
N109	N	1.138855	0.226045	-0.318801
N110	N	1.388855	0.476045	-0.068801
N111	N	1.638855	0.726045	0.181199
N112	N	1.888855	0.976045	0.431199
C113	C	1.138839	0.226044	0.569861
C114	C	1.388839	0.476044	0.819861
C115	C	1.638839	0.726044	1.069861
C116	C	1.888839	0.976044	1.319861
C117	C	1.138827	0.226039	0.430183
C118	C	1.388827	0.476039	0.680183
C119	C	1.638827	0.726039	0.930183
C120	C	1.888827	0.976039	1.180183
H121	H	0.650720	0.338629	-0.000001
H122	H	0.900720	0.588629	0.249999
H123	H	1.150720	0.838629	0.499999
H124	H	1.400720	1.088629	0.749999
N125	N	1.007371	-0.295345	0.000030
N126	N	1.257371	-0.045345	0.250030
N127	N	1.507371	0.204655	0.500030
N128	N	1.757371	0.454655	0.750030
N129	N	0.935049	-0.247340	0.000047
N130	N	1.185049	0.002660	0.250047
N131	N	1.435049	0.252660	0.500047
N132	N	1.685049	0.502660	0.750047
H133	H	0.869363	-0.280502	0.000056
H134	H	1.119363	-0.030502	0.250056
H135	H	1.369363	0.219498	0.500056
H136	H	1.619363	0.469498	0.750056
N137	N	0.617418	0.094591	0.000055
N138	N	0.867418	0.344591	0.250055
N139	N	1.117418	0.594591	0.500055
N140	N	1.367418	0.844591	0.750055
N141	N	0.528367	0.085645	0.000064
N142	N	0.778367	0.335645	0.250064
N143	N	1.028367	0.585645	0.500064
N144	N	1.278367	0.835645	0.750064
H145	H	0.495181	0.019971	0.000084
H146	H	0.745181	0.269971	0.250084
H147	H	0.995181	0.519971	0.500084
H148	H	1.245181	0.769971	0.750084
N149	N	1.270284	-0.252536	0.000032
N150	N	1.520284	-0.002536	0.250032
N151	N	1.770284	0.247464	0.500032
N152	N	2.020284	0.497464	0.750032
N153	N	1.279221	-0.163484	0.000052
N154	N	1.529221	0.086516	0.250052
N155	N	1.779221	0.336516	0.500052
N156	N	2.029221	0.586516	0.750052
H157	H	1.344893	-0.130292	0.000064
H158	H	1.594893	0.119708	0.250064
H159	H	1.844893	0.369708	0.500064
H160	H	2.094893	0.619708	0.750064
