data_functionalizedCrystal
_audit_creation_method	'MofGen! by Chris Wilmer'
_symmetry_space_group_name_H-M	'P1'
_symmetry_Int_Tables_number	1
_symmetry_cell_setting	triclinic
loop_
_symmetry_equiv_pos_as_xyz
  x,y,z
_cell_length_a	25.639239
_cell_length_b	16.959455
_cell_length_c	16.959447
_cell_angle_alpha	89.985678
_cell_angle_beta	89.966924
_cell_angle_gamma	90.035633
loop_
_atom_site_label
_atom_site_type_symbol
_atom_site_fract_x
_atom_site_fract_y
_atom_site_fract_z
Zn1	Zn	-0.208183	1.208282	-0.446894
Zn2	Zn	-0.295624	1.208161	-0.314709
Zn3	Zn	-0.208199	1.076110	-0.314731
Zn4	Zn	-0.295585	1.076032	-0.446847
O5	O	-0.251898	1.142146	-0.380795
O6	O	-0.219792	1.318876	-0.429369
O7	O	-0.284050	1.190627	-0.204101
O8	O	-0.135032	1.093726	-0.332291
O9	O	-0.284034	1.318788	-0.332253
O10	O	-0.135020	1.190832	-0.429391
O11	O	-0.219820	1.093609	-0.204117
O12	O	-0.219782	0.965489	-0.332247
O13	O	-0.283967	1.093593	-0.557464
O14	O	-0.283983	0.965431	-0.429312
O15	O	-0.219754	1.190756	-0.557498
O16	O	-0.368784	1.190551	-0.332208
O17	O	-0.368755	1.093476	-0.429290
C18	C	-0.251880	0.936780	-0.380777
C19	C	-0.251886	0.848923	-0.380788
C20	C	-0.218441	0.477453	-0.330359
C21	C	-0.285398	0.477442	-0.431277
C22	C	-0.285390	0.559988	-0.431272
C23	C	-0.251908	0.601270	-0.380809
C24	C	-0.218433	0.560007	-0.330351
C25	C	-0.318868	0.601258	-0.481723
C26	C	-0.318863	0.683809	-0.481720
C27	C	-0.285377	0.725092	-0.431260
C28	C	-0.251901	0.683824	-0.380801
C29	C	-0.218418	0.725106	-0.330338
C30	C	-0.184939	0.683839	-0.279882
C31	C	-0.184948	0.601290	-0.279891
C32	C	-0.285368	0.807641	-0.431251
C33	C	-0.218411	0.807660	-0.330330
C34	C	-0.387740	1.142013	-0.380759
C35	C	-0.445854	1.142029	-0.380770
C36	C	-0.806220	1.192825	-0.330331
C37	C	-0.860824	1.192855	-0.330341
O38	O	-0.889063	1.235906	-0.287417
N39	N	-0.888137	1.142285	-0.380847
C40	C	-0.860842	1.091686	-0.431352
O41	O	-0.889088	1.048675	-0.474313
C42	C	-0.806239	1.091660	-0.431345
C43	C	-0.778929	1.142228	-0.380830
C44	C	-0.778910	1.243389	-0.279820
C45	C	-0.724309	1.243358	-0.279809
C46	C	-0.697019	1.192761	-0.330308
C47	C	-0.724329	1.142196	-0.380818
C48	C	-0.778946	1.041066	-0.481853
C49	C	-0.724339	1.041045	-0.481842
C50	C	-0.697029	1.091613	-0.431326
C51	C	-0.642437	1.091568	-0.431306
N52	N	-0.615125	1.142139	-0.380800
C53	C	-0.642415	1.192735	-0.330301
C54	C	-0.975513	1.091746	-0.431364
C55	C	-1.030115	1.091767	-0.431368
C56	C	-1.030093	1.192938	-0.330358
C57	C	-0.975490	1.192912	-0.330351
C58	C	-0.948200	1.142316	-0.380858
C59	C	-0.527750	1.192664	-0.330280
C60	C	-0.473145	1.192625	-0.330271
C61	C	-0.473172	1.091458	-0.431283
C62	C	-0.527772	1.091493	-0.431290
C63	C	-0.555060	1.142103	-0.380786
O64	O	-0.614164	1.048541	-0.474211
O65	O	-0.614163	1.235746	-0.287355
C66	C	-0.115525	1.142301	-0.380849
C67	C	-0.057411	1.142367	-0.380872
C68	C	-0.251854	1.142179	-0.586963
C69	C	-0.251836	1.142193	-0.674820
C70	C	-0.251915	1.348314	-0.380814
C71	C	-0.251923	1.436171	-0.380822
C72	C	-0.285214	1.091699	-1.046281
C73	C	-0.218348	1.192876	-1.046311
C74	C	-0.218359	1.192855	-0.963765
C75	C	-0.251799	1.142256	-0.922473
C76	C	-0.285227	1.091678	-0.963727
C77	C	-0.184935	1.243438	-0.922505
C78	C	-0.184945	1.243419	-0.839954
C79	C	-0.218382	1.192816	-0.798661
C80	C	-0.251812	1.142235	-0.839920
C81	C	-0.285251	1.091636	-0.798628
C82	C	-0.318679	1.041051	-0.839885
C83	C	-0.318665	1.041074	-0.922433
C84	C	-0.218396	1.192792	-0.716112
C85	C	-0.285265	1.091615	-0.716074
C86	C	-0.251903	1.142159	-0.175429
C87	C	-0.251774	1.142298	-0.087573
H88	H	-0.157680	0.717462	-0.238791
F89	F	-0.321000	0.851557	-0.484941
F90	F	-0.695298	0.987194	-0.535601
H91	H	-0.191181	0.443850	-0.289281
F92	F	-0.556839	1.037659	-0.485039
H93	H	-0.312428	1.050511	-1.079876
F94	F	-0.354239	0.987246	-0.966348
H95	H	-0.450911	1.233804	-0.289133
F96	F	-0.354269	0.987205	-0.795930
F97	F	-0.556784	1.246528	-0.276528
F98	F	-0.321039	0.433505	-0.484965
H99	H	-0.953257	1.234089	-0.289218
F100	F	-0.149320	0.557366	-0.226197
F101	F	-0.444118	1.037614	-0.485027
F102	F	-0.354514	0.557318	-0.535405
F103	F	-0.807946	1.297247	-0.226069
H104	H	-0.346123	0.717401	-0.522805
H105	H	-0.702077	1.284537	-0.238678
F106	F	-0.320854	1.037755	-0.672134
F107	F	-1.059147	1.246786	-0.276611
H108	H	-0.801172	0.999884	-0.522984
H109	H	-1.052346	1.050582	-0.472495
H110	H	-0.191142	0.841266	-0.289241
H111	H	-0.157726	1.284608	-0.806369
H112	H	-0.191126	1.234076	-1.079936
H113	H	-0.157713	1.284638	-0.956131
H114	H	-0.953296	1.050538	-0.472491
H115	H	-0.191182	1.233980	-0.682524
