data_functionalizedCrystal
_audit_creation_method	'MofGen! by Chris Wilmer'
_symmetry_space_group_name_H-M	'P1'
_symmetry_Int_Tables_number	1
_symmetry_cell_setting	triclinic
loop_
_symmetry_equiv_pos_as_xyz
  x,y,z
_cell_length_a	19.288840
_cell_length_b	10.723023
_cell_length_c	17.766277
_cell_angle_alpha	89.994693
_cell_angle_beta	89.983415
_cell_angle_gamma	83.796782
loop_
_atom_site_label
_atom_site_type_symbol
_atom_site_fract_x
_atom_site_fract_y
_atom_site_fract_z
O1	O	0.922376	0.155510	-0.062718
O2	O	0.720249	0.176541	-0.062692
O3	O	0.825975	-0.015650	-0.062703
O4	O	0.816650	0.347700	-0.062708
O5	O	0.825956	-0.015659	0.062486
O6	O	0.720231	0.176531	0.062496
O7	O	0.922357	0.155500	0.062470
Cu8	Cu	0.821292	0.166015	0.073914
Cu9	Cu	0.821314	0.166026	-0.074136
O10	O	0.816631	0.347690	0.062481
C11	C	0.694359	0.175864	-0.000095
C12	C	0.617241	0.173849	-0.000085
C13	C	0.581042	0.172886	-0.068327
C14	C	0.508582	0.170978	-0.068336
C15	C	0.472327	0.170008	-0.000099
C16	C	0.508535	0.170978	0.068152
C17	C	0.580992	0.172899	0.068159
C18	C	0.362496	0.093875	0.052171
C19	C	0.290041	0.091947	0.052160
C20	C	0.248845	0.164090	-0.000119
C21	C	0.280114	0.238146	-0.052400
C22	C	0.352571	0.240066	-0.052393
C23	C	0.393760	0.167926	-0.000099
C24	C	0.134077	0.161060	-0.068375
C25	C	0.061615	0.159160	-0.068382
C26	C	0.061570	0.159148	0.068108
C27	C	0.134029	0.161061	0.068113
C28	C	0.170278	0.162011	-0.000131
C29	C	0.825287	-0.062140	-0.000109
C30	C	0.823257	-0.200651	-0.000111
C31	C	0.822362	-0.262393	-0.064964
C32	C	0.820264	-0.405551	-0.064967
C33	C	0.948247	0.156177	-0.000129
C34	C	1.025365	0.158192	-0.000144
C35	C	0.817319	0.394181	-0.000115
C36	C	0.819349	0.532692	-0.000117
N37	N	0.821282	0.166006	0.178044
N38	N	0.821330	0.166025	-0.178266
C39	C	0.868112	0.080946	0.217426
C40	C	0.868116	0.080940	0.296228
C41	C	0.821296	0.166016	0.335645
C42	C	0.774457	0.251083	0.296253
C43	C	0.774449	0.251078	0.217453
C44	C	0.812737	0.279709	0.460482
C45	C	0.812749	0.279716	0.539281
C46	C	0.821315	0.166031	0.578691
C47	C	0.829883	0.052334	0.539293
C48	C	0.829876	0.052329	0.460493
C49	C	0.821299	0.166030	0.421090
C50	C	0.868153	0.080957	0.703519
C51	C	0.868152	0.080950	0.782322
C52	C	0.774495	0.251103	0.782346
C53	C	0.774493	0.251100	0.703544
C54	C	0.821325	0.166028	0.664136
H55	H	0.163504	0.161837	0.123683
H56	H	0.163591	0.161847	-0.123944
H57	H	0.819497	-0.458649	-0.120490
H58	H	0.805777	0.372294	0.571353
H59	H	0.805750	0.372292	0.428401
C60	C	0.468752	0.169911	-0.143403
H61	H	0.420407	0.168638	-0.133632
H62	H	0.485594	0.097475	-0.171438
H63	H	0.475674	0.242982	-0.171446
H64	H	0.820123	-0.414221	0.055408
C65	C	0.822192	-0.272400	0.074896
H66	H	0.823021	-0.215099	0.115584
H67	H	0.861879	-0.332929	0.077689
H68	H	0.781008	-0.313420	0.077695
C69	C	0.722994	0.344685	0.825694
H70	H	0.729707	0.332511	0.878266
H71	H	0.676575	0.331355	0.812800
H72	H	0.730935	0.427932	0.812771
H73	H	0.032052	0.158366	0.123668
C74	C	0.386964	0.321534	-0.109890
H75	H	0.352056	0.364236	-0.141025
H76	H	0.418834	0.269600	-0.140120
H77	H	0.411212	0.381052	-0.083989
C78	C	0.919654	-0.012629	0.660163
H79	H	0.912949	-0.000441	0.607592
H80	H	0.911715	-0.095870	0.673087
H81	H	0.966077	0.000704	0.673057
H82	H	0.736361	0.320369	0.671477
C83	C	0.823426	-0.190637	-0.139969
H84	H	0.824702	-0.103833	-0.130127
H85	H	0.782687	-0.202153	-0.168023
H86	H	0.863558	-0.221651	-0.168028
C87	C	0.722942	0.344658	0.174127
H88	H	0.729643	0.332469	0.121552
H89	H	0.730881	0.427899	0.187035
H90	H	0.676521	0.331323	0.187056
H91	H	0.906285	0.011677	0.814388
H92	H	0.246573	0.296897	-0.094968
H93	H	0.032142	0.158383	-0.123955
C94	C	0.722958	0.344667	0.339608
H95	H	0.729674	0.332497	0.392179
H96	H	0.676538	0.331336	0.326717
H97	H	0.730898	0.427913	0.326681
C98	C	0.468651	0.170005	0.143211
H99	H	0.420312	0.168740	0.133433
H100	H	0.475574	0.243097	0.171214
H101	H	0.485454	0.097589	0.171289
C102	C	0.919642	-0.012596	0.174078
H103	H	0.912942	-0.000402	0.121506
H104	H	0.911731	-0.095855	0.186991
H105	H	0.966053	0.000791	0.186984
C106	C	0.620913	0.173959	-0.143390
H107	H	0.669252	0.175237	-0.133614
H108	H	0.604085	0.246397	-0.171427
H109	H	0.614010	0.100890	-0.171432
C110	C	0.255651	0.010493	0.109668
H111	H	0.290561	-0.032179	0.140814
H112	H	0.231400	-0.049030	0.083784
H113	H	0.223784	0.062448	0.139897
C114	C	0.407809	0.014515	0.109680
H115	H	0.455439	0.026273	0.102203
H116	H	0.401782	-0.071563	0.103100
H117	H	0.394165	0.039901	0.159222
C118	C	0.620815	0.173938	0.143229
H119	H	0.588848	0.173078	0.183869
H120	H	0.644127	0.247428	0.146072
H121	H	0.654032	0.101921	0.146064
C122	C	0.919633	-0.012628	0.339558
H123	H	0.947525	-0.063289	0.304801
H124	H	0.894409	-0.064451	0.370315
H125	H	0.948760	0.032141	0.370279
C126	C	0.839311	-0.072730	0.582630
H127	H	0.844418	-0.140438	0.547880
H128	H	0.799597	-0.079474	0.613387
H129	H	0.879748	-0.075437	0.613352
H130	H	0.836851	-0.040247	0.428418
