data_functionalizedCrystal
_audit_creation_method	'MofGen! by Chris Wilmer'
_symmetry_space_group_name_H-M	'P1'
_symmetry_Int_Tables_number	1
_symmetry_cell_setting	triclinic
loop_
_symmetry_equiv_pos_as_xyz
  x,y,z
_cell_length_a	8.965430
_cell_length_b	14.971486
_cell_length_c	14.971486
_cell_angle_alpha	83.614129
_cell_angle_beta	90.000211
_cell_angle_gamma	90.001143
loop_
_atom_site_label
_atom_site_type_symbol
_atom_site_fract_x
_atom_site_fract_y
_atom_site_fract_z
O1	O	0.123869	-1.186945	-0.116556
O2	O	0.123909	-0.926544	-0.130515
O3	O	0.123877	-1.063724	0.006665
O4	O	0.123901	-1.049765	-0.253735
O5	O	-0.124202	-1.063712	0.006656
O6	O	-0.124170	-0.926533	-0.130524
O7	O	-0.124210	-1.186933	-0.116565
Cu8	Cu	-0.146842	-1.056732	-0.123545
Cu9	Cu	0.146540	-1.056746	-0.123535
O10	O	-0.124178	-1.049753	-0.253745
C11	C	-0.000125	-0.893214	-0.129895
C12	C	-0.000110	-0.793917	-0.128024
N13	N	-0.353191	-1.056729	-0.123552
C14	C	-0.000162	-1.063094	0.039985
C15	C	-0.000160	-1.061223	0.139282
C16	C	-0.450482	-0.993268	-0.186973
C17	C	-0.549907	-1.074114	-0.204415
C18	C	-0.549893	-0.975917	-0.106117
C19	C	-0.450426	-1.137615	-0.141035
C20	C	-0.450405	-1.039365	-0.042702
C21	C	-0.549785	-1.120269	-0.060111
N22	N	0.352890	-1.056756	-0.123520
C23	C	-0.000173	-1.220263	-0.117185
C24	C	-0.000178	-1.319561	-0.119056
C25	C	-0.000105	-0.736692	-0.208614
C26	C	-0.000127	-0.643392	-0.206850
C27	C	-0.000144	-0.607320	-0.124497
C28	C	-0.000154	-0.664552	-0.043902
C29	C	-0.000142	-0.757850	-0.045666
C30	C	-0.000174	-0.470090	-0.040231
C31	C	-0.000183	-0.376786	-0.038466
C32	C	-0.000160	-0.355632	-0.201415
C33	C	-0.000148	-0.448930	-0.203179
C34	C	-0.000155	-0.506156	-0.122584
C35	C	-0.000136	-1.050384	-0.287065
C36	C	-0.000128	-1.052254	-0.386362
C37	C	-0.000174	-1.141812	0.196507
C38	C	-0.000158	-1.140049	0.289807
C39	C	-0.000140	-1.057696	0.325879
C40	C	-0.000122	-0.977101	0.268646
C41	C	-0.000127	-0.978865	0.175349
C42	C	-0.000116	-0.973430	0.463109
C43	C	-0.000114	-0.971665	0.556413
C44	C	-0.000148	-1.134614	0.577567
C45	C	-0.000152	-1.136378	0.484269
C46	C	-0.000137	-1.055782	0.427043
H47	H	-0.406881	-0.939651	-0.240654
H48	H	-0.000120	-0.478296	-0.270239
C49	C	-0.392271	-1.019853	0.048503
C50	C	-0.444799	-1.085548	0.114920
C51	C	-0.391288	-1.067585	0.198949
H52	H	-0.286330	-1.020559	0.048111
H53	H	-0.426309	-0.962397	0.060849
H54	H	-0.410752	-1.142989	0.102578
H55	H	-0.550733	-1.084852	0.115341
H56	H	-0.425326	-1.010129	0.211295
H57	H	-0.285348	-1.068291	0.198548
H58	H	-0.426931	-1.112151	0.244024
C59	C	-0.608115	-1.093547	-0.295635
C60	C	-0.557844	-1.026885	-0.361794
C61	C	-0.611446	-1.044743	-0.445835
H62	H	-0.572630	-1.150491	-0.308570
H63	H	-0.714075	-1.093919	-0.294834
H64	H	-0.451906	-1.026522	-0.362596
H65	H	-0.593325	-0.969934	-0.348888
H66	H	-0.717405	-1.045115	-0.445035
H67	H	-0.575956	-1.101689	-0.458761
H68	H	-0.577356	-0.999512	-0.490733
C69	C	-0.607854	-0.884732	-0.086404
C70	C	-0.487206	-0.827720	-0.074965
C71	C	-0.540535	-0.743716	-0.056800
H72	H	-0.667630	-0.859413	-0.135166
H73	H	-0.666079	-0.891741	-0.033063
H74	H	-0.429006	-0.820709	-0.128300
H75	H	-0.427419	-0.853011	-0.026202
H76	H	-0.598759	-0.750726	-0.003459
H77	H	-0.600310	-0.718406	-0.105564
H78	H	-0.458684	-0.705027	-0.049028
H79	H	-0.406918	-1.205983	-0.155850
H80	H	-0.000121	-0.596802	-0.272474
C81	C	-0.607493	-1.192052	0.011314
C82	C	-0.556850	-1.276475	-0.007350
C83	C	-0.610000	-1.342625	0.058415
H84	H	-0.571950	-1.180317	0.068630
H85	H	-0.713456	-1.191401	0.011256
H86	H	-0.450908	-1.277124	-0.007283
H87	H	-0.592389	-1.288238	-0.064654
H88	H	-0.715964	-1.341974	0.058357
H89	H	-0.574454	-1.330882	0.115727
H90	H	-0.575659	-1.399914	0.045756
H91	H	-0.000145	-0.804443	0.019958
H92	H	-0.000173	-1.205673	0.336396
H93	H	-0.000161	-0.309033	-0.267039
H94	H	-0.000123	-0.904606	0.585780
H95	H	-0.000178	-1.203437	0.454903
C96	C	-0.000281	-0.337792	0.051036
C97	C	-0.000334	-0.407875	0.121241
C98	C	-0.000441	-0.371989	0.203703
H99	H	0.086204	-0.301848	0.055242
H100	H	-0.086828	-0.301862	0.055149
H101	H	0.086204	-0.443790	0.117129
H102	H	-0.086813	-0.443825	0.117064
H103	H	-0.086988	-0.336059	0.207816
H104	H	0.086046	-0.336045	0.207900
H105	H	-0.000491	-0.419533	0.251347
C106	C	-0.000021	-0.887596	0.307634
C107	C	0.000034	-0.817396	0.237546
C108	C	0.000145	-0.734930	0.273424
H109	H	-0.086505	-0.883385	0.343577
H110	H	0.086527	-0.883479	0.343564
H111	H	-0.086505	-0.821511	0.201631
H112	H	0.086512	-0.821577	0.201597
H113	H	0.086693	-0.730813	0.309354
H114	H	-0.086341	-0.730729	0.309366
H115	H	0.000196	-0.687290	0.225875
H116	H	-0.000100	-0.907800	0.416517
C117	C	0.000077	-1.222191	0.639585
C118	C	0.127672	-1.271793	0.623249
C119	C	0.127912	-1.352475	0.680357
H120	H	0.000166	-1.209479	0.700348
H121	H	-0.086400	-1.255997	0.628629
H122	H	0.214127	-1.237994	0.634212
H123	H	0.127610	-1.284528	0.562498
H124	H	0.041435	-1.386281	0.669401
H125	H	0.127997	-1.339755	0.741116
H126	H	0.214476	-1.386144	0.669275
H127	H	-0.000182	-0.516682	0.025399
H128	H	-0.000090	-0.766054	-0.275675
H129	H	-0.000115	-0.913240	0.128756
H130	H	-0.000189	-0.635175	0.023152
H131	H	-0.000198	-1.208874	0.167145
