data_functionalizedCrystal
_audit_creation_method	'MofGen! by Chris Wilmer'
_symmetry_space_group_name_H-M	'P1'
_symmetry_Int_Tables_number	1
_symmetry_cell_setting	triclinic
loop_
_symmetry_equiv_pos_as_xyz
  x,y,z
_cell_length_a	29.839134
_cell_length_b	13.897448
_cell_length_c	29.839126
_cell_angle_alpha	89.982544
_cell_angle_beta	89.962553
_cell_angle_gamma	90.013040
loop_
_atom_site_label
_atom_site_type_symbol
_atom_site_fract_x
_atom_site_fract_y
_atom_site_fract_z
Zn1	Zn	-0.686855	0.384229	0.254160
Zn2	Zn	-0.686800	0.545514	0.179036
Zn3	Zn	-0.611720	0.384221	0.179027
Zn4	Zn	-0.611716	0.545471	0.254122
O5	O	-0.649273	0.464859	0.216586
O6	O	-0.749715	0.405645	0.244214
O7	O	-0.676819	0.524133	0.116167
O8	O	-0.621711	0.249241	0.189006
O9	O	-0.749674	0.524140	0.189020
O10	O	-0.676912	0.249246	0.244206
O11	O	-0.621657	0.405632	0.116161
O12	O	-0.548852	0.405590	0.188969
O13	O	-0.621705	0.524067	0.316994
O14	O	-0.548850	0.524059	0.244141
O15	O	-0.676909	0.405603	0.317022
O16	O	-0.676816	0.680489	0.188984
O17	O	-0.621652	0.680458	0.244149
C18	C	-0.532550	0.464820	0.216550
C19	C	-0.482616	0.464826	0.216545
C20	C	-0.649313	0.464831	0.333764
C21	C	-0.649330	0.464819	0.383699
C22	C	-0.649240	0.715473	0.216573
C23	C	-0.649267	0.822687	0.216583
C24	C	-0.172981	0.526645	0.245265
C25	C	0.014693	0.526676	0.245279
O26	O	0.038950	0.579187	0.269685
N27	N	0.038169	0.464906	0.216599
C28	C	0.014725	0.403120	0.187916
O29	O	0.039000	0.350575	0.163526
C30	C	-0.172947	0.403086	0.187904
C31	C	-0.196421	0.464866	0.216583
C32	C	-0.196455	0.588420	0.273941
C33	C	-0.243371	0.588415	0.273935
C34	C	-0.266811	0.526636	0.245253
C35	C	-0.243337	0.464862	0.216577
C36	C	-0.196390	0.341295	0.159224
C37	C	-0.243311	0.341291	0.159224
C38	C	-0.266786	0.403071	0.187903
C39	C	-0.313693	0.403078	0.187890
N40	N	-0.337170	0.464847	0.216569
C41	C	-0.313729	0.526626	0.245251
C42	C	0.113256	0.403144	0.187924
C43	C	0.160174	0.403154	0.187926
C44	C	0.160138	0.526709	0.245290
C45	C	0.113219	0.526703	0.245285
C46	C	0.089779	0.464914	0.216603
C47	C	-0.412255	0.526613	0.245237
C48	C	-0.459175	0.526606	0.245227
C49	C	-0.459135	0.403048	0.187866
C50	C	-0.412219	0.403058	0.187873
C51	C	-0.388781	0.464844	0.216563
O52	O	-0.337980	0.350587	0.163500
O53	O	-0.338012	0.579149	0.269645
C54	C	-0.126065	0.526650	0.245270
C55	C	-0.102591	0.464875	0.216594
C56	C	-0.126032	0.403096	0.187912
C57	C	-0.055673	0.464885	0.216596
C58	C	-0.032232	0.526664	0.245278
C59	C	-0.055709	0.588434	0.273958
C60	C	-0.102624	0.588429	0.273952
C61	C	-0.102555	0.341327	0.159232
C62	C	-0.055639	0.341337	0.159240
C63	C	-0.032198	0.403116	0.187922
C64	C	0.233549	0.464903	0.216615
C65	C	0.183615	0.464933	0.216608
C66	C	-0.649318	0.213266	0.216609
C67	C	-0.649337	0.106052	0.216619
C68	C	-0.649314	1.018982	0.216611
C69	C	-0.649287	0.909749	0.216596
C70	C	-0.649258	0.464816	0.099864
C71	C	-0.649328	0.464556	0.049929
C72	C	-0.678047	0.526394	0.740293
C73	C	-0.678047	0.526461	0.552619
O74	O	-0.702459	0.578966	0.528360
N75	N	-0.649328	0.464773	0.529144
C76	C	-0.620605	0.403067	0.552590
O77	O	-0.596174	0.350606	0.528317
C78	C	-0.620602	0.403006	0.740262
C79	C	-0.649326	0.464692	0.763735
C80	C	-0.706768	0.588075	0.763765
C81	C	-0.706769	0.588054	0.810681
C82	C	-0.678049	0.526352	0.834123
C83	C	-0.649327	0.464670	0.810651
C84	C	-0.591876	0.341306	0.763707
C85	C	-0.591877	0.341298	0.810628
C86	C	-0.620602	0.402984	0.834101
C87	C	-0.620608	0.402947	0.881009
N88	N	-0.649328	0.464635	0.904484
C89	C	-0.678048	0.526338	0.881041
C90	C	-0.620609	0.403103	0.454059
C91	C	-0.620610	0.403117	0.407142
C92	C	-0.678052	0.526512	0.407174
C93	C	-0.678053	0.526492	0.454093
C94	C	-0.649328	0.464791	0.477535
C95	C	-0.678049	0.526288	0.979567
C96	C	-0.678049	0.526259	1.026487
C97	C	-0.620605	0.402868	1.026450
C98	C	-0.620606	0.402893	0.979535
C99	C	-0.649330	0.464611	0.956094
O100	O	-0.596206	0.350477	0.905297
O101	O	-0.702468	0.578806	0.905323
C102	C	-0.678045	0.526415	0.693377
C103	C	-0.649324	0.464734	0.669904
C104	C	-0.620603	0.403031	0.693347
C105	C	-0.649325	0.464748	0.622986
C106	C	-0.678045	0.526450	0.599544
C107	C	-0.706764	0.588139	0.623019
C108	C	-0.706766	0.588118	0.669934
C109	C	-0.591884	0.341343	0.669871
C110	C	-0.591886	0.341368	0.622956
C111	C	-0.620606	0.403071	0.599513
H112	H	-0.393177	0.576922	0.268599
O113	O	-0.706014	0.586353	0.384418
C114	C	-0.750795	0.565314	0.395917
H115	H	-0.753084	0.488255	0.408824
H116	H	-0.762529	0.617033	0.423151
C117	C	-0.777959	0.671210	0.338400
C118	C	-0.780771	0.576562	0.354250
H119	H	-0.796450	0.678152	0.312699
H120	H	-0.747789	0.685387	0.330654
H121	H	-0.787737	0.714298	0.361099
H122	H	-0.770988	0.533477	0.331553
H123	H	-0.810940	0.562378	0.361991
O124	O	-0.592641	0.343204	0.476776
C125	C	-0.547864	0.364293	0.465281
H126	H	-0.546934	0.401398	0.431215
H127	H	-0.532718	0.413860	0.491674
C128	C	-0.521811	0.224677	0.504928
C129	C	-0.520668	0.270242	0.463086
H130	H	-0.505035	0.166664	0.503575
H131	H	-0.551979	0.210470	0.512674
H132	H	-0.509190	0.265993	0.526918
H133	H	-0.533294	0.228931	0.441097
H134	H	-0.490503	0.284440	0.455336
O135	O	0.183027	0.343117	0.160123
C136	C	0.210141	0.280880	0.185745
H137	H	0.217148	0.314992	0.219767
H138	H	0.192055	0.209402	0.190732
C139	C	0.246118	0.221473	0.119253
C140	C	0.254727	0.263374	0.161038
H141	H	0.273621	0.210670	0.104012
H142	H	0.227850	0.263401	0.101991
H143	H	0.231046	0.161913	0.123415
H144	H	0.269794	0.322938	0.156876
H145	H	0.272999	0.221456	0.178299
H146	H	-0.262479	0.638722	0.297289
H147	H	-0.730156	0.638349	0.689042
O148	O	-0.032893	0.281367	0.131313
C149	C	-0.044320	0.302327	0.086521
H150	H	-0.078378	0.339418	0.085562
H151	H	-0.017896	0.351860	0.071346
C152	C	-0.004661	0.162651	0.060563
C153	C	-0.046493	0.208200	0.059385
H154	H	-0.006000	0.104590	0.043823
H155	H	0.003039	0.148531	0.090740
H156	H	0.017354	0.203938	0.047918
H157	H	-0.068507	0.166917	0.072035
H158	H	-0.054198	0.222311	0.029209
H159	H	-0.036615	0.638739	0.297310
O160	O	-0.173758	0.648531	0.301818
C161	C	-0.204548	0.703025	0.327132
H162	H	-0.237977	0.706283	0.308722
H163	H	-0.209565	0.667812	0.361281
C164	C	-0.145186	0.801718	0.356134
C165	C	-0.186244	0.805726	0.333520
H166	H	-0.133896	0.865067	0.360076
H167	H	-0.124443	0.765002	0.339080
H168	H	-0.149373	0.772369	0.384589
H169	H	-0.182056	0.835063	0.305064
H170	H	-0.206987	0.842449	0.350569
H171	H	-0.597223	0.352628	1.045546
H172	H	-0.478229	0.352752	0.164512
H173	H	-0.121635	0.291017	0.135876
H174	H	-0.121733	0.638737	0.297305
H175	H	0.094175	0.352827	0.164566
H176	H	-0.568496	0.291127	0.603848
H177	H	0.094109	0.577009	0.268638
H178	H	0.179231	0.577012	0.268644
O179	O	-0.266061	0.281375	0.131296
C180	C	-0.254550	0.302303	0.086506
H181	H	-0.241644	0.379356	0.084177
H182	H	-0.227311	0.250555	0.074809
C183	C	-0.312056	0.196343	0.059386
C184	C	-0.296208	0.290984	0.056525
H185	H	-0.337752	0.189357	0.040891
H186	H	-0.319811	0.182240	0.089562
H187	H	-0.289353	0.153231	0.049639
H188	H	-0.318909	0.334094	0.066277
H189	H	-0.288459	0.305094	0.026350
H190	H	-0.177285	0.290990	0.135870
H191	H	-0.597225	0.352875	0.388034
O192	O	-0.705974	0.586104	0.956753
C193	C	-0.735008	0.531208	0.929645
H194	H	-0.719174	0.458112	0.922602
H195	H	-0.768300	0.520601	0.947753
C196	C	-0.762590	0.674091	0.893734
C197	C	-0.743140	0.584316	0.885081
H198	H	-0.767608	0.706851	0.866246
H199	H	-0.743030	0.711076	0.911998
H200	H	-0.790330	0.665239	0.908825
H201	H	-0.715398	0.593169	0.869996
H202	H	-0.762696	0.547333	0.866813
H203	H	-0.568485	0.291077	0.744604
O204	O	-0.705966	0.586276	1.049218
C205	C	-0.731321	0.640724	1.018462
H206	H	-0.712917	0.644070	0.985007
H207	H	-0.765446	0.605412	1.013495
C208	C	-0.760385	0.739271	1.077861
C209	C	-0.737778	0.743387	1.036771
H210	H	-0.764370	0.802598	1.089155
H211	H	-0.743304	0.702587	1.098582
H212	H	-0.788820	0.709840	1.073715
H213	H	-0.709342	0.772806	1.040918
H214	H	-0.754854	0.780079	1.016051
H215	H	-0.597223	0.352651	0.960422
H216	H	-0.393105	0.352754	0.164520
O217	O	-0.563959	0.281267	0.833329
C218	C	-0.538601	0.226850	0.802547
H219	H	-0.557004	0.223531	0.769115
H220	H	-0.504477	0.262172	0.797533
C221	C	-0.509537	0.128256	0.861918
C222	C	-0.532141	0.124172	0.820857
H223	H	-0.505550	0.064920	0.873213
H224	H	-0.526619	0.164920	0.882657
H225	H	-0.481102	0.157695	0.857734
H226	H	-0.560577	0.094745	0.825043
H227	H	-0.515063	0.087501	0.800119
O228	O	-0.563921	0.281445	0.692588
C229	C	-0.519143	0.302535	0.681097
H230	H	-0.518209	0.339644	0.647033
H231	H	-0.503998	0.352098	0.707494
C232	C	-0.493094	0.162913	0.720743
C233	C	-0.491948	0.208484	0.678902
H234	H	-0.476318	0.104899	0.719390
H235	H	-0.523262	0.148706	0.728486
H236	H	-0.480475	0.204225	0.742735
H237	H	-0.504572	0.167176	0.656912
H238	H	-0.461781	0.222681	0.671155
O239	O	-0.734713	0.648047	0.741067
C240	C	-0.760050	0.702494	0.771855
H241	H	-0.761603	0.662966	0.805302
H242	H	-0.743589	0.775749	0.776829
C243	C	-0.805960	0.764958	0.712506
C244	C	-0.807870	0.716406	0.753585
H245	H	-0.835456	0.773544	0.701235
H246	H	-0.788889	0.728279	0.691763
H247	H	-0.792240	0.825999	0.716656
H248	H	-0.821584	0.655362	0.749433
H249	H	-0.824944	0.753075	0.774326
O250	O	-0.481908	0.586651	0.273130
C251	C	-0.451154	0.641192	0.298439
H252	H	-0.417714	0.601687	0.300028
H253	H	-0.446144	0.714400	0.281929
C254	C	-0.510568	0.703760	0.344288
C255	C	-0.469498	0.655236	0.346244
H256	H	-0.521884	0.712428	0.373776
H257	H	-0.531288	0.667018	0.327237
H258	H	-0.506388	0.764762	0.330528
H259	H	-0.473680	0.594232	0.359999
H260	H	-0.448779	0.691969	0.363299
H261	H	-0.730158	0.638288	0.829788
O262	O	-0.734598	0.648182	0.600222
C263	C	-0.709005	0.710460	0.573055
H264	H	-0.673623	0.716401	0.587176
H265	H	-0.707457	0.680641	0.537499
C266	C	-0.774389	0.803447	0.554990
C267	C	-0.730934	0.810751	0.572336
H268	H	-0.787917	0.865310	0.554544
H269	H	-0.791633	0.761487	0.573291
H270	H	-0.773094	0.778594	0.525362
H271	H	-0.732230	0.835591	0.601965
H272	H	-0.713691	0.852717	0.554040
H273	H	-0.701443	0.576723	0.473201
