data_functionalizedCrystal
_audit_creation_method	'MofGen! by Chris Wilmer'
_symmetry_space_group_name_H-M	'P1'
_symmetry_Int_Tables_number	1
_symmetry_cell_setting	triclinic
loop_
_symmetry_equiv_pos_as_xyz
  x,y,z
_cell_length_a	14.971491
_cell_length_b	14.421503
_cell_length_c	14.971486
_cell_angle_alpha	90.004087
_cell_angle_beta	96.384818
_cell_angle_gamma	90.009490
loop_
_atom_site_label
_atom_site_type_symbol
_atom_site_fract_x
_atom_site_fract_y
_atom_site_fract_z
O1	O	1.186947	0.077152	-0.116572
O2	O	1.686947	0.577152	0.383428
O3	O	0.926548	0.077145	-0.130526
O4	O	1.426548	0.577145	0.369474
O5	O	1.063727	0.077142	0.006651
O6	O	1.563727	0.577142	0.506651
O7	O	1.049768	0.077155	-0.253749
O8	O	1.549768	0.577155	0.246251
O9	O	1.063704	-0.077081	0.006630
O10	O	1.563704	0.422919	0.506630
O11	O	0.926525	-0.077078	-0.130547
O12	O	1.426525	0.422922	0.369453
O13	O	1.186925	-0.077072	-0.116593
O14	O	1.686925	0.422928	0.383407
Cu15	Cu	1.056723	-0.091157	-0.123572
Cu16	Cu	1.556723	0.408843	0.376428
Cu17	Cu	1.056750	0.091230	-0.123547
Cu18	Cu	1.556750	0.591230	0.376453
O19	O	1.049745	-0.077069	-0.253770
O20	O	1.549745	0.422931	0.246230
C21	C	0.893212	0.000032	-0.129912
C22	C	1.393212	0.500032	0.370088
C23	C	0.793915	0.000030	-0.128039
C24	C	1.293915	0.500030	0.371961
N25	N	1.056710	-0.219438	-0.123588
N26	N	1.556710	0.280562	0.376412
C27	C	0.366222	0.084118	-0.119948
C28	C	0.866222	0.584118	0.380052
C29	C	0.459522	0.084115	-0.121704
C30	C	0.959522	0.584115	0.378296
C31	C	0.506155	0.000044	-0.122600
C32	C	1.006155	0.500044	0.377400
C33	C	0.459485	-0.084028	-0.121729
C34	C	0.959485	0.415972	0.378271
C35	C	0.366187	-0.084024	-0.119966
C36	C	0.866187	0.415976	0.380034
C37	C	0.653947	-0.084032	-0.125406
C38	C	1.153947	0.415968	0.374594
C39	C	0.747251	-0.084036	-0.127171
C40	C	1.247251	0.415964	0.372829
C41	C	0.747282	0.084107	-0.127145
C42	C	1.247282	0.584107	0.372855
C43	C	0.653984	0.084111	-0.125382
C44	C	1.153984	0.584111	0.374618
C45	C	0.607319	0.000038	-0.124513
C46	C	1.107319	0.500038	0.375487
C47	C	0.993267	-0.469090	-0.186990
C48	C	1.493267	0.030910	0.313010
C49	C	1.074109	-0.530890	-0.204439
C50	C	1.574109	-0.030890	0.295561
C51	C	1.056732	-0.408599	-0.123567
C52	C	1.556732	0.091401	0.376433
C53	C	0.975912	-0.530894	-0.106139
C54	C	1.475912	-0.030894	0.393861
C55	C	1.056746	-0.591321	-0.123548
C56	C	1.556746	-0.091321	0.376452
C57	C	1.137614	-0.469038	-0.141056
C58	C	1.637614	0.030962	0.358944
C59	C	1.039364	-0.469037	-0.042721
C60	C	1.539364	0.030963	0.457279
C61	C	1.120264	-0.530808	-0.060135
C62	C	1.620264	-0.030808	0.439865
C63	C	1.056723	-0.303338	-0.123580
C64	C	1.556723	0.196662	0.376420
C65	C	1.056764	-0.696580	-0.123534
C66	C	1.556764	-0.196580	0.376466
C67	C	1.220261	0.000043	-0.117207
C68	C	1.720261	0.500043	0.382793
C69	C	1.319557	0.000052	-0.119080
C70	C	1.819557	0.500052	0.380920
C71	C	1.063091	0.000031	0.039965
C72	C	1.563091	0.500031	0.539965
C73	C	1.061221	0.000031	0.139262
C74	C	1.561221	0.500031	0.639262
N75	N	1.056769	0.219511	-0.123524
N76	N	1.556769	0.719511	0.376476
C77	C	1.050381	0.000045	-0.287084
C78	C	1.550381	0.500045	0.212916
C79	C	1.052252	0.000050	-0.386381
C80	C	1.552252	0.500050	0.113619
C81	C	1.141810	0.000033	0.196486
C82	C	1.641810	0.500033	0.696486
C83	C	1.140046	0.000042	0.289786
C84	C	1.640046	0.500042	0.789786
C85	C	1.057693	0.000043	0.325859
C86	C	1.557693	0.500043	0.825859
C87	C	0.977098	0.000045	0.268628
C88	C	1.477098	0.500045	0.768628
C89	C	0.978862	0.000042	0.175331
C90	C	1.478862	0.500042	0.675331
C91	C	0.973427	0.000048	0.463091
C92	C	1.473427	0.500048	0.963091
C93	C	0.971663	0.000049	0.556395
C94	C	1.471663	0.500049	1.056395
C95	C	1.134611	0.000048	0.577546
C96	C	1.634611	0.500048	1.077546
C97	C	1.136375	0.000045	0.484248
C98	C	1.636375	0.500045	0.984248
C99	C	1.055780	0.000045	0.427023
C100	C	1.555780	0.500045	0.927023
H101	H	0.328259	0.152578	-0.119225
H102	H	0.828259	0.652578	0.380775
H103	H	0.785216	-0.152494	-0.127905
H104	H	1.285216	0.347506	0.372095
H105	H	0.328193	-0.152479	-0.119269
H106	H	0.828193	0.347521	0.380731
F107	F	0.509182	0.173589	-0.122624
F108	F	1.009182	0.673589	0.377376
F109	F	0.886569	-0.566410	-0.086881
F110	F	1.386569	-0.066410	0.413119
F111	F	0.604286	-0.173512	-0.124472
F112	F	1.104286	0.326488	0.375528
H113	H	1.205984	-0.441982	-0.155870
H114	H	1.705984	0.058018	0.344130
F115	F	1.093328	-0.566402	-0.293791
F116	F	1.593328	-0.066402	0.206209
F117	F	1.229462	0.000023	0.158103
F118	F	1.729462	0.500023	0.658103
H119	H	1.205670	0.000041	0.336374
H120	H	1.705670	0.500041	0.836374
H121	H	0.785280	0.152562	-0.127853
H122	H	1.285280	0.652562	0.372147
H123	H	0.904604	0.000035	0.585763
H124	H	1.404604	0.500035	1.085763
H125	H	0.616017	0.152569	-0.124659
H126	H	1.116017	0.652569	0.375341
H127	H	0.907797	0.000050	0.416500
H128	H	1.407797	0.500050	0.916500
F129	F	0.509118	-0.173503	-0.122679
F130	F	1.009118	0.326497	0.377321
H131	H	0.939652	-0.441991	-0.240668
H132	H	1.439652	0.058009	0.259332
H133	H	1.173998	-0.557737	-0.006489
H134	H	1.673998	-0.057737	0.493511
F135	F	0.889451	0.000056	0.307023
F136	F	1.389451	0.500056	0.807023
F137	F	1.020113	-0.433495	0.046605
F138	F	1.520113	0.066505	0.546605
H139	H	1.203434	0.000038	0.454880
H140	H	1.703434	0.500038	0.954880
F141	F	1.220388	0.000052	0.638449
F142	F	1.720388	0.500052	1.138449
H143	H	0.913238	0.000041	0.128739
H144	H	1.413238	0.500041	0.628739
