data_functionalizedCrystal
_audit_creation_method	'MofGen! by Chris Wilmer'
_symmetry_space_group_name_H-M	'P1'
_symmetry_Int_Tables_number	1
_symmetry_cell_setting	triclinic
loop_
_symmetry_equiv_pos_as_xyz
  x,y,z
_cell_length_a	10.540535
_cell_length_b	10.540535
_cell_length_c	9.730223
_cell_angle_alpha	89.997287
_cell_angle_beta	90.002158
_cell_angle_gamma	84.523642
loop_
_atom_site_label
_atom_site_type_symbol
_atom_site_fract_x
_atom_site_fract_y
_atom_site_fract_z
O1	O	1.685880	0.178868	-0.114219
O2	O	1.316466	0.195730	-0.114239
O3	O	1.509604	0.002592	-0.114215
O4	O	1.492742	0.372006	-0.114244
O5	O	1.509602	0.002597	0.114365
O6	O	1.316464	0.195735	0.114341
O7	O	1.685878	0.178873	0.114360
Zn8	Zn	1.501171	0.187305	0.150643
Zn9	Zn	1.501174	0.187298	-0.150521
O10	O	1.492740	0.372011	0.114336
C11	C	1.269162	0.194469	0.000048
C12	C	1.128214	0.190689	0.000041
C13	C	1.091546	0.049675	0.000058
C14	C	0.944945	0.045698	0.000590
C15	C	0.918876	0.255063	0.130329
C16	C	1.065641	0.258063	0.130425
C17	C	1.065527	0.260109	-0.129523
C18	C	0.919181	0.253588	-0.131221
C19	C	1.508340	-0.044709	0.000076
C20	C	1.504560	-0.185657	0.000077
C21	C	1.363546	-0.222325	0.000060
C22	C	1.359569	-0.368926	-0.000483
C23	C	1.568932	-0.394986	-0.130227
C24	C	1.571933	-0.248220	-0.130312
C25	C	1.573982	-0.248353	0.129636
C26	C	1.567460	-0.394699	0.131323
C27	C	1.733182	0.180134	0.000070
C28	C	1.874131	0.183913	0.000068
C29	C	1.494005	0.419311	0.000043
C30	C	1.497784	0.560260	0.000032
N31	N	1.501178	0.187308	0.356179
N32	N	1.501176	0.187284	-0.356058
C33	C	1.586722	0.101816	0.428116
C34	C	1.586718	0.101801	0.571999
C35	C	1.415624	0.272781	0.571996
C36	C	1.415622	0.272789	0.428115
C37	C	1.672278	0.016335	0.356180
C38	C	1.757830	-0.069163	0.428116
C39	C	1.757826	-0.069179	0.571999
C40	C	1.672271	0.016304	0.643946
H41	H	1.133516	-0.004478	-0.093341
H42	H	0.871517	0.356828	0.134798
Cl43	Cl	1.281337	-0.155226	-0.143957
H44	H	1.529978	-0.205900	0.228408
H45	H	1.675308	-0.225191	-0.135853
Cl46	Cl	1.487526	-0.438868	0.280113
H47	H	1.304206	-0.397372	-0.094425
Cl48	Cl	1.308073	0.380265	0.337678
Cl49	Cl	1.723247	-0.470335	0.144032
H50	H	1.105812	0.210017	0.228178
Cl51	Cl	1.672262	0.016268	0.824829
Cl52	Cl	1.101203	0.417662	0.138993
Cl53	Cl	1.308081	0.380242	0.662442
H54	H	0.887973	0.206252	0.227651
Cl55	Cl	1.131078	0.192167	-0.282015
Cl56	Cl	1.734163	-0.214100	0.131600
Cl57	Cl	1.672291	0.016355	0.175299
Cl58	Cl	0.875068	0.173623	-0.280012
Cl59	Cl	1.158633	-0.032532	0.144082
Cl60	Cl	0.899647	-0.040211	-0.143546
H61	H	0.870131	0.354461	-0.139500
H62	H	0.916492	-0.009669	0.094527
Cl63	Cl	1.279928	-0.157528	0.144262
Cl64	Cl	1.099719	0.420310	-0.131445
Cl65	Cl	1.273653	-0.414233	0.143645
Cl66	Cl	1.865363	-0.176669	0.662433
Cl67	Cl	1.497751	-0.186182	-0.281229
Cl68	Cl	1.865367	-0.176632	0.337674
H69	H	1.520120	-0.425879	-0.227551
Cl70	Cl	1.726053	-0.468098	-0.137142
