data_functionalizedCrystal
_audit_creation_method	'MofGen! by Chris Wilmer'
_symmetry_space_group_name_H-M	'P1'
_symmetry_Int_Tables_number	1
_symmetry_cell_setting	triclinic
loop_
_symmetry_equiv_pos_as_xyz
  x,y,z
_cell_length_a	15.944493
_cell_length_b	14.519709
_cell_length_c	12.996460
_cell_angle_alpha	89.999966
_cell_angle_beta	89.999729
_cell_angle_gamma	96.422406
loop_
_atom_site_label
_atom_site_type_symbol
_atom_site_fract_x
_atom_site_fract_y
_atom_site_fract_z
O1	O	0.110112	-1.223651	-0.085419
O2	O	0.610112	-0.723651	0.414581
O3	O	0.123079	-0.955148	-0.085449
O4	O	0.623079	-0.455148	0.414551
O5	O	-0.005672	-1.096760	-0.085442
O6	O	0.494328	-0.596760	0.414558
O7	O	0.238863	-1.082040	-0.085426
O8	O	0.738863	-0.582040	0.414574
O9	O	-0.005679	-1.096745	0.085692
O10	O	0.494321	-0.596745	0.585692
O11	O	0.123072	-0.955134	0.085685
O12	O	0.623072	-0.455134	0.585685
O13	O	0.110105	-1.223636	0.085715
O14	O	0.610105	-0.723636	0.585715
Cu15	Cu	0.116588	-1.089384	0.101326
Cu16	Cu	0.616588	-0.589384	0.601326
Cu17	Cu	0.116596	-1.089401	-0.101060
Cu18	Cu	0.616596	-0.589401	0.398940
O19	O	0.238856	-1.082025	0.085708
O20	O	0.738856	-0.582025	0.585708
C21	C	0.122471	-0.920783	0.000114
C22	C	0.622471	-0.420783	0.500114
C23	C	0.120660	-0.818405	0.000102
C24	C	0.620660	-0.318405	0.500102
C25	C	-0.036971	-1.096151	0.000121
C26	C	0.463029	-0.596151	0.500121
C27	C	-0.130222	-1.094347	0.000107
C28	C	0.369778	-0.594347	0.500107
C29	C	0.110713	-1.258002	0.000150
C30	C	0.610713	-0.758002	0.500150
C31	C	0.112524	-1.360380	0.000155
C32	C	0.612524	-0.860380	0.500155
C33	C	-0.365861	-1.177703	0.000136
C34	C	0.134139	-0.677703	0.500136
C35	C	-0.416491	-1.132759	-0.084246
C36	C	0.083509	-0.632759	0.415754
C37	C	-0.300948	-1.091005	0.000120
C38	C	0.199052	-0.591005	0.500120
C39	C	-0.416474	-1.132725	0.084478
C40	C	0.083526	-0.632725	0.584478
C41	C	-0.465863	-1.087783	0.000136
C42	C	0.034137	-0.587783	0.500136
C43	C	-0.350350	-1.046085	-0.084332
C44	C	0.149650	-0.546085	0.415668
C45	C	-0.350330	-1.046063	0.084468
C46	C	0.149670	-0.546063	0.584468
C47	C	-0.400926	-1.001056	0.000065
C48	C	0.099074	-0.501056	0.500065
C49	C	-0.205946	-1.092863	0.000109
C50	C	0.294054	-0.592863	0.500109
C51	C	-0.560862	-1.085918	0.000139
C52	C	-0.060862	-0.585918	0.500139
C53	C	0.270155	-1.082634	0.000143
C54	C	0.770155	-0.582634	0.500143
C55	C	0.363406	-1.084438	0.000149
C56	C	0.863406	-0.584438	0.500149
N57	N	0.116581	-1.089378	0.243673
N58	N	0.616581	-0.589378	0.743673
C59	C	0.113994	-0.443522	0.000148
C60	C	0.613994	0.056478	0.500148
C61	C	0.115845	-0.547826	0.000135
C62	C	0.615845	-0.047826	0.500135
C63	C	0.117327	-0.630960	0.000124
C64	C	0.617327	-0.130960	0.500124
C65	C	0.119178	-0.735271	0.000113
C66	C	0.619178	-0.235271	0.500113
N67	N	0.116596	-1.089414	-0.243407
N68	N	0.616596	-0.589414	0.256593
C69	C	0.116597	-1.089400	0.663487
C70	C	0.616597	-0.589400	1.163487
C71	C	0.116596	-1.089391	0.546682
C72	C	0.616596	-0.589391	1.046682
C73	C	0.116590	-1.089389	0.453584
C74	C	0.616590	-0.589389	0.953584
C75	C	0.116587	-1.089380	0.336771
C76	C	0.616587	-0.589380	0.836771
H77	H	-0.350125	-1.252382	0.000060
H78	H	0.149875	-0.752382	0.500060
Cl79	Cl	-0.305679	-0.989592	0.194604
Cl80	Cl	0.194321	-0.489592	0.694604
H81	H	-0.321580	-1.009498	-0.155747
H82	H	0.178420	-0.509498	0.344253
H83	H	-0.445381	-1.169379	-0.155578
H84	H	0.054619	-0.669379	0.344422
H85	H	-0.445355	-1.169350	0.155812
H86	H	0.054645	-0.669350	0.655812
Cl87	Cl	-0.424977	-0.885670	-0.000015
Cl88	Cl	0.075023	-0.385670	0.499985
