data_functionalizedCrystal
_audit_creation_method	'MofGen! by Chris Wilmer'
_symmetry_space_group_name_H-M	'P1'
_symmetry_Int_Tables_number	1
_symmetry_cell_setting	triclinic
loop_
_symmetry_equiv_pos_as_xyz
  x,y,z
_cell_length_a	12.837943
_cell_length_b	14.044220
_cell_length_c	11.295483
_cell_angle_alpha	94.468632
_cell_angle_beta	85.461227
_cell_angle_gamma	94.008909
loop_
_atom_site_label
_atom_site_type_symbol
_atom_site_fract_x
_atom_site_fract_y
_atom_site_fract_z
O1	O	1.404877	0.242691	-0.099010
O2	O	1.101936	0.230415	-0.099017
O3	O	1.248859	0.098158	-0.099002
O4	O	1.257954	0.374947	-0.099025
O5	O	1.235952	0.109755	0.099047
O6	O	1.089030	0.242012	0.099032
O7	O	1.391970	0.254287	0.099039
Cu8	Cu	1.239322	0.249208	0.117119
Cu9	Cu	1.254585	0.235494	-0.117097
O10	O	1.245048	0.386544	0.099024
C11	C	1.056479	0.232067	0.000007
C12	C	0.940259	0.219699	0.000005
C13	C	1.238424	0.068282	0.000023
C14	C	1.226550	-0.038016	0.000024
C15	C	0.713048	0.368378	0.000009
C16	C	0.603848	0.356763	0.000008
C17	C	0.612656	0.184853	0.000010
C18	C	0.721856	0.196469	0.000011
C19	C	0.772048	0.288234	0.000009
C20	C	0.881251	0.299849	0.000002
C21	C	0.890056	0.127940	0.000012
C22	C	0.780856	0.116324	0.000011
C23	C	1.204843	-0.232639	0.000007
C24	C	1.289060	-0.282665	0.000005
C25	C	1.276982	-0.390961	-0.000005
C26	C	1.216919	-0.124334	0.000016
C27	C	1.437428	0.252635	0.000012
C28	C	1.553649	0.265002	0.000007
C29	C	1.255482	0.416420	-0.000004
C30	C	1.267357	0.522717	-0.000013
N31	N	1.228594	0.258854	0.281854
N32	N	1.265320	0.225841	-0.281832
C33	C	1.342540	0.156351	0.531156
C34	C	1.334441	0.163648	0.655818
C35	C	1.204292	0.280740	0.655845
C36	C	1.212391	0.273443	0.531182
C37	C	1.281518	0.211247	0.468842
C38	C	1.289622	0.203956	0.344177
C39	C	1.159469	0.321042	0.344206
C40	C	1.151370	0.328339	0.468869
H41	H	0.922115	0.374569	0.000002
H42	H	1.398833	0.105716	0.480397
O43	O	1.100345	0.374423	0.283546
C44	C	1.166476	0.434275	0.211454
H45	H	1.245965	0.402532	0.192757
H46	H	1.129940	0.440318	0.123801
H47	H	1.176996	0.508373	0.259504
O48	O	1.108082	-0.278711	0.000062
C49	C	1.117415	-0.378148	0.000027
H50	H	1.194428	-0.391874	0.037512
H51	H	1.049345	-0.411054	0.057531
H52	H	1.116017	-0.411923	-0.094988
O53	O	1.385820	-0.236586	0.000072
C54	C	1.376501	-0.137150	0.000051
H55	H	1.294604	-0.119035	0.037537
H56	H	1.437079	-0.097526	0.057563
H57	H	1.390284	-0.114483	-0.094959
O58	O	1.356644	0.143385	0.283696
C59	C	1.328902	0.049021	0.314230
H60	H	1.242932	0.042990	0.348501
H61	H	1.341817	-0.002684	0.232272
H62	H	1.379524	0.030452	0.386606
H63	H	1.384129	0.118944	0.706551
O64	O	0.761874	0.457481	-0.000208
C65	C	0.831481	0.463328	-0.102764
H66	H	0.805741	0.406855	-0.174452
H67	H	0.831073	0.537465	-0.137200
H68	H	0.913912	0.450393	-0.079569
O69	O	1.137080	0.341018	0.716551
C70	C	1.063161	0.288174	0.788648
H71	H	1.096672	0.218247	0.807297
H72	H	1.044619	0.331687	0.876324
H73	H	0.988420	0.271857	0.740626
H74	H	1.095084	0.378975	0.519641
O75	O	0.546696	0.434713	-0.000049
C76	C	0.614416	0.518195	-0.000019
H77	H	0.695992	0.499083	-0.037511
H78	H	0.583533	0.571590	-0.057521
H79	H	0.618483	0.551419	0.094995
H80	H	0.938107	0.062681	0.000004
H81	H	0.739974	0.041612	0.000026
O82	O	0.563727	0.095784	-0.000027
C83	C	0.454690	0.102726	0.000014
H84	H	0.438438	0.172813	-0.037489
H85	H	0.419735	0.040051	-0.057470
H86	H	0.417729	0.100927	0.095034
