data_functionalizedCrystal
_audit_creation_method	'MofGen! by Chris Wilmer'
_symmetry_space_group_name_H-M	'P1'
_symmetry_Int_Tables_number	1
_symmetry_cell_setting	triclinic
loop_
_symmetry_equiv_pos_as_xyz
  x,y,z
_cell_length_a	12.759399
_cell_length_b	12.759401
_cell_length_c	12.759393
_cell_angle_alpha	90.022019
_cell_angle_beta	89.969069
_cell_angle_gamma	89.987863
loop_
_atom_site_label
_atom_site_type_symbol
_atom_site_fract_x
_atom_site_fract_y
_atom_site_fract_z
Zn1	Zn	-0.418299	-1.606240	-0.594110
Zn2	Zn	-0.594014	-1.606137	-0.418429
Zn3	Zn	-0.418341	-1.430546	-0.418435
Zn4	Zn	-0.593927	-1.430530	-0.594056
O5	O	-0.506145	-1.518363	-0.506257
O6	O	-0.441627	-1.753248	-0.570825
O7	O	-0.570765	-1.582808	-0.271408
O8	O	-0.271314	-1.453902	-0.441764
O9	O	-0.570724	-1.753172	-0.441753
O10	O	-0.271283	-1.582984	-0.570831
O11	O	-0.441698	-1.453802	-0.271413
O12	O	-0.441614	-1.283523	-0.441711
O13	O	-0.570575	-1.453874	-0.741084
O14	O	-0.570616	-1.283511	-0.570739
O15	O	-0.441542	-1.582968	-0.741124
O16	O	-0.741024	-1.582792	-0.441701
O17	O	-0.740960	-1.453774	-0.570733
C18	C	-0.506111	-1.245396	-0.506221
C19	C	-0.506122	-1.128619	-0.506230
C20	C	-0.438880	-0.964001	-0.439174
C21	C	-0.438860	-1.073725	-0.439165
C22	C	-0.573401	-1.073783	-0.573317
C23	C	-0.573415	-0.964061	-0.573331
C24	C	-0.314890	-1.223667	-0.401822
C25	C	-0.247623	-1.278499	-0.334727
C26	C	-0.231375	-1.242837	-0.232245
C27	C	-0.282408	-1.152344	-0.196838
C28	C	-0.349683	-1.097518	-0.263928
C29	C	-0.365912	-1.133178	-0.366425
C30	C	-0.697386	-0.814118	-0.610662
C31	C	-0.764667	-0.759289	-0.677748
C32	C	-0.780926	-0.794949	-0.780231
C33	C	-0.729910	-0.885445	-0.815634
C34	C	-0.662630	-0.940274	-0.748549
C35	C	-0.646369	-0.904606	-0.646066
C36	C	-0.779113	-1.518299	-0.506233
C37	C	-0.895889	-1.518367	-0.506258
C38	C	-0.950750	-1.585624	-0.439147
C39	C	-1.060474	-1.585691	-0.439183
C40	C	-1.060467	-1.451237	-0.573442
C41	C	-0.950745	-1.451176	-0.573412
C42	C	-1.210359	-1.709701	-0.401802
C43	C	-1.265223	-1.776948	-0.334675
C44	C	-1.229684	-1.793115	-0.232166
C45	C	-1.139282	-1.742019	-0.196763
C46	C	-1.084424	-1.674764	-0.263884
C47	C	-1.119961	-1.658618	-0.366408
C48	C	-0.800858	-1.327164	-0.610781
C49	C	-0.745997	-1.259903	-0.677898
C50	C	-0.781535	-1.243726	-0.780409
C51	C	-0.871940	-1.294803	-0.815809
C52	C	-0.926800	-1.362064	-0.748691
C53	C	-0.891256	-1.378243	-0.646181
C54	C	-0.232112	-1.518456	-0.506304
C55	C	-0.115335	-1.518496	-0.506324
C56	C	-0.506044	-1.518431	-0.780291
C57	C	-0.506001	-1.518460	-0.897067
C58	C	-0.506170	-0.792396	-0.506280
C59	C	-0.506156	-0.909173	-0.506254
C60	C	-0.573157	-1.451264	-0.951910
C61	C	-0.573118	-1.451301	-1.061635
C62	C	-0.438758	-1.585734	-1.061663
C63	C	-0.438803	-1.585702	-0.951941
C64	C	-0.696957	-1.413763	-1.211566
C65	C	-0.764104	-1.346550	-1.266412
C66	C	-0.780234	-1.244020	-1.230791
C67	C	-0.729201	-1.208681	-1.140324
C68	C	-0.662046	-1.275888	-1.085483
C69	C	-0.645936	-1.378434	-1.121103
C70	C	-0.314963	-1.623228	-0.802008
C71	C	-0.247802	-1.690431	-0.747165
C72	C	-0.231662	-1.792964	-0.782784
C73	C	-0.282676	-1.828299	-0.873254
C74	C	-0.349837	-1.761096	-0.928097
C75	C	-0.365979	-1.658564	-0.892470
C76	C	-0.506170	-1.518356	-0.233290
C77	C	-0.505917	-1.518530	-0.116514
H78	H	-0.384108	-0.919315	-0.384561
Br79	Br	-0.664357	-1.360011	-0.877442
Br80	Br	-0.592789	-1.227940	-0.962716
Br81	Br	-1.258585	-1.687784	-0.540936
H82	H	-0.771909	-1.340339	-0.527311
H83	H	-0.742330	-1.125185	-1.111336
Br84	Br	-0.871358	-1.152803	-1.305230
Br85	Br	-0.876305	-1.676812	-0.348012
H86	H	-1.110359	-1.755179	-0.113285
H87	H	-0.206071	-1.352178	-0.363565
H88	H	-0.684133	-0.785061	-0.527219
H89	H	-0.328104	-1.252705	-0.485274
H90	H	-0.391235	-1.023842	-0.235100
H91	H	-0.269183	-1.123322	-0.113383
H92	H	-0.743152	-0.914483	-0.899083
H93	H	-0.628162	-1.118486	-0.627926
Br94	Br	-0.140087	-1.317256	-0.141188
Br95	Br	-0.833362	-1.394509	-1.389182
Br96	Br	-1.134921	-1.360051	-0.664574
Br97	Br	-0.419063	-1.809046	-1.050887
Br98	Br	-0.260773	-1.967454	-0.921601
H99	H	-0.683841	-1.497256	-1.240570
Br100	Br	-0.347563	-1.676984	-1.136141
H101	H	-0.672380	-1.218320	-0.649070
H102	H	-0.328104	-1.539739	-0.772994
H103	H	-0.176961	-1.847674	-0.738129
Br104	Br	-0.178563	-1.642475	-0.624384
H105	H	-0.621090	-1.013961	-0.777382
H106	H	-1.010819	-1.633165	-0.235061
H107	H	-1.338828	-1.818551	-0.363510
Br108	Br	-0.833929	-0.636489	-0.629690
Br109	Br	-0.872247	-0.720544	-0.871273
H110	H	-1.274361	-1.847870	-0.177511
Br111	Br	-1.049496	-1.431384	-0.796732
H112	H	-0.900875	-1.281631	-0.899282
Br113	Br	-0.707131	-1.152370	-0.871469
