data_functionalizedCrystal
_audit_creation_method	'MofGen! by Chris Wilmer'
_symmetry_space_group_name_H-M	'P1'
_symmetry_Int_Tables_number	1
_symmetry_cell_setting	triclinic
loop_
_symmetry_equiv_pos_as_xyz
  x,y,z
_cell_length_a	11.792254
_cell_length_b	11.792254
_cell_length_c	9.798715
_cell_angle_alpha	89.996677
_cell_angle_beta	89.996361
_cell_angle_gamma	84.198598
loop_
_atom_site_label
_atom_site_type_symbol
_atom_site_fract_x
_atom_site_fract_y
_atom_site_fract_z
O1	O	1.506906	0.155633	-0.113491
O2	O	2.006906	0.655633	0.386509
O3	O	1.176568	0.171651	-0.113494
O4	O	1.676568	0.671651	0.386506
O5	O	1.349746	-0.001527	-0.113482
O6	O	1.849746	0.498473	0.386518
O7	O	1.333728	0.328811	-0.113502
O8	O	1.833728	0.828811	0.386498
O9	O	1.349733	-0.001528	0.113500
O10	O	1.849733	0.498472	0.613500
O11	O	1.176555	0.171650	0.113489
O12	O	1.676555	0.671650	0.613489
O13	O	1.506893	0.155632	0.113492
O14	O	2.006893	0.655632	0.613492
Zn15	Zn	1.341722	0.163641	0.149528
Zn16	Zn	1.841722	0.663641	0.649528
Zn17	Zn	1.341739	0.163642	-0.149530
Zn18	Zn	1.841739	0.663642	0.350470
O19	O	1.333715	0.328811	0.113480
O20	O	1.833715	0.828811	0.613480
C21	C	1.134271	0.170642	-0.000003
C22	C	1.634271	0.670642	0.499997
C23	C	1.008257	0.167621	-0.000004
C24	C	1.508257	0.667621	0.499996
C25	C	1.348730	-0.043818	0.000008
C26	C	1.848730	0.456182	0.500008
C27	C	1.345710	-0.169832	0.000007
C28	C	1.845710	0.330168	0.500007
C29	C	1.343256	-0.272168	0.000002
C30	C	1.843256	0.227832	0.500002
C31	C	1.340188	-0.400555	-0.000010
C32	C	1.840188	0.099445	0.499990
C33	C	0.905921	0.165168	-0.000009
C34	C	1.405921	0.665168	0.499991
C35	C	0.777534	0.162099	-0.000010
C36	C	1.277534	0.662099	0.499990
C37	C	1.549190	0.156642	-0.000002
C38	C	2.049190	0.656642	0.499998
C39	C	1.675204	0.159662	-0.000010
C40	C	2.175204	0.659662	0.499990
C41	C	1.334731	0.371102	-0.000013
C42	C	1.834731	0.871102	0.499987
C43	C	1.337751	0.497115	-0.000021
C44	C	1.837751	0.997115	0.499979
N45	N	1.341719	0.163640	0.353628
N46	N	1.841719	0.663640	0.853628
N47	N	1.341751	0.163634	-0.353630
N48	N	1.841751	0.663634	0.146370
C49	C	1.414432	0.090608	0.421410
C50	C	1.914432	0.590608	0.921410
C51	C	1.414450	0.090604	0.578572
C52	C	1.914450	0.590604	1.078572
H53	H	1.476708	0.028082	0.636862
H54	H	1.976708	0.528082	1.136862
O55	O	1.267510	0.238388	0.423041
O56	O	1.767510	0.738388	0.923041
C57	C	1.286956	0.350816	0.388244
C58	C	1.786956	0.850816	0.888244
H59	H	1.330624	0.350938	0.284454
H60	H	1.830624	0.850938	0.784454
H61	H	1.202114	0.406358	0.383517
H62	H	1.702114	0.906358	0.883517
H63	H	1.343851	0.386063	0.468622
H64	H	1.843851	0.886063	0.968622
O65	O	1.267435	0.238344	0.577062
O66	O	1.767435	0.738344	1.077062
C67	C	1.199823	0.306225	0.670626
C68	C	1.699823	0.806225	1.170626
H69	H	1.246311	0.307769	0.772508
H70	H	1.746311	0.807769	1.272508
H71	H	1.183342	0.396741	0.629235
H72	H	1.683342	0.896741	1.129235
H73	H	1.115147	0.269056	0.685792
H74	H	1.615147	0.769056	1.185792
O75	O	1.488865	0.016062	0.352026
O76	O	1.988865	0.516062	0.852026
C77	C	1.601430	0.034975	0.386827
C78	C	2.101430	0.534975	0.886827
H79	H	1.601736	0.078648	0.490597
H80	H	2.101736	0.578648	0.990597
H81	H	1.656595	-0.050087	0.391603
H82	H	2.156595	0.449913	0.891603
H83	H	1.636981	0.091655	0.306427
H84	H	2.136981	0.591655	0.806427
