data_functionalizedCrystal
_audit_creation_method	'MofGen! by Chris Wilmer'
_symmetry_space_group_name_H-M	'P1'
_symmetry_Int_Tables_number	1
_symmetry_cell_setting	triclinic
loop_
_symmetry_equiv_pos_as_xyz
  x,y,z
_cell_length_a	14.971494
_cell_length_b	16.109302
_cell_length_c	14.048226
_cell_angle_alpha	89.991597
_cell_angle_beta	89.995286
_cell_angle_gamma	83.539669
loop_
_atom_site_label
_atom_site_type_symbol
_atom_site_fract_x
_atom_site_fract_y
_atom_site_fract_z
O1	O	0.114976	1.103280	-0.079200
O2	O	0.129283	0.861236	-0.079192
O3	O	-0.008079	0.988742	-0.079194
O4	O	0.252339	0.975775	-0.079198
O5	O	-0.008087	0.988727	0.079128
O6	O	0.129275	0.861221	0.079130
O7	O	0.114968	1.103265	0.079122
Zn8	Zn	0.122120	0.982241	0.104263
Zn9	Zn	0.122131	0.982261	-0.104333
O10	O	0.252330	0.975759	0.079124
C11	C	0.128700	0.830253	-0.000030
C12	C	0.126962	0.737956	-0.000027
C13	C	-0.041407	0.988153	-0.000035
C14	C	-0.140701	0.986412	-0.000039
C15	C	0.122939	0.525601	0.086264
C16	C	0.121296	0.438879	0.086261
C17	C	0.121310	0.438906	-0.086350
C18	C	0.122946	0.525628	-0.086345
C19	C	0.123765	0.568972	-0.000035
C20	C	0.120486	0.395529	-0.000043
C21	C	0.118705	0.301501	-0.000047
C22	C	0.125544	0.663007	-0.000031
C23	C	-0.187340	0.985604	-0.086341
C24	C	-0.280637	0.983962	-0.086342
C25	C	-0.327294	0.983134	-0.000040
C26	C	-0.280648	0.983939	0.086269
C27	C	-0.187352	0.985575	0.086269
C28	C	-0.475106	0.980532	0.086262
C29	C	-0.568408	0.978898	0.086263
C30	C	-0.568391	0.978919	-0.086348
C31	C	-0.475095	0.980554	-0.086348
C32	C	-0.428456	0.981361	-0.000039
C33	C	0.285658	0.976348	-0.000038
C34	C	0.384952	0.978090	-0.000040
C35	C	0.115552	1.134248	-0.000042
C36	C	0.117290	1.226546	-0.000051
N37	N	0.122112	0.982233	0.246623
N38	N	0.122132	0.982275	-0.246693
C39	C	0.061313	1.038710	0.296440
C40	C	0.061313	1.038716	0.396098
C41	C	0.122116	0.982247	0.445937
C42	C	0.182918	0.925764	0.396113
C43	C	0.182914	0.925755	0.296457
C44	C	0.182925	0.925788	0.603827
C45	C	0.182931	0.925798	0.703490
C46	C	0.061324	1.038749	0.703468
C47	C	0.061319	1.038740	0.603812
C48	C	0.122123	0.982257	0.553995
H49	H	0.123606	0.560890	0.156543
C50	C	-0.005567	1.100858	0.548992
N51	N	-0.055950	1.147644	0.507701
H52	H	0.011816	1.084738	0.744035
C53	C	0.249795	0.863640	0.450939
N54	N	0.300167	0.816847	0.492233
C55	C	-0.619728	0.977981	0.181199
N56	N	-0.658382	0.977289	0.252707
H57	H	0.123616	0.560942	-0.156625
C58	C	-0.331973	0.983023	0.181202
N59	N	-0.370630	0.982334	0.252708
C60	C	0.120416	0.391218	-0.181285
N61	N	0.119746	0.355300	-0.252793
H62	H	-0.149360	0.986282	-0.156618
C63	C	0.120398	0.391174	0.181198
N64	N	0.119724	0.355242	0.252709
C65	C	-0.331947	0.983150	-0.181281
N66	N	-0.370596	0.982565	-0.252794
H67	H	-0.149378	0.986221	0.156545
H68	H	-0.437111	0.981235	-0.156623
H69	H	-0.606369	0.978260	-0.156624
H70	H	-0.437133	0.981171	0.156544
C71	C	-0.005577	1.100830	0.241627
N72	N	-0.055964	1.147619	0.200344
C73	C	0.249812	0.863675	0.758310
N74	N	0.300187	0.816882	0.799601
C75	C	0.249805	0.863632	0.241658
N76	N	0.300189	0.816840	0.200386
H77	H	0.011805	1.084703	0.436659
H78	H	0.232435	0.879791	0.563269
