data_functionalizedCrystal
_audit_creation_method	'MofGen! by Chris Wilmer'
_symmetry_space_group_name_H-M	'P1'
_symmetry_Int_Tables_number	1
_symmetry_cell_setting	triclinic
loop_
_symmetry_equiv_pos_as_xyz
  x,y,z
_cell_length_a	12.837943
_cell_length_b	13.596369
_cell_length_c	14.519709
_cell_angle_alpha	89.993066
_cell_angle_beta	90.745458
_cell_angle_gamma	90.004014
loop_
_atom_site_label
_atom_site_type_symbol
_atom_site_fract_x
_atom_site_fract_y
_atom_site_fract_z
O1	O	1.375899	0.081778	-0.239787
O2	O	1.875899	0.581778	0.260213
O3	O	1.074072	0.081784	-0.227942
O4	O	1.574072	0.581784	0.272058
O5	O	1.232988	0.081772	-0.100318
O6	O	1.732988	0.581772	0.399682
O7	O	1.216983	0.081790	-0.367412
O8	O	1.716983	0.581790	0.132588
O9	O	1.232972	-0.081811	-0.100309
O10	O	1.732972	0.418189	0.399691
O11	O	1.074056	-0.081799	-0.227933
O12	O	1.574056	0.418201	0.272067
O13	O	1.375884	-0.081804	-0.239778
O14	O	1.875884	0.418196	0.260222
Zn15	Zn	1.224967	-0.107774	-0.233854
Zn16	Zn	1.724967	0.392226	0.266146
Zn17	Zn	1.224988	0.107754	-0.233866
Zn18	Zn	1.724988	0.607754	0.266134
O19	O	1.216967	-0.081793	-0.367403
O20	O	1.716967	0.418207	0.132597
C21	C	1.035436	-0.000007	-0.223936
C22	C	1.535436	0.499993	0.276064
C23	C	0.920337	-0.000005	-0.212002
C24	C	1.420337	0.499995	0.287998
N25	N	1.224961	-0.254866	-0.233846
N26	N	1.724961	0.245134	0.266154
C27	C	0.679644	-0.000009	-0.355473
C28	C	1.179644	0.499991	0.144527
C29	C	0.571498	-0.000008	-0.344264
C30	C	1.071498	0.499992	0.155736
C31	C	0.595895	-0.000009	-0.178376
C32	C	1.095895	0.499991	0.321624
C33	C	0.704041	-0.000010	-0.189585
C34	C	1.204041	0.499990	0.310415
C35	C	0.745912	-0.000009	-0.278136
C36	C	1.245912	0.499991	0.221864
C37	C	0.854061	-0.000003	-0.289344
C38	C	1.354061	0.499997	0.210656
C39	C	0.878456	-0.000010	-0.123458
C40	C	1.378456	0.499990	0.376542
C41	C	0.770309	-0.000009	-0.112249
C42	C	1.270309	0.499991	0.387751
C43	C	1.224987	-0.656157	-0.233867
C44	C	1.724987	-0.156157	0.266133
C45	C	1.224976	-0.544505	-0.233864
C46	C	1.724976	-0.044505	0.266136
C47	C	1.224974	-0.455515	-0.233857
C48	C	1.724974	0.044485	0.266143
C49	C	1.224963	-0.343856	-0.233853
C50	C	1.724963	0.156144	0.266147
C51	C	1.414519	-0.000011	-0.243784
C52	C	1.914519	0.499989	0.256216
C53	C	1.529619	-0.000007	-0.255718
C54	C	2.029619	0.499993	0.244282
C55	C	1.232234	-0.000019	-0.065889
C56	C	1.732234	0.499981	0.434111
C57	C	1.229999	-0.000020	0.036685
C58	C	1.729999	0.499980	0.536685
N59	N	1.225003	0.254845	-0.233867
N60	N	1.725003	0.754845	0.266133
C61	C	1.217721	0.000001	-0.401831
C62	C	1.717721	0.500001	0.098169
C63	C	1.219956	0.000008	-0.504406
C64	C	1.719956	0.500008	-0.004406
C65	C	1.221770	0.000006	0.412292
C66	C	1.721770	0.500006	0.912292
C67	C	1.224055	-0.000002	0.307787
C68	C	1.724055	0.499998	0.807787
C69	C	1.225884	-0.000008	0.224492
C70	C	1.725884	0.499992	0.724492
C71	C	1.228170	-0.000014	0.119980
C72	C	1.728170	0.499986	0.619980
H73	H	0.888149	-0.000003	-0.361447
H74	H	1.388149	0.499997	0.138553
H75	H	0.713736	-0.000007	-0.427574
H76	H	1.213736	0.499993	0.072426
H77	H	0.932423	-0.000003	-0.060484
H78	H	1.432423	0.499997	0.439516
H79	H	0.517545	-0.000012	-0.407239
H80	H	1.017545	0.499988	0.092761
H81	H	0.561784	-0.000091	-0.106282
H82	H	1.061784	0.499909	0.393718
H83	H	0.736203	-0.000022	-0.040153
H84	H	1.236203	0.499978	0.459847
