data_functionalizedCrystal
_audit_creation_method	'MofGen! by Chris Wilmer'
_symmetry_space_group_name_H-M	'P1'
_symmetry_Int_Tables_number	1
_symmetry_cell_setting	triclinic
loop_
_symmetry_equiv_pos_as_xyz
  x,y,z
_cell_length_a	27.732046
_cell_length_b	27.732048
_cell_length_c	26.210047
_cell_angle_alpha	90.003465
_cell_angle_beta	90.001831
_cell_angle_gamma	82.642317
loop_
_atom_site_label
_atom_site_type_symbol
_atom_site_fract_x
_atom_site_fract_y
_atom_site_fract_z
O1	O	-0.057510	-0.640931	-0.042370
O2	O	0.275823	-0.307597	0.290963
O3	O	0.609157	0.025736	0.624297
O4	O	-0.066256	-0.500137	-0.042387
O5	O	0.267078	-0.166804	0.290947
O6	O	0.600411	0.166529	0.624280
O7	O	0.008514	-0.574907	-0.042366
O8	O	0.341847	-0.241574	0.290967
O9	O	0.675181	0.091759	0.624300
O10	O	-0.132280	-0.566161	-0.042390
O11	O	0.201054	-0.232828	0.290943
O12	O	0.534387	0.100506	0.624276
O13	O	0.008502	-0.574893	0.042492
O14	O	0.341836	-0.241559	0.375825
O15	O	0.675169	0.091774	0.709158
O16	O	-0.066267	-0.500123	0.042472
O17	O	0.267066	-0.166790	0.375805
O18	O	0.600399	0.166544	0.709138
O19	O	-0.057522	-0.640916	0.042488
O20	O	0.275812	-0.307583	0.375821
O21	O	0.609145	0.025750	0.709155
Cu22	Cu	-0.061896	-0.570518	0.050228
Cu23	Cu	0.271438	-0.237185	0.383561
Cu24	Cu	0.604771	0.096148	0.716895
Cu25	Cu	-0.061882	-0.570535	-0.050127
Cu26	Cu	0.271452	-0.237202	0.283207
Cu27	Cu	0.604785	0.096131	0.616540
O28	O	-0.132291	-0.566146	0.042468
O29	O	0.201042	-0.232813	0.375801
O30	O	0.534375	0.100520	0.709134
C31	C	0.026515	-0.574717	0.000065
C32	C	0.359848	-0.241383	0.333398
C33	C	0.693182	0.091950	0.666731
C34	C	0.080170	-0.574164	0.000070
C35	C	0.413503	-0.240831	0.333403
C36	C	0.746837	0.092503	0.666737
C37	C	-0.066078	-0.482123	0.000041
C38	C	0.267256	-0.148790	0.333374
C39	C	0.600589	0.184544	0.666707
C40	C	-0.065525	-0.428468	0.000035
C41	C	0.267808	-0.095135	0.333368
C42	C	0.601142	0.238198	0.666701
C43	C	-0.057699	-0.658931	0.000060
C44	C	0.275634	-0.325597	0.333393
C45	C	0.608967	0.007736	0.666726
C46	C	-0.058252	-0.712585	0.000062
C47	C	0.275081	-0.379252	0.333395
C48	C	0.608414	-0.045919	0.666729
C49	C	0.418985	-0.614870	0.000057
C50	C	0.752319	-0.281537	0.333390
C51	C	1.085652	0.051797	0.666724
C52	C	0.620645	-0.612820	0.000055
C53	C	0.953978	-0.279487	0.333388
C54	C	1.287312	0.053847	0.666721
O55	O	0.651901	-0.650041	0.000037
O56	O	0.985234	-0.316708	0.333371
O57	O	1.318567	0.016626	0.666704
N58	N	0.639769	-0.568485	0.000050
N59	N	0.973102	-0.235152	0.333384
N60	N	1.306436	0.098182	0.666717
C61	C	0.608474	-0.524659	0.000044
C62	C	0.941808	-0.191326	0.333377
C63	C	1.275141	0.142007	0.666710
O64	O	0.629367	-0.486902	0.000035
O65	O	0.962701	-0.153569	0.333368
O66	O	1.296034	0.179764	0.666701
C67	C	0.406815	-0.526710	0.000042
C68	C	0.740149	-0.193376	0.333376
C69	C	1.073482	0.139957	0.666709
C70	C	0.387695	-0.571047	0.000052
C71	C	0.721028	-0.237714	0.333385
C72	C	1.054361	0.095619	0.666718
C73	C	0.399864	-0.659204	0.000066
C74	C	0.733197	-0.325871	0.333399
C75	C	1.066531	0.007462	0.666732
C76	C	0.349452	-0.659716	0.000069
C77	C	0.682785	-0.326383	0.333402
C78	C	1.016119	0.006950	0.666736
C79	C	0.318161	-0.615894	0.000064
C80	C	0.651495	-0.282560	0.333397
C81	C	0.984828	0.050773	0.666730
C82	C	0.337283	-0.571559	0.000055
C83	C	0.670616	-0.238226	0.333388
C84	C	1.003949	0.095107	0.666722
C85	C	0.375522	-0.482884	0.000032
C86	C	0.708855	-0.149551	0.333365
C87	C	1.042188	0.183782	0.666698
C88	C	0.325104	-0.483401	0.000030
C89	C	0.658438	-0.150067	0.333363
C90	C	0.991771	0.183266	0.666697
C91	C	0.305984	-0.527739	0.000039
C92	C	0.639317	-0.194405	0.333373
C93	C	0.972650	0.138928	0.666706
C94	C	0.255580	-0.528249	0.000053
C95	C	0.588913	-0.194916	0.333386
C96	C	0.922247	0.138418	0.666720
N97	N	0.236456	-0.572584	0.000057
N98	N	0.569790	-0.239251	0.333390
N99	N	0.903123	0.094083	0.666724
C100	C	0.267747	-0.616406	0.000062
C101	C	0.601080	-0.283073	0.333396
C102	C	0.934414	0.050260	0.666729
C103	C	0.714348	-0.523586	0.000045
C104	C	1.047682	-0.190253	0.333379
C105	C	1.381015	0.143081	0.666712
C106	C	0.764763	-0.523073	0.000046
C107	C	1.098096	-0.189740	0.333380
C108	C	1.431430	0.143593	0.666713
C109	C	0.776930	-0.611234	0.000057
C110	C	1.110264	-0.277901	0.333390
C111	C	1.443597	0.055432	0.666723
C112	C	0.726515	-0.611746	0.000059
C113	C	1.059848	-0.278413	0.333392
C114	C	1.393182	0.054920	0.666726
C115	C	0.695225	-0.567921	0.000049
C116	C	1.028558	-0.234588	0.333383
C117	C	1.361891	0.098746	0.666716
C118	C	0.161878	-0.617478	0.000070
C119	C	0.495211	-0.284145	0.333403
C120	C	0.828544	0.049188	0.666737
C121	C	0.111461	-0.617986	0.000075
C122	C	0.444794	-0.284653	0.333409
C123	C	0.778127	0.048680	0.666742
C124	C	0.099298	-0.529826	0.000063
C125	C	0.432631	-0.196492	0.333396
C126	C	0.765964	0.136841	0.666729
C127	C	0.149710	-0.529317	0.000060
C128	C	0.483044	-0.195984	0.333393
C129	C	0.816377	0.137349	0.666726
C130	C	0.180999	-0.573148	0.000062
C131	C	0.514333	-0.239814	0.333395
C132	C	0.847666	0.093519	0.666728
O133	O	0.224296	-0.491048	0.000064
O134	O	0.557629	-0.157715	0.333398
O135	O	0.890963	0.175619	0.666731
O136	O	0.246844	-0.654158	0.000060
O137	O	0.580178	-0.320824	0.333393
O138	O	0.913511	0.012509	0.666727
C139	C	0.469397	-0.614358	0.000054
C140	C	0.802731	-0.281025	0.333387
C141	C	1.136064	0.052309	0.666720
C142	C	0.488519	-0.570024	0.000045
C143	C	0.821852	-0.236690	0.333378
C144	C	1.155185	0.096643	0.666711
C145	C	0.457228	-0.526201	0.000039
C146	C	0.790561	-0.192868	0.333373
C147	C	1.123895	0.140466	0.666706
C148	C	0.538933	-0.569511	0.000046
C149	C	0.872266	-0.236177	0.333379
C150	C	1.205600	0.097156	0.666713
C151	C	0.570224	-0.613333	0.000051
C152	C	0.903557	-0.280000	0.333385
C153	C	1.236890	0.053333	0.666718
C154	C	0.551100	-0.657668	0.000056
C155	C	0.884433	-0.324335	0.333389
C156	C	1.217767	0.008998	0.666722
C157	C	0.500688	-0.658180	0.000059
C158	C	0.834021	-0.324847	0.333392
C159	C	1.167355	0.008486	0.666726
C160	C	0.476352	-0.481866	0.000035
C161	C	0.809685	-0.148533	0.333369
C162	C	1.143018	0.184801	0.666702
C163	C	0.526764	-0.481358	0.000032
C164	C	0.860098	-0.148024	0.333366
C165	C	1.193431	0.185309	0.666699
C166	C	0.558055	-0.525180	0.000038
C167	C	0.891388	-0.191847	0.333371
C168	C	1.224722	0.141487	0.666705
C169	C	0.849708	-0.566339	0.000042
C170	C	1.183041	-0.233005	0.333375
C171	C	1.516374	0.100328	0.666709
C172	C	0.796054	-0.566896	0.000052
C173	C	1.129387	-0.233562	0.333385
C174	C	1.462720	0.099771	0.666719
N175	N	-0.061905	-0.570510	0.120812
N176	N	0.271428	-0.237176	0.454145
N177	N	0.604762	0.096157	0.787479
C178	C	-0.106229	-0.089653	0.000050
C179	C	0.227104	0.243680	0.333383
C180	C	0.560438	0.577014	0.666717
C181	C	-0.104178	0.112007	0.000055
C182	C	0.229155	0.445340	0.333388
C183	C	0.562489	0.778673	0.666722
O184	O	-0.141399	0.143263	0.000071
O185	O	0.191935	0.476596	0.333404
O186	O	0.525268	0.809929	0.666737
N187	N	-0.059843	0.131130	0.000062
N188	N	0.273491	0.464463	0.333395
N189	N	0.606824	0.797797	0.666728
C190	C	-0.016017	0.099835	0.000070
C191	C	0.317316	0.433169	0.333404
C192	C	0.650650	0.766502	0.666737
O193	O	0.021740	0.120728	0.000081
O194	O	0.355073	0.454061	0.333415
O195	O	0.688407	0.787395	0.666748
C196	C	-0.018069	-0.101823	0.000069
C197	C	0.315265	0.231510	0.333402
C198	C	0.648598	0.564843	0.666736
C199	C	-0.062407	-0.120944	0.000057
C200	C	0.270927	0.212389	0.333391
C201	C	0.604260	0.545723	0.666724
C202	C	-0.150563	-0.108774	0.000039
C203	C	0.182770	0.224559	0.333372
C204	C	0.516103	0.557893	0.666705
C205	C	-0.151076	-0.159186	0.000035
C206	C	0.182258	0.174147	0.333368
C207	C	0.515591	0.507481	0.666701
C208	C	-0.107253	-0.190477	0.000042
C209	C	0.226080	0.142856	0.333375
C210	C	0.559413	0.476190	0.666709
C211	C	-0.062919	-0.171356	0.000053
C212	C	0.270414	0.161978	0.333387
C213	C	0.603748	0.495311	0.666720
C214	C	0.025757	-0.133117	0.000081
C215	C	0.359090	0.200216	0.333415
C216	C	0.692423	0.533549	0.666748
C217	C	0.025240	-0.183535	0.000082
C218	C	0.358573	0.149799	0.333416
C219	C	0.691906	0.483132	0.666749
C220	C	-0.019098	-0.202655	0.000071
C221	C	0.314235	0.130678	0.333404
C222	C	0.647568	0.464012	0.666737
C223	C	-0.019609	-0.253059	0.000056
C224	C	0.313724	0.080275	0.333390
C225	C	0.647058	0.413608	0.666723
N226	N	-0.063944	-0.272182	0.000050
N227	N	0.269389	0.061151	0.333383
N228	N	0.602723	0.394484	0.666716
C229	C	-0.107766	-0.240891	0.000043
C230	C	0.225567	0.092442	0.333376
C231	C	0.558900	0.425775	0.666709
C232	C	-0.014943	0.205709	0.000070
C233	C	0.318390	0.539043	0.333403
C234	C	0.651724	0.872376	0.666737
C235	C	-0.014430	0.256124	0.000069
C236	C	0.318903	0.589457	0.333403
C237	C	0.652237	0.922790	0.666736
C238	C	-0.102591	0.268292	0.000055
C239	C	0.230742	0.601625	0.333388
C240	C	0.564076	0.934958	0.666722
C241	C	-0.103104	0.217876	0.000052
C242	C	0.230230	0.551210	0.333385
C243	C	0.563563	0.884543	0.666719
C244	C	-0.059278	0.186586	0.000063
C245	C	0.274055	0.519919	0.333397
C246	C	0.607388	0.853252	0.666730
C247	C	-0.108839	-0.346760	0.000034
C248	C	0.224494	-0.013427	0.333367
C249	C	0.557828	0.319906	0.666700
C250	C	-0.109347	-0.397177	0.000028
C251	C	0.223986	-0.063844	0.333361
C252	C	0.557319	0.269489	0.666694
C253	C	-0.021186	-0.409341	0.000045
C254	C	0.312147	-0.076008	0.333378
C255	C	0.645480	0.257326	0.666711
C256	C	-0.020678	-0.358928	0.000048
C257	C	0.312656	-0.025595	0.333381
C258	C	0.645989	0.307738	0.666715
C259	C	-0.064508	-0.327639	0.000044
C260	C	0.268825	0.005694	0.333378
C261	C	0.602159	0.339028	0.666711
O262	O	0.017592	-0.284343	0.000046
O263	O	0.350925	0.048990	0.333380
O264	O	0.684259	0.382324	0.666713
O265	O	-0.145518	-0.261794	0.000043
O266	O	0.187816	0.071540	0.333376
O267	O	0.521149	0.404873	0.666710
C268	C	-0.105717	-0.039241	0.000054
C269	C	0.227617	0.294092	0.333387
C270	C	0.560950	0.627426	0.666721
C271	C	-0.061382	-0.020120	0.000065
C272	C	0.271951	0.313213	0.333399
C273	C	0.605285	0.646547	0.666732
C274	C	-0.017560	-0.051411	0.000072
C275	C	0.315774	0.281922	0.333406
C276	C	0.649107	0.615256	0.666739
C277	C	-0.060869	0.030294	0.000065
C278	C	0.272464	0.363628	0.333398
C279	C	0.605798	0.696961	0.666731
C280	C	-0.104691	0.061585	0.000057
C281	C	0.228642	0.394919	0.333391
C282	C	0.561975	0.728252	0.666724
C283	C	-0.149027	0.042462	0.000051
C284	C	0.184307	0.375795	0.333384
C285	C	0.517640	0.709129	0.666717
C286	C	-0.149539	-0.007950	0.000047
C287	C	0.183795	0.325383	0.333380
C288	C	0.517128	0.658717	0.666713
C289	C	0.026775	-0.032287	0.000079
C290	C	0.360109	0.301046	0.333412
C291	C	0.693442	0.634379	0.666746
C292	C	0.027284	0.018125	0.000083
C293	C	0.360617	0.351458	0.333416
C294	C	0.693951	0.684792	0.666749
C295	C	-0.016538	0.049416	0.000075
C296	C	0.316795	0.382749	0.333409
C297	C	0.650129	0.716083	0.666742
N298	N	-0.061869	-0.570548	-0.120710
N299	N	0.271465	-0.237214	0.212623
N300	N	0.604798	0.096119	0.545956
C301	C	-0.028781	-0.603640	0.473335
C302	C	0.304552	-0.270307	0.806668
C303	C	0.637885	0.063027	1.140002
C304	C	-0.028774	-0.603651	0.686993
C305	C	0.304559	-0.270317	1.020327
C306	C	0.637892	0.063016	1.353660
O307	O	-0.000614	-0.631801	0.714623
O308	O	0.332720	-0.298467	1.047956
O309	O	0.666053	0.034866	1.381290
N310	N	-0.061871	-0.570538	0.713706
N311	N	0.271462	-0.237205	1.047039
N312	N	0.604796	0.096129	1.380372
C313	C	-0.094970	-0.537418	0.687000
C314	C	0.238364	-0.204085	1.020334
C315	C	0.571697	0.129249	1.353667
O316	O	-0.123117	-0.509251	0.714623
O317	O	0.210216	-0.175917	1.047957
O318	O	0.543550	0.157416	1.381290
C319	C	-0.094974	-0.537406	0.473343
C320	C	0.238360	-0.204072	0.806676
C321	C	0.571693	0.129261	1.140009
C322	C	-0.061878	-0.570524	0.446633
C323	C	0.271455	-0.237190	0.779966
C324	C	0.604788	0.096143	1.113300
C325	C	0.004312	-0.636755	0.446625
C326	C	0.337645	-0.303422	0.779959
C327	C	0.670979	0.029911	1.113292
C328	C	0.004308	-0.636754	0.393214
C329	C	0.337642	-0.303421	0.726547
C330	C	0.670975	0.029913	1.059880
C331	C	-0.028789	-0.603638	0.366512
C332	C	0.304545	-0.270304	0.699845
C333	C	0.637878	0.063029	1.033179
C334	C	-0.061882	-0.570522	0.393222
C335	C	0.271451	-0.237189	0.726555
C336	C	0.604785	0.096144	1.059888
C337	C	-0.128070	-0.504284	0.446638
C338	C	0.205264	-0.170950	0.779971
C339	C	0.538597	0.162383	1.113305
C340	C	-0.128067	-0.504283	0.393220
C341	C	0.205266	-0.170949	0.726554
C342	C	0.538600	0.162384	1.059887
C343	C	-0.094971	-0.537401	0.366511
C344	C	0.238362	-0.204068	0.699844
C345	C	0.571695	0.129266	1.033177
C346	C	-0.094983	-0.537405	0.313108
C347	C	0.238351	-0.204071	0.646442
C348	C	0.571684	0.129262	0.979775
N349	N	-0.061886	-0.570518	0.286396
N350	N	0.271447	-0.237184	0.619729
N351	N	0.604780	0.096149	0.953063
C352	C	-0.028789	-0.603634	0.313098
C353	C	0.304544	-0.270301	0.646431
C354	C	0.637878	0.063033	0.979764
C355	C	-0.094966	-0.537428	0.799174
C356	C	0.238367	-0.204094	1.132507
C357	C	0.571701	0.129239	1.465840
C358	C	-0.094966	-0.537431	0.852588
C359	C	0.238368	-0.204098	1.185921
C360	C	0.571701	0.129235	1.519254
C361	C	-0.028770	-0.603664	0.852577
C362	C	0.304564	-0.270330	1.185911
C363	C	0.637897	0.063003	1.519244
C364	C	-0.028773	-0.603662	0.799162
C365	C	0.304561	-0.270328	1.132495
C366	C	0.637894	0.063005	1.465829
C367	C	-0.061869	-0.570540	0.772461
C368	C	0.271464	-0.237207	1.105795
C369	C	0.604797	0.096126	1.439128
C370	C	-0.028800	-0.603629	0.200930
C371	C	0.304533	-0.270296	0.534263
C372	C	0.637867	0.063038	0.867597
C373	C	-0.028808	-0.603626	0.147514
C374	C	0.304525	-0.270293	0.480847
C375	C	0.637859	0.063040	0.814180
C376	C	-0.095002	-0.537393	0.147529
C377	C	0.238331	-0.204059	0.480862
C378	C	0.571665	0.129274	0.814195
C379	C	-0.094996	-0.537397	0.200940
C380	C	0.238337	-0.204064	0.534274
C381	C	0.571671	0.129270	0.867607
C382	C	-0.061891	-0.570517	0.227640
C383	C	0.271443	-0.237184	0.560973
C384	C	0.604776	0.096150	0.894306
O385	O	-0.123125	-0.509266	0.285446
O386	O	0.210208	-0.175933	0.618779
O387	O	0.543541	0.157401	0.952112
O388	O	-0.000639	-0.631790	0.285466
O389	O	0.332694	-0.298457	0.618799
O390	O	0.666028	0.034877	0.952132
C391	C	-0.028777	-0.603641	0.526746
C392	C	0.304556	-0.270308	0.860080
C393	C	0.637889	0.063025	1.193413
C394	C	-0.061871	-0.570526	0.553456
C395	C	0.271463	-0.237193	0.886789
C396	C	0.604796	0.096140	1.220123
C397	C	-0.094968	-0.537410	0.526754
C398	C	0.238366	-0.204076	0.860087
C399	C	0.571699	0.129257	1.193421
C400	C	-0.061870	-0.570530	0.606870
C401	C	0.271463	-0.237196	0.940203
C402	C	0.604796	0.096137	1.273537
C403	C	-0.028773	-0.603646	0.633572
C404	C	0.304560	-0.270313	0.966905
C405	C	0.637893	0.063020	1.300239
C406	C	0.004323	-0.636759	0.606860
C407	C	0.337657	-0.303426	0.940193
C408	C	0.670990	0.029908	1.273526
C409	C	0.004320	-0.636758	0.553448
C410	C	0.337653	-0.303424	0.886781
C411	C	0.670986	0.029909	1.220115
C412	C	-0.128064	-0.504297	0.553466
C413	C	0.205269	-0.170964	0.886800
C414	C	0.538602	0.162370	1.220133
C415	C	-0.128058	-0.504301	0.606878
C416	C	0.205275	-0.170968	0.940211
C417	C	0.538608	0.162365	1.273545
C418	C	-0.094961	-0.537418	0.633580
C419	C	0.238372	-0.204084	0.966913
C420	C	0.571705	0.129249	1.300246
H421	H	0.095896	-0.654093	0.000084
H422	H	0.429229	-0.320760	0.333418
H423	H	0.762562	0.012573	0.666751
H424	H	-0.155013	-0.477333	0.628621
H425	H	0.178320	-0.144000	0.961955
H426	H	0.511654	0.189333	1.295288
H427	H	0.425337	-0.694892	0.000068
H428	H	0.758670	-0.361558	0.333402
H429	H	1.092003	-0.028225	0.666735
H430	H	0.710951	-0.647850	0.000066
H431	H	1.044284	-0.314517	0.333400
H432	H	1.377617	0.018816	0.666733
O433	O	-0.145192	0.298644	0.000118
O434	O	0.188141	0.631977	0.333452
O435	O	0.521475	0.965311	0.666785
C436	C	-0.172130	0.290042	0.044072
C437	C	0.161203	0.623375	0.377406
C438	C	0.494536	0.956708	0.710739
H439	H	-0.159975	0.251706	0.058724
H440	H	0.173358	0.585040	0.392057
H441	H	0.506691	0.918373	0.725390
H442	H	-0.212473	0.293891	0.034187
H443	H	0.120860	0.627224	0.367520
H444	H	0.454194	0.960557	0.700853
H445	H	-0.165726	0.317571	0.074848
H446	H	0.167607	0.650905	0.408181
H447	H	0.500940	0.984238	0.741514
O448	O	-0.127168	-0.505235	0.773319
O449	O	0.206166	-0.171902	1.106652
O450	O	0.539499	0.161431	1.439986
C451	C	-0.156368	-0.476007	0.808356
C452	C	0.176965	-0.142674	1.141690
C453	C	0.510299	0.190660	1.475023
H454	H	-0.156771	-0.495827	0.846427
H455	H	0.176563	-0.162494	1.179760
H456	H	0.509896	0.170839	1.513093
H457	H	-0.195026	-0.468341	0.792929
H458	H	0.138308	-0.135008	1.126263
H459	H	0.471641	0.198325	1.459596
H460	H	-0.140920	-0.440218	0.814044
H461	H	0.192413	-0.106884	1.147378
H462	H	0.525746	0.226449	1.480711
O463	O	-0.160265	-0.472109	0.527612
O464	O	0.173068	-0.138776	0.860945
O465	O	0.506402	0.194558	1.194278
C466	C	-0.189464	-0.442879	0.562648
C467	C	0.143870	-0.109545	0.895982
C468	C	0.477203	0.223788	1.229315
H469	H	-0.189864	-0.462697	0.600721
H470	H	0.143469	-0.129363	0.934054
H471	H	0.476803	0.203970	1.267387
H472	H	-0.228122	-0.435215	0.547223
H473	H	0.105211	-0.101882	0.880557
H474	H	0.438544	0.231452	1.213890
H475	H	-0.174017	-0.407089	0.568332
H476	H	0.159317	-0.073755	0.901665
H477	H	0.492650	0.259578	1.234999
O478	O	0.545358	-0.438297	0.000113
O479	O	0.878692	-0.104963	0.333447
O480	O	1.212025	0.228370	0.666780
C481	C	0.574170	-0.435351	0.044050
C482	C	0.907504	-0.102017	0.377384
C483	C	1.240837	0.231316	0.710717
H484	H	0.562438	-0.460511	0.074777
H485	H	0.895771	-0.127178	0.408111
H486	H	1.229104	0.206156	0.741444
H487	H	0.569358	-0.396354	0.058791
H488	H	0.902692	-0.063021	0.392124
H489	H	1.236025	0.270312	0.725458
H490	H	0.614013	-0.446804	0.034112
H491	H	0.947346	-0.113470	0.367445
H492	H	1.280680	0.219863	0.700778
H493	H	-0.185643	-0.023513	0.000038
H494	H	0.147690	0.309820	0.333371
H495	H	0.481023	0.643154	0.666705
O496	O	0.446009	-0.439263	-0.000035
O497	O	0.779343	-0.105929	0.333298
O498	O	1.112676	0.227404	0.666632
C499	C	0.454618	-0.412333	-0.043992
C500	C	0.787952	-0.078999	0.289341
C501	C	1.121285	0.254334	0.622674
H502	H	0.492950	-0.424503	-0.058648
H503	H	0.826283	-0.091169	0.274685
H504	H	1.159616	0.242164	0.608018
H505	H	0.450786	-0.371989	-0.034109
H506	H	0.784119	-0.038656	0.299224
H507	H	1.117452	0.294677	0.632557
H508	H	0.427082	-0.418728	-0.074764
H509	H	0.760416	-0.085395	0.258570
H510	H	1.093749	0.247938	0.591903
H511	H	-0.145454	-0.412742	0.000018
H512	H	0.187879	-0.079409	0.333351
H513	H	0.521212	0.253925	0.666684
H514	H	0.063392	0.033688	0.000088
H515	H	0.396726	0.367021	0.333421
H516	H	0.730059	0.700354	0.666755
H517	H	-0.144530	-0.321290	0.000032
H518	H	0.188804	0.012043	0.333366
H519	H	0.522137	0.345377	0.666699
O520	O	-0.191628	0.072814	0.000112
O521	O	0.141706	0.406147	0.333445
O522	O	0.475039	0.739481	0.666778
C523	C	-0.218570	0.064211	0.044062
C524	C	0.114763	0.397544	0.377396
C525	C	0.448097	0.730877	0.710729
H526	H	-0.206416	0.025875	0.058714
H527	H	0.126917	0.359208	0.392047
H528	H	0.460250	0.692542	0.725381
H529	H	-0.258912	0.068059	0.034173
H530	H	0.074421	0.401393	0.367506
H531	H	0.407755	0.734726	0.700839
H532	H	-0.212169	0.091740	0.074840
H533	H	0.121164	0.425073	0.408173
H534	H	0.454498	0.758406	0.741506
O535	O	0.192199	-0.660099	0.000096
O536	O	0.525532	-0.326765	0.333430
O537	O	0.858865	0.006568	0.666763
C538	C	0.164502	-0.699334	0.000092
C539	C	0.497835	-0.366001	0.333426
C540	C	0.831169	-0.032667	0.666759
H541	H	0.126783	-0.686767	0.016156
H542	H	0.460116	-0.353433	0.349490
H543	H	0.793449	-0.020100	0.682823
H544	H	0.183320	-0.730012	0.024734
H545	H	0.516653	-0.396679	0.358068
H546	H	0.849986	-0.063345	0.691401
H547	H	0.161008	-0.712950	-0.040616
H548	H	0.494341	-0.379617	0.292718
H549	H	0.827674	-0.046284	0.626051
O550	O	-0.160263	-0.472176	0.472599
O551	O	0.173070	-0.138843	0.805933
O552	O	0.506403	0.194491	1.139266
C553	C	-0.189906	-0.497828	0.503506
C554	C	0.143427	-0.164494	0.836839
C555	C	0.476760	0.168839	1.170172
H556	H	-0.190467	-0.535942	0.487411
H557	H	0.142867	-0.202609	0.820744
H558	H	0.476200	0.130725	1.154078
H559	H	-0.228462	-0.477811	0.504108
H560	H	0.104872	-0.144477	0.837441
H561	H	0.438205	0.188856	1.170775
H562	H	-0.174762	-0.500473	0.543988
H563	H	0.158571	-0.167140	0.877322
H564	H	0.491905	0.166194	1.210655
H565	H	0.333889	-0.695821	0.000075
H566	H	0.667222	-0.362487	0.333408
H567	H	1.000556	-0.029154	0.666741
H568	H	-0.001842	-0.630598	0.222662
H569	H	0.331491	-0.297265	0.555996
H570	H	0.664825	0.036069	0.889329
H571	H	0.031266	-0.663723	0.468361
H572	H	0.364599	-0.330389	0.801694
H573	H	0.697932	0.002944	1.135028
O574	O	-0.146204	0.199363	-0.000024
O575	O	0.187129	0.532696	0.333309
O576	O	0.520463	0.866030	0.666642
C577	C	-0.172881	0.215373	-0.043985
C578	C	0.160452	0.548706	0.289348
C579	C	0.493786	0.882039	0.622681
H580	H	-0.159967	0.250242	-0.058637
H581	H	0.173366	0.583575	0.274696
H582	H	0.506700	0.916909	0.608030
H583	H	-0.213190	0.222672	-0.034109
H584	H	0.120144	0.556005	0.299225
H585	H	0.453477	0.889339	0.632558
H586	H	-0.167059	0.186151	-0.074757
H587	H	0.166275	0.519484	0.258576
H588	H	0.499608	0.852818	0.591910
O589	O	0.022361	-0.340296	0.000124
O590	O	0.355695	-0.006962	0.333457
O591	O	0.689028	0.326371	0.666790
C592	C	0.025296	-0.311512	0.044085
C593	C	0.358629	0.021821	0.377418
C594	C	0.691963	0.355155	0.710751
H595	H	-0.012900	-0.298674	0.058730
H596	H	0.320433	0.034659	0.392064
H597	H	0.653766	0.367993	0.725397
H598	H	0.044317	-0.278637	0.034210
H599	H	0.377650	0.054696	0.367544
H600	H	0.710984	0.388030	0.700877
H601	H	0.046845	-0.333948	0.074860
H602	H	0.380178	-0.000615	0.408193
H603	H	0.713511	0.332718	0.741527
O604	O	-0.194113	-0.177818	0.000088
O605	O	0.139220	0.155515	0.333422
O606	O	0.472554	0.488849	0.666755
C607	C	-0.197066	-0.206606	0.044039
C608	C	0.136268	0.126727	0.377372
C609	C	0.469601	0.460060	0.710705
H610	H	-0.158875	-0.219443	0.058703
H611	H	0.174458	0.113890	0.392036
H612	H	0.507791	0.447223	0.725370
H613	H	-0.216080	-0.239482	0.034144
H614	H	0.117254	0.093851	0.367477
H615	H	0.450587	0.427185	0.700810
H616	H	-0.218629	-0.184174	0.074808
H617	H	0.114704	0.149159	0.408142
H618	H	0.448037	0.482493	0.741475
O619	O	0.021336	-0.439810	0.000076
O620	O	0.354670	-0.106477	0.333409
O621	O	0.688003	0.226856	0.666743
C622	C	0.011371	-0.488406	0.000060
C623	C	0.344704	-0.155072	0.333394
C624	C	0.678037	0.178261	0.666727
H625	H	-0.026587	-0.490055	0.016114
H626	H	0.306746	-0.156721	0.349447
H627	H	0.640080	0.176612	0.682781
H628	H	0.039318	-0.511453	0.024706
H629	H	0.372652	-0.178120	0.358039
H630	H	0.705985	0.155213	0.691372
H631	H	0.013323	-0.503005	-0.040650
H632	H	0.346657	-0.169671	0.292684
H633	H	0.679990	0.163662	0.626017
H634	H	0.165279	-0.493214	0.000066
H635	H	0.498612	-0.159880	0.333400
H636	H	0.831946	0.173453	0.666733
H637	H	-0.186251	-0.083301	0.000035
H638	H	0.147083	0.250032	0.333368
H639	H	0.480416	0.583365	0.666701
O640	O	0.069391	-0.062611	0.000062
O641	O	0.402724	0.270722	0.333395
O642	O	0.736058	0.604056	0.666728
C643	C	0.108627	-0.034915	0.000082
C644	C	0.441960	0.298418	0.333415
C645	C	0.775294	0.631751	0.666749
H646	H	0.096065	0.002805	-0.015981
H647	H	0.429399	0.336138	0.317352
H648	H	0.762732	0.669472	0.650686
H649	H	0.139312	-0.053732	-0.024553
H650	H	0.472646	0.279601	0.308780
H651	H	0.805979	0.612934	0.642114
H652	H	0.122231	-0.031424	0.040795
H653	H	0.455565	0.301910	0.374128
H654	H	0.788898	0.635243	0.707461
O655	O	0.028683	0.274614	0.000097
O656	O	0.362016	0.607947	0.333431
O657	O	0.695349	0.941280	0.666764
C658	C	0.067248	0.236179	0.000092
C659	C	0.400581	0.569512	0.333425
C660	C	0.733914	0.902846	0.666759
H661	H	0.053953	0.202029	0.016154
H662	H	0.387286	0.535362	0.349488
H663	H	0.720620	0.868696	0.682821
H664	H	0.098223	0.246487	0.024735
H665	H	0.431556	0.579820	0.358068
H666	H	0.764890	0.913154	0.691401
H667	H	0.080752	0.228942	-0.040616
H668	H	0.414086	0.562275	0.292717
H669	H	0.747419	0.895609	0.626050
O670	O	-0.160266	-0.472090	0.367363
O671	O	0.173067	-0.138757	0.700696
O672	O	0.506400	0.194576	1.034030
C673	C	-0.189465	-0.442855	0.402396
C674	C	0.143868	-0.109522	0.735729
C675	C	0.477201	0.223811	1.069063
H676	H	-0.189871	-0.462671	0.440469
H677	H	0.143462	-0.129338	0.773802
H678	H	0.476796	0.203995	1.107136
H679	H	-0.228122	-0.435188	0.386967
H680	H	0.105211	-0.101855	0.720301
H681	H	0.438544	0.231479	1.053634
H682	H	-0.174014	-0.407068	0.408080
H683	H	0.159319	-0.073734	0.741413
H684	H	0.492653	0.259599	1.074747
H685	H	-0.121950	-0.510434	0.222688
H686	H	0.211383	-0.177100	0.556021
H687	H	0.544717	0.156233	0.889354
O688	O	-0.127169	-0.505290	0.121528
O689	O	0.206164	-0.171956	0.454862
O690	O	0.539498	0.161377	0.788195
C691	C	-0.156822	-0.530948	0.090636
C692	C	0.176511	-0.197614	0.423969
C693	C	0.509844	0.135719	0.757303
H694	H	-0.137314	-0.568919	0.082636
H695	H	0.196020	-0.235585	0.415969
H696	H	0.529353	0.097748	0.749302
H697	H	-0.164601	-0.510716	0.053074
H698	H	0.168732	-0.177383	0.386408
H699	H	0.502065	0.155951	0.719741
H700	H	-0.192530	-0.533956	0.111216
H701	H	0.140804	-0.200623	0.444549
H702	H	0.474137	0.132710	0.777883
H703	H	0.031259	-0.663720	0.371470
H704	H	0.364592	-0.330387	0.704803
H705	H	0.697925	0.002946	1.038137
O706	O	0.027601	0.175269	0.000008
O707	O	0.360934	0.508602	0.333341
O708	O	0.694268	0.841935	0.666675
C709	C	0.029956	0.145749	-0.043948
C710	C	0.363289	0.479082	0.289386
C711	C	0.696623	0.812416	0.622719
H712	H	-0.008390	0.143471	-0.058603
H713	H	0.324943	0.476805	0.274730
H714	H	0.658277	0.810138	0.608064
H715	H	0.048258	0.107725	-0.034063
H716	H	0.381592	0.441059	0.299270
H717	H	0.714925	0.774392	0.632604
H718	H	0.051904	0.162179	-0.074720
H719	H	0.385237	0.495513	0.258613
H720	H	0.718570	0.828846	0.591946
H721	H	0.031269	-0.663726	0.531705
H722	H	0.364602	-0.330392	0.865038
H723	H	0.697936	0.002941	1.198372
H724	H	0.802416	-0.646916	0.000061
H725	H	1.135749	-0.313583	0.333395
H726	H	1.469083	0.019751	0.666728
H727	H	0.780326	-0.486969	0.000048
H728	H	1.113659	-0.153635	0.333381
H729	H	1.446993	0.179698	0.666714
O730	O	0.684025	-0.480966	0.000063
O731	O	1.017358	-0.147633	0.333396
O732	O	1.350691	0.185700	0.666730
C733	C	0.711721	-0.441731	0.000049
C734	C	1.045055	-0.108398	0.333382
C735	C	1.378388	0.224936	0.666715
H736	H	0.749441	-0.454293	0.016114
H737	H	1.082775	-0.120960	0.349448
H738	H	1.416108	0.212374	0.682781
H739	H	0.692905	-0.411045	0.024684
H740	H	1.026238	-0.077712	0.358017
H741	H	1.359571	0.255622	0.691351
H742	H	0.715213	-0.428127	-0.040663
H743	H	1.048547	-0.094794	0.292671
H744	H	1.381880	0.238539	0.626004
H745	H	0.031271	-0.663725	0.628609
H746	H	0.364604	-0.330392	0.961942
H747	H	0.697937	0.002941	1.295276
O748	O	0.003391	-0.635816	0.121648
O749	O	0.336724	-0.302483	0.454981
O750	O	0.670057	0.030850	0.788314
C751	C	0.032595	-0.665052	0.156674
C752	C	0.365929	-0.331718	0.490007
C753	C	0.699262	0.001615	0.823340
H754	H	0.033005	-0.645237	0.194750
H755	H	0.366339	-0.311904	0.528083
H756	H	0.699672	0.021429	0.861417
H757	H	0.071251	-0.672716	0.141241
H758	H	0.404584	-0.339383	0.474574
H759	H	0.737917	-0.006050	0.807908
H760	H	0.017147	-0.700841	0.162353
H761	H	0.350480	-0.367507	0.495687
H762	H	0.683814	-0.034174	0.829020
H763	H	0.391081	-0.446780	0.000021
H764	H	0.724414	-0.113446	0.333354
H765	H	1.057747	0.219887	0.666688
H766	H	0.299630	-0.447712	0.000021
H767	H	0.632963	-0.114379	0.333355
H768	H	0.966296	0.218955	0.666688
H769	H	0.073812	-0.494147	0.000060
H770	H	0.407145	-0.160813	0.333393
H771	H	0.740478	0.172520	0.666727
H772	H	0.061861	-0.117559	0.000091
H773	H	0.395195	0.215775	0.333425
H774	H	0.728528	0.549108	0.666758
O775	O	0.003425	-0.635849	0.773298
O776	O	0.336759	-0.302515	1.106631
O777	O	0.670092	0.030818	1.439964
C778	C	0.032625	-0.665086	0.808326
C779	C	0.365959	-0.331752	1.141659
C780	C	0.699292	0.001581	1.474993
H781	H	0.033031	-0.645273	0.846403
H782	H	0.366365	-0.311939	1.179737
H783	H	0.699698	0.021394	1.513070
H784	H	0.071282	-0.672751	0.792898
H785	H	0.404616	-0.339417	1.126232
H786	H	0.737949	-0.006084	1.459565
H787	H	0.017176	-0.700875	0.814001
H788	H	0.350509	-0.367541	1.147334
H789	H	0.683842	-0.034208	1.480668
H790	H	0.485125	-0.694285	0.000066
H791	H	0.818458	-0.360951	0.333400
H792	H	1.151792	-0.027618	0.666733
O793	O	0.581521	-0.700225	-0.000031
O794	O	0.914854	-0.366892	0.333302
O795	O	1.248187	-0.033559	0.666636
C796	C	0.611051	-0.702561	-0.043975
C797	C	0.944384	-0.369228	0.289358
C798	C	1.277718	-0.035894	0.622692
H799	H	0.592399	-0.677707	-0.074693
H800	H	0.925732	-0.344374	0.258640
H801	H	1.259065	-0.011040	0.591974
H802	H	0.617010	-0.741542	-0.058725
H803	H	0.950344	-0.408209	0.274608
H804	H	1.283677	-0.074876	0.607941
H805	H	0.647622	-0.690323	-0.034042
H806	H	0.980956	-0.356989	0.299291
H807	H	1.314289	-0.023656	0.632624
H808	H	0.060929	-0.209010	0.000092
H809	H	0.394262	0.124324	0.333425
H810	H	0.727595	0.457657	0.666759
H811	H	-0.001821	-0.630629	0.874327
H812	H	0.331512	-0.297296	1.207660
H813	H	0.664845	0.036038	1.540993
H814	H	-0.121920	-0.510469	0.874331
H815	H	0.211413	-0.177135	1.207664
H816	H	0.544747	0.156198	1.540998
