data_functionalizedCrystal
_audit_creation_method	'MofGen! by Chris Wilmer'
_symmetry_space_group_name_H-M	'P1'
_symmetry_Int_Tables_number	1
_symmetry_cell_setting	triclinic
loop_
_symmetry_equiv_pos_as_xyz
  x,y,z
_cell_length_a	14.971486
_cell_length_b	9.065218
_cell_length_c	14.048226
_cell_angle_alpha	89.995444
_cell_angle_beta	89.998499
_cell_angle_gamma	84.315007
loop_
_atom_site_label
_atom_site_type_symbol
_atom_site_fract_x
_atom_site_fract_y
_atom_site_fract_z
O1	O	1.188380	0.192261	-0.079047
O2	O	0.928151	0.215285	-0.079073
O3	O	1.063645	-0.010979	-0.079057
O4	O	1.052887	0.418524	-0.079062
O5	O	1.063628	-0.010992	0.079264
O6	O	0.928135	0.215271	0.079249
O7	O	1.188363	0.192248	0.079274
Zn8	Zn	1.058246	0.203758	0.104398
Zn9	Zn	1.058268	0.203775	-0.104197
O10	O	1.052870	0.418511	0.079259
C11	C	0.894811	0.214248	0.000085
C12	C	0.795491	0.211163	0.000075
C13	C	0.739256	0.344086	0.000075
C14	C	0.645935	0.341178	0.000089
C15	C	0.608850	0.205345	0.000097
C16	C	0.665092	0.072412	0.000100
C17	C	0.758411	0.075321	0.000092
C18	C	0.470584	0.066357	0.000113
C19	C	0.377259	0.063446	0.000118
C20	C	0.358108	0.332214	0.000110
C21	C	0.451427	0.335123	0.000102
C22	C	0.507663	0.202189	0.000103
C23	C	1.062602	-0.065951	0.000102
C24	C	1.059511	-0.229731	0.000097
C25	C	1.221704	0.193284	0.000115
C26	C	1.321024	0.196370	0.000118
C27	C	1.053912	0.473483	0.000098
C28	C	1.057004	0.637264	0.000097
N29	N	1.058238	0.203745	0.246759
N30	N	1.058284	0.203776	-0.246557
C31	C	1.118254	0.103597	0.296584
C32	C	1.118260	0.103596	0.396242
C33	C	1.058254	0.203751	0.446073
C34	C	0.998231	0.303904	0.396241
C35	C	0.998222	0.303896	0.296585
C36	C	0.998257	0.303915	0.603955
C37	C	0.998268	0.303924	0.703618
C38	C	1.118295	0.103614	0.703612
C39	C	1.118286	0.103607	0.603956
C40	C	1.058264	0.203762	0.554131
H41	H	0.769442	0.454697	0.000068
C42	C	0.693402	-0.192960	0.000109
C43	C	0.624332	-0.076902	0.000107
H44	H	0.668238	-0.285140	0.000117
H45	H	0.729399	-0.186229	-0.055099
H46	H	0.729403	-0.186229	0.055322
H47	H	0.588335	-0.083626	-0.055110
H48	H	0.588320	-0.083635	0.055321
H49	H	1.167128	0.022047	0.436808
C50	C	0.874474	-0.077313	-0.081298
C51	C	0.820232	-0.070789	0.000089
H52	H	0.912642	-0.167515	-0.081292
H53	H	0.837669	-0.072869	-0.136496
H54	H	0.909907	0.004010	-0.081292
H55	H	0.784793	-0.152107	0.000080
H56	H	0.857041	-0.075247	0.055301
H57	H	1.167151	0.022060	0.563383
C58	C	1.239679	0.071809	0.184447
C59	C	1.184174	-0.006535	0.241789
H60	H	1.280365	0.003801	0.150619
H61	H	1.203934	0.131475	0.140532
H62	H	1.272392	0.133267	0.223307
H63	H	1.151455	-0.067985	0.202929
H64	H	1.219922	-0.066226	0.285710
H65	H	0.949369	0.385447	0.436819
H66	H	1.167166	0.022064	0.744185
C67	C	0.879594	0.501875	0.693620
C68	C	0.932292	0.413988	0.758395
H69	H	0.838857	0.569811	0.727439
H70	H	0.917237	0.555071	0.654747
H71	H	0.846937	0.440343	0.654753
H72	H	0.964954	0.475519	0.797257
H73	H	0.894644	0.360788	0.797283
C74	C	0.980455	0.504632	0.491865
C75	C	0.932284	0.414005	0.549181
H76	H	0.939728	0.572590	0.458045
H77	H	1.018109	0.557802	0.530733
H78	H	1.016188	0.444961	0.447932
H79	H	0.896556	0.473676	0.593118
H80	H	0.894615	0.360830	0.510310
C81	C	0.206556	0.447109	0.000125
C82	C	0.296297	0.478340	0.000110
H83	H	0.168396	0.537319	0.000126
H84	H	0.195199	0.391423	-0.055076
H85	H	0.195209	0.391423	0.055345
H86	H	0.307645	0.534017	-0.055115
H87	H	0.307659	0.534049	0.055316
H88	H	0.481618	0.445730	0.000087
C89	C	0.636379	0.607131	0.000066
C90	C	0.584121	0.487293	0.000084
H91	H	0.598216	0.697338	0.000059
H92	H	0.673177	0.602676	0.055269
H93	H	0.673173	0.602662	-0.055152
H94	H	0.547332	0.491756	0.055307
H95	H	0.547307	0.491750	-0.055124
C96	C	0.405557	-0.201929	0.000142
C97	C	0.336493	-0.085862	0.000132
H98	H	0.380388	-0.294105	0.000156
H99	H	0.441555	-0.195213	-0.055066
H100	H	0.441558	-0.195196	0.055355
H101	H	0.300496	-0.092589	-0.055084
H102	H	0.300479	-0.092581	0.055346
C103	C	0.879590	0.501908	0.306595
C104	C	0.932255	0.413989	0.241814
H105	H	0.838867	0.569878	0.272780
H106	H	0.846927	0.440411	0.345472
H107	H	0.917263	0.555078	0.345455
H108	H	0.894582	0.360810	0.202957
H109	H	0.964921	0.475494	0.202920
H110	H	0.516370	-0.041893	0.000115
