data_functionalizedCrystal
_audit_creation_method	'MofGen! by Chris Wilmer'
_symmetry_space_group_name_H-M	'P1'
_symmetry_Int_Tables_number	1
_symmetry_cell_setting	triclinic
loop_
_symmetry_equiv_pos_as_xyz
  x,y,z
_cell_length_a	10.654550
_cell_length_b	16.109301
_cell_length_c	9.730223
_cell_angle_alpha	89.994178
_cell_angle_beta	89.999957
_cell_angle_gamma	83.973206
loop_
_atom_site_label
_atom_site_type_symbol
_atom_site_fract_x
_atom_site_fract_y
_atom_site_fract_z
O1	O	1.666255	0.116774	-0.114192
O2	O	1.300625	0.127899	-0.114218
O3	O	1.493484	0.001365	-0.114190
O4	O	1.473396	0.243308	-0.114220
O5	O	1.493472	0.001362	0.114390
O6	O	1.300613	0.127896	0.114362
O7	O	1.666243	0.116770	0.114388
Zn8	Zn	1.483426	0.122333	0.150667
Zn9	Zn	1.483442	0.122337	-0.150497
O10	O	1.473384	0.243304	0.114360
C11	C	1.253832	0.127081	0.000069
C12	C	1.114422	0.124637	0.000060
C13	C	1.033926	0.199138	0.000054
C14	C	0.902936	0.196836	0.000079
C15	C	0.932952	0.045526	0.000107
C16	C	1.063939	0.047828	0.000093
C17	C	1.492664	-0.029616	0.000100
C18	C	1.490225	-0.121926	0.000102
C19	C	1.598991	-0.343552	0.000088
C20	C	1.596689	-0.430286	0.000076
C21	C	1.367868	-0.411772	0.000066
C22	C	1.370172	-0.325039	0.000067
C23	C	1.485737	-0.290932	0.000085
C24	C	1.481131	-0.464398	0.000072
C25	C	1.478634	-0.558439	0.000060
C26	C	1.488234	-0.196885	0.000095
C27	C	1.713036	0.117589	0.000098
C28	C	1.852446	0.120033	0.000098
C29	C	1.474203	0.274286	0.000067
C30	C	1.476643	0.366596	0.000056
N31	N	1.483424	0.122329	0.356203
N32	N	1.483454	0.122334	-0.356033
C33	C	1.568851	0.066324	0.428141
C34	C	1.568863	0.066324	0.572024
C35	C	1.398018	0.178342	0.572018
C36	C	1.398001	0.178337	0.428138
H37	H	1.075024	0.261680	0.000038
C38	C	1.152496	-0.034129	0.000096
C39	C	1.146878	-0.096860	0.118803
C40	C	1.235433	-0.178813	0.118812
C41	C	1.329606	-0.198035	0.000115
C42	C	1.335228	-0.135302	-0.118601
C43	C	1.246672	-0.053349	-0.118611
H44	H	1.077162	-0.082632	0.206678
H45	H	1.231272	-0.225251	0.206694
H46	H	1.395160	-0.258701	0.000121
H47	H	1.404943	-0.149530	-0.206477
H48	H	1.250834	-0.006911	-0.206493
H49	H	1.328430	0.223944	0.369562
C50	C	1.726109	-0.306032	0.000094
C51	C	1.850686	-0.363917	0.000089
C52	C	1.977807	-0.326400	0.000091
C53	C	1.980351	-0.230999	0.000097
C54	C	1.855769	-0.173108	0.000102
C55	C	1.728648	-0.210625	0.000101
H56	H	1.848806	-0.434544	0.000084
H57	H	2.070031	-0.369255	0.000087
H58	H	2.074454	-0.203227	0.000099
H59	H	1.857649	-0.102482	0.000107
H60	H	1.636425	-0.167770	0.000104
C61	C	1.662804	0.004710	0.349012
C62	C	1.756766	-0.056899	0.428151
C63	C	1.850719	-0.118517	0.349027
C64	C	1.850711	-0.118526	0.190764
C65	C	1.756746	-0.056916	0.111617
C66	C	1.662792	0.004702	0.190741
H67	H	1.756775	-0.056893	0.545315
H68	H	1.920278	-0.164125	0.407618
H69	H	1.920261	-0.164140	0.132192
H70	H	1.756736	-0.056921	-0.005547
H71	H	1.593233	0.050310	0.132150
C72	C	1.721272	-0.488167	0.000084
C73	C	1.815966	-0.483888	0.118790
C74	C	1.940555	-0.541769	0.118795
C75	C	1.970450	-0.603929	0.000095
C76	C	1.875754	-0.608210	-0.118620
C77	C	1.751164	-0.550329	-0.118625
H78	H	1.793838	-0.437872	0.206666
H79	H	2.010655	-0.538599	0.206675
H80	H	2.062678	-0.646776	0.000098
H81	H	1.897881	-0.654226	-0.206497
H82	H	1.681064	-0.553499	-0.206506
H83	H	0.837401	0.257503	0.000077
H84	H	1.277941	-0.282194	0.000061
H85	H	0.891833	-0.017009	0.000143
C86	C	1.240754	-0.449296	0.000059
C87	C	1.146681	-0.429742	0.118750
C88	C	1.019565	-0.467265	0.118747
C89	C	0.986522	-0.524343	0.000053
C90	C	1.080598	-0.543899	-0.118646
C91	C	1.207714	-0.506376	-0.118643
H92	H	1.171139	-0.387487	0.206621
H93	H	0.949924	-0.452788	0.206617
H94	H	0.892424	-0.552120	0.000051
H95	H	1.056140	-0.586154	-0.206518
H96	H	1.277355	-0.520854	-0.206513
H97	H	1.328470	0.223944	0.630602
H98	H	1.638424	0.020718	0.630592
