data_functionalizedCrystal
_audit_creation_method	'MofGen! by Chris Wilmer'
_symmetry_space_group_name_H-M	'P1'
_symmetry_Int_Tables_number	1
_symmetry_cell_setting	triclinic
loop_
_symmetry_equiv_pos_as_xyz
  x,y,z
_cell_length_a	6.817900
_cell_length_b	15.301126
_cell_length_c	16.418042
_cell_angle_alpha	95.179687
_cell_angle_beta	103.389568
_cell_angle_gamma	104.177575
loop_
_atom_site_label
_atom_site_type_symbol
_atom_site_fract_x
_atom_site_fract_y
_atom_site_fract_z
V1	V	-4.029051	-0.125492	-0.261410
O2	O	-4.012948	0.005276	-0.256172
O3	O	-3.983989	-0.248105	-0.259874
O4	O	-3.980081	-0.123893	-0.375305
O5	O	-4.016883	-0.119796	-0.139942
V6	V	-4.512320	-0.109812	-0.246851
O7	O	-4.290866	-0.159889	-0.293346
O8	O	-4.700703	-0.075415	-0.214914
O9	O	-4.334176	0.012801	-0.248386
O10	O	-4.645821	-0.240581	-0.252089
O11	O	-4.641886	-0.115509	-0.368319
O12	O	-4.338084	-0.111411	-0.132956
C13	C	-3.829821	-0.277985	-0.255815
C14	C	-3.874260	-0.378224	-0.255318
C15	C	-4.077354	-0.429922	-0.259272
C16	C	-4.119101	-0.524108	-0.258811
C17	C	-3.957747	-0.566594	-0.254389
C18	C	-3.754637	-0.514891	-0.250437
C19	C	-3.712897	-0.420707	-0.250905
C20	C	-3.841649	-0.711199	-0.249461
C21	C	-3.883391	-0.805388	-0.248991
C22	C	-4.247853	-0.814599	-0.257366
C23	C	-4.206113	-0.720416	-0.257834
C24	C	-4.003004	-0.668719	-0.253881
C25	C	-3.824834	-0.119539	-0.403057
C26	C	-3.866102	-0.119043	-0.496169
C27	C	-4.143216	-0.122397	-0.714661
C28	C	-4.181971	-0.121923	-0.802148
C29	C	-3.817512	-0.112903	-0.793587
C30	C	-3.778756	-0.113370	-0.706101
C31	C	-3.941617	-0.118122	-0.666641
C32	C	-4.019129	-0.117180	-0.841614
C33	C	-4.061148	-0.116666	-0.936470
C34	C	-3.899595	-0.118635	-0.571778
C35	C	-4.151687	0.042676	-0.252443
C36	C	-4.086485	0.142915	-0.252945
C37	C	-4.156673	-0.115768	-0.105199
C38	C	-4.094644	-0.116260	-0.012086
H39	H	-3.676264	-0.669110	-0.246248
H40	H	-4.346129	-0.125402	-0.841242
H41	H	-3.684923	-0.109036	-0.825726
O42	O	-3.582948	-0.109390	-0.659526
C43	C	-3.521927	-0.185017	-0.689861
H44	H	-3.667421	-0.242378	-0.724463
H45	H	-3.421716	-0.164192	-0.735380
C46	C	-3.215401	-0.147819	-0.572266
C47	C	-3.394101	-0.218275	-0.614759
H48	H	-3.136544	-0.168333	-0.525941
H49	H	-3.256507	-0.096866	-0.551830
H50	H	-3.131917	-0.130472	-0.610208
H51	H	-3.477594	-0.235613	-0.576820
H52	H	-3.353006	-0.269232	-0.635187
H53	H	-4.208749	-0.395335	-0.262865
O54	O	-3.515470	-0.370613	-0.247019
C55	C	-3.382013	-0.428310	-0.243035
H56	H	-3.451204	-0.492250	-0.217278
H57	H	-3.365855	-0.448434	-0.309230
C58	C	-3.079608	-0.299244	-0.215694
C59	C	-3.164582	-0.377774	-0.184052
H60	H	-2.945483	-0.268071	-0.179314
H61	H	-3.169520	-0.260372	-0.218381
H62	H	-3.066162	-0.316025	-0.270856
H63	H	-3.178051	-0.360991	-0.128896
H64	H	-3.074666	-0.416641	-0.181355
O65	O	-4.445013	-0.864882	-0.261083
C66	C	-4.441793	-0.907172	-0.188145
H67	H	-4.277079	-0.913145	-0.160148
H68	H	-4.488798	-0.864426	-0.139334
C69	C	-4.799586	-0.995707	-0.246612
C70	C	-4.597285	-1.003050	-0.212229
H71	H	-4.895507	-1.054847	-0.261466
H72	H	-4.801760	-0.967213	-0.295751
H73	H	-4.838727	-0.960081	-0.205931
H74	H	-4.558137	-1.038665	-0.252914
H75	H	-4.595109	-1.031552	-0.163098
H76	H	-4.284477	-0.566196	-0.262032
H77	H	-4.337502	-0.685826	-0.261430
H78	H	-3.752013	-0.839982	-0.245416
H79	H	-4.275829	-0.126265	-0.682536
H80	H	-3.623266	-0.549491	-0.246842
