data_functionalizedCrystal
_audit_creation_method	'MofGen! by Chris Wilmer'
_symmetry_space_group_name_H-M	'P1'
_symmetry_Int_Tables_number	1
_symmetry_cell_setting	triclinic
loop_
_symmetry_equiv_pos_as_xyz
  x,y,z
_cell_length_a	14.044191
_cell_length_b	14.044190
_cell_length_c	10.268362
_cell_angle_alpha	89.989939
_cell_angle_beta	89.997935
_cell_angle_gamma	93.191777
loop_
_atom_site_label
_atom_site_type_symbol
_atom_site_fract_x
_atom_site_fract_y
_atom_site_fract_z
O1	O	1.277178	0.230201	-0.108264
O2	O	1.610512	0.563535	0.225069
O3	O	1.943845	0.896868	0.558402
O4	O	1.000506	0.221889	-0.108280
O5	O	1.333839	0.555222	0.225054
O6	O	1.667172	0.888555	0.558387
O7	O	1.134686	0.087709	-0.108247
O8	O	1.468019	0.421042	0.225087
O9	O	1.801352	0.754375	0.558420
O10	O	1.142998	0.364381	-0.108297
O11	O	1.476332	0.697715	0.225036
O12	O	1.809665	1.031048	0.558369
O13	O	1.134672	0.087702	0.108354
O14	O	1.468006	0.421035	0.441687
O15	O	1.801339	0.754368	0.775021
O16	O	1.000493	0.221882	0.108321
O17	O	1.333826	0.555215	0.441654
O18	O	1.667159	0.888548	0.774987
O19	O	1.277165	0.230194	0.108336
O20	O	1.610499	0.563528	0.441670
O21	O	1.943832	0.896861	0.775003
Cu22	Cu	1.138828	0.226037	0.128106
Cu23	Cu	1.472161	0.559371	0.461439
Cu24	Cu	1.805494	0.892704	0.794773
Cu25	Cu	1.138843	0.226046	-0.128049
Cu26	Cu	1.472177	0.559379	0.205284
Cu27	Cu	1.805510	0.892712	0.538617
O28	O	1.142985	0.364374	0.108303
O29	O	1.476319	0.697708	0.441637
O30	O	1.809652	1.031041	0.774970
C31	C	0.964877	0.218249	0.000019
C32	C	1.298210	0.551582	0.333352
C33	C	1.631544	0.884915	0.666686
C34	C	0.858734	0.207401	0.000014
C35	C	1.192067	0.540735	0.333347
C36	C	1.525400	0.874068	0.666681
C37	C	1.131043	0.052083	0.000057
C38	C	1.464376	0.385416	0.333391
C39	C	1.797709	0.718750	0.666724
C40	C	1.120195	-0.054060	0.000068
C41	C	1.453529	0.279273	0.333401
C42	C	1.786862	0.612606	0.666735
C43	C	0.613277	0.264502	0.000017
C44	C	0.946610	0.597835	0.333350
C45	C	1.279943	0.931169	0.666683
C46	C	0.664400	0.187585	0.000028
C47	C	0.997734	0.520919	0.333362
C48	C	1.331067	0.854252	0.666695
C49	C	0.772537	0.198614	0.000020
C50	C	1.105871	0.531947	0.333354
C51	C	1.439204	0.865280	0.666687
C52	C	0.505130	0.253475	0.000025
C53	C	0.838463	0.586809	0.333358
C54	C	1.171796	0.920142	0.666691
C55	C	1.177296	-0.299517	0.000020
C56	C	1.510629	0.033816	0.333354
C57	C	1.843963	0.367149	0.666687
C58	C	1.100379	-0.248394	0.000025
C59	C	1.433713	0.084940	0.333358
C60	C	1.767046	0.418273	0.666692
C61	C	1.111408	-0.140257	0.000049
C62	C	1.444741	0.193077	0.333382
C63	C	1.778074	0.526410	0.666716
C64	C	1.166269	-0.407664	-0.000004
C65	C	1.499602	-0.074331	0.333330
C66	C	1.832936	0.259002	0.666663
C67	C	1.312794	0.233834	0.000035
C68	C	1.646127	0.567168	0.333368
C69	C	1.979461	0.900501	0.666701
C70	C	1.418937	0.244682	0.000031
C71	C	1.752271	0.578015	0.333364
C72	C	2.085604	0.911348	0.666698
C73	C	1.146628	0.400000	-0.000004
C74	C	1.479962	0.733333	0.333330
C75	C	1.813295	1.066667	0.666663
C76	C	1.157476	0.506143	-0.000023
C77	C	1.490809	0.839477	0.333310
C78	C	1.824142	1.172810	0.666644
N79	N	1.138824	0.226031	0.308272
N80	N	1.472157	0.559365	0.641605
N81	N	1.805490	0.892698	0.974938
N82	N	1.138854	0.226045	-0.308215
N83	N	1.472188	0.559378	0.025118
N84	N	1.805521	0.892711	0.358451
C85	C	1.138838	0.226043	0.573942
C86	C	1.472172	0.559377	0.907276
C87	C	1.805505	0.892710	1.240609
C88	C	1.138827	0.226039	0.426104
C89	C	1.472161	0.559373	0.759438
C90	C	1.805494	0.892706	1.092771
H91	H	0.626955	0.113453	-0.000050
H92	H	0.960288	0.446786	0.333284
H93	H	1.293622	0.780119	0.666617
C94	C	0.663855	0.364647	-0.000029
C95	C	0.997188	0.697980	0.333305
C96	C	1.330521	1.031313	0.666638
C97	C	0.773563	0.375675	-0.000054
C98	C	1.106897	0.709008	0.333279
C99	C	1.440230	1.042342	0.666613
C100	C	0.824155	0.475818	-0.000111
C101	C	1.157488	0.809152	0.333223
C102	C	1.490822	1.142485	0.666556
C103	C	0.765038	0.564933	-0.000142
C104	C	1.098371	0.898266	0.333191
C105	C	1.431704	1.231599	0.666525
C106	C	0.655323	0.553907	-0.000116
C107	C	0.988656	0.887240	0.333217
C108	C	1.321989	1.220574	0.666550
C109	C	0.604731	0.453764	-0.000060
C110	C	0.938064	0.787097	0.333273
C111	C	1.271398	1.120431	0.666607
H112	H	0.817331	0.309705	-0.000031
H113	H	1.150665	0.643038	0.333302
H114	H	1.483998	0.976371	0.666636
H115	H	0.905374	0.483980	-0.000130
H116	H	1.238707	0.817313	0.333204
H117	H	1.572040	1.150646	0.666537
H118	H	0.802489	0.639065	-0.000184
H119	H	1.135822	0.972398	0.333150
H120	H	1.469155	1.305731	0.666483
H121	H	0.611555	0.619878	-0.000139
H122	H	0.944888	0.953211	0.333194
H123	H	1.278221	1.286544	0.666527
H124	H	0.523512	0.445603	-0.000041
H125	H	0.856846	0.778936	0.333292
H126	H	1.190179	1.112269	0.666626
C127	C	1.277440	-0.248939	0.000051
C128	C	1.610774	0.084394	0.333384
C129	C	1.944107	0.417727	0.666718
C130	C	1.288469	-0.139230	0.000084
C131	C	1.621802	0.194103	0.333418
C132	C	1.955136	0.527436	0.666751
C133	C	1.388612	-0.088639	0.000121
C134	C	1.721945	0.244694	0.333454
C135	C	2.055279	0.578028	0.666788
C136	C	1.477727	-0.147756	0.000125
C137	C	1.811060	0.185577	0.333458
C138	C	2.144393	0.518910	0.666791
C139	C	1.466701	-0.257471	0.000091
C140	C	1.800034	0.075862	0.333425
C141	C	2.133368	0.409195	0.666758
C142	C	1.366558	-0.308063	0.000055
C143	C	1.699891	0.025271	0.333388
C144	C	2.033225	0.358604	0.666721
H145	H	1.222498	-0.095463	0.000082
H146	H	1.555832	0.237871	0.333415
H147	H	1.889165	0.571204	0.666748
H148	H	1.396774	-0.007420	0.000146
H149	H	1.730107	0.325913	0.333479
H150	H	2.063440	0.659246	0.666812
H151	H	1.551859	-0.110305	0.000152
H152	H	1.885192	0.223028	0.333485
H153	H	2.218525	0.556361	0.666818
H154	H	1.532672	-0.301239	0.000094
H155	H	1.866005	0.032094	0.333427
H156	H	2.199338	0.365428	0.666761
H157	H	1.358397	-0.389281	0.000030
H158	H	1.691730	-0.055948	0.333363
H159	H	2.025063	0.277385	0.666697
H160	H	1.026247	-0.285839	0.000013
H161	H	1.359580	0.047494	0.333347
H162	H	1.692913	0.380828	0.666680
