data_functionalizedCrystal
_audit_creation_method	'MofGen! by Chris Wilmer'
_symmetry_space_group_name_H-M	'P1'
_symmetry_Int_Tables_number	1
_symmetry_cell_setting	triclinic
loop_
_symmetry_equiv_pos_as_xyz
  x,y,z
_cell_length_a	21.295418
_cell_length_b	29.839131
_cell_length_c	21.295412
_cell_angle_alpha	89.970612
_cell_angle_beta	89.957310
_cell_angle_gamma	90.057233
loop_
_atom_site_label
_atom_site_type_symbol
_atom_site_fract_x
_atom_site_fract_y
_atom_site_fract_z
Zn1	Zn	0.962302	-0.178675	-0.356239
Zn2	Zn	0.962186	-0.253802	-0.250967
Zn3	Zn	0.857027	-0.178708	-0.250949
Zn4	Zn	0.856974	-0.253799	-0.356163
O5	O	0.909622	-0.216246	-0.303580
O6	O	1.050376	-0.188628	-0.342314
O7	O	0.948210	-0.243856	-0.162875
O8	O	0.871062	-0.115836	-0.264940
O9	O	1.050291	-0.243824	-0.264971
O10	O	0.948407	-0.115812	-0.342296
O11	O	0.870950	-0.188684	-0.162862
O12	O	0.768930	-0.188681	-0.264867
O13	O	0.870972	-0.243819	-0.444263
O14	O	0.768892	-0.243851	-0.342167
O15	O	0.948356	-0.188625	-0.444319
O16	O	0.948159	-0.316669	-0.264897
O17	O	0.870860	-0.316667	-0.342185
C18	C	0.746070	-0.216270	-0.303507
C19	C	0.676102	-0.216291	-0.303491
C20	C	0.909508	-0.332969	-0.303548
C21	C	0.909517	-0.382903	-0.303556
C22	C	0.643232	-0.245055	-0.343681
C23	C	0.577489	-0.245044	-0.343710
C24	C	0.544620	-0.216273	-0.303536
C25	C	0.577498	-0.187503	-0.263343
C26	C	0.643239	-0.187512	-0.263321
N27	N	0.441346	-0.212763	-0.248479
N28	N	0.378894	-0.212757	-0.248502
C29	C	0.346545	-0.216245	-0.303603
N30	N	0.379007	-0.219746	-0.358681
N31	N	0.441464	-0.219754	-0.358657
C32	C	0.473334	-0.216260	-0.303557
C33	C	0.242389	-0.244999	-0.343827
C34	C	0.176646	-0.244985	-0.343857
C35	C	0.176656	-0.187445	-0.263485
C36	C	0.242398	-0.187457	-0.263461
C37	C	0.275261	-0.216236	-0.303632
C38	C	0.949945	-0.692535	-0.263395
C39	C	0.950022	-0.880208	-0.263419
O40	O	0.984305	-0.904463	-0.229249
N41	N	0.909753	-0.903688	-0.303627
C42	C	0.869463	-0.880247	-0.343835
O43	O	0.835218	-0.904525	-0.378039
C44	C	0.869389	-0.692575	-0.343813
C45	C	0.909657	-0.669097	-0.303598
C46	C	0.990210	-0.669057	-0.223184
C47	C	0.990188	-0.622142	-0.223176
C48	C	0.949900	-0.598704	-0.263379
C49	C	0.909635	-0.622182	-0.303590
C50	C	0.829104	-0.669135	-0.384023
C51	C	0.829090	-0.622214	-0.384015
C52	C	0.869358	-0.598736	-0.343800
C53	C	0.869325	-0.551829	-0.343785
N54	N	0.909595	-0.528348	-0.303577
C55	C	0.949883	-0.551786	-0.263374
C56	C	0.869504	-0.978778	-0.343842
C57	C	0.869522	-1.025696	-0.343847
C58	C	0.950082	-1.025653	-0.263432
C59	C	0.950061	-0.978734	-0.263425
C60	C	0.909774	-0.955298	-0.303634
C61	C	0.949832	-0.453260	-0.263359
C62	C	0.949805	-0.406341	-0.263353
C63	C	0.869247	-0.406387	-0.343770
C64	C	0.869273	-0.453303	-0.343774
C65	C	0.909570	-0.476738	-0.303567
O66	O	0.835066	-0.527545	-0.377942
O67	O	0.984133	-0.527500	-0.229185
C68	C	0.949967	-0.739450	-0.263403
C69	C	0.909702	-0.762928	-0.303614
C70	C	0.869414	-0.739490	-0.343817
C71	C	0.909719	-0.809846	-0.303619
C72	C	0.950007	-0.833284	-0.263416
C73	C	0.990277	-0.809803	-0.223208
C74	C	0.990254	-0.762888	-0.223200
C75	C	0.829145	-0.762971	-0.384025
C76	C	0.829170	-0.809886	-0.384029
C77	C	0.869457	-0.833324	-0.343826
C78	C	1.073812	-0.216223	-0.303653
C79	C	1.143781	-0.216213	-0.303684
C80	C	0.909671	-0.216218	-0.467770
C81	C	0.909692	-0.216206	-0.537738
C82	C	0.909753	-0.099068	-0.303625
C83	C	0.909809	-0.049133	-0.303644
C84	C	0.869474	-0.187475	-0.570588
C85	C	0.869472	-0.187467	-0.636331
C86	C	0.909699	-0.216185	-0.669221
C87	C	0.949921	-0.244921	-0.636363
C88	C	0.949917	-0.244932	-0.570622
N89	N	0.964803	-0.219605	-0.772477
N90	N	0.964804	-0.219592	-0.834929
C91	C	0.909711	-0.216155	-0.867295
N92	N	0.854615	-0.212722	-0.834851
N93	N	0.854614	-0.212733	-0.772394
C94	C	0.909707	-0.216177	-0.740506
C95	C	0.869486	-0.187413	-0.971431
C96	C	0.869483	-0.187408	-1.037175
C97	C	0.949938	-0.244860	-1.037206
C98	C	0.949935	-0.244868	-0.971463
C99	C	0.909711	-0.216142	-0.938580
C100	C	0.909609	-0.216241	-0.140028
C101	C	0.909710	-0.216127	-0.070060
H102	H	0.550721	-0.268468	-0.376440
N103	N	0.543916	-0.158114	-0.222315
N104	N	0.485219	-0.158109	-0.222341
H105	H	0.461501	-0.137351	-0.193366
H106	H	0.836732	-0.164023	-0.944656
H107	H	0.982693	-0.268242	-1.063984
N108	N	0.828347	-0.954848	-0.384923
N109	N	0.792398	-0.975823	-0.420816
H110	H	0.763328	-0.958925	-0.449829
H111	H	0.982648	-0.472336	-0.230620
H112	H	1.023020	-0.688135	-0.190445
H113	H	0.982687	-0.268263	-0.944717
N114	N	0.991025	-0.274245	-0.669959
N115	N	1.049113	-0.271254	-0.662657
H116	H	1.078145	-0.291965	-0.686385
H117	H	0.149884	-0.268408	-0.376588
N118	N	0.787926	-0.598275	-0.425079
N119	N	0.747808	-0.572144	-0.402879
H120	H	0.718735	-0.555238	-0.431878
N121	N	0.676809	-0.158123	-0.222264
N122	N	0.647458	-0.132433	-0.186401
H123	H	0.671167	-0.111676	-0.157403
H124	H	1.023078	-0.828895	-0.190472
H125	H	0.836728	-0.164013	-1.063920
H126	H	1.023044	-0.743776	-0.190453
H127	H	0.269148	-0.268430	-0.376540
N128	N	0.991195	-0.954762	-0.222341
N129	N	1.027158	-0.975699	-0.186448
H130	H	1.056212	-0.958771	-0.157431
N131	N	0.676797	-0.274456	-0.384709
N132	N	0.669378	-0.315905	-0.380425
H133	H	0.693083	-0.336670	-0.409401
N134	N	0.275978	-0.158085	-0.222392
N135	N	0.312590	-0.173861	-0.182226
H136	H	0.336307	-0.153116	-0.153219
N137	N	0.143079	-0.158054	-0.222459
N138	N	0.084382	-0.158046	-0.222488
H139	H	0.060664	-0.137286	-0.193516
H140	H	0.796310	-0.688242	-0.416767
H141	H	0.982596	-0.387227	-0.230603
H142	H	1.022979	-0.603029	-0.190431
N143	N	0.991229	-1.049606	-0.222367
N144	N	0.991234	-1.091496	-0.222383
H145	H	1.020294	-1.108415	-0.193384
H146	H	0.836485	-0.472419	-0.376522
H147	H	0.836726	-1.044807	-0.376588
N148	N	0.788024	-0.833858	-0.425110
N149	N	0.752059	-0.812920	-0.461001
H150	H	0.723003	-0.829849	-0.490016
H151	H	0.836444	-0.387297	-0.376501
N152	N	0.787997	-0.739035	-0.425103
N153	N	0.792145	-0.744251	-0.483194
H154	H	0.763080	-0.727348	-0.512207
N155	N	0.828379	-0.158133	-0.537009
N156	N	0.792469	-0.132484	-0.566353
H157	H	0.763443	-0.111762	-0.542637
H158	H	0.982671	-0.268328	-0.543876
H159	H	0.836722	-0.164068	-0.663082
