data_functionalizedCrystal
_audit_creation_method	'MofGen! by Chris Wilmer'
_symmetry_space_group_name_H-M	'P1'
_symmetry_Int_Tables_number	1
_symmetry_cell_setting	triclinic
loop_
_symmetry_equiv_pos_as_xyz
  x,y,z
_cell_length_a	17.639181
_cell_length_b	18.101395
_cell_length_c	17.640968
_cell_angle_alpha	78.770922
_cell_angle_beta	87.836484
_cell_angle_gamma	78.838129
loop_
_atom_site_label
_atom_site_type_symbol
_atom_site_fract_x
_atom_site_fract_y
_atom_site_fract_z
Zn1	Zn	1.247436	-0.494092	-0.194265
Zn2	Zn	1.747436	0.005908	0.305735
Zn3	Zn	1.221650	-0.637111	-0.067306
Zn4	Zn	1.721650	-0.137111	0.432694
Zn5	Zn	1.094802	-0.484414	-0.093013
Zn6	Zn	1.594802	0.015586	0.406987
Zn7	Zn	1.120420	-0.588994	-0.219954
Zn8	Zn	1.620420	-0.088994	0.280046
O9	O	1.171077	-0.551153	-0.143634
O10	O	1.671077	-0.051153	0.356366
O11	O	1.350258	-0.537251	-0.155914
O12	O	1.850258	-0.037251	0.344086
O13	O	1.183311	-0.632943	0.035542
O14	O	1.683311	-0.132943	0.535542
O15	O	1.115119	-0.382076	-0.106452
O16	O	1.615119	0.117924	0.393548
O17	O	1.331314	-0.642327	-0.062638
O18	O	1.831314	-0.142327	0.437362
O19	O	1.227259	-0.389187	-0.180841
O20	O	1.727259	0.110813	0.319159
O21	O	1.090116	-0.520756	0.016655
O22	O	1.590116	-0.020756	0.516655
O23	O	0.991958	-0.474099	-0.131361
O24	O	1.491958	0.025901	0.368639
O25	O	1.158782	-0.560318	-0.322804
O26	O	1.658782	-0.060318	0.177196
O27	O	1.010779	-0.550933	-0.224624
O28	O	1.510779	-0.050933	0.275376
O29	O	1.252099	-0.490594	-0.303931
O30	O	1.752099	0.009406	0.196069
O31	O	1.208152	-0.734349	-0.087547
O32	O	1.708152	-0.234349	0.412453
O33	O	1.133779	-0.698998	-0.199697
O34	O	1.633779	-0.198998	0.300303
C35	C	0.973821	-0.506245	-0.183570
C36	C	1.473821	-0.006245	0.316430
C37	C	0.889438	-0.487048	-0.200673
C38	C	1.389438	0.012952	0.299327
C39	C	0.562545	-0.697150	-0.013716
C40	C	1.062545	-0.197150	0.486284
C41	C	0.483255	-0.679101	-0.029793
C42	C	0.983255	-0.179101	0.470207
C43	C	0.503010	-0.569817	-0.127066
C44	C	1.003010	-0.069817	0.372934
C45	C	0.582303	-0.587854	-0.110995
C46	C	1.082303	-0.087854	0.389005
C47	C	0.612064	-0.651523	-0.054319
C48	C	1.112064	-0.151523	0.445681
C49	C	0.631822	-0.542227	-0.151598
C50	C	1.131822	-0.042227	0.348402
C51	C	0.711108	-0.560266	-0.135530
C52	C	1.211108	-0.060266	0.364470
C53	C	0.740875	-0.623932	-0.078859
C54	C	1.240875	-0.123932	0.421141
C55	C	0.691350	-0.669562	-0.038252
C56	C	1.191350	-0.169562	0.461748
C57	C	0.602060	-0.478562	-0.208277
C58	C	1.102060	0.021438	0.291723
C59	C	0.651578	-0.432935	-0.248880
C60	C	1.151578	0.067065	0.251120
C61	C	0.730865	-0.450970	-0.232809
C62	C	1.230865	0.049030	0.267191
C63	C	0.760633	-0.514637	-0.176138
C64	C	1.260633	-0.014637	0.323862
C65	C	0.780391	-0.405341	-0.273416
C66	C	1.280391	0.094659	0.226584
C67	C	0.859677	-0.423380	-0.257348
C68	C	1.359677	0.076620	0.242652
C69	C	0.839919	-0.532676	-0.160070
C70	C	1.339919	-0.032676	0.339930
C71	C	1.170971	-0.743543	-0.143633
C72	C	1.670971	-0.243543	0.356367
C73	C	1.171000	-0.825861	-0.143643
C74	C	1.671000	-0.325861	0.356357
C75	C	1.171175	-1.124984	-0.143650
C76	C	1.671175	-0.624984	0.356350
C77	C	1.124547	-1.071456	-0.214330
C78	C	1.624547	-0.571456	0.285670
C79	C	1.124232	-0.985803	-0.214202
C80	C	1.624232	-0.485803	0.285798
C81	C	1.171088	-0.976585	-0.143648
C82	C	1.671088	-0.476585	0.356352
C83	C	1.133244	-1.014904	-0.068005
C84	C	1.633244	-0.514904	0.431995
C85	C	1.132938	-1.100410	-0.068434
C86	C	1.632938	-0.600410	0.431566
C87	C	1.255634	-1.108508	-0.147883
C88	C	1.755634	-0.608508	0.352117
C89	C	1.255517	-1.022485	-0.149733
C90	C	1.755517	-0.522485	0.350267
C91	C	1.171040	-0.892718	-0.143641
C92	C	1.671040	-0.392718	0.356359
C93	C	1.171221	-1.208851	-0.143652
C94	C	1.671221	-0.708851	0.356348
C95	C	1.369104	-0.596236	-0.103543
C96	C	1.869104	-0.096236	0.396457
C97	C	1.453491	-0.615448	-0.086459
C98	C	1.953491	-0.115448	0.413541
C99	C	1.211174	-0.521168	-0.341689
C100	C	1.711174	-0.021168	0.158311
C101	C	1.228262	-0.508390	-0.426088
C102	C	1.728262	-0.008390	0.073912
C103	C	1.171208	-0.358013	-0.143649
C104	C	1.671208	0.141987	0.356351
C105	C	1.171263	-0.275708	-0.143655
C106	C	1.671263	0.224292	0.356345
C107	C	1.041560	-0.647887	-0.752792
C108	C	1.541560	-0.147887	-0.252792
C109	C	1.057632	-0.635874	-0.832095
C110	C	1.557632	-0.135874	-0.332095
C111	C	1.154795	-0.563277	-0.812433
C112	C	1.654795	-0.063277	-0.312433
C113	C	1.138729	-0.575280	-0.733128
C114	C	1.638729	-0.075280	-0.233128
C115	C	1.082111	-0.617586	-0.703314
C116	C	1.582111	-0.117586	-0.203314
C117	C	1.179280	-0.544980	-0.683650
C118	C	1.679280	-0.044980	-0.183650
C119	C	1.163218	-0.556985	-0.604351
C120	C	1.663218	-0.056985	-0.104351
C121	C	1.106604	-0.599292	-0.574530
C122	C	1.606604	-0.099292	-0.074530
C123	C	1.066049	-0.629592	-0.624015
C124	C	1.566049	-0.129592	-0.124015
C125	C	1.235902	-0.502678	-0.713464
C126	C	1.735902	-0.002678	-0.213464
C127	C	1.276453	-0.472378	-0.663986
C128	C	1.776453	0.027622	-0.163986
C129	C	1.260387	-0.484379	-0.584686
C130	C	1.760387	0.015621	-0.084686
C131	C	1.203773	-0.526685	-0.554866
C132	C	1.703773	-0.026685	-0.054866
C133	C	1.300942	-0.454078	-0.535201
C134	C	1.800942	0.045922	-0.035201
C135	C	1.284879	-0.466084	-0.455902
C136	C	1.784879	0.033916	0.044098
C137	C	1.187710	-0.538691	-0.475567
C138	C	1.687710	-0.038691	0.024433
C139	C	1.131180	-0.580977	0.053659
C140	C	1.631180	-0.080977	0.553659
C141	C	1.114240	-0.593580	0.138087
C142	C	1.614240	-0.093580	0.638087
H143	H	0.586777	-0.748991	0.032439
H144	H	1.086777	-0.248991	0.532439
F145	F	1.157628	-0.950574	-0.288179
F146	F	1.657628	-0.450574	0.211821
H147	H	1.093530	-0.609069	-0.509959
H148	H	1.593530	-0.109069	-0.009959
F149	F	1.361204	-0.409064	-0.566941
F150	F	1.861204	0.090936	-0.066941
F151	F	1.174248	-1.148578	0.001606
F152	F	1.674248	-0.648578	0.501606
F153	F	1.052646	-0.973169	-0.060278
F154	F	1.552646	-0.473169	0.439722
F155	F	1.042832	-0.944077	-0.212218
F156	F	1.542832	-0.444077	0.287782
F157	F	1.014465	-0.668126	-0.884753
F158	F	1.514465	-0.168126	-0.384753
H159	H	0.478768	-0.517980	-0.173214
H160	H	0.978768	-0.017980	0.326786
H161	H	1.322553	-0.437935	-0.688271
H162	H	1.822553	0.062065	-0.188271
F163	F	0.871597	-0.600441	-0.099751
F164	F	1.371597	-0.100441	0.400249
H165	H	1.286983	-1.125880	-0.201246
H166	H	1.786983	-0.625880	0.298754
H167	H	1.019926	-0.664020	-0.599743
H168	H	1.519926	-0.164020	-0.099743
H169	H	0.899996	-0.386224	-0.290410
H170	H	1.399996	0.113776	0.209590
H171	H	0.627336	-0.381098	-0.295027
H172	H	1.127336	0.118902	0.204973
H173	H	1.070717	-1.109716	-0.062960
H174	H	1.570717	-0.609716	0.437040
F175	F	1.215052	-0.518256	-0.844172
F176	F	1.715052	-0.018256	-0.344172
H177	H	1.248979	-0.492907	-0.778035
H178	H	1.748979	0.007093	-0.278035
H179	H	1.317899	-0.441409	-0.415616
H180	H	1.817899	0.058591	0.084384
H181	H	1.283762	-0.996936	-0.205322
H182	H	1.783762	-0.496936	0.294678
H183	H	1.165424	-1.010737	-0.014618
H184	H	1.665424	-0.510737	0.485382
F185	F	0.825260	-0.643134	-0.061761
F186	F	1.325260	-0.143134	0.438239
H187	H	1.293394	-1.017526	-0.100712
H188	H	1.793394	-0.517526	0.399288
H189	H	0.995438	-0.682315	-0.728520
H190	H	1.495438	-0.182315	-0.228520
F191	F	0.723028	-0.737326	0.022067
F192	F	1.223028	-0.237326	0.522067
H193	H	0.537500	-0.463879	-0.221360
H194	H	1.037500	0.036121	0.278640
F195	F	0.430558	-0.727679	0.013415
F196	F	0.930558	-0.227679	0.513415
H197	H	0.756148	-0.353507	-0.319566
H198	H	1.256148	0.146493	0.180434
H199	H	1.150004	-1.086058	-0.271146
H200	H	1.650004	-0.586058	0.228854
F201	F	1.301306	-1.156424	-0.080347
F202	F	1.801306	-0.656424	0.419653
H203	H	1.141588	-0.573119	-0.451295
H204	H	1.641588	-0.073119	0.048705
F205	F	1.043670	-1.084729	-0.212482
F206	F	1.543670	-0.584729	0.287518
