data_functionalizedCrystal
_audit_creation_method	'MofGen! by Chris Wilmer'
_symmetry_space_group_name_H-M	'P1'
_symmetry_Int_Tables_number	1
_symmetry_cell_setting	triclinic
loop_
_symmetry_equiv_pos_as_xyz
  x,y,z
_cell_length_a	17.077404
_cell_length_b	12.594516
_cell_length_c	17.077396
_cell_angle_alpha	90.024821
_cell_angle_beta	90.021444
_cell_angle_gamma	90.010063
loop_
_atom_site_label
_atom_site_type_symbol
_atom_site_fract_x
_atom_site_fract_y
_atom_site_fract_z
Zn1	Zn	1.200115	-0.423792	0.443903
Zn2	Zn	1.200047	-0.601793	0.312646
Zn3	Zn	1.068847	-0.423823	0.312647
Zn4	Zn	1.068840	-0.601723	0.443865
O5	O	1.134462	-0.512783	0.378265
O6	O	1.309953	-0.447420	0.426507
O7	O	1.182618	-0.578227	0.202799
O8	O	1.086291	-0.274873	0.330075
O9	O	1.309903	-0.578196	0.330073
O10	O	1.182733	-0.274850	0.426508
O11	O	1.086225	-0.447473	0.202800
O12	O	0.958999	-0.447406	0.330038
O13	O	1.086280	-0.578078	0.553717
O14	O	0.958994	-0.578108	0.426443
O15	O	1.182727	-0.447353	0.553745
O16	O	1.182611	-0.750729	0.330036
O17	O	1.086214	-0.750678	0.426442
C18	C	0.930515	-0.512754	0.378237
C19	C	0.843265	-0.512767	0.378243
C20	C	0.467473	-0.444839	0.428587
C21	C	0.549454	-0.444831	0.428579
C22	C	0.590416	-0.512805	0.378285
C23	C	0.549393	-0.580799	0.328002
C24	C	0.467414	-0.580811	0.328015
C25	C	0.720263	-0.580766	0.327977
C26	C	0.802248	-0.580753	0.327962
C27	C	0.802303	-0.444787	0.428540
C28	C	0.720324	-0.444799	0.428554
C29	C	0.679307	-0.512792	0.378269
C30	C	1.134426	-0.789324	0.378252
C31	C	1.134482	-0.907629	0.378272
C32	C	1.186974	-0.976871	0.325893
C33	C	1.206155	-1.047574	0.397540
C34	C	1.115399	-1.047725	0.306670
C35	C	1.153700	-0.976773	0.449957
C36	C	1.062911	-0.976919	0.359038
C37	C	1.082065	-1.047589	0.430736
C38	C	1.339207	-0.512812	0.378294
C39	C	1.426456	-0.512825	0.378307
C40	C	1.134510	-0.512704	0.583010
C41	C	1.134530	-0.512671	0.670259
C42	C	1.134520	-0.235162	0.378296
C43	C	1.134545	-0.116856	0.378309
C44	C	1.134460	-0.512784	0.174317
C45	C	1.134592	-0.512518	0.087068
C46	C	1.184752	-0.444596	0.711266
C47	C	1.184761	-0.444561	0.793246
C48	C	1.134552	-0.512606	0.834219
C49	C	1.084325	-0.580684	0.793207
C50	C	1.084312	-0.580713	0.711228
C51	C	1.084357	-0.580620	0.964077
C52	C	1.084370	-0.580592	1.046062
C53	C	1.184806	-0.444468	1.046095
C54	C	1.184793	-0.444497	0.964116
C55	C	1.134566	-0.512576	0.923110
H56	H	0.434128	-0.389480	0.469538
O57	O	0.589176	-0.378682	0.477441
C58	C	0.535443	-0.318701	0.521842
H59	H	0.476988	-0.314975	0.489703
H60	H	0.526754	-0.357774	0.581414
C61	C	0.639241	-0.210007	0.572758
C62	C	0.567448	-0.205424	0.533281
H63	H	0.658984	-0.140134	0.579818
H64	H	0.675443	-0.250419	0.542847
H65	H	0.631991	-0.242572	0.622398
H66	H	0.574701	-0.172871	0.483639
H67	H	0.531248	-0.165003	0.563184
O68	O	1.096243	-1.084957	0.234393
C69	C	1.157942	-1.148094	0.205404
H70	H	1.214868	-1.124975	0.235849
H71	H	1.144748	-1.235350	0.217278
C72	C	1.096345	-1.158820	0.079182
C73	C	1.166265	-1.130418	0.116570
H74	H	1.101478	-1.147922	0.024384
H75	H	1.054776	-1.116287	0.098712
H76	H	1.085358	-1.231532	0.089085
H77	H	1.177246	-1.057705	0.106675
H78	H	1.207836	-1.172940	0.097036
O79	O	0.842130	-0.646838	0.279223
C80	C	0.889558	-0.715657	0.323831
H81	H	0.901863	-0.678209	0.383363
H82	H	0.857971	-0.794559	0.332363
C83	C	0.952299	-0.780828	0.207496
C84	C	0.967418	-0.734830	0.280612
H85	H	1.000325	-0.792660	0.180836
H86	H	0.920344	-0.734467	0.177442
H87	H	0.925975	-0.846575	0.214617
H88	H	0.993732	-0.669079	0.273490
H89	H	0.999379	-0.781181	0.310664
H90	H	1.225701	-0.389033	1.079486
O91	O	0.842263	-0.378844	0.477366
C92	C	0.923404	-0.393392	0.466563
H93	H	0.934583	-0.475487	0.440749
H94	H	0.946652	-0.330182	0.424839
C95	C	0.951800	-0.282942	0.577700
C96	C	0.965531	-0.383776	0.546001
H97	H	0.977788	-0.277006	0.626700
H98	H	0.897135	-0.273137	0.584978
H99	H	0.971174	-0.230279	0.542923
H100	H	0.946148	-0.436437	0.580774
H101	H	1.020194	-0.393590	0.538732
O102	O	0.990634	-0.939983	0.339674
C103	C	0.935238	-0.977562	0.394233
H104	H	0.958515	-1.052595	0.423400
H105	H	0.924407	-0.914166	0.440651
C106	C	0.829323	-0.910733	0.315900
C107	C	0.857910	-1.002895	0.351720
H108	H	0.781623	-0.926355	0.289678
H109	H	0.866644	-0.885412	0.279144
H110	H	0.820304	-0.857912	0.354588
H111	H	0.866938	-1.055709	0.313031
H112	H	0.820589	-1.028226	0.388468
H113	H	1.043408	-0.636135	0.677842
O114	O	1.035664	-0.646913	0.924271
C115	C	1.052803	-0.752984	0.944312
H116	H	1.115512	-0.758337	0.966874
H117	H	1.010715	-0.780799	0.991875
C118	C	0.966652	-0.817472	0.843763
C119	C	1.043674	-0.824048	0.871468
H120	H	0.961018	-0.861310	0.798831
H121	H	0.955102	-0.746011	0.830262
H122	H	0.931587	-0.840650	0.883406
H123	H	1.078737	-0.800859	0.831829
H124	H	1.055230	-0.895508	0.884960
H125	H	1.225640	-0.389189	0.677911
H126	H	0.582751	-0.636148	0.287055
H127	H	1.037702	-1.078445	0.475098
H128	H	0.686870	-0.636138	0.287034
H129	H	1.225659	-0.389131	0.826630
O130	O	1.233591	-0.378301	0.924435
C131	C	1.277938	-0.318224	0.978205
H132	H	1.245800	-0.314507	1.036638
H133	H	1.337549	-0.357207	0.986930
C134	C	1.328743	-0.209523	0.874453
C135	C	1.289267	-0.204951	0.946219
H136	H	1.335735	-0.139652	0.854722
H137	H	1.298869	-0.250000	0.838226
H138	H	1.378415	-0.242014	0.881733
H139	H	1.239593	-0.172472	0.938936
H140	H	1.319134	-0.164465	0.982444
O141	O	0.427689	-0.646886	0.279098
C142	C	0.481420	-0.706898	0.234718
H143	H	0.539858	-0.663286	0.232043
H144	H	0.490153	-0.787783	0.263361
C145	C	0.377604	-0.775667	0.154446
C146	C	0.449376	-0.722098	0.151155
H147	H	0.357837	-0.785048	0.102902
H148	H	0.341403	-0.735239	0.184347
H149	H	0.384891	-0.843066	0.178319
H150	H	0.442086	-0.654697	0.127292
H151	H	0.485575	-0.762516	0.121248
O152	O	1.173054	-0.939939	0.522292
C153	C	1.186639	-1.026419	0.572904
H154	H	1.154890	-1.099587	0.549700
H155	H	1.252165	-1.043178	0.576055
C156	C	1.194847	-0.909539	0.683781
C157	C	1.155846	-0.999404	0.655284
H158	H	1.175856	-0.892875	0.734598
H159	H	1.185698	-0.851275	0.649683
H160	H	1.249450	-0.923517	0.686400
H161	H	1.101246	-0.985420	0.652657
H162	H	1.164986	-1.057665	0.689385
H163	H	0.686975	-0.389445	0.469504
O164	O	1.278439	-1.084562	0.416845
C165	C	1.333576	-1.048517	0.361468
H166	H	1.302387	-1.028729	0.304277
H167	H	1.364012	-0.974415	0.384830
C168	C	1.433129	-1.160278	0.416918
C169	C	1.394823	-1.135983	0.346673
H170	H	1.470912	-1.214228	0.407794
H171	H	1.395984	-1.184560	0.454229
H172	H	1.458487	-1.098519	0.436379
H173	H	1.369459	-1.197738	0.327219
H174	H	1.431966	-1.111714	0.309359
H175	H	1.043484	-0.635998	1.079420
H176	H	1.231371	-0.945819	0.281637
H177	H	1.043441	-0.636083	0.826574
