data_functionalizedCrystal
_audit_creation_method	'MofGen! by Chris Wilmer'
_symmetry_space_group_name_H-M	'P1'
_symmetry_Int_Tables_number	1
_symmetry_cell_setting	triclinic
loop_
_symmetry_equiv_pos_as_xyz
  x,y,z
_cell_length_a	19.077105
_cell_length_b	17.638516
_cell_length_c	19.076919
_cell_angle_alpha	77.040002
_cell_angle_beta	89.923776
_cell_angle_gamma	99.427581
loop_
_atom_site_label
_atom_site_type_symbol
_atom_site_fract_x
_atom_site_fract_y
_atom_site_fract_z
Zn1	Zn	0.986788	-0.382148	0.506280
Zn2	Zn	1.320121	-0.048815	0.839613
Zn3	Zn	1.653454	0.284519	1.172946
Zn4	Zn	0.967670	-0.509156	0.410662
Zn5	Zn	1.301003	-0.175822	0.743996
Zn6	Zn	1.634337	0.157511	1.077329
Zn7	Zn	0.875985	-0.371566	0.382249
Zn8	Zn	1.209318	-0.038233	0.715583
Zn9	Zn	1.542651	0.295101	1.048916
Zn10	Zn	0.845581	-0.508679	0.523333
Zn11	Zn	1.178914	-0.175346	0.856666
Zn12	Zn	1.512247	0.157987	1.190000
O13	O	0.919006	-0.442887	0.455631
O14	O	1.252339	-0.109554	0.788964
O15	O	1.585672	0.223779	1.122298
O16	O	1.081718	-0.403624	0.498350
O17	O	1.415051	-0.070290	0.831683
O18	O	1.748384	0.263043	1.165017
O19	O	0.960231	-0.486675	0.307833
O20	O	1.293564	-0.153342	0.641167
O21	O	1.626898	0.179992	0.974500
O22	O	0.911408	-0.262434	0.379675
O23	O	1.244741	0.070899	0.713008
O24	O	1.578075	0.404233	1.046341
O25	O	1.067672	-0.496936	0.428100
O26	O	1.401005	-0.163602	0.761434
O27	O	1.734339	0.169731	1.094767
O28	O	0.992814	-0.270208	0.470799
O29	O	1.326148	0.063125	0.804132
O30	O	1.659481	0.396458	1.137466
O31	O	0.892870	-0.385588	0.286958
O32	O	1.226204	-0.052255	0.620292
O33	O	1.559537	0.281078	0.953625
O34	O	0.774486	-0.385127	0.396210
O35	O	1.107819	-0.051793	0.729544
O36	O	1.441152	0.281540	1.062877
O37	O	0.859589	-0.496124	0.620131
O38	O	1.192922	-0.162791	0.953464
O39	O	1.526255	0.170543	1.286798
O40	O	0.752148	-0.485863	0.499864
O41	O	1.085481	-0.152530	0.833197
O42	O	1.418815	0.180804	1.166530
O43	O	0.963333	-0.403162	0.607602
O44	O	1.296666	-0.069828	0.940935
O45	O	1.629999	0.263505	1.274269
O46	O	0.930750	-0.619628	0.444636
O47	O	1.264083	-0.286295	0.777969
O48	O	1.597416	0.047038	1.111303
O49	O	0.841051	-0.619278	0.527415
O50	O	1.174385	-0.285945	0.860748
O51	O	1.507718	0.047388	1.194081
C52	C	0.738045	-0.434295	0.446805
C53	C	1.071378	-0.100962	0.780138
C54	C	1.404711	0.232371	1.113471
C55	C	0.660624	-0.430640	0.443049
C56	C	0.993958	-0.097306	0.776382
C57	C	1.327291	0.236027	1.109716
C58	C	0.612630	-0.481443	0.495193
C59	C	0.945963	-0.148110	0.828526
C60	C	1.279296	0.185223	1.161860
C61	C	0.539887	-0.477998	0.491666
C62	C	0.873220	-0.144665	0.824999
C63	C	1.206554	0.188669	1.158332
C64	C	0.515140	-0.423752	0.435991
C65	C	0.848473	-0.090419	0.769324
C66	C	1.181806	0.242914	1.102657
C67	C	0.563141	-0.372943	0.383844
C68	C	0.896474	-0.039610	0.717177
C69	C	1.229807	0.293724	1.050510
C70	C	0.635882	-0.376385	0.387375
C71	C	0.969216	-0.043052	0.720708
C72	C	1.302549	0.290282	1.054041
C73	C	0.298832	-0.407822	0.419652
C74	C	0.632165	-0.074489	0.752986
C75	C	0.965499	0.258845	1.086319
C76	C	0.226084	-0.404385	0.416124
C77	C	0.559417	-0.071052	0.749458
C78	C	0.892751	0.262281	1.082791
C79	C	0.202835	-0.509440	0.523948
C80	C	0.536169	-0.176106	0.857281
C81	C	0.869502	0.157227	1.190614
C82	C	0.275579	-0.512880	0.527471
C83	C	0.608913	-0.179547	0.860804
C84	C	0.942246	0.153786	1.194138
C85	C	0.323574	-0.462068	0.475326
C86	C	0.656908	-0.128735	0.808660
C87	C	0.990241	0.204598	1.141993
N88	N	0.440785	-0.420231	0.432382
N89	N	0.774118	-0.086898	0.765716
N90	N	1.107451	0.246436	1.099049
N91	N	0.397928	-0.465586	0.478938
N92	N	0.731262	-0.132253	0.812271
N93	N	1.064595	0.201080	1.145605
C94	C	0.880545	-0.648116	0.490975
C95	C	1.213878	-0.314782	0.824309
C96	C	1.547212	0.018551	1.157642
C97	C	0.864154	-0.735917	0.506123
C98	C	1.197487	-0.402584	0.839456
C99	C	1.530820	-0.069250	1.172789
C100	C	1.043944	-1.025476	0.340633
C101	C	1.377277	-0.692143	0.673967
C102	C	1.710610	-0.358809	1.007300
C103	C	1.028529	-1.107979	0.354877
C104	C	1.361862	-0.774645	0.688211
C105	C	1.695196	-0.441312	1.021544
C106	C	0.935055	-1.107652	0.440999
C107	C	1.268388	-0.774319	0.774333
C108	C	1.601721	-0.440986	1.107666
C109	C	0.950459	-1.025147	0.426760
C110	C	1.283792	-0.691814	0.760093
C111	C	1.617126	-0.358481	1.093427
C112	C	1.004905	-0.984066	0.376577
C113	C	1.338238	-0.650733	0.709910
C114	C	1.671572	-0.317399	1.043243
C115	C	0.911420	-0.983737	0.462703
C116	C	1.244754	-0.650404	0.796037
C117	C	1.578087	-0.317071	1.129370
C118	C	0.926826	-0.901240	0.448468
C119	C	1.260160	-0.567907	0.781801
C120	C	1.593493	-0.234573	1.115134
C121	C	0.981271	-0.860153	0.398288
C122	C	1.314604	-0.526819	0.731622
C123	C	1.647938	-0.193486	1.064955
C124	C	1.020311	-0.901569	0.362341
C125	C	1.353644	-0.568235	0.695674
C126	C	1.686978	-0.234902	1.029008
C127	C	0.856978	-1.024821	0.512890
C128	C	1.190312	-0.691488	0.846223
C129	C	1.523645	-0.358154	1.179557
C130	C	0.817939	-0.983411	0.548833
C131	C	1.151273	-0.650078	0.882167
C132	C	1.484606	-0.316744	1.215500
C133	C	0.833342	-0.900912	0.534594
C134	C	1.166675	-0.567578	0.867927
C135	C	1.500008	-0.234245	1.201261
C136	C	0.887787	-0.859824	0.484415
C137	C	1.221120	-0.526491	0.817748
C138	C	1.554453	-0.193158	1.151082
C139	C	0.794302	-0.859496	0.570542
C140	C	1.127635	-0.526163	0.903875
C141	C	1.460969	-0.192829	1.237208
C142	C	0.809708	-0.776999	0.556306
C143	C	1.143041	-0.443665	0.889639
C144	C	1.476375	-0.110332	1.222972
C145	C	0.903192	-0.777327	0.470179
C146	C	1.236526	-0.443994	0.803512
C147	C	1.569859	-0.110660	1.136846
C148	C	1.100673	-0.451513	0.464492
C149	C	1.434007	-0.118180	0.797826
C150	C	1.767340	0.215153	1.131159
C151	C	1.178089	-0.455189	0.468269
C152	C	1.511423	-0.121856	0.801602
C153	C	1.844756	0.211478	1.134935
C154	C	0.910202	-0.450770	0.640270
C155	C	1.243535	-0.117437	0.973603
C156	C	1.576869	0.215897	1.306937
C157	C	0.906450	-0.454129	0.718952
C158	C	1.239783	-0.120796	1.052285
C159	C	1.573117	0.212537	1.385619
C160	C	0.957635	-0.236859	0.420165
C161	C	1.290968	0.096474	0.753499
C162	C	1.624302	0.429807	1.086832
C163	C	0.974097	-0.149062	0.405052
C164	C	1.307430	0.184271	0.738385
C165	C	1.640763	0.517604	1.071718
C166	C	0.927826	-0.434980	0.271703
C167	C	1.261160	-0.101647	0.605036
C168	C	1.594493	0.231687	0.938369
C169	C	0.931755	-0.431405	0.192989
C170	C	1.265088	-0.098071	0.526323
C171	C	1.598421	0.235262	0.859656
C172	C	0.958699	-0.407309	0.749395
C173	C	1.292032	-0.073976	1.082729
C174	C	1.625365	0.259358	1.416062
C175	C	0.955166	-0.410462	0.823324
C176	C	1.288499	-0.077129	1.156658
C177	C	1.621832	0.256205	1.489991
C178	C	0.899386	-0.460440	0.866810
C179	C	1.232720	-0.127106	1.200143
C180	C	1.566053	0.206227	1.533477
C181	C	0.847132	-0.507261	0.836362
C182	C	1.180466	-0.173928	1.169695
C183	C	1.513799	0.159405	1.503028
C184	C	0.850663	-0.504104	0.762433
C185	C	1.183997	-0.170771	1.095766
C186	C	1.517330	0.162563	1.429099
C187	C	0.883032	-0.475069	1.088612
C188	C	1.216365	-0.141736	1.421946
C189	C	1.549698	0.191598	1.755279
C190	C	0.879506	-0.478225	1.162546
C191	C	1.212839	-0.144892	1.495879
C192	C	1.546173	0.188442	1.829213
C193	C	0.987539	-0.381424	1.149504
C194	C	1.320872	-0.048091	1.482837
C195	C	1.654206	0.285243	1.816170
C196	C	0.991067	-0.378274	1.075575
C197	C	1.324400	-0.044941	1.408908
C198	C	1.657734	0.288392	1.742241
C199	C	0.938811	-0.425093	1.045132
C200	C	1.272145	-0.091760	1.378465
C201	C	1.605478	0.241574	1.711799
N202	N	0.895775	-0.463665	0.942378
N203	N	1.229108	-0.130332	1.275711
N204	N	1.562441	0.203001	1.609045
N205	N	0.942421	-0.421863	0.969565
N206	N	1.275754	-0.088529	1.302898
N207	N	1.609087	0.244804	1.636231
H208	H	0.163751	-0.550807	0.566402
H209	H	0.497084	-0.217474	0.899735
H210	H	0.830418	0.115860	1.233068
H211	H	0.337901	-0.366453	0.377188
H212	H	0.671234	-0.033120	0.710521
H213	H	1.004567	0.300214	1.043855
Cl214	Cl	0.194974	-0.336191	0.346123
Cl215	Cl	0.528308	-0.002858	0.679456
Cl216	Cl	0.861641	0.330476	1.012790
H217	H	0.542986	-0.328772	0.338514
H218	H	0.876320	0.004562	0.671848
H219	H	1.209653	0.337895	1.005181
Cl220	Cl	0.696220	-0.312513	0.321820
Cl221	Cl	1.029553	0.020821	0.655154
Cl222	Cl	1.362886	0.354154	0.988487
H223	H	1.064641	-0.868118	0.321471
H224	H	1.397975	-0.534784	0.654804
H225	H	1.731308	-0.201451	0.988138
Cl226	Cl	0.749498	-1.035064	0.611921
Cl227	Cl	1.082831	-0.701731	0.945254
Cl228	Cl	1.416165	-0.368397	1.278587
H229	H	0.777919	-0.743282	0.585576
H230	H	1.111252	-0.409949	0.918909
H231	H	1.444586	-0.076616	1.252242
Cl232	Cl	0.817338	-0.533928	1.050351
Cl233	Cl	1.150672	-0.200595	1.383685
Cl234	Cl	1.484005	0.132739	1.717018
H235	H	1.088274	-0.992025	0.299763
H236	H	1.421607	-0.658692	0.633097
H237	H	1.754941	-0.325359	0.966430
Cl238	Cl	0.809375	-0.541054	1.217212
Cl239	Cl	1.142708	-0.207721	1.550546
Cl240	Cl	1.476041	0.125612	1.883879
H241	H	0.947523	-0.743876	0.429309
H242	H	1.280856	-0.410543	0.762643
H243	H	1.614190	-0.077210	1.095976
Cl244	Cl	1.077614	-1.160035	0.309686
Cl245	Cl	1.410947	-0.826702	0.643019
Cl246	Cl	1.744280	-0.493368	0.976353
Cl247	Cl	0.725866	-0.911152	0.633635
Cl248	Cl	1.059200	-0.577819	0.966968
Cl249	Cl	1.392533	-0.244485	1.300301
H250	H	1.004122	-0.366614	0.713994
H251	H	1.337456	-0.033281	1.047328
H252	H	1.670789	0.300052	1.380661
H253	H	0.808111	-0.542222	0.737646
H254	H	1.141445	-0.208888	1.070979
H255	H	1.474778	0.124445	1.404312
Cl256	Cl	1.020877	-0.351636	0.861600
Cl257	Cl	1.354211	-0.018302	1.194933
Cl258	Cl	1.687544	0.315031	1.528267
H259	H	0.801714	-0.547951	0.871773
H260	H	1.135047	-0.214618	1.205106
H261	H	1.468380	0.118715	1.538439
H262	H	0.890727	-1.141112	0.481860
H263	H	1.224060	-0.807779	0.815194
H264	H	1.557393	-0.474446	1.148527
H265	H	0.993815	-0.792978	0.386700
H266	H	1.327149	-0.459645	0.720034
H267	H	1.660482	-0.126312	1.053367
Cl268	Cl	1.061193	-0.315443	1.020912
Cl269	Cl	1.394527	0.017890	1.354246
Cl270	Cl	1.727860	0.351224	1.687579
H271	H	1.030082	-0.343306	1.174298
H272	H	1.363415	-0.009972	1.507631
H273	H	1.696748	0.323361	1.840965
H274	H	0.632772	-0.525619	0.540528
H275	H	0.966105	-0.192285	0.873861
H276	H	1.299439	0.141048	1.207195
H277	H	0.500812	-0.519369	0.534127
H278	H	0.834145	-0.186035	0.867460
H279	H	1.167478	0.147298	1.200793
Cl280	Cl	0.837335	-1.128506	0.530476
Cl281	Cl	1.170668	-0.795173	0.863810
Cl282	Cl	1.504002	-0.461839	1.197143
Cl283	Cl	0.306684	-0.581080	0.597464
Cl284	Cl	0.640017	-0.247746	0.930797
Cl285	Cl	0.973351	0.085587	1.264131
