data_functionalizedCrystal
_audit_creation_method	'MofGen! by Chris Wilmer'
_symmetry_space_group_name_H-M	'P1'
_symmetry_Int_Tables_number	1
_symmetry_cell_setting	triclinic
loop_
_symmetry_equiv_pos_as_xyz
  x,y,z
_cell_length_a	15.944493
_cell_length_b	15.944493
_cell_length_c	10.065875
_cell_angle_alpha	98.793649
_cell_angle_beta	81.254849
_cell_angle_gamma	83.475044
loop_
_atom_site_label
_atom_site_type_symbol
_atom_site_fract_x
_atom_site_fract_y
_atom_site_fract_z
O1	O	1.126820	0.095758	-0.113459
O2	O	1.626820	0.595758	0.386541
O3	O	0.882262	0.109165	-0.113463
O4	O	1.382262	0.609165	0.386537
O5	O	1.011246	-0.019819	-0.113472
O6	O	1.511246	0.480181	0.386528
O7	O	0.997836	0.224742	-0.113450
O8	O	1.497836	0.724742	0.386550
O9	O	0.986650	0.004875	0.113518
O10	O	1.486650	0.504875	0.613518
O11	O	0.857666	0.133859	0.113527
O12	O	1.357666	0.633859	0.613527
O13	O	1.102225	0.120452	0.113531
O14	O	1.602225	0.620452	0.613531
Zn15	Zn	0.976040	0.131076	0.149569
Zn16	Zn	1.476040	0.631076	0.649569
Zn17	Zn	1.008446	0.098541	-0.149501
Zn18	Zn	1.508446	0.598541	0.350499
O19	O	0.973240	0.249436	0.113540
O20	O	1.473240	0.749436	0.613540
C21	C	0.838669	0.120964	0.000031
C22	C	1.338669	0.620964	0.500031
C23	C	0.745421	0.119321	0.000028
C24	C	1.245421	0.619321	0.500028
C25	C	0.509645	0.195244	0.000034
C26	C	1.009645	0.695244	0.500034
C27	C	0.446968	0.166478	0.111955
C28	C	0.946968	0.666478	0.611955
C29	C	0.574701	0.116277	0.000031
C30	C	1.074701	0.616277	0.500031
C31	C	0.471222	0.142112	-0.111840
C32	C	0.971222	0.642112	0.388160
C33	C	0.409792	0.113342	0.000027
C34	C	0.909792	0.613342	0.500027
C35	C	0.513242	0.087542	0.112043
C36	C	1.013242	0.587542	0.612043
C37	C	0.537510	0.063177	-0.111852
C38	C	1.037510	0.563177	0.388148
C39	C	0.474863	0.034356	0.000096
C40	C	0.974863	0.534356	0.500096
C41	C	0.669700	0.117970	0.000034
C42	C	1.169700	0.617970	0.500034
C43	C	0.314795	0.111643	0.000033
C44	C	0.814795	0.611643	0.500033
C45	C	0.998401	-0.038768	0.000017
C46	C	1.498401	0.461232	0.500017
C47	C	0.996760	-0.132018	-0.000000
C48	C	1.496760	0.367982	0.500000
C49	C	1.072679	-0.367790	0.000027
C50	C	1.572679	0.132210	0.500027
C51	C	1.043864	-0.430526	-0.111891
C52	C	1.543864	0.069474	0.388109
C53	C	0.993714	-0.302736	0.000016
C54	C	1.493714	0.197264	0.500016
C55	C	1.019596	-0.406155	0.111903
C56	C	1.519596	0.093845	0.611903
C57	C	0.990777	-0.467643	0.000038
C58	C	1.490777	0.032357	0.500038
C59	C	0.964930	-0.364253	-0.111994
C60	C	1.464930	0.135747	0.388006
C61	C	0.940663	-0.339868	0.111901
C62	C	1.440663	0.160132	0.611901
C63	C	0.911793	-0.402574	-0.000045
C64	C	1.411793	0.097426	0.499955
C65	C	0.995408	-0.207738	0.000002
C66	C	1.495408	0.292262	0.500002
C67	C	0.989077	-0.562639	0.000042
C68	C	1.489077	-0.062639	0.500042
C69	C	1.145817	0.108653	0.000034
C70	C	1.645817	0.608653	0.500034
C71	C	1.239066	0.110295	0.000028
C72	C	1.739066	0.610295	0.500028
C73	C	0.986086	0.268384	0.000048
C74	C	1.486086	0.768384	0.500048
C75	C	0.987728	0.361633	0.000056
C76	C	1.487728	0.861633	0.500056
N77	N	0.953930	0.153281	0.353676
N78	N	1.453930	0.653281	0.853676
N79	N	1.030563	0.076330	-0.353608
N80	N	1.530563	0.576330	0.146392
C81	C	1.000748	0.106261	0.421452
C82	C	1.500748	0.606261	0.921452
C83	C	0.983738	0.123356	0.578620
C84	C	1.483738	0.623356	1.078620
H85	H	0.525242	0.263277	0.000145
H86	H	1.025242	0.763277	0.500145
H87	H	0.843727	-0.418032	-0.000107
H88	H	1.343727	0.081968	0.499893
H89	H	0.901252	0.206189	0.412006
H90	H	1.401252	0.706189	0.912006
H91	H	1.140711	-0.352188	-0.000085
H92	H	1.640711	0.147812	0.499915
H93	H	0.941864	-0.345731	-0.206714
H94	H	1.441864	0.154269	0.293286
H95	H	0.576717	0.019559	-0.206482
H96	H	1.076717	0.519559	0.293518
H97	H	0.897090	-0.300607	0.206523
H98	H	1.397090	0.199393	0.706523
H99	H	1.042710	-0.424800	0.206515
H100	H	1.542710	0.075200	0.706515
H101	H	1.053421	0.053346	0.363124
H102	H	1.553421	0.553346	0.863124
H103	H	0.931056	0.176268	0.636945
H104	H	1.431056	0.676268	1.136945
H105	H	1.083238	0.023411	0.588067
H106	H	1.583238	0.523411	1.088067
H107	H	0.407771	0.210121	0.206579
H108	H	0.907771	0.710121	0.706579
H109	H	1.087465	-0.469772	-0.206510
H110	H	1.587465	0.030228	0.293490
H111	H	0.531814	0.064517	0.206757
H112	H	1.031814	0.564517	0.706757
H113	H	0.459405	-0.033710	0.000154
H114	H	0.959405	0.466290	0.500154
H115	H	0.452528	0.165185	-0.206447
H116	H	0.952528	0.665185	0.293553
