data_functionalizedCrystal
_audit_creation_method	'MofGen! by Chris Wilmer'
_symmetry_space_group_name_H-M	'P1'
_symmetry_Int_Tables_number	1
_symmetry_cell_setting	triclinic
loop_
_symmetry_equiv_pos_as_xyz
  x,y,z
_cell_length_a	17.077404
_cell_length_b	21.295417
_cell_length_c	17.077396
_cell_angle_alpha	90.033192
_cell_angle_beta	90.018362
_cell_angle_gamma	90.028477
loop_
_atom_site_label
_atom_site_type_symbol
_atom_site_fract_x
_atom_site_fract_y
_atom_site_fract_z
Zn1	Zn	1.200013	-0.250643	0.443793
Zn2	Zn	1.533346	0.082690	0.777126
Zn3	Zn	1.866680	0.416023	1.110460
Zn4	Zn	1.199903	-0.355916	0.312516
Zn5	Zn	1.533236	-0.022583	0.645850
Zn6	Zn	1.866569	0.310750	0.979183
Zn7	Zn	1.068745	-0.250661	0.312544
Zn8	Zn	1.402078	0.082672	0.645877
Zn9	Zn	1.735411	0.416005	0.979210
Zn10	Zn	1.068695	-0.355875	0.443743
Zn11	Zn	1.402029	-0.022542	0.777076
Zn12	Zn	1.735362	0.310792	1.110409
O13	O	1.134339	-0.303274	0.378149
O14	O	1.467672	0.030059	0.711482
O15	O	1.801006	0.363393	1.044816
O16	O	1.309845	-0.264618	0.426389
O17	O	1.643179	0.068715	0.759722
O18	O	1.976512	0.402049	1.093055
O19	O	1.182479	-0.341979	0.202673
O20	O	1.515812	-0.008646	0.536006
O21	O	1.849145	0.324688	0.869340
O22	O	1.086225	-0.162569	0.329987
O23	O	1.419558	0.170764	0.663320
O24	O	1.752891	0.504097	0.996653
O25	O	1.309764	-0.341962	0.329940
O26	O	1.643098	-0.008628	0.663274
O27	O	1.976431	0.324705	0.996607
O28	O	1.182667	-0.162556	0.426415
O29	O	1.516000	0.170777	0.759749
O30	O	1.849334	0.504110	1.093082
O31	O	1.086118	-0.264648	0.202693
O32	O	1.419451	0.068685	0.536026
O33	O	1.752784	0.402018	0.869360
O34	O	0.958891	-0.264608	0.329938
O35	O	1.292225	0.068725	0.663271
O36	O	1.625558	0.402058	0.996604
O37	O	1.086140	-0.341891	0.553596
O38	O	1.419474	-0.008557	0.886930
O39	O	1.752807	0.324776	1.220263
O40	O	0.958855	-0.341908	0.426329
O41	O	1.292188	-0.008575	0.759662
O42	O	1.625522	0.324758	1.092996
O43	O	1.182619	-0.264578	0.553633
O44	O	1.515952	0.068756	0.886967
O45	O	1.849286	0.402089	1.220300
O46	O	1.182431	-0.444000	0.329891
O47	O	1.515764	-0.110667	0.663224
O48	O	1.849097	0.222666	0.996558
O49	O	1.086033	-0.443970	0.426302
O50	O	1.419367	-0.110636	0.759636
O51	O	1.752700	0.222697	1.092969
C52	C	0.930391	-0.303256	0.378131
C53	C	1.263724	0.030077	0.711465
C54	C	1.597058	0.363411	1.044798
C55	C	0.843141	-0.303264	0.378142
C56	C	1.176475	0.030070	0.711476
C57	C	1.509808	0.363403	1.044809
C58	C	0.802194	-0.263062	0.428440
C59	C	1.135527	0.070271	0.761773
C60	C	1.468861	0.403604	1.095106
C61	C	0.720214	-0.263066	0.428443
C62	C	1.053547	0.070267	0.761777
C63	C	1.386880	0.403600	1.095110
C64	C	0.679182	-0.303275	0.378153
C65	C	1.012515	0.030058	0.711486
C66	C	1.345849	0.363391	1.044820
C67	C	0.720135	-0.343478	0.327850
C68	C	1.053468	-0.010145	0.661183
C69	C	1.386802	0.323188	0.994517
C70	C	0.802114	-0.343471	0.327843
C71	C	1.135447	-0.010137	0.661176
C72	C	1.468780	0.323196	0.994510
C73	C	0.549265	-0.343493	0.327870
C74	C	0.882598	-0.010159	0.661203
C75	C	1.215931	0.323174	0.994536
C76	C	0.467280	-0.343501	0.327877
C77	C	0.800614	-0.010168	0.661211
C78	C	1.133947	0.323165	0.994544
C79	C	0.467365	-0.263088	0.428470
C80	C	0.800698	0.070245	0.761803
C81	C	1.134031	0.403578	1.095137
C82	C	0.549344	-0.263081	0.428463
C83	C	0.882677	0.070253	0.761796
C84	C	1.216010	0.403586	1.095130
C85	C	0.590291	-0.303285	0.378161
C86	C	0.923624	0.030049	0.711494
C87	C	1.256958	0.363382	1.044827
C88	C	1.134236	-0.466826	0.378105
C89	C	1.467569	-0.133492	0.711439
C90	C	1.800903	0.199841	1.044772
C91	C	1.134264	-0.536794	0.378113
C92	C	1.467597	-0.203460	0.711446
C93	C	1.800931	0.129873	1.044780
C94	C	1.184503	-0.569655	0.327963
C95	C	1.517836	-0.236322	0.661296
C96	C	1.851169	0.097011	0.994630
C97	C	1.184539	-0.635398	0.327981
C98	C	1.517873	-0.302064	0.661314
C99	C	1.851206	0.031269	0.994647
C100	C	1.134323	-0.668276	0.378140
C101	C	1.467657	-0.334943	0.711473
C102	C	1.800990	-0.001610	1.044807
C103	C	1.084081	-0.635407	0.428300
C104	C	1.417414	-0.302073	0.761633
C105	C	1.750748	0.031260	1.094967
C106	C	1.084051	-0.569665	0.428286
C107	C	1.417385	-0.236332	0.761620
C108	C	1.750718	0.097001	1.094953
N109	N	1.065655	-0.771540	0.384118
N110	N	1.398988	-0.438207	0.717452
N111	N	1.732321	-0.104873	1.050785
N112	N	1.065685	-0.833991	0.384127
N113	N	1.399019	-0.500658	0.717460
N114	N	1.732352	-0.167325	1.050793
C115	C	1.134411	-0.866351	0.378185
C116	C	1.467745	-0.533018	0.711518
C117	C	1.801078	-0.199684	1.044852
N118	N	1.203107	-0.833900	0.372220
N119	N	1.536441	-0.500566	0.705553
N120	N	1.869774	-0.167233	1.038886
N121	N	1.203076	-0.771443	0.372207
N122	N	1.536409	-0.438109	0.705541
N123	N	1.869743	-0.104776	1.038874
C124	C	1.134350	-0.739562	0.378161
C125	C	1.467684	-0.406228	0.711494
C126	C	1.801017	-0.072895	1.044827
C127	C	1.184694	-0.970498	0.328052
C128	C	1.518028	-0.637165	0.661385
C129	C	1.851361	-0.303831	0.994718
C130	C	1.184732	-1.036242	0.328075
C131	C	1.518066	-0.702908	0.661408
C132	C	1.851399	-0.369575	0.994742
C133	C	1.084267	-1.036249	0.428390
C134	C	1.417600	-0.702916	0.761723
C135	C	1.750934	-0.369583	1.095056
C136	C	1.084236	-0.970507	0.428371
C137	C	1.417569	-0.637173	0.761704
C138	C	1.750903	-0.303840	1.095037
C139	C	1.134448	-0.937635	0.378198
C140	C	1.467782	-0.604302	0.711531
C141	C	1.801115	-0.270968	1.044864
C142	C	1.339083	-0.303292	0.378167
C143	C	1.672417	0.030041	0.711500
C144	C	2.005750	0.363374	1.044834
C145	C	1.426333	-0.303300	0.378175
C146	C	1.759666	0.030033	0.711508
C147	C	2.093000	0.363367	1.044841
C148	C	1.134386	-0.303228	0.582893
C149	C	1.467720	0.030106	0.916227
C150	C	1.801053	0.363439	1.249560
C151	C	1.134407	-0.303208	0.670143
C152	C	1.467740	0.030126	1.003476
C153	C	1.801073	0.363459	1.336810
C154	C	1.134464	-0.139084	0.378210
C155	C	1.467797	0.194250	0.711543
C156	C	1.801130	0.527583	1.044876
C157	C	1.134517	-0.069116	0.378236
C158	C	1.467850	0.264218	0.711569
C159	C	1.801183	0.597551	1.044902
C160	C	1.134337	-0.303275	0.174201
C161	C	1.467670	0.030059	0.507534
C162	C	1.801003	0.363392	0.840868
C163	C	1.134469	-0.303117	0.086952
C164	C	1.467802	0.030216	0.420285
C165	C	1.801135	0.363550	0.753618
C166	C	1.184645	-0.262948	0.711154
C167	C	1.517978	0.070386	1.044487
C168	C	1.851312	0.403719	1.377821
C169	C	1.184654	-0.262927	0.793134
C170	C	1.517988	0.070407	1.126468
C171	C	1.851321	0.403740	1.459801
C172	C	1.134429	-0.303170	0.834103
C173	C	1.467762	0.030164	1.167436
C174	C	1.801096	0.363497	1.500769
C175	C	1.084185	-0.343432	0.793086
C176	C	1.417519	-0.010098	1.126419
C177	C	1.750852	0.323235	1.459753
C178	C	1.084172	-0.343449	0.711107
C179	C	1.417506	-0.010116	1.044440
C180	C	1.750839	0.323218	1.377774
C181	C	1.084217	-0.343394	0.963956
C182	C	1.417550	-0.010060	1.297290
C183	C	1.750884	0.323273	1.630623
C184	C	1.084231	-0.343377	1.045941
C185	C	1.417564	-0.010044	1.379274
C186	C	1.750897	0.323289	1.712608
C187	C	1.184699	-0.262871	1.045984
C188	C	1.518032	0.070462	1.379317
C189	C	1.851365	0.403795	1.712650
C190	C	1.184686	-0.262889	0.964005
C191	C	1.518019	0.070445	1.297338
C192	C	1.851353	0.403778	1.630671
C193	C	1.134443	-0.303152	0.922994
C194	C	1.467776	0.030182	1.256327
C195	C	1.801110	0.363515	1.589660
H196	H	0.835596	-0.230321	0.469394
H197	H	1.168930	0.103012	0.802728
H198	H	1.502263	0.436345	1.136061
F199	F	1.238107	-0.220118	0.667560
F200	F	1.571440	0.113216	1.000893
F201	F	1.904773	0.446549	1.334226
F202	F	1.238152	-0.220098	0.836778
F203	F	1.571485	0.113236	1.170111
F204	F	1.904818	0.446569	1.503444
H205	H	1.043324	-0.943749	0.469204
H206	H	1.376657	-0.610416	0.802538
H207	H	1.709990	-0.277082	1.135871
F208	F	0.676638	-0.220280	0.481978
F209	F	1.009972	0.113053	0.815312
F210	F	1.343305	0.446387	1.148645
H211	H	0.582750	-0.230343	0.469418
H212	H	0.916083	0.102991	0.802752
H213	H	1.249416	0.436324	1.136085
F214	F	0.423785	-0.220299	0.482004
F215	F	0.757118	0.113035	0.815337
F216	F	1.090452	0.446368	1.148670
H217	H	1.225588	-0.230123	0.930650
H218	H	1.558922	0.103211	1.263984
H219	H	1.892255	0.436544	1.597317
H220	H	1.043288	-0.376196	0.826449
H221	H	1.376621	-0.042863	1.159782
H222	H	1.709955	0.290471	1.493116
F223	F	1.238172	-0.220021	1.089631
F224	F	1.571505	0.113313	1.422964
F225	F	1.904839	0.446646	1.756298
F226	F	0.423613	-0.386308	0.274368
F227	F	0.756946	-0.052975	0.607701
F228	F	1.090279	0.280359	0.941034
F229	F	0.676464	-0.386269	0.274323
F230	F	1.009797	-0.052935	0.607656
F231	F	1.343130	0.280398	0.940990
F232	F	1.030769	-0.386203	1.089541
F233	F	1.364102	-0.052870	1.422874
F234	F	1.697435	0.280463	1.756208
H235	H	1.043255	-0.376227	0.677717
H236	H	1.376589	-0.042893	1.011050
H237	H	1.709922	0.290440	1.344384
F238	F	1.238012	-0.670379	0.274602
F239	F	1.571345	-0.337045	0.607935
F240	F	1.904678	-0.003712	0.941268
H241	H	1.043291	-0.376170	0.930568
H242	H	1.376625	-0.042837	1.263901
H243	H	1.709958	0.290496	1.597234
H244	H	0.582602	-0.376229	0.286906
H245	H	0.915935	-0.042896	0.620240
H246	H	1.249268	0.290437	0.953573
H247	H	1.225390	-0.542893	0.287111
H248	H	1.558724	-0.209560	0.620445
H249	H	1.892057	0.123774	0.953778
F250	F	0.845692	-0.386259	0.274310
F251	F	1.179026	-0.052925	0.607644
F252	F	1.512359	0.280408	0.940977
H253	H	1.043196	-0.662180	0.469141
H254	H	1.376530	-0.328847	0.802475
H255	H	1.709863	0.004486	1.135808
F256	F	1.030578	-0.534691	0.481665
F257	F	1.363911	-0.201357	0.814998
F258	F	1.697245	0.131976	1.148332
H259	H	1.225583	-0.943733	0.287200
H260	H	1.558916	-0.610399	0.620533
H261	H	1.892250	-0.277066	0.953867
H262	H	1.225648	-1.062997	0.287238
H263	H	1.558981	-0.729663	0.620572
H264	H	1.892314	-0.396330	0.953905
H265	H	1.043384	-1.063018	0.469234
H266	H	1.376717	-0.729685	0.802567
H267	H	1.710050	-0.396351	1.135901
