data_functionalizedCrystal
_audit_creation_method	'MofGen! by Chris Wilmer'
_symmetry_space_group_name_H-M	'P1'
_symmetry_Int_Tables_number	1
_symmetry_cell_setting	triclinic
loop_
_symmetry_equiv_pos_as_xyz
  x,y,z
_cell_length_a	12.376457
_cell_length_b	16.109301
_cell_length_c	16.109301
_cell_angle_alpha	96.538519
_cell_angle_beta	78.728360
_cell_angle_gamma	78.712882
loop_
_atom_site_label
_atom_site_type_symbol
_atom_site_fract_x
_atom_site_fract_y
_atom_site_fract_z
O1	O	0.093935	-1.119069	0.090939
O2	O	0.093954	-0.877010	0.104235
O3	O	0.093933	-1.004687	-0.023442
O4	O	0.093957	-0.991392	0.218616
O5	O	-0.094074	-0.972779	0.008434
O6	O	-0.094053	-0.845102	0.136111
O7	O	-0.094071	-1.087161	0.122815
Zn8	Zn	-0.123912	-0.961065	0.134524
Zn9	Zn	0.123795	-1.003105	0.092526
O10	O	-0.094050	-0.959484	0.250492
C11	C	-0.000047	-0.830081	0.119634
C12	C	-0.000041	-0.737787	0.118018
N13	N	-0.292966	-0.932380	0.163185
C14	C	-0.000071	-0.988194	-0.038479
C15	C	-0.000073	-0.986579	-0.130774
C16	C	-0.647978	-1.098385	-0.002692
C17	C	-0.529642	-1.118457	-0.022753
C18	C	-0.470467	-1.071939	0.023730
C19	C	-0.529640	-1.005346	0.090277
C20	C	-0.647988	-0.985277	0.110344
C21	C	-0.470477	-0.958831	0.136766
C22	C	-0.529650	-0.892238	0.203313
C23	C	-0.647987	-0.872172	0.223376
C24	C	-0.707162	-0.918689	0.176894
C25	C	-0.352129	-0.978901	0.116699
C26	C	-0.352139	-0.865793	0.229735
C27	C	-0.470476	-0.845721	0.249796
N28	N	0.292848	-1.031797	0.063858
C29	C	-0.000068	-1.134090	0.107415
C30	C	-0.000067	-1.226385	0.109030
C31	C	-0.000047	-0.515514	0.190026
C32	C	-0.000054	-0.428792	0.188503
C33	C	-0.000064	-0.448665	0.037016
C34	C	-0.000065	-0.535383	0.038541
C35	C	-0.000050	-0.568806	0.115048
C36	C	-0.000057	-0.395366	0.112000
C37	C	-0.000065	-0.301339	0.110348
C38	C	-0.000045	-0.662839	0.116700
C39	C	-0.000060	-1.058589	-0.353049
C40	C	-0.000051	-1.057066	-0.439771
C41	C	-0.000044	-0.905579	-0.419897
C42	C	-0.000045	-0.907103	-0.333178
C43	C	-0.000059	-0.983610	-0.299756
C44	C	-0.000048	-0.980563	-0.473197
C45	C	-0.000038	-0.978911	-0.567224
C46	C	-0.000067	-0.985262	-0.205722
C47	C	-0.000044	-0.975977	0.265528
C48	C	-0.000035	-0.977594	0.357822
H49	H	-0.303961	-1.033121	0.062517
H50	H	-0.518669	-0.791500	0.303980
Br51	Br	-0.449336	-1.208829	-0.113059
H52	H	-0.374112	-1.088285	0.007393
Br53	Br	-0.000021	-0.801754	-0.465263
Br54	Br	-0.000080	-0.403300	-0.066809
Br55	Br	-0.000085	-0.607713	-0.063220
H56	H	-0.000043	-0.542722	0.252324
H57	H	-0.000069	-1.120885	-0.325839
H58	H	-0.000041	-0.846043	-0.289785
Br59	Br	-0.000046	-1.158829	-0.512096
H60	H	-0.000053	-0.385404	0.249559
Br61	Br	-0.867768	-0.891441	0.204115
Br62	Br	-0.728286	-1.161519	-0.065760
H63	H	-0.696166	-0.817954	0.277569
Br64	Br	-0.271839	-0.802664	0.292828
