data_functionalizedCrystal
_audit_creation_method	'MofGen! by Chris Wilmer'
_symmetry_space_group_name_H-M	'P1'
_symmetry_Int_Tables_number	1
_symmetry_cell_setting	triclinic
loop_
_symmetry_equiv_pos_as_xyz
  x,y,z
_cell_length_a	10.686220
_cell_length_b	10.686285
_cell_length_c	10.685314
_cell_angle_alpha	90.303498
_cell_angle_beta	98.357559
_cell_angle_gamma	90.345431
loop_
_atom_site_label
_atom_site_type_symbol
_atom_site_fract_x
_atom_site_fract_y
_atom_site_fract_z
Zn1	Zn	1.918443	-0.396007	-0.536171
Zn2	Zn	2.251776	-0.062673	-0.202838
Zn3	Zn	2.585110	0.270660	0.130495
Zn4	Zn	1.950488	-0.587114	-0.308092
Zn5	Zn	2.283821	-0.253780	0.025242
Zn6	Zn	2.617155	0.079553	0.358575
Zn7	Zn	1.722462	-0.396110	-0.340198
Zn8	Zn	2.055795	-0.062776	-0.006864
Zn9	Zn	2.389128	0.270557	0.326469
Zn10	Zn	1.724944	-0.621623	-0.533668
Zn11	Zn	2.058278	-0.288290	-0.200335
Zn12	Zn	2.391611	0.045044	0.132999
O13	O	1.829084	-0.500213	-0.429532
O14	O	2.162418	-0.166880	-0.096199
O15	O	2.495751	0.166453	0.237134
O16	O	2.099103	-0.406872	-0.493527
O17	O	2.432437	-0.073539	-0.160194
O18	O	2.765770	0.259795	0.173140
O19	O	1.932612	-0.547377	-0.135931
O20	O	2.265945	-0.214044	0.197403
O21	O	2.599278	0.119289	0.530736
O22	O	1.734009	-0.221739	-0.380678
O23	O	2.067342	0.111595	-0.047345
O24	O	2.400676	0.444928	0.285988
O25	O	2.122647	-0.547278	-0.325958
O26	O	2.455980	-0.213944	0.007375
O27	O	2.789313	0.119389	0.340709
O28	O	1.877996	-0.221663	-0.524659
O29	O	2.211329	0.111670	-0.191326
O30	O	2.544662	0.445003	0.142008
O31	O	1.765082	-0.407047	-0.159519
O32	O	2.098415	-0.073714	0.173814
O33	O	2.431749	0.259619	0.507148
O34	O	1.546382	-0.440510	-0.378251
O35	O	1.879715	-0.107176	-0.044918
O36	O	2.213048	0.226157	0.288416
O37	O	1.738241	-0.606094	-0.710420
O38	O	2.071574	-0.272761	-0.377087
O39	O	2.404907	0.060573	-0.043753
O40	O	1.548206	-0.606194	-0.520393
O41	O	1.881539	-0.272860	-0.187059
O42	O	2.214872	0.060473	0.146274
O43	O	1.880403	-0.440334	-0.712259
O44	O	2.213736	-0.107001	-0.378926
O45	O	2.547070	0.226332	-0.045592
O46	O	1.935019	-0.766049	-0.323531
O47	O	2.268352	-0.432715	0.009803
O48	O	2.601686	-0.099382	0.343136
O49	O	1.769313	-0.791402	-0.489261
O50	O	2.102647	-0.458069	-0.155927
O51	O	2.435980	-0.124736	0.177406
C52	C	1.501553	-0.527108	-0.452535
C53	C	1.834886	-0.193775	-0.119201
C54	C	2.168219	0.139558	0.214132
C55	C	1.361433	-0.538647	-0.462403
C56	C	1.694767	-0.205314	-0.129069
C57	C	2.028100	0.128020	0.204264
C58	C	1.855945	-0.823934	-0.402665
C59	C	2.189279	-0.490600	-0.069332
C60	C	2.522612	-0.157267	0.264001
C61	C	1.867549	-0.962417	-0.391206
C62	C	2.200882	-0.629083	-0.057872
C63	C	2.534215	-0.295750	0.275461
C64	C	2.157895	-0.473214	-0.406440
C65	C	2.491228	-0.139881	-0.073107
C66	C	2.824562	0.193453	0.260226
C67	C	2.298015	-0.461708	-0.396600
C68	C	2.631348	-0.128375	-0.063267
C69	C	2.964681	0.204958	0.270067
C70	C	1.806024	-0.527052	-0.758362
C71	C	2.139358	-0.193719	-0.425029
C72	C	2.472691	0.139615	-0.091696
C73	C	1.796197	-0.538489	-0.898490
C74	C	2.129531	-0.205156	-0.565157
C75	C	2.462864	0.128177	-0.231823
C76	C	1.802151	-0.175228	-0.456529
C77	C	2.135484	0.158105	-0.123196
C78	C	2.468818	0.491439	0.210137
C79	C	1.790674	-0.036739	-0.468034
C80	C	2.124007	0.296595	-0.134700
C81	C	2.457340	0.629928	0.198633
C82	C	1.852120	-0.473383	-0.101984
C83	C	2.185453	-0.140050	0.231350
C84	C	2.518786	0.193284	0.564683
C85	C	1.862162	-0.461575	0.038131
C86	C	2.195495	-0.128241	0.371465
C87	C	2.528828	0.205092	0.704798
H88	H	1.308528	-0.613356	-0.526285
H89	H	1.641862	-0.280022	-0.192952
H90	H	1.975195	0.053311	0.140381
H91	H	1.715981	-0.994427	-0.542579
H92	H	2.049314	-0.661093	-0.209245
H93	H	2.382648	-0.327760	0.124088
H94	H	1.732203	-0.613087	-0.951431
H95	H	2.065536	-0.279754	-0.618098
H96	H	2.398869	0.053580	-0.284765
H97	H	1.926145	-0.386959	-0.908923
H98	H	2.259479	-0.053626	-0.575590
H99	H	2.592812	0.279707	-0.242256
H100	H	1.350915	-0.387012	-0.332713
H101	H	1.684248	-0.053679	0.000620
H102	H	2.017581	0.279655	0.333954
N103	N	1.966479	-1.018457	-0.292435
N104	N	2.299813	-0.685124	0.040898
N105	N	2.633146	-0.351791	0.374231
H106	H	1.961018	-1.112760	-0.297960
H107	H	2.294352	-0.779426	0.035373
H108	H	2.627685	-0.446093	0.368706
H109	H	2.053234	-0.989908	-0.307667
H110	H	2.386567	-0.656574	0.025667
H111	H	2.719900	-0.323241	0.359000
