data_functionalizedCrystal
_audit_creation_method	'MofGen! by Chris Wilmer'
_symmetry_space_group_name_H-M	'P1'
_symmetry_Int_Tables_number	1
_symmetry_cell_setting	triclinic
loop_
_symmetry_equiv_pos_as_xyz
  x,y,z
_cell_length_a	19.188925
_cell_length_b	19.188930
_cell_length_c	18.266242
_cell_angle_alpha	89.988525
_cell_angle_beta	89.990012
_cell_angle_gamma	83.143665
loop_
_atom_site_label
_atom_site_type_symbol
_atom_site_fract_x
_atom_site_fract_y
_atom_site_fract_z
O1	O	0.926152	0.087151	-0.060905
O2	O	1.426152	0.587151	0.439095
O3	O	0.722840	0.098889	-0.060904
O4	O	1.222840	0.598889	0.439096
O5	O	0.830363	-0.008636	-0.060890
O6	O	1.330363	0.491364	0.439110
O7	O	0.818629	0.194675	-0.060919
O8	O	1.318629	0.694675	0.439081
O9	O	0.830345	-0.008642	0.060872
O10	O	1.330345	0.491358	0.560872
O11	O	0.722822	0.098883	0.060858
O12	O	1.222822	0.598883	0.560858
O13	O	0.926133	0.087145	0.060857
O14	O	1.426133	0.587145	0.560857
Zn15	Zn	0.824475	0.093013	0.080190
Zn16	Zn	1.324475	0.593013	0.580190
Zn17	Zn	0.824499	0.093021	-0.080237
Zn18	Zn	1.324499	0.593021	0.419763
O19	O	0.818610	0.194670	0.060843
O20	O	1.318610	0.694670	0.560843
C21	C	0.696820	0.098507	-0.000023
C22	C	1.196820	0.598507	0.499977
C23	C	0.619315	0.097367	-0.000022
C24	C	1.119315	0.597367	0.499978
C25	C	0.057545	0.152831	-0.000031
C26	C	0.557545	0.652831	0.499969
C27	C	0.130368	0.153908	-0.000035
C28	C	0.630368	0.653908	0.499965
C29	C	0.175302	0.090816	-0.000025
C30	C	0.675302	0.590816	0.499975
C31	C	0.147408	0.026642	-0.000030
C32	C	0.647408	0.526642	0.499970
C33	C	0.074586	0.025568	-0.000033
C34	C	0.574586	0.525568	0.499967
N35	N	0.295973	0.045138	0.041430
N36	N	0.795973	0.545138	0.541430
N37	N	0.365151	0.046163	0.041435
N38	N	0.865151	0.546163	0.541435
C39	C	0.394712	0.094050	-0.000017
C40	C	0.894712	0.594050	0.499983
N41	N	0.352480	0.140883	-0.041464
N42	N	0.852480	0.640883	0.458536
N43	N	0.283296	0.139860	-0.041465
N44	N	0.783296	0.639860	0.458535
C45	C	0.254267	0.091974	-0.000022
C46	C	0.754267	0.591974	0.499978
C47	C	0.501561	0.159386	-0.000022
C48	C	1.001561	0.659386	0.499978
C49	C	0.574385	0.160460	-0.000031
C50	C	1.074385	0.660460	0.499969
C51	C	0.591425	0.033193	-0.000018
C52	C	1.091425	0.533193	0.499982
C53	C	0.518601	0.032121	-0.000016
C54	C	1.018601	0.532121	0.499984
C55	C	0.473673	0.095220	-0.000015
C56	C	0.973673	0.595220	0.499985
C57	C	0.829974	-0.034650	-0.000007
C58	C	1.329974	0.465350	0.499993
C59	C	0.828833	-0.112154	-0.000001
C60	C	1.328833	0.387846	0.499999
C61	C	0.891924	-0.157079	0.000002
C62	C	1.391924	0.342921	0.500002
C63	C	0.890852	-0.229903	-0.000009
C64	C	1.390852	0.270097	0.499991
C65	C	0.826686	-0.257799	-0.000010
C66	C	1.326686	0.242201	0.499990
C67	C	0.763587	-0.212864	-0.000017
C68	C	1.263587	0.287136	0.499983
C69	C	0.764660	-0.140041	-0.000012
C70	C	1.264660	0.359959	0.499988
N71	N	0.777633	-0.365805	0.041429
N72	N	1.277633	0.134195	0.541429
N73	N	0.776617	-0.434983	0.041426
N74	N	1.276617	0.065017	0.541426
C75	C	0.823448	-0.477207	-0.000024
C76	C	1.323448	0.022793	0.499976
N77	N	0.871343	-0.447641	-0.041463
N78	N	1.371343	0.052359	0.458537
N79	N	0.872361	-0.378456	-0.041457
N80	N	1.372361	0.121544	0.458543
C81	C	0.825515	-0.336761	-0.000015
C82	C	1.325515	0.163239	0.499985
C83	C	0.885381	-0.601097	-0.000035
C84	C	1.385381	-0.101097	0.499965
C85	C	0.884307	-0.673922	-0.000051
C86	C	1.384307	-0.173922	0.499949
C87	C	0.757040	-0.656880	-0.000051
C88	C	1.257040	-0.156880	0.499949
C89	C	0.758116	-0.584057	-0.000042
C90	C	1.258116	-0.084057	0.499958
C91	C	0.822289	-0.556170	-0.000031
C92	C	1.322289	-0.056170	0.499969
C93	C	0.952154	0.087527	-0.000026
C94	C	1.452154	0.587527	0.499974
C95	C	1.029658	0.088666	-0.000032
C96	C	1.529658	0.588666	0.499968
C97	C	0.819000	0.220684	-0.000041
C98	C	1.319000	0.720684	0.499959
C99	C	0.820140	0.298188	-0.000053
C100	C	1.320140	0.798188	0.499947
N101	N	0.824463	0.093008	0.189677
N102	N	1.324463	0.593008	0.689677
N103	N	0.824515	0.093020	-0.189724
N104	N	1.324515	0.593020	0.310276
C105	C	0.872090	0.045419	0.227992
C106	C	1.372090	0.545419	0.727992
C107	C	0.872095	0.045416	0.304637
C108	C	1.372095	0.545416	0.804637
C109	C	0.824479	0.093013	0.342964
C110	C	1.324479	0.593013	0.842964
C111	C	0.776843	0.140606	0.304639
C112	C	1.276843	0.640606	0.804639
C113	C	0.776836	0.140603	0.227996
C114	C	1.276836	0.640603	0.727996
N115	N	0.815403	0.154821	0.463287
N116	N	1.315403	0.654821	0.963287
N117	N	0.815415	0.154821	0.536096
N118	N	1.315415	0.654821	1.036096
C119	C	0.824499	0.093024	0.573886
C120	C	1.324499	0.593024	1.073886
N121	N	0.833584	0.031223	0.536118
N122	N	1.333584	0.531223	1.036118
N123	N	0.833576	0.031223	0.463303
N124	N	1.333576	0.531223	0.963303
C125	C	0.824482	0.093021	0.426071
C126	C	1.324482	0.593021	0.926071
C127	C	0.872133	0.045427	0.695308
C128	C	1.372133	0.545427	1.195308
C129	C	0.872132	0.045423	0.771955
C130	C	1.372132	0.545423	1.271955
C131	C	0.776884	0.140619	0.771956
C132	C	1.276884	0.640619	1.271956
C133	C	0.776881	0.140617	0.695311
C134	C	1.276881	0.640617	1.195311
C135	C	0.824509	0.093022	0.656992
C136	C	1.324509	0.593022	1.156992
H137	H	0.153078	0.206160	-0.000028
H138	H	0.653078	0.706160	0.499972
H139	H	0.020968	0.204211	-0.000034
H140	H	0.520968	0.704211	0.499966
H141	H	0.183999	-0.024728	-0.000023
H142	H	0.683999	0.475272	0.499977
H143	H	0.628010	-0.018178	-0.000015
H144	H	1.128010	0.481822	0.499985
H145	H	0.597088	0.212713	-0.000036
H146	H	1.097088	0.712713	0.499964
H147	H	0.495896	-0.020129	-0.000012
H148	H	0.995896	0.479871	0.499988
H149	H	0.704794	-0.679592	-0.000055
H150	H	1.204794	-0.179592	0.499945
H151	H	0.464978	0.210765	-0.000022
H152	H	0.964978	0.710765	0.499978
H153	H	0.944179	-0.134379	0.000009
H154	H	1.444179	0.365621	0.500009
H155	H	0.910870	0.006663	0.196795
H156	H	1.410870	0.506663	0.696795
H157	H	0.051883	-0.026685	-0.000033
H158	H	0.551883	0.473315	0.499967
H159	H	0.910912	0.006670	0.664108
H160	H	1.410912	0.506670	1.164108
H161	H	0.942230	-0.266488	-0.000010
H162	H	1.442230	0.233512	0.499990
H163	H	0.711342	-0.235581	-0.000019
H164	H	1.211342	0.264419	0.499981
H165	H	0.738073	0.179359	0.335849
H166	H	1.238073	0.679359	0.835849
H167	H	0.713282	-0.103462	-0.000015
H168	H	1.213282	0.396538	0.499985
H169	H	0.937635	-0.578390	-0.000029
H170	H	1.437635	-0.078390	0.499971
H171	H	0.935686	-0.710500	-0.000053
H172	H	1.435686	-0.210500	0.499947
H173	H	0.706740	-0.547478	-0.000041
H174	H	1.206740	-0.047478	0.499959
H175	H	0.738051	0.179356	0.196799
H176	H	1.238051	0.679356	0.696799
H177	H	0.910879	0.006662	0.335839
H178	H	1.410879	0.506662	0.835839
H179	H	0.910914	0.006667	0.803151
H180	H	1.410914	0.506667	1.303151
H181	H	0.738112	0.179371	0.803161
H182	H	1.238112	0.679371	1.303161
H183	H	0.738102	0.179371	0.664113
H184	H	1.238102	0.679371	1.164113
