data_functionalizedCrystal
_audit_creation_method	'MofGen! by Chris Wilmer'
_symmetry_space_group_name_H-M	'P1'
_symmetry_Int_Tables_number	1
_symmetry_cell_setting	triclinic
loop_
_symmetry_equiv_pos_as_xyz
  x,y,z
_cell_length_a	6.817900
_cell_length_b	7.190334
_cell_length_c	17.110477
_cell_angle_alpha	87.265970
_cell_angle_beta	99.060298
_cell_angle_gamma	60.611776
loop_
_atom_site_label
_atom_site_type_symbol
_atom_site_fract_x
_atom_site_fract_y
_atom_site_fract_z
V1	V	-4.201085	0.664729	-0.108221
O2	O	-4.208043	0.652358	0.006499
O3	O	-4.129516	0.659910	-0.215833
O4	O	-4.238701	0.954764	-0.105987
O5	O	-4.098103	0.355463	-0.104108
V6	V	-4.676569	0.627771	-0.094567
O7	O	-4.479977	0.745798	-0.138173
O8	O	-4.847874	0.546702	-0.064614
O9	O	-4.524931	0.632590	0.013046
O10	O	-4.787007	0.640142	-0.209287
O11	O	-4.896948	0.937037	-0.098680
O12	O	-4.415747	0.337736	-0.096801
C13	C	-3.966098	0.649354	-0.242085
C14	C	-3.989442	0.647348	-0.330055
C15	C	-4.105385	1.025466	-0.101960
C16	C	-4.219372	1.267026	-0.100823
C17	C	-4.184845	0.657033	-0.375394
C18	C	-4.206775	0.655161	-0.458052
C19	C	-4.033291	0.643587	-0.495369
C20	C	-3.837875	0.633907	-0.450025
C21	C	-3.815956	0.635795	-0.367369
C22	C	-4.090252	0.637369	-0.744737
C23	C	-4.112183	0.635475	-0.827398
C24	C	-4.481084	0.656733	-0.835421
C25	C	-4.459141	0.658607	-0.752762
C26	C	-4.263734	0.648938	-0.707425
C27	C	-4.055698	0.641666	-0.579859
C28	C	-4.241337	0.650875	-0.622938
C29	C	-4.351689	0.643140	0.039293
C30	C	-4.307586	0.645161	0.127263
H31	H	-4.365891	0.663052	-0.494964
N32	N	-3.616329	0.625845	-0.321049
N33	N	-3.488972	0.473501	-0.265579
H34	H	-3.347981	0.466475	-0.232865
H35	H	-3.696629	0.624496	-0.480415
H36	H	-3.914448	0.632236	-0.610251
H37	H	-3.970925	0.626100	-0.857782
H38	H	-3.931136	0.629483	-0.707833
N39	N	-4.362095	0.668880	-0.337295
N40	N	-4.562018	0.826813	-0.357672
H41	H	-4.687214	0.835189	-0.330768
N42	N	-4.636334	0.670469	-0.714626
N43	N	-4.591301	0.522908	-0.660935
H44	H	-4.716443	0.531295	-0.633996
N45	N	-4.680660	0.666604	-0.881743
N46	N	-4.700213	0.664914	-0.955542
H47	H	-4.841173	0.671890	-0.988258
H48	H	-4.382591	0.660309	-0.592552
