data_functionalizedCrystal
_audit_creation_method	'MofGen! by Chris Wilmer'
_symmetry_space_group_name_H-M	'P1'
_symmetry_Int_Tables_number	1
_symmetry_cell_setting	triclinic
loop_
_symmetry_equiv_pos_as_xyz
  x,y,z
_cell_length_a	10.654565
_cell_length_b	14.044190
_cell_length_c	9.730223
_cell_angle_alpha	89.993542
_cell_angle_beta	90.005905
_cell_angle_gamma	91.158453
loop_
_atom_site_label
_atom_site_type_symbol
_atom_site_fract_x
_atom_site_fract_y
_atom_site_fract_z
O1	O	-1.681222	0.133299	-0.114490
O2	O	-1.317021	0.145977	-0.114455
O3	O	-1.493650	0.001617	-0.114445
O4	O	-1.504593	0.277659	-0.114500
O5	O	-1.493648	0.001621	0.114135
O6	O	-1.317019	0.145981	0.114125
O7	O	-1.681220	0.133303	0.114089
Zn8	Zn	-1.499119	0.139642	0.150399
Zn9	Zn	-1.499122	0.139638	-0.150765
O10	O	-1.504591	0.277663	0.114080
C11	C	-1.270128	0.145045	-0.000160
C12	C	-1.130405	0.142251	-0.000146
C13	C	-1.064742	0.140949	0.124447
C14	C	-0.933457	0.138331	0.124431
C15	C	-0.933508	0.138320	-0.124779
C16	C	-1.064792	0.140931	-0.124762
C17	C	-1.130356	0.142268	0.249063
C18	C	-1.064693	0.140968	0.373666
C19	C	-0.933407	0.138350	0.373650
C20	C	-0.867785	0.137032	0.249033
C21	C	-1.488862	-0.033727	-0.000151
C22	C	-1.474583	-0.139048	-0.000137
C23	C	-1.549748	-0.388837	-0.000199
C24	C	-1.448498	-0.331878	-0.000179
C25	C	-1.463015	-0.224577	-0.000156
C26	C	-1.535233	-0.496147	-0.000222
C27	C	-0.728113	0.134233	-0.000195
C28	C	-0.867836	0.137021	-0.000177
C29	C	-1.509379	0.313007	-0.000218
C30	C	-1.523658	0.418327	-0.000240
N31	N	-1.499127	0.139645	0.355935
N32	N	-1.499123	0.139627	-0.356301
C33	C	-1.577362	0.075744	0.427866
C34	C	-1.577358	0.075733	0.571749
C35	C	-1.420879	0.203531	0.571758
C36	C	-1.420878	0.203537	0.427878
C37	C	-1.655611	0.011852	0.355923
C38	C	-1.733854	-0.052053	0.427854
C39	C	-1.733850	-0.052065	0.571737
C40	C	-1.655602	0.011829	0.643689
H41	H	-1.118132	0.142034	0.475124
H42	H	-1.118255	0.141996	-0.226216
H43	H	-1.350913	-0.363699	-0.000178
N44	N	-1.679005	-0.346694	-0.000169
H45	H	-1.726237	-0.368445	-0.084904
H46	H	-1.671071	-0.274912	-0.000093
H47	H	-0.879949	0.137284	0.475107
N48	N	-1.271954	0.145091	0.249068
H49	H	-1.299974	0.204423	0.297972
H50	H	-1.307068	0.086986	0.297982
N51	N	-0.726185	0.134202	0.249012
H52	H	-0.698174	0.074869	0.200100
H53	H	-0.694643	0.133609	0.346887
N54	N	-1.818217	-0.120985	0.350259
H55	H	-1.806346	-0.111286	0.248196
H56	H	-1.908603	-0.109412	0.375391
H57	H	-0.880068	0.137249	-0.226237
N58	N	-1.818245	-0.120978	0.649323
H59	H	-1.867819	-0.161445	0.581911
H60	H	-1.877859	-0.084254	0.709001
H61	H	-1.357170	0.255570	0.369312
H62	H	-1.655625	0.011857	0.238767
N63	N	-1.655581	0.011821	0.798878
H64	H	-1.630080	-0.052760	0.833540
H65	H	-1.742529	0.026264	0.833423
N66	N	-1.336488	0.272441	0.649357
H67	H	-1.348363	0.262741	0.751419
H68	H	-1.358538	0.339840	0.624200
