data_functionalizedCrystal
_audit_creation_method	'MofGen! by Chris Wilmer'
_symmetry_space_group_name_H-M	'P1'
_symmetry_Int_Tables_number	1
_symmetry_cell_setting	triclinic
loop_
_symmetry_equiv_pos_as_xyz
  x,y,z
_cell_length_a	16.109318
_cell_length_b	8.634740
_cell_length_c	14.586319
_cell_angle_alpha	89.998420
_cell_angle_beta	90.000075
_cell_angle_gamma	92.019435
loop_
_atom_site_label
_atom_site_type_symbol
_atom_site_fract_x
_atom_site_fract_y
_atom_site_fract_z
O1	O	1.119038	0.198328	-0.076159
O2	O	0.878955	0.222966	-0.076177
O3	O	0.987632	-0.013824	-0.076167
O4	O	1.010361	0.435119	-0.076170
O5	O	0.987623	-0.013828	0.076314
O6	O	0.878946	0.222963	0.076303
O7	O	1.119029	0.198325	0.076321
Cu8	Cu	0.998987	0.210644	0.090235
Cu9	Cu	0.998998	0.210648	-0.090091
O10	O	1.010352	0.435115	0.076311
C11	C	0.847896	0.221962	0.000061
C12	C	0.755360	0.218956	0.000054
C13	C	0.455512	0.209248	-0.083048
C14	C	0.542459	0.212063	-0.083053
C15	C	0.542466	0.212038	0.083190
C16	C	0.455521	0.209213	0.083194
C17	C	0.412046	0.207826	0.000073
C18	C	0.585938	0.213465	0.000063
C19	C	0.680210	0.216517	0.000057
C20	C	0.317768	0.204771	0.000078
C21	C	0.982478	-0.071274	0.000071
C22	C	0.967126	-0.242451	0.000066
C23	C	1.150089	0.199329	0.000081
C24	C	1.242624	0.202336	0.000082
C25	C	1.015506	0.492565	0.000070
C26	C	1.030858	0.663743	0.000070
N27	N	0.998985	0.210640	0.217067
N28	N	0.999005	0.210639	-0.216923
C29	C	1.047129	0.105824	0.452078
C30	C	1.047131	0.105820	0.548059
C31	C	0.950856	0.315460	0.548059
C32	C	0.950849	0.315455	0.452080
C33	C	0.998991	0.210639	0.404092
C34	C	0.998999	0.210640	0.596052
C35	C	0.999001	0.210637	0.700119
C36	C	0.998988	0.210640	0.300018
H37	H	0.420129	0.208053	0.150885
F38	F	0.588743	0.213526	0.171648
H39	H	0.900812	-0.293103	0.000055
H40	H	0.911661	0.400801	0.587141
F41	F	0.588715	0.213571	-0.171522
H42	H	1.097167	-0.285613	0.000043
H43	H	1.086327	0.020474	0.413008
H44	H	1.086328	0.020469	0.587127
H45	H	0.911646	0.400809	0.413007
H46	H	0.420117	0.208117	-0.150730
