data_functionalizedCrystal
_audit_creation_method	'MofGen! by Chris Wilmer'
_symmetry_space_group_name_H-M	'P1'
_symmetry_Int_Tables_number	1
_symmetry_cell_setting	triclinic
loop_
_symmetry_equiv_pos_as_xyz
  x,y,z
_cell_length_a	15.538191
_cell_length_b	10.540539
_cell_length_c	14.185569
_cell_angle_alpha	76.712172
_cell_angle_beta	97.875798
_cell_angle_gamma	65.898793
loop_
_atom_site_label
_atom_site_type_symbol
_atom_site_fract_x
_atom_site_fract_y
_atom_site_fract_z
O1	O	1.226032	-0.372482	-0.083440
O2	O	0.952757	-0.226369	-0.083435
O3	O	1.095630	-0.487082	-0.083436
O4	O	1.083160	-0.111770	-0.083439
O5	O	1.137835	-0.564092	0.083398
O6	O	0.994963	-0.303380	0.083399
O7	O	1.268238	-0.449492	0.083395
Cu8	Cu	1.135454	-0.383468	0.098630
Cu9	Cu	1.085541	-0.292394	-0.098671
O10	O	1.125366	-0.188780	0.083396
C11	C	0.938868	-0.249587	-0.000017
C12	C	0.834601	-0.204052	-0.000016
C13	C	0.543764	-0.656437	-0.000029
C14	C	0.445786	-0.613616	-0.000030
C15	C	0.424963	-0.372762	-0.000031
C16	C	0.522942	-0.415565	-0.000025
C17	C	0.582335	-0.557403	-0.000025
C18	C	0.561514	-0.316531	-0.000021
C19	C	0.659483	-0.359329	-0.000021
C20	C	0.718881	-0.501160	-0.000024
C21	C	0.680305	-0.600201	-0.000024
C22	C	0.502117	-0.174690	-0.000029
C23	C	0.540689	-0.075657	-0.000025
C24	C	0.638662	-0.118457	-0.000017
C25	C	0.698060	-0.260288	-0.000020
C26	C	0.677238	-0.019416	-0.000016
C27	C	0.775208	-0.062213	-0.000016
C28	C	0.796029	-0.303085	-0.000020
C29	C	1.115797	-0.572447	-0.000021
C30	C	1.112998	-0.712069	-0.000026
C31	C	1.005700	-0.844617	-0.000399
C32	C	1.008631	-0.699513	-0.000023
C33	C	1.187326	-0.841460	0.095243
C34	C	1.183784	-0.986357	0.095324
C35	C	1.137911	-0.900304	-0.094398
C36	C	1.138553	-0.753195	-0.095658
C37	C	1.282127	-0.426273	-0.000025
C38	C	1.386392	-0.471806	-0.000033
C39	C	1.105198	-0.103414	-0.000022
C40	C	1.107995	0.036211	-0.000023
N41	N	1.170567	-0.447528	0.237401
N42	N	1.050435	-0.228347	-0.237441
C43	C	0.947273	-0.040193	0.605053
C44	C	0.973877	-0.088712	0.710074
C45	C	1.100417	-0.319521	0.710034
C46	C	1.073820	-0.271023	0.605010
C47	C	0.997248	-0.131358	0.552528
C48	C	1.123795	-0.362188	0.552486
C49	C	1.097203	-0.313691	0.447472
C50	C	1.020636	-0.174029	0.394982
C51	C	0.970656	-0.082861	0.447514
C52	C	1.200371	-0.501850	0.604970
C53	C	1.250346	-0.593015	0.552446
C54	C	1.223751	-0.544522	0.447429
C55	C	1.147184	-0.404860	0.394940
C56	C	1.273731	-0.635691	0.394898
C57	C	1.247139	-0.587194	0.289883
C58	C	1.120592	-0.356363	0.289925
H59	H	0.628864	0.096074	-0.000026
H60	H	0.728668	-0.715703	-0.000019
C61	C	1.157966	-1.045146	0.191521
H62	H	1.155582	-1.134045	0.192420
H63	H	1.096140	-0.975026	0.193001
H64	H	1.206263	-1.062657	0.248494
C65	C	0.817640	0.046719	-0.000012
H66	H	0.768240	0.137317	-0.000003
H67	H	0.840708	0.061883	-0.058191
H68	H	0.870145	0.008168	0.058174
H69	H	0.844393	-0.418587	-0.000014
H70	H	1.213189	-0.762309	-0.101412
H71	H	0.798651	-0.535997	-0.000037
H72	H	1.213133	-0.982890	-0.095040
C73	C	1.164417	-0.805850	0.191023
H74	H	1.109616	-0.712243	0.173156
H75	H	1.219278	-0.805407	0.229571
H76	H	1.150200	-0.877926	0.229422
C77	C	0.403361	-0.722564	-0.000032
H78	H	0.452769	-0.813166	-0.000026
H79	H	0.350858	-0.684018	-0.058211
H80	H	0.380296	-0.737738	0.058154
C81	C	1.286658	-1.101826	0.101180
H82	H	1.330430	-1.060058	0.103508
H83	H	1.284731	-1.133448	0.043735
H84	H	1.308288	-1.183203	0.159933
H85	H	0.951834	-0.606693	-0.068316
C86	C	1.357956	-0.789313	0.452631
H87	H	1.383915	-0.836660	0.406308
H88	H	1.334201	-0.845373	0.493610
H89	H	1.407726	-0.780673	0.493582
H90	H	0.947189	-0.822180	-0.068718
H91	H	1.264866	-0.856993	0.098784
C92	C	0.991381	-0.120671	0.279468
H93	H	0.938626	-0.024433	0.255737
H94	H	0.971971	-0.184666	0.255708
H95	H	1.045498	-0.119971	0.255696
C96	C	0.886426	0.070769	0.389776
H97	H	0.860469	0.118126	0.436097
H98	H	0.836664	0.062138	0.348816
H99	H	0.910193	0.126831	0.348807
H100	H	0.981827	-0.886763	0.067539
C101	C	1.064895	-0.630494	-0.190872
H102	H	1.018760	-0.554509	-0.172433
H103	H	1.031920	-0.668947	-0.228281
H104	H	1.098567	-0.592302	-0.230637
H105	H	0.376591	-0.257275	-0.000035
H106	H	1.162765	-0.433236	0.752777
H107	H	1.312695	-0.706730	0.595189
H108	H	1.287836	-0.661430	0.247117
C109	C	1.229627	-0.555202	0.720484
H110	H	1.282396	-0.651428	0.744218
H111	H	1.175517	-0.555902	0.744261
H112	H	1.249038	-0.491195	0.744237
H113	H	0.986140	-0.670510	0.068385
C114	C	0.475354	0.080352	-0.000019
H115	H	0.411484	0.091656	-0.000013
H116	H	0.472416	0.149686	-0.058192
H117	H	0.501854	0.095949	0.058173
C118	C	1.067600	-0.876304	-0.191946
H119	H	1.019337	-0.904780	-0.176026
H120	H	1.103138	-0.933622	-0.229147
H121	H	1.036927	-0.775684	-0.230836
C122	C	0.863042	0.113437	0.547315
H123	H	0.837086	0.160794	0.593635
H124	H	0.813281	0.104806	0.506355
H125	H	0.886809	0.169499	0.506346
H126	H	0.933175	-0.014461	0.752834
H127	H	0.422344	-0.139848	-0.000032
H128	H	1.058233	-0.242639	0.247192
H129	H	0.592127	-0.771939	-0.000023
