data_functionalizedCrystal
_audit_creation_method	'MofGen! by Chris Wilmer'
_symmetry_space_group_name_H-M	'P1'
_symmetry_Int_Tables_number	1
_symmetry_cell_setting	triclinic
loop_
_symmetry_equiv_pos_as_xyz
  x,y,z
_cell_length_a	16.992694
_cell_length_b	14.044220
_cell_length_c	15.455313
_cell_angle_alpha	92.908275
_cell_angle_beta	87.142206
_cell_angle_gamma	91.928550
loop_
_atom_site_label
_atom_site_type_symbol
_atom_site_fract_x
_atom_site_fract_y
_atom_site_fract_z
O1	O	1.057683	0.198159	-0.072025
O2	O	1.557683	0.698159	0.427975
O3	O	0.829244	0.195941	-0.072050
O4	O	1.329244	0.695941	0.427950
O5	O	0.940034	0.058806	-0.072029
O6	O	1.440034	0.558806	0.427971
O7	O	0.946893	0.335294	-0.072046
O8	O	1.446893	0.835294	0.427954
O9	O	0.933696	0.066614	0.072232
O10	O	1.433696	0.566614	0.572232
O11	O	0.822906	0.203749	0.072211
O12	O	1.322906	0.703749	0.572211
O13	O	1.051345	0.205967	0.072236
O14	O	1.551345	0.705967	0.572236
Cu15	Cu	0.936547	0.205571	0.085396
Cu16	Cu	1.436547	0.705571	0.585396
Cu17	Cu	0.944042	0.196337	-0.085210
Cu18	Cu	1.444042	0.696337	0.414790
O19	O	0.940555	0.343102	0.072215
O20	O	1.440555	0.843102	0.572215
C21	C	0.796663	0.196993	0.000077
C22	C	1.296663	0.696993	0.500077
C23	C	0.709024	0.188484	0.000068
C24	C	1.209024	0.688484	0.500068
C25	C	0.933863	0.027168	0.000101
C26	C	1.433863	0.527168	0.500101
C27	C	0.924909	-0.078736	0.000101
C28	C	1.424909	0.421264	0.500101
C29	C	0.664526	0.270581	0.000063
C30	C	1.164526	0.770581	0.500063
C31	C	0.582179	0.262581	0.000076
C32	C	1.082179	0.762581	0.500076
C33	C	0.544332	0.172483	0.000086
C34	C	1.044332	0.672483	0.500086
C35	C	0.588836	0.090381	0.000093
C36	C	1.088836	0.590381	0.500093
C37	C	0.671181	0.098382	0.000087
C38	C	1.171181	0.598382	0.500087
C39	C	0.298414	0.139322	0.000112
C40	C	0.798414	0.639322	0.500112
C41	C	0.216063	0.131327	0.000115
C42	C	0.716063	0.631327	0.500115
C43	C	0.209411	0.303528	0.000100
C44	C	0.709411	0.803528	0.500100
C45	C	0.291759	0.311521	0.000088
C46	C	0.791759	0.811521	0.500088
C47	C	0.336255	0.229419	0.000099
C48	C	0.836255	0.729419	0.500099
N49	N	0.460161	0.164304	0.000096
N50	N	0.960161	0.664304	0.500096
N51	N	0.420425	0.237599	0.000096
N52	N	0.920425	0.737599	0.500096
C53	C	0.908540	-0.272638	0.000087
C54	C	1.408540	0.227362	0.500087
C55	C	0.972046	-0.325460	0.000092
C56	C	1.472046	0.174540	0.500092
C57	C	0.962938	-0.433354	0.000084
C58	C	1.462938	0.066646	0.500084
C59	C	0.917647	-0.164734	0.000095
C60	C	1.417647	0.335266	0.500095
C61	C	1.083926	0.204915	0.000107
C62	C	1.583926	0.704915	0.500107
C63	C	1.171565	0.213424	0.000111
C64	C	1.671565	0.713424	0.500111
C65	C	0.946726	0.374740	0.000083
C66	C	1.446726	0.874740	0.500083
C67	C	0.955680	0.480644	0.000077
C68	C	1.455680	0.980644	0.500077
N69	N	0.931281	0.212065	0.205390
N70	N	1.431281	0.712065	0.705390
N71	N	0.949314	0.189836	-0.205204
N72	N	1.449314	0.689836	0.294796
C73	C	0.978368	0.153829	0.250793
C74	C	1.478368	0.653829	0.750793
C75	C	0.974393	0.158750	0.341600
C76	C	1.474393	0.658750	0.841600
C77	C	0.923335	0.221911	0.387003
C78	C	1.423335	0.721911	0.887003
C79	C	0.876243	0.280149	0.341594
C80	C	1.376243	0.780149	0.841594
C81	C	0.880214	0.275223	0.250788
C82	C	1.380214	0.775223	0.750788
C83	C	0.906193	0.243148	0.658581
C84	C	1.406193	0.743148	1.158581
C85	C	0.902227	0.248072	0.749393
C86	C	1.402227	0.748072	1.249393
C87	C	1.000377	0.126671	0.749394
C88	C	1.500377	0.626671	1.249394
C89	C	1.004347	0.121754	0.658586
C90	C	1.504347	0.621754	1.158586
C91	C	0.957251	0.179989	0.613185
C92	C	1.457251	0.679989	1.113185
N93	N	0.919273	0.226945	0.479822
N94	N	1.419273	0.726945	0.979822
N95	N	0.961310	0.174950	0.520367
N96	N	1.461310	0.674950	1.020367
H97	H	0.695334	0.343947	0.000054
H98	H	1.195334	0.843947	0.500054
Br99	Br	1.073643	0.036039	0.596967
Br100	Br	1.573643	0.536039	1.096967
H101	H	1.033258	-0.289655	0.000040
H102	H	1.533258	0.210345	0.500040
Br103	Br	0.806525	-0.332318	0.000068
Br104	Br	1.306525	0.167682	0.500068
Br105	Br	0.731573	-0.013039	0.000100
Br106	Br	1.231573	0.486961	0.500100
Br107	Br	1.047671	0.068113	0.189185
Br108	Br	1.547671	0.568113	0.689185
Br109	Br	0.358792	0.027897	0.000129
Br110	Br	0.858792	0.527897	0.500129
Br111	Br	0.343117	0.433800	0.000064
Br112	Br	0.843117	0.933800	0.500064
H113	H	1.012735	0.111329	0.378567
H114	H	1.512735	0.611329	0.878567
H115	H	1.038719	0.079258	0.786368
H116	H	1.538719	0.579258	1.286368
H117	H	0.860647	0.299509	0.786355
H118	H	1.360647	0.799509	1.286355
H119	H	0.867847	0.290567	0.621622
H120	H	1.367847	0.790567	1.121622
H121	H	0.834666	0.331573	0.378565
H122	H	1.334666	0.831573	0.878565
H123	H	0.841869	0.322643	0.213822
H124	H	1.341869	0.822643	0.713822
H125	H	0.173174	0.370371	0.000092
H126	H	0.673174	0.870371	0.500092
Br127	Br	0.521791	0.374003	0.000067
Br128	Br	1.021791	0.874003	0.500067
H129	H	0.185251	0.057956	0.000123
H130	H	0.685251	0.557956	0.500123
H131	H	0.558015	0.017022	0.000114
H132	H	1.058015	0.517022	0.500114
