data_functionalizedCrystal
_audit_creation_method	'MofGen! by Chris Wilmer'
_symmetry_space_group_name_H-M	'P1'
_symmetry_Int_Tables_number	1
_symmetry_cell_setting	triclinic
loop_
_symmetry_equiv_pos_as_xyz
  x,y,z
_cell_length_a	17.019282
_cell_length_b	17.038272
_cell_length_c	7.540329
_cell_angle_alpha	89.996089
_cell_angle_beta	93.878265
_cell_angle_gamma	87.241387
loop_
_atom_site_label
_atom_site_type_symbol
_atom_site_fract_x
_atom_site_fract_y
_atom_site_fract_z
O1	O	1.053361	0.099546	0.013448
O2	O	0.824549	0.112258	-0.021514
O3	O	0.937595	-0.007912	-0.004227
O4	O	0.940315	0.219716	-0.003839
O5	O	0.937588	-0.007913	0.290737
O6	O	0.824541	0.112257	0.273450
O7	O	1.053354	0.099544	0.308412
Cu8	Cu	0.938947	0.105901	0.317864
Cu9	Cu	0.938956	0.105902	-0.030965
O10	O	0.940308	0.219715	0.291125
C11	C	0.795124	0.111778	0.121473
C12	C	0.707457	0.110338	0.108078
C13	C	0.935118	-0.037039	0.142877
C14	C	0.927737	-0.123825	0.141749
C15	C	0.666271	0.109659	0.262574
C16	C	0.583899	0.108293	0.249993
C17	C	0.542714	0.107613	0.082915
C18	C	0.583906	0.108289	-0.071593
C19	C	0.666276	0.109649	-0.059010
C20	C	0.294008	0.103502	0.036880
C21	C	0.211632	0.102144	0.024309
C22	C	0.211631	0.102147	0.345896
C23	C	0.294003	0.103511	0.358464
C24	C	0.335188	0.104184	0.203957
C25	C	0.458517	0.106219	0.070051
C26	C	0.419384	0.105571	0.216822
C27	C	0.995498	-0.174001	0.152104
C28	C	0.988558	-0.255545	0.151027
C29	C	0.913858	-0.286912	0.139607
C30	C	0.846093	-0.236730	0.129246
C31	C	0.853033	-0.155187	0.130310
C32	C	0.889340	-0.532647	0.135837
C33	C	0.882405	-0.614196	0.134778
C34	C	1.024871	-0.633006	0.156556
C35	C	1.031805	-0.551461	0.157631
C36	C	0.964040	-0.501286	0.147260
C37	C	0.906763	-0.370263	0.138512
C38	C	0.971135	-0.417937	0.148343
C39	C	1.082779	0.100025	0.165421
C40	C	1.170446	0.101465	0.178805
C41	C	0.942785	0.248842	0.144017
C42	C	0.950165	0.335628	0.145134
N43	N	0.938947	0.105899	0.563212
N44	N	0.938962	0.105898	-0.276313
H45	H	0.699798	0.110219	0.398627
H46	H	0.699808	0.110204	-0.184818
F47	F	0.802896	-0.647577	0.122632
H48	H	0.845942	-0.395811	0.129217
F49	F	0.817217	-0.479258	0.124795
F50	F	0.337829	0.104240	0.536292
F51	F	0.540069	0.107581	0.414430
F52	F	0.463218	0.106292	0.394633
F53	F	1.075004	-0.140626	0.164276
F54	F	0.167794	0.101428	0.510322
F55	F	0.414679	0.105468	-0.107762
F56	F	0.167801	0.101422	-0.153528
F57	F	1.111311	-0.518085	0.169740
F58	F	1.060679	-0.308943	0.162052
F59	F	1.050634	-0.384552	0.160486
F60	F	1.096986	-0.686411	0.167590
F61	F	0.337829	0.104218	-0.127563
F62	F	0.780913	-0.101786	0.119283
F63	F	0.540073	0.107541	-0.249411
F64	F	0.766591	-0.270115	0.117072
