data_functionalizedCrystal
_audit_creation_method	'MofGen! by Chris Wilmer'
_symmetry_space_group_name_H-M	'P1'
_symmetry_Int_Tables_number	1
_symmetry_cell_setting	triclinic
loop_
_symmetry_equiv_pos_as_xyz
  x,y,z
_cell_length_a	9.065215
_cell_length_b	10.540558
_cell_length_c	8.140239
_cell_angle_alpha	90.000759
_cell_angle_beta	89.999364
_cell_angle_gamma	95.226094
loop_
_atom_site_label
_atom_site_type_symbol
_atom_site_fract_x
_atom_site_fract_y
_atom_site_fract_z
O1	O	1.959479	-0.186130	0.136566
O2	O	1.530118	-0.201402	0.136571
O3	O	1.754580	-0.009097	0.136586
O4	O	1.735017	-0.378435	0.136551
O5	O	1.754580	-0.009084	-0.136641
O6	O	1.530119	-0.201389	-0.136656
O7	O	1.959479	-0.186117	-0.136661
Zn8	Zn	1.744799	-0.193751	-0.180039
Zn9	Zn	1.744798	-0.193768	0.179949
O10	O	1.735018	-0.378422	-0.136676
C11	C	1.475139	-0.199928	-0.000041
C12	C	1.311317	-0.195542	-0.000038
C13	C	1.753107	0.038218	-0.000020
C14	C	1.748701	0.179181	0.000004
C15	C	1.580252	0.363227	0.000639
C16	C	1.584719	0.216594	0.000009
C17	C	1.827610	0.240554	-0.156017
C18	C	1.822002	0.387118	-0.156133
C19	C	1.825336	0.387610	0.154578
C20	C	1.826858	0.240623	0.156625
C21	C	2.014458	-0.187590	-0.000045
C22	C	2.178280	-0.191976	-0.000037
C23	C	1.736471	0.574262	-0.000040
C24	C	1.740819	0.433293	0.000026
N25	N	1.744798	-0.193770	0.425632
N26	N	1.744802	-0.193749	0.574278
H27	H	1.522629	0.174215	0.111851
H28	H	1.772262	0.419353	0.272840
Br29	Br	1.480497	0.147378	-0.186718
H30	H	1.946413	0.215961	0.166042
Br31	Br	1.736255	0.169905	-0.349553
H32	H	1.515738	0.393678	-0.110618
Br33	Br	1.472274	0.411278	0.187140
Br34	Br	1.731448	0.172043	0.349034
H35	H	1.943774	0.434398	0.155630
H36	H	1.763679	0.415538	-0.272761
H37	H	1.939930	0.434652	-0.163208
Br38	Br	2.028326	0.202565	-0.165703
