data_functionalizedCrystal
_audit_creation_method	'MofGen! by Chris Wilmer'
_symmetry_space_group_name_H-M	'P1'
_symmetry_Int_Tables_number	1
_symmetry_cell_setting	triclinic
loop_
_symmetry_equiv_pos_as_xyz
  x,y,z
_cell_length_a	14.853566
_cell_length_b	14.519731
_cell_length_c	13.330367
_cell_angle_alpha	90.002629
_cell_angle_beta	90.002184
_cell_angle_gamma	83.661634
loop_
_atom_site_label
_atom_site_type_symbol
_atom_site_fract_x
_atom_site_fract_y
_atom_site_fract_z
O1	O	1.196422	0.120394	0.083359
O2	O	1.696422	0.620394	0.583359
O3	O	0.933969	0.134739	0.083376
O4	O	1.433969	0.634739	0.583376
O5	O	1.072144	-0.006674	0.083358
O6	O	1.572144	0.493326	0.583358
O7	O	1.058247	0.261806	0.083377
O8	O	1.558247	0.761806	0.583377
O9	O	1.072130	-0.006669	-0.083489
O10	O	1.572130	0.493331	0.416511
O11	O	0.933955	0.134743	-0.083471
O12	O	1.433955	0.634743	0.416529
O13	O	1.196408	0.120398	-0.083488
O14	O	1.696408	0.620398	0.416512
Cu15	Cu	1.065180	0.127571	-0.098714
Cu16	Cu	1.565180	0.627571	0.401286
Cu17	Cu	1.065197	0.127566	0.098602
Cu18	Cu	1.565197	0.627566	0.598602
O19	O	1.058233	0.261811	-0.083470
O20	O	1.558233	0.761811	0.416530
C21	C	0.900373	0.134091	-0.000045
C22	C	1.400373	0.634091	0.499955
C23	C	0.800289	0.132144	-0.000039
C24	C	1.300289	0.632144	0.499961
C25	C	0.377108	0.123906	0.090891
C26	C	0.877108	0.623906	0.590891
C27	C	0.377113	0.123911	-0.091012
C28	C	0.877113	0.623911	0.408988
C29	C	0.471148	0.125740	-0.091009
C30	C	0.971148	0.625740	0.408991
C31	C	0.518167	0.126653	-0.000054
C32	C	1.018167	0.626653	0.499946
C33	C	0.471151	0.125738	0.090897
C34	C	0.971151	0.625738	0.590897
C35	C	0.518170	0.126665	-0.181959
C36	C	1.018170	0.626665	0.318041
C37	C	0.612211	0.128494	-0.181959
C38	C	1.112211	0.628494	0.318041
C39	C	0.659232	0.129401	-0.091003
C40	C	1.159232	0.629401	0.408997
C41	C	0.612210	0.128484	-0.000048
C42	C	1.112210	0.628484	0.499952
C43	C	0.659229	0.129397	0.090906
C44	C	1.159229	0.629397	0.590906
C45	C	0.612210	0.128474	0.181863
C46	C	1.112210	0.628474	0.681863
C47	C	0.518172	0.126644	0.181853
C48	C	1.018172	0.626644	0.681853
C49	C	0.753270	0.131231	-0.090994
C50	C	1.253270	0.631231	0.409006
C51	C	0.753272	0.131229	0.090912
C52	C	1.253272	0.631229	0.590912
C53	C	1.071486	-0.041031	-0.000065
C54	C	1.571486	0.458969	0.499935
C55	C	1.069535	-0.143410	-0.000066
C56	C	1.569535	0.356590	0.499934
C57	C	1.067949	-0.226554	-0.000063
C58	C	1.567949	0.273446	0.499937
C59	C	1.065968	-0.330862	-0.000056
C60	C	1.565968	0.169138	0.499944
C61	C	1.064396	-0.414000	-0.000049
C62	C	1.564396	0.086000	0.499951
C63	C	1.062415	-0.518315	-0.000043
C64	C	1.562415	-0.018315	0.499957
C65	C	1.230004	0.121046	-0.000064
C66	C	1.730004	0.621046	0.499936
C67	C	1.330089	0.122993	-0.000063
C68	C	1.830089	0.622993	0.499937
C69	C	1.058891	0.296168	-0.000044
C70	C	1.558891	0.796168	0.499956
C71	C	1.060843	0.398547	-0.000037
C72	C	1.560843	0.898547	0.499963
N73	N	1.065175	0.127574	-0.237495
N74	N	1.565175	0.627574	0.262505
C75	C	1.003983	0.190172	-0.290013
C76	C	1.503983	0.690172	0.209987
C77	C	1.126373	0.064972	-0.290006
C78	C	1.626373	0.564972	0.209994
C79	C	1.126382	0.064968	-0.395024
C80	C	1.626382	0.564968	0.104976
C81	C	1.065190	0.127567	-0.447542
C82	C	1.565190	0.627567	0.052458
C83	C	1.003988	0.190168	-0.395041
C84	C	1.503988	0.690168	0.104959
C85	C	1.187576	0.002362	-0.447533
C86	C	1.687576	0.502362	0.052467
C87	C	1.187587	0.002355	-0.552558
C88	C	1.687587	0.502355	-0.052558
C89	C	1.126398	0.064958	-0.605077
C90	C	1.626398	0.564958	-0.105077
C91	C	1.065195	0.127563	-0.552570
C92	C	1.565195	0.627563	-0.052570
C93	C	1.004003	0.190161	-0.605087
C94	C	1.504003	0.690161	-0.105087
C95	C	0.942803	0.252771	-0.552581
C96	C	1.442803	0.752771	-0.052581
C97	C	0.942799	0.252772	-0.447560
C98	C	1.442799	0.752772	0.052440
C99	C	1.126402	0.064958	-0.710099
C100	C	1.626402	0.564958	-0.210099
C101	C	1.004008	0.190158	-0.710115
C102	C	1.504008	0.690158	-0.210115
N103	N	1.065210	0.127556	0.237384
N104	N	1.565210	0.627556	0.737384
H105	H	0.338824	0.123174	-0.165063
H106	H	0.838824	0.623174	0.334937
H107	H	0.892976	0.303735	-0.595353
H108	H	1.392976	0.803735	-0.095353
H109	H	1.176226	0.013977	-0.752844
H110	H	1.676226	0.513977	-0.252844
H111	H	0.650486	0.129244	-0.256021
H112	H	1.150486	0.629244	0.243979
N113	N	0.326404	0.122901	0.188991
N114	N	0.826404	0.622901	0.688991
H115	H	0.259696	0.121598	0.175191
H116	H	0.759696	0.621598	0.675191
H117	H	0.335625	0.180344	0.228716
H118	H	0.835625	0.680344	0.728716
N119	N	0.876791	0.320285	-0.390924
N120	N	1.376791	0.820285	0.109076
H121	H	0.812793	0.309545	-0.409211
H122	H	1.312793	0.809545	0.090789
H123	H	0.887360	0.385730	-0.409212
H124	H	1.387360	0.885730	0.090788
N125	N	1.192375	-0.002550	-0.233386
N126	N	1.692375	0.497450	0.266614
H127	H	1.181877	-0.068019	-0.251678
H128	H	1.681877	0.431981	0.248322
H129	H	1.183061	0.007017	-0.158902
H130	H	1.683061	0.507017	0.341098
N131	N	0.803981	0.132224	-0.189084
N132	N	1.303981	0.632224	0.310916
H133	H	0.870689	0.133521	-0.175281
H134	H	1.370689	0.633521	0.324719
H135	H	0.780332	0.189034	-0.228791
H136	H	1.280332	0.689034	0.271209
N137	N	0.938007	0.257676	-0.766756
N138	N	1.438007	0.757676	-0.266756
H139	H	0.899239	0.297334	-0.717556
H140	H	1.399239	0.797334	-0.217556
H141	H	0.898094	0.222291	-0.810330
H142	H	1.398094	0.722291	-0.310330
N143	N	0.467463	0.125690	-0.280056
N144	N	0.967463	0.625690	0.219944
H145	H	0.400605	0.125662	-0.266266
H146	H	0.900605	0.625662	0.233734
H147	H	0.490261	0.068243	-0.319179
H148	H	0.990261	0.568243	0.180821
H149	H	0.954157	0.241151	-0.247260
H150	H	1.454157	0.741151	0.252740
H151	H	0.650504	0.129224	0.255918
H152	H	1.150504	0.629224	0.755918
H153	H	1.237393	-0.048609	-0.404770
H154	H	1.737393	0.451391	0.095230
N155	N	1.253612	-0.065149	-0.609185
N156	N	1.753612	0.434851	-0.109185
H157	H	1.292381	-0.104797	-0.559978
H158	H	1.792381	0.395203	-0.059978
H159	H	1.293520	-0.029747	-0.652738
H160	H	1.793520	0.470253	-0.152738
N161	N	0.467461	0.125646	0.279948
N162	N	0.967461	0.625646	0.779948
H163	H	0.400754	0.124351	0.266140
H164	H	0.900754	0.624351	0.766140
H165	H	0.476685	0.183088	0.319673
H166	H	0.976685	0.683088	0.819673
H167	H	0.791549	0.131969	0.164980
H168	H	1.291549	0.631969	0.664980
