data_functionalizedCrystal
_audit_creation_method	'MofGen! by Chris Wilmer'
_symmetry_space_group_name_H-M	'P1'
_symmetry_Int_Tables_number	1
_symmetry_cell_setting	triclinic
loop_
_symmetry_equiv_pos_as_xyz
  x,y,z
_cell_length_a	13.897449
_cell_length_b	16.625546
_cell_length_c	13.897449
_cell_angle_alpha	90.013119
_cell_angle_beta	90.005980
_cell_angle_gamma	90.023748
loop_
_atom_site_label
_atom_site_type_symbol
_atom_site_fract_x
_atom_site_fract_y
_atom_site_fract_z
Zn1	Zn	1.474530	-0.321110	0.545362
Zn2	Zn	1.974530	0.178890	1.045362
Zn3	Zn	1.474452	-0.455913	0.384055
Zn4	Zn	1.974452	0.044087	0.884055
Zn5	Zn	1.313261	-0.321101	0.384080
Zn6	Zn	1.813261	0.178899	0.884080
Zn7	Zn	1.313188	-0.455907	0.545308
Zn8	Zn	1.813188	0.044093	1.045308
O9	O	1.393858	-0.388508	0.464701
O10	O	1.893858	0.111492	0.964701
O11	O	1.609501	-0.338998	0.523976
O12	O	2.109501	0.161002	1.023976
O13	O	1.453068	-0.438028	0.249077
O14	O	1.953068	0.061972	0.749077
O15	O	1.334717	-0.208270	0.405508
O16	O	1.834717	0.291730	0.905508
O17	O	1.609444	-0.438037	0.405465
O18	O	2.109444	0.061963	0.905465
O19	O	1.453201	-0.208277	0.524000
O20	O	1.953201	0.291723	1.024000
O21	O	1.334641	-0.338982	0.249095
O22	O	1.834641	0.161018	0.749095
O23	O	1.178269	-0.338977	0.405455
O24	O	1.678269	0.161023	0.905455
O25	O	1.334592	-0.438028	0.680296
O26	O	1.834592	0.061972	1.180296
O27	O	1.178216	-0.438019	0.523908
O28	O	1.678216	0.061981	1.023908
O29	O	1.453130	-0.338993	0.680336
O30	O	1.953130	0.161007	1.180336
O31	O	1.452997	-0.568744	0.405413
O32	O	1.952997	-0.068744	0.905413
O33	O	1.334516	-0.568741	0.523884
O34	O	1.834516	-0.068741	1.023884
C35	C	1.143243	-0.388497	0.464679
C36	C	1.643243	0.111503	0.964679
C37	C	1.036029	-0.388512	0.464693
C38	C	1.536029	0.111488	0.964693
C39	C	0.839734	-0.388515	0.464718
C40	C	1.339734	0.111485	0.964718
C41	C	0.948967	-0.388511	0.464701
C42	C	1.448967	0.111489	0.964701
C43	C	1.393766	-0.597999	0.464661
C44	C	1.893766	-0.097999	0.964661
C45	C	1.393816	-0.687620	0.464676
C46	C	1.893816	-0.187620	0.964676
C47	C	1.393984	-1.015795	0.464776
C48	C	1.893984	-0.515795	0.964776
C49	C	1.393934	-0.924487	0.464751
C50	C	1.893934	-0.424487	0.964751
C51	C	1.393899	-0.851710	0.464725
C52	C	1.893899	-0.351710	0.964725
C53	C	1.393851	-0.760396	0.464701
C54	C	1.893851	-0.260396	0.964701
C55	C	1.645451	-0.388519	0.464724
C56	C	2.145451	0.111481	0.964724
C57	C	1.752664	-0.388524	0.464733
C58	C	2.252664	0.111476	0.964733
C59	C	1.393861	-0.388511	0.716294
C60	C	1.893861	0.111489	1.216294
C61	C	1.393863	-0.388513	0.823508
C62	C	1.893863	0.111487	1.323508
C63	C	1.393976	-0.178199	0.464763
C64	C	1.893976	0.321801	0.964763
C65	C	1.394026	-0.088578	0.464789
C66	C	1.894026	0.411422	0.964789
C67	C	1.393838	-0.388516	1.019803
C68	C	1.893838	0.111484	1.519803
C69	C	1.393849	-0.388516	0.910571
C70	C	1.893849	0.111484	1.410571
C71	C	1.393845	-0.388521	1.214087
C72	C	1.893845	0.111479	1.714087
C73	C	1.393837	-0.388514	1.106873
C74	C	1.893837	0.111486	1.606873
