data_functionalizedCrystal
_audit_creation_method	'MofGen! by Chris Wilmer'
_symmetry_space_group_name_H-M	'P1'
_symmetry_Int_Tables_number	1
_symmetry_cell_setting	triclinic
loop_
_symmetry_equiv_pos_as_xyz
  x,y,z
_cell_length_a	29.839126
_cell_length_b	16.959455
_cell_length_c	16.959453
_cell_angle_alpha	89.978232
_cell_angle_beta	89.978666
_cell_angle_gamma	90.018785
loop_
_atom_site_label
_atom_site_type_symbol
_atom_site_fract_x
_atom_site_fract_y
_atom_site_fract_z
Zn1	Zn	-0.254004	-1.208392	-0.314806
Zn2	Zn	-0.178877	-1.208294	-0.446976
Zn3	Zn	-0.178888	-1.076211	-0.314809
Zn4	Zn	-0.253980	-1.076175	-0.446940
O5	O	-0.216437	-1.142268	-0.380883
O6	O	-0.244044	-1.318990	-0.332353
O7	O	-0.116012	-1.190746	-0.429460
O8	O	-0.188866	-1.093801	-0.204198
O9	O	-0.188849	-1.318918	-0.429458
O10	O	-0.244054	-1.190915	-0.204196
O11	O	-0.116019	-1.093705	-0.332357
O12	O	-0.188843	-0.965595	-0.332322
O13	O	-0.316850	-1.093740	-0.429396
O14	O	-0.244013	-0.965569	-0.429398
O15	O	-0.316868	-1.190880	-0.332318
O16	O	-0.188826	-1.190711	-0.557582
O17	O	-0.244003	-1.093644	-0.557556
C18	C	-0.216427	-0.936902	-0.380857
C19	C	-0.216433	-0.849045	-0.380865
C20	C	-0.216421	-1.142185	-0.586249
C21	C	-0.216429	-1.142221	-0.674106
C22	C	-0.333616	-1.142317	-0.380853
C23	C	-0.383550	-1.142338	-0.380840
C24	C	-0.693200	-1.091824	-0.330199
C25	C	-0.880873	-1.091847	-0.330144
O26	O	-0.905144	-1.048859	-0.287167
N27	N	-0.904335	-1.142375	-0.380691
C28	C	-0.880876	-1.192898	-0.431260
O29	O	-0.905138	-1.235870	-0.474258
C30	C	-0.693204	-1.192871	-0.431318
C31	C	-0.669744	-1.142345	-0.380762
C32	C	-0.669741	-1.041302	-0.279648
C33	C	-0.622825	-1.041300	-0.279659
C34	C	-0.599369	-1.091820	-0.330221
C35	C	-0.622829	-1.142343	-0.380773
C36	C	-0.669745	-1.243389	-0.481889
C37	C	-0.622824	-1.243377	-0.481901
C38	C	-0.599365	-1.192850	-0.431345
C39	C	-0.552457	-1.192861	-0.431347
N40	N	-0.528996	-1.142333	-0.380799
C41	C	-0.552451	-1.091812	-0.330237
C42	C	-0.979407	-1.192910	-0.431224
C43	C	-1.026325	-1.192918	-0.431209
C44	C	-1.026319	-1.091865	-0.330094
C45	C	-0.979400	-1.091862	-0.330106
C46	C	-0.955945	-1.142381	-0.380677
C47	C	-0.453926	-1.091812	-0.330264
C48	C	-0.407006	-1.091817	-0.330277
C49	C	-0.407016	-1.192866	-0.431394
C50	C	-0.453931	-1.192865	-0.431378
C51	C	-0.477385	-1.142331	-0.380810
O52	O	-0.528158	-1.235820	-0.474308
O53	O	-0.528181	-1.048834	-0.287258
C54	C	-0.740116	-1.091826	-0.330188
C55	C	-0.763575	-1.142349	-0.380739
C56	C	-0.740119	-1.192870	-0.431302
C57	C	-0.810493	-1.142357	-0.380724
C58	C	-0.833949	-1.091836	-0.330161
C59	C	-0.810487	-1.041308	-0.279614
C60	C	-0.763572	-1.041306	-0.279625
C61	C	-0.763581	-1.243398	-0.481849
C62	C	-0.810497	-1.243397	-0.481833
C63	C	-0.833953	-1.192876	-0.431271
C64	C	-0.099715	-1.142265	-0.380856
C65	C	-0.049781	-1.142397	-0.380646
C66	C	-0.216448	-1.348436	-0.380910
C67	C	-0.216452	-1.436293	-0.380921
C68	C	-0.187770	-0.477559	-0.330294
C69	C	-0.245130	-0.477580	-0.431537
C70	C	-0.245127	-0.560126	-0.431526
C71	C	-0.216445	-0.601392	-0.380898
C72	C	-0.187766	-0.560112	-0.330283
C73	C	-0.273803	-0.601412	-0.482146
C74	C	-0.273801	-0.683963	-0.482137
C75	C	-0.245121	-0.725230	-0.431506
C76	C	-0.216440	-0.683946	-0.380887
C77	C	-0.187758	-0.725212	-0.330260
C78	C	-0.159080	-0.683928	-0.279637
C79	C	-0.159085	-0.601380	-0.279651
C80	C	-0.245115	-0.807779	-0.431492
C81	C	-0.187754	-0.807765	-0.330249
C82	C	-0.245137	-1.091658	-0.715395
C83	C	-0.187731	-1.192824	-0.715370
C84	C	-0.187739	-1.192863	-0.797916
C85	C	-0.216447	-1.142300	-0.839205
C86	C	-0.245147	-1.091697	-0.797948
C87	C	-0.159042	-1.243471	-0.839179
C88	C	-0.159050	-1.243512	-0.921730
C89	C	-0.187756	-1.192944	-0.963021
C90	C	-0.216457	-1.142339	-0.921759
C91	C	-0.245165	-1.091776	-0.963048
C92	C	-0.273864	-1.041166	-0.921787
C93	C	-0.273853	-1.041129	-0.839239
C94	C	-0.187767	-1.192981	-1.045569
C95	C	-0.245175	-1.091815	-1.045601
C96	C	-0.216464	-1.142373	-0.174715
C97	C	-0.216475	-1.142418	-0.086858
H98	H	-0.387907	-1.050673	-0.289105
H99	H	-0.744488	-1.284536	-0.523027
F100	F	-0.128553	-0.727856	-0.225762
F101	F	-0.157228	-0.851677	-0.276359
H102	H	-1.045421	-1.234070	-0.472368
H103	H	-0.135736	-0.567760	-0.238438
F104	F	-0.304419	-0.987360	-0.965739
F105	F	-0.157252	-0.433623	-0.276416
F106	F	-0.478900	-1.246652	-0.485173
F107	F	-0.304323	-0.727892	-0.536013
F108	F	-0.157182	-1.246640	-0.671426
F109	F	-0.304397	-0.987278	-0.795321
H110	H	-0.268502	-1.050450	-0.681798
H111	H	-0.268479	-0.443976	-0.472760
F112	F	-0.275632	-0.851712	-0.485369
F113	F	-0.954437	-1.038084	-0.276299
F114	F	-0.275729	-1.037994	-1.089538
F115	F	-0.128495	-1.297286	-0.795233
H116	H	-0.135681	-1.284721	-0.955317
F117	F	-0.304315	-0.557490	-0.536043
H118	H	-0.164403	-1.234192	-1.079160
H119	H	-0.960314	-1.234049	-0.472409
F120	F	-0.597864	-0.987519	-0.225853
F121	F	-0.694697	-0.987517	-0.225836
F122	F	-1.051290	-1.038097	-0.276281
F123	F	-0.478880	-1.038033	-0.276440
H124	H	-0.603730	-1.284522	-0.523078
F125	F	-0.694703	-1.297162	-0.535704
F126	F	-0.382044	-1.246635	-0.485200
F127	F	-0.738610	-0.987528	-0.225817
H128	H	-0.829593	-1.284549	-0.523001
F129	F	-0.835459	-0.987543	-0.225799
