data_functionalizedCrystal
_audit_creation_method	'MofGen! by Chris Wilmer'
_symmetry_space_group_name_H-M	'P1'
_symmetry_Int_Tables_number	1
_symmetry_cell_setting	triclinic
loop_
_symmetry_equiv_pos_as_xyz
  x,y,z
_cell_length_a	11.026607
_cell_length_b	14.519709
_cell_length_c	9.482900
_cell_angle_alpha	99.350820
_cell_angle_beta	78.636152
_cell_angle_gamma	96.133081
loop_
_atom_site_label
_atom_site_type_symbol
_atom_site_fract_x
_atom_site_fract_y
_atom_site_fract_z
O1	O	1.629894	0.375017	-0.120915
O2	O	1.963227	0.708350	0.212419
O3	O	2.296561	1.041683	0.545752
O4	O	1.276492	0.331026	-0.120914
O5	O	1.609826	0.664359	0.212419
O6	O	1.943159	0.997693	0.545752
O7	O	1.462561	0.220328	-0.120901
O8	O	1.795894	0.553661	0.212432
O9	O	2.129228	0.886995	0.545765
O10	O	1.443825	0.485715	-0.120927
O11	O	1.777159	0.819048	0.212406
O12	O	2.110492	1.152381	0.545739
O13	O	1.424766	0.242929	0.120889
O14	O	1.758100	0.576262	0.454222
O15	O	2.091433	0.909595	0.787555
O16	O	1.238698	0.353627	0.120876
O17	O	1.572031	0.686960	0.454209
O18	O	1.905364	1.020294	0.787542
O19	O	1.592099	0.397617	0.120875
O20	O	1.925433	0.730951	0.454209
O21	O	2.258766	1.064284	0.787542
Cu22	Cu	1.411948	0.377686	0.142953
Cu23	Cu	1.745281	0.711019	0.476286
Cu24	Cu	2.078614	1.044352	0.809619
Cu25	Cu	1.456644	0.350958	-0.142992
Cu26	Cu	1.789977	0.684291	0.190342
Cu27	Cu	2.123311	1.017624	0.523675
O28	O	1.406031	0.508316	0.120862
O29	O	1.739364	0.841649	0.454196
O30	O	2.072697	1.174982	0.787529
C31	C	1.212367	0.334211	-0.000019
C32	C	1.545700	0.667544	0.333314
C33	C	1.879033	1.000878	0.666648
C34	C	1.077600	0.310019	-0.000019
C35	C	1.410933	0.643352	0.333315
C36	C	1.744267	0.976685	0.666648
C37	C	1.003940	0.376817	-0.000026
C38	C	1.337274	0.710151	0.333307
C39	C	1.670607	1.043484	0.666641
C40	C	0.864652	0.351815	-0.000026
C41	C	1.197985	0.685148	0.333308
C42	C	1.531318	1.018482	0.666641
C43	C	1.442790	0.197125	-0.000006
C44	C	1.776124	0.530458	0.333327
C45	C	2.109457	0.863791	0.666661
C46	C	1.440173	0.094312	-0.000005
C47	C	1.773506	0.427646	0.333328
C48	C	2.106840	0.760979	0.666661
C49	C	1.430544	-0.282175	-0.000043
C50	C	1.763878	0.051159	0.333290
C51	C	2.097211	0.384492	0.666624
C52	C	1.433218	-0.177425	-0.000032
C53	C	1.766551	0.155909	0.333301
C54	C	2.099885	0.489242	0.666635
C55	C	1.435358	-0.093934	-0.000023
C56	C	1.768691	0.239399	0.333311
C57	C	2.102025	0.572732	0.666644
C58	C	1.438033	0.010822	-0.000015
C59	C	1.771366	0.344155	0.333319
C60	C	2.104700	0.677489	0.666652
C61	C	1.656226	0.394432	-0.000023
C62	C	1.989559	0.727765	0.333310
C63	C	2.322892	1.061099	0.666644
C64	C	1.790994	0.418624	-0.000033
C65	C	2.124327	0.751957	0.333300
C66	C	2.457660	1.085290	0.666634
C67	C	1.425802	0.531518	-0.000036
C68	C	1.759135	0.864852	0.333297
C69	C	2.092469	1.198185	0.666631
C70	C	1.428421	0.634330	-0.000046
C71	C	1.761754	0.967663	0.333287
C72	C	2.095087	1.300997	0.666620
N73	N	1.380519	0.396486	0.344071
N74	N	1.713853	0.729819	0.677404
N75	N	2.047186	1.063152	1.010737
N76	N	1.488082	0.332152	-0.344110
N77	N	1.821415	0.665485	-0.010776
N78	N	2.154749	0.998819	0.322557
C79	C	1.447366	0.356497	0.416275
C80	C	1.780699	0.689830	0.749608
C81	C	2.114032	1.023163	1.082941
C82	C	1.421226	0.372147	0.583690
C83	C	1.754559	0.705480	0.917024
C84	C	2.087892	1.038814	1.250357
H85	H	1.037549	0.234316	-0.000048
H86	H	1.370882	0.567650	0.333285
H87	H	1.704216	0.900983	0.666618
H88	H	1.564664	0.286322	0.593771
H89	H	1.897997	0.619656	0.927105
H90	H	2.231331	0.952989	1.260438
H91	H	1.303933	0.442304	0.406195
H92	H	1.637267	0.775638	0.739529
H93	H	1.970600	1.108971	1.072862
O94	O	1.538617	0.301785	0.341981
O95	O	1.871950	0.635118	0.675315
O96	O	2.205284	0.968452	1.008648
C97	C	1.486978	0.225965	0.253941
C98	C	1.820311	0.559298	0.587274
C99	C	2.153645	0.892631	0.920608
H100	H	1.395660	0.244965	0.231339
H101	H	1.728994	0.578299	0.564672
H102	H	2.062327	0.911632	0.898006
H103	H	1.554217	0.209789	0.146821
H104	H	1.887551	0.543122	0.480154
H105	H	2.220884	0.876455	0.813488
H106	H	1.469301	0.161831	0.312467
H107	H	1.802635	0.495164	0.645800
H108	H	2.135968	0.828497	0.979134
O109	O	0.816865	0.261489	-0.000277
O110	O	1.150199	0.594822	0.333057
O111	O	1.483532	0.928155	0.666390
C112	C	0.763999	0.231828	-0.125482
C113	C	1.097333	0.565161	0.207852
C114	C	1.430666	0.898495	0.541185
H115	H	0.807819	0.276805	-0.213011
H116	H	1.141152	0.610138	0.120323
H117	H	1.474486	0.943472	0.453656
H118	H	0.781642	0.155413	-0.167511
H119	H	1.114975	0.488746	0.165823
H120	H	1.448309	0.822079	0.499156
H121	H	0.659791	0.239280	-0.097169
H122	H	0.993124	0.572613	0.236164
H123	H	1.326458	0.905947	0.569497
H124	H	1.344635	0.417969	0.645809
H125	H	1.677968	0.751302	0.979143
H126	H	2.011301	1.084635	1.312476
H127	H	1.043996	0.452517	-0.000025
H128	H	1.377329	0.785850	0.333308
H129	H	1.710663	1.119184	0.666641
H130	H	0.831042	0.494329	-0.000031
H131	H	1.164375	0.827662	0.333302
H132	H	1.497708	1.160995	0.666636
