data_functionalizedCrystal
_audit_creation_method	'MofGen! by Chris Wilmer'
_symmetry_space_group_name_H-M	'P1'
_symmetry_Int_Tables_number	1
_symmetry_cell_setting	triclinic
loop_
_symmetry_equiv_pos_as_xyz
  x,y,z
_cell_length_a	11.792254
_cell_length_b	11.792241
_cell_length_c	16.776229
_cell_angle_alpha	89.993219
_cell_angle_beta	89.992926
_cell_angle_gamma	84.196007
loop_
_atom_site_label
_atom_site_type_symbol
_atom_site_fract_x
_atom_site_fract_y
_atom_site_fract_z
O1	O	1.506904	0.155639	-0.066288
O2	O	1.840238	0.488972	0.267045
O3	O	2.173571	0.822306	0.600379
O4	O	1.176565	0.171657	-0.066290
O5	O	1.509898	0.504990	0.267044
O6	O	1.843232	0.838324	0.600377
O7	O	1.349751	-0.001522	-0.066283
O8	O	1.683084	0.331811	0.267050
O9	O	2.016418	0.665144	0.600384
O10	O	1.333718	0.328818	-0.066294
O11	O	1.667052	0.662151	0.267039
O12	O	2.000385	0.995485	0.600372
O13	O	1.349728	-0.001533	0.066293
O14	O	1.683061	0.331800	0.399627
O15	O	2.016395	0.665134	0.732960
O16	O	1.176542	0.171646	0.066287
O17	O	1.509875	0.504979	0.399620
O18	O	1.843209	0.838313	0.732954
O19	O	1.506881	0.155628	0.066289
O20	O	1.840214	0.488961	0.399622
O21	O	2.173548	0.822295	0.732955
Zn22	Zn	1.341708	0.163635	0.087337
Zn23	Zn	1.675041	0.496969	0.420670
Zn24	Zn	2.008374	0.830302	0.754004
Zn25	Zn	1.341738	0.163650	-0.087338
Zn26	Zn	1.675072	0.496983	0.245995
Zn27	Zn	2.008405	0.830316	0.579329
O28	O	1.333695	0.328807	0.066282
O29	O	1.667028	0.662141	0.399615
O30	O	2.000362	0.995474	0.732949
C31	C	1.134263	0.170642	-0.000002
C32	C	1.467596	0.503976	0.333332
C33	C	1.800929	0.837309	0.666665
C34	C	1.008250	0.167622	-0.000002
C35	C	1.341583	0.500956	0.333331
C36	C	1.674916	0.834289	0.666665
C37	C	1.348732	-0.043819	0.000005
C38	C	1.682066	0.289515	0.333338
C39	C	2.015399	0.622848	0.666672
C40	C	1.345718	-0.169832	0.000004
C41	C	1.679051	0.163501	0.333337
C42	C	2.012385	0.496834	0.666671
C43	C	0.905913	0.165168	-0.000005
C44	C	1.239247	0.498502	0.333328
C45	C	1.572580	0.831835	0.666661
C46	C	0.777527	0.162100	-0.000006
C47	C	1.110860	0.495433	0.333327
C48	C	1.444193	0.828767	0.666661
C49	C	1.340175	-0.400545	-0.000009
C50	C	1.673508	-0.067212	0.333324
C51	C	2.006842	0.266122	0.666657
C52	C	1.343255	-0.272160	-0.000002
C53	C	1.676588	0.061174	0.333331
C54	C	2.009921	0.394507	0.666665
C55	C	1.549183	0.156643	-0.000001
C56	C	1.882517	0.489976	0.333332
C57	C	2.215850	0.823309	0.666665
C58	C	1.675196	0.159663	-0.000006
C59	C	2.008530	0.492996	0.333327
C60	C	2.341863	0.826329	0.666661
C61	C	1.334714	0.371104	-0.000008
C62	C	1.668047	0.704437	0.333326
C63	C	2.001380	1.037770	0.666659
C64	C	1.337728	0.497118	-0.000012
C65	C	1.671061	0.830451	0.333321
C66	C	2.004395	1.163784	0.666655
N67	N	1.341695	0.163625	0.206548
N68	N	1.675029	0.496958	0.539882
N69	N	2.008362	0.830292	0.873215
N70	N	1.341760	0.163651	-0.206549
N71	N	1.675093	0.496985	0.126784
N72	N	2.008427	0.830318	0.460117
C73	C	1.418406	0.086973	0.248268
C74	C	1.751739	0.420306	0.581602
C75	C	2.085072	0.753640	0.914935
C76	C	1.418412	0.086972	0.331721
C77	C	1.751745	0.420305	0.665054
C78	C	2.085079	0.753639	0.998387
C79	C	1.341712	0.163629	0.373451
C80	C	1.675046	0.496963	0.706785
C81	C	2.008379	0.830296	1.040118
C82	C	1.264994	0.240285	0.331725
C83	C	1.598327	0.573618	0.665059
C84	C	1.931660	0.906952	0.998392
C85	C	1.264983	0.240280	0.248275
C86	C	1.598316	0.573613	0.581608
C87	C	1.931649	0.906946	0.914941
C88	C	1.265035	0.240308	0.668273
C89	C	1.598368	0.573641	1.001606
C90	C	1.931702	0.906974	1.334939
C91	C	1.265054	0.240309	0.751729
C92	C	1.598387	0.573643	1.085062
C93	C	1.931721	0.906976	1.418396
C94	C	1.418464	0.087000	0.751718
C95	C	1.751797	0.420334	1.085052
C96	C	2.085131	0.753667	1.418385
C97	C	1.418453	0.086995	0.668268
C98	C	1.751786	0.420328	1.001601
C99	C	2.085120	0.753661	1.334934
C100	C	1.341731	0.163646	0.626549
C101	C	1.675064	0.496979	0.959883
C102	C	2.008398	0.830312	1.293216
C103	C	1.341724	0.163644	0.536061
C104	C	1.675057	0.496978	0.869394
C105	C	2.008390	0.830311	1.202728
C106	C	1.341724	0.163637	0.463938
C107	C	1.675058	0.496971	0.797271
C108	C	2.008391	0.830304	1.130605
H109	H	1.480868	0.024555	0.214297
H110	H	1.814201	0.357888	0.547630
H111	H	2.147535	0.691221	0.880963
H112	H	1.202592	0.302735	0.785705
H113	H	1.535925	0.636069	1.119038
H114	H	1.869258	0.969402	1.452372
C115	C	1.180606	0.324601	0.202383
C116	C	1.513939	0.657934	0.535716
C117	C	1.847273	0.991268	0.869049
H118	H	1.134935	0.370264	0.239187
H119	H	1.468268	0.703597	0.572520
H120	H	1.801602	1.036931	0.905853
H121	H	1.133108	0.283449	0.169840
H122	H	1.466442	0.616782	0.503174
H123	H	1.799775	0.950116	0.836507
H124	H	1.221725	0.372128	0.169818
H125	H	1.555058	0.705462	0.503151
H126	H	1.888391	1.038795	0.836485
C127	C	1.502804	0.002666	0.377609
C128	C	1.836138	0.335999	0.710943
C129	C	2.169471	0.669333	1.044276
H130	H	1.548494	-0.042977	0.340804
H131	H	1.881827	0.290357	0.674137
H132	H	2.215160	0.623690	1.007471
H133	H	1.461706	-0.044866	0.410177
H134	H	1.795039	0.288468	0.743511
H135	H	2.128372	0.621801	1.076844
H136	H	1.550300	0.043836	0.410148
H137	H	1.883633	0.377169	0.743482
H138	H	2.216967	0.710502	1.076815
C139	C	1.502819	0.002669	0.622368
C140	C	1.836152	0.336002	0.955701
C141	C	2.169485	0.669335	1.289035
H142	H	1.548499	-0.042992	0.659168
H143	H	1.881833	0.290342	0.992501
H144	H	2.215166	0.623675	1.325835
H145	H	1.550308	0.043813	0.589799
H146	H	1.883642	0.377146	0.923132
H147	H	2.216975	0.710479	1.256466
H148	H	1.461686	-0.044861	0.589829
H149	H	1.795020	0.288473	0.923163
H150	H	2.128353	0.621806	1.256496
C151	C	1.180654	0.324629	0.622393
C152	C	1.513987	0.657963	0.955726
C153	C	1.847321	0.991296	1.289059
H154	H	1.134988	0.370291	0.659200
H155	H	1.468322	0.703625	0.992533
H156	H	1.801655	1.036958	1.325867
H157	H	1.133151	0.283483	0.589851
H158	H	1.466485	0.616816	0.923184
H159	H	1.799818	0.950149	1.256517
H160	H	1.221772	0.372158	0.589828
H161	H	1.555105	0.705491	0.923161
H162	H	1.888438	1.038824	1.256494
C163	C	1.502847	0.002673	0.797611
C164	C	1.836180	0.336006	1.130944
C165	C	2.169513	0.669339	1.464277
H166	H	1.491864	0.013641	0.853288
H167	H	1.825197	0.346975	1.186621
H168	H	2.158530	0.680308	1.519955
H169	H	1.578666	0.015513	0.783922
H170	H	1.912000	0.348847	1.117256
H171	H	2.245333	0.682180	1.450589
H172	H	1.490050	-0.073166	0.783941
H173	H	1.823384	0.260167	1.117275
H174	H	2.156717	0.593500	1.450608
H175	H	1.202538	0.302697	0.365707
H176	H	1.535871	0.636030	0.699041
H177	H	1.869204	0.969364	1.032374
