data_functionalizedCrystal
_audit_creation_method	'MofGen! by Chris Wilmer'
_symmetry_space_group_name_H-M	'P1'
_symmetry_Int_Tables_number	1
_symmetry_cell_setting	triclinic
loop_
_symmetry_equiv_pos_as_xyz
  x,y,z
_cell_length_a	16.625546
_cell_length_b	12.759401
_cell_length_c	12.759393
_cell_angle_alpha	90.019559
_cell_angle_beta	89.963806
_cell_angle_gamma	89.979382
loop_
_atom_site_label
_atom_site_type_symbol
_atom_site_fract_x
_atom_site_fract_y
_atom_site_fract_z
Zn1	Zn	-0.320994	-1.606199	-0.593977
Zn2	Zn	-0.455851	-1.606069	-0.418283
Zn3	Zn	-0.321031	-1.430501	-0.418313
Zn4	Zn	-0.455784	-1.430465	-0.593921
O5	O	-0.388415	-1.518308	-0.506124
O6	O	-0.338895	-1.753202	-0.570682
O7	O	-0.438010	-1.582740	-0.271266
O8	O	-0.208194	-1.453876	-0.441652
O9	O	-0.437974	-1.753107	-0.441600
O10	O	-0.208166	-1.582961	-0.570711
O11	O	-0.338959	-1.453751	-0.271288
O12	O	-0.338894	-1.283475	-0.441597
O13	O	-0.437860	-1.453816	-0.740950
O14	O	-0.437896	-1.283449	-0.570616
O15	O	-0.338830	-1.582927	-0.740991
O16	O	-0.568674	-1.582706	-0.441546
O17	O	-0.568625	-1.453691	-0.570587
C18	C	-0.388393	-1.245341	-0.506105
C19	C	-0.388403	-1.128564	-0.506121
C20	C	-0.440034	-1.073716	-0.573189
C21	C	-0.440041	-0.963992	-0.573198
C22	C	-0.336783	-0.963974	-0.439063
C23	C	-0.336773	-1.073696	-0.439060
C24	C	-0.499652	-1.073726	-0.650628
C25	C	-0.499659	-0.964002	-0.650637
C26	C	-0.597906	-1.518209	-0.506080
C27	C	-0.687527	-1.518263	-0.506096
C28	C	-1.015702	-1.518446	-0.506206
C29	C	-0.924394	-1.518392	-0.506178
C30	C	-0.851618	-1.518353	-0.506150
C31	C	-0.760303	-1.518301	-0.506124
C32	C	-0.178106	-1.518437	-0.506191
C33	C	-0.088485	-1.518492	-0.506220
C34	C	-0.388334	-1.518382	-0.780157
C35	C	-0.388299	-1.518413	-0.896934
C36	C	-0.388431	-0.792342	-0.506139
C37	C	-0.388421	-0.909118	-0.506134
C38	C	-0.336729	-1.585650	-0.951819
C39	C	-0.336700	-1.585675	-1.061543
C40	C	-0.439817	-1.451223	-1.061488
C41	C	-0.439842	-1.451194	-0.951765
C42	C	-0.277198	-1.663279	-0.951852
C43	C	-0.277169	-1.663304	-1.061576
C44	C	-0.388438	-1.518296	-0.233156
C45	C	-0.388245	-1.518468	-0.116380
H46	H	-0.294748	-0.919287	-0.384465
H47	H	-0.214754	-1.641521	-0.922102
C48	C	-0.280611	-1.133305	-0.366427
C49	C	-0.228971	-1.196313	-0.426046
C50	C	-0.177214	-1.251229	-0.359172
H51	H	-0.311311	-1.176168	-0.320552
H52	H	-0.249818	-1.084946	-0.326507
H53	H	-0.259760	-1.244666	-0.465948
H54	H	-0.198253	-1.153476	-0.471918
H55	H	-0.146421	-1.202870	-0.319252
H56	H	-0.207921	-1.294087	-0.313300
H57	H	-0.142165	-1.293979	-0.399614
C58	C	-0.307023	-1.766404	-0.906659
C59	C	-0.326765	-1.834748	-0.988564
C60	C	-0.354234	-1.929760	-0.946971
H61	H	-0.353303	-1.754024	-0.864747
H62	H	-0.265973	-1.796885	-0.864807
H63	H	-0.367812	-1.804273	-1.030398
H64	H	-0.280497	-1.847159	-1.030482
H65	H	-0.313183	-1.960241	-0.905119
H66	H	-0.400511	-1.917369	-0.905060
H67	H	-0.367625	-1.976147	-1.002536
H68	H	-0.217837	-1.634200	-1.095630
H69	H	-0.481832	-1.396439	-0.907082
H70	H	-0.482999	-1.103537	-0.732037
C71	C	-0.578779	-1.118876	-0.611599
C72	C	-0.631207	-1.036941	-0.585736
C73	C	-0.704108	-1.078493	-0.549789
H74	H	-0.569247	-1.160745	-0.551327
H75	H	-0.602207	-1.160762	-0.665044
H76	H	-0.607784	-0.995072	-0.532295
H77	H	-0.640762	-0.995065	-0.645992
H78	H	-0.727536	-1.120380	-0.603234
H79	H	-0.694568	-1.120362	-0.489520
H80	H	-0.739692	-1.022908	-0.532246
C81	C	-0.495750	-1.378367	-1.121211
C82	C	-0.484705	-1.392798	-1.229049
C83	C	-0.536227	-1.325711	-1.284096
H84	H	-0.484000	-1.307736	-1.103354
H85	H	-0.549949	-1.393716	-1.103268
H86	H	-0.430519	-1.377441	-1.246984
H87	H	-0.496462	-1.463415	-1.246937
H88	H	-0.590425	-1.341061	-1.266153
H89	H	-0.524472	-1.255085	-1.266230
H90	H	-0.528745	-1.335500	-1.357269
H91	H	-0.293896	-1.744671	-1.091354
C92	C	-0.470073	-0.918524	-0.753779
C93	C	-0.530766	-0.856796	-0.798209
C94	C	-0.503535	-0.814874	-0.893213
H95	H	-0.456671	-0.973890	-0.800419
H96	H	-0.423837	-0.876572	-0.741438
H97	H	-0.576988	-0.898745	-0.810555
H98	H	-0.544176	-0.801414	-0.751599
H99	H	-0.457299	-0.772922	-0.880872
H100	H	-0.490133	-0.870247	-0.939844
H101	H	-0.544708	-0.772979	-0.923366
H102	H	-0.562091	-0.934196	-0.628698
