data_functionalizedCrystal
_audit_creation_method	'MofGen! by Chris Wilmer'
_symmetry_space_group_name_H-M	'P1'
_symmetry_Int_Tables_number	1
_symmetry_cell_setting	triclinic
loop_
_symmetry_equiv_pos_as_xyz
  x,y,z
_cell_length_a	10.654552
_cell_length_b	16.109298
_cell_length_c	15.186229
_cell_angle_alpha	90.001652
_cell_angle_beta	89.996278
_cell_angle_gamma	83.973119
loop_
_atom_site_label
_atom_site_type_symbol
_atom_site_fract_x
_atom_site_fract_y
_atom_site_fract_z
O1	O	1.666251	0.116784	-0.073225
O2	O	2.166251	0.616784	0.426775
O3	O	1.300622	0.127907	-0.073224
O4	O	1.800622	0.627907	0.426776
O5	O	1.493483	0.001374	-0.073231
O6	O	1.993483	0.501374	0.426769
O7	O	1.473390	0.243317	-0.073218
O8	O	1.973390	0.743317	0.426782
O9	O	1.493470	0.001372	0.073227
O10	O	1.993470	0.501372	0.573227
O11	O	1.300609	0.127905	0.073234
O12	O	1.800609	0.627905	0.573234
O13	O	1.666238	0.116782	0.073232
O14	O	2.166238	0.616782	0.573232
Zn15	Zn	1.483421	0.122343	0.096486
Zn16	Zn	1.983421	0.622343	0.596486
Zn17	Zn	1.483438	0.122346	-0.096478
Zn18	Zn	1.983438	0.622346	0.403522
O19	O	1.473377	0.243315	0.073239
O20	O	1.973377	0.743315	0.573239
C21	C	1.253829	0.127089	0.000005
C22	C	1.753829	0.627089	0.500005
C23	C	1.114419	0.124644	0.000005
C24	C	1.614419	0.624644	0.500005
C25	C	0.917919	0.121193	0.079833
C26	C	1.417919	0.621193	0.579833
C27	C	1.048908	0.123496	0.079838
C28	C	1.548908	0.623496	0.579838
C29	C	1.048931	0.123498	-0.079838
C30	C	1.548931	0.623498	0.420162
C31	C	0.917943	0.121202	-0.079842
C32	C	1.417943	0.621202	0.420158
C33	C	1.218266	0.175257	0.175759
C34	C	1.718266	0.675257	0.675759
C35	C	1.283751	0.176391	0.255600
C36	C	1.783751	0.676391	0.755600
C37	C	1.250871	0.127013	0.326085
C38	C	1.750871	0.627013	0.826085
C39	C	1.152511	0.076481	0.316732
C40	C	1.652511	0.576481	0.816732
C41	C	1.087034	0.075340	0.236890
C42	C	1.587034	0.575340	0.736890
C43	C	1.119909	0.124737	0.166408
C44	C	1.619909	0.624737	0.666408
C45	C	0.748584	0.069433	-0.175758
C46	C	1.248584	0.569433	0.324242
C47	C	0.683106	0.068286	-0.255601
C48	C	1.183106	0.568286	0.244399
C49	C	0.715985	0.117659	-0.326093
C50	C	1.215985	0.617659	0.173907
C51	C	0.814352	0.168179	-0.316749
C52	C	1.314352	0.668179	0.183251
C53	C	0.879830	0.169326	-0.236906
C54	C	1.379830	0.669326	0.263094
C55	C	0.846941	0.119954	-0.166414
C56	C	1.346941	0.619954	0.333586
C57	C	1.492663	-0.029607	-0.000005
C58	C	1.992663	0.470393	0.499995
C59	C	1.490225	-0.121916	-0.000016
C60	C	1.990225	0.378084	0.499984
C61	C	1.713031	0.117600	0.000002
C62	C	2.213031	0.617600	0.500002
C63	C	1.852441	0.120045	-0.000004
C64	C	2.352441	0.620045	0.499996
C65	C	1.482276	-0.421032	-0.079831
C66	C	1.982276	0.078968	0.420169
C67	C	1.484584	-0.334298	-0.079837
C68	C	1.984584	0.165702	0.420163
C69	C	1.484588	-0.334286	0.079838
C70	C	1.984588	0.165714	0.579838
C71	C	1.482289	-0.421018	0.079844
C72	C	1.982289	0.078982	0.579844
C73	C	1.481127	-0.464389	0.000006
C74	C	1.981127	0.035611	0.500006
C75	C	1.485733	-0.290922	-0.000005
C76	C	1.985733	0.209078	0.499995
C77	C	1.488236	-0.196882	-0.000012
C78	C	1.988236	0.303118	0.499988
C79	C	1.478627	-0.558435	0.000012
C80	C	1.978627	-0.058435	0.500012
C81	C	1.474197	0.274296	0.000012
C82	C	1.974197	0.774296	0.500012
C83	C	1.476635	0.366606	0.000017
C84	C	1.976635	0.866606	0.500017
N85	N	1.483419	0.122341	0.228179
N86	N	1.983419	0.622341	0.728179
N87	N	1.483451	0.122341	-0.228170
N88	N	1.983451	0.622341	0.271830
C89	C	1.568847	0.066332	0.453899
C90	C	2.068847	0.566332	0.953899
C91	C	1.568851	0.066330	0.546088
C92	C	2.068851	0.566330	1.046088
C93	C	1.398014	0.178354	0.546103
C94	C	1.898014	0.678354	1.046103
C95	C	1.398005	0.178351	0.453916
C96	C	1.898005	0.678351	0.953916
C97	C	1.483428	0.122341	0.407816
C98	C	1.983428	0.622341	0.907816
C99	C	1.483441	0.122342	0.592193
C100	C	1.983441	0.622342	1.092193
C101	C	1.483445	0.122340	0.692149
C102	C	1.983445	0.622340	1.192149
C103	C	1.483424	0.122341	0.307853
C104	C	1.983424	0.622341	0.807853
H105	H	0.864589	0.120262	0.144842
H106	H	1.364589	0.620262	0.644842
H107	H	1.485521	-0.299001	-0.144849
H108	H	1.985521	0.200999	0.355151
H109	H	1.638402	0.020724	0.416366
H110	H	2.138402	0.520724	0.916366
H111	H	0.959923	0.210466	-0.229301
H112	H	1.459923	0.710466	0.270699
H113	H	1.481357	-0.456321	0.144861
H114	H	1.981357	0.043679	0.644861
H115	H	1.481328	-0.456341	-0.144840
H116	H	1.981328	0.043659	0.355160
H117	H	1.485532	-0.298963	0.144839
H118	H	1.985532	0.201037	0.644839
H119	H	0.841125	0.208381	-0.374150
H120	H	1.341125	0.708381	0.125850
H121	H	1.638405	0.020721	0.583607
H122	H	2.138405	0.520721	1.083607
H123	H	1.328466	0.223957	0.583647
H124	H	1.828466	0.723957	1.083647
H125	H	1.006952	0.034197	0.229275
H126	H	1.506952	0.534197	0.729275
H127	H	1.125758	0.036267	0.374128
H128	H	1.625758	0.536267	0.874128
H129	H	1.304197	0.127938	0.391093
H130	H	1.804197	0.627938	0.891093
H131	H	1.328441	0.223961	0.416392
H132	H	1.828441	0.723961	0.916392
H133	H	1.245037	0.215477	0.118374
H134	H	1.745037	0.715477	0.618374
H135	H	1.102279	0.124439	-0.144840
H136	H	1.602279	0.624439	0.355160
H137	H	0.662667	0.116716	-0.391107
H138	H	1.162667	0.616716	0.108893
H139	H	1.363835	0.217540	0.263210
H140	H	1.863835	0.717540	0.763210
H141	H	0.721794	0.029234	-0.118357
H142	H	1.221794	0.529234	0.381643
H143	H	0.603012	0.027146	-0.263206
H144	H	1.103012	0.527146	0.236794
