data_functionalizedCrystal
_audit_creation_method	'MofGen! by Chris Wilmer'
_symmetry_space_group_name_H-M	'P1'
_symmetry_Int_Tables_number	1
_symmetry_cell_setting	triclinic
loop_
_symmetry_equiv_pos_as_xyz
  x,y,z
_cell_length_a	13.262390
_cell_length_b	10.540539
_cell_length_c	11.804365
_cell_angle_alpha	101.953828
_cell_angle_beta	62.657606
_cell_angle_gamma	84.478113
loop_
_atom_site_label
_atom_site_type_symbol
_atom_site_fract_x
_atom_site_fract_y
_atom_site_fract_z
O1	O	1.519425	0.018651	-0.591144
O2	O	1.191432	0.064616	-0.484913
O3	O	1.362911	-0.143737	-0.540450
O4	O	1.347946	0.227004	-0.535606
O5	O	1.317767	-0.088937	-0.327773
O6	O	1.146287	0.119416	-0.272236
O7	O	1.474281	0.073450	-0.378467
Cu8	Cu	1.306162	0.101437	-0.305932
Cu9	Cu	1.359550	0.036630	-0.557447
O10	O	1.302801	0.281803	-0.322929
C11	C	1.126860	0.094479	-0.364971
C12	C	1.001716	0.101804	-0.324440
C13	C	0.747400	0.002943	-0.673928
C14	C	0.864980	-0.003945	-0.712012
C15	C	0.899170	0.022492	-0.615122
C16	C	0.815768	0.055818	-0.480142
C17	C	0.698177	0.062697	-0.442055
C18	C	0.849947	0.082246	-0.383249
C19	C	0.766545	0.115572	-0.248268
C20	C	0.648966	0.122451	-0.210188
C21	C	0.614776	0.096014	-0.307077
C22	C	0.967538	0.075366	-0.421336
C23	C	0.918315	0.135120	-0.189463
C24	C	0.800735	0.142009	-0.151379
C25	C	1.339217	-0.163541	-0.433750
C26	C	1.335861	-0.304193	-0.432670
C27	C	1.207293	-0.476323	-0.391474
C28	C	1.210596	-0.329884	-0.392097
C29	C	1.370364	-0.339907	-0.330745
C30	C	1.366067	-0.486046	-0.329258
C31	C	1.419952	-0.549108	-0.571937
C32	C	1.421447	-0.402642	-0.573916
C33	C	1.538853	0.043587	-0.498411
C34	C	1.663999	0.036260	-0.538951
C35	C	1.326496	0.301607	-0.429632
C36	C	1.329854	0.442256	-0.430721
N37	N	1.268620	0.147017	-0.129033
N38	N	1.397102	-0.008961	-0.734350
C39	C	1.487254	-0.118441	0.174106
C40	C	1.515654	-0.152927	0.040247
C41	C	1.453897	-0.077944	-0.002080
C42	C	1.363737	0.031532	0.089467
C43	C	1.335341	0.066028	0.223337
C44	C	1.301984	0.106524	0.047151
C45	C	1.211824	0.216000	0.138698
C46	C	1.183432	0.250490	0.272555
C47	C	1.245188	0.175508	0.314881
C48	C	1.330380	0.072028	-0.086719
C49	C	1.178467	0.256497	-0.037489
C50	C	1.150068	0.290983	0.096371
H51	H	0.581063	0.149564	-0.100279
F52	F	0.953735	-0.039417	-0.855661
H53	H	1.477024	-0.106029	-0.111075
F54	F	1.087488	0.367016	0.369982
F55	F	1.426331	-0.044481	-0.184134
H56	H	1.461396	-0.324554	-0.356024
F57	F	1.611604	-0.269432	-0.057178
F58	F	1.552979	-0.198224	0.219157
H59	H	1.222063	0.203583	0.423881
H60	H	1.181642	-0.305503	-0.463794
F61	F	0.711959	0.177476	-0.007726
F62	F	1.123964	-0.240389	-0.257895
H63	H	0.946151	0.156646	-0.110567
H64	H	1.076658	0.380122	0.170924
F65	F	1.166776	-0.537294	-0.484363
F66	F	0.711009	-0.025242	-0.777030
F67	F	1.290555	-0.248934	-0.194884
F68	F	1.392493	-0.616634	-0.675090
H69	H	1.128181	0.317557	-0.071949
F70	F	1.118747	-0.481415	-0.257668
F71	F	1.056288	0.039899	-0.564987
F72	F	1.282643	-0.487165	-0.191737
H73	H	0.519033	0.101625	-0.276076
F74	F	1.024311	0.015163	-0.655658
F75	F	1.482285	-0.557339	-0.360180
H76	H	1.396409	-0.381019	-0.649475
H77	H	1.510604	-0.604574	-0.602058
F78	F	1.542854	-0.384044	-0.622173
