data_functionalizedCrystal
_audit_creation_method	'MofGen! by Chris Wilmer'
_symmetry_space_group_name_H-M	'P1'
_symmetry_Int_Tables_number	1
_symmetry_cell_setting	triclinic
loop_
_symmetry_equiv_pos_as_xyz
  x,y,z
_cell_length_a	16.959455
_cell_length_b	16.959454
_cell_length_c	16.959447
_cell_angle_alpha	89.973264
_cell_angle_beta	90.014322
_cell_angle_gamma	89.982978
loop_
_atom_site_label
_atom_site_type_symbol
_atom_site_fract_x
_atom_site_fract_y
_atom_site_fract_z
Zn1	Zn	1.208384	0.314730	0.446928
Zn2	Zn	1.541717	0.648064	0.780262
Zn3	Zn	1.875050	0.981397	1.113595
Zn4	Zn	1.208306	0.446923	0.314758
Zn5	Zn	1.541640	0.780256	0.648091
Zn6	Zn	1.874973	1.113589	0.981425
Zn7	Zn	1.076212	0.314755	0.314766
Zn8	Zn	1.409546	0.648088	0.648099
Zn9	Zn	1.742879	0.981422	0.981433
Zn10	Zn	1.076177	0.446864	0.446897
Zn11	Zn	1.409510	0.780197	0.780230
Zn12	Zn	1.742844	1.113530	1.113563
O13	O	1.142270	0.380818	0.380837
O14	O	1.475603	0.714151	0.714171
O15	O	1.808936	1.047485	1.047504
O16	O	1.318984	0.332280	0.429406
O17	O	1.652318	0.665614	0.762739
O18	O	1.985651	0.998947	1.096072
O19	O	1.190766	0.429426	0.204148
O20	O	1.524099	0.762759	0.537482
O21	O	1.857433	1.096092	0.870815
O22	O	1.093792	0.204141	0.332314
O23	O	1.427126	0.537474	0.665647
O24	O	1.760459	0.870808	0.998981
O25	O	1.318927	0.429402	0.332301
O26	O	1.652261	0.762735	0.665634
O27	O	1.985594	1.096068	0.998967
O28	O	1.190898	0.204123	0.429413
O29	O	1.524231	0.537456	0.762747
O30	O	1.857565	0.870789	1.096080
O31	O	1.093717	0.332323	0.204154
O32	O	1.427050	0.665656	0.537487
O33	O	1.760384	0.998989	0.870821
O34	O	0.965597	0.332265	0.332283
O35	O	1.298930	0.665599	0.665617
O36	O	1.632263	0.998932	0.998950
O37	O	1.093732	0.429301	0.557512
O38	O	1.427065	0.762634	0.890845
O39	O	1.760399	1.095967	1.224178
O40	O	0.965571	0.429325	0.429359
O41	O	1.298904	0.762658	0.762693
O42	O	1.632237	1.095992	1.096026
O43	O	1.190864	0.332223	0.557535
O44	O	1.524197	0.665556	0.890868
O45	O	1.857531	0.998890	1.224202
O46	O	1.190732	0.557526	0.332270
O47	O	1.524065	0.890859	0.665603
O48	O	1.857398	1.224192	0.998937
O49	O	1.093657	0.557482	0.429352
O50	O	1.426990	0.890816	0.762685
O51	O	1.760324	1.224149	1.096018
C52	C	0.936904	0.380792	0.380819
C53	C	1.270237	0.714125	0.714152
C54	C	1.603570	1.047459	1.047486
C55	C	0.849047	0.380800	0.380830
C56	C	1.182380	0.714133	0.714163
C57	C	1.515714	1.047466	1.047497
C58	C	1.142204	0.586184	0.380824
C59	C	1.475537	0.919518	0.714157
C60	C	1.808870	1.252851	1.047490
C61	C	1.142248	0.674041	0.380844
C62	C	1.475581	1.007374	0.714178
C63	C	1.808914	1.340708	1.047511
C64	C	0.477560	0.330238	0.330395
C65	C	0.810894	0.663571	0.663729
C66	C	1.144227	0.996904	0.997062
C67	C	0.477582	0.431463	0.431324
C68	C	0.810916	0.764797	0.764658
C69	C	1.144249	1.098130	1.097991
C70	C	0.560128	0.431452	0.431320
C71	C	0.893461	0.764785	0.764653
C72	C	1.226795	1.098119	1.097986
C73	C	0.601394	0.380834	0.380851
C74	C	0.934727	0.714167	0.714184
C75	C	1.268061	1.047500	1.047518
C76	C	0.560114	0.330226	0.330387
C77	C	0.893447	0.663560	0.663721
C78	C	1.226781	0.996893	0.997054
C79	C	0.601414	0.482064	0.481777
C80	C	0.934748	0.815397	0.815110
C81	C	1.268081	1.148731	1.148443
C82	C	0.683965	0.482055	0.481773
C83	C	1.017299	0.815389	0.815107
C84	C	1.350632	1.148722	1.148440
C85	C	0.725233	0.431432	0.431308
C86	C	1.058566	0.764765	0.764641
C87	C	1.391899	1.098099	1.097975
C88	C	0.683948	0.380822	0.380843
C89	C	1.017281	0.714156	0.714176
C90	C	1.350614	1.047489	1.047510
C91	C	0.725213	0.330204	0.330374
C92	C	1.058547	0.663537	0.663708
C93	C	1.391880	0.996871	0.997041
C94	C	0.683930	0.279589	0.279913
C95	C	1.017263	0.612923	0.613246
C96	C	1.350596	0.946256	0.946579
C97	C	0.601381	0.279603	0.279922
C98	C	0.934715	0.612937	0.613255
C99	C	1.268048	0.946270	0.946589
C100	C	0.807781	0.431418	0.431299
C101	C	1.141114	0.764752	0.764632
C102	C	1.474448	1.098085	1.097965
C103	C	0.807767	0.330193	0.330366
C104	C	1.141100	0.663526	0.663700
C105	C	1.474434	0.996859	0.997033
C106	C	1.142303	0.380753	0.587006
C107	C	1.475636	0.714086	0.920339
C108	C	1.808969	1.047419	1.253672
C109	C	1.142317	0.380725	0.674862
C110	C	1.475650	0.714058	1.008196
C111	C	1.808983	1.047391	1.341529
C112	C	1.348438	0.380845	0.380856
C113	C	1.681771	0.714178	0.714189
C114	C	2.015105	1.047511	1.047523
C115	C	1.436295	0.380856	0.380864
C116	C	1.769628	0.714189	0.714197
C117	C	2.102961	1.047523	1.047531
C118	C	1.142358	0.174650	0.380868
C119	C	1.475691	0.507983	0.714201
C120	C	1.809024	0.841316	1.047535
C121	C	1.142395	0.086793	0.380881
C122	C	1.475729	0.420126	0.714215
C123	C	1.809062	0.753460	1.047548
C124	C	1.091796	1.045524	0.431382
C125	C	1.425130	1.378857	0.764716
C126	C	1.758463	1.712190	1.098049
C127	C	1.192963	1.045509	0.330373
C128	C	1.526297	1.378842	0.663706
C129	C	1.859630	1.712176	0.997039
C130	C	1.192936	0.962963	0.330365
C131	C	1.526269	1.296296	0.663699
C132	C	1.859603	1.629630	0.997032
C133	C	1.142337	0.921694	0.380867
C134	C	1.475670	1.255027	0.714200
C135	C	1.809004	1.588360	1.047533
C136	C	1.091765	0.962970	0.431375
C137	C	1.425099	1.296304	0.764708
C138	C	1.758432	1.629637	1.098042
C139	C	1.243501	0.921680	0.279852
C140	C	1.576834	1.255014	0.613186
C141	C	1.910167	1.588347	0.946519
C142	C	1.243475	0.839130	0.279842
C143	C	1.576808	1.172463	0.613176
C144	C	1.910141	1.505796	0.946509
C145	C	1.192879	0.797859	0.330348
C146	C	1.526212	1.131192	0.663682
C147	C	1.859546	1.464525	0.997015
C148	C	1.142306	0.839140	0.380859
C149	C	1.475639	1.172474	0.714192
C150	C	1.808973	1.505807	1.047526
C151	C	1.091707	0.797871	0.431360
C152	C	1.425040	1.131204	0.764694
C153	C	1.758374	1.464537	1.098027
C154	C	1.041137	0.839151	0.481876
C155	C	1.374471	1.172484	0.815209
C156	C	1.707804	1.505818	1.148542
C157	C	1.041170	0.921699	0.481881
C158	C	1.374503	1.255033	0.815214
C159	C	1.707836	1.588366	1.148547
C160	C	1.192847	0.715310	0.330343
C161	C	1.526180	1.048644	0.663677
C162	C	1.859513	1.381977	0.997010
C163	C	1.091676	0.715317	0.431353
C164	C	1.425009	1.048651	0.764686
C165	C	1.758343	1.381984	1.098019
C166	C	1.142283	0.380826	0.175471
C167	C	1.475616	0.714159	0.508804
C168	C	1.808949	1.047493	0.842138
C169	C	1.142422	0.380631	0.087615
C170	C	1.475755	0.713965	0.420948
C171	C	1.809088	1.047298	0.754281
C172	C	1.091839	0.431185	1.046328
C173	C	1.425172	0.764519	1.379662
C174	C	1.758506	1.097852	1.712995
C175	C	1.192983	0.330097	1.046348
C176	C	1.526317	0.663431	1.379681
C177	C	1.859650	0.996764	1.713014
C178	C	1.192962	0.330114	0.963802
C179	C	1.526296	0.663447	1.297135
C180	C	1.859629	0.996781	1.630468
C181	C	1.142380	0.380668	0.922515
C182	C	1.475713	0.714001	1.255849
C183	C	1.809046	1.047335	1.589182
C184	C	1.091818	0.431205	0.963775
C185	C	1.425151	0.764539	1.297108
C186	C	1.758485	1.097872	1.630441
C187	C	1.243529	0.279584	0.922536
C188	C	1.576862	0.612917	1.255869
C189	C	1.910195	0.946250	1.589203
C190	C	1.243510	0.279599	0.839985
C191	C	1.576843	0.612932	1.173318
C192	C	1.910177	0.946266	1.506652
C193	C	1.192923	0.330149	0.798697
C194	C	1.526256	0.663483	1.132031
C195	C	1.859590	0.996816	1.465364
C196	C	1.142359	0.380688	0.839962
C197	C	1.475692	0.714021	1.173295
C198	C	1.809025	1.047355	1.506628
C199	C	1.091776	0.431242	0.798675
C200	C	1.425109	0.764575	1.132009
C201	C	1.758443	1.097909	1.465342
C202	C	1.041207	0.481777	0.839938
C203	C	1.374541	0.815110	1.173272
C204	C	1.707874	1.148444	1.506605
C205	C	1.041231	0.481756	0.922487
C206	C	1.374564	0.815089	1.255820
C207	C	1.707898	1.148422	1.589154
C208	C	1.192899	0.330171	0.716149
C209	C	1.526233	0.663504	1.049482
C210	C	1.859566	0.996837	1.382815
C211	C	1.091755	0.431262	0.716122
C212	C	1.425088	0.764595	1.049455
C213	C	1.758422	1.097929	1.382788
H214	H	0.841360	0.288968	0.289273
H215	H	1.174693	0.622301	0.622606
H216	H	1.508026	0.955634	0.955940
H217	H	0.999998	0.955317	0.523007
H218	H	1.333331	1.288650	0.856340
H219	H	1.666665	1.621984	1.189673
H220	H	0.443944	0.289026	0.289313
H221	H	0.777277	0.622360	0.622646
H222	H	1.110610	0.955693	0.955980
H223	H	0.567761	0.238397	0.238838
H224	H	0.901094	0.571730	0.572171
H225	H	1.234428	0.905063	0.905505
H226	H	0.717571	0.523268	0.522863
H227	H	1.050905	0.856601	0.856196
H228	H	1.384238	1.189935	1.189529
H229	H	1.050475	0.681721	0.472480
H230	H	1.383808	1.015054	0.805813
H231	H	1.717142	1.348387	1.139147
H232	H	1.234170	0.288943	1.079968
H233	H	1.567503	0.622276	1.413301
H234	H	1.900836	0.955610	1.746635
H235	H	0.999936	0.805540	0.522991
H236	H	1.333269	1.138873	0.856324
H237	H	1.666602	1.472207	1.189657
H238	H	0.841390	0.472630	0.472381
H239	H	1.174724	0.805963	0.805715
H240	H	1.508057	1.139297	1.139048
H241	H	1.050626	1.079138	0.472513
H242	H	1.383959	1.412471	0.805846
H243	H	1.717293	1.745804	1.139180
H244	H	1.000063	0.522901	0.956091
H245	H	1.333396	0.856235	1.289424
H246	H	1.666730	1.189568	1.622757
H247	H	1.234154	1.079115	0.289252
H248	H	1.567488	1.412449	0.622586
H249	H	1.900821	1.745782	0.955919
H250	H	1.284715	0.238430	0.956158
H251	H	1.618048	0.571764	1.289491
H252	H	1.951382	0.905097	1.622824
H253	H	0.717539	0.238379	0.238818
H254	H	1.050873	0.571713	0.572151
H255	H	1.384206	0.905046	0.905484
H256	H	1.284686	0.238450	0.806396
H257	H	1.618019	0.571783	1.139729
H258	H	1.951353	0.905116	1.473062
H259	H	1.284690	0.955288	0.238731
H260	H	1.618023	1.288621	0.572065
H261	H	1.951357	1.621955	0.905398
H262	H	1.284651	0.805524	0.238711
H263	H	1.617985	1.138858	0.572044
H264	H	1.951318	1.472191	0.905378
H265	H	0.443979	0.472679	0.472409
H266	H	0.777312	0.806013	0.805742
H267	H	1.110645	1.139346	1.139075
H268	H	0.567810	0.523280	0.522860
H269	H	0.901143	0.856614	0.856193
H270	H	1.234476	1.189947	1.189526
H271	H	1.234016	0.681704	0.289211
H272	H	1.567349	1.015037	0.622544
H273	H	1.900682	1.348370	0.955877
H274	H	1.050557	0.472422	0.682512
H275	H	1.383890	0.805756	1.015845
H276	H	1.717224	1.139089	1.349179
H277	H	1.000026	0.522942	0.806312
H278	H	1.333360	0.856275	1.139645
H279	H	1.666693	1.189608	1.472979
H280	H	1.234074	0.289028	0.682556
H281	H	1.567407	0.622361	1.015889
H282	H	1.900740	0.955695	1.349223
H283	H	1.050665	0.472327	1.079928
H284	H	1.383998	0.805661	1.413262
H285	H	1.717332	1.138994	1.746595
