data_functionalizedCrystal
_audit_creation_method	'MofGen! by Chris Wilmer'
_symmetry_space_group_name_H-M	'P1'
_symmetry_Int_Tables_number	1
_symmetry_cell_setting	triclinic
loop_
_symmetry_equiv_pos_as_xyz
  x,y,z
_cell_length_a	18.050591
_cell_length_b	18.101395
_cell_length_c	18.101389
_cell_angle_alpha	90.016841
_cell_angle_beta	89.974987
_cell_angle_gamma	89.972890
loop_
_atom_site_label
_atom_site_type_symbol
_atom_site_fract_x
_atom_site_fract_y
_atom_site_fract_z
Zn1	Zn	1.135308	0.294986	-0.418860
Zn2	Zn	1.468641	0.628319	-0.085527
Zn3	Zn	1.801974	0.961653	0.247806
Zn4	Zn	1.135203	0.418812	-0.295022
Zn5	Zn	1.468537	0.752145	0.038311
Zn6	Zn	1.801870	1.085479	0.371644
Zn7	Zn	1.011118	0.294980	-0.295020
Zn8	Zn	1.344451	0.628313	0.038313
Zn9	Zn	1.677785	0.961647	0.371647
Zn10	Zn	1.011069	0.418782	-0.418809
Zn11	Zn	1.344402	0.752115	-0.085476
Zn12	Zn	1.677735	1.085448	0.247857
O13	O	1.073174	0.356890	-0.356928
O14	O	1.406508	0.690223	-0.023595
O15	O	1.739841	1.023557	0.309739
O16	O	1.239218	0.311427	-0.402455
O17	O	1.572552	0.644760	-0.069122
O18	O	1.905885	0.978094	0.264211
O19	O	1.118720	0.402395	-0.191389
O20	O	1.452053	0.735729	0.141944
O21	O	1.785387	1.069062	0.475278
O22	O	1.027656	0.191348	-0.311468
O23	O	1.360990	0.524681	0.021865
O24	O	1.694323	0.858015	0.355198
O25	O	1.239142	0.402401	-0.311472
O26	O	1.572475	0.735735	0.021861
O27	O	1.905808	1.069068	0.355195
O28	O	1.118898	0.191352	-0.402453
O29	O	1.452231	0.524686	-0.069120
O30	O	1.785565	0.858019	0.264214
O31	O	1.027555	0.311417	-0.191387
O32	O	1.360888	0.644750	0.141946
O33	O	1.694222	0.978083	0.475279
O34	O	0.907187	0.311387	-0.311419
O35	O	1.240520	0.644721	0.021915
O36	O	1.573853	0.978054	0.355248
O37	O	1.027572	0.402350	-0.522449
O38	O	1.360905	0.735683	-0.189116
O39	O	1.694239	1.069017	0.144218
O40	O	0.907151	0.402344	-0.402366
O41	O	1.240484	0.735677	-0.069033
O42	O	1.573817	1.069011	0.264300
O43	O	1.118850	0.311398	-0.522487
O44	O	1.452183	0.644731	-0.189153
O45	O	1.785517	0.978065	0.144180
O46	O	1.118672	0.522441	-0.311422
O47	O	1.452005	0.855774	0.021911
O48	O	1.785339	1.189107	0.355244
O49	O	1.027471	0.522419	-0.402368
O50	O	1.360804	0.855752	-0.069035
O51	O	1.694138	1.189085	0.264298
C52	C	0.880222	0.356862	-0.356887
C53	C	1.213556	0.690196	-0.023554
C54	C	1.546889	1.023529	0.309780
C55	C	0.797676	0.356868	-0.356887
C56	C	1.131010	0.690202	-0.023554
C57	C	1.464343	1.023535	0.309780
C58	C	0.598224	0.307349	-0.307544
C59	C	0.931557	0.640682	0.025790
C60	C	1.264891	0.974016	0.359123
C61	C	0.548800	0.374893	-0.289321
C62	C	0.882133	0.708227	0.044012
C63	C	1.215466	1.041560	0.377346
C64	C	0.646546	0.356891	-0.356921
C65	C	0.979879	0.690224	-0.023587
C66	C	1.313213	1.023558	0.309746
C67	C	0.548889	0.289370	-0.375142
C68	C	0.882222	0.622703	-0.041808
C69	C	1.215555	0.956037	0.291525
C70	C	0.500561	0.356907	-0.356952
C71	C	0.833894	0.690240	-0.023618
C72	C	1.167228	1.023573	0.309715
C73	C	0.598209	0.424471	-0.338662
C74	C	0.931542	0.757804	-0.005329
C75	C	1.264876	1.091137	0.328004
C76	C	0.598302	0.338902	-0.424515
C77	C	0.931636	0.672235	-0.091181
C78	C	1.264969	1.005568	0.242152
C79	C	0.548900	0.406493	-0.406317
C80	C	0.882234	0.739826	-0.072984
C81	C	1.215567	1.073160	0.260349
C82	C	0.730644	0.356881	-0.356901
C83	C	1.063978	0.690214	-0.023568
C84	C	1.397311	1.023547	0.309766
C85	C	0.416464	0.356924	-0.356971
C86	C	0.749798	0.690258	-0.023638
C87	C	1.083131	1.023591	0.309695
C88	C	1.073075	0.549301	-0.356906
C89	C	1.406408	0.882634	-0.023573
C90	C	1.739742	1.215967	0.309760
C91	C	1.073100	0.631615	-0.356922
C92	C	1.406434	0.964948	-0.023588
C93	C	1.739767	1.298281	0.309745
C94	C	1.073217	0.356871	-0.550090
C95	C	1.406551	0.690205	-0.216757
C96	C	1.739884	1.023538	0.116577
C97	C	1.073236	0.356863	-0.632404
C98	C	1.406569	0.690197	-0.299071
C99	C	1.739902	1.023530	0.034263
C100	C	1.266880	0.356918	-0.356970
C101	C	1.600213	0.690252	-0.023636
C102	C	1.933547	1.023585	0.309697
C103	C	1.349426	0.356930	-0.356987
C104	C	1.682759	0.690264	-0.023654
C105	C	2.016092	1.023597	0.309679
C106	C	1.073294	0.163728	-0.356966
C107	C	1.406628	0.497061	-0.023633
C108	C	1.739961	0.830395	0.309701
C109	C	1.073345	0.081414	-0.356982
C110	C	1.406679	0.414747	-0.023649
C111	C	1.740012	0.748081	0.309684
C112	C	1.073263	0.930706	-0.356962
C113	C	1.406597	1.264039	-0.023628
C114	C	1.739930	1.597372	0.309705
C115	C	1.016015	0.899397	-0.414324
C116	C	1.349348	1.232731	-0.080991
C117	C	1.682682	1.566064	0.252342
C118	C	1.015743	0.813779	-0.414145
C119	C	1.349076	1.147113	-0.080812
C120	C	1.682410	1.480446	0.252522
C121	C	1.073182	0.782323	-0.356942
C122	C	1.406516	1.115656	-0.023609
C123	C	1.739849	1.448990	0.309724
C124	C	1.051994	0.813459	-0.278891
C125	C	1.385327	1.146792	0.054443
C126	C	1.718660	1.480125	0.387776
C127	C	1.051625	0.899104	-0.279234
C128	C	1.384958	1.232437	0.054099
C129	C	1.718291	1.565771	0.387433
C130	C	1.151826	0.899058	-0.376964
C131	C	1.485159	1.232392	-0.043630
C132	C	1.818492	1.565725	0.289703
C133	C	1.151364	0.813408	-0.378675
C134	C	1.484697	1.146741	-0.045342
C135	C	1.818030	1.480074	0.287991
C136	C	1.073138	0.698464	-0.356927
C137	C	1.406471	1.031797	-0.023593
C138	C	1.739805	1.365130	0.309740
C139	C	1.073306	1.014565	-0.356972
C140	C	1.406639	1.347898	-0.023639
C141	C	1.739973	1.681232	0.309695
C142	C	1.073279	0.356724	-0.931495
C143	C	1.406612	0.690058	-0.598162
C144	C	1.739945	1.023391	-0.264829
C145	C	1.015652	0.413767	-0.900146
C146	C	1.348985	0.747100	-0.566813
C147	C	1.682318	1.080434	-0.233480
C148	C	1.015807	0.414032	-0.814528
C149	C	1.349141	0.747365	-0.481195
C150	C	1.682474	1.080698	-0.147862
C151	C	1.073257	0.356793	-0.783113
C152	C	1.406590	0.690127	-0.449779
C153	C	1.739923	1.023460	-0.116446
C154	C	1.151502	0.377983	-0.814220
C155	C	1.484835	0.711316	-0.480887
C156	C	1.818168	1.044649	-0.147553
C157	C	1.151181	0.378357	-0.899865
C158	C	1.484514	0.711691	-0.566532
C159	C	1.817847	1.045024	-0.233198
C160	C	1.053341	0.278365	-0.899917
C161	C	1.386675	0.611699	-0.566584
C162	C	1.720008	0.945032	-0.233250
C163	C	1.051600	0.278818	-0.814266
C164	C	1.384934	0.612151	-0.480933
C165	C	1.718267	0.945485	-0.147600
C166	C	1.073249	0.356831	-0.699253
C167	C	1.406582	0.690164	-0.365920
C168	C	1.739916	1.023498	-0.032586
C169	C	1.073292	0.356689	-1.015355
C170	C	1.406625	0.690022	-0.682022
C171	C	1.739958	1.023355	-0.348688
C172	C	1.073174	0.356855	-0.164518
C173	C	1.406508	0.690189	0.168816
C174	C	1.739841	1.023522	0.502149
C175	C	1.073300	0.356655	-0.082204
C176	C	1.406633	0.689988	0.251129
C177	C	1.739967	1.023321	0.584463
H178	H	1.029000	0.792727	-0.472019
H179	H	1.362333	1.126060	-0.138686
H180	H	1.695666	1.459393	0.194648
Cl181	Cl	1.178051	0.465482	-0.781121
Cl182	Cl	1.511384	0.798815	-0.447788
Cl183	Cl	1.844718	1.132148	-0.114454
H184	H	1.029140	0.919956	-0.472386
H185	H	1.362473	1.253290	-0.139053
H186	H	1.695807	1.586623	0.194281
Cl187	Cl	1.113199	0.931085	-0.210991
Cl188	Cl	1.446533	1.264419	0.122342
Cl189	Cl	1.779866	1.597752	0.455676
H190	H	1.167342	0.793056	-0.436117
H191	H	1.500675	1.126389	-0.102784
H192	H	1.834009	1.459723	0.230550
H193	H	0.997277	0.259061	-0.921502
H194	H	1.330610	0.592395	-0.588169
H195	H	1.663944	0.925728	-0.254835
H196	H	1.196273	0.791991	-0.339941
H197	H	1.529606	1.125324	-0.006608
H198	H	1.862940	1.458658	0.326726
Cl199	Cl	0.925796	0.393502	-0.931920
Cl200	Cl	1.259129	0.726835	-0.598587
Cl201	Cl	1.592462	1.060169	-0.265254
Cl202	Cl	0.515670	0.471259	-0.470807
Cl203	Cl	0.849003	0.804592	-0.137474
Cl204	Cl	1.182337	1.137925	0.195860
H205	H	0.620063	0.323654	-0.481647
H206	H	0.953396	0.656987	-0.148314
H207	H	1.286730	0.990321	0.185020
H208	H	1.028970	0.472114	-0.794048
H209	H	1.362303	0.805447	-0.460714
H210	H	1.695637	1.138780	-0.127381
Cl211	Cl	1.111683	0.209716	-0.781262
Cl212	Cl	1.445016	0.543049	-0.447929
Cl213	Cl	1.778350	0.876383	-0.114596
H214	H	1.194478	0.919304	-0.335184
H215	H	1.527811	1.252637	-0.001851
H216	H	1.861144	1.585970	0.331482
H217	H	1.168082	0.435639	-0.919850
H218	H	1.501416	0.768972	-0.586517
H219	H	1.834749	1.102305	-0.253183
H220	H	0.994019	0.262839	-0.793933
H221	H	1.327352	0.596172	-0.460600
H222	H	1.660686	0.929506	-0.127267
Cl223	Cl	1.118144	0.212749	-0.931219
Cl224	Cl	1.451477	0.546082	-0.597886
Cl225	Cl	1.784810	0.879416	-0.264553
H226	H	1.028684	0.471495	-0.921674
H227	H	1.362017	0.804828	-0.588340
H228	H	1.695350	1.138161	-0.255007
Cl229	Cl	0.515228	0.398404	-0.201088
Cl230	Cl	0.848561	0.731737	0.132245
Cl231	Cl	1.181895	1.065070	0.465579
Cl232	Cl	0.631664	0.242734	-0.243009
Cl233	Cl	0.964998	0.576067	0.090324
Cl234	Cl	1.298331	0.909401	0.423657
Cl235	Cl	1.219678	0.316956	-0.931889
Cl236	Cl	1.553012	0.650289	-0.598556
Cl237	Cl	1.886345	0.983623	-0.265223
Cl238	Cl	0.631513	0.512667	-0.314785
Cl239	Cl	0.964847	0.846001	0.018548
Cl240	Cl	1.298180	1.179334	0.351882
H241	H	0.527185	0.232269	-0.390515
H242	H	0.860518	0.565602	-0.057181
H243	H	1.193852	0.898936	0.276152
H244	H	0.958137	0.920977	-0.401241
H245	H	1.291470	1.254311	-0.067908
H246	H	1.624804	1.587644	0.265425
H247	H	0.957511	0.793350	-0.400895
H248	H	1.290844	1.126683	-0.067562
H249	H	1.624178	1.460016	0.265772
Cl250	Cl	0.962960	0.930041	-0.253077
Cl251	Cl	1.296293	1.263374	0.080256
Cl252	Cl	1.629626	1.596708	0.413590
H253	H	1.092379	0.793083	-0.234985
H254	H	1.425712	1.126416	0.098348
H255	H	1.759046	1.459750	0.431681
Cl256	Cl	0.964265	0.780438	-0.252263
Cl257	Cl	1.297599	1.113771	0.081071
Cl258	Cl	1.630932	1.447105	0.414404
Cl259	Cl	0.926227	0.393556	-0.782050
Cl260	Cl	1.259560	0.726889	-0.448717
Cl261	Cl	1.592893	1.060222	-0.115384
H262	H	1.195591	0.337741	-0.793873
H263	H	1.528925	0.671075	-0.460540
H264	H	1.862258	1.004408	-0.127207
H265	H	1.171144	0.920618	-0.432909
H266	H	1.504477	1.253951	-0.099576
H267	H	1.837810	1.587285	0.233757
