data_functionalizedCrystal
_audit_creation_method	'MofGen! by Chris Wilmer'
_symmetry_space_group_name_H-M	'P1'
_symmetry_Int_Tables_number	1
_symmetry_cell_setting	triclinic
loop_
_symmetry_equiv_pos_as_xyz
  x,y,z
_cell_length_a	20.919292
_cell_length_b	21.606444
_cell_length_c	21.606444
_cell_angle_alpha	59.999875
_cell_angle_beta	93.154536
_cell_angle_gamma	61.855223
loop_
_atom_site_label
_atom_site_type_symbol
_atom_site_fract_x
_atom_site_fract_y
_atom_site_fract_z
Zr1	Zr	-0.084017	0.677474	0.591736
O2	O	-0.186235	0.806590	0.487464
O3	O	-0.052684	0.548357	0.623702
O4	O	-0.186244	0.677477	0.616581
O5	O	0.052683	0.677468	0.500199
O6	O	-0.186248	0.677482	0.718431
O7	O	-0.052675	0.677470	0.494584
O8	O	0.052667	0.446509	0.731168
O9	O	-0.186232	0.908441	0.487463
O10	O	-0.039320	0.601469	0.713343
O11	O	0.039310	0.601464	0.641525
O12	O	-0.117940	0.753487	0.633142
O13	O	-0.039310	0.753482	0.561323
Zr14	Zr	0.084011	0.677479	0.763130
Zr15	Zr	-0.084023	0.677481	0.754174
Zr16	Zr	0.084017	0.677472	0.600692
Zr17	Zr	-0.084011	0.839915	0.591734
Zr18	Zr	0.084006	0.515039	0.763132
O19	O	0.052679	0.806596	0.731165
O20	O	-0.186244	0.806600	0.718430
O21	O	0.052687	0.806586	0.500198
O22	O	0.186230	0.548363	0.867403
O23	O	-0.052693	0.548367	0.854668
O24	O	0.186238	0.548353	0.636436
O25	O	-0.052688	0.677485	0.854667
O26	O	0.186239	0.677476	0.738285
O27	O	0.186243	0.677472	0.636435
O28	O	0.052670	0.677484	0.860282
O29	O	-0.186236	0.908446	0.616579
O30	O	0.186231	0.446507	0.738287
O31	O	0.186226	0.446512	0.867404
O32	O	0.052662	0.446514	0.860284
O33	O	-0.052667	0.908439	0.494582
O34	O	-0.052672	0.908444	0.623699
O35	O	0.117935	0.601466	0.721725
O36	O	0.039304	0.601471	0.793543
O37	O	-0.039315	0.753489	0.713342
O38	O	0.039315	0.753485	0.641523
C39	C	-0.000009	0.474289	0.677435
C40	C	-0.000012	0.405329	0.677436
C41	C	-0.041057	0.372933	0.714922
C42	C	-0.041052	0.308133	0.714925
C43	C	-0.000005	0.275734	0.677436
C44	C	0.041045	0.308132	0.639949
C45	C	0.041044	0.372926	0.639951
C46	C	0.041052	0.046823	0.639940
C47	C	0.041048	-0.017974	0.639939
C48	C	-0.041044	-0.017970	0.714914
C49	C	-0.041045	0.046824	0.714917
C50	C	0.000008	0.079213	0.677433
C51	C	0.000003	0.149475	0.677431
C52	C	-0.000004	0.205477	0.677433
C53	C	-0.210187	0.677480	0.666230
C54	C	-0.281522	0.677481	0.662428
C55	C	-0.315037	0.677485	0.716751
C56	C	-0.382060	0.677478	0.713181
C57	C	-0.415569	0.677474	0.655283
C58	C	-0.382048	0.677467	0.600957
C59	C	-0.315023	0.677468	0.604532
C60	C	-0.617937	0.677466	0.641687
C61	C	-0.684968	0.677469	0.638115
C62	C	-0.684974	0.677478	0.750340
C63	C	-0.617951	0.677483	0.753906
C64	C	-0.584433	0.677472	0.699583
C65	C	-0.484079	0.677470	0.651631
C66	C	-0.515922	0.677470	0.703239
C67	C	0.210182	0.677474	0.688636
C68	C	0.281517	0.677472	0.692438
C69	C	0.000005	0.677468	0.474248
C70	C	0.000008	0.677465	0.405288
C71	C	0.000004	0.880665	0.677431
C72	C	0.000006	0.949625	0.677431
C73	C	0.041043	0.598114	0.414753
C74	C	0.041044	0.598116	0.349956
C75	C	0.000004	0.677471	0.275694
C76	C	-0.041033	0.756828	0.266231
C77	C	-0.041029	0.756825	0.331028
C78	C	-0.041051	0.756843	0.004912
C79	C	-0.041054	0.756841	-0.059887
C80	C	0.041022	0.598135	0.023840
C81	C	0.041027	0.598131	0.088637
C82	C	-0.000007	0.677488	0.079168
C83	C	-0.000006	0.677485	0.149429
C84	C	-0.000002	0.677475	0.205434
C85	C	-0.000010	0.677485	0.880619
C86	C	-0.000013	0.677488	0.949578
C87	C	-0.000017	0.474297	0.880620
C88	C	-0.000022	0.405340	0.949580
C89	C	0.210175	0.474286	0.688638
C90	C	0.281508	0.405324	0.692441
C91	C	0.210168	0.474294	0.891823
C92	C	0.281497	0.405336	0.964586
C93	C	-0.210173	0.880659	0.463043
C94	C	-0.281503	0.949617	0.390281
C95	C	0.000012	0.880656	0.474246
C96	C	0.000017	0.949613	0.405286
C97	C	-0.210181	0.880668	0.666228
C98	C	-0.281513	0.949629	0.662426
C99	C	-0.041073	0.372956	0.940101
C100	C	-0.041093	0.308172	1.004889
C101	C	-0.000058	0.275770	1.079156
C102	C	0.040994	0.308160	1.088634
C103	C	0.041010	0.372947	1.023847
C104	C	0.356054	0.372940	0.736091
C105	C	0.423085	0.308153	0.739661
C106	C	0.415568	0.275746	0.699586
C107	C	0.341013	0.308137	0.655931
C108	C	0.273984	0.372927	0.652356
C109	C	0.273951	0.372955	1.036251
C110	C	0.340966	0.308170	1.104624
C111	C	0.415528	0.275764	1.101331
C112	C	0.423073	0.308151	1.029658
C113	C	0.356058	0.372939	0.961286
C114	C	-0.273956	0.982006	0.318616
C115	C	-0.340971	1.046811	0.250242
C116	C	-0.415533	1.079221	0.253535
C117	C	-0.423079	1.046829	0.325208
C118	C	-0.356064	0.982030	0.393580
C119	C	0.041060	0.982004	0.414765
C120	C	0.041062	1.046806	0.349976
C121	C	0.000024	1.079211	0.275709
C122	C	-0.041024	1.046817	0.266231
C123	C	-0.041030	0.982021	0.331019
C124	C	-0.273970	0.982015	0.702510
C125	C	-0.340988	1.046803	0.698952
C126	C	-0.415548	1.079208	0.655305
C127	C	-0.423089	1.046815	0.615219
C128	C	-0.356072	0.982024	0.618782
H129	H	0.074465	0.399304	0.609423
H130	H	0.074483	0.073183	0.609422
H131	H	0.334904	0.281741	0.623303
H132	H	0.074483	0.955625	0.475232
H133	H	0.074470	0.281743	0.609429
H134	H	0.483784	0.281789	0.775212
H135	H	0.470089	0.223009	1.157010
H136	H	-0.074469	-0.044351	0.745439
H137	H	-0.074486	0.399312	0.745446
H138	H	-0.590654	0.677460	0.597454
H139	H	0.470154	0.222990	0.702503
H140	H	-0.483805	1.073209	0.579682
H141	H	-0.074522	0.281808	0.997156
H142	H	0.074466	0.533494	0.475218
H143	H	0.074475	-0.044352	0.609410
H144	H	0.074442	0.399306	1.031576
H145	H	0.362191	0.399319	0.768726
H146	H	-0.362218	0.955660	0.451931
H147	H	-0.074473	0.281757	0.745450
H148	H	-0.409332	0.677458	0.553818
H149	H	-0.074498	0.399338	0.879634
H150	H	-0.287761	0.677494	0.763894
H151	H	-0.470095	1.131984	0.197857
H152	H	0.213287	0.399286	0.616814
H153	H	0.483790	0.281756	1.026989
H154	H	-0.074472	0.073204	0.745440
H155	H	-0.074444	0.821440	0.205761
H156	H	-0.362225	0.955663	0.586137
H157	H	-0.074451	0.955650	0.323290
H158	H	-0.213266	0.955641	0.738052
H159	H	-0.409347	0.677480	0.757415
H160	H	-0.590669	0.677487	0.801051
H161	H	0.213245	0.399331	1.038947
H162	H	0.362214	0.399295	0.902936
H163	H	-0.712270	0.677485	0.794568
H164	H	0.074492	1.073169	0.357709
H165	H	-0.483795	1.073226	0.327880
H166	H	-0.712249	0.677466	0.590965
H167	H	0.074461	0.533500	0.357669
H168	H	-0.334833	1.073170	0.731594
H169	H	0.334808	0.281807	1.162977
H170	H	-0.287735	0.677463	0.560297
H171	H	-0.488634	0.677469	0.750382
H172	H	-0.074435	0.821441	0.323317
H173	H	-0.511369	0.677468	0.604488
H174	H	0.074443	0.533513	0.149102
H175	H	0.074435	0.533518	0.031544
H176	H	-0.074475	0.821465	-0.120356
H177	H	-0.074477	0.821461	-0.002809
H178	H	-0.213250	0.955622	0.315920
H179	H	-0.334812	1.073174	0.191890
H180	H	0.000036	1.131972	0.222961
H181	H	-0.000076	0.223015	1.131904
H182	H	-0.074436	1.073211	0.205754
H183	H	-0.470112	1.131965	0.652410
H184	H	0.074404	0.281768	1.149111
