data_functionalizedCrystal
_audit_creation_method	'MofGen! by Chris Wilmer'
_symmetry_space_group_name_H-M	'P1'
_symmetry_Int_Tables_number	1
_symmetry_cell_setting	triclinic
loop_
_symmetry_equiv_pos_as_xyz
  x,y,z
_cell_length_a	19.188905
_cell_length_b	23.532407
_cell_length_c	18.266242
_cell_angle_alpha	89.990464
_cell_angle_beta	89.983628
_cell_angle_gamma	82.991616
loop_
_atom_site_label
_atom_site_type_symbol
_atom_site_fract_x
_atom_site_fract_y
_atom_site_fract_z
O1	O	0.925934	0.071033	-0.061009
O2	O	0.722590	0.080619	-0.060985
O3	O	0.830394	-0.007093	-0.060984
O4	O	0.818130	0.158745	-0.061010
O5	O	0.830375	-0.007095	0.060778
O6	O	0.722571	0.080617	0.060777
O7	O	0.925915	0.071031	0.060753
Zn8	Zn	0.824240	0.075824	0.080097
Zn9	Zn	0.824265	0.075826	-0.080329
O10	O	0.818111	0.158743	0.060752
C11	C	0.696570	0.080310	-0.000101
C12	C	0.619067	0.079385	-0.000091
C13	C	0.582687	0.078942	-0.066465
C14	C	0.509867	0.078067	-0.066474
C15	C	0.473430	0.077623	-0.000105
C16	C	0.509819	0.078070	0.066278
C17	C	0.582637	0.078951	0.066285
N18	N	0.364510	0.043830	0.049292
N19	N	0.295336	0.042992	0.049281
C20	C	0.254032	0.074970	-0.000122
N21	N	0.284517	0.107811	-0.049525
N22	N	0.353698	0.108647	-0.049516
C23	C	0.394471	0.076668	-0.000105
C24	C	0.138691	0.073579	-0.066511
C25	C	0.065869	0.072707	-0.066517
C26	C	0.065823	0.072704	0.066237
C27	C	0.138644	0.073582	0.066241
C28	C	0.175074	0.074016	-0.000135
C29	C	0.830072	-0.028311	-0.000101
C30	C	0.829133	-0.091530	-0.000096
C31	C	0.887040	-0.490514	-0.000143
C32	C	0.886168	-0.549916	-0.000148
O33	O	0.939848	-0.586551	-0.000181
N34	N	0.822078	-0.572674	-0.000140
C35	C	0.758857	-0.536026	-0.000134
O36	O	0.704264	-0.560837	-0.000128
C37	C	0.759730	-0.476625	-0.000134
C38	C	0.823824	-0.453871	-0.000134
C39	C	0.951129	-0.467759	-0.000144
C40	C	0.952000	-0.408362	-0.000137
C41	C	0.888784	-0.371718	-0.000129
C42	C	0.824696	-0.394473	-0.000127
C43	C	0.696509	-0.439978	-0.000133
C44	C	0.697388	-0.380574	-0.000133
C45	C	0.761482	-0.357820	-0.000134
C46	C	0.762351	-0.298432	-0.000112
N47	N	0.826440	-0.275674	-0.000120
C48	C	0.889657	-0.312317	-0.000129
C49	C	0.757029	-0.660772	-0.000136
C50	C	0.756155	-0.720172	-0.000131
C51	C	0.883466	-0.734058	-0.000146
C52	C	0.884339	-0.674657	-0.000146
C53	C	0.821118	-0.638014	-0.000144
C54	C	0.891483	-0.187577	-0.000114
C55	C	0.892350	-0.128173	-0.000104
C56	C	0.765039	-0.114292	-0.000092
C57	C	0.764172	-0.173691	-0.000098
C58	C	0.827400	-0.210332	-0.000111
O59	O	0.708699	-0.261762	-0.000082
O60	O	0.944241	-0.287498	-0.000144
C61	C	0.951935	0.071340	-0.000133
C62	C	1.029437	0.072265	-0.000147
C63	C	0.818433	0.179961	-0.000132
C64	C	0.819372	0.243180	-0.000143
N65	N	0.824228	0.075822	0.189584
C66	C	0.866327	0.110278	0.227876
C67	C	0.866339	0.110276	0.304521
C68	C	0.824237	0.075826	0.342871
C69	C	0.782135	0.041363	0.304570
C70	C	0.782131	0.041361	0.227927
N71	N	0.763093	0.074428	0.463232
N72	N	0.763099	0.074433	0.536040
C73	C	0.824250	0.075829	0.573794
N74	N	0.885395	0.077230	0.535989
N75	N	0.885388	0.077228	0.463174
C76	C	0.824238	0.075824	0.425978
C77	C	0.866365	0.110285	0.695193
C78	C	0.866378	0.110280	0.771839
C79	C	0.782168	0.041369	0.771886
C80	C	0.782162	0.041371	0.695242
C81	C	0.824259	0.075832	0.656899
N82	N	0.824277	0.075828	0.810184
H83	H	0.036157	0.072347	0.120276
H84	H	0.480148	0.077710	0.120316
C85	C	0.575277	0.078858	0.197505
C86	C	0.622632	0.079431	0.139249
H87	H	0.599971	0.079150	0.242549
H88	H	0.541318	0.111718	0.194738
H89	H	0.552433	0.045310	0.194740
H90	H	0.645471	0.112981	0.142011
H91	H	0.656602	0.046568	0.142017
H92	H	1.004192	-0.389841	-0.000141
H93	H	0.612344	0.079296	-0.120514
C94	C	1.077052	-0.475503	-0.000146
C95	C	1.020625	-0.508032	-0.000147
H96	H	1.119958	-0.500364	-0.000139
H97	H	1.074750	-0.452044	-0.042607
H98	H	1.074721	-0.452046	0.042316
H99	H	1.022953	-0.531486	-0.042612
H100	H	1.022928	-0.531500	0.042318
C101	C	0.870206	0.186866	0.858018
C102	C	0.912659	0.148153	0.813937
H103	H	0.898780	0.210244	0.884011
H104	H	0.837915	0.210269	0.828128
H105	H	0.845139	0.166337	0.891820
H106	H	0.937722	0.168682	0.780131
H107	H	0.944962	0.124747	0.843830
C108	C	0.949567	0.178390	0.235534
C109	C	0.912610	0.148149	0.185731
H110	H	0.978144	0.201766	0.209512
H111	H	0.917274	0.201795	0.265428
H112	H	0.978358	0.152115	0.265428
H113	H	0.883815	0.174424	0.155841
H114	H	0.944907	0.124742	0.155824
H115	H	0.747847	0.013302	0.196750
C116	C	0.960218	0.113651	0.390685
C117	C	0.912614	0.148155	0.346624
H118	H	0.988787	0.137037	0.416672
H119	H	0.935145	0.093134	0.424485
H120	H	0.989013	0.087386	0.360776
H121	H	0.883816	0.174417	0.376534
H122	H	0.937689	0.168681	0.312820
C123	C	0.517220	0.078147	-0.197695
C124	C	0.469867	0.077578	-0.139438
H125	H	0.492526	0.077842	-0.242739
H126	H	0.540057	0.111693	-0.194942
H127	H	0.551186	0.045285	-0.194920
H128	H	0.435904	0.110443	-0.142210
H129	H	0.447019	0.044029	-0.142193
H130	H	0.944544	-0.109650	-0.000103
C131	C	0.698920	-0.026735	0.702990
C132	C	0.735875	0.003503	0.653146
H133	H	0.670342	-0.050112	0.677000
H134	H	0.731215	-0.050139	0.732874
H135	H	0.670132	-0.000459	0.732890
H136	H	0.764667	-0.022774	0.623249
H137	H	0.703576	0.026909	0.623249
C138	C	0.744703	0.010807	0.422080
C139	C	0.735853	0.003495	0.346720
H140	H	0.716127	-0.012571	0.448099
H141	H	0.792538	0.000144	0.434652
H142	H	0.731432	0.049806	0.434599
H143	H	0.749128	-0.035503	0.334201
H144	H	0.688007	0.014155	0.334143
H145	H	0.900644	0.138345	0.663973
H146	H	0.747889	0.013318	0.803110
C147	C	0.250249	0.074927	0.125194
C148	C	0.178640	0.074060	0.139203
H149	H	0.274938	0.075226	0.170240
H150	H	0.267748	0.041871	0.097931
H151	H	0.256623	0.108278	0.097920
H152	H	0.172265	0.040706	0.166472
H153	H	0.161135	0.107119	0.166477
H154	H	0.936530	-0.656135	-0.000147
H155	H	0.168353	0.073939	-0.120558
C156	C	1.017413	-0.195320	-0.000118
C157	C	0.960984	-0.227847	-0.000122
H158	H	1.060318	-0.220182	-0.000115
H159	H	1.015111	-0.171858	-0.042575
H160	H	1.015085	-0.171867	0.042347
H161	H	0.963309	-0.251298	-0.042590
H162	H	0.963287	-0.251319	0.042340
H163	H	0.934940	-0.763904	-0.000156
H164	H	0.036249	0.072350	-0.120569
H165	H	0.705543	-0.630940	-0.000127
C166	C	0.630404	-0.700464	-0.000117
C167	C	0.685701	-0.745179	-0.000124
H168	H	0.586908	-0.715902	-0.000120
H169	H	0.633387	-0.677595	0.042345
H170	H	0.633408	-0.677577	-0.042578
H171	H	0.682700	-0.768064	0.042340
H172	H	0.682716	-0.768058	-0.042589
C173	C	0.587747	-0.446399	-0.062734
C174	C	0.626054	-0.464978	-0.000140
H175	H	0.544250	-0.461834	-0.062741
H176	H	0.579233	-0.405782	-0.062724
H177	H	0.613776	-0.458989	-0.105190
H178	H	0.600027	-0.452384	0.042316
H179	H	0.634566	-0.505603	-0.000143
C180	C	0.624515	-0.305710	-0.062721
C181	C	0.627891	-0.340297	-0.000130
H182	H	0.581609	-0.280848	-0.062718
H183	H	0.662801	-0.283655	-0.062715
H184	H	0.626832	-0.329171	-0.105179
H185	H	0.625579	-0.316835	0.042328
H186	H	0.589594	-0.362353	-0.000130
H187	H	0.711982	-0.192218	-0.000077
C188	C	0.709862	-0.017065	-0.000089
C189	C	0.695553	-0.074006	-0.000088
H190	H	0.666963	0.007806	-0.000095
H191	H	0.736144	-0.010194	0.042370
H192	H	0.736173	-0.010188	-0.042552
H193	H	0.669246	-0.080884	0.042379
H194	H	0.669260	-0.080879	-0.042551
