data_functionalizedCrystal
_audit_creation_method	'MofGen! by Chris Wilmer'
_symmetry_space_group_name_H-M	'P1'
_symmetry_Int_Tables_number	1
_symmetry_cell_setting	triclinic
loop_
_symmetry_equiv_pos_as_xyz
  x,y,z
_cell_length_a	11.169417
_cell_length_b	12.759400
_cell_length_c	11.169409
_cell_angle_alpha	90.033109
_cell_angle_beta	90.019824
_cell_angle_gamma	90.015523
loop_
_atom_site_label
_atom_site_type_symbol
_atom_site_fract_x
_atom_site_fract_y
_atom_site_fract_z
Zn1	Zn	1.834926	-0.418157	0.678536
Zn2	Zn	1.834801	-0.593882	0.477851
Zn3	Zn	1.634212	-0.418221	0.477871
Zn4	Zn	1.634205	-0.593797	0.678495
O5	O	1.734536	-0.506014	0.578188
O6	O	2.002859	-0.441476	0.651924
O7	O	1.808143	-0.570643	0.309903
O8	O	1.660893	-0.271191	0.504515
O9	O	2.002767	-0.570581	0.504481
O10	O	1.808357	-0.271144	0.651943
O11	O	1.660771	-0.441585	0.309918
O12	O	1.466262	-0.441502	0.504475
O13	O	1.660880	-0.570435	0.846451
O14	O	1.466256	-0.570497	0.651873
O15	O	1.808350	-0.441393	0.846481
O16	O	1.808135	-0.740892	0.504441
O17	O	1.660758	-0.740829	0.651854
C18	C	1.422711	-0.505998	0.578173
C19	C	1.289311	-0.506017	0.578195
C20	C	1.734465	-0.778981	0.578167
C21	C	1.734544	-0.895758	0.578198
C22	C	1.811295	-0.950506	0.655029
C23	C	1.811363	-1.060230	0.655062
C24	C	1.657925	-1.060449	0.501422
C25	C	1.657852	-0.950727	0.501396
C26	C	1.854272	-1.210051	0.796677
C27	C	1.931042	-1.264802	0.873497
C28	C	2.048117	-1.229092	0.892015
C29	C	2.088445	-1.138632	0.833695
C30	C	2.011682	-1.083886	0.756865
C31	C	1.894591	-1.119595	0.738370
C32	C	1.614955	-0.800904	0.359779
C33	C	1.538197	-0.746156	0.282943
C34	C	1.421120	-0.781864	0.264413
C35	C	1.380796	-0.872328	0.322712
C36	C	1.457554	-0.927076	0.399549
C37	C	1.574630	-0.891360	0.418080
C38	C	2.047578	-0.506031	0.578204
C39	C	2.180978	-0.506038	0.578211
C40	C	1.734628	-0.505897	0.891231
C41	C	1.734667	-0.505848	1.024631
C42	C	1.734640	-0.231981	0.578236
C43	C	1.734684	-0.115204	0.578256
C44	C	1.734513	-0.506054	0.266363
C45	C	1.734707	-0.505808	0.132964
H46	H	2.044518	-1.010237	0.709379
H47	H	1.898195	-1.338455	0.920982
O48	O	1.583381	-1.113964	0.426978
C49	C	1.505852	-1.177427	0.495255
H50	H	1.548144	-1.193771	0.586249
H51	H	1.416874	-1.135202	0.508354
C52	C	1.432287	-1.261639	0.317462
C53	C	1.484235	-1.281720	0.429220
H54	H	1.418947	-1.325970	0.276728
H55	H	1.484516	-1.218881	0.271462
H56	H	1.358144	-1.226449	0.328394
H57	H	1.558383	-1.316898	0.418286
H58	H	1.432018	-1.324487	0.475217
H59	H	1.424712	-1.000736	0.447019
H60	H	1.873741	-0.905753	0.717568
H61	H	1.285464	-0.901405	0.307622
H62	H	2.183785	-1.109570	0.848767
O63	O	1.346696	-0.728534	0.189770
C64	C	1.407398	-0.641052	0.142246
H65	H	1.484320	-0.618491	0.204229
H66	H	1.444350	-0.661519	0.050020
C67	C	1.225405	-0.576033	0.055059
C68	C	1.319876	-0.548317	0.131192
H69	H	1.171418	-0.518830	0.048234
H70	H	1.184509	-0.634973	0.087072
H71	H	1.256213	-0.593089	-0.021788
H72	H	1.289069	-0.531274	0.208041
H73	H	1.360765	-0.489371	0.099191
O74	O	2.122519	-1.282371	0.966720
C75	C	2.061834	-1.369883	1.014193
H76	H	1.961154	-1.355673	1.010161
H77	H	2.085081	-1.442587	0.959577
C78	C	2.223799	-1.403915	1.150228
C79	C	2.100142	-1.386458	1.145284
H80	H	2.247432	-1.414143	1.231089
H81	H	2.264686	-1.344959	1.118242
H82	H	2.243156	-1.464500	1.104708
H83	H	2.080789	-1.325867	1.190791
H84	H	2.059252	-1.445404	1.177281
O85	O	1.740516	-1.244765	0.778915
C86	C	1.678899	-1.246217	0.889052
H87	H	1.746182	-1.251261	0.965599
H88	H	1.623847	-1.171450	0.898560
C89	C	1.512432	-1.335790	0.799095
C90	C	1.595069	-1.341995	0.893111
H91	H	1.460717	-1.394867	0.801598
H92	H	1.553942	-1.334809	0.724892
H93	H	1.466567	-1.273480	0.807029
H94	H	1.640942	-1.404296	0.885167
H95	H	1.553565	-1.342988	0.967313
O96	O	1.728671	-0.766100	0.377603
C97	C	1.747797	-0.674509	0.309680
H98	H	1.681887	-0.672358	0.231770
H99	H	1.733738	-0.602704	0.368809
C100	C	1.957668	-0.677005	0.356543
C101	C	1.876722	-0.674368	0.260847
H102	H	2.037196	-0.676914	0.326425
H103	H	1.944782	-0.738709	0.402308
H104	H	1.945937	-0.617166	0.405809
H105	H	1.888444	-0.734212	0.211592
H106	H	1.889613	-0.612674	0.215072
H107	H	1.571042	-0.672499	0.235467
