data_functionalizedCrystal
_audit_creation_method	'MofGen! by Chris Wilmer'
_symmetry_space_group_name_H-M	'P1'
_symmetry_Int_Tables_number	1
_symmetry_cell_setting	triclinic
loop_
_symmetry_equiv_pos_as_xyz
  x,y,z
_cell_length_a	11.792241
_cell_length_b	11.792241
_cell_length_c	10.868271
_cell_angle_alpha	89.999850
_cell_angle_beta	90.000107
_cell_angle_gamma	95.806585
loop_
_atom_site_label
_atom_site_type_symbol
_atom_site_fract_x
_atom_site_fract_y
_atom_site_fract_z
O1	O	-1.506908	0.155568	-0.102188
O2	O	-1.176567	0.171601	-0.102215
O3	O	-1.349754	-0.001586	-0.102208
O4	O	-1.333721	0.328755	-0.102195
O5	O	-1.349740	-0.001592	0.102436
O6	O	-1.176553	0.171595	0.102429
O7	O	-1.506894	0.155562	0.102457
Zn8	Zn	-1.341721	0.163577	0.134935
Zn9	Zn	-1.341740	0.163586	-0.134693
O10	O	-1.333707	0.328749	0.102450
C11	C	-1.348740	-0.043880	0.000109
C12	C	-1.345726	-0.169894	0.000096
C13	C	-1.134269	0.170591	0.000103
C14	C	-1.008255	0.167576	0.000092
C15	C	-1.549192	0.156572	0.000135
C16	C	-1.675206	0.159587	0.000138
N17	N	-1.341717	0.163570	0.318949
C18	C	-0.777543	0.162034	0.000127
C19	C	-0.905928	0.165113	0.000108
C20	C	-1.334721	0.371043	0.000129
C21	C	-1.337736	0.497057	0.000135
C22	C	-1.343279	0.727769	0.000104
C23	C	-1.340199	0.599384	0.000121
N24	N	-1.341754	0.163584	-0.318708
C25	C	-1.341734	0.163584	0.569955
C26	C	-1.341721	0.163580	0.430277
