data_functionalizedCrystal
_audit_creation_method	'MofGen! by Chris Wilmer'
_symmetry_space_group_name_H-M	'P1'
_symmetry_Int_Tables_number	1
_symmetry_cell_setting	triclinic
loop_
_symmetry_equiv_pos_as_xyz
  x,y,z
_cell_length_a	19.077105
_cell_length_b	16.120444
_cell_length_c	19.076919
_cell_angle_alpha	95.047308
_cell_angle_beta	90.076224
_cell_angle_gamma	90.739589
loop_
_atom_site_label
_atom_site_type_symbol
_atom_site_fract_x
_atom_site_fract_y
_atom_site_fract_z
Zn1	Zn	1.040330	-0.403263	-0.456946
Zn2	Zn	1.039008	-0.537289	-0.344933
Zn3	Zn	0.928045	-0.392097	-0.334282
Zn4	Zn	0.916852	-0.536786	-0.457665
O5	O	0.981059	-0.467359	-0.398456
O6	O	1.138270	-0.425926	-0.446244
O7	O	1.028419	-0.513566	-0.245006
O8	O	0.948178	-0.276935	-0.345795
O9	O	1.137298	-0.524394	-0.363948
O10	O	1.030673	-0.285139	-0.435916
O11	O	0.946895	-0.406894	-0.237181
O12	O	0.828446	-0.406406	-0.346492
O13	O	0.929101	-0.523537	-0.556084
O14	O	0.820222	-0.512709	-0.437141
O15	O	1.019820	-0.425438	-0.555556
O16	O	1.017566	-0.653865	-0.364645
O17	O	0.927819	-0.653496	-0.447469
C18	C	0.798894	-0.458292	-0.390739
C19	C	0.720961	-0.454434	-0.387455
C20	C	0.680085	-0.508045	-0.433041
C21	C	0.606859	-0.504409	-0.429958
C22	C	0.574512	-0.447166	-0.381286
C23	C	0.615394	-0.393550	-0.335698
C24	C	0.688618	-0.397182	-0.338785
C25	C	0.355972	-0.430356	-0.367004
C26	C	0.282743	-0.426729	-0.363920
C27	C	0.274213	-0.537589	-0.458181
C28	C	0.347439	-0.541219	-0.461261
C29	C	0.388315	-0.487600	-0.415675
N30	N	0.499664	-0.443450	-0.378132
N31	N	0.463162	-0.491312	-0.418833
C32	C	0.971353	-0.683927	-0.407307
C33	C	0.967263	-0.776580	-0.411119
C34	C	1.002437	-0.987660	-0.378838
C35	C	0.959810	-0.946213	-0.418087
C36	C	0.963958	-0.851820	-0.414209
C37	C	0.998290	-1.082061	-0.382716
C38	C	1.163935	-0.476461	-0.406204
C39	C	1.241866	-0.480340	-0.409506
C40	C	0.973359	-0.475677	-0.582077
C41	C	0.970078	-0.479222	-0.660326
C42	C	0.990822	-0.249947	-0.389588
C43	C	0.994982	-0.157299	-0.385808
C44	C	1.015767	-0.429815	-0.696813
C45	C	1.012676	-0.433142	-0.770336
C46	C	0.963899	-0.485881	-0.807369
C47	C	0.918205	-0.535290	-0.770876
C48	C	0.921294	-0.531958	-0.697355
C49	C	0.949594	-0.501319	-1.027283
C50	C	0.946510	-0.504649	-1.100809
C51	C	1.040980	-0.402499	-1.100263
C52	C	1.044067	-0.399176	-1.026741
C53	C	0.998371	-0.448581	-0.990255
N54	N	0.960739	-0.489285	-0.882521
N55	N	1.001528	-0.445172	-0.915104
C56	C	0.988772	-0.459015	-0.215549
C57	C	0.992199	-0.455242	-0.137297
H58	H	0.706417	-0.554661	-0.472673
H59	H	1.055489	-0.386871	-0.666666
H60	H	0.573580	-0.548066	-0.467078
N61	N	1.061941	-0.379836	-0.809690
H62	H	1.093308	-0.345919	-0.775073
H63	H	1.091585	-0.416749	-0.842963
N64	N	0.900319	-0.554618	-0.987938
H65	H	0.909672	-0.544507	-0.935743
H66	H	0.850287	-0.539738	-0.998138
N67	N	0.865591	-0.592178	-0.810807
H68	H	0.816617	-0.576153	-0.795354
H69	H	0.870622	-0.586778	-0.862910
N70	N	0.907336	-0.993116	-0.466446
H71	H	0.858359	-0.975091	-0.452737
H72	H	0.916779	-0.980788	-0.516591
N73	N	1.054903	-0.940767	-0.330471
H74	H	1.050463	-0.879006	-0.334524
H75	H	1.045482	-0.953149	-0.280336
H76	H	1.083789	-0.356232	-0.996594
N77	N	1.090263	-0.349213	-1.139616
H78	H	1.080907	-0.359323	-1.191811
H79	H	1.082562	-0.288557	-1.123873
N80	N	0.580503	-0.331824	-0.283191
H81	H	0.550645	-0.293040	-0.308987
H82	H	0.550016	-0.362733	-0.250643
H83	H	0.906788	-0.547597	-1.130960
N84	N	0.872009	-0.585238	-0.657996
H85	H	0.840640	-0.619154	-0.692612
H86	H	0.900092	-0.623852	-0.630272
H87	H	0.373771	-0.587834	-0.500893
H88	H	0.240925	-0.581241	-0.495295
H89	H	0.389245	-0.386701	-0.329881
N90	N	0.247851	-0.364988	-0.311419
H91	H	0.284856	-0.331570	-0.283010
H92	H	0.217993	-0.326266	-0.337276
H93	H	0.721899	-0.353522	-0.301668
