data_functionalizedCrystal
_audit_creation_method	'MofGen! by Chris Wilmer'
_symmetry_space_group_name_H-M	'P1'
_symmetry_Int_Tables_number	1
_symmetry_cell_setting	triclinic
loop_
_symmetry_equiv_pos_as_xyz
  x,y,z
_cell_length_a	6.817900
_cell_length_b	9.109307
_cell_length_c	11.102193
_cell_angle_alpha	97.484421
_cell_angle_beta	108.604059
_cell_angle_gamma	111.764999
loop_
_atom_site_label
_atom_site_type_symbol
_atom_site_fract_x
_atom_site_fract_y
_atom_site_fract_z
V1	V	-4.144577	-0.225370	-0.420841
O2	O	-4.068960	0.010818	-0.387534
O3	O	-4.153848	-0.446859	-0.442291
O4	O	-4.120844	-0.221909	-0.593285
O5	O	-4.102193	-0.215690	-0.235495
V6	V	-4.617536	-0.197118	-0.395717
O7	O	-4.429009	-0.287342	-0.475953
O8	O	-4.783302	-0.135147	-0.340605
O9	O	-4.385059	0.024371	-0.374267
O10	O	-4.810550	-0.433306	-0.429023
O11	O	-4.777317	-0.206799	-0.581062
O12	O	-4.418063	-0.200580	-0.223273
C13	C	-4.012080	-0.500853	-0.441929
C14	C	-4.101111	-0.681923	-0.460617
C15	C	-3.969978	-0.213904	-0.634535
C16	C	-4.032239	-0.212540	-0.775669
C17	C	-4.196334	-0.510872	-0.844538
C18	C	-4.307622	-0.659390	-0.945275
C19	C	-4.366118	-0.658099	-1.077880
C20	C	-4.313326	-0.508274	-1.109748
C21	C	-4.202038	-0.359755	-1.009012
C22	C	-4.143543	-0.361062	-0.876407
C23	C	-4.037959	-0.061427	-0.940144
C24	C	-3.979446	-0.062714	-0.807537
C25	C	-3.985167	0.088398	-0.972012
C26	C	-3.873862	0.236921	-0.871274
C27	C	-3.815363	0.235623	-0.738662
C28	C	-3.868158	0.085804	-0.706801
C29	C	-4.190171	0.078356	-0.374626
C30	C	-4.080380	0.259425	-0.355947
C31	C	-4.232271	-0.208589	-0.182016
C32	C	-4.149247	-0.209946	-0.040880
H33	H	-4.350604	-0.781376	-0.919313
O34	O	-3.977838	-0.634997	-0.232034
C35	C	-3.792877	-0.352199	-0.099775
C36	C	-3.908913	-0.471593	-0.240178
H37	H	-3.737162	-0.220064	-0.106313
H38	H	-3.635581	-0.367572	-0.038945
H39	H	-3.920149	-0.380596	-0.050122
H40	H	-3.781819	-0.443271	-0.289945
H41	H	-4.066246	-0.456197	-0.300911
H42	H	-4.186956	-0.770247	-0.564560
O43	O	-4.370238	-0.507309	-1.238624
C44	C	-4.544375	-0.669150	-1.466711
C45	C	-4.480005	-0.670481	-1.320814
H46	H	-4.633178	-0.801061	-1.533205
H47	H	-4.381759	-0.596537	-1.481902
H48	H	-4.665993	-0.608850	-1.493041
H49	H	-4.358448	-0.730808	-1.294386
H50	H	-4.642723	-0.743042	-1.305700
O51	O	-3.822525	0.382586	-0.902006
C52	C	-3.653498	0.678366	-0.819712
C53	C	-3.711545	0.513514	-0.784720
H54	H	-3.563718	0.784266	-0.724906
H55	H	-3.818948	0.680279	-0.885653
H56	H	-3.534705	0.692592	-0.874492
H57	H	-3.830272	0.499180	-0.729892
H58	H	-3.545998	0.511675	-0.718839
H59	H	-4.456741	-0.779036	-1.159902
H60	H	-4.148679	-0.511937	-0.736567
H61	H	-4.032820	0.089439	-1.079989
H62	H	-3.724756	0.356565	-0.656647
H63	H	-3.820521	0.084734	-0.598831
