data_functionalizedCrystal
_audit_creation_method	'MofGen! by Chris Wilmer'
_symmetry_space_group_name_H-M	'P1'
_symmetry_Int_Tables_number	1
_symmetry_cell_setting	triclinic
loop_
_symmetry_equiv_pos_as_xyz
  x,y,z
_cell_length_a	14.519731
_cell_length_b	15.995362
_cell_length_c	12.996460
_cell_angle_alpha	90.000758
_cell_angle_beta	89.994327
_cell_angle_gamma	96.406883
loop_
_atom_site_label
_atom_site_type_symbol
_atom_site_fract_x
_atom_site_fract_y
_atom_site_fract_z
O1	O	1.223662	-0.109844	-0.085556
O2	O	1.723662	0.390156	0.414444
O3	O	0.955165	-0.122751	-0.085556
O4	O	1.455165	0.377249	0.414444
O5	O	1.096748	0.005578	-0.085564
O6	O	1.596748	0.505578	0.414436
O7	O	1.082080	-0.238173	-0.085549
O8	O	1.582080	0.261827	0.414451
O9	O	1.096733	0.005585	0.085570
O10	O	1.596733	0.505585	0.585570
O11	O	0.955151	-0.122744	0.085577
O12	O	1.455151	0.377256	0.585577
O13	O	1.223648	-0.109837	0.085577
O14	O	1.723648	0.390163	0.585577
Cu15	Cu	1.089398	-0.116290	0.101203
Cu16	Cu	1.589398	0.383710	0.601203
Cu17	Cu	1.089415	-0.116298	-0.101182
Cu18	Cu	1.589415	0.383702	0.398818
O19	O	1.082066	-0.238166	0.085585
O20	O	1.582066	0.261834	0.585585
C21	C	0.920800	-0.122143	0.000010
C22	C	1.420800	0.377857	0.500010
C23	C	0.818423	-0.120331	0.000010
C24	C	1.318423	0.379669	0.500010
C25	C	0.735281	-0.118858	0.000005
C26	C	1.235281	0.381142	0.500005
C27	C	0.630976	-0.117018	0.000005
C28	C	1.130976	0.382982	0.500005
C29	C	0.547839	-0.115558	0.000005
C30	C	1.047839	0.384442	0.500005
C31	C	0.443527	-0.113718	0.000002
C32	C	0.943527	0.386282	0.500002
C33	C	1.096132	0.036777	-0.000001
C34	C	1.596132	0.536777	0.499999
C35	C	1.094308	0.129729	-0.000013
C36	C	1.594308	0.629729	0.499987
C37	C	1.258013	-0.110446	0.000009
C38	C	1.758013	0.389554	0.500009
C39	C	1.360391	-0.112258	0.000002
C40	C	1.860391	0.387742	0.500002
N41	N	1.089392	-0.116284	0.243550
N42	N	1.589392	0.383716	0.743550
C43	C	1.087758	0.467485	-0.000032
C44	C	1.587758	0.967485	0.499968
C45	C	0.986924	0.420209	-0.000413
C46	C	1.486924	0.920209	0.499587
C47	C	0.988748	0.323517	-0.000021
C48	C	1.488748	0.823517	0.499979
C49	C	1.091007	0.299921	-0.000023
C50	C	1.591007	0.799921	0.499977
C51	C	1.140733	0.340924	0.097698
C52	C	1.640733	0.840924	0.597698
C53	C	1.138195	0.437563	0.097773
C54	C	1.638195	0.937563	0.597773
C55	C	1.140295	0.437910	-0.096838
C56	C	1.640295	0.937910	0.403162
C57	C	1.140276	0.340965	-0.098123
C58	C	1.640276	0.840965	0.401877
C59	C	1.092848	0.205221	-0.000015
C60	C	1.592848	0.705221	0.499985
C61	C	1.085919	0.562185	-0.000034
C62	C	1.585919	1.062185	0.499966
C63	C	1.082669	0.730633	0.000003
C64	C	1.582669	1.230633	0.500003
C65	C	1.084457	0.637676	-0.000043
C66	C	1.584457	1.137676	0.499957
N67	N	1.089428	-0.116298	-0.243529
N68	N	1.589428	0.383702	0.256471
C69	C	1.089414	-0.116299	0.663365
C70	C	1.589414	0.383701	1.163365
C71	C	1.089405	-0.116298	0.546560
C72	C	1.589405	0.383702	1.046560
C73	C	1.089404	-0.116292	0.453461
C74	C	1.589404	0.383708	0.953461
C75	C	1.089394	-0.116289	0.336649
C76	C	1.589394	0.383711	0.836649
H77	H	0.949659	0.295153	-0.070072
H78	H	1.449659	0.795153	0.429928
F79	F	1.097203	0.464811	-0.193654
F80	F	1.597203	0.964811	0.306346
F81	F	1.234956	0.479565	0.103573
F82	F	1.734956	0.979565	0.603573
H83	H	1.215859	0.326681	0.101330
H84	H	1.715859	0.826681	0.601330
H85	H	1.214848	0.325486	-0.104025
H86	H	1.714848	0.825486	0.395975
H87	H	0.946625	0.438801	-0.070494
H88	H	1.446625	0.938801	0.429506
F89	F	0.937294	0.287176	0.091699
F90	F	1.437294	0.787176	0.591699
F91	F	1.090777	0.461565	0.193254
F92	F	1.590777	0.961565	0.693254
H93	H	1.106184	0.312600	0.170425
H94	H	1.606184	0.812600	0.670425
H95	H	1.103919	0.313771	-0.170415
H96	H	1.603919	0.813771	0.329585
F97	F	0.934333	0.446187	0.090424
F98	F	1.434333	0.946187	0.590424
H99	H	1.214640	0.469554	-0.097500
H100	H	1.714640	0.969554	0.402500
