data_functionalizedCrystal
_audit_creation_method	'MofGen! by Chris Wilmer'
_symmetry_space_group_name_H-M	'P1'
_symmetry_Int_Tables_number	1
_symmetry_cell_setting	triclinic
loop_
_symmetry_equiv_pos_as_xyz
  x,y,z
_cell_length_a	13.330367
_cell_length_b	8.559649
_cell_length_c	8.634740
_cell_angle_alpha	94.825514
_cell_angle_beta	90.000805
_cell_angle_gamma	90.004414
loop_
_atom_site_label
_atom_site_type_symbol
_atom_site_fract_x
_atom_site_fract_y
_atom_site_fract_z
O1	O	-0.083408	-2.112219	-0.051383
O2	O	-0.083412	-1.659056	0.026828
O3	O	-0.083407	-1.864187	-0.234213
O4	O	-0.083412	-1.907089	0.209658
O5	O	0.083440	-1.864163	-0.234204
O6	O	0.083435	-1.659033	0.026837
O7	O	0.083440	-2.112196	-0.051373
Cu8	Cu	0.098672	-1.885612	-0.012267
Cu9	Cu	-0.098644	-1.885640	-0.012279
O10	O	0.083435	-1.907065	0.209668
C11	C	0.000011	-1.600427	0.032760
C12	C	0.000010	-1.425763	0.050402
N13	N	0.237453	-1.885603	-0.012261
N14	N	-0.237426	-1.885659	-0.012298
C15	C	0.289977	-1.794752	0.103298
C16	C	0.289958	-1.976463	-0.127827
C17	C	0.394976	-1.976478	-0.127835
C18	C	0.447500	-1.885627	-0.012276
C19	C	0.395005	-1.794761	0.103291
C20	C	0.447479	-2.067331	-0.243409
C21	C	0.552504	-2.067348	-0.243423
C22	C	0.605029	-1.976504	-0.127856
C23	C	0.552528	-1.885636	-0.012283
C24	C	0.605051	-1.794784	0.103276
C25	C	0.552552	-1.703923	0.218857
C26	C	0.447530	-1.703917	0.218858
C27	C	0.710051	-1.976510	-0.127857
C28	C	0.710079	-1.794793	0.103269
C29	C	0.000014	-1.854456	-0.290508
C30	C	0.000010	-1.825478	-0.458259
C31	C	0.000014	-2.170825	-0.057305
C32	C	0.000009	-2.345489	-0.074948
C33	C	0.000011	-1.916796	0.265962
C34	C	0.000009	-1.945774	0.433714
H35	H	0.752838	-1.720817	0.197377
H36	H	0.595243	-2.141333	-0.337533
H37	H	0.404779	-1.629940	0.312959
H38	H	0.595328	-1.629944	0.312941
F39	F	0.234106	-1.698062	0.226307
F40	F	0.000006	-1.430310	-0.232866
H41	H	0.000003	-1.360858	0.171225
H42	H	0.247190	-2.050423	-0.221919
F43	F	0.391581	-2.164006	-0.366398
H44	H	0.752791	-2.050480	-0.221967
F45	F	0.000006	-2.109372	-0.519435
H46	H	0.000002	-1.700309	-0.494113
