data_functionalizedCrystal
_audit_creation_method	'MofGen! by Chris Wilmer'
_symmetry_space_group_name_H-M	'P1'
_symmetry_Int_Tables_number	1
_symmetry_cell_setting	triclinic
loop_
_symmetry_equiv_pos_as_xyz
  x,y,z
_cell_length_a	14.519731
_cell_length_b	14.519709
_cell_length_c	9.730223
_cell_angle_alpha	89.994652
_cell_angle_beta	89.996618
_cell_angle_gamma	83.684499
loop_
_atom_site_label
_atom_site_type_symbol
_atom_site_fract_x
_atom_site_fract_y
_atom_site_fract_z
O1	O	1.223854	0.120984	-0.114296
O2	O	0.955380	0.135201	-0.114298
O3	O	1.096735	-0.006145	-0.114285
O4	O	1.082498	0.262330	-0.114310
O5	O	1.096726	-0.006149	0.114295
O6	O	0.955370	0.135197	0.114282
O7	O	1.223845	0.120981	0.114284
Zn8	Zn	1.089606	0.128088	0.150575
Zn9	Zn	1.089618	0.128093	-0.150589
O10	O	1.082489	0.262327	0.114270
C11	C	0.921016	0.134532	-0.000009
C12	C	0.818635	0.132536	-0.000009
C13	C	0.735491	0.130915	-0.000015
C14	C	0.631182	0.128888	-0.000015
C15	C	0.548043	0.127280	-0.000015
C16	C	0.443728	0.125253	-0.000017
C17	C	1.096067	-0.040507	0.000006
C18	C	1.094079	-0.142889	0.000006
C19	C	1.086759	-0.517785	-0.000029
C20	C	1.088792	-0.413477	-0.000019
C21	C	1.090419	-0.330340	-0.000010
C22	C	1.092452	-0.226025	-0.000002
C23	C	1.258209	0.121649	-0.000009
C24	C	1.360589	0.123645	-0.000017
C25	C	1.083157	0.296688	-0.000023
C26	C	1.085146	0.399070	-0.000033
N27	N	1.089605	0.128084	0.356111
N28	N	1.089627	0.128090	-0.356125
C29	C	1.152218	0.065522	0.428043
C30	C	1.152227	0.065523	0.571926
C31	C	1.027007	0.190654	0.571932
C32	C	1.026994	0.190649	0.428052
H33	H	1.203198	0.014577	0.369472
F34	F	1.218867	-0.001065	0.648477
H35	H	0.976032	0.241595	0.630521
F36	F	0.960345	0.257235	0.351491
