data_functionalizedCrystal
_audit_creation_method	'MofGen! by Chris Wilmer'
_symmetry_space_group_name_H-M	'P1'
_symmetry_Int_Tables_number	1
_symmetry_cell_setting	triclinic
loop_
_symmetry_equiv_pos_as_xyz
  x,y,z
_cell_length_a	16.625546
_cell_length_b	21.395362
_cell_length_c	21.395355
_cell_angle_alpha	89.997168
_cell_angle_beta	89.981524
_cell_angle_gamma	90.043196
loop_
_atom_site_label
_atom_site_type_symbol
_atom_site_fract_x
_atom_site_fract_y
_atom_site_fract_z
Zn1	Zn	-0.320649	0.957895	-0.353899
Zn2	Zn	-0.455464	0.957813	-0.249121
Zn3	Zn	-0.320698	0.853110	-0.249175
Zn4	Zn	-0.455492	0.853094	-0.353901
O5	O	-0.388076	0.905478	-0.301524
O6	O	-0.338501	1.045562	-0.339976
O7	O	-0.437596	0.943896	-0.161450
O8	O	-0.207859	0.867051	-0.263088
O9	O	-0.437549	1.045501	-0.262997
O10	O	-0.207823	0.944036	-0.340028
O11	O	-0.338584	0.866971	-0.161490
O12	O	-0.338611	0.765430	-0.263091
O13	O	-0.437596	0.867024	-0.441579
O14	O	-0.437644	0.765419	-0.340032
O15	O	-0.338528	0.944021	-0.441577
O16	O	-0.568300	0.943880	-0.262999
O17	O	-0.568321	0.866944	-0.339980
C18	C	-0.597567	0.905419	-0.301498
C19	C	-0.687188	0.905451	-0.301507
C20	C	-0.388060	0.905530	-0.464947
C21	C	-0.388053	0.905552	-0.534589
C22	C	-0.388016	1.068901	-0.301480
C23	C	-0.387990	1.138543	-0.301461
C24	C	-1.015363	0.905560	-0.301573
C25	C	-0.924055	0.905528	-0.301556
C26	C	-0.851279	0.905505	-0.301540
C27	C	-0.759964	0.905473	-0.301524
C28	C	-0.177767	0.905555	-0.301564
C29	C	-0.088146	0.905587	-0.301581
C30	C	-0.388136	0.742690	-0.301568
C31	C	-0.388182	0.673049	-0.301602
C32	C	-0.336431	1.171288	-0.341543
C33	C	-0.336457	1.236724	-0.341565
C34	C	-0.388034	1.269411	-0.301493
C35	C	-0.439604	1.236657	-0.261408
C36	C	-0.439582	1.171223	-0.261392
C37	C	-0.394438	1.373084	-0.245067
C38	C	-0.394454	1.438517	-0.245082
C39	C	-0.388106	1.471232	-0.301542
C40	C	-0.381724	1.438505	-0.357989
C41	C	-0.381702	1.373071	-0.357973
C42	C	-0.388064	1.340363	-0.301506
C43	C	-0.336571	1.574930	-0.341651
C44	C	-0.336603	1.640366	-0.341673
C45	C	-0.439746	1.640299	-0.261511
C46	C	-0.439718	1.574864	-0.261494
C47	C	-0.388127	1.542183	-0.301563
C48	C	-0.336465	0.945643	-0.567302
C49	C	-0.336431	0.945642	-0.632737
C50	C	-0.387998	0.905557	-0.665457
C51	C	-0.439589	0.865459	-0.632736
C52	C	-0.439616	0.865456	-0.567302
C53	C	-0.460601	0.900589	-0.769124
C54	C	-0.460575	0.900596	-0.834557
C55	C	-0.387913	0.905561	-0.867278
C56	C	-0.315274	0.910532	-0.834557
C57	C	-0.315302	0.910530	-0.769123
C58	C	-0.387973	0.905555	-0.736409
C59	C	-0.336283	0.945653	-0.970944
C60	C	-0.336247	0.945647	-1.036380
C61	C	-0.439412	0.865468	-1.036378
C62	C	-0.439441	0.865470	-0.970942
C63	C	-0.387878	0.905565	-0.938229
C64	C	-0.388034	0.905462	-0.138736
C65	C	-0.387814	0.905562	-0.069095
H66	H	-0.294424	1.144684	-0.374174
H67	H	-0.256106	0.914576	-0.861197
F68	F	-0.494288	0.822801	-1.071196
H69	H	-0.376550	1.465140	-0.403964
F70	F	-0.494467	0.822796	-0.667559
F71	F	-0.281576	1.271581	-0.384227
F72	F	-0.401233	1.473341	-0.185006
F73	F	-0.237997	0.915817	-0.734302
H74	H	-0.294478	0.978291	-0.540671
H75	H	-0.481623	0.832807	-0.540667
F76	F	-0.374916	1.338244	-0.418047
H77	H	-0.481700	1.548202	-0.228852
F78	F	-0.281666	1.540146	-0.384297
F79	F	-0.281509	0.988303	-0.667560
F80	F	-0.281403	0.988323	-0.936126
F81	F	-0.401206	1.338273	-0.184971
H82	H	-0.481454	0.832827	-0.944307
F83	F	-0.281347	0.988327	-1.071196
H84	H	-0.294619	1.667027	-0.374318
H85	H	-0.481747	1.666912	-0.228889
H86	H	-0.481600	1.263275	-0.228783
H87	H	-0.519721	0.896552	-0.861194
H88	H	-0.481570	1.144562	-0.228752
H89	H	-0.519756	0.896379	-0.742489
