data_functionalizedCrystal
_audit_creation_method	'MofGen! by Chris Wilmer'
_symmetry_space_group_name_H-M	'P1'
_symmetry_Int_Tables_number	1
_symmetry_cell_setting	triclinic
loop_
_symmetry_equiv_pos_as_xyz
  x,y,z
_cell_length_a	19.077269
_cell_length_b	29.839131
_cell_length_c	19.076919
_cell_angle_alpha	87.732541
_cell_angle_beta	85.330942
_cell_angle_gamma	87.744649
loop_
_atom_site_label
_atom_site_type_symbol
_atom_site_fract_x
_atom_site_fract_y
_atom_site_fract_z
Zn1	Zn	1.061556	-0.215186	0.355254
Zn2	Zn	1.394889	0.118147	0.688588
Zn3	Zn	1.728223	0.451481	1.021921
Zn4	Zn	1.066178	-0.287409	0.237368
Zn5	Zn	1.399511	0.045924	0.570702
Zn6	Zn	1.732844	0.379258	0.904035
Zn7	Zn	0.948416	-0.209397	0.242122
Zn8	Zn	1.281749	0.123936	0.575456
Zn9	Zn	1.615082	0.457270	0.908789
Zn10	Zn	0.943608	-0.287387	0.359951
Zn11	Zn	1.276942	0.045947	0.693284
Zn12	Zn	1.610275	0.379280	1.026618
O13	O	1.004939	-0.249845	0.298674
O14	O	1.338273	0.083489	0.632007
O15	O	1.671606	0.416822	0.965341
O16	O	1.160814	-0.227199	0.335661
O17	O	1.494148	0.106135	0.668995
O18	O	1.827481	0.439468	1.002328
O19	O	1.054502	-0.274647	0.139351
O20	O	1.387835	0.058686	0.472685
O21	O	1.721169	0.392019	0.806018
O22	O	0.963502	-0.147300	0.257153
O23	O	1.296835	0.186033	0.590487
O24	O	1.630169	0.519366	0.923820
O25	O	1.164210	-0.280261	0.249051
O26	O	1.497543	0.053073	0.582384
O27	O	1.830876	0.386406	0.915718
O28	O	1.046625	-0.151553	0.340271
O29	O	1.379959	0.181780	0.673604
O30	O	1.713292	0.515113	1.006938
O31	O	0.967983	-0.217332	0.142844
O32	O	1.301316	0.116001	0.476178
O33	O	1.634650	0.449334	0.809511
O34	O	0.849133	-0.217310	0.261708
O35	O	1.182466	0.116023	0.595041
O36	O	1.515800	0.449356	0.928374
O37	O	0.955308	-0.280222	0.457975
O38	O	1.288642	0.053111	0.791309
O39	O	1.621975	0.386444	1.124642
O40	O	0.845601	-0.274609	0.348276
O41	O	1.178934	0.058724	0.681609
O42	O	1.512268	0.392058	1.014943
O43	O	1.041964	-0.227177	0.454525
O44	O	1.375297	0.106157	0.787858
O45	O	1.708631	0.439490	1.121191
O46	O	1.049841	-0.350271	0.253605
O47	O	1.383174	-0.016937	0.586939
O48	O	1.716507	0.316396	0.920272
O49	O	0.959790	-0.350254	0.343666
O50	O	1.293123	-0.016921	0.677000
O51	O	1.626456	0.316413	1.010333
C52	C	0.821789	-0.245329	0.306018
C53	C	1.155123	0.088004	0.639351
C54	C	1.488456	0.421337	0.972685
C55	C	0.743436	-0.243409	0.309176
C56	C	1.076770	0.089924	0.642510
C57	C	1.410103	0.423258	0.975843
C58	C	0.708393	-0.270085	0.265500
C59	C	1.041727	0.063248	0.598833
C60	C	1.375060	0.396582	0.932166
C61	C	0.634772	-0.268281	0.268477
C62	C	0.968105	0.065052	0.601810
C63	C	1.301439	0.398386	0.935143
C64	C	0.596195	-0.239798	0.315127
C65	C	0.929528	0.093535	0.648461
C66	C	1.262862	0.426869	0.981794
C67	C	0.631243	-0.213121	0.358809
C68	C	0.964576	0.120212	0.692142
C69	C	1.297909	0.453546	1.025475
C70	C	0.704863	-0.214928	0.355835
C71	C	1.038196	0.118405	0.689168
C72	C	1.371529	0.451739	1.022501
C73	C	0.375825	-0.231439	0.328868
C74	C	0.709158	0.101894	0.662201
C75	C	1.042492	0.435227	0.995534
C76	C	0.302200	-0.229634	0.331837
C77	C	0.635533	0.103700	0.665170
C78	C	0.968867	0.437033	0.998504
C79	C	0.305734	-0.284794	0.241506
C80	C	0.639068	0.048539	0.574839
C81	C	0.972401	0.381872	0.908172
C82	C	0.379356	-0.286596	0.238533
C83	C	0.712689	0.046737	0.571866
C84	C	1.046022	0.380070	0.905199
C85	C	0.414397	-0.259921	0.282217
C86	C	0.747730	0.073412	0.615550
C87	C	1.081064	0.406745	0.948883
N88	N	0.520942	-0.237952	0.318170
N89	N	0.854275	0.095381	0.651503
N90	N	1.187609	0.428714	0.984836
N91	N	0.489648	-0.261770	0.279177
N92	N	0.822982	0.071564	0.612511
N93	N	1.156315	0.404897	0.945844
C94	C	1.004814	-0.366563	0.298644
C95	C	1.338147	-0.033230	0.631977
C96	C	1.671480	0.300103	0.965311
C97	C	1.004823	-0.416498	0.298652
C98	C	1.338157	-0.083165	0.631986
C99	C	1.671490	0.250169	0.965319
C100	C	1.051908	-0.726145	0.251842
C101	C	1.385242	-0.392811	0.585175
C102	C	1.718575	-0.059478	0.918508
C103	C	1.051994	-0.913820	0.251866
C104	C	1.385328	-0.580487	0.585199
C105	C	1.718661	-0.247154	0.918532
O106	O	1.091928	-0.938085	0.212043
O107	O	1.425261	-0.604751	0.545376
O108	O	1.758594	-0.271418	0.878709
N109	N	1.005083	-0.937292	0.298721
N110	N	1.338417	-0.603958	0.632055
N111	N	1.671750	-0.270625	0.965388
C112	C	0.958151	-0.913841	0.345577
C113	C	1.291484	-0.580508	0.678911
C114	C	1.624818	-0.247174	1.012244
O115	O	0.918257	-0.938111	0.385436
O116	O	1.251591	-0.604778	0.718770
O117	O	1.584924	-0.271444	1.052103
C118	C	0.958069	-0.726166	0.345556
C119	C	1.291402	-0.392833	0.678890
C120	C	1.624736	-0.059500	1.012223
C121	C	1.004978	-0.702697	0.298693
C122	C	1.338311	-0.369364	0.632026
C123	C	1.671645	-0.036031	0.965360
C124	C	1.098814	-0.702676	0.204983
C125	C	1.432147	-0.369342	0.538316
C126	C	1.765481	-0.036009	0.871649
C127	C	1.098789	-0.655759	0.204974
C128	C	1.432123	-0.322426	0.538308
C129	C	1.765456	0.010907	0.871641
C130	C	1.051859	-0.632312	0.251826
C131	C	1.385193	-0.298979	0.585159
C132	C	1.718526	0.034355	0.918492
C133	C	1.004954	-0.655781	0.298685
C134	C	1.338287	-0.322448	0.632018
C135	C	1.671620	0.010886	0.965351
C136	C	0.911141	-0.702717	0.392415
C137	C	1.244474	-0.369383	0.725749
C138	C	1.577807	-0.036050	1.059082
C139	C	0.911126	-0.655795	0.392407
C140	C	1.244459	-0.322462	0.725741
C141	C	1.577792	0.010872	1.059074
C142	C	0.958034	-0.632326	0.345544
C143	C	1.291368	-0.298993	0.678877
C144	C	1.624701	0.034341	1.012210
C145	C	0.957999	-0.585417	0.345528
C146	C	1.291332	-0.252084	0.678861
C147	C	1.624665	0.081249	1.012194
N148	N	1.004909	-0.561946	0.298672
N149	N	1.338243	-0.228613	0.632005
N150	N	1.671576	0.104720	0.965339
C151	C	1.051840	-0.585394	0.251821
C152	C	1.385173	-0.252060	0.585154
C153	C	1.718506	0.081273	0.918488
C154	C	0.958196	-1.012373	0.345584
C155	C	1.291530	-0.679040	0.678917
C156	C	1.624863	-0.345706	1.012251
C157	C	0.958216	-1.059291	0.345589
C158	C	1.291549	-0.725958	0.678922
C159	C	1.624883	-0.392625	1.012255
C160	C	1.052060	-1.059268	0.251878
C161	C	1.385394	-0.725934	0.585211
C162	C	1.718727	-0.392601	0.918544
C163	C	1.052037	-1.012348	0.251870
C164	C	1.385370	-0.679015	0.585204
C165	C	1.718703	-0.345682	0.918537
C166	C	1.005107	-0.988902	0.298729
C167	C	1.338441	-0.655569	0.632062
C168	C	1.671774	-0.322235	0.965395
C169	C	1.051784	-0.486866	0.251807
C170	C	1.385117	-0.153533	0.585140
C171	C	1.718451	0.179801	0.918474
C172	C	1.051753	-0.439945	0.251801
C173	C	1.385087	-0.106612	0.585135
C174	C	1.718420	0.226721	0.918468
C175	C	0.957912	-0.439973	0.345514
C176	C	1.291245	-0.106640	0.678848
C177	C	1.624579	0.226693	1.012181
C178	C	0.957940	-0.486890	0.345518
C179	C	1.291273	-0.153556	0.678852
C180	C	1.624607	0.179777	1.012185
C181	C	1.004882	-0.510335	0.298662
C182	C	1.338215	-0.177002	0.631995
C183	C	1.671548	0.156332	0.965329
O184	O	0.918092	-0.561124	0.385335
O185	O	1.251425	-0.227791	0.718668
O186	O	1.584758	0.105542	1.052002
O187	O	1.091738	-0.561116	0.211979
O188	O	1.425071	-0.227783	0.545312
O189	O	1.758405	0.105551	0.878645
C190	C	1.051933	-0.773061	0.251850
C191	C	1.385266	-0.439728	0.585183
C192	C	1.718599	-0.106394	0.918517
C193	C	1.005027	-0.796530	0.298709
C194	C	1.338360	-0.463197	0.632042
C195	C	1.671694	-0.129863	0.965376
C196	C	0.958097	-0.773082	0.345560
C197	C	1.291430	-0.439749	0.678893
C198	C	1.624764	-0.106416	1.012227
C199	C	1.005047	-0.843448	0.298714
C200	C	1.338380	-0.510115	0.632047
C201	C	1.671713	-0.176782	0.965380
C202	C	1.051977	-0.866896	0.251862
C203	C	1.385310	-0.533562	0.585196
C204	C	1.718644	-0.200229	0.918529
C205	C	1.098888	-0.843425	0.205007
C206	C	1.432221	-0.510091	0.538340
C207	C	1.765554	-0.176758	0.871674
C208	C	1.098863	-0.796508	0.204999
C209	C	1.432196	-0.463175	0.538332
C210	C	1.765530	-0.129842	0.871665
C211	C	0.911186	-0.796554	0.392416
C212	C	1.244520	-0.463220	0.725749
C213	C	1.577853	-0.129887	1.059082
C214	C	0.911214	-0.843470	0.392420
C215	C	1.244547	-0.510137	0.725753
C216	C	1.577881	-0.176803	1.059086
C217	C	0.958144	-0.866917	0.345568
C218	C	1.291478	-0.533584	0.678902
C219	C	1.624811	-0.200251	1.012235
C220	C	1.188805	-0.254378	0.291302
C221	C	1.522138	0.078955	0.624635
C222	C	1.855471	0.412289	0.957968
C223	C	1.267157	-0.256310	0.288160
C224	C	1.600490	0.077024	0.621494
C225	C	1.933824	0.410357	0.954827
C226	C	0.997584	-0.254343	0.482543
C227	C	1.330918	0.078991	0.815877
C228	C	1.664251	0.412324	1.149210
C229	C	0.994450	-0.256259	0.560898
C230	C	1.327784	0.077074	0.894231
C231	C	1.661117	0.410407	1.227564
C232	C	1.005084	-0.132671	0.298719
C233	C	1.338418	0.200662	0.632052
C234	C	1.671751	0.533996	0.965385
C235	C	1.005146	-0.082739	0.298738
C236	C	1.338480	0.250595	0.632071
C237	C	1.671813	0.583928	0.965404
C238	C	1.012306	-0.245333	0.115518
C239	C	1.345640	0.088001	0.448851
C240	C	1.678973	0.421334	0.782185
C241	C	1.015577	-0.243293	0.037159
C242	C	1.348911	0.090041	0.370492
C243	C	1.682244	0.423374	0.703826
C244	C	1.038092	-0.229543	0.595913
C245	C	1.371426	0.103790	0.929247
C246	C	1.704759	0.437123	1.262580
C247	C	1.035139	-0.231342	0.669536
C248	C	1.368472	0.101991	1.002869
C249	C	1.701805	0.435324	1.336202
C250	C	0.988546	-0.259860	0.708141
C251	C	1.321880	0.073473	1.041475
C252	C	1.655213	0.406806	1.374808
C253	C	0.944899	-0.286578	0.673121
C254	C	1.278233	0.046756	1.006454
C255	C	1.611566	0.380089	1.339787
C256	C	0.947850	-0.284776	0.599500
C257	C	1.281183	0.048558	0.932833
C258	C	1.614516	0.381891	1.266166
C259	C	0.974881	-0.268208	0.928517
C260	C	1.308214	0.065125	1.261851
C261	C	1.641547	0.398458	1.595184
C262	C	0.971935	-0.270009	1.002143
C263	C	1.305268	0.063324	1.335477
C264	C	1.638602	0.396658	1.668810
C265	C	1.062174	-0.214773	0.998553
C266	C	1.395507	0.118560	1.331887
C267	C	1.728841	0.451894	1.665220
C268	C	1.065123	-0.212976	0.924931
C269	C	1.398457	0.120358	1.258264
C270	C	1.731790	0.453691	1.591598
C271	C	1.021474	-0.239691	0.889917
C272	C	1.354807	0.093642	1.223250
C273	C	1.688141	0.426976	1.556584
N274	N	0.985528	-0.261701	0.783395
N275	N	1.318861	0.071632	1.116729
N276	N	1.652194	0.404966	1.450062
N277	N	1.024489	-0.237848	0.814664
N278	N	1.357823	0.095486	1.147998
N279	N	1.691156	0.428819	1.481331
H280	H	0.606243	-0.290003	0.232910
H281	H	0.939577	0.043330	0.566244
H282	H	1.272910	0.376663	0.899577
H283	H	0.599827	-0.189932	0.396796
H284	H	0.933160	0.143401	0.730129
H285	H	1.266494	0.476735	1.063462
N286	N	1.102676	-1.084565	0.201346
N287	N	1.436009	-0.751232	0.534679
N288	N	1.769343	-0.417898	0.868013
H289	H	1.134174	-1.105509	0.228722
H290	H	1.467508	-0.772175	0.562056
H291	H	1.800841	-0.438842	0.895389
H292	H	1.132350	-1.062554	0.171670
H293	H	1.465683	-0.729220	0.505003
H294	H	1.799016	-0.395887	0.838336
H295	H	1.097710	-0.193022	1.027070
H296	H	1.431043	0.140311	1.360403
H297	H	1.764377	0.473644	1.693736
H298	H	0.933992	-0.293233	1.033574
H299	H	1.267325	0.040101	1.366907
H300	H	1.600658	0.373434	1.700241
H301	H	1.103066	-0.189755	0.893503
H302	H	1.436399	0.143579	1.226836
H303	H	1.769733	0.476912	1.560170
H304	H	0.939349	-0.289969	0.900017
H305	H	1.272682	0.043365	1.233351
H306	H	1.606015	0.376698	1.566684
H307	H	0.906960	-0.309796	0.704559
H308	H	1.240293	0.023538	1.037892
H309	H	1.573627	0.356871	1.371226
N310	N	0.907303	-0.414674	0.396045
N311	N	1.240636	-0.081341	0.729378
N312	N	1.573969	0.251992	1.062711
H313	H	0.916202	-0.424319	0.445985
H314	H	1.249536	-0.090986	0.779318
H315	H	1.582869	0.242348	1.112652
H316	H	0.857406	-0.421371	0.387023
H317	H	1.190739	-0.088038	0.720356
H318	H	1.524073	0.245296	1.053689
H319	H	0.270792	-0.206436	0.369823
H320	H	0.604126	0.126897	0.703157
H321	H	0.937459	0.460231	1.036490
N322	N	1.088354	-0.198788	0.554281
N323	N	1.421687	0.134546	0.887614
N324	N	1.755021	0.467879	1.220947
H325	H	1.122223	-0.217106	0.522427
H326	H	1.455557	0.116227	0.855760
H327	H	1.788890	0.449561	1.189093
H328	H	1.115502	-0.182145	0.587687
H329	H	1.448836	0.151188	0.921021
H330	H	1.782169	0.484522	1.254354
H331	H	0.872939	-0.721817	0.430574
H332	H	1.206272	-0.388483	0.763907
H333	H	1.539606	-0.055150	1.097240
N334	N	0.900771	-0.313590	0.561737
N335	N	1.234105	0.019744	0.895070
N336	N	1.567438	0.353077	1.228403
H337	H	0.911163	-0.346272	0.574096
H338	H	1.244496	-0.012938	0.907429
H339	H	1.577829	0.320395	1.240762
H340	H	0.909726	-0.308084	0.509252
H341	H	1.243059	0.025249	0.842585
H342	H	1.576392	0.358583	1.175918
N343	N	0.749999	-0.300802	0.215178
N344	N	1.083333	0.032531	0.548512
N345	N	1.416666	0.365864	0.881845
H346	H	0.716625	-0.317428	0.187962
H347	H	1.049959	0.015905	0.521296
H348	H	1.383292	0.349239	0.854629
H349	H	0.779389	-0.323071	0.242578
H350	H	1.112722	0.010262	0.575912
H351	H	1.446055	0.343595	0.909245
N352	N	0.413625	-0.202660	0.375958
N353	N	0.746959	0.130673	0.709292
N354	N	1.080292	0.464007	1.042625
H355	H	0.442862	-0.222491	0.407344
H356	H	0.776196	0.110842	0.740677
H357	H	1.109529	0.444176	1.074010
H358	H	0.377980	-0.184340	0.405914
H359	H	0.711314	0.148994	0.739247
H360	H	1.044647	0.482327	1.072580
N361	N	0.420963	-0.317314	0.188212
N362	N	0.754296	0.016020	0.521545
N363	N	1.087629	0.349353	0.854879
H364	H	0.387591	-0.333939	0.160993
H365	H	0.720925	-0.000606	0.494326
H366	H	1.054258	0.332728	0.827660
H367	H	0.450354	-0.339583	0.215610
H368	H	0.783687	-0.006250	0.548943
H369	H	1.117021	0.327084	0.882276
H370	H	0.277196	-0.306513	0.205942
H371	H	0.610529	0.026821	0.539275
H372	H	0.943862	0.360154	0.872608
N373	N	0.742663	-0.186158	0.402946
N374	N	1.075996	0.147175	0.736279
N375	N	1.409329	0.480508	1.069612
H376	H	0.707054	-0.167840	0.432950
H377	H	1.040388	0.165493	0.766283
H378	H	1.373721	0.498827	1.099616
H379	H	0.774367	-0.165389	0.373079
H380	H	1.107701	0.167945	0.706412
H381	H	1.441034	0.501278	1.039745
H382	H	1.089952	-0.420838	0.213637
H383	H	1.423286	-0.087505	0.546970
H384	H	1.756619	0.245828	0.880304
H385	H	1.090010	-0.505950	0.213654
H386	H	1.423343	-0.172616	0.546987
H387	H	1.756677	0.160717	0.880321
H388	H	1.136989	-0.636654	0.166816
H389	H	1.470322	-0.303321	0.500150
H390	H	1.803655	0.030013	0.833483
N391	N	1.149437	-0.727961	0.154447
N392	N	1.482770	-0.394628	0.487780
N393	N	1.816103	-0.061294	0.821114
H394	H	1.179143	-0.705967	0.124766
H395	H	1.512477	-0.372634	0.458099
H396	H	1.845810	-0.039301	0.791433
H397	H	1.122083	-0.745947	0.122949
H398	H	1.455417	-0.412614	0.456282
H399	H	1.788750	-0.079281	0.789615
N400	N	0.860503	-0.630504	0.442941
N401	N	1.193836	-0.297171	0.776274
N402	N	1.527169	0.036162	1.109607
H403	H	0.887804	-0.612514	0.474482
H404	H	1.221138	-0.279181	0.807816
H405	H	1.554471	0.054153	1.141149
H406	H	0.830802	-0.652520	0.472578
H407	H	1.164135	-0.319186	0.805912
H408	H	1.497469	0.014147	1.139245
H409	H	0.873009	-0.862574	0.430581
H410	H	1.206342	-0.529241	0.763914
H411	H	1.539676	-0.195907	1.097248
N412	N	1.102633	-0.987037	0.201328
N413	N	1.435966	-0.653704	0.534661
N414	N	1.769299	-0.320370	0.867994
H415	H	1.132363	-1.009015	0.171651
H416	H	1.465696	-0.675681	0.504984
H417	H	1.799029	-0.342348	0.838317
H418	H	1.134078	-0.969050	0.228740
H419	H	1.467411	-0.635717	0.562074
H420	H	1.800744	-0.302383	0.895407
H421	H	0.920012	-1.078395	0.383743
H422	H	1.253345	-0.745062	0.717077
H423	H	1.586678	-0.411729	1.050410
H424	H	0.919745	-0.505999	0.383680
H425	H	1.253078	-0.172666	0.717014
H426	H	1.586412	0.160667	1.050347
H427	H	0.919979	-0.993286	0.383743
H428	H	1.253312	-0.659953	0.717076
H429	H	1.586646	-0.326619	1.050410
H430	H	1.137061	-0.777403	0.166838
H431	H	1.470394	-0.444070	0.500172
H432	H	1.803727	-0.110737	0.833505
N433	N	1.149500	-0.868718	0.154468
N434	N	1.482834	-0.535385	0.487801
N435	N	1.816167	-0.202052	0.821134
H436	H	1.142391	-0.902001	0.161588
H437	H	1.475724	-0.568668	0.494921
H438	H	1.809058	-0.235335	0.828255
H439	H	1.199394	-0.861993	0.163458
H440	H	1.532727	-0.528660	0.496792
H441	H	1.866061	-0.195326	0.830125
H442	H	1.070679	-0.209588	0.698042
H443	H	1.404012	0.123745	1.031375
H444	H	1.737345	0.457078	1.364709
H445	H	0.872971	-0.777466	0.430569
H446	H	1.206304	-0.444133	0.763902
H447	H	1.539637	-0.110800	1.097235
