data_functionalizedCrystal
_audit_creation_method	'MofGen! by Chris Wilmer'
_symmetry_space_group_name_H-M	'P1'
_symmetry_Int_Tables_number	1
_symmetry_cell_setting	triclinic
loop_
_symmetry_equiv_pos_as_xyz
  x,y,z
_cell_length_a	9.065218
_cell_length_b	7.681481
_cell_length_c	9.065215
_cell_angle_alpha	95.826309
_cell_angle_beta	85.015291
_cell_angle_gamma	84.191250
loop_
_atom_site_label
_atom_site_type_symbol
_atom_site_fract_x
_atom_site_fract_y
_atom_site_fract_z
O1	O	1.946634	0.146430	0.230141
O2	O	1.517349	0.146432	0.247887
O3	O	1.740868	0.146423	0.024371
O4	O	1.723115	0.146439	0.453657
O5	O	1.768378	-0.146435	-0.003204
O6	O	1.544860	-0.146427	0.220313
O7	O	1.974145	-0.146429	0.202566
Zn8	Zn	1.763870	-0.192925	0.207062
Zn9	Zn	1.727624	0.192929	0.243392
O10	O	1.750626	-0.146420	0.426083
C11	C	1.476118	0.000003	0.232395
C12	C	1.312275	0.000004	0.227295
N13	N	1.788618	-0.456261	0.182266
C14	C	2.015376	0.000004	0.218059
C15	C	2.179218	0.000015	0.223160
C16	C	1.752918	-0.000004	-0.044403
C17	C	1.747819	0.000001	-0.208246
N18	N	1.702887	0.456264	0.268176
C19	C	1.738575	0.000011	0.494857
C20	C	1.743673	0.000017	0.658701
H21	H	1.615373	-0.468536	0.355863
H22	H	1.876149	-0.531470	0.094584
