data_functionalizedCrystal
_audit_creation_method	'MofGen! by Chris Wilmer'
_symmetry_space_group_name_H-M	'P1'
_symmetry_Int_Tables_number	1
_symmetry_cell_setting	triclinic
loop_
_symmetry_equiv_pos_as_xyz
  x,y,z
_cell_length_a	17.699083
_cell_length_b	17.699083
_cell_length_c	16.176319
_cell_angle_alpha	89.993830
_cell_angle_beta	90.007566
_cell_angle_gamma	96.716985
loop_
_atom_site_label
_atom_site_type_symbol
_atom_site_fract_x
_atom_site_fract_y
_atom_site_fract_z
O1	O	-0.095713	1.004079	-0.068716
O2	O	0.404287	1.504079	0.431284
O3	O	-0.108165	0.783701	-0.068725
O4	O	0.391835	1.283701	0.431275
O5	O	0.008250	0.900116	-0.068713
O6	O	0.508250	1.400116	0.431287
O7	O	-0.212128	0.887664	-0.068728
O8	O	0.287872	1.387664	0.431272
O9	O	0.008257	0.900099	0.068781
O10	O	0.508257	1.400099	0.568781
O11	O	-0.108158	0.783684	0.068768
O12	O	0.391842	1.283684	0.568768
O13	O	-0.095706	1.004062	0.068777
O14	O	0.404294	1.504062	0.568777
Cu15	Cu	-0.101932	0.893872	0.081327
Cu16	Cu	0.398068	1.393872	0.581327
Cu17	Cu	-0.101940	0.893892	-0.081274
Cu18	Cu	0.398060	1.393892	0.418726
O19	O	-0.212121	0.887647	0.068765
O20	O	0.287879	1.387647	0.568765
C21	C	0.036451	0.899662	0.000034
C22	C	0.536451	1.399662	0.500034
C23	C	0.120469	0.898323	0.000034
C24	C	0.620469	1.398323	0.500034
C25	C	-0.107716	0.755495	0.000021
C26	C	0.392284	1.255495	0.500021
C27	C	-0.106377	0.671477	0.000018
C28	C	0.393623	1.171477	0.500018
C29	C	-0.240322	0.888102	0.000017
C30	C	0.259678	1.388102	0.500017
C31	C	-0.324340	0.889440	0.000011
C32	C	0.175660	1.389440	0.500011
C33	C	-0.096156	1.032268	0.000030
C34	C	0.403844	1.532268	0.500030
C35	C	-0.097494	1.116286	0.000028
C36	C	0.402506	1.616286	0.500028
C37	C	0.169090	0.966656	0.000038
C38	C	0.669090	1.466656	0.500038
C39	C	0.248033	0.965394	0.000031
C40	C	0.748033	1.465394	0.500031
C41	C	0.278354	0.895798	0.000025
C42	C	0.778354	1.395798	0.500025
C43	C	0.229727	0.827459	0.000019
C44	C	0.729727	1.327459	0.500019
C45	C	0.150785	0.828722	0.000020
C46	C	0.650785	1.328722	0.500020
C47	C	0.548090	0.822364	0.000012
C48	C	1.048090	1.322364	0.500012
C49	C	0.627038	0.821106	0.000013
C50	C	1.127038	1.321106	0.500013
C51	C	0.645338	0.959036	0.000023
C52	C	1.145338	1.459036	0.500023
C53	C	0.566396	0.960299	0.000024
C54	C	1.066396	1.460299	0.500024
C55	C	0.517776	0.891961	0.000013
C56	C	1.017776	1.391961	0.500013
C57	C	0.432177	0.893330	0.000020
C58	C	0.932177	1.393330	0.500020
C59	C	0.363951	0.894427	0.000025
C60	C	0.863951	1.394427	0.500025
N61	N	-0.101925	0.893863	0.195692
N62	N	0.398075	1.393863	0.695692
C63	C	-0.029161	1.164907	0.000030
C64	C	0.470839	1.664907	0.500030
C65	C	-0.030423	1.243850	0.000032
C66	C	0.469577	1.743850	0.500032
C67	C	-0.100020	1.274171	0.000027
C68	C	0.399980	1.774171	0.500027
C69	C	-0.168358	1.225544	0.000028
C70	C	0.331642	1.725544	0.500028
C71	C	-0.167095	1.146602	0.000031
C72	C	0.332905	1.646602	0.500031
C73	C	-0.173453	1.543907	0.000016
C74	C	0.326547	2.043907	0.500016
C75	C	-0.174711	1.622855	0.000010
C76	C	0.325289	2.122855	0.500010
C77	C	-0.036781	1.641155	0.000017
C78	C	0.463219	2.141155	0.500017
C79	C	-0.035518	1.562213	0.000020
C80	C	0.464482	2.062213	0.500020
C81	C	-0.103857	1.513593	0.000025
C82	C	0.396143	2.013593	0.500025
C83	C	-0.102487	1.427994	0.000024
C84	C	0.397513	1.927994	0.500024
C85	C	-0.101390	1.359769	0.000023
C86	C	0.398610	1.859769	0.500023
C87	C	-0.050398	0.945427	0.238962
C88	C	0.449602	1.445427	0.738962
C89	C	-0.050397	0.945430	0.325509
C90	C	0.449603	1.445430	0.825509
C91	C	-0.101928	0.893872	0.368785
C92	C	0.398072	1.393872	0.868785
C93	C	-0.153458	0.842303	0.325509
C94	C	0.346542	1.342303	0.825509
C95	C	-0.153455	0.842297	0.238964
C96	C	0.346545	1.342297	0.738964
C97	C	-0.153474	0.842326	0.674538
C98	C	0.346526	1.342326	1.174538
C99	C	-0.153475	0.842338	0.761089
C100	C	0.346525	1.342338	1.261089
C101	C	-0.050416	0.945460	0.761083
C102	C	0.449584	1.445460	1.261083
C103	C	-0.050412	0.945453	0.674537
C104	C	0.449588	1.445453	1.174537
C105	C	-0.101939	0.893882	0.631269
C106	C	0.398061	1.393882	1.131269
C107	C	-0.101938	0.893878	0.537425
C108	C	0.398062	1.393878	1.037425
C109	C	-0.101934	0.893879	0.462628
C110	C	0.398066	1.393879	0.962628
N111	N	-0.101943	0.893899	0.804360
N112	N	0.398057	1.393899	1.304360
H113	H	0.287618	1.021038	0.000036
H114	H	0.787618	1.521038	0.500036
H115	H	0.144409	1.023330	0.000048
H116	H	0.644409	1.523330	0.500048
H117	H	-0.008438	0.987414	0.203732
H118	H	0.491562	1.487414	0.703732
H119	H	0.651721	0.764429	0.000010
H120	H	1.151721	1.264429	0.500010
H121	H	-0.195414	0.800320	0.360750
H122	H	0.304586	1.300320	0.860750
C123	C	0.203702	0.691244	-0.000002
C124	C	0.703702	1.191244	0.499998
C125	C	0.263052	0.750956	0.000007
C126	C	0.763052	1.250956	0.500007
H127	H	0.224276	0.644013	-0.000014
H128	H	0.724276	1.144013	0.499986
H129	H	0.173300	0.694596	0.047943
H130	H	0.673300	1.194596	0.547943
H131	H	0.173286	0.694620	-0.047951
H132	H	0.673286	1.194620	0.452049
H133	H	0.293465	0.747582	0.047960
H134	H	0.793465	1.247582	0.547960
H135	H	0.293467	0.747602	-0.047943
H136	H	0.793467	1.247602	0.452057
H137	H	0.684934	1.014680	0.000027
H138	H	1.184934	1.514680	0.500027
C139	C	-0.284556	0.797641	0.647895
C140	C	0.215444	1.297641	1.147895
C141	C	-0.210121	0.785646	0.626988
C142	C	0.289879	1.285646	1.126988
H143	H	-0.319530	0.762650	0.618534
H144	H	0.180470	1.262650	1.118534
H145	H	-0.291922	0.790271	0.705626
H146	H	0.208078	1.290271	1.205626
H147	H	-0.292701	0.848136	0.633689
H148	H	0.207299	1.348136	1.133689
H149	H	-0.201975	0.735152	0.641200
H150	H	0.298025	1.235152	1.141200
H151	H	-0.202752	0.793010	0.569245
H152	H	0.297248	1.293010	1.069245
H153	H	0.541714	1.016971	0.000032
H154	H	1.041714	1.516971	0.500032
H155	H	0.027513	1.140226	0.000029
H156	H	0.527513	1.640226	0.500029
H157	H	-0.008439	0.987417	0.360739
H158	H	0.491561	1.487417	0.860739
H159	H	-0.008457	0.987450	0.796321
H160	H	0.491543	1.487450	1.296321
C161	C	-0.198069	0.711231	0.787771
C162	C	0.301931	1.211231	1.287771
C163	C	-0.210115	0.785656	0.808663
C164	C	0.289885	1.285656	1.308663
H165	H	-0.233031	0.676241	0.817146
H166	H	0.266969	1.176241	1.317146
H167	H	-0.205447	0.703846	0.730043
H168	H	0.294553	1.203846	1.230043
H169	H	-0.147560	0.703127	0.801968
H170	H	0.352440	1.203127	1.301968
H171	H	-0.260622	0.793761	0.794459
H172	H	0.239378	1.293761	1.294459
H173	H	-0.202743	0.793043	0.866403
H174	H	0.297257	1.293043	1.366403
H175	H	0.508512	0.766718	0.000004
H176	H	1.008512	1.266718	0.500004
H177	H	-0.008453	0.987439	0.639305
H178	H	0.491547	1.487439	1.139305
C179	C	0.051385	0.750133	-0.070667
C180	C	0.551385	1.250133	0.429333
C181	C	0.097337	0.753608	0.000016
C182	C	0.597337	1.253608	0.500016
H183	H	0.018393	0.703757	-0.070673
H184	H	0.518393	1.203757	0.429327
H185	H	0.022034	0.791758	-0.070657
H186	H	0.522034	1.291758	0.429343
H187	H	0.082566	0.752516	-0.118607
H188	H	0.582566	1.252516	0.381393
H189	H	0.066156	0.751231	0.047956
H190	H	0.566156	1.251231	0.547956
H191	H	0.126691	0.711972	0.000014
H192	H	0.626691	1.211972	0.500014
C193	C	-0.286310	1.234246	0.070704
C194	C	0.213690	1.734246	0.570704
C195	C	-0.244861	1.258870	0.000024
C196	C	0.255139	1.758870	0.500024
H197	H	-0.333538	1.254823	0.070701
H198	H	0.166462	1.754823	0.570701
H199	H	-0.295335	1.180279	0.070701
H200	H	0.204665	1.680279	0.570701
H201	H	-0.258169	1.250949	0.118646
H202	H	0.241831	1.750949	0.618646
H203	H	-0.273000	1.242162	-0.047918
H204	H	0.227000	1.742162	0.452082
H205	H	-0.235839	1.312848	0.000020
H206	H	0.264161	1.812848	0.500020
H207	H	0.021154	1.537531	0.000020
H208	H	0.521154	2.037531	0.500020
C209	C	-0.255334	0.740369	0.247658
C210	C	0.244666	1.240369	0.747658
C211	C	-0.210099	0.785620	0.191399
C212	C	0.289901	1.285620	0.691399
H213	H	-0.290306	0.705381	0.218292
H214	H	0.209694	1.205381	0.718292
H215	H	-0.223865	0.713209	0.281424
H216	H	0.276135	1.213209	0.781424
H217	H	-0.282520	0.771832	0.281403
H218	H	0.217480	1.271832	0.781403
H219	H	-0.182909	0.754157	0.157657
H220	H	0.317091	1.254157	0.657657
H221	H	-0.241573	0.812782	0.157618
H222	H	0.258427	1.312782	0.657618
C223	C	0.106044	1.254010	0.000030
C224	C	0.606044	1.754010	0.500030
C225	C	0.044691	1.297295	0.000032
C226	C	0.544691	1.797295	0.500032
H227	H	0.152418	1.287006	0.000026
H228	H	0.652418	1.787006	0.500026
H229	H	0.103672	1.222836	0.047973
H230	H	0.603672	1.722836	0.547973
H231	H	0.103657	1.222842	-0.047922
H232	H	0.603657	1.722842	0.452078
H233	H	0.047075	1.328459	0.047986
H234	H	0.547075	1.828459	0.547986
H235	H	0.047065	1.328482	-0.047916
H236	H	0.547065	1.828482	0.452084
H237	H	0.018863	1.680751	0.000016
H238	H	0.518863	2.180751	0.500016
C239	C	-0.310935	1.596839	0.000024
C240	C	0.189065	2.096839	0.500024
C241	C	-0.251218	1.656185	0.000014
C242	C	0.248782	2.156185	0.500014
H243	H	-0.358162	1.617418	0.000031
H244	H	0.141838	2.117418	0.500031
H245	H	-0.307584	1.566432	-0.047918
H246	H	0.192416	2.066432	0.452082
H247	H	-0.307562	1.566427	0.047977
H248	H	0.192438	2.066427	0.547977
H249	H	-0.254587	1.686593	-0.047942
H250	H	0.245413	2.186593	0.452058
H251	H	-0.254569	1.686604	0.047961
H252	H	0.245431	2.186604	0.547961
C253	C	-0.284276	1.106691	-0.070661
C254	C	0.215724	1.606691	0.429339
C255	C	-0.242208	1.093152	0.000024
C256	C	0.257792	1.593152	0.500024
H257	H	-0.330646	1.073690	-0.070664
H258	H	0.169354	1.573690	0.429336
H259	H	-0.294988	1.158038	-0.070659
H260	H	0.205012	1.658038	0.429341
H261	H	-0.255726	1.097515	-0.118600
H262	H	0.244274	1.597515	0.381400
H263	H	-0.270756	1.102335	0.047962
H264	H	0.229244	1.602335	0.547962
H265	H	-0.231498	1.041793	0.000028
H266	H	0.268502	1.541793	0.500028
H267	H	-0.229099	1.504329	0.000016
H268	H	0.270901	2.004329	0.500016
