data_functionalizedCrystal
_audit_creation_method	'MofGen! by Chris Wilmer'
_symmetry_space_group_name_H-M	'P1'
_symmetry_Int_Tables_number	1
_symmetry_cell_setting	triclinic
loop_
_symmetry_equiv_pos_as_xyz
  x,y,z
_cell_length_a	10.967926
_cell_length_b	11.792240
_cell_length_c	10.065918
_cell_angle_alpha	80.228909
_cell_angle_beta	87.800512
_cell_angle_gamma	95.540026
loop_
_atom_site_label
_atom_site_type_symbol
_atom_site_fract_x
_atom_site_fract_y
_atom_site_fract_z
O1	O	1.617971	-0.124035	-0.267022
O2	O	1.951304	0.209298	0.066311
O3	O	2.284638	0.542632	0.399644
O4	O	1.266777	-0.150149	-0.184415
O5	O	1.600111	0.183185	0.148918
O6	O	1.933444	0.516518	0.482252
O7	O	1.450891	0.028329	-0.227763
O8	O	1.784224	0.361662	0.105570
O9	O	2.117558	0.694995	0.438903
O10	O	1.433858	-0.302512	-0.223674
O11	O	1.767191	0.030821	0.109659
O12	O	2.100524	0.364154	0.442993
O13	O	1.419012	0.057225	-0.447261
O14	O	1.752345	0.390558	-0.113928
O15	O	2.085679	0.723891	0.219406
O16	O	1.234898	-0.121253	-0.403913
O17	O	1.568232	0.212081	-0.070579
O18	O	1.901565	0.545414	0.262754
O19	O	1.586092	-0.095139	-0.486520
O20	O	1.919425	0.238195	-0.153187
O21	O	2.252759	0.571528	0.180147
Zn22	Zn	1.405434	-0.103608	-0.480066
Zn23	Zn	1.738767	0.229726	-0.146733
Zn24	Zn	2.072100	0.563059	0.186600
Zn25	Zn	1.447436	-0.141680	-0.190869
Zn26	Zn	1.780769	0.191654	0.142465
Zn27	Zn	2.114102	0.524987	0.475798
O28	O	1.401979	-0.273616	-0.443172
O29	O	1.735312	0.059717	-0.109838
O30	O	2.068645	0.393051	0.223495
C31	C	1.205877	-0.135984	-0.283589
C32	C	1.539211	0.197349	0.049745
C33	C	1.872544	0.530683	0.383078
C34	C	1.071909	-0.136815	-0.252079
C35	C	1.405242	0.196518	0.081255
C36	C	1.738575	0.529852	0.414588
C37	C	0.995667	-0.122216	-0.351737
C38	C	1.329000	0.211117	-0.018404
C39	C	1.662334	0.544450	0.314930
C40	C	0.857203	-0.123075	-0.319172
C41	C	1.190536	0.210259	0.014161
C42	C	1.523870	0.543592	0.347494
C43	C	1.433880	0.085038	-0.337268
C44	C	1.767213	0.418371	-0.003935
C45	C	2.100546	0.751705	0.329399
C46	C	1.430672	0.210963	-0.336536
C47	C	1.764005	0.544296	-0.003203
C48	C	2.097338	0.877629	0.330130
C49	C	1.424776	0.441508	-0.335171
C50	C	1.758109	0.774842	-0.001838
C51	C	2.091442	1.108175	0.331495
C52	C	1.428052	0.313216	-0.335929
C53	C	1.761385	0.646549	-0.002596
C54	C	2.094718	0.979882	0.330737
C55	C	1.646993	-0.109304	-0.387343
C56	C	1.980326	0.224029	-0.054010
C57	C	2.313659	0.557363	0.279323
C58	C	1.780962	-0.108474	-0.418845
C59	C	2.114296	0.224859	-0.085511
C60	C	2.447629	0.558193	0.247822
N61	N	1.376777	-0.077624	-0.677438
N62	N	1.710111	0.255709	-0.344105
N63	N	2.043444	0.589043	-0.010771
C64	C	1.418983	0.669680	-0.333711
C65	C	1.752317	1.003014	-0.000378
C66	C	2.085650	1.336347	0.332955
C67	C	1.422172	0.543773	-0.334574
C68	C	1.755506	0.877106	-0.001241
C69	C	2.088839	1.210440	0.332093
C70	C	1.437457	-0.132640	-0.759476
C71	C	1.770791	0.200694	-0.426142
C72	C	2.104124	0.534027	-0.092809
C73	C	1.415413	-0.112631	-0.911463
C74	C	1.748746	0.220703	-0.578130
C75	C	2.082080	0.554036	-0.244796
N76	N	1.476102	-0.167654	0.006501
N77	N	1.809435	0.165679	0.339834
N78	N	2.142768	0.499012	0.673168
H79	H	1.505733	-0.194549	-0.717192
H80	H	1.839066	0.138784	-0.383859
H81	H	2.172399	0.472118	-0.050525
O82	O	1.325002	-0.030585	-0.967465
O83	O	1.658335	0.302748	-0.634131
O84	O	1.991668	0.636081	-0.300798
H85	H	1.283921	0.006687	-0.884254
H86	H	1.617254	0.340020	-0.550921
H87	H	1.950587	0.673353	-0.217588
H88	H	1.544379	-0.229571	-0.951223
H89	H	1.877713	0.103763	-0.617890
H90	H	2.211046	0.437096	-0.284556
H91	H	1.308510	-0.015706	-0.719724
H92	H	1.641843	0.317627	-0.386390
H93	H	1.975177	0.650960	-0.053057
H94	H	1.032903	-0.109076	-0.461166
H95	H	1.366236	0.224257	-0.127833
H96	H	1.699570	0.557591	0.205500
H97	H	0.819974	-0.136207	-0.209736
H98	H	1.153307	0.197127	0.123598
H99	H	1.486641	0.530460	0.456931
O100	O	0.830255	-0.091080	-0.563812
O101	O	1.163589	0.242253	-0.230479
O102	O	1.496922	0.575586	0.102854
H103	H	0.931273	-0.093146	-0.566645
H104	H	1.264606	0.240188	-0.233312
H105	H	1.597939	0.573521	0.100021
O106	O	1.022606	-0.154218	-0.107119
O107	O	1.355939	0.179115	0.226214
O108	O	1.689272	0.512448	0.559548
H109	H	0.921586	-0.152171	-0.104289
H110	H	1.254919	0.181162	0.229044
H111	H	1.588253	0.514496	0.562377
