data_functionalizedCrystal
_audit_creation_method	'MofGen! by Chris Wilmer'
_symmetry_space_group_name_H-M	'P1'
_symmetry_Int_Tables_number	1
_symmetry_cell_setting	triclinic
loop_
_symmetry_equiv_pos_as_xyz
  x,y,z
_cell_length_a	15.995292
_cell_length_b	15.995350
_cell_length_c	13.101039
_cell_angle_alpha	93.364563
_cell_angle_beta	86.641931
_cell_angle_gamma	83.480495
loop_
_atom_site_label
_atom_site_type_symbol
_atom_site_fract_x
_atom_site_fract_y
_atom_site_fract_z
O1	O	1.115623	0.103071	-0.085238
O2	O	0.871841	0.116450	-0.085233
O3	O	1.000396	-0.012128	-0.085234
O4	O	0.987068	0.231650	-0.085236
O5	O	0.991173	-0.002888	0.085196
O6	O	0.862618	0.125690	0.085197
O7	O	1.106400	0.112312	0.085192
Zn8	Zn	0.983044	0.120468	0.112254
Zn9	Zn	0.995197	0.108293	-0.112295
O10	O	0.977845	0.240890	0.085194
C11	C	0.836034	0.120526	-0.000017
C12	C	0.743081	0.118893	-0.000016
C13	C	0.995233	-0.038703	-0.000021
C14	C	0.993582	-0.131653	-0.000027
C15	C	0.405343	0.112892	-0.000027
C16	C	0.428676	0.205675	-0.000408
C17	C	0.525330	0.207460	-0.000020
C18	C	0.572899	0.115870	-0.000022
C19	C	0.538530	0.074749	0.097299
C20	C	0.441735	0.073636	0.097376
C21	C	0.452369	0.061232	-0.096435
C22	C	0.548931	0.064602	-0.097717
C23	C	0.667594	0.117548	-0.000016
C24	C	0.310647	0.111211	-0.000027
C25	C	0.987649	-0.469399	-0.000024
C26	C	0.896115	-0.421967	-0.000404
C27	C	0.897747	-0.325256	-0.000020
C28	C	0.990592	-0.301839	-0.000026
C29	C	1.030483	-0.337650	0.097295
C30	C	1.028179	-0.434281	0.097377
C31	C	1.040559	-0.445147	-0.096434
C32	C	1.040607	-0.348272	-0.097720
C33	C	0.992260	-0.207142	-0.000024
C34	C	0.985984	-0.564096	-0.000019
C35	C	1.142207	0.108236	-0.000025
C36	C	1.235161	0.109868	-0.000034
C37	C	0.983008	0.267464	-0.000021
C38	C	0.984660	0.360414	-0.000022
N39	N	0.974756	0.128777	0.265503
N40	N	1.003491	0.099978	-0.265543
C41	C	0.963481	0.140089	0.474546
C42	C	1.014764	0.088669	0.525421
C43	C	1.008490	0.094963	0.641739
C44	C	0.969754	0.133796	0.358217
H45	H	0.548133	0.240010	-0.069786
H46	H	0.914867	0.188834	0.518343
Cl47	Cl	0.563443	0.130556	0.209124
H48	H	1.063382	0.039922	0.481618
Cl49	Cl	0.583655	0.110703	-0.208880
H50	H	0.404457	0.237662	-0.070202
H51	H	1.011487	-0.324920	-0.169716
Cl52	Cl	0.378075	0.266411	0.106738
H53	H	0.410981	0.109713	0.170127
Cl54	Cl	0.547912	0.269743	0.107878
H55	H	1.098498	-0.323342	0.100910
Cl56	Cl	0.418893	-0.031041	0.104260
H57	H	0.570202	0.007546	0.100916
H58	H	0.582219	-0.002569	-0.103597
H59	H	0.855928	-0.437790	0.068999
Cl60	Cl	0.414810	0.099853	-0.210322
H61	H	0.438411	-0.007114	-0.097095
H62	H	0.863299	-0.444275	-0.070195
Cl63	Cl	0.848770	-0.287199	-0.107728
H64	H	0.858229	-0.293595	0.069864
H65	H	0.991312	-0.448630	0.170130
Cl66	Cl	1.131585	-0.483724	0.104203
Cl67	Cl	0.976008	-0.287763	0.209121
Cl68	Cl	1.000499	-0.483011	-0.210321
Cl69	Cl	1.144831	-0.494262	-0.097454
Cl70	Cl	1.145633	-0.325066	-0.106807
