data_functionalizedCrystal
_audit_creation_method	'MofGen! by Chris Wilmer'
_symmetry_space_group_name_H-M	'P1'
_symmetry_Int_Tables_number	1
_symmetry_cell_setting	triclinic
loop_
_symmetry_equiv_pos_as_xyz
  x,y,z
_cell_length_a	27.732048
_cell_length_b	27.732048
_cell_length_c	14.421503
_cell_angle_alpha	89.997938
_cell_angle_beta	89.987968
_cell_angle_gamma	97.357346
loop_
_atom_site_label
_atom_site_type_symbol
_atom_site_fract_x
_atom_site_fract_y
_atom_site_fract_z
O1	O	-0.057510	0.640930	-0.076978
O2	O	0.442490	1.140930	0.423022
O3	O	-0.066256	0.500137	-0.077003
O4	O	0.433744	1.000137	0.422997
O5	O	0.008514	0.574906	-0.077002
O6	O	0.508514	1.074906	0.422998
O7	O	-0.132280	0.566161	-0.076979
O8	O	0.367720	1.066161	0.423021
O9	O	0.008503	0.574894	0.077222
O10	O	0.508503	1.074894	0.577222
O11	O	-0.066267	0.500124	0.077220
O12	O	0.433733	1.000124	0.577220
O13	O	-0.057521	0.640918	0.077246
O14	O	0.442479	1.140918	0.577246
Cu15	Cu	-0.061895	0.570520	0.091315
Cu16	Cu	0.438105	1.070520	0.591315
Cu17	Cu	-0.061882	0.570535	-0.091072
Cu18	Cu	0.438118	1.070535	0.408928
O19	O	-0.132291	0.566148	0.077245
O20	O	0.367709	1.066148	0.577245
C21	C	-0.066078	0.482124	0.000105
C22	C	0.433922	0.982124	0.500105
C23	C	-0.065525	0.428469	0.000094
C24	C	0.434475	0.928469	0.500094
C25	C	-0.106229	0.089654	0.000141
C26	C	0.393771	0.589654	0.500141
C27	C	-0.104178	-0.112006	0.000149
C28	C	0.395822	0.387994	0.500149
O29	O	-0.141398	-0.143262	0.000195
O30	O	0.358602	0.356738	0.500195
N31	N	-0.059843	-0.131130	0.000140
N32	N	0.440157	0.368870	0.500140
C33	C	-0.016017	-0.099835	0.000135
C34	C	0.483983	0.400165	0.500135
O35	O	0.021740	-0.120728	0.000137
O36	O	0.521740	0.379272	0.500137
C37	C	-0.018068	0.101824	0.000134
C38	C	0.481932	0.601824	0.500134
C39	C	-0.062407	0.120944	0.000133
C40	C	0.437593	0.620944	0.500133
C41	C	-0.150563	0.108775	0.000141
C42	C	0.349437	0.608775	0.500141
C43	C	-0.151076	0.159187	0.000134
C44	C	0.348924	0.659187	0.500134
C45	C	-0.107253	0.190477	0.000127
C46	C	0.392747	0.690477	0.500127
C47	C	-0.062919	0.171356	0.000126
C48	C	0.437081	0.671356	0.500126
C49	C	0.025757	0.133117	0.000136
C50	C	0.525757	0.633117	0.500136
C51	C	0.025240	0.183535	0.000138
C52	C	0.525240	0.683535	0.500138
C53	C	-0.019098	0.202655	0.000137
C54	C	0.480902	0.702655	0.500137
C55	C	-0.019609	0.253059	0.000112
C56	C	0.480391	0.753059	0.500112
N57	N	-0.063944	0.272183	0.000121
N58	N	0.436056	0.772183	0.500121
C59	C	-0.107766	0.240892	0.000128
C60	C	0.392234	0.740892	0.500128
C61	C	-0.014943	-0.205709	0.000134
C62	C	0.485057	0.294291	0.500134
C63	C	-0.014430	-0.256124	0.000133
C64	C	0.485570	0.243876	0.500133
C65	C	-0.102591	-0.268291	0.000148
C66	C	0.397409	0.231709	0.500148
C67	C	-0.103104	-0.217876	0.000143
C68	C	0.396896	0.282124	0.500143
C69	C	-0.059278	-0.186585	0.000143
C70	C	0.440722	0.313415	0.500143
C71	C	-0.108839	0.346761	0.000113
C72	C	0.391161	0.846761	0.500113
C73	C	-0.109347	0.397178	0.000102
C74	C	0.390653	0.897178	0.500102
C75	C	-0.021186	0.409341	0.000091
C76	C	0.478814	0.909341	0.500091
C77	C	-0.020678	0.358929	0.000097
C78	C	0.479322	0.858929	0.500097
C79	C	-0.064508	0.327639	0.000111
C80	C	0.435492	0.827639	0.500111
O81	O	0.017592	0.284343	0.000076
O82	O	0.517592	0.784343	0.500076
O83	O	-0.145518	0.261794	0.000147
O84	O	0.354482	0.761794	0.500147
C85	C	-0.105716	0.039242	0.000148
C86	C	0.394284	0.539242	0.500148
C87	C	-0.061382	0.020120	0.000148
C88	C	0.438618	0.520120	0.500148
C89	C	-0.017560	0.051411	0.000140
C90	C	0.482440	0.551411	0.500140
C91	C	-0.060869	-0.030294	0.000146
C92	C	0.439131	0.469706	0.500146
C93	C	-0.104691	-0.061585	0.000154
C94	C	0.395309	0.438415	0.500154
C95	C	-0.149026	-0.042461	0.000163
C96	C	0.350974	0.457539	0.500163
C97	C	-0.149539	0.007951	0.000156
C98	C	0.350461	0.507951	0.500156
C99	C	0.026775	0.032287	0.000131
C100	C	0.526775	0.532287	0.500131
C101	C	0.027284	-0.018125	0.000137
C102	C	0.527284	0.481875	0.500137
C103	C	-0.016538	-0.049416	0.000145
C104	C	0.483462	0.450584	0.500145
C105	C	-0.150292	0.566338	0.000136
C106	C	0.349708	1.066338	0.500136
C107	C	-0.203947	0.566891	0.000145
C108	C	0.296053	1.066891	0.500145
C109	C	-0.542762	0.526187	0.000093
C110	C	-0.042762	1.026187	0.500093
C111	C	-0.744422	0.528238	0.000082
C112	C	-0.244422	1.028238	0.500082
O113	O	-0.775677	0.491017	0.000035
O114	O	-0.275677	0.991017	0.500035
N115	N	-0.763546	0.572573	0.000092
N116	N	-0.263546	1.072573	0.500092
C117	C	-0.732251	0.616399	0.000098
C118	C	-0.232251	1.116399	0.500098
O119	O	-0.753144	0.654156	0.000096
O120	O	-0.253144	1.154156	0.500096
C121	C	-0.530592	0.614347	0.000102
C122	C	-0.030592	1.114347	0.500102
C123	C	-0.511472	0.570009	0.000102
C124	C	-0.011472	1.070009	0.500102
C125	C	-0.523641	0.481853	0.000092
C126	C	-0.023641	0.981853	0.500092
C127	C	-0.473229	0.481340	0.000100
C128	C	0.026771	0.981340	0.500100
C129	C	-0.441938	0.525162	0.000108
C130	C	0.058062	1.025162	0.500108
C131	C	-0.461060	0.569497	0.000110
C132	C	0.038940	1.069497	0.500110
C133	C	-0.499299	0.658172	0.000101
C134	C	0.000701	1.158172	0.500101
C135	C	-0.448881	0.657656	0.000100
C136	C	0.051119	1.157656	0.500100
C137	C	-0.429761	0.613317	0.000100
C138	C	0.070239	1.113317	0.500100
C139	C	-0.379357	0.612807	0.000126
C140	C	0.120643	1.112807	0.500126
N141	N	-0.360233	0.568472	0.000117
N142	N	0.139767	1.068472	0.500117
C143	C	-0.391524	0.524649	0.000108
C144	C	0.108476	1.024649	0.500108
C145	C	-0.838125	0.617473	0.000098
C146	C	-0.338125	1.117473	0.500098
C147	C	-0.888539	0.617986	0.000098
C148	C	-0.388539	1.117986	0.500098
C149	C	-0.900707	0.529825	0.000081
C150	C	-0.400707	1.029825	0.500081
C151	C	-0.850291	0.529312	0.000087
C152	C	-0.350291	1.029312	0.500087
C153	C	-0.819001	0.573138	0.000088
C154	C	-0.319001	1.073138	0.500088
C155	C	-0.285655	0.523577	0.000125
C156	C	0.214345	1.023577	0.500125
C157	C	-0.235238	0.523069	0.000136
C158	C	0.264762	1.023069	0.500136
C159	C	-0.223075	0.611229	0.000149
C160	C	0.276925	1.111229	0.500149
C161	C	-0.273487	0.611738	0.000142
C162	C	0.226513	1.111738	0.500142
C163	C	-0.304777	0.567908	0.000127
C164	C	0.195223	1.067908	0.500127
O165	O	-0.348073	0.650008	0.000163
O166	O	0.151927	1.150008	0.500163
O167	O	-0.370621	0.486898	0.000089
O168	O	0.129379	0.986898	0.500089
C169	C	-0.593174	0.526699	0.000085
C170	C	-0.093174	1.026699	0.500085
C171	C	-0.612295	0.571034	0.000086
C172	C	-0.112295	1.071034	0.500086
C173	C	-0.581005	0.614856	0.000095
C174	C	-0.081005	1.114856	0.500095
C175	C	-0.662710	0.571547	0.000087
C176	C	-0.162710	1.071547	0.500087
C177	C	-0.694001	0.527725	0.000078
C178	C	-0.194001	1.027725	0.500078
C179	C	-0.674877	0.483389	0.000069
C180	C	-0.174877	0.983389	0.500069
C181	C	-0.624465	0.482877	0.000076
C182	C	-0.124465	0.982877	0.500076
C183	C	-0.600129	0.659191	0.000105
C184	C	-0.100129	1.159191	0.500105
C185	C	-0.650541	0.659700	0.000098
C186	C	-0.150541	1.159700	0.500098
C187	C	-0.681832	0.615878	0.000089
C188	C	-0.181832	1.115878	0.500089
C189	C	0.026515	0.574716	0.000105
C190	C	0.526515	1.074716	0.500105
C191	C	0.080170	0.574164	0.000089
C192	C	0.580170	1.074164	0.500089
C193	C	-0.057699	0.658931	0.000136
C194	C	0.442301	1.158931	0.500136
C195	C	-0.058252	0.712586	0.000140
C196	C	0.441748	1.212586	0.500140
N197	N	-0.061904	0.570513	0.219596
N198	N	0.438096	1.070513	0.719596
N199	N	-0.061869	0.570545	-0.219353
N200	N	0.438131	1.070545	0.280647
C201	C	-0.096462	0.535934	0.469249
C202	C	0.403538	1.035934	0.969249
C203	C	-0.105518	0.579543	0.531062
C204	C	0.394482	1.079543	1.031062
C205	C	-0.061892	0.570525	0.408758
C206	C	0.438108	1.070525	0.908758
C207	C	-0.052848	0.526927	0.531039
C208	C	0.447152	1.026927	1.031039
C209	C	-0.061882	0.570532	0.591479
C210	C	0.438118	1.070532	1.091479
C211	C	-0.070970	0.614156	0.469210
C212	C	0.429030	1.114156	0.969210
C213	C	-0.018281	0.561512	0.469181
C214	C	0.481719	1.061512	0.969181
C215	C	-0.027318	0.605152	0.530966
C216	C	0.472682	1.105152	1.030966
C217	C	-0.061900	0.570520	0.303496
C218	C	0.438100	1.070520	0.803496
C219	C	-0.061875	0.570543	0.696738
C220	C	0.438125	1.070543	1.196738
H221	H	0.061861	0.117558	0.000137
H222	H	0.561861	0.617558	0.500137
H223	H	-0.184708	-0.067947	0.000165
H224	H	0.315292	0.432053	0.500165
Br225	Br	-0.145224	0.487226	0.424077
Br226	Br	0.354776	0.987226	0.924077
H227	H	-0.139207	-0.202311	0.000148
H228	H	0.360793	0.297689	0.500148
H229	H	-0.219673	0.486962	0.000141
H230	H	0.280327	0.986962	0.500141
H231	H	0.014492	0.434827	0.000082
H232	H	0.514492	0.934827	0.500082
H233	H	0.018584	0.553867	0.441979
H234	H	0.518584	1.053867	0.941979
Br235	Br	0.021419	0.653964	0.575856
Br236	Br	0.521419	1.153964	1.075856
H237	H	-0.812652	0.653163	0.000100
H238	H	-0.312652	1.153163	0.500100
Br239	Br	0.084721	0.225997	0.000143
Br240	Br	0.584721	0.725997	0.500143
H241	H	-0.045202	0.490054	0.558200
H242	H	0.454798	0.990054	1.058200
Br243	Br	-0.166981	0.592263	0.576364
Br244	Br	0.333019	1.092263	1.076364
Br245	Br	-0.299438	0.671911	0.000182
Br246	Br	0.200562	1.171911	0.500182
H247	H	-0.078660	0.651037	0.442165
H248	H	0.421340	1.151037	0.942165
H249	H	-0.145454	0.412743	0.000101
H250	H	0.354546	0.912743	0.500101
Br251	Br	-0.598524	0.422701	0.000076
Br252	Br	-0.098524	0.922701	0.500076
Br253	Br	0.039496	0.332978	0.000101
Br254	Br	0.539496	0.832978	0.500101
H255	H	-0.185643	0.023514	0.000156
H256	H	0.314357	0.523514	0.500156
H257	H	-0.187180	0.174750	0.000134
H258	H	0.312820	0.674750	0.500134
Br259	Br	-0.717353	0.423917	0.000063
Br260	Br	-0.217353	0.923917	0.500063
Br261	Br	-0.168323	0.304305	0.000133
Br262	Br	0.331677	0.804305	0.500133
H263	H	-0.186251	0.083302	0.000151
H264	H	0.313749	0.583302	0.500151
Br265	Br	0.086255	0.074746	0.000124
Br266	Br	0.586255	0.574746	0.500124
H267	H	-0.138273	-0.293777	0.000155
H268	H	0.361727	0.206223	0.500155
Br269	Br	0.045745	-0.282067	0.000106
Br270	Br	0.545745	0.217933	0.500106
H271	H	0.020747	-0.180236	0.000134
H272	H	0.520747	0.319764	0.500134
Br273	Br	-0.824347	0.469137	0.000087
Br274	Br	-0.324347	0.969137	0.500087
H275	H	-0.423407	0.693344	0.000096
H276	H	0.076593	1.193344	0.500096
H277	H	-0.311125	0.487886	0.000112
H278	H	0.188875	0.987886	0.500112
Br279	Br	0.087463	-0.044068	0.000122
Br280	Br	0.587463	0.455932	0.500122
H281	H	-0.457666	0.445236	0.000092
H282	H	0.042334	0.945236	0.500092
H283	H	-0.926193	0.494143	0.000078
H284	H	-0.426193	0.994143	0.500078
Br285	Br	-0.914482	0.678161	0.000116
Br286	Br	-0.414482	1.178161	0.500116
H287	H	-0.549113	0.446165	0.000082
H288	H	-0.049113	0.946165	0.500082
H289	H	-0.514857	0.694277	0.000101
H290	H	-0.014857	1.194277	0.500101
Br291	Br	-0.180600	0.670699	0.000170
Br292	Br	0.319400	1.170699	0.500170
H293	H	-0.666104	0.695808	0.000105
H294	H	-0.166104	1.195808	0.500105
Br295	Br	-0.557670	0.718671	0.000118
Br296	Br	-0.057670	1.218671	0.500118
