data_functionalizedCrystal
_audit_creation_method	'MofGen! by Chris Wilmer'
_symmetry_space_group_name_H-M	'P1'
_symmetry_Int_Tables_number	1
_symmetry_cell_setting	triclinic
loop_
_symmetry_equiv_pos_as_xyz
  x,y,z
_cell_length_a	12.594517
_cell_length_b	25.639239
_cell_length_c	12.594509
_cell_angle_alpha	90.034128
_cell_angle_beta	90.021327
_cell_angle_gamma	90.038486
loop_
_atom_site_label
_atom_site_type_symbol
_atom_site_fract_x
_atom_site_fract_y
_atom_site_fract_z
Zn1	Zn	1.627100	-0.208138	0.601816
Zn2	Zn	1.626920	-0.295580	0.423819
Zn3	Zn	1.449103	-0.208160	0.423845
Zn4	Zn	1.449015	-0.295544	0.601750
O5	O	1.538035	-0.251855	0.512808
O6	O	1.776022	-0.219743	0.578222
O7	O	1.603294	-0.284008	0.274877
O8	O	1.472827	-0.134992	0.447492
O9	O	1.775890	-0.283987	0.447448
O10	O	1.603600	-0.134976	0.578247
O11	O	1.472653	-0.219781	0.274896
O12	O	1.300146	-0.219746	0.447427
O13	O	1.472677	-0.283925	0.750704
O14	O	1.300081	-0.283946	0.578133
O15	O	1.603515	-0.219708	0.750753
O16	O	1.603209	-0.368740	0.447384
O17	O	1.472503	-0.368714	0.578108
C18	C	1.261494	-0.251845	0.512776
C19	C	1.143188	-0.251853	0.512788
C20	C	1.073939	-0.216887	0.441833
C21	C	1.003090	-0.264579	0.415643
C22	C	1.003239	-0.204184	0.538996
C23	C	1.073897	-0.299570	0.486547
C24	C	1.074052	-0.239144	0.609946
C25	C	1.003234	-0.286869	0.583793
C26	C	1.537856	-0.387698	0.512759
C27	C	1.537876	-0.445812	0.512774
C28	C	1.606271	-0.806176	0.444855
C29	C	1.606312	-0.860781	0.444870
O30	O	1.664278	-0.889019	0.387070
N31	N	1.538222	-0.888094	0.512878
C32	C	1.470093	-0.860801	0.580885
O33	O	1.412182	-0.889048	0.638733
C34	C	1.470058	-0.806198	0.580875
C35	C	1.538145	-0.778887	0.512854
C36	C	1.674353	-0.778865	0.376841
C37	C	1.674310	-0.724265	0.376826
C38	C	1.606185	-0.696975	0.444825
C39	C	1.538102	-0.724286	0.512839
C40	C	1.401936	-0.778905	0.648886
C41	C	1.401907	-0.724298	0.648871
C42	C	1.469994	-0.696987	0.580850
C43	C	1.469934	-0.642396	0.580822
N44	N	1.538024	-0.615083	0.512814
C45	C	1.606150	-0.642372	0.444815
C46	C	1.470174	-0.975472	0.580901
C47	C	1.470202	-1.030074	0.580906
C48	C	1.606423	-1.030050	0.444892
C49	C	1.606388	-0.975447	0.444883
C50	C	1.538264	-0.948158	0.512892
C51	C	1.606054	-0.527707	0.444787
C52	C	1.606002	-0.473102	0.444775
C53	C	1.469786	-0.473131	0.580792
C54	C	1.469833	-0.527731	0.580801
C55	C	1.537976	-0.555018	0.512795
O56	O	1.412001	-0.614124	0.638596
O57	O	1.664062	-0.614119	0.386986
C58	C	1.815655	-0.251866	0.512840
C59	C	1.933961	-0.251871	0.512853
C60	C	1.538106	-0.251810	0.790429
C61	C	1.538136	-0.251790	0.908734
C62	C	1.538243	-0.115482	0.512880
C63	C	1.538332	-0.057368	0.512911
C64	C	1.538025	-0.251863	0.236267
C65	C	1.538201	-0.251736	0.117962
C66	C	1.466996	-0.286698	0.977961
C67	C	1.564106	-0.299473	1.048748
C68	C	1.441102	-0.238984	1.048746
C69	C	1.635297	-0.264590	0.977964
C70	C	1.512227	-0.204079	0.977955
C71	C	1.609405	-0.216836	1.048711
H72	H	1.105245	-0.228368	0.692058
C73	C	1.386702	-0.326034	0.936469
C74	C	1.310189	-0.300205	0.875363
C75	C	1.236204	-0.336424	0.837134
H76	H	1.421947	-0.351224	0.893860
H77	H	1.353154	-0.342928	0.994604
H78	H	1.343734	-0.283319	0.817236
H79	H	1.274917	-0.275018	0.917949
H80	H	1.202656	-0.353318	0.895269
H81	H	1.271459	-0.361611	0.794529
H82	H	1.184277	-0.318903	0.795677
C83	C	1.331617	-0.224673	1.090267
C84	C	1.292514	-0.265479	1.152919
C85	C	1.191653	-0.252322	1.191172
H86	H	1.336351	-0.193832	1.131834
H87	H	1.284980	-0.218917	1.032142
H88	H	1.339139	-0.271228	1.211035
H89	H	1.287754	-0.296323	1.111375
H90	H	1.145016	-0.246566	1.133047
H91	H	1.196397	-0.221480	1.232734
H92	H	1.165105	-0.280008	1.233677
H93	H	0.972144	-0.163870	0.561099
H94	H	1.661831	-0.953213	0.389495
C95	C	1.115308	-0.353306	0.456863
C96	C	1.226471	-0.352660	0.457106
C97	C	1.264657	-0.402148	0.429751
H98	H	1.090646	-0.378213	0.506931
H99	H	1.090480	-0.362403	0.388056
H100	H	1.251288	-0.343570	0.525903
H101	H	1.251161	-0.327763	0.407037
H102	H	1.239829	-0.411245	0.360944
H103	H	1.239988	-0.427052	0.479822
H104	H	1.340084	-0.401716	0.429903
C105	C	1.679815	-0.443356	0.370962
C106	C	1.665183	-0.389695	0.385475
C107	C	1.733149	-0.362280	0.317491
H108	H	1.751371	-0.452200	0.386541
H109	H	1.664273	-0.452310	0.299413
H110	H	1.680733	-0.380745	0.457008
H111	H	1.593642	-0.380836	0.369888
H112	H	1.717607	-0.371234	0.245942
H113	H	1.804701	-0.371128	0.333076
H114	H	1.723224	-0.325868	0.327322
C115	C	1.396077	-0.945941	0.654776
C116	C	1.336442	-0.981553	0.714310
C117	C	1.268166	-0.954372	0.782364
H118	H	1.436627	-0.924602	0.701286
H119	H	1.349649	-0.924689	0.614038
H120	H	1.382864	-1.002796	0.755044
H121	H	1.295870	-1.002893	0.667828
H122	H	1.221738	-0.933120	0.741626
H123	H	1.308725	-0.933034	0.828867
H124	H	1.227689	-0.978531	0.822759
H125	H	0.972385	-0.316480	0.643825
H126	H	1.661544	-0.549918	0.389413
C127	C	1.744794	-0.279155	0.936840
C128	C	1.771867	-0.328927	0.973605
C129	C	1.872728	-0.342360	0.935754
H130	H	1.744218	-0.279144	0.861421
H131	H	1.795431	-0.254516	0.961663
H132	H	1.721243	-0.353560	0.948776
H133	H	1.772465	-0.328950	1.049019
H134	H	1.923365	-0.317721	0.960577
H135	H	1.872143	-0.342347	0.860336
H136	H	1.891114	-0.376129	0.960701
C137	C	1.115284	-0.177565	0.361563
C138	C	1.079342	-0.191128	0.260016
C139	C	1.117418	-0.154923	0.186042
H140	H	1.090074	-0.143762	0.379341
H141	H	1.190713	-0.177616	0.362477
H142	H	1.003929	-0.191071	0.259104
H143	H	1.104550	-0.224925	0.242205
H144	H	1.192847	-0.154975	0.186957
H145	H	1.092205	-0.121122	0.203830
H146	H	1.093045	-0.164123	0.117133
H147	H	1.729756	-0.702031	0.321441
H148	H	1.729835	-0.801079	0.321468
H149	H	1.669663	-0.187292	1.079579
H150	H	1.661898	-1.052279	0.389527
H151	H	1.414749	-1.052306	0.636285
C152	C	1.327975	-0.808453	0.722860
C153	C	1.268341	-0.772857	0.782424
C154	C	1.200204	-0.800056	0.850596
H155	H	1.281531	-0.829795	0.682239
H156	H	1.368658	-0.829705	0.769339
H157	H	1.227661	-0.751614	0.735951
H158	H	1.314756	-0.751515	0.823066
H159	H	1.240887	-0.821307	0.897075
H160	H	1.153768	-0.821396	0.809966
H161	H	1.159741	-0.775908	0.891025
C162	C	1.328118	-0.694643	0.722843
C163	C	1.388327	-0.663250	0.791128
C164	C	1.320390	-0.635930	0.859291
H165	H	1.281724	-0.673337	0.682206
H166	H	1.287596	-0.718714	0.763414
H167	H	1.428831	-0.639182	0.750561
H168	H	1.434718	-0.684543	0.831787
H169	H	1.279867	-0.660001	0.899862
H170	H	1.273999	-0.614627	0.818646
H171	H	1.361232	-0.614631	0.905636
C172	C	0.961264	-0.278901	0.306211
C173	C	0.850111	-0.279164	0.308022
C174	C	0.811527	-0.292339	0.207233
H175	H	0.985352	-0.254026	0.255798
H176	H	0.986391	-0.312542	0.287034
H177	H	0.824995	-0.245528	0.327186
H178	H	0.825995	-0.304040	0.358414
H179	H	0.836654	-0.325980	0.188056
H180	H	0.835622	-0.267462	0.156828
H181	H	0.736107	-0.292524	0.208451
H182	H	1.414316	-0.450903	0.636153
C183	C	1.482707	-0.150345	0.936503
C184	C	1.380955	-0.137166	0.972280
C185	C	1.353706	-0.087674	0.934101
H186	H	1.532457	-0.125387	0.961754
H187	H	1.483479	-0.150674	0.861076
H188	H	1.380191	-0.136834	1.047692
H189	H	1.331182	-0.162111	0.947032
H190	H	1.354478	-0.088003	0.858674
H191	H	1.403462	-0.062720	0.959355
H192	H	1.284662	-0.078728	0.958362
C193	C	1.395869	-0.557292	0.654764
C194	C	1.336215	-0.521703	0.714327
C195	C	1.268087	-0.548911	0.782493
H196	H	1.349437	-0.578637	0.614139
H197	H	1.436559	-0.578540	0.701244
H198	H	1.295528	-0.500464	0.667854
H199	H	1.382619	-0.500356	0.754974
H200	H	1.308777	-0.570158	0.828973
H201	H	1.221663	-0.570255	0.741860
H202	H	1.227611	-0.524768	0.822922
H203	H	1.586055	-0.339798	1.079845
