data_functionalizedCrystal
_audit_creation_method	'MofGen! by Chris Wilmer'
_symmetry_space_group_name_H-M	'P1'
_symmetry_Int_Tables_number	1
_symmetry_cell_setting	triclinic
loop_
_symmetry_equiv_pos_as_xyz
  x,y,z
_cell_length_a	6.817900
_cell_length_b	9.582889
_cell_length_c	9.582880
_cell_angle_alpha	89.899755
_cell_angle_beta	111.207034
_cell_angle_gamma	111.207298
loop_
_atom_site_label
_atom_site_type_symbol
_atom_site_fract_x
_atom_site_fract_y
_atom_site_fract_z
V1	V	-4.156354	-0.206425	-0.466328
V2	V	-3.656354	0.293575	0.033672
O3	O	-4.100353	0.010569	-0.457733
O4	O	-3.600353	0.510569	0.042267
O5	O	-4.146464	-0.409930	-0.462868
O6	O	-3.646464	0.090070	0.037132
O7	O	-4.146462	-0.202964	-0.669834
O8	O	-3.646462	0.297036	-0.169834
O9	O	-4.100354	-0.197829	-0.249334
O10	O	-3.600354	0.302171	0.250666
V11	V	-4.630003	-0.180503	-0.440407
V12	V	-4.130003	0.319497	0.059593
O13	O	-4.439274	-0.263285	-0.523189
O14	O	-3.939274	0.236715	-0.023189
O15	O	-4.797280	-0.123643	-0.383546
O16	O	-4.297280	0.376357	0.116454
O17	O	-4.416687	0.023002	-0.443867
O18	O	-3.916687	0.523002	0.056133
O19	O	-4.803401	-0.397497	-0.449002
O20	O	-4.303401	0.102503	0.050998
O21	O	-4.803400	-0.189099	-0.657401
O22	O	-4.303400	0.310901	-0.157401
O23	O	-4.416688	-0.183964	-0.236901
O24	O	-3.916688	0.316036	0.263099
C25	C	-3.999587	-0.459550	-0.455441
C26	C	-3.499587	0.040450	0.044559
C27	C	-4.073043	-0.625916	-0.453968
C28	C	-3.573043	-0.125916	0.046032
C29	C	-3.999583	-0.195542	-0.719445
C30	C	-3.499583	0.304458	-0.219445
C31	C	-4.073034	-0.194059	-0.885810
C32	C	-3.573034	0.305941	-0.385810
C33	C	-4.226906	0.072614	-0.451290
C34	C	-3.726906	0.572614	0.048710
C35	C	-4.132690	0.238979	-0.452772
C36	C	-3.632690	0.738979	0.047228
C37	C	-4.226909	-0.191391	-0.187282
C38	C	-3.726909	0.308609	0.312718
C39	C	-4.132695	-0.192866	-0.020916
C40	C	-3.632695	0.307134	0.479084
