data_functionalizedCrystal
_audit_creation_method	'MofGen! by Chris Wilmer'
_symmetry_space_group_name_H-M	'P1'
_symmetry_Int_Tables_number	1
_symmetry_cell_setting	triclinic
loop_
_symmetry_equiv_pos_as_xyz
  x,y,z
_cell_length_a	25.639242
_cell_length_b	25.639240
_cell_length_c	25.639234
_cell_angle_alpha	89.980434
_cell_angle_beta	89.973005
_cell_angle_gamma	90.027587
loop_
_atom_site_label
_atom_site_type_symbol
_atom_site_fract_x
_atom_site_fract_y
_atom_site_fract_z
Zn1	Zn	0.799274	-0.208247	-0.295760
Zn2	Zn	1.132607	0.125087	0.037573
Zn3	Zn	1.465941	0.458420	0.370906
Zn4	Zn	0.799200	-0.295674	-0.208332
Zn5	Zn	1.132534	0.037659	0.125001
Zn6	Zn	1.465867	0.370992	0.458334
Zn7	Zn	0.711843	-0.208248	-0.208325
Zn8	Zn	1.045176	0.125085	0.125009
Zn9	Zn	1.378510	0.458419	0.458342
Zn10	Zn	0.711806	-0.295646	-0.295722
Zn11	Zn	1.045139	0.037687	0.037611
Zn12	Zn	1.378472	0.371021	0.370944
O13	O	0.755531	-0.251954	-0.252035
O14	O	1.088864	0.081380	0.081298
O15	O	1.422197	0.414713	0.414632
O16	O	0.872429	-0.219855	-0.284182
O17	O	1.205763	0.113478	0.049151
O18	O	1.539096	0.446811	0.382484
O19	O	0.787597	-0.284089	-0.135166
O20	O	1.120930	0.049244	0.198167
O21	O	1.454264	0.382577	0.531500
O22	O	0.723487	-0.135083	-0.219936
O23	O	1.056821	0.198251	0.113398
O24	O	1.390154	0.531584	0.446731
O25	O	0.872375	-0.284088	-0.219949
O26	O	1.205709	0.049245	0.113384
O27	O	1.539042	0.382579	0.446717
O28	O	0.787723	-0.135082	-0.284175
O29	O	1.121056	0.198252	0.049159
O30	O	1.454389	0.531585	0.382492
O31	O	0.723416	-0.219858	-0.135160
O32	O	1.056749	0.113476	0.198173
O33	O	1.390083	0.446809	0.531506
O34	O	0.638673	-0.219830	-0.219899
O35	O	0.972006	0.113503	0.113435
O36	O	1.305340	0.446837	0.446768
O37	O	0.723424	-0.284040	-0.368893
O38	O	1.056757	0.049293	-0.035559
O39	O	1.390090	0.382627	0.297774
O40	O	0.638645	-0.284041	-0.284110
O41	O	0.971979	0.049292	0.049224
O42	O	1.305312	0.382626	0.382557
O43	O	0.787686	-0.219828	-0.368921
O44	O	1.121020	0.113505	-0.035587
O45	O	1.454353	0.446839	0.297746
O46	O	0.787561	-0.368836	-0.219912
O47	O	1.120894	-0.035502	0.113421
O48	O	1.454227	0.297831	0.446754
O49	O	0.723352	-0.368815	-0.284117
O50	O	1.056685	-0.035482	0.049216
O51	O	1.390019	0.297852	0.382549
C52	C	0.619688	-0.251933	-0.252000
C53	C	0.953022	0.081400	0.081334
C54	C	1.286355	0.414734	0.414667
C55	C	0.561574	-0.251937	-0.251997
C56	C	0.894907	0.081396	0.081337
C57	C	1.228241	0.414730	0.414670
C58	C	0.755459	-0.387796	-0.252023
C59	C	1.088792	-0.054463	0.081310
C60	C	1.422125	0.278870	0.414644
C61	C	0.755475	-0.445910	-0.252035
C62	C	1.088809	-0.112577	0.081298
C63	C	1.422142	0.220756	0.414631
C64	C	0.201206	-0.285444	-0.285438
C65	C	0.534539	0.047889	0.047895
C66	C	0.867872	0.381222	0.381229
C67	C	0.146601	-0.285447	-0.285446
C68	C	0.479935	0.047886	0.047887
C69	C	0.813268	0.381219	0.381221
O70	O	0.118360	-0.313911	-0.313849
O71	O	0.451693	0.019422	0.019484
O72	O	0.785027	0.352756	0.352818
N73	N	0.119292	-0.251968	-0.252069
N74	N	0.452625	0.081365	0.081264
N75	N	0.785958	0.414699	0.414598
C76	C	0.146589	-0.218480	-0.218685
C77	C	0.479922	0.114854	0.114648
C78	C	0.813256	0.448187	0.447981
O79	O	0.118346	-0.190003	-0.190297
O80	O	0.451680	0.143331	0.143037
O81	O	0.785013	0.476664	0.476370
C82	C	0.201192	-0.218474	-0.218680
C83	C	0.534526	0.114859	0.114653
C84	C	0.867859	0.448192	0.447986
C85	C	0.228499	-0.251959	-0.252056
C86	C	0.561833	0.081374	0.081278
C87	C	0.895166	0.414707	0.414611
C88	C	0.228513	-0.318926	-0.318811
C89	C	0.561846	0.014407	0.014522
C90	C	0.895179	0.347740	0.347856
C91	C	0.283113	-0.318924	-0.318802
C92	C	0.616446	0.014410	0.014531
C93	C	0.949780	0.347743	0.347865
C94	C	0.310407	-0.285439	-0.285420
C95	C	0.643740	0.047894	0.047914
C96	C	0.977073	0.381228	0.381247
C97	C	0.283100	-0.251957	-0.252047
C98	C	0.616433	0.081377	0.081287
C99	C	0.949767	0.414710	0.414620
C100	C	0.228489	-0.184983	-0.185300
C101	C	0.561822	0.148350	0.148034
C102	C	0.895156	0.481683	0.481367
C103	C	0.283096	-0.184981	-0.185297
C104	C	0.616429	0.148353	0.148036
C105	C	0.949763	0.481686	0.481369
C106	C	0.310403	-0.218466	-0.218673
C107	C	0.643736	0.114867	0.114660
C108	C	0.977069	0.448201	0.447994
C109	C	0.364994	-0.218469	-0.218655
C110	C	0.698327	0.114864	0.114678
C111	C	1.031661	0.448197	0.448011
N112	N	0.392304	-0.251949	-0.252032
N113	N	0.725637	0.081385	0.081301
N114	N	1.058970	0.414718	0.414634
C115	C	0.365010	-0.285434	-0.285414
C116	C	0.698343	0.047900	0.047919
C117	C	1.031677	0.381233	0.381252
C118	C	0.031919	-0.218493	-0.218700
C119	C	0.365252	0.114840	0.114634
C120	C	0.698585	0.448174	0.447967
C121	C	-0.022684	-0.218501	-0.218702
C122	C	0.310650	0.114833	0.114632
C123	C	0.643983	0.448166	0.447965
C124	C	-0.022668	-0.285468	-0.285463
C125	C	0.310665	0.047865	0.047870
C126	C	0.643999	0.381199	0.381203
C127	C	0.031935	-0.285462	-0.285458
C128	C	0.365269	0.047871	0.047875
C129	C	0.698602	0.381204	0.381209
C130	C	0.059228	-0.251972	-0.252077
C131	C	0.392562	0.081361	0.081257
C132	C	0.725895	0.414694	0.414590
C133	C	0.479675	-0.285426	-0.285393
C134	C	0.813008	0.047908	0.047941
C135	C	1.146342	0.381241	0.381274
C136	C	0.534281	-0.285422	-0.285379
C137	C	0.867614	0.047912	0.047954
C138	C	1.200947	0.381245	0.381288
C139	C	0.534260	-0.218453	-0.218620
C140	C	0.867593	0.114881	0.114714
C141	C	1.200926	0.448214	0.448047
C142	C	0.479659	-0.218458	-0.218631
C143	C	0.812993	0.114875	0.114702
C144	C	1.146326	0.448208	0.448036
C145	C	0.452368	-0.251947	-0.252022
C146	C	0.785702	0.081387	0.081312
C147	C	1.119035	0.414720	0.414645
O148	O	0.393270	-0.190019	-0.190268
O149	O	0.726603	0.143315	0.143065
O150	O	1.059937	0.476648	0.476398
O151	O	0.393260	-0.313901	-0.313803
O152	O	0.726593	0.019433	0.019530
O153	O	1.059926	0.352766	0.352863
C154	C	0.788975	-0.697052	-0.285518
C155	C	1.122308	-0.363719	0.047815
C156	C	1.455642	-0.030385	0.381148
C157	C	0.788959	-0.642448	-0.285514
C158	C	1.122293	-0.309114	0.047819
C159	C	1.455626	0.024219	0.381152
O160	O	0.817382	-0.614167	-0.313965
O161	O	1.150715	-0.280834	0.019368
O162	O	1.484048	0.052500	0.352701
N163	N	0.755533	-0.615184	-0.252042
N164	N	1.088866	-0.281851	0.081292
N165	N	1.422199	0.051483	0.414625
C166	C	0.722123	-0.642528	-0.218567
C167	C	1.055457	-0.309194	0.114766
C168	C	1.388790	0.024139	0.448099
O169	O	0.693690	-0.614324	-0.190096
O170	O	1.027024	-0.280991	0.143238
O171	O	1.360357	0.052343	0.476571
C172	C	0.722142	-0.697131	-0.218569
C173	C	1.055475	-0.363798	0.114764
C174	C	1.388809	-0.030464	0.448098
C175	C	0.755567	-0.724392	-0.252047
C176	C	1.088900	-0.391058	0.081286
C177	C	1.422234	-0.057725	0.414619
C178	C	0.822398	-0.724313	-0.318994
C179	C	1.155731	-0.390979	0.014340
C180	C	1.489064	-0.057646	0.347673
C181	C	0.822413	-0.778913	-0.318998
C182	C	1.155746	-0.445580	0.014335
C183	C	1.489079	-0.112247	0.347669
C184	C	0.789005	-0.806253	-0.285527
C185	C	1.122338	-0.472920	0.047806
C186	C	1.455671	-0.139586	0.381139
C187	C	0.755582	-0.778992	-0.252052
C188	C	1.088915	-0.445659	0.081281
C189	C	1.422249	-0.112326	0.414615
C190	C	0.688736	-0.724474	-0.185092
C191	C	1.022069	-0.391140	0.148241
C192	C	1.355402	-0.057807	0.481574
C193	C	0.688758	-0.779081	-0.185097
C194	C	1.022091	-0.445747	0.148237
C195	C	1.355424	-0.112414	0.481570
C196	C	0.722183	-0.806341	-0.218575
C197	C	1.055516	-0.473008	0.114758
C198	C	1.388849	-0.139675	0.448092
C199	C	0.722189	-0.860933	-0.218586
C200	C	1.055522	-0.527599	0.114748
C201	C	1.388856	-0.194266	0.448081
N202	N	0.755616	-0.888196	-0.252058
N203	N	1.088949	-0.554863	0.081275
N204	N	1.422282	-0.221530	0.414608
C205	C	0.789024	-0.860856	-0.285529
C206	C	1.122357	-0.527523	0.047804
C207	C	1.455690	-0.194190	0.381138
C208	C	0.722087	-0.527857	-0.218566
C209	C	1.055420	-0.194524	0.114768
C210	C	1.388754	0.138809	0.448101
C211	C	0.722065	-0.473255	-0.218566
C212	C	1.055399	-0.139922	0.114767
C213	C	1.388732	0.193412	0.448101
C214	C	0.788902	-0.473179	-0.285513
C215	C	1.122236	-0.139845	0.047821
C216	C	1.455569	0.193488	0.381154
C217	C	0.788921	-0.527782	-0.285514
C218	C	1.122254	-0.194448	0.047819
C219	C	1.455588	0.138885	0.381152
C220	C	0.755514	-0.555121	-0.252038
C221	C	1.088847	-0.221787	0.081295
C222	C	1.422180	0.111546	0.414629
C223	C	0.789052	-0.975521	-0.285536
C224	C	1.122385	-0.642188	0.047797
C225	C	1.455719	-0.308855	0.381130
C226	C	0.789062	-1.030127	-0.285539
C227	C	1.122396	-0.696793	0.047794
C228	C	1.455729	-0.363460	0.381127
C229	C	0.722228	-1.030198	-0.218591
C230	C	1.055561	-0.696865	0.114742
C231	C	1.388894	-0.363532	0.448075
C232	C	0.722215	-0.975598	-0.218590
C233	C	1.055548	-0.642264	0.114744
C234	C	1.388882	-0.308931	0.448077
C235	C	0.755632	-0.948261	-0.252064
C236	C	1.088965	-0.614927	0.081269
C237	C	1.422298	-0.281594	0.414603
O238	O	0.693783	-0.889248	-0.190148
O239	O	1.027116	-0.555915	0.143186
O240	O	1.360449	-0.222581	0.476519
O241	O	0.817457	-0.889067	-0.313991
O242	O	1.150790	-0.555733	0.019342
O243	O	1.484123	-0.222400	0.352676
C244	C	0.891904	-0.251975	-0.252071
C245	C	1.225237	0.081359	0.081262
C246	C	1.558570	0.414692	0.414596
C247	C	0.950018	-0.251984	-0.252086
C248	C	1.283351	0.081350	0.081247
C249	C	1.616684	0.414683	0.414581
C250	C	0.755559	-0.251931	-0.388408
C251	C	1.088892	0.081403	-0.055075
C252	C	1.422226	0.414736	0.278259
C253	C	0.755571	-0.251921	-0.446522
C254	C	1.088905	0.081413	-0.113189
C255	C	1.422238	0.414746	0.220145
C256	C	0.755617	-0.115581	-0.252059
C257	C	1.088951	0.217753	0.081275
C258	C	1.422284	0.551086	0.414608
C259	C	0.755654	-0.057467	-0.252069
C260	C	1.088988	0.275867	0.081265
C261	C	1.422321	0.609200	0.414598
C262	C	0.789004	-0.285323	-0.697711
C263	C	1.122337	0.048010	-0.364378
C264	C	1.455671	0.381343	-0.031044
C265	C	0.788998	-0.285334	-0.643107
C266	C	1.122332	0.047999	-0.309773
C267	C	1.455665	0.381332	0.023560
O268	O	0.817400	-0.313792	-0.614866
O269	O	1.150733	0.019541	-0.281533
O270	O	1.484067	0.352875	0.051800
N271	N	0.755583	-0.251895	-0.615796
N272	N	1.088916	0.081438	-0.282463
N273	N	1.422249	0.414771	0.050871
C274	C	0.722166	-0.218447	-0.643093
C275	C	1.055500	0.114886	-0.309759
C276	C	1.388833	0.448219	0.023574
O277	O	0.693742	-0.190006	-0.614849
O278	O	1.027076	0.143327	-0.281515
O279	O	1.360409	0.476660	0.051818
C280	C	0.722169	-0.218439	-0.697696
C281	C	1.055503	0.114894	-0.364363
C282	C	1.388836	0.448227	-0.031029
C283	C	0.755591	-0.251877	-0.725004
C284	C	1.088925	0.081457	-0.391670
C285	C	1.422258	0.414790	-0.058337
C286	C	0.822423	-0.318758	-0.725019
C287	C	1.155756	0.014575	-0.391686
C288	C	1.489089	0.347908	-0.058352
C289	C	0.822429	-0.318747	-0.779620
C290	C	1.155762	0.014587	-0.446286
C291	C	1.489095	0.347920	-0.112953
C292	C	0.789016	-0.285300	-0.806912
C293	C	1.122349	0.048033	-0.473579
C294	C	1.455683	0.381367	-0.140246
C295	C	0.755597	-0.251865	-0.779604
C296	C	1.088931	0.081468	-0.446271
C297	C	1.422264	0.414802	-0.112938
C298	C	0.688751	-0.184994	-0.724991
C299	C	1.022084	0.148339	-0.391658
C300	C	1.355417	0.481672	-0.058325
C301	C	0.688757	-0.184989	-0.779598
C302	C	1.022090	0.148344	-0.446265
C303	C	1.355423	0.481677	-0.112932
C304	C	0.722179	-0.218427	-0.806906
C305	C	1.055512	0.114907	-0.473573
C306	C	1.388845	0.448240	-0.140240
C307	C	0.722191	-0.218406	-0.861498
C308	C	1.055524	0.114927	-0.528164
C309	C	1.388857	0.448260	-0.194831
N310	N	0.755607	-0.251845	-0.888808
N311	N	1.088940	0.081488	-0.555475
N312	N	1.422273	0.414821	-0.222142
C313	C	0.789019	-0.285292	-0.861516
C314	C	1.122353	0.048041	-0.528182
C315	C	1.455686	0.381375	-0.194849
C316	C	0.722161	-0.218467	-0.528422
C317	C	1.055495	0.114866	-0.195088
C318	C	1.388828	0.448200	0.138245
C319	C	0.722160	-0.218472	-0.473819
C320	C	1.055494	0.114861	-0.140486
C321	C	1.388827	0.448195	0.192847
C322	C	0.788992	-0.285360	-0.473838
C323	C	1.122325	0.047974	-0.140504
C324	C	1.455659	0.381307	0.192829
C325	C	0.788995	-0.285352	-0.528441
C326	C	1.122329	0.047981	-0.195108
C327	C	1.455662	0.381315	0.138226
C328	C	0.755577	-0.251906	-0.555733
C329	C	1.088911	0.081427	-0.222399
C330	C	1.422244	0.414761	0.110934
C331	C	0.789030	-0.285264	-0.976181
C332	C	1.122363	0.048069	-0.642847
C333	C	1.455697	0.381402	-0.309514
C334	C	0.789035	-0.285248	-1.030786
C335	C	1.122368	0.048085	-0.697453
C336	C	1.455701	0.381418	-0.364119
C337	C	0.722201	-0.218363	-1.030763
C338	C	1.055534	0.114971	-0.697430
C339	C	1.388868	0.448304	-0.364097
C340	C	0.722198	-0.218377	-0.976163
C341	C	1.055531	0.114957	-0.642829
C342	C	1.388865	0.448290	-0.309496
C343	C	0.755614	-0.251832	-0.948873
C344	C	1.088948	0.081502	-0.615539
C345	C	1.422281	0.414835	-0.282206
O346	O	0.693802	-0.189965	-0.889773
O347	O	1.027136	0.143369	-0.556439
O348	O	1.360469	0.476702	-0.223106
O349	O	0.817433	-0.313733	-0.889766
O350	O	1.150767	0.019600	-0.556433
O351	O	1.484100	0.352934	-0.223099
C352	C	0.755533	-0.251939	-0.116192
C353	C	1.088866	0.081394	0.217141
C354	C	1.422199	0.414728	0.550474
C355	C	0.755622	-0.251801	-0.058079
C356	C	1.088955	0.081532	0.275255
C357	C	1.422288	0.414865	0.608588
H358	H	0.556511	-0.312691	-0.312558
H359	H	0.889845	0.020642	0.020776
H360	H	1.223178	0.353975	0.354109
N361	N	0.199082	-0.355051	-0.354816
N362	N	0.532416	-0.021717	-0.021483
N363	N	0.865749	0.311616	0.311851
H364	H	0.176409	-0.379253	-0.333527
H365	H	0.509742	-0.045920	-0.000193
H366	H	0.843076	0.287413	0.333140
H367	H	0.176478	-0.333810	-0.379083
H368	H	0.509811	-0.000477	-0.045750
H369	H	0.843144	0.332857	0.287584
N370	N	0.824941	-0.443683	-0.321608
N371	N	1.158275	-0.110350	0.011725
N372	N	1.491608	0.222983	0.345058
H373	H	0.846122	-0.469235	-0.342817
H374	H	1.179455	-0.135902	-0.009484
H375	H	1.512788	0.197431	0.323850
H376	H	0.803637	-0.421034	-0.345779
H377	H	1.136970	-0.087701	-0.012446
H378	H	1.470303	0.245632	0.320888
H379	H	0.457461	-0.312694	-0.312584
H380	H	0.790795	0.020639	0.020750
H381	H	1.124128	0.353973	0.354083
N382	N	0.563702	-0.182334	-0.182619
N383	N	0.897035	0.151000	0.150714
N384	N	1.230368	0.484333	0.484048
H385	H	0.554178	-0.190398	-0.145247
H386	H	0.887511	0.142936	0.188086
H387	H	1.220844	0.476269	0.521420
H388	H	0.602426	-0.187430	-0.187727
H389	H	0.935759	0.145904	0.145607
H390	H	1.269093	0.479237	0.478940
N391	N	0.858429	-0.694832	-0.355104
N392	N	1.191762	-0.361499	-0.021771
N393	N	1.525095	-0.028165	0.311563
H394	H	0.853351	-0.656103	-0.350031
H395	H	1.186684	-0.322769	-0.016698
H396	H	1.520017	0.010564	0.316635
H397	H	0.895778	-0.704351	-0.347010
H398	H	1.229111	-0.371018	-0.013676
H399	H	1.562444	-0.037684	0.319657
H400	H	0.305315	-0.157705	-0.158117
H401	H	0.638648	0.175628	0.175217
H402	H	0.971982	0.508962	0.508550
H403	H	0.694999	-0.191130	-1.052995
H404	H	1.028332	0.142204	-0.719661
H405	H	1.361665	0.475537	-0.386328
H406	H	-0.044912	-0.191239	-0.191519
H407	H	0.288421	0.142095	0.141815
H408	H	0.621754	0.475428	0.475148
H409	H	0.694990	-0.191142	-0.953927
H410	H	1.028324	0.142191	-0.620594
H411	H	1.361657	0.475524	-0.287261
N412	N	0.825086	-0.946039	-0.321645
N413	N	1.158419	-0.612705	0.011689
N414	N	1.491752	-0.279372	0.345022
H415	H	0.849326	-0.923373	-0.300428
H416	H	1.182659	-0.590039	0.032906
H417	H	1.515992	-0.256706	0.366239
H418	H	0.846223	-0.971631	-0.342845
H419	H	1.179556	-0.638298	-0.009511
H420	H	1.512889	-0.304964	0.323822
H421	H	0.305342	-0.346190	-0.345981
H422	H	0.638675	-0.012857	-0.012647
H423	H	0.972008	0.320477	0.320686
H424	H	0.816136	-0.549974	-0.312778
H425	H	1.149470	-0.216641	0.020556
H426	H	1.482803	0.116693	0.353889
H427	H	0.816210	-0.312580	-0.550671
H428	H	1.149544	0.020754	-0.217338
H429	H	1.482877	0.354087	0.115995
H430	H	0.054137	-0.191222	-0.191513
H431	H	0.387470	0.142112	0.141821
H432	H	0.720804	0.475445	0.475154
H433	H	0.661534	-0.157767	-0.702767
H434	H	0.994867	0.175566	-0.369433
H435	H	1.328201	0.508900	-0.036100
N436	N	0.686013	-0.443857	-0.182457
N437	N	1.019346	-0.110524	0.150876
N438	N	1.352680	0.222810	0.484209
H439	H	0.691069	-0.405116	-0.187529
H440	H	1.024402	-0.071783	0.145804
H441	H	1.357736	0.261550	0.479138
H442	H	0.648670	-0.453429	-0.190555
H443	H	0.982004	-0.120095	0.142778
H444	H	1.315337	0.213238	0.476111
H445	H	0.457425	-0.191193	-0.191453
H446	H	0.790758	0.142140	0.141880
H447	H	1.124091	0.475474	0.475214
N448	N	0.652689	-0.695082	-0.148976
N449	N	0.986023	-0.361749	0.184357
N450	N	1.319356	-0.028415	0.517691
H451	H	0.657742	-0.656341	-0.154046
H452	H	0.991075	-0.323007	0.179287
H453	H	1.324409	0.010326	0.512621
H454	H	0.615346	-0.704655	-0.157069
H455	H	0.948680	-0.371322	0.176264
H456	H	1.282013	-0.037989	0.509597
H457	H	0.849635	-0.801104	-0.346256
H458	H	1.182968	-0.467771	-0.012923
H459	H	1.516301	-0.134437	0.320411
N460	N	0.686050	-0.557342	-0.182460
N461	N	1.019384	-0.224009	0.150874
N462	N	1.352717	0.109324	0.484207
H463	H	0.664874	-0.531782	-0.161257
H464	H	0.998207	-0.198448	0.172076
H465	H	1.331541	0.134885	0.505409
H466	H	0.661847	-0.580009	-0.203715
H467	H	0.995181	-0.246676	0.129618
H468	H	1.328514	0.086658	0.462951
H469	H	0.054165	-0.312728	-0.312636
H470	H	0.387498	0.020605	0.020697
H471	H	0.720832	0.353938	0.354031
H472	H	-0.044900	-0.312731	-0.312647
H473	H	0.288433	0.020602	0.020687
H474	H	0.621766	0.353935	0.354020
H475	H	0.816244	-0.312503	-0.953968
H476	H	1.149577	0.020830	-0.620634
H477	H	1.482911	0.354163	-0.287301
H478	H	0.661553	-0.801337	-0.157835
H479	H	0.994887	-0.468004	0.175498
H480	H	1.328220	-0.134671	0.508832
N481	N	0.199045	-0.148867	-0.149301
N482	N	0.532379	0.184466	0.184032
N483	N	0.865712	0.517800	0.517366
H484	H	0.224629	-0.127655	-0.128158
H485	H	0.557962	0.205678	0.205175
H486	H	0.891296	0.539012	0.538508
H487	H	0.176414	-0.124701	-0.170628
H488	H	0.509747	0.208632	0.162705
H489	H	0.843081	0.541966	0.496038
N490	N	0.686163	-0.946187	-0.182489
N491	N	1.019496	-0.612853	0.150845
N492	N	1.352829	-0.279520	0.484178
H493	H	0.648803	-0.955711	-0.190570
H494	H	0.982136	-0.622378	0.142764
H495	H	1.315470	-0.289045	0.476097
H496	H	0.694352	-0.955712	-0.145156
H497	H	1.027685	-0.622378	0.188178
H498	H	1.361018	-0.289045	0.521511
N499	N	0.825103	-1.059529	-0.321661
N500	N	1.158436	-0.726196	0.011672
N501	N	1.491770	-0.392863	0.345005
H502	H	0.846261	-1.033921	-0.342866
H503	H	1.179595	-0.700587	-0.009532
H504	H	1.512928	-0.367254	0.323801
H505	H	0.849323	-1.082182	-0.300419
H506	H	1.182656	-0.748848	0.032915
H507	H	1.515990	-0.415515	0.366248
H508	H	0.695027	-1.052468	-0.191341
H509	H	1.028360	-0.719135	0.141992
H510	H	1.361693	-0.385802	0.475325
N511	N	0.825085	-0.321313	-1.060240
N512	N	1.158418	0.012020	-0.726906
N513	N	1.491751	0.345354	-0.393573
H514	H	0.846248	-0.342503	-1.034661
H515	H	1.179582	-0.009170	-0.701328
H516	H	1.512915	0.324163	-0.367994
H517	H	0.803790	-0.345501	-1.082884
H518	H	1.137123	-0.012168	-0.749551
H519	H	1.470456	0.321165	-0.416217
H520	H	0.849643	-0.345976	-0.801849
H521	H	1.182976	-0.012643	-0.468516
H522	H	1.516309	0.320690	-0.135182
N523	N	0.825031	-0.321435	-0.444393
N524	N	1.158364	0.011898	-0.111060
N525	N	1.491697	0.345231	0.222273
H526	H	0.819897	-0.316418	-0.405660
H527	H	1.153231	0.016916	-0.072327
H528	H	1.486564	0.350249	0.261007
H529	H	0.816920	-0.358770	-0.453982
H530	H	1.150253	-0.025437	-0.120649
H531	H	1.483587	0.307896	0.212684
N532	N	0.858463	-0.354837	-0.695588
N533	N	1.191796	-0.021504	-0.362254
N534	N	1.525129	0.311829	-0.028921
H535	H	0.879630	-0.376014	-0.721181
H536	H	1.212963	-0.042680	-0.387847
H537	H	1.546296	0.290653	-0.054514
H538	H	0.882674	-0.333563	-0.672948
H539	H	1.216007	-0.000230	-0.339615
H540	H	1.549340	0.333103	-0.006281
H541	H	0.694951	-0.191238	-0.451590
H542	H	1.028284	0.142095	-0.118257
H543	H	1.361617	0.475429	0.215077
N544	N	0.686118	-0.182388	-0.557856
N545	N	1.019451	0.150945	-0.224523
N546	N	1.352785	0.484279	0.108810
H547	H	0.664952	-0.161208	-0.532266
H548	H	0.998285	0.172125	-0.198932
H549	H	1.331618	0.505459	0.134401
H550	H	0.707416	-0.158190	-0.580524
H551	H	1.040750	0.175143	-0.247191
H552	H	1.374083	0.508476	0.086142
H553	H	0.661543	-0.157753	-0.801816
H554	H	0.994876	0.175580	-0.468483
H555	H	1.328210	0.508914	-0.135150
