data_functionalizedCrystal
_audit_creation_method	'MofGen! by Chris Wilmer'
_symmetry_space_group_name_H-M	'P1'
_symmetry_Int_Tables_number	1
_symmetry_cell_setting	triclinic
loop_
_symmetry_equiv_pos_as_xyz
  x,y,z
_cell_length_a	15.711784
_cell_length_b	26.809956
_cell_length_c	27.732048
_cell_angle_alpha	90.000636
_cell_angle_beta	101.115728
_cell_angle_gamma	90.012036
loop_
_atom_site_label
_atom_site_type_symbol
_atom_site_fract_x
_atom_site_fract_y
_atom_site_fract_z
O1	O	1.143410	0.041526	0.264478
O2	O	0.892237	0.041519	0.227759
O3	O	1.025625	0.041513	0.177133
O4	O	1.010023	0.041532	0.315103
O5	O	1.025599	-0.041446	0.177140
O6	O	0.892212	-0.041440	0.227765
O7	O	1.143385	-0.041433	0.264484
Zn8	Zn	1.017795	-0.054608	0.246126
Zn9	Zn	1.017828	0.054694	0.246117
O10	O	1.009998	-0.041428	0.315110
C11	C	0.860100	0.000038	0.221764
C12	C	0.764381	0.000035	0.203885
C13	C	0.640332	0.000025	0.136577
C14	C	0.730274	0.000028	0.153382
C15	C	0.708552	0.000041	0.237603
C16	C	0.618607	0.000041	0.220805
C17	C	0.584504	0.000032	0.170292
C18	C	0.562779	0.000048	0.254520
C19	C	0.472842	0.000045	0.237723
C20	C	0.438732	0.000035	0.187212
C21	C	0.494567	0.000030	0.153495
C22	C	0.596883	0.000053	0.305033
C23	C	0.541055	0.000060	0.338748
C24	C	0.451116	0.000061	0.321951
C25	C	0.417007	0.000051	0.271440
C26	C	0.395281	0.000067	0.355668
C27	C	0.305344	0.000064	0.338872
C28	C	0.327069	0.000048	0.254643
N29	N	1.017778	-0.129204	0.246133
C30	C	1.076884	-0.473833	0.223707
C31	C	1.076905	-0.682711	0.223703
O32	O	1.127123	-0.709717	0.204632
N33	N	1.017833	-0.708831	0.246107
C34	C	0.958747	-0.682730	0.268511
O35	O	0.908497	-0.709740	0.287562
C36	C	0.958723	-0.473853	0.268511
C37	C	1.017805	-0.447735	0.246110
C38	C	1.135960	-0.447715	0.201307
C39	C	1.135958	-0.395498	0.201311
C40	C	1.076879	-0.369400	0.223714
C41	C	1.017803	-0.395519	0.246114
C42	C	0.899635	-0.447752	0.290912
C43	C	0.899633	-0.395530	0.290909
C44	C	0.958714	-0.369412	0.268508
C45	C	0.958721	-0.317204	0.268520
N46	N	1.017793	-0.291083	0.246116
C47	C	1.076872	-0.317181	0.223713
C48	C	0.958765	-0.792393	0.268510
C49	C	0.958772	-0.844612	0.268511
C50	C	1.076928	-0.844589	0.223702
C51	C	1.076925	-0.792369	0.223705
C52	C	1.017837	-0.766272	0.246106
C53	C	1.076863	-0.207523	0.223723
C54	C	1.076857	-0.155302	0.223730
C55	C	0.958698	-0.155330	0.268536
C56	C	0.958706	-0.207546	0.268531
C57	C	1.017792	-0.233642	0.246121
O58	O	0.908522	-0.290166	0.287576
O59	O	1.127102	-0.290162	0.204655
C60	C	1.076887	-0.526049	0.223703
C61	C	1.017810	-0.552167	0.246103
C62	C	0.958731	-0.526069	0.268506
C63	C	1.017817	-0.604386	0.246104
C64	C	1.076896	-0.630484	0.223701
C65	C	1.135968	-0.604364	0.201297
C66	C	1.135966	-0.552147	0.201300
C67	C	0.899659	-0.552190	0.290910
C68	C	0.899667	-0.604407	0.290906
C69	C	0.958746	-0.630505	0.268502
C70	C	1.175522	0.000049	0.270479
C71	C	1.271241	0.000055	0.288358
C72	C	1.025285	0.000032	0.159071
C73	C	1.024298	0.000028	0.105237
N74	N	1.017851	0.129290	0.246107
C75	C	1.096913	0.000056	-0.220434
C76	C	1.093254	0.000063	-0.422756
O77	O	1.159655	0.000086	-0.441992
N78	N	1.014161	0.000060	-0.456196
C79	C	0.935977	0.000059	-0.439054
O80	O	0.868619	0.000062	-0.472139
C81	C	0.939637	0.000055	-0.236732
C82	C	1.018735	0.000053	-0.203294
C83	C	1.176005	0.000054	-0.186996
C84	C	1.176919	0.000050	-0.136419
C85	C	1.098741	0.000047	-0.119279
C86	C	1.019649	0.000049	-0.152717
C87	C	0.861454	0.000058	-0.219591
C88	C	0.862376	0.000058	-0.169006
C89	C	0.941474	0.000056	-0.135568
C90	C	0.942385	0.000041	-0.085000
N91	N	1.021478	0.000044	-0.051559
C92	C	1.099656	0.000047	-0.068699
C93	C	0.934061	0.000059	-0.545274
C94	C	0.933146	0.000059	-0.595855
C95	C	1.090424	0.000064	-0.579553
C96	C	1.091338	0.000061	-0.528972
C97	C	1.013154	0.000062	-0.511834
C98	C	1.101570	0.000037	0.037516
C99	C	1.102476	0.000031	0.088097
C100	C	0.945199	0.000028	0.071792
C101	C	0.944292	0.000032	0.021215
C102	C	1.022484	0.000038	0.004079
O103	O	0.876019	0.000023	-0.065728
O104	O	1.167004	0.000055	-0.035606
C105	C	1.095999	0.000060	-0.271011
C106	C	1.016907	0.000062	-0.304449
C107	C	0.938729	0.000059	-0.287309
C108	C	1.015992	0.000062	-0.355029
C109	C	1.094170	0.000065	-0.372169
C110	C	1.173264	0.000067	-0.338728
C111	C	1.174177	0.000063	-0.288151
C112	C	0.859636	0.000056	-0.320750
C113	C	0.858729	0.000060	-0.371326
C114	C	0.936907	0.000063	-0.388466
C115	C	1.010338	0.000055	0.333172
C116	C	1.011324	0.000062	0.387006
H117	H	0.670117	0.000054	0.318707
Cl118	Cl	1.210241	-0.480515	0.173140
H119	H	1.184065	-0.374236	0.183068
Cl120	Cl	1.151138	-0.122471	0.195567
H121	H	0.910605	-0.228812	0.286778
Cl122	Cl	0.284191	0.000036	0.191139
H123	H	0.881549	0.000024	0.085756
H124	H	0.612565	0.000024	0.095444
Cl125	Cl	0.825344	-0.362726	0.319071
H126	H	0.736331	0.000047	0.278731
H127	H	0.870391	0.000060	-0.531326
H128	H	1.155747	0.000059	-0.501750
Cl129	Cl	1.201922	0.000029	0.130132
H130	H	0.365499	0.000028	0.173537
H131	H	0.568834	0.000066	0.379876
H132	H	0.466799	0.000028	0.112362
H133	H	0.851558	-0.625668	0.309152
H134	H	0.795972	0.000055	-0.306801
H135	H	1.165241	0.000044	0.023571
H136	H	0.910648	-0.771148	0.286753
Cl137	Cl	0.438164	0.000072	0.419169
H138	H	1.125034	-0.771107	0.205463
Cl139	Cl	0.825383	-0.519388	0.319078
Cl140	Cl	1.271543	0.000068	-0.360285
H141	H	0.910599	-0.134073	0.286778
H142	H	0.259887	0.000068	0.366326
H143	H	0.775728	0.000024	0.125923
Cl144	Cl	0.884506	-0.877440	0.296682
Cl145	Cl	1.151144	-0.240321	0.195550
Cl146	Cl	1.151197	-0.877409	0.195537
H147	H	0.851525	-0.469010	0.309152
H148	H	1.184075	-0.530886	0.183059
Cl149	Cl	1.210240	-0.637182	0.173134
H150	H	1.241329	0.000050	-0.109197
H151	H	1.239671	0.000058	-0.200945
H152	H	0.868736	0.000052	-0.623076
H153	H	1.154079	0.000066	-0.593517
Cl154	Cl	0.762009	0.000064	-0.261616
Cl155	Cl	0.764081	0.000060	-0.147465
H156	H	0.879883	0.000020	-0.006012
H157	H	1.238587	0.000061	-0.260929
H158	H	0.794312	0.000058	-0.398549
