data_functionalizedCrystal
_audit_creation_method	'MofGen! by Chris Wilmer'
_symmetry_space_group_name_H-M	'P1'
_symmetry_Int_Tables_number	1
_symmetry_cell_setting	triclinic
loop_
_symmetry_equiv_pos_as_xyz
  x,y,z
_cell_length_a	12.827893
_cell_length_b	12.759400
_cell_length_c	12.759386
_cell_angle_alpha	89.937185
_cell_angle_beta	89.958823
_cell_angle_gamma	90.014655
loop_
_atom_site_label
_atom_site_type_symbol
_atom_site_fract_x
_atom_site_fract_y
_atom_site_fract_z
Zn1	Zn	1.597901	-0.417881	-0.594016
Zn2	Zn	1.597730	-0.593696	-0.418336
Zn3	Zn	1.423075	-0.418031	-0.418351
Zn4	Zn	1.423130	-0.593519	-0.593974
O5	O	1.510459	-0.505782	-0.506169
O6	O	1.744114	-0.441215	-0.570723
O7	O	1.574468	-0.570531	-0.271317
O8	O	1.446315	-0.270990	-0.441678
O9	O	1.743989	-0.570385	-0.441651
O10	O	1.574758	-0.270880	-0.570738
O11	O	1.446150	-0.441471	-0.271328
O12	O	1.276846	-0.441299	-0.441637
O13	O	1.446407	-0.570083	-0.741001
O14	O	1.276886	-0.570228	-0.570666
O15	O	1.574811	-0.441043	-0.741032
O16	O	1.574520	-0.740693	-0.441610
O17	O	1.446242	-0.740563	-0.570651
C18	C	1.238949	-0.505761	-0.506149
C19	C	1.122796	-0.505778	-0.506166
C20	C	1.071058	-0.569676	-0.569915
C21	C	0.951008	-0.569695	-0.569933
C22	C	1.510397	-0.778749	-0.506147
C23	C	1.510466	-0.895526	-0.506173
C24	C	1.577335	-0.950421	-0.439056
C25	C	1.577399	-1.060145	-0.439088
C26	C	1.443717	-1.060069	-0.573358
C27	C	1.443659	-0.950347	-0.573330
C28	C	1.644142	-0.895599	-0.371899
C29	C	1.711015	-0.950494	-0.304776
C30	C	1.711080	-1.060218	-0.304808
C31	C	1.644270	-1.115047	-0.371964
C32	C	1.783029	-0.505803	-0.506190
C33	C	1.899182	-0.505812	-0.506199
C34	C	1.510634	-0.505526	-0.780203
C35	C	1.510709	-0.505417	-0.896980
C36	C	1.510550	-0.231748	-0.506214
C37	C	1.510588	-0.114972	-0.506233
C38	C	1.510344	-0.505960	-0.233201
C39	C	1.510472	-0.505773	-0.116425
C40	C	1.576893	-0.438012	-0.061872
C41	C	1.577015	-0.437836	0.047852
C42	C	1.444285	-0.573187	0.048459
C43	C	1.444170	-0.573367	-0.061262
C44	C	1.643196	-0.370418	-0.117035
C45	C	1.709621	-0.302650	-0.062481
C46	C	1.709743	-0.302474	0.047242
C47	C	1.643439	-0.370067	0.102413
H48	H	0.943669	-0.451107	-0.451614
H49	H	1.763609	-0.247625	-0.107408
O50	O	1.380026	-0.638885	0.102170
C51	C	1.440064	-0.706216	0.165696
H52	H	1.519018	-0.668560	0.181879
H53	H	1.452036	-0.784063	0.123608
C54	C	1.285845	-0.771725	0.250207
C55	C	1.382816	-0.725471	0.270090
H56	H	1.250531	-0.783607	0.314600
H57	H	1.245395	-0.726366	0.207405
H58	H	1.295836	-0.836592	0.215131
H59	H	1.372823	-0.660600	0.305154
H60	H	1.423263	-0.770820	0.312900
O61	O	1.378851	-1.113489	-0.638484
C62	C	1.393259	-1.222104	-0.624133
H63	H	1.427506	-1.237169	-0.543087
H64	H	1.448915	-1.253115	-0.686507
C65	C	1.245490	-1.260006	-0.733220
C66	C	1.287545	-1.278509	-0.633674
H67	H	1.180283	-1.294801	-0.739110
H68	H	1.235785	-1.186830	-0.742892
H69	H	1.291880	-1.285848	-0.785188
H70	H	1.241161	-1.252656	-0.581709
H71	H	1.297240	-1.351682	-0.623994
O72	O	1.774300	-0.236553	0.100074
C73	C	1.832811	-0.176957	0.027853
H74	H	1.789898	-0.173759	-0.050291
H75	H	1.912431	-0.214869	0.016141
C76	C	1.899849	-0.068890	0.166321
C77	C	1.847137	-0.064955	0.070346
H78	H	1.908690	0.000196	0.192534
H79	H	1.860432	-0.109044	0.214979
H80	H	1.966193	-0.100489	0.156548
H81	H	1.780790	-0.033369	0.080123
H82	H	1.886543	-0.024794	0.021691
O83	O	1.379550	-0.639222	-0.114100
C84	C	1.321066	-0.698855	-0.041886
H85	H	1.317226	-0.655723	0.036218
H86	H	1.359900	-0.778348	-0.030069
C87	C	1.214628	-0.767851	-0.180402
C88	C	1.209904	-0.714872	-0.084476
H89	H	1.146059	-0.777736	-0.206674
H90	H	1.254031	-0.727679	-0.229055
H91	H	1.246993	-0.834090	-0.170541
H92	H	1.177551	-0.648630	-0.094341
H93	H	1.170492	-0.755034	-0.035826
O94	O	1.643244	-0.370489	-0.223619
C95	C	1.715985	-0.296282	-0.260613
H96	H	1.777007	-0.281019	-0.197536
H97	H	1.673992	-0.220011	-0.280210
C98	C	1.694791	-0.357614	-0.437227
C99	C	1.769744	-0.338876	-0.359758
H100	H	1.727949	-0.383884	-0.498387
H101	H	1.645781	-0.407606	-0.412305
H102	H	1.659803	-0.294050	-0.453545
H103	H	1.804721	-0.402441	-0.343432
H104	H	1.818761	-0.288895	-0.384680
O105	O	1.775814	-0.897076	-0.239580
C106	C	1.761439	-0.788460	-0.253959
H107	H	1.680779	-0.773494	-0.288294
H108	H	1.823399	-0.757193	-0.309952
C109	C	1.870067	-0.750651	-0.105478
C110	C	1.770995	-0.732268	-0.147640
H111	H	1.875966	-0.715987	-0.039897
H112	H	1.879756	-0.823827	-0.095793
H113	H	1.921689	-0.724595	-0.152149
H114	H	1.719376	-0.758336	-0.100976
H115	H	1.761298	-0.659095	-0.157315
H116	H	1.115641	-0.624364	-0.624483
H117	H	0.906515	-0.624404	-0.624508
H118	H	1.078214	-0.451082	-0.451605
H119	H	1.643551	-0.369926	0.191757
O120	O	1.776212	-1.113397	-0.239666
C121	C	1.880329	-1.086440	-0.262757
H122	H	1.882395	-1.006728	-0.303148
H123	H	1.915573	-1.148088	-0.316810
C124	C	1.941123	-1.179300	-0.110794
C125	C	1.943661	-1.081392	-0.160395
H126	H	1.980192	-1.176191	-0.047654
H127	H	1.870978	-1.197465	-0.095239
H128	H	1.970491	-1.230663	-0.155849
H129	H	1.914281	-1.030035	-0.115346
H130	H	2.013803	-1.063218	-0.175941
H131	H	1.644094	-0.806256	-0.371862
H132	H	1.644336	-1.204392	-0.371993
H133	H	1.389209	-0.905651	-0.627984
