data_functionalizedCrystal
_audit_creation_method	'MofGen! by Chris Wilmer'
_symmetry_space_group_name_H-M	'P1'
_symmetry_Int_Tables_number	1
_symmetry_cell_setting	triclinic
loop_
_symmetry_equiv_pos_as_xyz
  x,y,z
_cell_length_a	13.897448
_cell_length_b	17.077404
_cell_length_c	17.077396
_cell_angle_alpha	90.014457
_cell_angle_beta	90.027368
_cell_angle_gamma	90.023133
loop_
_atom_site_label
_atom_site_type_symbol
_atom_site_fract_x
_atom_site_fract_y
_atom_site_fract_z
Zn1	Zn	-0.383875	1.200083	0.443743
Zn2	Zn	-0.545188	1.200002	0.312480
Zn3	Zn	-0.383923	1.068815	0.312503
Zn4	Zn	-0.545145	1.068795	0.443715
O5	O	-0.464533	1.134424	0.378110
O6	O	-0.405271	1.309919	0.426333
O7	O	-0.523834	1.182574	0.202636
O8	O	-0.248935	1.086270	0.329933
O9	O	-0.523787	1.309860	0.329894
O10	O	-0.248900	1.182712	0.426355
O11	O	-0.405354	1.086192	0.202653
O12	O	-0.405312	0.958965	0.329906
O13	O	-0.523714	1.086236	0.553566
O14	O	-0.523761	0.958950	0.426307
O15	O	-0.405230	1.182693	0.553586
O16	O	-0.680164	1.182555	0.329867
O17	O	-0.680132	1.086157	0.426285
C18	C	-0.464538	0.930476	0.378106
C19	C	-0.464564	0.843226	0.378123
C20	C	-0.715147	1.134366	0.378087
C21	C	-0.822361	1.134414	0.378104
C22	C	-0.464462	1.134471	0.582854
C23	C	-0.464431	1.134491	0.670104
C24	C	-1.018656	1.134496	0.378153
C25	C	-0.909424	1.134448	0.378128
C26	C	-0.212940	1.134502	0.378150
C27	C	-0.105726	1.134536	0.378167
C28	C	-0.464528	1.339168	0.378114
C29	C	-0.464526	1.426418	0.378116
C30	C	-0.402824	1.467440	0.428326
C31	C	-0.402835	1.549420	0.428331
C32	C	-0.464543	1.590377	0.378122
C33	C	-0.526252	1.549349	0.327911
C34	C	-0.526246	1.467370	0.327910
C35	C	-0.526260	1.720219	0.327914
C36	C	-0.526266	1.802204	0.327914
C37	C	-0.402849	1.802269	0.428336
C38	C	-0.402842	1.720290	0.428335
C39	C	-0.464550	1.679268	0.378122
C40	C	-0.464534	1.134421	0.174162
C41	C	-0.464292	1.134553	0.086913
C42	C	-0.402731	1.184718	0.711107
C43	C	-0.402699	1.184728	0.793087
C44	C	-0.464373	1.134514	0.834064
C45	C	-0.526075	1.084281	0.793056
C46	C	-0.526102	1.084268	0.711077
C47	C	-0.526017	1.084313	0.963926
C48	C	-0.525992	1.084326	1.045911
C49	C	-0.402615	1.184772	1.045936
C50	C	-0.402641	1.184759	0.963957
C51	C	-0.464345	1.134528	0.922955
H52	H	-0.352567	1.434099	0.469207
H53	H	-0.576501	1.582702	0.287033
H54	H	-0.576492	1.433971	0.287026
F55	F	-0.591769	1.030808	0.667440
H56	H	-0.352513	1.225611	0.677749
H57	H	-0.576517	1.835548	0.287032
F58	F	-0.591947	1.676562	0.274480
H59	H	-0.576248	1.043396	0.930544
H60	H	-0.352590	1.686946	0.469216
F61	F	-0.337167	1.593076	0.481774
H62	H	-0.352603	1.835674	0.469220
H63	H	-0.576210	1.043436	1.079272
H64	H	-0.352371	1.225671	1.079324
F65	F	-0.337007	1.238207	0.920348
F66	F	-0.591709	1.030836	0.836669
F67	F	-0.337063	1.238213	0.836721
