data_functionalizedCrystal
_audit_creation_method	'MofGen! by Chris Wilmer'
_symmetry_space_group_name_H-M	'P1'
_symmetry_Int_Tables_number	1
_symmetry_cell_setting	triclinic
loop_
_symmetry_equiv_pos_as_xyz
  x,y,z
_cell_length_a	17.699083
_cell_length_b	8.965430
_cell_length_c	17.699083
_cell_angle_alpha	89.998442
_cell_angle_beta	96.716985
_cell_angle_gamma	89.991054
loop_
_atom_site_label
_atom_site_type_symbol
_atom_site_fract_x
_atom_site_fract_y
_atom_site_fract_z
O1	O	1.004068	0.123833	-0.095708
O2	O	1.504068	0.623833	0.404292
O3	O	0.783690	0.123882	-0.108160
O4	O	1.283690	0.623882	0.391840
O5	O	0.900105	0.123843	0.008255
O6	O	1.400105	0.623843	0.508255
O7	O	0.887653	0.123872	-0.212123
O8	O	1.387653	0.623872	0.287877
O9	O	0.900111	-0.124236	0.008252
O10	O	1.400111	0.375764	0.508252
O11	O	0.783695	-0.124196	-0.108164
O12	O	1.283695	0.375804	0.391836
O13	O	1.004074	-0.124246	-0.095711
O14	O	1.504074	0.375754	0.404289
Cu15	Cu	0.893885	-0.146873	-0.101938
Cu16	Cu	1.393885	0.353127	0.398062
Cu17	Cu	0.893878	0.146509	-0.101934
Cu18	Cu	1.393878	0.646509	0.398066
O19	O	0.887658	-0.124207	-0.212127
O20	O	1.387658	0.375793	0.287873
C21	C	0.755495	-0.000151	-0.107716
C22	C	1.255495	0.499849	0.392284
C23	C	0.671477	-0.000132	-0.106377
C24	C	1.171477	0.499868	0.393623
N25	N	0.893895	-0.353222	-0.101940
N26	N	1.393895	0.146778	0.398060
C27	C	0.622856	-0.000124	-0.174710
C28	C	1.122856	0.499876	0.325290
C29	C	0.543913	-0.000143	-0.173448
C30	C	1.043913	0.499857	0.326552
C31	C	0.513592	-0.000161	-0.103852
C32	C	1.013592	0.499839	0.396148
C33	C	0.562219	-0.000174	-0.035513
C34	C	1.062219	0.499826	0.464487
C35	C	0.641161	-0.000165	-0.036776
C36	C	1.141161	0.499835	0.463224
C37	C	0.243856	-0.000211	-0.030418
C38	C	0.743856	0.499789	0.469582
C39	C	0.164908	-0.000216	-0.029160
C40	C	0.664908	0.499784	0.470840
C41	C	0.146608	-0.000190	-0.167090
C42	C	0.646608	0.499810	0.332910
C43	C	0.225550	-0.000181	-0.168353
C44	C	0.725550	0.499819	0.331647
C45	C	0.274170	-0.000202	-0.100015
C46	C	0.774170	0.499798	0.399985
C47	C	0.359769	-0.000183	-0.101384
C48	C	0.859769	0.499817	0.398616
C49	C	0.427995	-0.000168	-0.102481
C50	C	0.927995	0.499832	0.397519
C51	C	0.947750	-0.450506	-0.048106
C52	C	1.447750	0.049494	0.451894
C53	C	0.879384	-0.549897	-0.033531
C54	C	1.379384	-0.049897	0.466469
C55	C	0.962235	-0.549958	-0.116466
C56	C	1.462235	-0.049958	0.383534
C57	C	0.825494	-0.450424	-0.087332
C58	C	1.325494	0.049576	0.412668
C59	C	0.908390	-0.450476	-0.170297
C60	C	1.408390	0.049524	0.329703
C61	C	0.839974	-0.549823	-0.155751
C62	C	1.339974	-0.049823	0.344249
C63	C	1.032268	-0.000209	-0.096156
C64	C	1.532268	0.499791	0.403844
C65	C	1.116286	-0.000218	-0.097494
C66	C	1.616286	0.499782	0.402506
C67	C	0.899662	-0.000196	0.036451
C68	C	1.399662	0.499804	0.536451
C69	C	0.898323	-0.000197	0.120469
C70	C	1.398323	0.499803	0.620469
N71	N	0.893874	0.352858	-0.101925
N72	N	1.393874	0.852858	0.398075
C73	C	0.888102	-0.000164	-0.240322
C74	C	1.388102	0.499836	0.259678
C75	C	0.889440	-0.000154	-0.324340
C76	C	1.389440	0.499846	0.175660
C77	C	0.966656	-0.000214	0.169090
C78	C	1.466656	0.499786	0.669090
C79	C	0.965394	-0.000200	0.248033
C80	C	1.465394	0.499800	0.748033
C81	C	0.895798	-0.000180	0.278354
C82	C	1.395798	0.499820	0.778354
C83	C	0.827459	-0.000158	0.229727
C84	C	1.327459	0.499842	0.729727
C85	C	0.828722	-0.000161	0.150785
C86	C	1.328722	0.499839	0.650785
C87	C	0.822364	-0.000145	0.548090
C88	C	1.322364	0.499855	1.048090
C89	C	0.821106	-0.000147	0.627038
C90	C	1.321106	0.499853	1.127038
C91	C	0.959036	-0.000184	0.645338
C92	C	1.459036	0.499816	1.145338
C93	C	0.960299	-0.000187	0.566396
C94	C	1.460299	0.499813	1.066396
C95	C	0.891961	-0.000157	0.517776
C96	C	1.391961	0.499843	1.017776
C97	C	0.893330	-0.000169	0.432177
C98	C	1.393330	0.499831	0.932177
C99	C	0.894427	-0.000179	0.363951
C100	C	1.394427	0.499821	0.863951
H101	H	0.647537	-0.000109	-0.231384
H102	H	1.147537	0.499891	0.268616
H103	H	0.767679	-0.406888	-0.074973
H104	H	1.267679	0.093112	0.425027
H105	H	1.014680	-0.000201	0.684934
H106	H	1.514680	0.499799	1.184934
H107	H	0.250232	-0.000160	-0.225025
H108	H	0.750232	0.499840	0.274975
H109	H	0.766718	-0.000121	0.508512
H110	H	1.266718	0.499879	1.008512
Cl111	Cl	0.085481	-0.000170	-0.253002
Cl112	Cl	0.585481	0.499830	0.246998
H113	H	0.794372	-0.593156	-0.201274
H114	H	1.294372	-0.093156	0.298726
Cl115	Cl	0.927374	-0.382987	-0.259528
Cl116	Cl	1.427374	0.117013	0.240472
H117	H	0.993251	-0.406896	-0.002556
H118	H	1.493251	0.093104	0.497444
Cl119	Cl	0.733606	-0.000118	0.665153
Cl120	Cl	1.233606	0.499882	1.165153
H121	H	0.867110	-0.593569	0.024283
H122	H	1.367110	-0.093569	0.524283
H123	H	1.021038	-0.000218	0.287618
H124	H	1.521038	0.499782	0.787618
H125	H	0.140225	-0.000232	0.027517
H126	H	0.640225	0.499768	0.527517
H127	H	0.283434	-0.000230	0.025228
H128	H	0.783434	0.499770	0.525228
Cl129	Cl	1.047795	-0.000208	0.528283
Cl130	Cl	1.547795	0.499792	1.028283
Cl131	Cl	1.054154	-0.000255	0.130980
Cl132	Cl	1.554154	0.499745	0.630980
Cl133	Cl	0.524102	-0.000205	0.051980
Cl134	Cl	1.024102	0.499795	0.551980
H135	H	0.680748	-0.000171	0.018868
H136	H	1.180748	0.499829	0.518868
Cl137	Cl	0.482792	-0.000123	-0.259357
Cl138	Cl	0.982792	0.499877	0.240643
H139	H	1.020037	-0.593678	-0.128759
H140	H	1.520037	-0.093678	0.371241
H141	H	0.770792	-0.000133	0.254420
H142	H	1.270792	0.499867	0.754420
Cl143	Cl	0.742814	-0.000134	0.089661
Cl144	Cl	1.242814	0.499866	0.589661
