data_functionalizedCrystal
_audit_creation_method	'MofGen! by Chris Wilmer'
_symmetry_space_group_name_H-M	'P1'
_symmetry_Int_Tables_number	1
_symmetry_cell_setting	triclinic
loop_
_symmetry_equiv_pos_as_xyz
  x,y,z
_cell_length_a	14.519709
_cell_length_b	15.072220
_cell_length_c	14.519709
_cell_angle_alpha	89.989674
_cell_angle_beta	96.319855
_cell_angle_gamma	89.998331
loop_
_atom_site_label
_atom_site_type_symbol
_atom_site_fract_x
_atom_site_fract_y
_atom_site_fract_z
O1	O	1.223866	0.073669	-0.120898
O2	O	1.557199	0.407002	0.212436
O3	O	1.890533	0.740336	0.545769
O4	O	0.955389	0.073696	-0.135134
O5	O	1.288722	0.407030	0.198199
O6	O	1.622056	0.740363	0.531533
O7	O	1.096746	0.073674	0.006223
O8	O	1.430079	0.407007	0.339556
O9	O	1.763413	0.740341	0.672889
O10	O	1.082509	0.073691	-0.262254
O11	O	1.415843	0.407025	0.071079
O12	O	1.749176	0.740358	0.404412
O13	O	1.096737	-0.073891	0.006240
O14	O	1.430070	0.259442	0.339573
O15	O	1.763403	0.592775	0.672906
O16	O	0.955380	-0.073869	-0.135117
O17	O	1.288713	0.259464	0.198216
O18	O	1.622046	0.592798	0.531550
O19	O	1.223857	-0.073896	-0.120880
O20	O	1.557190	0.259437	0.212453
O21	O	1.890523	0.592770	0.545786
Zn22	Zn	1.089617	-0.097312	-0.127996
Zn23	Zn	1.422950	0.236022	0.205337
Zn24	Zn	1.756283	0.569355	0.538671
Zn25	Zn	1.089629	0.097112	-0.128019
Zn26	Zn	1.422962	0.430445	0.205315
Zn27	Zn	1.756296	0.763778	0.538648
O28	O	1.082500	-0.073874	-0.262237
O29	O	1.415833	0.259460	0.071096
O30	O	1.749167	0.592793	0.404429
C31	C	0.921025	-0.000083	-0.134462
C32	C	1.254358	0.333250	0.198871
C33	C	1.587691	0.666584	0.532205
C34	C	0.818643	-0.000073	-0.132474
C35	C	1.151977	0.333261	0.200859
C36	C	1.485310	0.666594	0.534193
N37	N	1.089615	-0.230000	-0.127980
N38	N	1.422948	0.103333	0.205353
N39	N	1.756282	0.436666	0.538687
C40	C	0.443748	-0.000114	-0.125154
C41	C	0.777081	0.333220	0.208179
C42	C	1.110414	0.666553	0.541512
C43	C	0.548056	-0.000102	-0.127187
C44	C	0.881389	0.333231	0.206146
C45	C	1.214722	0.666565	0.539480
C46	C	0.631192	-0.000092	-0.128814
C47	C	0.964526	0.333241	0.204519
C48	C	1.297859	0.666574	0.537853
C49	C	0.735507	-0.000082	-0.130847
C50	C	1.068840	0.333251	0.202486
C51	C	1.402173	0.666584	0.535820
C52	C	1.089630	-0.589202	-0.128011
C53	C	1.422963	-0.255869	0.205322
C54	C	1.756297	0.077465	0.538655
C55	C	1.165513	-0.551579	-0.052628
C56	C	1.498846	-0.218246	0.280706
C57	C	1.832180	0.115087	0.614039
C58	C	1.165314	-0.448754	-0.052348
C59	C	1.498648	-0.115420	0.280985
C60	C	1.831981	0.217913	0.614318
C61	C	1.089623	-0.410998	-0.127996
C62	C	1.422957	-0.077665	0.205338
C63	C	1.756290	0.255669	0.538671
C64	C	0.993371	-0.448333	-0.106821
C65	C	1.326704	-0.114999	0.226512
C66	C	1.660038	0.218334	0.559845
C67	C	0.993820	-0.551190	-0.106288
C68	C	1.327154	-0.217857	0.227045
C69	C	1.660487	0.115476	0.560378
C70	C	1.109132	-0.551275	-0.224791
C71	C	1.442465	-0.217942	0.108542
C72	C	1.775799	0.115392	0.441876
C73	C	1.111315	-0.448411	-0.224146
C74	C	1.444648	-0.115077	0.109187
C75	C	1.777982	0.218256	0.442520
C76	C	1.089614	-0.310285	-0.127989
C77	C	1.422947	0.023049	0.205344
C78	C	1.756280	0.356382	0.538678
C79	C	1.089633	-0.689915	-0.128016
C80	C	1.422967	-0.356582	0.205317
C81	C	1.756300	-0.023249	0.538650
C82	C	1.258221	-0.000115	-0.121553
C83	C	1.591554	0.333218	0.211781
C84	C	1.924888	0.666552	0.545114
C85	C	1.360602	-0.000119	-0.123541
C86	C	1.693936	0.333214	0.209793
C87	C	2.027269	0.666547	0.543126
C88	C	1.096078	-0.000109	0.040591
C89	C	1.429411	0.333225	0.373924
C90	C	1.762744	0.666558	0.707258
C91	C	1.094090	-0.000109	0.142972
C92	C	1.427423	0.333224	0.476306
C93	C	1.760756	0.666558	0.809639
N94	N	1.089638	0.229801	-0.128027
N95	N	1.422971	0.563134	0.205306
N96	N	1.756305	0.896467	0.538640
C97	C	1.083168	-0.000089	-0.296605
C98	C	1.416502	0.333244	0.036728
C99	C	1.749835	0.666577	0.370061
C100	C	1.085156	-0.000083	-0.398987
C101	C	1.418490	0.333250	-0.065653
C102	C	1.751823	0.666584	0.267680
C103	C	1.086770	-0.000085	0.517868
C104	C	1.420103	0.333248	0.851201
C105	C	1.753437	0.666581	1.184535
C106	C	1.088803	-0.000092	0.413560
C107	C	1.422136	0.333241	0.746893
C108	C	1.755469	0.666575	1.080227
C109	C	1.090430	-0.000098	0.330423
C110	C	1.423763	0.333235	0.663757
C111	C	1.757096	0.666569	0.997090
C112	C	1.092463	-0.000103	0.226109
C113	C	1.425796	0.333230	0.559442
C114	C	1.759129	0.666563	0.892776
H115	H	1.236858	-0.423511	-0.064981
H116	H	1.570191	-0.090178	0.268353
H117	H	1.903524	0.243155	0.601686
F118	F	1.149441	-0.585376	0.040713
F119	F	1.482774	-0.252042	0.374047
F120	F	1.816108	0.081291	0.707380
F121	F	1.259343	-0.583904	-0.068877
F122	F	1.592676	-0.250570	0.264456
F123	F	1.926009	0.082763	0.597789
F124	F	1.198927	-0.585171	-0.251337
F125	F	1.532260	-0.251838	0.081996
F126	F	1.865593	0.081495	0.415329
H127	H	1.059639	-0.422708	-0.282883
H128	H	1.392972	-0.089374	0.050450
H129	H	1.726306	0.243959	0.383784
H130	H	0.975789	-0.422583	-0.037038
H131	H	1.309123	-0.089250	0.296295
H132	H	1.642456	0.244083	0.629628
F133	F	1.036807	-0.583079	-0.298119
F134	F	1.370140	-0.249746	0.035214
F135	F	1.703474	0.083588	0.368547
H136	H	1.152837	-0.424159	0.019470
H137	H	1.486171	-0.090826	0.352803
H138	H	1.819504	0.242507	0.686136
H139	H	0.935649	-0.576078	-0.159098
H140	H	1.268982	-0.242745	0.174235
H141	H	1.602315	0.090588	0.507568
H142	H	0.976656	-0.575193	-0.035703
H143	H	1.309989	-0.241860	0.297630
H144	H	1.643323	0.091474	0.630964
F145	F	1.203861	-0.416511	-0.245150
F146	F	1.537195	-0.083177	0.088183
F147	F	1.870528	0.250156	0.421516
H148	H	0.935536	-0.423877	-0.160258
H149	H	1.268870	-0.090543	0.173075
H150	H	1.602203	0.242790	0.506408
