data_functionalizedCrystal
_audit_creation_method	'MofGen! by Chris Wilmer'
_symmetry_space_group_name_H-M	'P1'
_symmetry_Int_Tables_number	1
_symmetry_cell_setting	triclinic
loop_
_symmetry_equiv_pos_as_xyz
  x,y,z
_cell_length_a	23.532407
_cell_length_b	14.044220
_cell_length_c	12.503572
_cell_angle_alpha	86.156832
_cell_angle_beta	93.490724
_cell_angle_gamma	88.018778
loop_
_atom_site_label
_atom_site_type_symbol
_atom_site_fract_x
_atom_site_fract_y
_atom_site_fract_z
O1	O	-0.764493	-0.109506	-0.089188
O2	O	-0.431159	0.223828	0.244145
O3	O	-0.097826	0.557161	0.577479
O4	O	-0.599532	-0.126145	-0.089220
O5	O	-0.266199	0.207189	0.244114
O6	O	0.067134	0.540522	0.577447
O7	O	-0.679536	0.020135	-0.089194
O8	O	-0.346203	0.353469	0.244140
O9	O	-0.012870	0.686802	0.577473
O10	O	-0.684489	-0.255786	-0.089214
O11	O	-0.351156	0.077547	0.244119
O12	O	-0.017822	0.410881	0.577453
O13	O	-0.673520	0.009116	0.089446
O14	O	-0.340187	0.342450	0.422780
O15	O	-0.006854	0.675783	0.756113
O16	O	-0.593517	-0.137164	0.089420
O17	O	-0.260183	0.196169	0.422754
O18	O	0.073150	0.529503	0.756087
O19	O	-0.758477	-0.120525	0.089452
O20	O	-0.425144	0.212808	0.422785
O21	O	-0.091810	0.546142	0.756119
Cu22	Cu	-0.675447	-0.129851	0.105747
Cu23	Cu	-0.342114	0.203483	0.439081
Cu24	Cu	-0.008781	0.536816	0.772414
Cu25	Cu	-0.682562	-0.116819	-0.105515
Cu26	Cu	-0.349229	0.216514	0.227818
Cu27	Cu	-0.015895	0.549848	0.561152
O28	O	-0.678473	-0.266805	0.089426
O29	O	-0.345140	0.066528	0.422759
O30	O	-0.011806	0.399862	0.756093
C31	C	-0.575286	-0.131230	0.000096
C32	C	-0.241952	0.202103	0.333430
C33	C	0.091381	0.535436	0.666763
C34	C	-0.512000	-0.129956	0.000084
C35	C	-0.178667	0.203378	0.333418
C36	C	0.154667	0.536711	0.666751
C37	C	-0.674361	0.049920	0.000126
C38	C	-0.341027	0.383253	0.333460
C39	C	-0.007694	0.716587	0.666793
C40	C	-0.667895	0.155085	0.000126
C41	C	-0.334561	0.488418	0.333460
C42	C	-0.001228	0.821751	0.666793
C43	C	-0.782724	-0.115439	0.000134
C44	C	-0.449390	0.217894	0.333467
C45	C	-0.116057	0.551227	0.666800
C46	C	-0.846010	-0.116714	0.000138
C47	C	-0.512676	0.216620	0.333472
C48	C	-0.179343	0.549953	0.666805
C49	C	-0.117154	-0.208534	0.000127
C50	C	0.216179	0.124800	0.333461
C51	C	0.549512	0.458133	0.666794
C52	C	-0.057690	-0.207350	0.000134
C53	C	0.275644	0.125983	0.333467
C54	C	0.608977	0.459316	0.666801
O55	O	-0.024892	-0.280193	0.000168
O56	O	0.308441	0.053141	0.333501
O57	O	0.641775	0.386474	0.666834
N58	N	-0.030350	-0.120386	0.000139
N59	N	0.302984	0.212947	0.333472
N60	N	0.636317	0.546280	0.666805
C61	C	-0.062477	-0.034600	0.000147
C62	C	0.270856	0.298733	0.333481
C63	C	0.604189	0.632066	0.666814
O64	O	-0.033762	0.039478	0.000153
O65	O	0.299571	0.372811	0.333486
O66	O	0.632904	0.706145	0.666820
C67	C	-0.121941	-0.035785	0.000148
C68	C	0.211393	0.297548	0.333482
C69	C	0.544726	0.630882	0.666815
C70	C	-0.149278	-0.122754	0.000133
C71	C	0.184056	0.210579	0.333466
C72	C	0.517389	0.543913	0.666800
C73	C	-0.144492	-0.295496	0.000113
C74	C	0.188842	0.037838	0.333446
C75	C	0.522175	0.371171	0.666780
C76	C	-0.203952	-0.296678	0.000104
C77	C	0.129381	0.036655	0.333438
C78	C	0.462715	0.369988	0.666771
C79	C	-0.236075	-0.210899	0.000110
C80	C	0.097258	0.122435	0.333443
C81	C	0.430591	0.455768	0.666777
C82	C	-0.208738	-0.123937	0.000124
C83	C	0.124595	0.209397	0.333458
C84	C	0.457928	0.542730	0.666791
C85	C	-0.154067	0.050000	0.000165
C86	C	0.179267	0.383333	0.333498
C87	C	0.512600	0.716666	0.666832
C88	C	-0.213534	0.048807	0.000167
C89	C	0.119800	0.382141	0.333500
C90	C	0.453133	0.715474	0.666834
C91	C	-0.240871	-0.038162	0.000151
C92	C	0.092462	0.295172	0.333485
C93	C	0.425796	0.628505	0.666818
C94	C	-0.300322	-0.039340	0.000121
C95	C	0.033011	0.293994	0.333455
C96	C	0.366345	0.627327	0.666788
N97	N	-0.327662	-0.126304	0.000117
N98	N	0.005671	0.207030	0.333450
N99	N	0.339005	0.540363	0.666783
C100	C	-0.295539	-0.212083	0.000111
C101	C	0.037795	0.121250	0.333444
C102	C	0.371128	0.454583	0.666778
C103	C	0.062400	-0.032119	0.000147
C104	C	0.395733	0.301214	0.333481
C105	C	0.729066	0.634547	0.666814
C106	C	0.121862	-0.030933	0.000138
C107	C	0.455195	0.302400	0.333472
C108	C	0.788528	0.635734	0.666805
C109	C	0.126645	-0.203684	0.000127
C110	C	0.459979	0.129650	0.333460
C111	C	0.793312	0.462983	0.666794
C112	C	0.067182	-0.204868	0.000128
C113	C	0.400515	0.128465	0.333461
C114	C	0.733849	0.461798	0.666795
C115	C	0.035060	-0.119083	0.000143
C116	C	0.368393	0.214250	0.333476
C117	C	0.701726	0.547583	0.666809
C118	C	-0.420410	-0.214560	0.000092
C119	C	-0.087077	0.118773	0.333425
C120	C	0.246256	0.452106	0.666759
C121	C	-0.479877	-0.215735	0.000079
C122	C	-0.146543	0.117598	0.333412
C123	C	0.186790	0.450932	0.666745
C124	C	-0.484655	-0.042985	0.000096
C125	C	-0.151321	0.290348	0.333429
C126	C	0.182012	0.623681	0.666763
C127	C	-0.425194	-0.041810	0.000103
C128	C	-0.091861	0.291524	0.333437
C129	C	0.241473	0.624857	0.666770
C130	C	-0.393073	-0.127605	0.000105
C131	C	-0.059740	0.205728	0.333438
C132	C	0.273594	0.539062	0.666772
O133	O	-0.333156	0.033464	0.000092
O134	O	0.000177	0.366797	0.333425
O135	O	0.333510	0.700131	0.666759
O136	O	-0.324261	-0.286150	0.000120
O137	O	0.009073	0.047183	0.333453
O138	O	0.342406	0.380516	0.666786
C139	C	-0.683649	-0.296589	0.000104
C140	C	-0.350316	0.036744	0.333437
C141	C	-0.016982	0.370077	0.666770
C142	C	-0.690115	-0.401754	0.000097
C143	C	-0.356782	-0.068420	0.333430
C144	C	-0.023448	0.264913	0.666763
N145	N	-0.670448	-0.139016	0.254338
N146	N	-0.337114	0.194318	0.587671
N147	N	-0.003781	0.527651	0.921005
C148	C	-0.656074	0.347636	0.000109
C149	C	-0.322741	0.680969	0.333442
C150	C	0.010593	1.014303	0.666775
C151	C	-0.701933	0.405701	0.000114
C152	C	-0.368600	0.739034	0.333448
C153	C	-0.035266	1.072367	0.666781
C154	C	-0.695356	0.512843	0.000104
C155	C	-0.362023	0.846176	0.333438
C156	C	-0.028689	1.179509	0.666771
C157	C	-0.662650	0.240484	0.000119
C158	C	-0.329317	0.573817	0.333452
C159	C	0.004016	0.907150	0.666785
N160	N	-0.687566	-0.107646	-0.254106
N161	N	-0.354232	0.225687	0.079228
N162	N	-0.020899	0.559020	0.412561
C163	C	-0.663093	-0.152506	0.473451
C164	C	-0.329760	0.180828	0.806784
C165	C	0.003574	0.514161	1.140118
C166	C	-0.694919	-0.094159	0.526788
C167	C	-0.361585	0.239174	0.860122
C168	C	-0.028252	0.572507	1.193455
C169	C	-0.690826	-0.101666	0.648710
C170	C	-0.357493	0.231668	0.982044
C171	C	-0.024160	0.565001	1.315377
C172	C	-0.667185	-0.145001	0.351518
C173	C	-0.333851	0.188332	0.684851
C174	C	-0.000518	0.521666	1.018185
H175	H	-0.502131	-0.286559	0.000066
H176	H	-0.168798	0.046775	0.333399
H177	H	0.164535	0.380108	0.666732
H178	H	-0.394264	-0.284424	0.000097
H179	H	-0.060931	0.048910	0.333430
H180	H	0.272403	0.382243	0.666763
C181	C	-0.761646	0.364153	0.000141
C182	C	-0.428313	0.697486	0.333474
C183	C	-0.094980	1.030819	0.666808
N184	N	-0.806620	0.332854	0.000167
N185	N	-0.473287	0.666187	0.333500
N186	N	-0.139954	0.999520	0.666833
H187	H	-0.226204	-0.367497	0.000091
H188	H	0.107129	-0.034164	0.333425
H189	H	0.440462	0.299169	0.666758
C190	C	0.037117	-0.300541	0.000123
C191	C	0.370451	0.032793	0.333456
C192	C	0.703784	0.366126	0.666789
N193	N	0.014476	-0.372606	0.000123
N194	N	0.347809	-0.039272	0.333457
N195	N	0.681143	0.294061	0.666790
H196	H	-0.725239	-0.038571	0.480885
H197	H	-0.391906	0.294762	0.814219
H198	H	-0.058572	0.628096	1.147552
H199	H	-0.118342	-0.365352	0.000112
H200	H	0.214991	-0.032019	0.333446
H201	H	0.548324	0.301315	0.666779
H202	H	-0.611877	0.378390	0.000098
H203	H	-0.278544	0.711723	0.333431
H204	H	0.054790	1.045056	0.666764
C205	C	-0.248865	0.143181	0.000178
C206	C	0.084468	0.476514	0.333512
C207	C	0.417802	0.809848	0.666845
N208	N	-0.275475	0.214263	0.000183
N209	N	0.057858	0.547596	0.333516
N210	N	0.391191	0.880930	0.666849
C211	C	0.161993	-0.298044	0.000132
C212	C	0.495326	0.035289	0.333465
C213	C	0.828659	0.368622	0.666798
N214	N	0.188618	-0.369112	0.000137
N215	N	0.521951	-0.035779	0.333470
N216	N	0.855285	0.297555	0.666803
H217	H	0.144114	0.039887	0.000134
H218	H	0.477447	0.373220	0.333468
H219	H	0.810780	0.706553	0.666801
C220	C	0.027070	0.062259	0.000146
C221	C	0.360403	0.395592	0.333479
C222	C	0.693736	0.728925	0.666812
N223	N	0.000462	0.133344	0.000144
N224	N	0.333795	0.466677	0.333477
N225	N	0.667129	0.800011	0.666810
H226	H	-0.131819	0.120819	0.000179
H227	H	0.201514	0.454152	0.333512
H228	H	0.534847	0.787486	0.666845
C229	C	-0.395123	0.053861	0.000107
C230	C	-0.061790	0.387194	0.333440
C231	C	0.271544	0.720528	0.666773
N232	N	-0.372477	0.125921	0.000118
N233	N	-0.039144	0.459255	0.333451
N234	N	0.294190	0.792588	0.666785
C235	C	-0.520001	0.051367	0.000115
C236	C	-0.186668	0.384700	0.333448
C237	C	0.146665	0.718033	0.666781
N238	N	-0.546626	0.122432	0.000140
N239	N	-0.213292	0.455766	0.333474
N240	N	0.120041	0.789099	0.666807
H241	H	-0.632776	-0.208092	0.519348
H242	H	-0.299442	0.125241	0.852682
H243	H	0.033891	0.458575	1.186015
