data_functionalizedCrystal
_audit_creation_method	'MofGen! by Chris Wilmer'
_symmetry_space_group_name_H-M	'P1'
_symmetry_Int_Tables_number	1
_symmetry_cell_setting	triclinic
loop_
_symmetry_equiv_pos_as_xyz
  x,y,z
_cell_length_a	14.044220
_cell_length_b	22.010155
_cell_length_c	14.044220
_cell_angle_alpha	90.003727
_cell_angle_beta	86.811122
_cell_angle_gamma	90.004279
loop_
_atom_site_label
_atom_site_type_symbol
_atom_site_fract_x
_atom_site_fract_y
_atom_site_fract_z
O1	O	1.277174	0.050463	-0.230155
O2	O	1.000502	0.050478	-0.221849
O3	O	1.134685	0.050465	-0.087666
O4	O	1.142991	0.050476	-0.364338
O5	O	1.134660	-0.050586	-0.087686
O6	O	1.000478	-0.050572	-0.221869
O7	O	1.277149	-0.050587	-0.230175
Cu8	Cu	1.138811	-0.059806	-0.226024
Cu9	Cu	1.138840	0.059697	-0.226000
O10	O	1.142966	-0.050574	-0.364357
C11	C	0.964868	-0.000045	-0.218223
C12	C	0.858725	-0.000039	-0.207379
N13	N	1.138797	-0.143859	-0.226040
C14	C	0.664388	-0.000052	-0.187553
C15	C	0.613258	-0.000052	-0.264467
C16	C	0.505122	-0.000059	-0.253435
C17	C	0.772534	-0.000045	-0.198583
C18	C	1.198261	-0.563644	-0.166594
C19	C	1.198265	-0.627252	-0.166587
O20	O	1.248786	-0.660148	-0.116053
N21	N	1.138838	-0.659066	-0.225980
C22	C	1.079396	-0.627269	-0.285376
O23	O	1.028849	-0.660170	-0.335893
C24	C	1.079388	-0.563663	-0.285377
C25	C	1.138826	-0.531852	-0.225987
C26	C	1.257693	-0.531833	-0.107208
C27	C	1.257691	-0.468230	-0.107216
C28	C	1.198256	-0.436438	-0.166609
C29	C	1.138823	-0.468249	-0.225995
C30	C	1.019942	-0.531867	-0.344767
C31	C	1.019939	-0.468257	-0.344762
C32	C	1.079377	-0.436446	-0.285372
C33	C	1.079385	-0.372853	-0.285396
N34	N	1.138812	-0.341039	-0.226003
C35	C	1.198247	-0.372831	-0.166609
C36	C	1.079417	-0.760847	-0.285369
C37	C	1.079429	-0.824452	-0.285374
C38	C	1.198297	-0.824431	-0.166584
C39	C	1.198289	-0.760824	-0.166585
C40	C	1.138844	-0.729033	-0.225976
C41	C	1.198238	-0.239260	-0.166631
C42	C	1.198232	-0.175651	-0.166647
C43	C	1.079362	-0.175679	-0.285433
C44	C	1.079370	-0.239282	-0.285421
C45	C	1.138811	-0.271071	-0.226012
O46	O	1.028888	-0.339916	-0.335901
O47	O	1.248777	-0.339923	-0.116092
C48	C	1.312783	-0.000063	-0.233800
C49	C	1.418926	-0.000064	-0.244645
C50	C	1.131037	-0.000060	-0.052054
C51	C	1.120193	-0.000061	0.054088
N52	N	1.138861	0.143750	-0.225977
C53	C	1.146614	-0.000047	-0.399969
C54	C	1.157459	-0.000043	-0.506112
C55	C	1.100366	-0.000051	0.248426
C56	C	1.177281	-0.000053	0.299556
C57	C	1.166249	-0.000048	0.407692
C58	C	1.111397	-0.000056	0.140280
H59	H	0.626951	-0.000059	-0.113425
C60	C	0.637300	0.051916	-0.414186
C61	C	0.663781	-0.000035	-0.364552
H62	H	0.668488	0.051926	-0.475974
H63	H	0.655249	0.087144	-0.380470
H64	H	0.570204	0.051903	-0.419787
H65	H	0.730877	-0.000020	-0.358945
H66	H	0.645838	-0.035272	-0.398276
C67	C	0.950618	-0.051992	0.272492
C68	C	1.000291	-0.000046	0.298956
H69	H	0.888835	-0.051987	0.303691
H70	H	0.984315	-0.087223	0.290439
H71	H	0.945005	-0.051987	0.205397
H72	H	1.005911	-0.000053	0.366050
H73	H	0.966586	0.035194	0.281014
C74	C	1.327002	-0.052018	0.275494
C75	C	1.277362	-0.000068	0.249024
H76	H	1.388786	-0.052025	0.244297
H77	H	1.293285	-0.087246	0.257547
H78	H	1.332612	-0.052007	0.342589
H79	H	1.271745	-0.000080	0.181929
H80	H	1.311087	0.035170	0.266964
H81	H	1.246637	-0.149753	-0.118285
H82	H	1.246639	-0.265136	-0.118254
H83	H	1.306087	-0.442333	-0.058853
H84	H	1.246691	-0.850327	-0.118221
H85	H	1.306092	-0.557713	-0.058838
H86	H	1.031040	-0.850348	-0.333746
H87	H	1.246687	-0.734927	-0.118224
C88	C	0.961934	-0.767268	-0.402802
C89	C	1.014083	-0.725905	-0.350673
H90	H	0.921605	-0.745697	-0.443120
H91	H	0.924239	-0.792074	-0.360135
H92	H	1.004595	-0.792077	-0.440516
H93	H	0.971422	-0.701099	-0.312954
H94	H	1.051782	-0.701088	-0.393345
C95	C	0.859399	-0.551446	-0.386736
C96	C	0.954599	-0.566822	-0.410045
H97	H	0.819056	-0.573027	-0.427036
H98	H	0.850908	-0.509017	-0.395232
H99	H	0.843665	-0.561874	-0.322134
H100	H	0.970334	-0.556389	-0.474646
H101	H	0.963094	-0.609260	-0.401558
C102	C	0.977832	-0.448693	-0.505268
C103	C	0.954599	-0.433311	-0.410053
H104	H	0.937500	-0.427117	-0.545576
H105	H	0.969327	-0.491123	-0.513753
H106	H	1.042425	-0.438261	-0.521052
H107	H	0.890008	-0.443747	-0.394267
H108	H	0.963097	-0.390872	-0.401563
C109	C	0.961863	-0.232911	-0.402828
C110	C	1.014032	-0.274252	-0.350698
H111	H	0.921514	-0.254498	-0.443115
H112	H	1.004503	-0.208111	-0.440566
H113	H	0.924177	-0.208094	-0.360154
H114	H	1.051723	-0.299067	-0.393372
H115	H	0.971386	-0.299063	-0.312957
H116	H	1.030973	-0.149783	-0.333793
