data_functionalizedCrystal
_audit_creation_method	'MofGen! by Chris Wilmer'
_symmetry_space_group_name_H-M	'P1'
_symmetry_Int_Tables_number	1
_symmetry_cell_setting	triclinic
loop_
_symmetry_equiv_pos_as_xyz
  x,y,z
_cell_length_a	11.792241
_cell_length_b	12.503572
_cell_length_c	11.792254
_cell_angle_alpha	86.452607
_cell_angle_beta	84.196007
_cell_angle_gamma	93.538276
loop_
_atom_site_label
_atom_site_type_symbol
_atom_site_fract_x
_atom_site_fract_y
_atom_site_fract_z
O1	O	1.513413	0.089216	0.149049
O2	O	1.846746	0.422550	0.482382
O3	O	2.180079	0.755883	0.815715
O4	O	1.183074	0.089241	0.165080
O5	O	1.516407	0.422575	0.498413
O6	O	1.849741	0.755908	0.831746
O7	O	1.356252	0.089221	-0.008105
O8	O	1.689585	0.422554	0.325229
O9	O	2.022918	0.755887	0.658562
O10	O	1.340235	0.089237	0.322233
O11	O	1.673568	0.422570	0.655566
O12	O	2.006902	0.755904	0.988900
O13	O	1.343228	-0.089420	0.004941
O14	O	1.676561	0.243914	0.338275
O15	O	2.009895	0.577247	0.671608
O16	O	1.170050	-0.089399	0.178126
O17	O	1.503384	0.243934	0.511459
O18	O	1.836717	0.577268	0.844793
O19	O	1.500389	-0.089424	0.162095
O20	O	1.833722	0.243909	0.495428
O21	O	2.167055	0.577243	0.828762
Cu22	Cu	1.334030	-0.105723	0.171302
Cu23	Cu	1.667364	0.227611	0.504635
Cu24	Cu	2.000697	0.560944	0.837968
Cu25	Cu	1.349433	0.105540	0.155873
Cu26	Cu	1.682766	0.438873	0.489206
Cu27	Cu	2.016099	0.772207	0.822540
O28	O	1.327211	-0.089403	0.335279
O29	O	1.660545	0.243930	0.668613
O30	O	1.993878	0.577263	1.001946
C31	C	1.134271	-0.000076	0.170595
C32	C	1.467605	0.333258	0.503929
C33	C	1.800938	0.666591	0.837262
C34	C	1.008258	-0.000066	0.167580
C35	C	1.341592	0.333267	0.500914
C36	C	1.674925	0.666600	0.834247
N37	N	1.323206	-0.254314	0.182153
N38	N	1.656539	0.079020	0.515486
N39	N	1.989872	0.412353	0.848819
C40	C	0.777544	-0.000097	0.162040
C41	C	1.110877	0.333236	0.495373
C42	C	1.444210	0.666569	0.828706
C43	C	0.905930	-0.000080	0.165118
C44	C	1.239263	0.333253	0.498452
C45	C	1.572597	0.666586	0.831785
C46	C	1.307282	-0.473427	0.198124
C47	C	1.640615	-0.140094	0.531458
C48	C	1.973948	0.193240	0.864791
C49	C	1.376186	-0.526762	0.129045
C50	C	1.709520	-0.193429	0.462378
C51	C	2.042853	0.139904	0.795712
C52	C	1.367326	-0.648685	0.137932
C53	C	1.700660	-0.315351	0.471265
C54	C	2.033993	0.017982	0.804598
C55	C	1.316141	-0.351494	0.189239
C56	C	1.649474	-0.018161	0.522572
C57	C	1.982807	0.315173	0.855906
C58	C	1.549192	-0.000105	0.156579
C59	C	1.882525	0.333229	0.489912
C60	C	2.215858	0.666562	0.823246
C61	C	1.675205	-0.000107	0.159594
C62	C	2.008539	0.333226	0.492927
C63	C	2.341872	0.666560	0.826260
C64	C	1.348731	-0.000099	-0.043872
C65	C	1.682064	0.333234	0.289461
C66	C	2.015397	0.666568	0.622794
C67	C	1.345711	-0.000098	-0.169886
C68	C	1.679044	0.333235	0.163448
C69	C	2.012377	0.666569	0.496781
N70	N	1.360266	0.254131	0.145013
N71	N	1.693600	0.587464	0.478346
N72	N	2.026933	0.920798	0.811680
C73	C	1.343257	-0.000094	-0.272222
C74	C	1.676591	0.333239	0.061111
C75	C	2.009924	0.666573	0.394444
C76	C	1.340189	-0.000084	-0.400610
C77	C	1.673523	0.333250	-0.067276
C78	C	2.006856	0.666583	0.266057
C79	C	1.334732	-0.000081	0.371047
C80	C	1.668066	0.333252	0.704380
C81	C	2.001399	0.666586	1.037714
C82	C	1.337753	-0.000075	0.497059
C83	C	1.671086	0.333258	0.830393
C84	C	2.004420	0.666591	1.163726
H85	H	1.441832	-0.480857	0.063230
H86	H	1.775166	-0.147524	0.396564
H87	H	2.108499	0.185809	0.729897
C88	C	1.218602	-0.535440	0.287031
C89	C	1.551935	-0.202106	0.620364
C90	C	1.885268	0.131227	0.953697
N91	N	1.151809	-0.582160	0.353995
N92	N	1.485143	-0.248826	0.687328
N93	N	1.818476	0.084507	1.020662
