data_functionalizedCrystal
_audit_creation_method	'MofGen! by Chris Wilmer'
_symmetry_space_group_name_H-M	'P1'
_symmetry_Int_Tables_number	1
_symmetry_cell_setting	triclinic
loop_
_symmetry_equiv_pos_as_xyz
  x,y,z
_cell_length_a	12.759401
_cell_length_b	21.295417
_cell_length_c	21.295420
_cell_angle_alpha	90.018953
_cell_angle_beta	90.004579
_cell_angle_gamma	90.032032
loop_
_atom_site_label
_atom_site_type_symbol
_atom_site_fract_x
_atom_site_fract_y
_atom_site_fract_z
Zn1	Zn	1.605981	-0.250672	0.355881
Zn2	Zn	1.605874	-0.355919	0.250606
Zn3	Zn	1.430330	-0.250670	0.250629
Zn4	Zn	1.430223	-0.355910	0.355841
O5	O	1.518102	-0.303293	0.303239
O6	O	1.752988	-0.264638	0.341923
O7	O	1.582588	-0.341961	0.162520
O8	O	1.453720	-0.162581	0.264617
O9	O	1.752909	-0.341962	0.264578
O10	O	1.582770	-0.162582	0.341945
O11	O	1.453616	-0.264635	0.162537
O12	O	1.283295	-0.264626	0.264579
O13	O	1.453538	-0.341947	0.443936
O14	O	1.283217	-0.341946	0.341878
O15	O	1.582667	-0.264629	0.443965
O16	O	1.582484	-0.444007	0.264540
O17	O	1.453434	-0.444001	0.341855
C18	C	1.245135	-0.303285	0.303227
C19	C	1.128358	-0.303297	0.303236
C20	C	1.073483	-0.343618	0.343422
C21	C	0.963759	-0.343621	0.343435
C22	C	0.963795	-0.262979	0.263070
C23	C	1.073517	-0.262974	0.263061
C24	C	0.813817	-0.366233	0.417644
C25	C	0.758938	-0.406564	0.457825
C26	C	0.794503	-0.468000	0.467372
C27	C	0.884945	-0.489117	0.436729
C28	C	0.939819	-0.448789	0.396544
C29	C	0.904255	-0.387345	0.387009
C30	C	1.223461	-0.240368	0.188851
C31	C	1.278336	-0.200043	0.148662
C32	C	1.242773	-0.138606	0.139108
C33	C	1.152328	-0.117491	0.169740
C34	C	1.097453	-0.157816	0.209928
C35	C	1.133023	-0.219252	0.219483
C36	C	1.517965	-0.466845	0.303204
C37	C	1.518002	-0.536813	0.303210
C38	C	1.585258	-0.569662	0.262993
C39	C	1.585307	-0.635404	0.263008
C40	C	1.518081	-0.668295	0.303232
C41	C	1.450821	-0.635438	0.343457
C42	C	1.450781	-0.569697	0.343446
N43	N	1.426172	-0.771563	0.308027
N44	N	1.426213	-0.834015	0.308033
C45	C	1.518199	-0.866370	0.303268
N46	N	1.610145	-0.833914	0.298484
N47	N	1.610103	-0.771457	0.298474
C48	C	1.518118	-0.739580	0.303249
C49	C	1.585514	-0.970504	0.263064
C50	C	1.585565	-1.036248	0.263083
C51	C	1.451070	-1.036281	0.343529
C52	C	1.451028	-0.970538	0.343514
C53	C	1.518249	-0.937654	0.303278
C54	C	1.792135	-0.303301	0.303252
C55	C	1.908912	-0.303305	0.303258
C56	C	1.518103	-0.303287	0.467429
C57	C	1.518103	-0.303285	0.537397
C58	C	1.518269	-0.139103	0.303288
C59	C	1.518340	-0.069135	0.303309
C60	C	1.585293	-0.263033	1.036872
C61	C	1.585305	-0.263034	0.971129
C62	C	1.518077	-0.303287	0.938237
C63	C	1.450852	-0.343554	0.971093
C64	C	1.450850	-0.343557	1.036834
N65	N	1.426109	-0.308111	0.835010
N66	N	1.426114	-0.308105	0.772559
C67	C	1.518079	-0.303285	0.740162
N68	N	1.610042	-0.298458	0.772577
N69	N	1.610036	-0.298460	0.835034
C70	C	1.518071	-0.303290	0.866952
C71	C	1.585317	-0.263024	0.636029
C72	C	1.585330	-0.263030	0.570285
C73	C	1.450868	-0.343548	0.570250
C74	C	1.450864	-0.343545	0.635993
C75	C	1.518088	-0.303280	0.668878
C76	C	1.518089	-0.303307	1.139688
C77	C	1.518073	-0.303292	1.069719
H78	H	0.913888	-0.539147	0.444501
Br79	Br	1.317236	-0.083883	0.084554
H80	H	1.640054	-0.230238	0.662806
H81	H	1.640043	-0.230248	0.944379
Br82	Br	1.676590	-0.679995	0.208424
Br83	Br	1.676576	-0.208393	0.525704
H84	H	0.685300	-0.389365	0.482775
Br85	Br	0.765558	-0.282847	0.404703
H86	H	1.396133	-0.376325	0.543470
H87	H	1.396122	-0.376326	0.662738
H88	H	1.396087	-0.662222	0.376209
H89	H	1.118131	-0.376451	0.376137
H90	H	1.013454	-0.465983	0.371595
Br91	Br	1.359619	-0.398189	0.926455
H92	H	1.252432	-0.290393	0.196632
Br93	Br	1.401072	-0.228704	0.107077
H94	H	0.749813	-0.500838	0.500089
Br95	Br	0.974696	-0.129163	0.251496
Br96	Br	0.889361	-0.208257	0.208548
Br97	Br	1.676736	-0.925872	0.208458
Br98	Br	1.104049	-0.034113	0.156768
Br99	Br	1.676860	-1.080831	0.208504
H100	H	1.639995	-0.542889	0.230233
H101	H	1.396012	-0.542950	0.376196
H102	H	1.396109	-0.376341	1.063578
H103	H	1.396338	-1.063060	0.376284
H104	H	1.396257	-0.943791	0.376260
Br105	Br	1.676568	-0.208414	1.081499
