data_functionalizedCrystal
_audit_creation_method	'MofGen! by Chris Wilmer'
_symmetry_space_group_name_H-M	'P1'
_symmetry_Int_Tables_number	1
_symmetry_cell_setting	triclinic
loop_
_symmetry_equiv_pos_as_xyz
  x,y,z
_cell_length_a	17.699104
_cell_length_b	12.811415
_cell_length_c	16.176319
_cell_angle_alpha	84.562354
_cell_angle_beta	89.991696
_cell_angle_gamma	83.669063
loop_
_atom_site_label
_atom_site_type_symbol
_atom_site_fract_x
_atom_site_fract_y
_atom_site_fract_z
O1	O	1.004664	0.132836	-0.078720
O2	O	1.504664	0.632836	0.421280
O3	O	0.784365	0.150082	-0.080011
O4	O	1.284365	0.650082	0.419989
O5	O	0.900056	-0.011347	-0.067906
O6	O	1.400056	0.488653	0.432094
O7	O	0.888973	0.294266	-0.090825
O8	O	1.388973	0.794266	0.409175
O9	O	0.900040	-0.011358	0.069588
O10	O	1.400040	0.488642	0.569588
O11	O	0.784349	0.150072	0.057483
O12	O	1.284349	0.650072	0.557483
O13	O	1.004648	0.132826	0.058774
O14	O	1.504648	0.632826	0.558774
Cu15	Cu	0.894497	0.141448	0.070683
Cu16	Cu	1.394497	0.641448	0.570683
Cu17	Cu	0.894516	0.141460	-0.091920
Cu18	Cu	1.394516	0.641460	0.408080
O19	O	0.888957	0.294256	0.046669
O20	O	1.388957	0.794256	0.546669
C21	C	0.756158	0.149455	-0.011217
C22	C	1.256158	0.649455	0.488783
C23	C	0.672132	0.147590	-0.011076
C24	C	1.172132	0.647590	0.488924
C25	C	0.147639	0.231828	-0.017402
C26	C	0.647639	0.731828	0.482598
C27	C	0.226590	0.233574	-0.017536
C28	C	0.726590	0.733574	0.482464
C29	C	0.274783	0.138809	-0.010429
C30	C	0.774783	0.638809	0.489571
C31	C	0.244021	0.042291	-0.003197
C32	C	0.744021	0.542291	0.496803
C33	C	0.165070	0.040546	-0.003069
C34	C	0.665070	0.540546	0.496931
C35	C	0.562418	0.049326	-0.003711
C36	C	1.062418	0.549326	0.496289
C37	C	0.641373	0.051079	-0.003836
C38	C	1.141373	0.551079	0.496164
C39	C	0.623938	0.242355	-0.018177
C40	C	1.123938	0.742355	0.481823
C41	C	0.544988	0.240610	-0.018050
C42	C	1.044988	0.740610	0.481950
C43	C	0.514232	0.144093	-0.010822
C44	C	1.014232	0.644093	0.489178
C45	C	0.428624	0.142200	-0.010679
C46	C	0.928624	0.642200	0.489321
C47	C	0.360390	0.140700	-0.010566
C48	C	0.860390	0.640700	0.489434
C49	C	0.899427	-0.050455	0.003771
C50	C	1.399427	0.449545	0.503771
C51	C	0.897566	-0.166969	0.012504
C52	C	1.397566	0.333031	0.512504
C53	C	0.894073	-0.385889	-0.121000
C54	C	1.394073	0.114111	0.379000
C55	C	0.892325	-0.495364	-0.112799
C56	C	1.392325	0.004636	0.387201
C57	C	0.892316	-0.495397	0.037106
C58	C	1.392316	0.004603	0.537106
C59	C	0.894064	-0.385921	0.028905
C60	C	1.394064	0.114079	0.528905
C61	C	0.894944	-0.331172	-0.050151
C62	C	1.394944	0.168828	0.449849
C63	C	0.896698	-0.221695	-0.058351
C64	C	1.396698	0.278305	0.441649
C65	C	0.896683	-0.221728	0.091553
C66	C	1.396683	0.278272	0.591553
C67	C	0.894934	-0.331204	0.099754
C68	C	1.394934	0.168796	0.599754
C69	C	1.032856	0.133453	-0.010022
C70	C	1.532856	0.633453	0.489978
C71	C	1.116881	0.135318	-0.010168
C72	C	1.616881	0.635318	0.489832
C73	C	0.889587	0.333364	-0.025011
C74	C	1.389587	0.833364	0.474989
C75	C	0.891447	0.449878	-0.033749
C76	C	1.391447	0.949878	0.466251
N77	N	0.894489	0.141439	0.185048
N78	N	1.394489	0.641439	0.685048
N79	N	0.894530	0.141461	-0.206285
N80	N	1.394530	0.641461	0.293715
C81	C	0.945733	0.069987	0.233670
C82	C	1.445733	0.569987	0.733670
C83	C	0.945737	0.069986	0.320218
C84	C	1.445737	0.569986	0.820218
C85	C	0.894500	0.141443	0.358141
C86	C	1.394500	0.641443	0.858141
C87	C	0.843251	0.212898	0.309513
C88	C	1.343251	0.712898	0.809513
C89	C	0.843244	0.212893	0.222967
C90	C	1.343244	0.712893	0.722967
C91	C	0.843277	0.212917	0.658539
C92	C	1.343277	0.712917	1.158539
C93	C	0.843289	0.212919	0.745091
C94	C	1.343289	0.712919	1.245091
C95	C	0.945770	0.070010	0.755790
C96	C	1.445770	0.570010	1.255790
C97	C	0.945763	0.070006	0.669244
C98	C	1.445763	0.570006	1.169244
C99	C	0.894511	0.141457	0.620624
C100	C	1.394511	0.641457	1.120624
C101	C	0.894507	0.141456	0.526780
C102	C	1.394507	0.641456	1.026780
C103	C	0.894508	0.141449	0.451983
C104	C	1.394508	0.641449	0.951983
H105	H	0.680611	-0.026095	0.001949
H106	H	1.180611	0.473905	0.501949
H107	H	0.897416	-0.177120	-0.122722
H108	H	1.397416	0.322880	0.377278
H109	H	0.894797	-0.341312	-0.185370
H110	H	1.394797	0.158688	0.314630
H111	H	0.891613	-0.539911	-0.170492
H112	H	1.391613	-0.039911	0.329508
H113	H	0.801563	0.271109	0.775966
H114	H	1.301563	0.771109	1.275966
H115	H	0.891593	-0.539992	0.101469
H116	H	1.391593	-0.039992	0.601469
H117	H	0.108405	0.308998	-0.023183
H118	H	0.608405	0.808998	0.476817
H119	H	0.251628	0.312163	-0.023434
H120	H	0.751628	0.812163	0.476566
H121	H	0.505752	0.317777	-0.023833
H122	H	1.005752	0.817777	0.476167
H123	H	0.894215	-0.375795	0.164119
H124	H	1.394215	0.124205	0.664119
H125	H	0.648988	0.320944	-0.024066
H126	H	1.148988	0.820944	0.475934
H127	H	0.987499	0.011827	0.795386
H128	H	1.487499	0.511827	1.295386
H129	H	0.897394	-0.177166	0.149244
H130	H	1.397394	0.322834	0.649244
H131	H	0.801548	0.271097	0.618959
H132	H	1.301548	0.771097	1.118959
H133	H	0.987459	0.011803	0.202799
H134	H	1.487459	0.511803	0.702799
H135	H	0.537387	-0.029263	0.002177
H136	H	1.037387	0.470737	0.502177
H137	H	0.987462	0.011804	0.359806
H138	H	1.487462	0.511804	0.859806
H139	H	0.801529	0.271076	0.340395
H140	H	1.301529	0.771076	0.840395
H141	H	0.987487	0.011823	0.638370
H142	H	1.487487	0.511823	1.138370
H143	H	0.283266	-0.034868	0.002585
H144	H	0.783266	0.465132	0.502585
H145	H	0.140030	-0.038042	0.002820
H146	H	0.640030	0.461958	0.502820
H147	H	0.801516	0.271075	0.183380
H148	H	1.301516	0.771075	0.683380
