data_functionalizedCrystal
_audit_creation_method	'MofGen! by Chris Wilmer'
_symmetry_space_group_name_H-M	'P1'
_symmetry_Int_Tables_number	1
_symmetry_cell_setting	triclinic
loop_
_symmetry_equiv_pos_as_xyz
  x,y,z
_cell_length_a	18.101395
_cell_length_b	19.077105
_cell_length_c	19.076919
_cell_angle_alpha	89.923776
_cell_angle_beta	92.272317
_cell_angle_gamma	92.272502
loop_
_atom_site_label
_atom_site_type_symbol
_atom_site_fract_x
_atom_site_fract_y
_atom_site_fract_z
Zn1	Zn	-0.358271	-1.058231	-0.440421
Zn2	Zn	-0.024938	-0.724897	-0.107088
Zn3	Zn	0.308395	-0.391564	0.226246
Zn4	Zn	-0.477344	-1.062857	-0.322915
Zn5	Zn	-0.144010	-0.729524	0.010418
Zn6	Zn	0.189323	-0.396191	0.343751
Zn7	Zn	-0.348351	-0.945450	-0.318214
Zn8	Zn	-0.015017	-0.612116	0.015119
Zn9	Zn	0.318316	-0.278783	0.348452
Zn10	Zn	-0.476897	-0.940679	-0.435668
Zn11	Zn	-0.143564	-0.607346	-0.102335
Zn12	Zn	0.189769	-0.274013	0.230999
O13	O	-0.415216	-1.001804	-0.379305
O14	O	-0.081882	-0.668471	-0.045971
O15	O	0.251451	-0.335138	0.287362
O16	O	-0.378405	-1.157176	-0.428790
O17	O	-0.045072	-0.823842	-0.095457
O18	O	0.288261	-0.490509	0.237876
O19	O	-0.456268	-1.051216	-0.223960
O20	O	-0.122934	-0.717882	0.109373
O21	O	0.210399	-0.384549	0.442706
O22	O	-0.246037	-0.960470	-0.334447
O23	O	0.087296	-0.627137	-0.001114
O24	O	0.420629	-0.293804	0.332220
O25	O	-0.465887	-1.160575	-0.342459
O26	O	-0.132554	-0.827242	-0.009126
O27	O	0.200779	-0.493908	0.324207
O28	O	-0.253326	-1.043330	-0.424232
O29	O	0.080007	-0.709997	-0.090898
O30	O	0.413341	-0.376663	0.242435
O31	O	-0.361497	-0.964957	-0.220507
O32	O	-0.028164	-0.631623	0.112827
O33	O	0.305170	-0.298290	0.446160
O34	O	-0.361064	-0.846486	-0.329838
O35	O	-0.027731	-0.513152	0.003495
O36	O	0.305603	-0.179819	0.336829
O37	O	-0.465126	-0.952340	-0.534630
O38	O	-0.131793	-0.619007	-0.201296
O39	O	0.201541	-0.285673	0.132037
O40	O	-0.455506	-0.842981	-0.416131
O41	O	-0.122173	-0.509647	-0.082797
O42	O	0.211160	-0.176314	0.250536
O43	O	-0.377972	-1.038704	-0.538122
O44	O	-0.044639	-0.705371	-0.204788
O45	O	0.288694	-0.372038	0.128545
O46	O	-0.580914	-1.046590	-0.337850
O47	O	-0.247581	-0.713257	-0.004517
O48	O	0.085753	-0.379923	0.328816
O49	O	-0.580586	-0.956826	-0.420689
O50	O	-0.247253	-0.623493	-0.087356
O51	O	0.086081	-0.290160	0.245978
C52	C	-0.407161	-0.819237	-0.371959
C53	C	-0.073827	-0.485904	-0.038626
C54	C	0.259506	-0.152570	0.294708
C55	C	-0.403733	-0.741133	-0.368833
C56	C	-0.070400	-0.407800	-0.035500
C57	C	0.262933	-0.074466	0.297834
C58	C	-0.607621	-1.001711	-0.379280
C59	C	-0.274288	-0.668378	-0.045947
C60	C	0.059045	-0.335044	0.287387
C61	C	-0.689937	-1.001735	-0.379296
C62	C	-0.356604	-0.668401	-0.045962
C63	C	-0.023270	-0.335068	0.287371
C64	C	-0.422606	-0.994474	-0.562585
C65	C	-0.089273	-0.661141	-0.229251
C66	C	0.244061	-0.327807	0.104082
C67	C	-0.425755	-0.991350	-0.640688
C68	C	-0.092422	-0.658017	-0.307355
C69	C	0.240911	-0.324684	0.025979
C70	C	-0.989036	-1.001887	-0.379340
C71	C	-0.655703	-0.668554	-0.046006
C72	C	-0.322370	-0.335221	0.287327
C73	C	-0.957547	-0.945531	-0.431600
C74	C	-0.624213	-0.612197	-0.098266
C75	C	-0.290880	-0.278864	0.235067
C76	C	-0.871910	-0.945280	-0.431419
C77	C	-0.538577	-0.611947	-0.098086
C78	C	-0.205244	-0.278613	0.235248
C79	C	-0.840650	-1.001811	-0.379319
C80	C	-0.507316	-0.668478	-0.045985
C81	C	-0.173983	-0.335145	0.287348
C82	C	-0.867911	-0.984741	-0.304458
C83	C	-0.534578	-0.651408	0.028875
C84	C	-0.201244	-0.318075	0.362209
C85	C	-0.953554	-0.984379	-0.304770
C86	C	-0.620221	-0.651046	0.028564
C87	C	-0.286887	-0.317712	0.361897
C88	C	-0.961424	-1.075459	-0.401293
C89	C	-0.628091	-0.742125	-0.067960
C90	C	-0.294757	-0.408792	0.265373
C91	C	-0.875820	-1.074956	-0.402900
C92	C	-0.542486	-0.741623	-0.069567
C93	C	-0.209153	-0.408289	0.263767
C94	C	-0.756788	-1.001770	-0.379302
C95	C	-0.423454	-0.668437	-0.045969
C96	C	-0.090121	-0.335103	0.287365
C97	C	-1.072898	-1.001927	-0.379351
C98	C	-0.739565	-0.668594	-0.046018
C99	C	-0.406231	-0.335260	0.287315
C100	C	-0.222060	-1.001916	-0.379345
C101	C	0.111273	-0.668583	-0.046012
C102	C	0.444606	-0.335250	0.287321
C103	C	-0.139749	-1.001964	-0.379363
C104	C	0.193584	-0.668631	-0.046029
C105	C	0.526918	-0.335297	0.287304
C106	C	-0.423303	-1.185084	-0.386679
C107	C	-0.089969	-0.851751	-0.053346
C108	C	0.243364	-0.518418	0.279987
C109	C	-0.426749	-1.263188	-0.389822
C110	C	-0.093416	-0.929854	-0.056489
C111	C	0.239918	-0.596521	0.276845
C112	C	-0.451363	-0.702636	-0.412222
C113	C	-0.118029	-0.369303	-0.078889
C114	C	0.215304	-0.035970	0.254445
C115	C	-0.448133	-0.629249	-0.409288
C116	C	-0.114799	-0.295916	-0.075955
C117	C	0.218534	0.037417	0.257378
C118	C	-0.397276	-0.594361	-0.362962
C119	C	-0.063943	-0.261027	-0.029628
C120	C	0.269390	0.072306	0.303705
C121	C	-0.349642	-0.632863	-0.319571
C122	C	-0.016308	-0.299529	0.013762
C123	C	0.317025	0.033804	0.347095
C124	C	-0.352869	-0.706248	-0.322509
C125	C	-0.019535	-0.372915	0.010824
C126	C	0.313798	-0.039582	0.344158
C127	C	-0.382341	-0.375075	-0.349369
C128	C	-0.049008	-0.041742	-0.016036
C129	C	0.284325	0.291592	0.317298
C130	C	-0.379119	-0.301684	-0.346433
C131	C	-0.045786	0.031649	-0.013100
C132	C	0.287547	0.364982	0.320234
C133	C	-0.477610	-0.298076	-0.436152
C134	C	-0.144277	0.035257	-0.102818
C135	C	0.189057	0.368591	0.230515
C136	C	-0.480836	-0.371463	-0.439082
C137	C	-0.147502	-0.038130	-0.105749
C138	C	0.185831	0.295204	0.227585
C139	C	-0.433198	-0.409959	-0.395694
C140	C	-0.099865	-0.076625	-0.062361
C141	C	0.233468	0.256708	0.270972
N142	N	-0.393975	-0.519348	-0.359960
N143	N	-0.060642	-0.186014	-0.026627
N144	N	0.272692	0.147319	0.306706
N145	N	-0.436497	-0.484970	-0.398700
N146	N	-0.103163	-0.151637	-0.065366
N147	N	0.230170	0.181696	0.267967
C148	C	-0.381860	-1.034846	-0.679200
C149	C	-0.048527	-0.701512	-0.345867
C150	C	0.284806	-0.368179	-0.012533
C151	C	-0.384816	-1.031902	-0.752586
C152	C	-0.051483	-0.698569	-0.419253
C153	C	0.281850	-0.365236	-0.085919
C154	C	-0.431671	-0.985466	-0.787458
C155	C	-0.098338	-0.652133	-0.454125
C156	C	0.234995	-0.318799	-0.120792
C157	C	-0.475568	-0.941966	-0.748941
C158	C	-0.142235	-0.608632	-0.415608
C159	C	0.191099	-0.275299	-0.082274
C160	C	-0.472608	-0.944906	-0.675556
C161	C	-0.139274	-0.611573	-0.342223
C162	C	0.194059	-0.278240	-0.008890
C163	C	-0.445387	-0.971847	-1.006740
C164	C	-0.112054	-0.638513	-0.673406
C165	C	0.221280	-0.305180	-0.340073
C166	C	-0.448346	-0.968911	-1.080130
C167	C	-0.115012	-0.635577	-0.746796
C168	C	0.218321	-0.302244	-0.413463
C169	C	-0.357593	-1.058847	-1.083770
C170	C	-0.024259	-0.725513	-0.750436
C171	C	0.309074	-0.392180	-0.417103
C172	C	-0.354640	-1.061786	-1.010384
C173	C	-0.021306	-0.728453	-0.677050
C174	C	0.312027	-0.395119	-0.343717
C175	C	-0.398533	-1.018283	-0.971872
C176	C	-0.065200	-0.684950	-0.638539
C177	C	0.268133	-0.351617	-0.305206
N178	N	-0.434696	-0.982458	-0.862471
N179	N	-0.101362	-0.649124	-0.529137
N180	N	0.231971	-0.315791	-0.195804
N181	N	-0.395505	-1.021289	-0.896861
N182	N	-0.062171	-0.687955	-0.563528
N183	N	0.271162	-0.354622	-0.230195
C184	C	-0.407803	-1.009146	-0.196739
C185	C	-0.074469	-0.675813	0.136594
C186	C	0.258864	-0.342480	0.469928
C187	C	-0.404451	-1.012406	-0.118642
C188	C	-0.071117	-0.679073	0.214692
C189	C	0.262216	-0.345740	0.548025
H190	H	-0.853628	-0.955615	-0.486834
H191	H	-0.520295	-0.622282	-0.153501
H192	H	-0.186962	-0.288948	0.179833
H193	H	-0.321856	-1.094263	-1.115133
H194	H	0.011477	-0.760930	-0.781800
H195	H	0.344811	-0.427597	-0.448467
H196	H	-0.486918	-0.597908	-0.444619
H197	H	-0.153585	-0.264575	-0.111286
H198	H	0.179748	0.068758	0.222047
C199	C	-0.493672	-0.924002	-0.964383
C200	C	-0.160339	-0.590668	-0.631050
C201	C	0.172995	-0.257335	-0.297717
H202	H	-0.485196	-0.932395	-0.915683
H203	H	-0.151863	-0.599062	-0.582350
H204	H	0.181471	-0.265728	-0.249016
H205	H	-0.544367	-0.933775	-0.976814
H206	H	-0.211033	-0.600442	-0.643481
H207	H	0.122300	-0.267109	-0.310147
H208	H	-0.481231	-0.876312	-0.974512
H209	H	-0.147898	-0.542978	-0.641179
H210	H	0.185436	-0.209645	-0.307846
C211	C	-0.840380	-1.038617	-0.250240
C212	C	-0.507047	-0.705284	0.083094
C213	C	-0.173714	-0.371950	0.416427
H214	H	-0.857494	-1.027312	-0.205353
H215	H	-0.524161	-0.693978	0.127981
H216	H	-0.190828	-0.360645	0.461314
H217	H	-0.787829	-1.037578	-0.248448
H218	H	-0.454496	-0.704245	0.084885
H219	H	-0.121162	-0.370911	0.418219
H220	H	-0.858846	-1.084202	-0.263466
H221	H	-0.525513	-0.750869	0.069867
H222	H	-0.192180	-0.417536	0.403201
H223	H	-0.513715	-0.904154	-0.777340
H224	H	-0.180382	-0.570821	-0.444006
H225	H	0.152951	-0.237487	-0.110673
C226	C	-0.330316	-1.085923	-0.640847
C227	C	0.003018	-0.752589	-0.307513
C228	C	0.336351	-0.419256	0.025820
H229	H	-0.304591	-1.111399	-0.674296
H230	H	0.028742	-0.778066	-0.340963
H231	H	0.362075	-0.444733	-0.007630
H232	H	-0.358835	-1.117672	-0.613445
H233	H	-0.025501	-0.784339	-0.280111
H234	H	0.307832	-0.451005	0.053222
H235	H	-0.295706	-1.060201	-0.611146
H236	H	0.037627	-0.726868	-0.277813
H237	H	0.370960	-0.393534	0.055521
C238	C	-0.507309	-0.741011	-0.463176
C239	C	-0.173976	-0.407677	-0.129842
C240	C	0.159358	-0.074344	0.203491
H241	H	-0.502417	-0.790231	-0.458707
H242	H	-0.169084	-0.456897	-0.125374
H243	H	0.164250	-0.123564	0.207960
H244	H	-0.497929	-0.727112	-0.509927
H245	H	-0.164596	-0.393778	-0.176593
H246	H	0.168737	-0.060445	0.156740
H247	H	-0.556103	-0.729371	-0.452318
H248	H	-0.222769	-0.396037	-0.118985
H249	H	0.110564	-0.062704	0.214349
H250	H	-0.308230	-0.604451	-0.281854
H251	H	0.025103	-0.271117	0.051479
H252	H	0.358437	0.062216	0.384812
C253	C	-0.520891	-0.897063	-0.633190
C254	C	-0.187557	-0.563730	-0.299856
C255	C	0.145776	-0.230396	0.033477
H256	H	-0.512412	-0.905459	-0.584490
H257	H	-0.179078	-0.572126	-0.251157
H258	H	0.154255	-0.238793	0.082177
H259	H	-0.571587	-0.906832	-0.645617
H260	H	-0.238254	-0.573499	-0.312284
H261	H	0.095080	-0.240166	0.021049
H262	H	-0.508447	-0.849373	-0.643317
H263	H	-0.175114	-0.516040	-0.309984
H264	H	0.158220	-0.182706	0.023350
C265	C	-0.976521	-0.911846	-0.280122
C266	C	-0.643187	-0.578513	0.053211
C267	C	-0.309854	-0.245180	0.386544
H268	H	-0.933525	-0.882878	-0.270017
H269	H	-0.600192	-0.549545	0.063316
H270	H	-0.266858	-0.216211	0.396650
H271	H	-1.004259	-0.917100	-0.239073
H272	H	-0.670925	-0.583767	0.094260
H273	H	-0.337592	-0.250433	0.427594
H274	H	-1.005936	-0.890806	-0.316083
H275	H	-0.672602	-0.557472	0.017250
H276	H	-0.339269	-0.224139	0.350584
H277	H	-0.858335	-1.087883	-0.458008
H278	H	-0.525002	-0.754549	-0.124674
H279	H	-0.191669	-0.421216	0.208659
H280	H	-0.522250	-0.399864	-0.476804
H281	H	-0.188917	-0.066531	-0.143471
H282	H	0.144417	0.266802	0.189862
C283	C	-0.300475	-0.748595	-0.274783
C284	C	0.032858	-0.415261	0.058551
C285	C	0.366192	-0.081928	0.391884
H286	H	-0.269728	-0.717307	-0.246768
H287	H	0.063606	-0.383974	0.086566
H288	H	0.396939	-0.050641	0.419899
H289	H	-0.270599	-0.776164	-0.302866
H290	H	0.062734	-0.442831	0.030468
H291	H	0.396067	-0.109497	0.363801
H292	H	-0.328776	-0.778431	-0.245260
H293	H	0.004557	-0.445097	0.088073
H294	H	0.337890	-0.111764	0.421406
H295	H	-0.981841	-1.117410	-0.363267
H296	H	-0.648508	-0.784076	-0.029934
H297	H	-0.315174	-0.450743	0.303400
C298	C	-0.529999	-0.255730	-0.483880
C299	C	-0.196666	0.077604	-0.150547
C300	C	0.136667	0.410937	0.182786
H301	H	-0.520791	-0.207027	-0.475502
H302	H	-0.187458	0.126306	-0.142169
H303	H	0.145875	0.459640	0.191164
H304	H	-0.579851	-0.268146	-0.473998
H305	H	-0.246518	0.065188	-0.140665
H306	H	0.086816	0.398521	0.192668
H307	H	-0.521664	-0.265884	-0.531594
H308	H	-0.188330	0.067449	-0.198261
H309	H	0.145003	0.400782	0.135072
H310	H	-0.980878	-0.955734	-0.487188
H311	H	-0.647545	-0.622401	-0.153854
H312	H	-0.314211	-0.289067	0.179479
H313	H	-0.316487	-1.099601	-0.981996
H314	H	0.016846	-0.766268	-0.648662
H315	H	0.350179	-0.432935	-0.315329
C316	C	-0.323170	-0.263308	-0.295476
C317	C	0.010163	0.070025	0.037857
C318	C	0.343496	0.403359	0.371190
H319	H	-0.295256	-0.296744	-0.270061
H320	H	0.038077	0.036589	0.063272
H321	H	0.371411	0.369923	0.396605
H322	H	-0.348951	-0.235888	-0.263664
H323	H	-0.015617	0.097446	0.069669
H324	H	0.317716	0.430779	0.403002
H325	H	-0.290778	-0.233623	-0.321274
H326	H	0.042555	0.099710	0.012059
H327	H	0.375889	0.433044	0.345393
H328	H	-0.349074	-1.067323	-0.783940
H329	H	-0.015741	-0.733989	-0.450606
H330	H	0.317592	-0.400656	-0.117273
C331	C	-0.982759	-0.872222	-0.411868
C332	C	-0.649426	-0.538889	-0.078535
C333	C	-0.316092	-0.205556	0.254798
H334	H	-1.012391	-0.875811	-0.371919
H335	H	-0.679057	-0.542478	-0.038586
H336	H	-0.345724	-0.209144	0.294748
H337	H	-1.010822	-0.853394	-0.450062
H338	H	-0.677488	-0.520061	-0.116729
H339	H	-0.344155	-0.186727	0.216604
H340	H	-0.940613	-0.842237	-0.401435
H341	H	-0.607279	-0.508904	-0.068102
H342	H	-0.273946	-0.175571	0.265231
C343	C	-0.329947	-0.417414	-0.301643
C344	C	0.003386	-0.084081	0.031691
C345	C	0.336720	0.249252	0.365024
H346	H	-0.339143	-0.466117	-0.310030
H347	H	-0.005810	-0.132784	0.023304
H348	H	0.327524	0.200550	0.356637
H349	H	-0.338273	-0.407262	-0.253930
H350	H	-0.004939	-0.073929	0.079403
H351	H	0.328394	0.259405	0.412737
H352	H	-0.280095	-0.404993	-0.311535
H353	H	0.053238	-0.071660	0.021798
H354	H	0.386572	0.261673	0.355132
C355	C	-0.840347	-0.871534	-0.411447
C356	C	-0.507014	-0.538201	-0.078114
C357	C	-0.173681	-0.204868	0.255220
H358	H	-0.879873	-0.841614	-0.403406
H359	H	-0.546540	-0.508281	-0.070073
H360	H	-0.213207	-0.174947	0.263261
H361	H	-0.811991	-0.853133	-0.448579
H362	H	-0.478657	-0.519800	-0.115246
H363	H	-0.145324	-0.186466	0.218087
H364	H	-0.809714	-0.874359	-0.370019
H365	H	-0.476380	-0.541026	-0.036686
H366	H	-0.143047	-0.207692	0.296648
C367	C	-0.981489	-1.037629	-0.250150
C368	C	-0.648156	-0.704296	0.083183
C369	C	-0.314823	-0.370962	0.416517
H370	H	-0.940494	-1.059383	-0.227865
H371	H	-0.607161	-0.726050	0.105468
H372	H	-0.273828	-0.392717	0.438802
H373	H	-1.013029	-1.072309	-0.272848
H374	H	-0.679696	-0.738976	0.060485
H375	H	-0.346363	-0.405643	0.393818
H376	H	-1.008167	-1.014035	-0.216026
H377	H	-0.674834	-0.680702	0.117307
H378	H	-0.341500	-0.347368	0.450641
H379	H	-0.843494	-0.931637	-0.285943
H380	H	-0.510161	-0.598303	0.047391
H381	H	-0.176828	-0.264970	0.380724
C382	C	-0.499881	-0.917825	-1.118491
C383	C	-0.166548	-0.584492	-0.785158
C384	C	0.166785	-0.251158	-0.451825
H385	H	-0.495361	-0.922311	-1.167712
H386	H	-0.162028	-0.588978	-0.834379
H387	H	0.171305	-0.255644	-0.501045
H388	H	-0.486471	-0.871101	-1.104567
H389	H	-0.153137	-0.537767	-0.771234
H390	H	0.180196	-0.204434	-0.437901
H391	H	-0.549611	-0.928559	-1.106869
H392	H	-0.216278	-0.595226	-0.773536
H393	H	0.117055	-0.261893	-0.440202
C394	C	-0.994526	-1.097267	-0.473993
C395	C	-0.661193	-0.763934	-0.140660
C396	C	-0.327859	-0.430601	0.192673
H397	H	-1.025499	-1.061702	-0.491639
H398	H	-0.692165	-0.728369	-0.158305
H399	H	-0.358832	-0.395035	0.175028
H400	H	-1.022802	-1.140007	-0.470012
H401	H	-0.689468	-0.806674	-0.136679
H402	H	-0.356135	-0.473341	0.196655
H403	H	-0.955694	-1.103528	-0.505187
H404	H	-0.622361	-0.770195	-0.171854
H405	H	-0.289027	-0.436862	0.161479
H406	H	-0.854786	-1.118927	-0.367848
H407	H	-0.521452	-0.785593	-0.034515
H408	H	-0.188119	-0.452260	0.298818
