data_functionalizedCrystal
_audit_creation_method	'MofGen! by Chris Wilmer'
_symmetry_space_group_name_H-M	'P1'
_symmetry_Int_Tables_number	1
_symmetry_cell_setting	triclinic
loop_
_symmetry_equiv_pos_as_xyz
  x,y,z
_cell_length_a	14.044220
_cell_length_b	10.654550
_cell_length_c	9.730223
_cell_angle_alpha	89.998044
_cell_angle_beta	90.005063
_cell_angle_gamma	91.163110
loop_
_atom_site_label
_atom_site_type_symbol
_atom_site_fract_x
_atom_site_fract_y
_atom_site_fract_z
O1	O	1.259692	-0.302976	-0.114137
O2	O	0.983651	-0.292043	-0.114172
O3	O	1.128018	-0.115408	-0.114149
O4	O	1.115325	-0.479611	-0.114161
O5	O	1.128018	-0.115421	0.114431
O6	O	0.983651	-0.292056	0.114408
O7	O	1.259692	-0.302989	0.114443
Zn8	Zn	1.121671	-0.297524	0.150717
Zn9	Zn	1.121672	-0.297508	-0.150447
O10	O	1.115325	-0.479624	0.114419
C11	C	0.948305	-0.287263	0.000113
C12	C	0.842986	-0.272988	0.000100
C13	C	1.127086	-0.068523	0.000139
C14	C	1.124298	0.071201	0.000134
N15	N	1.121678	-0.297535	0.356254
C16	C	0.650153	-0.246889	0.000128
C17	C	0.593185	-0.348137	0.000130
C18	C	0.485886	-0.333615	0.000146
C19	C	0.757461	-0.261409	0.000112
C20	C	1.295038	-0.307769	0.000154
C21	C	1.400358	-0.322044	0.000159
C22	C	1.116257	-0.526509	0.000128
C23	C	1.119045	-0.666233	0.000124
C24	C	1.209299	0.142144	0.000149
C25	C	1.206673	0.273429	0.000139
C26	C	1.034038	0.262814	0.000105
C27	C	1.036664	0.131532	0.000105
C28	C	1.308969	0.148274	0.000175
C29	C	1.306343	0.279559	0.000165
N30	N	1.121673	-0.297487	-0.355983
C31	C	1.057736	-0.375684	0.572088
C32	C	1.057736	-0.375705	0.428206
C33	C	1.185618	-0.219330	0.428192
C34	C	1.185612	-0.219304	0.572072
C35	C	0.983907	-0.465969	0.572095
C36	C	0.983908	-0.465991	0.428212
H37	H	0.624998	-0.445725	0.000121
C38	C	0.607177	-0.115061	0.000129
N39	N	0.574796	-0.015769	0.000123
H40	H	0.911010	-0.437130	0.611118
H41	H	1.340707	0.109453	0.098875
H42	H	1.336465	0.322180	-0.098526
C43	C	1.005803	-0.598606	0.375490
N44	N	1.022298	-0.698487	0.335780
H45	H	0.967448	0.073774	0.000074
C46	C	1.015025	-0.592319	0.632431
N47	N	1.038457	-0.687489	0.677877
C48	C	0.937646	0.329191	0.000089
N49	N	0.865041	0.379184	0.000083
H50	H	1.237675	-0.155674	0.369599
C51	C	1.361629	0.103321	-0.129044
N52	N	1.401290	0.069462	-0.226372
H53	H	1.343897	0.317540	0.095828
C54	C	1.255921	-0.133245	0.651189
N55	N	1.308875	-0.068413	0.710779
H56	H	0.915034	-0.428495	0.383565
