data_functionalizedCrystal
_audit_creation_method	'MofGen! by Chris Wilmer'
_symmetry_space_group_name_H-M	'P1'
_symmetry_Int_Tables_number	1
_symmetry_cell_setting	triclinic
loop_
_symmetry_equiv_pos_as_xyz
  x,y,z
_cell_length_a	12.759401
_cell_length_b	16.959454
_cell_length_c	12.759393
_cell_angle_alpha	89.970360
_cell_angle_beta	89.979062
_cell_angle_gamma	90.021600
loop_
_atom_site_label
_atom_site_type_symbol
_atom_site_fract_x
_atom_site_fract_y
_atom_site_fract_z
Zn1	Zn	1.606227	-0.314611	-0.594026
Zn2	Zn	1.606102	-0.446810	-0.418349
Zn3	Zn	1.430526	-0.314653	-0.418362
Zn4	Zn	1.430501	-0.446755	-0.593986
O5	O	1.518339	-0.380707	-0.506181
O6	O	1.753232	-0.332153	-0.570734
O7	O	1.582769	-0.429320	-0.271330
O8	O	1.453896	-0.204037	-0.441686
O9	O	1.753139	-0.429279	-0.441665
O10	O	1.582983	-0.204006	-0.570746
O11	O	1.453774	-0.332225	-0.271339
O12	O	1.283502	-0.332171	-0.441647
O13	O	1.453854	-0.429185	-0.741013
O14	O	1.283484	-0.429226	-0.570678
O15	O	1.582959	-0.332100	-0.741042
O16	O	1.582745	-0.557414	-0.441626
O17	O	1.453732	-0.557373	-0.570666
C18	C	1.245372	-0.380698	-0.506160
C19	C	1.128595	-0.380713	-0.506176
C20	C	1.518251	-0.586074	-0.506163
C21	C	1.518309	-0.673930	-0.506190
C22	C	1.073751	-0.431326	-0.573257
C23	C	0.964027	-0.431329	-0.573277
C24	C	0.964000	-0.330103	-0.439128
C25	C	1.073722	-0.330097	-0.439113
C26	C	1.451259	-1.045415	-0.573365
C27	C	1.585711	-1.045397	-0.439104
C28	C	1.585675	-0.962851	-0.439094
C29	C	1.518428	-0.921583	-0.506220
C30	C	1.451218	-0.962861	-0.573355
C31	C	1.652875	-0.921567	-0.371953
C32	C	1.652841	-0.839016	-0.371940
C33	C	1.585599	-0.797747	-0.439071
C34	C	1.518387	-0.839030	-0.506210
C35	C	1.451141	-0.797762	-0.573335
C36	C	1.383934	-0.839043	-0.640480
C37	C	1.383977	-0.921592	-0.640486
C38	C	1.585556	-0.715198	-0.439065
C39	C	1.451100	-0.715208	-0.573326
C40	C	1.792372	-0.380718	-0.506202
C41	C	1.909149	-0.380722	-0.506212
C42	C	1.518418	-0.380632	-0.780214
C43	C	1.518451	-0.380599	-0.896991
C44	C	1.518456	-0.174539	-0.506222
C45	C	1.518506	-0.086683	-0.506239
C46	C	1.585681	-0.330039	-0.951870
C47	C	1.585699	-0.330005	-1.061594
C48	C	1.451254	-0.431098	-1.061551
C49	C	1.451232	-0.431128	-0.951829
C50	C	1.518321	-0.380726	-0.233213
C51	C	1.518491	-0.380536	-0.116437
H52	H	1.118425	-0.472539	-0.627866
O53	O	0.904879	-0.485921	-0.645632
H54	H	0.819362	-0.477417	-0.634389
H55	H	1.118378	-0.288876	-0.384488
H56	H	1.640443	-0.288832	-1.106272
H57	H	1.707616	-0.955173	-0.317295
O58	O	1.658268	-1.089901	-0.366735
H59	H	1.647019	-1.154238	-0.378034
H60	H	1.396477	-0.472300	-0.907145
H61	H	1.707565	-0.805410	-0.317268
O62	O	1.658174	-0.275541	-0.892717
H63	H	1.640190	-0.213497	-0.913778
H64	H	1.329176	-0.805433	-0.695130
H65	H	0.919310	-0.288895	-0.384526
H66	H	1.396528	-0.472239	-1.106213
O67	O	1.378557	-0.670697	-0.645714
H68	H	1.331826	-0.713273	-0.692391
O69	O	1.311472	-0.966114	-0.712882
H70	H	1.322786	-1.030447	-0.701595
H71	H	1.396544	-1.079030	-0.628035
O72	O	1.658036	-0.670670	-0.366659
H73	H	1.704805	-0.713235	-0.319986
