data_functionalizedCrystal
_audit_creation_method	'MofGen! by Chris Wilmer'
_symmetry_space_group_name_H-M	'P1'
_symmetry_Int_Tables_number	1
_symmetry_cell_setting	triclinic
loop_
_symmetry_equiv_pos_as_xyz
  x,y,z
_cell_length_a	12.759401
_cell_length_b	19.805405
_cell_length_c	12.759393
_cell_angle_alpha	90.034941
_cell_angle_beta	90.021162
_cell_angle_gamma	90.028459
loop_
_atom_site_label
_atom_site_type_symbol
_atom_site_fract_x
_atom_site_fract_y
_atom_site_fract_z
Zn1	Zn	1.606168	-0.269392	0.594031
Zn2	Zn	1.606025	-0.382597	0.418341
Zn3	Zn	1.430470	-0.269430	0.418363
Zn4	Zn	1.430421	-0.382548	0.593974
O5	O	1.518271	-0.325992	0.506177
O6	O	1.753170	-0.284413	0.570741
O7	O	1.582698	-0.367622	0.271323
O8	O	1.453856	-0.174709	0.441698
O9	O	1.753065	-0.367584	0.441662
O10	O	1.582941	-0.174680	0.570761
O11	O	1.453718	-0.284479	0.271339
O12	O	1.283442	-0.284431	0.441643
O13	O	1.453774	-0.367501	0.741003
O14	O	1.283407	-0.367538	0.570664
O15	O	1.582894	-0.284366	0.741045
O16	O	1.582651	-0.477307	0.441607
O17	O	1.453636	-0.477271	0.570644
C18	C	1.245304	-0.325984	0.506150
C19	C	1.128527	-0.325997	0.506164
C20	C	0.963949	-0.369336	0.573275
C21	C	1.073673	-0.369335	0.573247
C22	C	1.073651	-0.282662	0.439098
C23	C	0.963929	-0.282667	0.439122
C24	C	0.963963	-0.419374	0.650728
C25	C	1.073687	-0.419373	0.650699
C26	C	1.518151	-0.501848	0.506139
C27	C	1.518196	-0.577080	0.506158
C28	C	1.585371	-0.612351	0.573414
C29	C	1.585409	-0.683039	0.573434
C30	C	1.518276	-0.718455	0.506191
C31	C	1.451094	-0.683179	0.438932
C32	C	1.451052	-0.612492	0.438919
C33	C	1.451263	-0.968252	0.438986
C34	C	1.451313	-1.038945	0.439003
C35	C	1.585620	-1.038800	0.573501
C36	C	1.585577	-0.968113	0.573487
C37	C	1.518392	-0.932843	0.506233
C38	C	1.518350	-0.856194	0.506214
C39	C	1.518323	-0.795102	0.506204
C40	C	1.792304	-0.326000	0.506205
C41	C	1.909081	-0.326003	0.506217
C42	C	1.518345	-0.325923	0.780211
C43	C	1.518376	-0.325894	0.896988
C44	C	1.518420	-0.149449	0.506239
C45	C	1.518483	-0.074217	0.506265
C46	C	1.518258	-0.326011	0.233210
C47	C	1.518430	-0.325849	0.116434
C48	C	1.585618	-0.282602	0.951873
C49	C	1.585643	-0.282577	1.061597
C50	C	1.451181	-0.369144	1.061541
C51	C	1.451151	-0.369164	0.951819
C52	C	1.663252	-0.232625	0.951907
C53	C	1.663277	-0.232601	1.061631
H54	H	0.929988	-0.400656	0.728080
H55	H	1.640322	-1.067525	0.628266
H56	H	1.744643	-0.246639	1.091412
H57	H	1.103524	-0.405389	0.732100
H58	H	1.396393	-0.404415	0.907135
C59	C	1.633863	-0.161820	0.911701
H60	H	1.633855	-0.161836	0.837243
H61	H	1.566080	-0.150101	0.936508
H62	H	1.683540	-0.129842	0.936534
C63	C	1.623989	-0.165318	1.107640
H64	H	1.606481	-0.135371	1.052202
H65	H	1.563735	-0.173346	1.149534
H66	H	1.677527	-0.145725	1.149557
H67	H	1.396430	-0.712021	0.384187
H68	H	0.919259	-0.247390	0.384505
H69	H	1.107666	-0.469148	0.621411
C70	C	1.659308	-0.721838	0.647404
H71	H	1.649714	-0.769009	0.637791
H72	H	1.729897	-0.710220	0.632082
H73	H	1.643889	-0.710228	0.717984
H74	H	0.934139	-0.471781	0.628802
C75	C	1.133987	-0.234993	0.365307
H76	H	1.207192	-0.241192	0.374900
H77	H	1.115955	-0.244844	0.294694
H78	H	1.116046	-0.189525	0.380821
C79	C	1.377161	-0.573694	0.364937
H80	H	1.337192	-0.604909	0.324885
H81	H	1.331348	-0.546126	0.405081
H82	H	1.417364	-0.546117	0.319186
H83	H	1.396641	-1.067778	0.384244
C84	C	1.767621	-0.258012	0.905916
H85	H	1.764037	-0.257169	0.831556
H86	H	1.823096	-0.229631	0.928920
H87	H	1.780105	-0.302912	0.928888
H88	H	1.640042	-0.583520	0.628166
C89	C	1.659418	-0.929159	0.647458
H90	H	1.699424	-0.960290	0.687525
H91	H	1.705201	-0.901574	0.607310
H92	H	1.619174	-0.901588	0.693194
C93	C	1.377377	-0.929464	0.364996
H94	H	1.337414	-0.960683	0.324943
H95	H	1.331556	-0.901895	0.405128
H96	H	1.417585	-0.901891	0.319248
C97	C	1.377248	-0.416742	1.121858
H98	H	1.386900	-0.410533	1.195066
H99	H	1.306661	-0.406840	1.103873
H100	H	1.392590	-0.462225	1.103856
