data_functionalizedCrystal
_audit_creation_method	'MofGen! by Chris Wilmer'
_symmetry_space_group_name_H-M	'P1'
_symmetry_Int_Tables_number	1
_symmetry_cell_setting	triclinic
loop_
_symmetry_equiv_pos_as_xyz
  x,y,z
_cell_length_a	33.592126
_cell_length_b	33.591377
_cell_length_c	33.588093
_cell_angle_alpha	60.004089
_cell_angle_beta	60.008299
_cell_angle_gamma	59.994549
loop_
_atom_site_label
_atom_site_type_symbol
_atom_site_fract_x
_atom_site_fract_y
_atom_site_fract_z
O1	O	0.055297	-0.581666	0.486338
O2	O	0.555297	-0.081666	0.986338
O3	O	0.020882	-0.452873	0.391864
O4	O	0.520882	0.047127	0.891864
O5	O	0.102445	-0.534352	0.391775
O6	O	0.602445	-0.034352	0.891775
O7	O	-0.026266	-0.500187	0.486427
O8	O	0.473734	-0.000187	0.986427
O9	O	0.129510	-0.507292	0.418747
O10	O	0.629510	-0.007292	0.918747
O11	O	0.047947	-0.425814	0.418835
O12	O	0.547947	0.074186	0.918835
O13	O	0.082362	-0.554606	0.513309
O14	O	0.582362	-0.054606	1.013309
Cu15	Cu	0.067626	-0.487739	0.468535
Cu16	Cu	0.567626	0.012261	0.968535
Cu17	Cu	0.035618	-0.519740	0.436638
Cu18	Cu	0.535618	-0.019740	0.936638
O19	O	0.000799	-0.473128	0.513398
O20	O	0.500799	0.026872	1.013398
N21	N	0.090139	-0.465235	0.490972
N22	N	0.590139	0.034765	0.990972
N23	N	0.013110	-0.542249	0.414202
N24	N	0.513110	-0.042249	0.914202
C25	C	0.124394	-0.431229	0.734914
C26	C	0.624394	0.068771	1.234914
C27	C	0.334265	-0.431145	0.524799
C28	C	0.834265	0.068855	1.024799
C29	C	0.124204	-0.431200	0.524965
C30	C	0.624204	0.068800	1.024965
C31	C	0.124184	-0.221175	0.524955
C32	C	0.624184	0.278825	1.024955
C33	C	0.158017	-0.322536	0.558710
C34	C	0.658017	0.177464	1.058710
C35	C	0.158027	-0.397406	0.558711
C36	C	0.658027	0.102594	1.058711
C37	C	0.176763	-0.378688	0.577408
C38	C	0.676763	0.121312	1.077408
C39	C	0.258412	-0.364594	0.534386
C40	C	0.758412	0.135406	1.034386
C41	C	0.309454	-0.381596	0.517340
C42	C	0.809454	0.118404	1.017340
C43	C	0.309485	-0.464188	0.548836
C44	C	0.809485	0.035812	1.048836
C45	C	0.258444	-0.447186	0.565883
C46	C	0.758444	0.052814	1.065883
C47	C	0.170304	-0.297002	0.508532
C48	C	0.670304	0.202998	1.008532
C49	C	0.153260	-0.245956	0.491537
C50	C	0.653260	0.254044	0.991537
C51	C	0.111648	-0.245983	0.574901
C52	C	0.611648	0.254017	1.074901
C53	C	0.128691	-0.297029	0.591896
C54	C	0.628691	0.202971	1.091896
C55	C	0.107841	-0.385091	0.571080
C56	C	0.607841	0.114909	1.071080
C57	C	0.090813	-0.402108	0.554078
C58	C	0.590813	0.097892	1.054078
C59	C	0.174153	-0.443755	0.512351
C60	C	0.674153	0.056245	1.012351
C61	C	0.191183	-0.426739	0.529347
C62	C	0.691183	0.073261	1.029347
C63	C	0.107923	-0.385106	0.659111
C64	C	0.607923	0.114894	1.159111
C65	C	0.090955	-0.402138	0.710156
C66	C	0.590955	0.097862	1.210156
C67	C	0.174335	-0.443795	0.710087
C68	C	0.674335	0.056205	1.210087
C69	C	0.191302	-0.426764	0.659041
C70	C	0.691302	0.073236	1.159041
C71	C	0.158095	-0.397418	0.633555
C72	C	0.658095	0.102582	1.133555
C73	C	0.232909	-0.397388	0.558656
C74	C	0.732909	0.102612	1.058656
C75	C	0.105069	-0.449619	0.791057
C76	C	0.605069	0.050381	1.291057
C77	C	0.390406	-0.449193	0.505789
C78	C	0.890406	0.050807	1.005789
C79	C	0.104813	-0.449599	0.506607
C80	C	0.604813	0.050401	1.006607
C81	C	0.105125	-0.165028	0.506915
C82	C	0.605125	0.334972	1.006915
C83	C	-0.020560	-0.576246	0.169890
C84	C	0.479440	-0.076246	0.669890
C85	C	-0.020889	-0.786183	0.379970
C86	C	0.479111	-0.286183	0.879970
C87	C	-0.020859	-0.576235	0.380063
C88	C	0.479141	-0.076235	0.880063
C89	C	-0.230772	-0.576015	0.379658
C90	C	0.269228	-0.076015	0.879658
C91	C	-0.129417	-0.609898	0.346025
C92	C	0.370583	-0.109898	0.846025
C93	C	-0.054587	-0.609979	0.346172
C94	C	0.445413	-0.109979	0.846172
C95	C	-0.073269	-0.628671	0.327396
C96	C	0.426731	-0.128671	0.827396
C97	C	-0.087401	-0.710299	0.370335
C98	C	0.412599	-0.210299	0.870335
C99	C	-0.070424	-0.761345	0.387369
C100	C	0.429576	-0.261345	0.887369
C101	C	0.012165	-0.761428	0.356003
C102	C	0.512165	-0.261428	0.856003
C103	C	-0.004813	-0.710383	0.338967
C104	C	0.495187	-0.210383	0.838967
C105	C	-0.155001	-0.622196	0.396191
C106	C	0.344999	-0.122196	0.896191
C107	C	-0.206043	-0.605128	0.413125
C108	C	0.293957	-0.105128	0.913125
C109	C	-0.205914	-0.563467	0.329724
C110	C	0.294086	-0.063467	0.829724
C111	C	-0.154872	-0.580535	0.312790
C112	C	0.345128	-0.080535	0.812790
C113	C	-0.066886	-0.559797	0.333828
C114	C	0.433114	-0.059797	0.833828
C115	C	-0.049903	-0.542809	0.350903
C116	C	0.450097	-0.042809	0.850903
C117	C	-0.008321	-0.626180	0.392654
C118	C	0.491679	-0.126180	0.892654
C119	C	-0.025304	-0.643170	0.375585
C120	C	0.474696	-0.143170	0.875585
C121	C	-0.066758	-0.559805	0.245702
C122	C	0.433242	-0.059805	0.745702
C123	C	-0.049671	-0.542819	0.194658
C124	C	0.450329	-0.042819	0.694658
C125	C	-0.008026	-0.626194	0.194706
C126	C	0.491974	-0.126194	0.694706
C127	C	-0.025111	-0.643179	0.245752
C128	C	0.474889	-0.143179	0.745752
C129	C	-0.054479	-0.609983	0.271248
C130	C	0.445521	-0.109983	0.771248
C131	C	-0.054597	-0.684821	0.346135
C132	C	0.445403	-0.184821	0.846135
C133	C	-0.002109	-0.556901	0.113746
C134	C	0.497891	-0.056901	0.613746
C135	C	-0.002869	-0.842328	0.398966
C136	C	0.497131	-0.342328	0.898966
C137	C	-0.002496	-0.556887	0.398501
C138	C	0.497504	-0.056887	0.898501
C139	C	-0.286914	-0.556929	0.397631
C140	C	0.213086	-0.056929	0.897631
N141	N	0.436349	-0.465146	0.490703
N142	N	0.936349	0.034854	0.990703
O143	O	0.592194	-0.469605	0.374236
O144	O	1.092194	0.030395	0.874236
O145	O	0.592389	-0.564393	0.502890
O146	O	1.092389	-0.064393	1.002890
O147	O	0.592305	-0.564176	0.421300
O148	O	1.092305	-0.064176	0.921300
O149	O	0.592277	-0.469822	0.455826
O150	O	1.092277	0.030178	0.955826
O151	O	0.511216	-0.537214	0.448415
O152	O	1.011216	-0.037214	0.948415
O153	O	0.511300	-0.537431	0.530004
O154	O	1.011300	-0.037431	1.030004
O155	O	0.511104	-0.442643	0.401350
O156	O	1.011104	0.057357	0.901350
Cu157	Cu	0.503798	-0.487575	0.468153
Cu158	Cu	1.003798	0.012425	0.968153
Cu159	Cu	0.599695	-0.519461	0.436087
Cu160	Cu	1.099695	-0.019461	0.936087
O161	O	0.511188	-0.442860	0.482940
O162	O	1.011188	0.057140	0.982940
N163	N	0.667145	-0.541890	0.413532
N164	N	1.167145	-0.041890	0.913532
N165	N	0.090108	-0.119085	0.490958
N166	N	0.590108	0.380915	0.990958
O167	O	-0.026275	0.036848	0.486394
O168	O	0.473725	0.536848	0.986394
O169	O	0.102381	0.036888	0.391584
O170	O	0.602381	0.536888	0.891584
O171	O	0.020751	0.036852	0.391854
O172	O	0.520751	0.536852	0.891854
O173	O	0.055356	0.036884	0.486124
O174	O	0.555356	0.536884	0.986124
O175	O	0.047821	-0.044242	0.418876
O176	O	0.547821	0.455758	0.918876
O177	O	0.129452	-0.044207	0.418606
O178	O	0.629452	0.455793	0.918606
O179	O	0.000796	-0.044246	0.513417
O180	O	0.500796	0.455754	1.013417
Cu181	Cu	0.067596	-0.051631	0.468479
Cu182	Cu	0.567596	0.448369	0.968479
Cu183	Cu	0.035582	0.044273	0.436522
Cu184	Cu	0.535582	0.544273	0.936522
O185	O	0.082426	-0.044211	0.513146
O186	O	0.582426	0.455789	1.013146
N187	N	0.013063	0.111726	0.414043
N188	N	0.513063	0.611726	0.914043
N189	N	0.090453	-0.465282	0.837001
N190	N	0.590453	0.034718	1.337001
O191	O	0.085913	-0.581648	0.992925
O192	O	0.585913	-0.081648	1.492925
O193	O	-0.008857	-0.452947	0.992970
O194	O	0.491143	0.047053	1.492970
O195	O	-0.008635	-0.534562	0.992946
O196	O	0.491365	-0.034562	1.492946
O197	O	0.085691	-0.500033	0.992949
O198	O	0.585691	-0.000033	1.492949
O199	O	0.018365	-0.507512	0.911855
O200	O	0.518365	-0.007512	1.411855
O201	O	0.018143	-0.425898	0.911878
O202	O	0.518143	0.074102	1.411878
O203	O	0.112912	-0.554598	0.911834
O204	O	0.612912	-0.054598	1.411834
Cu205	Cu	0.067993	-0.487778	0.904452
Cu206	Cu	0.567993	0.012222	1.404452
Cu207	Cu	0.036063	-0.519767	1.000352
Cu208	Cu	0.536063	-0.019767	1.500352
O209	O	0.112691	-0.472984	0.911857
O210	O	0.612691	0.027016	1.411857
N211	N	0.013602	-0.542269	1.067803
N212	N	0.513602	-0.042269	1.567803
C213	C	0.031188	-0.423114	0.392334
C214	C	0.531188	0.076886	0.892334
C215	C	0.132194	-0.524016	0.392223
C216	C	0.632194	-0.024016	0.892223
C217	C	0.072056	-0.584366	0.512840
C218	C	0.572056	-0.084366	1.012840
C219	C	-0.028950	-0.483464	0.512950
C220	C	0.471050	0.016536	1.012950
C221	C	0.551868	-0.563965	0.532655
C222	C	1.051868	-0.063965	1.032655
C223	C	0.551766	-0.563697	0.431617
C224	C	1.051766	-0.063697	0.931617
C225	C	0.551623	-0.443070	0.371586
C226	C	1.051623	0.056930	0.871586
C227	C	0.551728	-0.443339	0.472623
C228	C	1.051728	0.056661	0.972623
C229	C	0.132090	-0.003555	0.392006
C230	C	0.632090	0.496445	0.892006
C231	C	0.031035	-0.003698	0.392374
C232	C	0.531035	0.496302	0.892374
C233	C	-0.028947	-0.003703	0.512961
C234	C	0.471053	0.496297	1.012961
C235	C	0.072143	-0.003661	0.512626
C236	C	0.572143	0.496339	1.012626
C237	C	-0.008408	-0.423209	0.952430
C238	C	0.491592	0.076791	1.452430
C239	C	-0.008128	-0.524272	0.952385
C240	C	0.491872	-0.024272	1.452385
C241	C	0.112464	-0.584336	0.952374
C242	C	0.612464	-0.084336	1.452374
C243	C	0.112190	-0.483267	0.952401
C244	C	0.612190	0.016733	1.452401
H245	H	0.080878	-0.361206	0.638363
H246	H	0.580878	0.138794	1.138363
O247	O	0.147977	-0.628433	0.952422
O248	O	0.647977	-0.128433	1.452422
C249	C	0.161074	-0.650026	0.994422
C250	C	0.661074	-0.150026	1.494422
H251	H	0.151194	-0.620461	1.008436
H252	H	0.651194	-0.120461	1.508436
H253	H	0.140619	-0.676636	1.023826
H254	H	0.640619	-0.176636	1.523826
C255	C	0.228495	-0.713919	0.964439
C256	C	0.728495	-0.213919	1.464439
C257	C	0.216363	-0.677605	0.981648
C258	C	0.716363	-0.177605	1.481648
H259	H	0.262600	-0.730933	0.956560
H260	H	0.762600	-0.230933	1.456560
H261	H	0.219671	-0.699372	0.936144
H262	H	0.719671	-0.199372	1.436144
H263	H	0.211445	-0.736088	0.988945
H264	H	0.711445	-0.236088	1.488945
H265	H	0.233409	-0.655433	0.957140
H266	H	0.733409	-0.155433	1.457140
H267	H	0.225192	-0.692149	1.009939
H268	H	0.725192	-0.192149	1.509939
O269	O	0.147533	-0.474507	0.952479
O270	O	0.647533	0.025493	1.452479
C271	C	0.160685	-0.507943	0.994460
C272	C	0.660685	-0.007943	1.494460
H273	H	0.129459	-0.522240	1.023820
H274	H	0.629459	-0.022240	1.523820
H275	H	0.194638	-0.539683	0.984950
H276	H	0.694638	-0.039683	1.484950
C277	C	0.209719	-0.464718	0.977445
C278	C	0.709719	0.035282	1.477445
C279	C	0.171365	-0.482275	1.013506
C280	C	0.671365	0.017725	1.513506
H281	H	0.216309	-0.448887	0.989192
H282	H	0.716309	0.051113	1.489192
H283	H	0.200860	-0.442193	0.949160
H284	H	0.700860	0.057807	1.449160
H285	H	0.238009	-0.491172	0.969523
H286	H	0.738009	0.008828	1.469523
H287	H	0.143074	-0.455822	1.021423
H288	H	0.643074	0.044178	1.521423
H289	H	0.180219	-0.504796	1.041792
H290	H	0.680219	-0.004796	1.541792
H291	H	0.551779	-0.593338	0.424228
H292	H	1.051779	-0.093338	0.924228
O293	O	0.551571	-0.407625	0.327475
O294	O	1.051571	0.092375	0.827475
C295	C	0.551536	-0.425177	0.297144
C296	C	1.051536	0.074823	0.797144
H297	H	0.566934	-0.466709	0.310323
H298	H	1.066934	0.033291	0.810323
H299	H	0.512620	-0.412816	0.298508
H300	H	1.012620	0.087184	0.798508
C301	C	0.564355	-0.353932	0.228179
C302	C	1.064355	0.146068	0.728179
C303	C	0.583271	-0.404943	0.244364
C304	C	1.083271	0.095057	0.744364
H305	H	0.583928	-0.341449	0.195621
H306	H	1.083928	0.158551	0.695621
H307	H	0.564376	-0.342106	0.248613
H308	H	1.064376	0.157894	0.748613
H309	H	0.531925	-0.343638	0.229319
H310	H	1.031925	0.156362	0.729319
H311	H	0.615697	-0.415236	0.243229
H312	H	1.115697	0.084764	0.743229
H313	H	0.583255	-0.416770	0.223928
H314	H	1.083255	0.083230	0.723928
O315	O	0.551695	-0.408023	0.481520
O316	O	1.051695	0.091977	0.981520
C317	C	0.551770	-0.425792	0.529429
C318	C	1.051770	0.074208	1.029429
H319	H	0.536460	-0.457114	0.552505
H320	H	1.036460	0.042886	1.052505
H321	H	0.590687	-0.439364	0.528670
H322	H	1.090687	0.060636	1.028670
C323	C	0.538769	-0.346088	0.523275
C324	C	1.038769	0.153912	1.023275
C325	C	0.519960	-0.384556	0.551618
C326	C	1.019960	0.115444	1.051618
H327	H	0.519149	-0.320651	0.536962
H328	H	1.019149	0.179349	1.036962
H329	H	0.538720	-0.334116	0.490997
H330	H	1.038720	0.165884	0.990997
H331	H	0.571199	-0.357404	0.522644
H332	H	1.071199	0.142596	1.022644
H333	H	0.487533	-0.373240	0.552243
H334	H	0.987533	0.126760	1.052243
H335	H	0.520003	-0.396524	0.583897
H336	H	1.020003	0.103476	1.083897
O337	O	0.176096	-0.003249	0.356452
O338	O	0.676096	0.496751	0.856452
C339	C	0.206432	-0.003152	0.373950
C340	C	0.706432	0.496848	0.873950
H341	H	0.182986	0.012037	0.405365
H342	H	0.682986	0.512037	0.905365
H343	H	0.231247	-0.042002	0.387309
H344	H	0.731247	0.457998	0.887309
C345	C	0.266517	0.010259	0.294000
C346	C	0.766517	0.510259	0.794000
C347	C	0.237720	0.028919	0.332581
C348	C	0.737720	0.528919	0.832581
H349	H	0.285819	0.030040	0.268481
H350	H	0.785819	0.530040	0.768481
H351	H	0.246080	0.010192	0.282211
H352	H	0.746080	0.510192	0.782211
H353	H	0.287192	-0.022116	0.305138
H354	H	0.787192	0.477884	0.805138
H355	H	0.217042	0.061291	0.321444
H356	H	0.717042	0.561291	0.821444
H357	H	0.258155	0.028992	0.344368
H358	H	0.758155	0.528992	0.844368
O359	O	0.176291	-0.532776	0.356779
O360	O	0.676291	-0.032776	0.856779
C361	C	0.185003	-0.572228	0.345513
C362	C	0.685003	-0.072228	0.845513
H363	H	0.162225	-0.595660	0.377762
H364	H	0.662225	-0.095660	0.877762
H365	H	0.174517	-0.557742	0.312078
H366	H	0.674517	-0.057742	0.812078
C367	C	0.267430	-0.574461	0.295204
C368	C	0.767430	-0.074461	0.795204
C369	C	0.239457	-0.603243	0.334813
C370	C	0.739457	-0.103243	0.834813
H371	H	0.301020	-0.593592	0.288601
H372	H	0.801020	-0.093592	0.788601
H373	H	0.261561	-0.547880	0.302792
H374	H	0.761561	-0.047880	0.802792
H375	H	0.258686	-0.562391	0.267346
H376	H	0.758686	-0.062391	0.767346
H377	H	0.248196	-0.615308	0.362672
H378	H	0.748196	-0.115308	0.862672
H379	H	0.245329	-0.629827	0.327229
H380	H	0.745329	-0.129827	0.827229
H381	H	0.023621	-0.003702	0.362756
H382	H	0.523621	0.496298	0.862756
O383	O	-0.072989	-0.003799	0.548512
O384	O	0.427011	0.496201	1.048512
C385	C	-0.066533	-0.045789	0.589598
C386	C	0.433467	0.454211	1.089598
H387	H	-0.030830	-0.075140	0.577840
H388	H	0.469170	0.424860	1.077840
H389	H	-0.065393	-0.036284	0.617107
H390	H	0.434607	0.463716	1.117107
C391	C	-0.153100	-0.028798	0.627640
C392	C	0.346900	0.471202	1.127640
C393	C	-0.109251	-0.064849	0.613199
C394	C	0.390749	0.435151	1.113199
H395	H	-0.179451	-0.040555	0.642200
H396	H	0.320549	0.459445	1.142200
H397	H	-0.157450	-0.000508	0.599961
H398	H	0.342550	0.499492	1.099961
H399	H	-0.152143	-0.020881	0.650562
H400	H	0.347857	0.479119	1.150562
H401	H	-0.110206	-0.072761	0.590273
H402	H	0.389794	0.427239	1.090273
H403	H	-0.104901	-0.093141	0.640875
H404	H	0.395099	0.406859	1.140875
O405	O	-0.073029	-0.474732	0.548424
O406	O	0.426971	0.025268	1.048424
C407	C	-0.081753	-0.435264	0.559672
C408	C	0.418247	0.064736	1.059672
H409	H	-0.045549	-0.431339	0.548876
H410	H	0.454451	0.068661	1.048876
H411	H	-0.105292	-0.400313	0.538747
H412	H	0.394708	0.099687	1.038747
C413	C	-0.152857	-0.449485	0.628072
C414	C	0.347143	0.050515	1.128072
C415	C	-0.108390	-0.444667	0.614815
C416	C	0.391610	0.055333	1.114815
H417	H	-0.169290	-0.455284	0.662086
H418	H	0.330710	0.044716	1.162086
H419	H	-0.146981	-0.476074	0.620493
H420	H	0.353019	0.023926	1.120493
H421	H	-0.172467	-0.420357	0.610630
H422	H	0.327533	0.079643	1.110630
H423	H	-0.088779	-0.473797	0.632252
H424	H	0.411221	0.026203	1.132252
H425	H	-0.114264	-0.418083	0.622398
H426	H	0.385736	0.081917	1.122398
O427	O	0.552019	-0.599480	0.576714
O428	O	1.052019	-0.099480	1.076714
C429	C	0.594030	-0.610762	0.585428
C430	C	1.094030	-0.110762	1.085428
H431	H	0.623345	-0.599941	0.549221
H432	H	1.123345	-0.099941	1.049221
H433	H	0.584542	-0.589878	0.608995
H434	H	1.084542	-0.089878	1.108995
C435	C	0.577131	-0.679207	0.656491
C436	C	1.077131	-0.179207	1.156491
C437	C	0.613138	-0.665920	0.612020
C438	C	1.113138	-0.165920	1.112020
H439	H	0.588917	-0.713230	0.672897
H440	H	1.088917	-0.213230	1.172897
H441	H	0.548827	-0.671605	0.650622
H442	H	1.048827	-0.171605	1.150622
H443	H	0.569228	-0.661800	0.676124
H444	H	1.069228	-0.161800	1.176124
H445	H	0.621036	-0.683323	0.592386
H446	H	1.121036	-0.183323	1.092386
H447	H	0.641444	-0.673526	0.617887
H448	H	1.141444	-0.173526	1.117887
O449	O	0.042199	-0.390105	0.734901
O450	O	0.542199	0.109895	1.234901
C451	C	0.016532	-0.360562	0.701457
C452	C	0.516532	0.139438	1.201457
H453	H	0.040851	-0.341997	0.665061
H454	H	0.540851	0.158003	1.165061
H455	H	0.005516	-0.384110	0.696041
H456	H	0.505516	0.115890	1.196041
C457	C	-0.059345	-0.344360	0.766108
C458	C	0.440655	0.155640	1.266108
C459	C	-0.029477	-0.321555	0.721408
C460	C	0.470523	0.178445	1.221408
H461	H	-0.087727	-0.320300	0.778415
H462	H	0.412273	0.179700	1.278415
H463	H	-0.042054	-0.364265	0.788640
H464	H	0.457946	0.135735	1.288640
H465	H	-0.068520	-0.363983	0.761589
H466	H	0.431480	0.136017	1.261589
H467	H	-0.020298	-0.301937	0.725929
H468	H	0.479702	0.198063	1.225929
H469	H	-0.046769	-0.301645	0.698877
H470	H	0.453231	0.198355	1.198877
O471	O	0.080893	-0.003632	0.548009
O472	O	0.580893	0.496368	1.048009
C473	C	0.039051	-0.003657	0.590104
C474	C	0.539051	0.496343	1.090104
H475	H	0.005513	0.011683	0.579480
H476	H	0.505513	0.511683	1.079480
H477	H	0.043011	-0.042565	0.616618
H478	H	0.543011	0.457435	1.116618
C479	C	0.074491	0.009308	0.627673
C480	C	0.574491	0.509308	1.127673
C481	C	0.033298	0.028154	0.614623
C482	C	0.533298	0.528154	1.114623
H483	H	0.070943	0.028929	0.642799
H484	H	0.570943	0.528929	1.142799
H485	H	0.102682	0.009323	0.599313
H486	H	0.602682	0.509323	1.099313
H487	H	0.077787	-0.023115	0.649765
H488	H	0.577787	0.476885	1.149765
H489	H	0.030006	0.060574	0.592526
H490	H	0.530006	0.560574	1.092526
H491	H	0.005106	0.028145	0.642979
H492	H	0.505106	0.528145	1.142979
H493	H	-0.038161	-0.386246	0.952443
H494	H	0.461839	0.113754	1.452443
O495	O	-0.043406	-0.533142	0.952322
O496	O	0.456594	-0.033142	1.452322
C497	C	-0.025643	-0.581071	0.952305
C498	C	0.474357	-0.081071	1.452305
H499	H	0.015888	-0.593907	0.936971
H500	H	0.515888	-0.093907	1.436971
H501	H	-0.037982	-0.606305	0.991198
H502	H	0.462018	-0.106305	1.491198
C503	C	-0.096683	-0.566237	0.939299
C504	C	0.403317	-0.066237	1.439299
C505	C	-0.045674	-0.582000	0.920461
C506	C	0.454326	-0.082000	1.420461
H507	H	-0.109040	-0.566811	0.919658
H508	H	0.390960	-0.066811	1.419658
H509	H	-0.108651	-0.533946	0.939312
H510	H	0.391349	-0.033946	1.439312
H511	H	-0.106958	-0.587267	0.971709
H512	H	0.393042	-0.087267	1.471709
H513	H	-0.035399	-0.560967	0.888053
H514	H	0.464601	-0.060967	1.388053
H515	H	-0.033704	-0.614288	0.920442
H516	H	0.466296	-0.114288	1.420442
O517	O	0.022366	-0.379000	0.356918
O518	O	0.522366	0.121000	0.856918
C519	C	-0.017126	-0.370301	0.345722
C520	C	0.482874	0.129699	0.845722
H521	H	-0.020999	-0.406522	0.356482
H522	H	0.479001	0.093478	0.856482
H523	H	-0.052076	-0.346826	0.366713
H524	H	0.447924	0.153174	0.866713
C525	C	-0.003066	-0.299096	0.277387
C526	C	0.496934	0.200904	0.777387
C527	C	-0.007820	-0.343583	0.290599
C528	C	0.492180	0.156417	0.790599
H529	H	0.002673	-0.282613	0.243385
H530	H	0.502673	0.217387	0.743385
H531	H	0.023540	-0.304955	0.284931
H532	H	0.523540	0.195045	0.784931
H533	H	-0.032192	-0.279539	0.294884
H534	H	0.467808	0.220461	0.794884
H535	H	0.021308	-0.363142	0.273107
H536	H	0.521308	0.136858	0.773107
H537	H	-0.034421	-0.337727	0.283051
H538	H	0.465579	0.162273	0.783051
H539	H	0.232159	-0.436796	0.638236
H540	H	0.732159	0.063204	1.138236
O541	O	0.206613	-0.472362	0.734818
O542	O	0.706613	0.027638	1.234818
C543	C	0.236138	-0.515158	0.722314
C544	C	0.736138	-0.015158	1.222314
H545	H	0.216413	-0.522265	0.708306
H546	H	0.716413	-0.022265	1.208306
H547	H	0.271978	-0.510501	0.692661
H548	H	0.771978	-0.010501	1.192661
C549	C	0.270846	-0.549869	0.784839
C550	C	0.770846	-0.049869	1.284839
C551	C	0.246618	-0.558600	0.767638
C552	C	0.746618	-0.058600	1.267638
H553	H	0.277314	-0.576666	0.812796
H554	H	0.777314	-0.076666	1.312796
H555	H	0.250957	-0.521036	0.793262
H556	H	0.750957	-0.021036	1.293262
H557	H	0.300710	-0.545987	0.760124
H558	H	0.800710	-0.045987	1.260124
H559	H	0.216753	-0.562475	0.792351
H560	H	0.716753	-0.062475	1.292351
H561	H	0.266504	-0.587435	0.759220
H562	H	0.766504	-0.087435	1.259220
O563	O	0.042047	-0.390123	0.566157
O564	O	0.542047	0.109877	1.066157
C565	C	0.016432	-0.360578	0.595713
C566	C	0.516432	0.139422	1.095713
H567	H	0.040801	-0.367087	0.614243
H568	H	0.540801	0.132913	1.114243
H569	H	0.005390	-0.320592	0.572184
H570	H	0.505390	0.179408	1.072184
C571	C	-0.059482	-0.365534	0.611995
C572	C	0.440518	0.134466	1.111995
C573	C	-0.029552	-0.373531	0.634756
C574	C	0.470448	0.126469	1.134756
H575	H	-0.087848	-0.373522	0.636077
H576	H	0.412152	0.126478	1.136077
H577	H	-0.042225	-0.385437	0.592080
H578	H	0.457775	0.114563	1.092080
H579	H	-0.068678	-0.332212	0.592388
H580	H	0.431322	0.167788	1.092388
H581	H	-0.020352	-0.406854	0.654358
H582	H	0.479648	0.093146	1.154358
H583	H	-0.046809	-0.353634	0.654675
H584	H	0.453191	0.146366	1.154675
H585	H	0.201155	-0.467643	0.488446
H586	H	0.701155	0.032357	0.988446
O587	O	0.239943	-0.438665	0.517245
O588	O	0.739943	0.061335	1.017245
C589	C	0.261087	-0.421170	0.466116
C590	C	0.761087	0.078830	0.966116
H591	H	0.236867	-0.416184	0.448280
H592	H	0.736867	0.083816	0.948280
H593	H	0.264849	-0.384679	0.454575
H594	H	0.764849	0.115321	0.954575
C595	C	0.341564	-0.464215	0.471858
C596	C	0.841564	0.035785	0.971858
C597	C	0.311819	-0.458094	0.449951
C598	C	0.811819	0.041906	0.949951
H599	H	0.372859	-0.486989	0.461886
H600	H	0.872859	0.013011	0.961886
H601	H	0.327320	-0.476000	0.506305
H602	H	0.827320	0.024000	1.006305
H603	H	0.344694	-0.433802	0.462239
H604	H	0.844694	0.066198	0.962239
H605	H	0.308685	-0.488505	0.459576
H606	H	0.808685	0.011495	0.959576
H607	H	0.326064	-0.446315	0.415506
H608	H	0.826064	0.053685	0.915506
O609	O	0.233744	-0.479106	0.589429
O610	O	0.733744	0.020894	1.089429
C611	C	0.267230	-0.526705	0.592158
C612	C	0.767230	-0.026705	1.092158
H613	H	0.303597	-0.524753	0.561992
H614	H	0.803597	-0.024753	1.061992
H615	H	0.272694	-0.546193	0.629137
H616	H	0.772694	-0.046193	1.129137
C617	C	0.202632	-0.557410	0.622986
C618	C	0.702632	-0.057410	1.122986
C619	C	0.247298	-0.555012	0.585933
C620	C	0.747298	-0.055012	1.085933
H621	H	0.190337	-0.574873	0.619149
H622	H	0.690337	-0.074873	1.119149
H623	H	0.180072	-0.525343	0.621149
H624	H	0.680072	-0.025343	1.121149
H625	H	0.207192	-0.573649	0.653798
H626	H	0.707192	-0.073649	1.153798
H627	H	0.242736	-0.538768	0.555122
H628	H	0.742736	-0.038768	1.055122
H629	H	0.269857	-0.587078	0.587765
H630	H	0.769857	-0.087078	1.087765
H631	H	0.080840	-0.361208	0.594989
H632	H	0.580840	0.138792	1.094989
O633	O	-0.061818	-0.494079	0.338978
O634	O	0.438182	0.005921	0.838978
C635	C	-0.040539	-0.486203	0.360344
C636	C	0.459461	0.013797	0.860344
H637	H	-0.032902	-0.519694	0.393139
H638	H	0.467098	-0.019694	0.893139
H639	H	-0.004906	-0.479444	0.332474
H640	H	0.495094	0.020556	0.832474
C641	C	-0.085124	-0.400354	0.336755
C642	C	0.414876	0.099646	0.836755
C643	C	-0.075748	-0.441487	0.377036
C644	C	0.424252	0.058513	0.877036
H645	H	-0.106842	-0.372769	0.347049
H646	H	0.393158	0.127231	0.847049
H647	H	-0.099460	-0.405659	0.322358
H648	H	0.400540	0.094341	0.822358
H649	H	-0.055427	-0.394728	0.313533
H650	H	0.444573	0.105272	0.813533
H651	H	-0.105444	-0.447115	0.400254
H652	H	0.394556	0.052885	0.900254
H653	H	-0.061419	-0.436181	0.391437
H654	H	0.438581	0.063819	0.891437
O655	O	0.334369	-0.512544	0.555793
O656	O	0.834369	-0.012544	1.055793
C657	C	0.384889	-0.520519	0.535554
C658	C	0.884889	-0.020519	1.035554
H659	H	0.391833	-0.485385	0.506295
H660	H	0.891833	0.014615	1.006295
H661	H	0.399403	-0.532281	0.565414
H662	H	0.899403	-0.032281	1.065414
C663	C	0.402556	-0.603956	0.548573
C664	C	0.902556	-0.103956	1.048573
C665	C	0.411086	-0.560805	0.512633
C666	C	0.911086	-0.060805	1.012633
H667	H	0.418717	-0.628807	0.534436
H668	H	0.918717	-0.128807	1.034436
H669	H	0.368521	-0.598584	0.562210
H670	H	0.868521	-0.098584	1.062210
H671	H	0.414652	-0.613751	0.573453
H672	H	0.914652	-0.113751	1.073453
H673	H	0.398985	-0.551008	0.487757
H674	H	0.898985	-0.051008	0.987757
H675	H	0.445121	-0.566176	0.498991
H676	H	0.945121	-0.066176	0.998991
O677	O	0.334154	-0.349672	0.493754
O678	O	0.834154	0.150328	0.993754
C679	C	0.300670	-0.302074	0.491041
C680	C	0.800670	0.197926	0.991041
H681	H	0.264278	-0.300094	0.494410
H682	H	0.764278	0.199906	0.994410
H683	H	0.295267	-0.292547	0.521961
H684	H	0.795267	0.207453	1.021961
C685	C	0.365251	-0.268058	0.437618
C686	C	0.865251	0.231942	0.937618
C687	C	0.320555	-0.265625	0.441753
C688	C	0.820555	0.234375	0.941753
H689	H	0.377517	-0.245574	0.407216
H690	H	0.877517	0.254426	0.907216
H691	H	0.387810	-0.300126	0.439448
H692	H	0.887810	0.199874	0.939448
H693	H	0.360742	-0.260120	0.463388
H694	H	0.860742	0.239880	0.963388
H695	H	0.325066	-0.273569	0.415987
H696	H	0.825066	0.226431	0.915987
H697	H	0.297997	-0.233558	0.439918
H698	H	0.797997	0.266442	0.939918
H699	H	0.237625	-0.324046	0.528499
H700	H	0.737625	0.175954	1.028499
H701	H	0.163263	-0.225165	0.450676
H702	H	0.663263	0.274835	0.950676
O703	O	0.083153	-0.221278	0.607201
O704	O	0.583153	0.278722	1.107201
C705	C	0.075983	-0.254762	0.655136
C706	C	0.575983	0.245238	1.155136
H707	H	0.081691	-0.291150	0.655047
H708	H	0.581691	0.208850	1.155047
H709	H	0.103174	-0.260181	0.669727
H710	H	0.603174	0.239819	1.169727
C711	C	0.016696	-0.190169	0.688019
C712	C	0.516696	0.309831	1.188019
C713	C	0.023703	-0.234861	0.687909
C714	C	0.523703	0.265139	1.187909
H715	H	-0.015552	-0.177893	0.708236
H716	H	0.484448	0.322107	1.208236
H717	H	0.021528	-0.167610	0.655724
H718	H	0.521528	0.332390	1.155724
H719	H	0.039359	-0.194691	0.700177
H720	H	0.539359	0.305309	1.200177
H721	H	0.001044	-0.230337	0.675746
H722	H	0.501044	0.269663	1.175746
H723	H	0.018866	-0.257419	0.720203
H724	H	0.518866	0.242581	1.220203
O725	O	-0.061671	-0.494056	0.169923
O726	O	0.438329	0.005944	0.669923
C727	C	-0.091245	-0.468403	0.203376
C728	C	0.408755	0.031597	0.703376
H729	H	-0.109844	-0.492723	0.239744
H730	H	0.390156	0.007277	0.739744
H731	H	-0.067718	-0.457420	0.208858
H732	H	0.432282	0.042580	0.708858
C733	C	-0.107364	-0.392496	0.138718
C734	C	0.392636	0.107504	0.638718
C735	C	-0.130211	-0.422365	0.183384
C736	C	0.369789	0.077635	0.683384
H737	H	-0.131399	-0.364096	0.126385
H738	H	0.368601	0.135904	0.626385
H739	H	-0.087438	-0.409778	0.116179
H740	H	0.412562	0.090222	0.616179
H741	H	-0.087759	-0.383349	0.143292
H742	H	0.412241	0.116651	0.643292
H743	H	-0.149811	-0.431516	0.178808
H744	H	0.350189	0.068484	0.678808
H745	H	-0.150142	-0.405083	0.205921
H746	H	0.349858	0.094917	0.705921
O747	O	0.020506	-0.658507	0.170018
O748	O	0.520506	-0.158507	0.670018
C749	C	0.027665	-0.706438	0.203514
C750	C	0.527665	-0.206438	0.703514
H751	H	0.021913	-0.706336	0.239916
H752	H	0.521913	-0.206336	0.739916
H753	H	0.000496	-0.721024	0.208889
H754	H	0.500496	-0.221024	0.708889
C755	C	0.087020	-0.739351	0.138960
C756	C	0.587020	-0.239351	0.638960
C757	C	0.079959	-0.739227	0.183668
C758	C	0.579959	-0.239227	0.683668
H759	H	0.119277	-0.759578	0.126718
H760	H	0.619277	-0.259578	0.626718
H761	H	0.082196	-0.707060	0.116393
H762	H	0.582196	-0.207060	0.616393
H763	H	0.064376	-0.751505	0.143446
H764	H	0.564376	-0.251505	0.643446
H765	H	0.102599	-0.727067	0.179181
H766	H	0.602599	-0.227067	0.679181
H767	H	0.084789	-0.771518	0.206235
H768	H	0.584789	-0.271518	0.706235
O769	O	0.198765	-0.321705	0.476232
O770	O	0.698765	0.178295	0.976232
C771	C	0.205958	-0.288220	0.428298
C772	C	0.705958	0.211780	0.928298
H773	H	0.175174	-0.251841	0.428414
H774	H	0.675174	0.248159	0.928414
H775	H	0.242316	-0.282777	0.413645
H776	H	0.742316	0.217223	0.913645
C777	C	0.244098	-0.352818	0.395433
C778	C	0.744098	0.147182	0.895433
C779	C	0.206286	-0.308138	0.395575
C780	C	0.706286	0.191862	0.895575
H781	H	0.244303	-0.365104	0.375247
H782	H	0.744303	0.134896	0.875247
H783	H	0.239254	-0.375378	0.427727
H784	H	0.739254	0.124622	0.927727
H785	H	0.274392	-0.348276	0.383223
H786	H	0.774392	0.151724	0.883223
H787	H	0.175992	-0.312681	0.407790
H788	H	0.675992	0.187319	0.907790
H789	H	0.211125	-0.285578	0.363282
H790	H	0.711125	0.214422	0.863282
H791	H	0.118680	-0.317820	0.632757
H792	H	0.618680	0.182180	1.132757
O793	O	0.080898	-0.628537	0.548180
O794	O	0.580898	-0.128537	1.048180
C795	C	0.128819	-0.658769	0.530482
C796	C	0.628819	-0.158769	1.030482
H797	H	0.141671	-0.645478	0.488951
H798	H	0.641671	-0.145478	0.988951
H799	H	0.154050	-0.657421	0.542808
H800	H	0.654050	-0.157421	1.042808
C801	C	0.113939	-0.727891	0.601610
C802	C	0.613939	-0.227891	1.101610
C803	C	0.129722	-0.711570	0.550602
C804	C	0.629722	-0.211570	1.050602
H805	H	0.114497	-0.760462	0.614022
H806	H	0.614497	-0.260462	1.114022
H807	H	0.081654	-0.707523	0.613535
H808	H	0.581654	-0.207523	1.113535
H809	H	0.134967	-0.726764	0.611875
H810	H	0.634967	-0.226764	1.111875
H811	H	0.108691	-0.712691	0.540338
H812	H	0.608691	-0.212691	1.040338
H813	H	0.162003	-0.731939	0.538676
H814	H	0.662003	-0.231939	1.038676
O815	O	0.020104	-0.658489	0.421234
O816	O	0.520104	-0.158489	0.921234
C817	C	0.027327	-0.706422	0.428452
C818	C	0.527327	-0.206422	0.928452
H819	H	-0.003423	-0.706297	0.422682
H820	H	0.496577	-0.206297	0.922682
H821	H	0.063710	-0.721080	0.401326
H822	H	0.563710	-0.221080	0.901326
C823	C	0.065377	-0.739303	0.487858
C824	C	0.565377	-0.239303	0.987858
C825	C	0.027606	-0.739150	0.480776
C826	C	0.527606	-0.239150	0.980776
H827	H	0.065551	-0.759492	0.520133
H828	H	0.565551	-0.259492	1.020133
H829	H	0.060512	-0.707010	0.482994
H830	H	0.560512	-0.207010	0.982994
H831	H	0.095692	-0.751517	0.465249
H832	H	0.595692	-0.251517	0.965249
H833	H	-0.002708	-0.726930	0.503379
H834	H	0.497292	-0.226930	1.003379
H835	H	0.032465	-0.771441	0.485644
H836	H	0.532465	-0.271441	0.985644
H837	H	-0.090673	-0.532769	0.266460
H838	H	0.409327	-0.032769	0.766460
H839	H	-0.090726	-0.532768	0.309877
H840	H	0.409274	-0.032768	0.809877
O841	O	0.027118	-0.685707	0.315488
O842	O	0.527118	-0.185707	0.815488
C843	C	0.074699	-0.719217	0.312808
C844	C	0.574699	-0.219217	0.812808
H845	H	0.072713	-0.755589	0.342958
H846	H	0.572713	-0.255589	0.842958
H847	H	0.094224	-0.724667	0.275822
H848	H	0.594224	-0.224667	0.775822
C849	C	0.105421	-0.654657	0.282084
C850	C	0.605421	-0.154657	0.782084
C851	C	0.102982	-0.699328	0.319118
C852	C	0.602982	-0.199328	0.819118
H853	H	0.122868	-0.642387	0.285974
H854	H	0.622868	-0.142387	0.785974
H855	H	0.073365	-0.632080	0.283888
H856	H	0.573365	-0.132080	0.783888
H857	H	0.121690	-0.659204	0.251266
H858	H	0.621690	-0.159204	0.751266
H859	H	0.086707	-0.694779	0.349935
H860	H	0.586707	-0.194779	0.849935
H861	H	0.135036	-0.721904	0.317320
H862	H	0.635036	-0.221904	0.817320
H863	H	-0.015291	-0.684031	0.385637
H864	H	0.484709	-0.184031	0.885637
O865	O	0.060506	-0.786338	0.349104
O866	O	0.560506	-0.286338	0.849104
C867	C	0.068457	-0.836855	0.369318
C868	C	0.568457	-0.336855	0.869318
H869	H	0.033305	-0.843787	0.398530
H870	H	0.533305	-0.343787	0.898530
H871	H	0.080254	-0.851349	0.339432
H872	H	0.580254	-0.351349	0.839432
C873	C	0.151867	-0.854582	0.356431
C874	C	0.651867	-0.354582	0.856431
C875	C	0.108693	-0.863096	0.392313
C876	C	0.608693	-0.363096	0.892313
H877	H	0.176688	-0.870769	0.370613
H878	H	0.676688	-0.370769	0.870613
H879	H	0.146511	-0.820547	0.342811
H880	H	0.646511	-0.320547	0.842811
H881	H	0.161692	-0.866660	0.331529
H882	H	0.661692	-0.366660	0.831529
H883	H	0.098867	-0.851012	0.417211
H884	H	0.598867	-0.351012	0.917211
H885	H	0.114049	-0.897129	0.405938
H886	H	0.614049	-0.397129	0.905938
O887	O	-0.102355	-0.786019	0.410854
O888	O	0.397645	-0.286019	0.910854
C889	C	-0.126241	-0.773545	0.379593
C890	C	0.373759	-0.273545	0.879593
H891	H	-0.124995	-0.736518	0.350500
H892	H	0.375005	-0.236518	0.850500
H893	H	-0.107218	-0.802312	0.361366
H894	H	0.392782	-0.302312	0.861366
C895	C	-0.181241	-0.816556	0.445101
C896	C	0.318759	-0.316556	0.945101
C897	C	-0.179715	-0.771076	0.409370
C898	C	0.320285	-0.271076	0.909370
H899	H	-0.214225	-0.815035	0.463468
H900	H	0.285775	-0.315035	0.963468
H901	H	-0.165147	-0.824961	0.466161
H902	H	0.334853	-0.324961	0.966161
H903	H	-0.165386	-0.840523	0.429906
H904	H	0.334614	-0.340523	0.929906
H905	H	-0.195564	-0.747111	0.424566
H906	H	0.304436	-0.247111	0.924566
H907	H	-0.195812	-0.762667	0.388313
H908	H	0.304188	-0.262667	0.888313
O909	O	-0.130326	-0.650766	0.428519
O910	O	0.369674	-0.150766	0.928519
C911	C	-0.142836	-0.693553	0.458006
C912	C	0.357164	-0.193553	0.958006
H913	H	-0.179880	-0.686669	0.458442
H914	H	0.320120	-0.186669	0.958442
H915	H	-0.114105	-0.724277	0.442685
H916	H	0.385895	-0.224277	0.942685
C917	C	-0.099772	-0.716544	0.509789
C918	C	0.400228	-0.216544	1.009789
C919	C	-0.145272	-0.708087	0.510327
C920	C	0.354728	-0.208087	1.010327
H921	H	-0.101273	-0.725511	0.542062
H922	H	0.398727	-0.225511	1.042062
H923	H	-0.091342	-0.687719	0.489922
H924	H	0.408658	-0.187719	0.989922
H925	H	-0.075834	-0.742146	0.497019
H926	H	0.424166	-0.242146	0.997019
H927	H	-0.169207	-0.682482	0.523091
H928	H	0.330793	-0.182482	1.023091
H929	H	-0.153706	-0.736909	0.530197
H930	H	0.346294	-0.236909	1.030197
O931	O	-0.230955	-0.617093	0.461847
O932	O	0.269045	-0.117093	0.961847
C933	C	-0.260478	-0.642758	0.474118
C934	C	0.239522	-0.142758	0.974118
H935	H	-0.268066	-0.633544	0.440441
H936	H	0.231934	-0.133544	0.940441
H937	H	-0.240844	-0.683619	0.488160
H938	H	0.259156	-0.183619	0.988160
C939	C	-0.299683	-0.639358	0.555411
C940	C	0.200317	-0.139358	1.055411
C941	C	-0.309005	-0.628039	0.514049
C942	C	0.190995	-0.128039	1.014049
H943	H	-0.329616	-0.630281	0.580043
H944	H	0.170384	-0.130281	1.080043
H945	H	-0.279791	-0.622069	0.547144
H946	H	0.220209	-0.122069	1.047144
H947	H	-0.283320	-0.673409	0.567106
H948	H	0.216680	-0.173409	1.067106
H949	H	-0.325362	-0.593988	0.502351
H950	H	0.174638	-0.093988	1.002351
H951	H	-0.328901	-0.645322	0.522314
H952	H	0.171099	-0.145322	1.022314
H953	H	-0.015108	-0.684041	0.266548
H954	H	0.484892	-0.184041	0.766548
H955	H	-0.127938	-0.689491	0.376175
H956	H	0.372062	-0.189491	0.876175
H957	H	-0.226640	-0.539563	0.302661
H958	H	0.273360	-0.039563	0.802661
H959	H	-0.134040	-0.570516	0.271939
H960	H	0.365960	-0.070516	0.771939
