data_functionalizedCrystal
_audit_creation_method	'MofGen! by Chris Wilmer'
_symmetry_space_group_name_H-M	'P1'
_symmetry_Int_Tables_number	1
_symmetry_cell_setting	triclinic
loop_
_symmetry_equiv_pos_as_xyz
  x,y,z
_cell_length_a	12.837943
_cell_length_b	15.538191
_cell_length_c	11.892095
_cell_angle_alpha	92.341637
_cell_angle_beta	85.689438
_cell_angle_gamma	71.050517
loop_
_atom_site_label
_atom_site_type_symbol
_atom_site_fract_x
_atom_site_fract_y
_atom_site_fract_z
O1	O	1.294921	0.231640	-0.093963
O2	O	0.997519	0.219937	-0.093971
O3	O	1.204112	0.093855	-0.093971
O4	O	1.088328	0.357722	-0.093963
O5	O	1.186894	0.104350	0.094036
O6	O	0.980301	0.230432	0.094036
O7	O	1.277702	0.242134	0.094044
Zn8	Zn	1.126268	0.237949	0.123891
Zn9	Zn	1.148954	0.224122	-0.123817
O10	O	1.071109	0.368216	0.094044
C11	C	0.951777	0.221231	0.000032
C12	C	0.841136	0.209441	0.000028
C13	C	0.546845	0.351179	0.000049
C14	C	0.442886	0.340105	0.000046
C15	C	0.529256	0.176222	0.000029
C16	C	0.633215	0.187295	0.000032
C17	C	0.642004	0.274777	0.000040
C18	C	0.745967	0.285849	0.000034
C19	C	0.832333	0.121967	0.000025
C20	C	0.728374	0.110893	0.000023
C21	C	1.207617	0.065094	0.000029
C22	C	1.243702	-0.036241	0.000019
C23	C	0.885218	-0.356209	0.000034
C24	C	0.919150	-0.451429	0.000037
C25	C	1.110005	-0.456740	0.000042
C26	C	1.076091	-0.361519	0.000033
C27	C	0.963696	-0.311261	0.000030
C28	C	1.154568	-0.316570	0.000029
C29	C	1.120655	-0.221357	0.000026
C30	C	1.008265	-0.171093	0.000027
C31	C	0.929783	-0.216048	0.000027
C32	C	1.266962	-0.366830	0.000040
C33	C	1.345439	-0.321881	0.000036
C34	C	1.311528	-0.226667	0.000025
C35	C	1.199137	-0.176402	0.000026
C36	C	1.390010	-0.181712	0.000025
C37	C	1.356097	-0.086499	0.000022
C38	C	1.165225	-0.081189	0.000023
C39	C	1.323445	0.240840	0.000039
C40	C	1.434086	0.252630	0.000035
C41	C	1.067604	0.396977	0.000041
C42	C	1.031520	0.498312	0.000044
N43	N	1.110792	0.247386	0.292945
N44	N	1.164440	0.214679	-0.292872
C45	C	1.272143	0.148962	0.529592
C46	C	1.261331	0.155566	0.647934
C47	C	1.078353	0.267191	0.647972
C48	C	1.089166	0.260587	0.529631
C49	C	1.186064	0.201472	0.470445
C50	C	1.196879	0.194874	0.352101
C51	C	1.013899	0.306494	0.352141
C52	C	1.003087	0.313097	0.470483
H53	H	0.753119	0.357081	0.000042
H54	H	0.943810	0.349254	0.303969
O55	O	0.775989	-0.307517	0.000069
C56	C	0.713991	-0.367606	0.000031
H57	H	0.762871	-0.434268	0.035634
H58	H	0.632441	-0.335184	0.054602
H59	H	0.696526	-0.381954	-0.090170
H60	H	1.351046	0.100835	0.481403
O61	O	0.555268	0.436189	-0.000101
C62	C	0.512540	0.477888	-0.097486
H63	H	0.452308	0.444739	-0.129951
H64	H	0.467477	0.553693	-0.075587
H65	H	0.583282	0.468951	-0.165667
O66	O	1.290948	0.137303	0.294681
C67	C	1.305923	0.047258	0.323656
H68	H	1.222832	0.041411	0.356188
H69	H	1.341785	-0.001801	0.245848
H70	H	1.365259	0.029351	0.392359
H71	H	0.909827	0.059754	0.000010
O72	O	0.908969	0.370639	0.527853
C73	C	0.893983	0.460705	0.498961
H74	H	0.940526	0.459286	0.413031
H75	H	0.802110	0.498554	0.494926
H76	H	0.927194	0.497104	0.565560
H77	H	0.365407	0.402321	0.000057
H78	H	0.522070	0.105004	0.000116
H79	H	1.331424	0.112806	0.696089
O80	O	0.843029	-0.495206	-0.000114
C81	C	0.865836	-0.555544	-0.097497
H82	H	0.956748	-0.573924	-0.129961
H83	H	0.847291	-0.620153	-0.075595
H84	H	0.811911	-0.521350	-0.165680
O85	O	1.056027	-0.032466	-0.000141
C86	C	1.015185	-0.059535	-0.097532
H87	H	1.069910	-0.131237	-0.129988
H88	H	0.927028	-0.059131	-0.075643
H89	H	1.015588	-0.010126	-0.165715
O90	O	1.299876	-0.459330	-0.000162
C91	C	1.267761	-0.495121	-0.097525
H92	H	1.256133	-0.444096	-0.165579
H93	H	1.334568	-0.561785	-0.130208
H94	H	1.186616	-0.508423	-0.075519
O95	O	0.984227	0.324482	0.705607
C96	C	0.934485	0.273902	0.774042
H97	H	0.999632	0.207187	0.791737
H98	H	0.896718	0.315135	0.857276
H99	H	0.866882	0.258483	0.728453
H100	H	0.721200	0.039669	0.000029
H101	H	0.980655	-0.093564	0.000031
H102	H	1.481521	-0.222645	0.000038
H103	H	0.838261	-0.175125	0.000017
H104	H	1.420001	-0.049901	0.000020
O105	O	1.219142	-0.505705	-0.000007
C106	C	1.232246	-0.599380	0.000029
H107	H	1.158118	-0.612092	-0.035559
H108	H	1.311081	-0.640311	-0.054556
H109	H	1.238137	-0.621485	0.090227
H110	H	1.436951	-0.362814	0.000043
