data_functionalizedCrystal
_audit_creation_method	'MofGen! by Chris Wilmer'
_symmetry_space_group_name_H-M	'P1'
_symmetry_Int_Tables_number	1
_symmetry_cell_setting	triclinic
loop_
_symmetry_equiv_pos_as_xyz
  x,y,z
_cell_length_a	23.532355
_cell_length_b	22.610064
_cell_length_c	23.532407
_cell_angle_alpha	89.999397
_cell_angle_beta	97.161912
_cell_angle_gamma	90.002356
loop_
_atom_site_label
_atom_site_type_symbol
_atom_site_fract_x
_atom_site_fract_y
_atom_site_fract_z
O1	O	0.755283	0.049110	-0.068986
O2	O	1.255283	0.549110	0.431014
O3	O	0.589415	0.049130	-0.079020
O4	O	1.089415	0.549130	0.420980
O5	O	0.677351	0.049108	0.008929
O6	O	1.177351	0.549108	0.508929
O7	O	0.667347	0.049131	-0.156936
O8	O	1.167347	0.549131	0.343064
O9	O	0.677335	-0.049261	0.008916
O10	O	1.177335	0.450739	0.508916
O11	O	0.589400	-0.049239	-0.079033
O12	O	1.089400	0.450761	0.420967
O13	O	0.755267	-0.049259	-0.068999
O14	O	1.255267	0.450741	0.431001
Zn15	Zn	0.672331	-0.064868	-0.074018
Zn16	Zn	1.172331	0.435132	0.425982
Zn17	Zn	0.672351	0.064738	-0.074001
Zn18	Zn	1.172351	0.564738	0.425999
O19	O	0.667332	-0.049238	-0.156949
O20	O	1.167332	0.450762	0.343051
C21	C	0.568191	-0.000052	-0.078776
C22	C	1.068191	0.499948	0.421224
C23	C	0.504972	-0.000045	-0.078022
C24	C	1.004972	0.499955	0.421978
N25	N	0.672321	-0.153320	-0.074029
N26	N	1.172321	0.346680	0.425971
C27	C	0.112950	-0.053692	-0.073291
C28	C	0.612950	0.446308	0.426709
C29	C	0.053550	-0.053694	-0.072573
C30	C	0.553550	0.446306	0.427427
O31	O	0.022825	-0.099296	-0.072189
O32	O	0.522825	0.400704	0.427811
N33	N	0.023850	-0.000074	-0.072211
N34	N	0.523850	0.499926	0.427789
C35	C	0.053554	0.053553	-0.072560
C36	C	0.553554	0.553553	0.427440
O37	O	0.022837	0.099162	-0.072185
O38	O	0.522837	0.599162	0.427815
C39	C	0.112953	0.053555	-0.073273
C40	C	0.612953	0.553555	0.426727
C41	C	0.142649	-0.000069	-0.073641
C42	C	0.642649	0.499931	0.426359
C43	C	0.142646	-0.107312	-0.073659
C44	C	0.642646	0.392688	0.426341
C45	C	0.202041	-0.107309	-0.074377
C46	C	0.702041	0.392691	0.425623
C47	C	0.231740	-0.053687	-0.074728
C48	C	0.731740	0.446313	0.425272
C49	C	0.202044	-0.000067	-0.074360
C50	C	0.702044	0.499933	0.425640
C51	C	0.142655	0.107181	-0.073618
C52	C	0.642655	0.607181	0.426382
C53	C	0.202058	0.107178	-0.074331
C54	C	0.702058	0.607178	0.425669
C55	C	0.231754	0.053554	-0.074699
C56	C	0.731754	0.553554	0.425301
C57	C	0.291138	0.053558	-0.075429
C58	C	0.791138	0.553558	0.424571
N59	N	0.320838	-0.000062	-0.075792
N60	N	0.820838	0.499938	0.424208
C61	C	0.291139	-0.053685	-0.075441
C62	C	0.791139	0.446315	0.424559
C63	C	-0.071188	0.053545	-0.071061
C64	C	0.428812	0.553545	0.428939
C65	C	-0.130586	0.053544	-0.070351
C66	C	0.369414	0.553544	0.429649
C67	C	-0.130585	-0.053703	-0.070364
C68	C	0.369415	0.446297	0.429636
C69	C	-0.071186	-0.053702	-0.071077
C70	C	0.428814	0.446298	0.428923
C71	C	-0.041488	-0.000075	-0.071423
C72	C	0.458512	0.499925	0.428577
C73	C	0.415873	-0.053675	-0.076951
C74	C	0.915873	0.446325	0.423049
C75	C	0.475273	-0.053668	-0.077671
C76	C	0.975273	0.446332	0.422329
C77	C	0.475267	0.053579	-0.077656
C78	C	0.975267	0.553579	0.422344
C79	C	0.415872	0.053572	-0.076938
C80	C	0.915872	0.553572	0.423062
C81	C	0.386177	-0.000060	-0.076583
C82	C	0.886177	0.499940	0.423417
O83	O	0.321902	0.099137	-0.075812
O84	O	0.821902	0.599137	0.424188
O85	O	0.321864	-0.099286	-0.075809
O86	O	0.821864	0.400714	0.424191
C87	C	0.711291	-0.561971	-0.035063
C88	C	1.211291	-0.061971	0.464937
C89	C	0.711294	-0.623891	-0.035059
C90	C	1.211294	-0.123891	0.464941
O91	O	0.744403	-0.655917	-0.001937
O92	O	1.244403	-0.155917	0.498063
N93	N	0.672351	-0.654857	-0.073990
N94	N	1.172351	-0.154857	0.426010
C95	C	0.633399	-0.623900	-0.112923
C96	C	1.133399	-0.123900	0.387077
O97	O	0.600275	-0.655926	-0.146036
O98	O	1.100275	-0.155926	0.353964
C99	C	0.633394	-0.561982	-0.112924
C100	C	1.133394	-0.061982	0.387076
C101	C	0.672343	-0.531018	-0.073995
C102	C	1.172343	-0.031018	0.426005
C103	C	0.750237	-0.531007	0.003863
C104	C	1.250237	-0.031007	0.503863
C105	C	0.750234	-0.469092	0.003858
C106	C	1.250234	0.030908	0.503858
C107	C	0.711286	-0.438139	-0.035073
C108	C	1.211286	0.061861	0.464927
C109	C	0.672340	-0.469103	-0.074000
C110	C	1.172340	0.030897	0.426000
C111	C	0.594439	-0.531026	-0.151854
C112	C	1.094439	-0.031026	0.348146
C113	C	0.594437	-0.469103	-0.151851
C114	C	1.094437	0.030897	0.348149
C115	C	0.633386	-0.438140	-0.112922
C116	C	1.133386	0.061860	0.387078
C117	C	0.633390	-0.376235	-0.112936
C118	C	1.133390	0.123765	0.387064
N119	N	0.672333	-0.345268	-0.074006
N120	N	1.172333	0.154732	0.425994
C121	C	0.711281	-0.376221	-0.035074
C122	C	1.211281	0.123779	0.464926
C123	C	0.633412	-0.753934	-0.112917
C124	C	1.133412	-0.253934	0.387083
C125	C	0.633419	-0.815852	-0.112919
C126	C	1.133419	-0.315852	0.387081
C127	C	0.711314	-0.815838	-0.035055
C128	C	1.211314	-0.315838	0.464945
C129	C	0.711309	-0.753919	-0.035056
C130	C	1.211309	-0.253919	0.464944
C131	C	0.672355	-0.722968	-0.073987
C132	C	1.172355	-0.222968	0.426013
C133	C	0.711273	-0.246193	-0.035088
C134	C	1.211273	0.253807	0.464912
C135	C	0.711269	-0.184272	-0.035098
C136	C	1.211269	0.315728	0.464902
C137	C	0.633373	-0.184292	-0.112960
C138	C	1.133373	0.315708	0.387040
C139	C	0.633379	-0.246207	-0.112953
C140	C	1.133379	0.253793	0.387047
C141	C	0.672331	-0.277157	-0.074012
C142	C	1.172331	0.222843	0.425988
O143	O	0.600296	-0.344169	-0.146040
O144	O	1.100296	0.155831	0.353960
O145	O	0.744395	-0.344188	-0.001962
O146	O	1.244395	0.155812	0.498038
C147	C	0.776491	-0.000076	-0.069244
C148	C	1.276491	0.499924	0.430756
C149	C	0.839710	-0.000079	-0.069998
C150	C	1.339710	0.499921	0.430002
C151	C	0.677088	-0.000078	0.030139
C152	C	1.177088	0.499922	0.530139
C153	C	0.676322	-0.000082	0.093356
C154	C	1.176322	0.499918	0.593356
N155	N	0.672366	0.153191	-0.073986
N156	N	1.172366	0.653191	0.426014
C157	C	0.667594	-0.000050	-0.178158
C158	C	1.167594	0.499950	0.321842
C159	C	0.668360	-0.000042	-0.241375
C160	C	1.168360	0.499958	0.258625
C161	C	0.723557	-0.000055	0.492468
C162	C	1.223557	0.499945	0.992468
C163	C	0.722845	-0.000051	0.551868
C164	C	1.222845	0.499949	1.051868
O165	O	0.766632	-0.000034	0.588620
O166	O	1.266632	0.499966	1.088620
N167	N	0.670568	-0.000045	0.574484
N168	N	1.170568	0.499955	1.074484
C169	C	0.618998	-0.000038	0.537697
C170	C	1.118998	0.499962	1.037697
O171	O	0.574467	-0.000032	0.562388
O172	O	1.074467	0.499968	1.062388
C173	C	0.619710	-0.000038	0.478298
C174	C	1.119710	0.499962	0.978298
C175	C	0.671991	-0.000050	0.455685
C176	C	1.171991	0.499950	0.955685
C177	C	0.775834	-0.000066	0.469854
C178	C	1.275834	0.499934	0.969854
C179	C	0.776545	-0.000072	0.410458
C180	C	1.276545	0.499928	0.910458
C181	C	0.724979	-0.000067	0.373676
C182	C	1.224979	0.499933	0.873676
C183	C	0.672703	-0.000055	0.396289
C184	C	1.172703	0.499945	0.896289
C185	C	0.568141	-0.000027	0.441512
C186	C	1.068141	0.499973	0.941512
C187	C	0.568858	-0.000026	0.382110
C188	C	1.068858	0.499974	0.882110
C189	C	0.621139	-0.000038	0.359497
C190	C	1.121139	0.499962	0.859497
C191	C	0.621848	-0.000056	0.300110
C192	C	1.121848	0.499944	0.800110
N193	N	0.674126	-0.000061	0.277494
N194	N	1.174126	0.499939	0.777494
C195	C	0.725691	-0.000067	0.314277
C196	C	1.225691	0.499933	0.814277
C197	C	0.617507	-0.000036	0.662439
C198	C	1.117507	0.499964	1.162439
C199	C	0.616794	-0.000040	0.721837
C200	C	1.116794	0.499960	1.221837
C201	C	0.720642	-0.000052	0.736004
C202	C	1.220642	0.499948	1.236004
C203	C	0.721354	-0.000052	0.676605
C204	C	1.221354	0.499948	1.176605
C205	C	0.669784	-0.000042	0.639823
C206	C	1.169784	0.499958	1.139823
C207	C	0.727181	-0.000079	0.189540
C208	C	1.227181	0.499921	0.689540
C209	C	0.727888	-0.000087	0.130138
C210	C	1.227888	0.499913	0.630138
C211	C	0.624041	-0.000072	0.115977
C212	C	1.124041	0.499928	0.615977
C213	C	0.623334	-0.000067	0.175373
C214	C	1.123334	0.499933	0.675373
C215	C	0.674909	-0.000069	0.212154
C216	C	1.174909	0.499931	0.712154
O217	O	0.578084	-0.000070	0.263323
O218	O	1.078084	0.499930	0.763323
O219	O	0.770216	-0.000065	0.289577
O220	O	1.270216	0.499935	0.789577
H221	H	0.499449	-0.097337	-0.077973
H222	H	0.999449	0.402663	0.422027
H223	H	0.574222	-0.000040	0.740243
H224	H	1.074222	0.499960	1.240243
H225	H	0.601709	-0.841058	-0.144625
H226	H	1.101709	-0.341058	0.355375
H227	H	0.391701	-0.097348	-0.076667
H228	H	0.891701	0.402652	0.423333
H229	H	0.781953	-0.556203	0.035569
H230	H	1.281953	-0.056203	0.535569
H231	H	0.118487	0.150848	-0.073317
H232	H	0.618487	0.650848	0.426683
C233	C	0.510627	-0.000010	0.466372
C234	C	1.010627	0.499990	0.966372
N235	N	0.467304	0.000005	0.485095
N236	N	0.967304	0.500005	0.985095
C237	C	0.590583	-0.719893	-0.155773
C238	C	1.090583	-0.219893	0.344227
N239	N	0.558331	-0.694257	-0.188060
N240	N	1.058331	-0.194257	0.311940
C241	C	0.590536	-0.280268	-0.155780
C242	C	1.090536	0.219732	0.344220
N243	N	0.558263	-0.305918	-0.188034
N244	N	1.058263	0.194082	0.311966
H245	H	0.575510	-0.000033	0.632494
H246	H	1.075510	0.499967	1.132494
H247	H	0.226215	-0.150976	-0.074674
H248	H	0.726215	0.349024	0.425326
H249	H	0.601663	-0.159081	-0.144660
H250	H	1.101663	0.340919	0.355340
H251	H	0.118472	-0.150980	-0.073372
H252	H	0.618472	0.349020	0.426628
H253	H	0.526863	-0.000017	0.352164
H254	H	1.026863	0.499983	0.852164
H255	H	0.769178	-0.000078	0.219481
H256	H	1.269178	0.499922	0.719481
C257	C	0.234723	0.166173	-0.074713
C258	C	0.734723	0.666173	0.425287
N259	N	0.259324	0.210608	-0.075003
N260	N	0.759324	0.710608	0.424997
C261	C	0.793076	-0.435040	0.046690
C262	C	1.293076	0.064960	0.546690
N263	N	0.825344	-0.409397	0.078956
N264	N	1.325344	0.090603	0.578956
H265	H	0.580762	-0.000074	0.193785
H266	H	1.080762	0.499926	0.693785
C267	C	0.383205	0.112561	-0.076539
C268	C	0.883205	0.612561	0.423461
N269	N	0.358604	0.156993	-0.076233
N270	N	0.858604	0.656993	0.423767
H271	H	0.582057	-0.000070	0.086018
H272	H	1.082057	0.499930	0.586018
C273	C	0.754152	-0.719865	0.007773
C274	C	1.254152	-0.219865	0.507773
N275	N	0.786422	-0.694219	0.040035
N276	N	1.286422	-0.194219	0.540035
H277	H	0.743027	-0.841050	-0.003354
H278	H	1.243027	-0.341050	0.496646
C279	C	-0.038525	-0.112692	-0.071477
C280	C	0.461475	0.387308	0.428523
N281	N	-0.013928	-0.157126	-0.071776
N282	N	0.486072	0.342874	0.428224
C283	C	0.507948	0.112561	-0.078037
C284	C	1.007948	0.612561	0.421963
N285	N	0.532566	0.156987	-0.078320
N286	N	1.032566	0.656987	0.421680
C287	C	0.785403	-0.000099	0.105268
C288	C	1.285403	0.499901	0.605268
N289	N	0.828723	-0.000106	0.086538
N290	N	1.328723	0.499894	0.586538
H291	H	0.763925	-0.000061	0.658198
H292	H	1.263925	0.499939	1.158198
H293	H	0.762629	-0.000054	0.765963
H294	H	1.262629	0.499946	1.265963
H295	H	0.742991	-0.271385	-0.003378
H296	H	1.242991	0.228615	0.496622
C297	C	-0.163265	-0.112690	-0.069972
C298	C	0.336735	0.387310	0.430028
N299	N	-0.187880	-0.157116	-0.069676
N300	N	0.312120	0.342884	0.430324
C301	C	-0.163246	0.112535	-0.069951
C302	C	0.336754	0.612535	0.430049
N303	N	-0.187843	0.156969	-0.069644
N304	N	0.312157	0.656969	0.430356
C305	C	-0.038526	0.112542	-0.071448
C306	C	0.461474	0.612542	0.428552
N307	N	-0.013928	0.156979	-0.071739
N308	N	0.486072	0.656979	0.428261
H309	H	0.562723	-0.556228	-0.183553
H310	H	1.062723	-0.056228	0.316447
C311	C	0.834059	-0.000079	0.385592
C312	C	1.334059	0.499921	0.885592
N313	N	0.877381	-0.000081	0.366867
N314	N	1.377381	0.499919	0.866867
H315	H	0.742988	-0.159064	-0.003397
H316	H	1.242988	0.340936	0.496603
H317	H	0.817827	-0.000069	0.499797
H318	H	1.317827	0.499931	0.999797
C319	C	0.551589	-0.435061	-0.194686
C320	C	1.051589	0.064939	0.305314
N321	N	0.519320	-0.409421	-0.226952
N322	N	1.019320	0.090579	0.273048
