data_functionalizedCrystal
_audit_creation_method	'MofGen! by Chris Wilmer'
_symmetry_space_group_name_H-M	'P1'
_symmetry_Int_Tables_number	1
_symmetry_cell_setting	triclinic
loop_
_symmetry_equiv_pos_as_xyz
  x,y,z
_cell_length_a	12.811434
_cell_length_b	10.967926
_cell_length_c	10.065875
_cell_angle_alpha	86.879521
_cell_angle_beta	104.183716
_cell_angle_gamma	96.763162
loop_
_atom_site_label
_atom_site_type_symbol
_atom_site_fract_x
_atom_site_fract_y
_atom_site_fract_z
O1	O	-0.186058	1.610247	-0.288264
O2	O	0.313942	2.110247	0.211736
O3	O	-0.189104	1.260160	-0.206300
O4	O	0.310896	1.760160	0.293700
O5	O	-0.032644	1.446972	-0.230875
O6	O	0.467356	1.946972	0.269125
O7	O	-0.342518	1.423436	-0.263688
O8	O	0.157482	1.923436	0.236312
O9	O	-0.062605	1.411347	-0.453193
O10	O	0.437395	1.911347	0.046807
O11	O	-0.219065	1.224536	-0.428617
O12	O	0.280935	1.724536	0.071383
O13	O	-0.216018	1.574623	-0.510581
O14	O	0.283982	2.074623	-0.010581
Zn15	Zn	-0.222298	1.393923	-0.504897
Zn16	Zn	0.277702	1.893923	-0.004897
Zn17	Zn	-0.182824	1.440860	-0.211984
Zn18	Zn	0.317176	1.940860	0.288016
O19	O	-0.372478	1.387812	-0.486006
O20	O	0.127522	1.887812	0.013994
C21	C	-0.201599	1.197590	-0.306624
C22	C	0.298401	1.697590	0.193376
C23	C	-0.194180	1.064225	-0.274338
C24	C	0.305820	1.564225	0.225662
C25	C	-0.206393	0.986312	-0.375111
C26	C	0.293607	1.486312	0.124889
C27	C	-0.198726	0.848472	-0.341744
C28	C	0.301274	1.348472	0.158256
C29	C	-0.397280	1.405850	-0.379824
C30	C	0.102720	1.905850	0.120176
C31	C	-0.515818	1.406540	-0.394655
C32	C	-0.015818	1.906540	0.105345
C33	C	-0.705898	1.446699	-0.180134
C34	C	-0.205898	1.946699	0.319866
C35	C	-0.817274	1.447348	-0.194063
C36	C	-0.317274	1.947348	0.305937
C37	C	-0.849948	1.408496	-0.436444
C38	C	-0.349948	1.908496	0.063556
C39	C	-0.738572	1.407847	-0.422515
C40	C	-0.238572	1.907847	0.077485
C41	C	-0.666550	1.426947	-0.294355
C42	C	-0.166550	1.926947	0.205645
C43	C	-0.555173	1.426289	-0.280425
C44	C	-0.055173	1.926289	0.219575
C45	C	-0.587848	1.387446	-0.522807
C46	C	-0.087848	1.887446	-0.022807
C47	C	-0.699225	1.388095	-0.536736
C48	C	-0.199225	1.888095	-0.036736
C49	C	-0.007842	1.428934	-0.337054
C50	C	0.492158	1.928934	0.162946
C51	C	0.110697	1.428246	-0.322214
C52	C	0.610697	1.928246	0.177786
C53	C	-0.203523	1.637194	-0.410254
C54	C	0.296477	2.137194	0.089746
C55	C	-0.210941	1.770560	-0.442531
C56	C	0.289059	2.270560	0.057469
N57	N	-0.249238	1.361899	-0.704804
N58	N	0.250762	1.861899	-0.204804
C59	C	-0.192190	1.429710	-0.781472
C60	C	0.307810	1.929710	-0.281472
C61	C	-0.212932	1.405073	-0.935412
C62	C	0.287068	1.905073	-0.435412
N63	N	-0.155877	1.472894	-0.012078
N64	N	0.344123	1.972894	0.487922
H65	H	-0.182590	0.813136	-0.230759
H66	H	0.317410	1.313136	0.269241
Cl67	Cl	-0.789775	1.364087	-0.697843
Cl68	Cl	-0.289775	1.864087	-0.197843
Cl69	Cl	-0.615354	1.470691	-0.019020
Cl70	Cl	-0.115354	1.970691	0.480980
H71	H	-0.227070	0.805896	-0.553517
H72	H	0.272930	1.305896	-0.053517
H73	H	-0.555802	1.371354	-0.615813
H74	H	-0.055802	1.871354	-0.115813
Cl75	Cl	-0.169265	1.009671	-0.102990
Cl76	Cl	0.330735	1.509671	0.397010
H77	H	-0.496534	1.441834	-0.176069
H78	H	0.003466	1.941834	0.323931
Cl79	Cl	-0.231298	1.040868	-0.546457
Cl80	Cl	0.268702	1.540868	-0.046457
Cl81	Cl	-0.866735	1.472184	-0.050465
Cl82	Cl	-0.366735	1.972184	0.449535
H83	H	-0.908606	1.392958	-0.540789
H84	H	-0.408606	1.892958	-0.040789
H85	H	-0.127990	1.506002	-0.733147
H86	H	0.372010	2.006002	-0.233147
H87	H	-0.313430	1.285600	-0.753129
H88	H	0.186570	1.785600	-0.253129
H89	H	-0.091672	1.549190	-0.963756
H90	H	0.408328	2.049190	-0.463756
Cl91	Cl	-0.312048	1.287264	-1.010006
Cl92	Cl	0.187952	1.787264	-0.510006
