data_functionalizedCrystal
_audit_creation_method	'MofGen! by Chris Wilmer'
_symmetry_space_group_name_H-M	'P1'
_symmetry_Int_Tables_number	1
_symmetry_cell_setting	triclinic
loop_
_symmetry_equiv_pos_as_xyz
  x,y,z
_cell_length_a	16.974800
_cell_length_b	8.597304
_cell_length_c	7.681215
_cell_angle_alpha	76.002376
_cell_angle_beta	87.202882
_cell_angle_gamma	84.857181
loop_
_atom_site_label
_atom_site_type_symbol
_atom_site_fract_x
_atom_site_fract_y
_atom_site_fract_z
O1	O	1.051951	0.202370	-0.027162
O2	O	0.823651	0.231209	-0.064087
O3	O	0.940681	-0.014901	-0.010059
O4	O	0.934921	0.448480	-0.081190
O5	O	0.927020	-0.041554	0.284907
O6	O	0.809990	0.204555	0.230879
O7	O	1.038291	0.175717	0.267804
Zn8	Zn	0.921971	0.185905	0.296174
Zn9	Zn	0.939970	0.221021	-0.092457
O10	O	0.921260	0.421827	0.213776
C11	C	0.787543	0.217285	0.079313
C12	C	0.700307	0.215487	0.067148
C13	C	0.651881	0.200109	0.222223
C14	C	0.569915	0.198393	0.210802
C15	C	0.536375	0.212067	0.044301
C16	C	0.584807	0.227441	-0.110785
C17	C	0.666773	0.229145	-0.099360
C18	C	0.292033	0.208518	-0.007107
C19	C	0.210061	0.206818	-0.018521
C20	C	0.195174	0.177767	0.303068
C21	C	0.277141	0.179482	0.314476
C22	C	0.325567	0.194848	0.159391
N23	N	0.452591	0.210319	0.032622
N24	N	0.409349	0.196584	0.171074
C25	C	0.932471	-0.087491	0.146216
C26	C	0.928352	-0.264078	0.172412
C27	C	1.074398	0.189641	0.124401
C28	C	1.161635	0.191440	0.136554
C29	C	0.929470	0.494417	0.057497
C30	C	0.933590	0.671005	0.031290
N31	N	0.909693	0.161937	0.561406
N32	N	0.952254	0.244976	-0.357685
H33	H	0.679182	0.188987	0.357804
Cl34	Cl	0.842650	0.031072	0.687859
H35	H	0.995684	0.329728	0.560401
H36	H	0.941224	-0.249477	-0.109581
Cl37	Cl	0.542645	0.244573	-0.320093
Cl38	Cl	0.727652	0.248471	-0.294320
H39	H	0.304444	0.168340	0.450060
Cl40	Cl	0.509038	0.179090	0.405760
Cl41	Cl	0.167898	0.224014	-0.227853
Cl42	Cl	0.352900	0.227838	-0.202074
Cl43	Cl	0.134293	0.158444	0.498020
Cl44	Cl	0.916549	-0.386846	0.389922
