data_functionalizedCrystal
_audit_creation_method	'MofGen! by Chris Wilmer'
_symmetry_space_group_name_H-M	'P1'
_symmetry_Int_Tables_number	1
_symmetry_cell_setting	triclinic
loop_
_symmetry_equiv_pos_as_xyz
  x,y,z
_cell_length_a	14.971486
_cell_length_b	19.188930
_cell_length_c	13.448316
_cell_angle_alpha	90.011727
_cell_angle_beta	90.001801
_cell_angle_gamma	83.379455
loop_
_atom_site_label
_atom_site_type_symbol
_atom_site_fract_x
_atom_site_fract_y
_atom_site_fract_z
O1	O	1.186467	0.090988	0.082589
O2	O	0.926009	0.101884	0.082618
O3	O	1.063754	-0.005195	0.082583
O4	O	1.048722	0.198067	0.082624
O5	O	1.063737	-0.005202	-0.082801
O6	O	0.925992	0.101877	-0.082766
O7	O	1.186450	0.090981	-0.082795
Cu8	Cu	1.056219	0.096429	-0.097881
Cu9	Cu	1.056239	0.096437	0.097704
O10	O	1.048704	0.198061	-0.082760
C11	C	0.892678	0.101393	-0.000071
C12	C	0.793389	0.099933	-0.000061
C13	C	1.063259	-0.031211	-0.000112
C14	C	1.061797	-0.108721	-0.000120
C15	C	0.735831	0.162839	-0.000050
C16	C	0.642539	0.161463	-0.000065
C17	C	0.606806	0.097180	-0.000084
C18	C	0.664371	0.034269	-0.000098
C19	C	0.757662	0.035646	-0.000090
C20	C	0.469924	0.031403	-0.000112
C21	C	0.376627	0.030026	-0.000119
C22	C	0.354801	0.157221	-0.000087
C23	C	0.448092	0.158598	-0.000079
C24	C	0.505650	0.095686	-0.000091
C25	C	1.142622	-0.153384	-0.000134
C26	C	1.141249	-0.226213	-0.000118
C27	C	1.059047	-0.254374	-0.000108
C28	C	0.978212	-0.209700	-0.000089
C29	C	0.979587	-0.136874	-0.000095
N30	N	0.996208	-0.362583	-0.056384
N31	N	0.994907	-0.431766	-0.056381
C32	C	1.054899	-0.473796	-0.000087
N33	N	1.116254	-0.444030	0.056190
N34	N	1.117558	-0.374842	0.056182
C35	C	1.057547	-0.333341	-0.000101
C36	C	1.134240	-0.597429	-0.000082
C37	C	1.132864	-0.670258	-0.000060
C38	C	0.969825	-0.653744	-0.000041
C39	C	0.971203	-0.580916	-0.000053
C40	C	1.053413	-0.552763	-0.000078
C41	C	1.219780	0.091472	-0.000104
C42	C	1.319070	0.092932	-0.000107
C43	C	1.049200	0.224077	-0.000063
C44	C	1.050661	0.301586	-0.000048
N45	N	1.056211	0.096423	-0.235446
C46	C	1.117224	0.049028	-0.287501
C47	C	1.117229	0.049027	-0.391604
C48	C	1.056226	0.096426	-0.443650
C49	C	0.995207	0.143823	-0.391587
C50	C	0.995198	0.143820	-0.287486
C51	C	0.995232	0.143828	-0.608567
C52	C	0.995242	0.143832	-0.712676
C53	C	1.117263	0.049035	-0.712686
C54	C	1.117254	0.049032	-0.608585
C55	C	1.056236	0.096430	-0.556529
N56	N	1.056254	0.096437	0.235268
H57	H	0.764917	0.215186	-0.000034
F58	F	1.182203	-0.001409	-0.768091
H59	H	1.166909	0.010434	-0.433988
H60	H	0.516786	-0.019826	-0.000124
F61	F	0.581285	0.228417	-0.000049
H62	H	0.905387	-0.544550	-0.000048
F63	F	0.930312	0.194280	-0.768060
F64	F	0.930286	0.194274	-0.553170
H65	H	0.945533	0.182414	-0.433969
H66	H	1.166931	0.010440	-0.566209
F67	F	0.486119	0.227015	-0.000049
F68	F	0.930258	0.194263	-0.232086
H69	H	0.347537	-0.022319	-0.000135
F70	F	0.293543	0.224176	-0.000076
F71	F	0.626339	-0.034147	-0.000125
F72	F	0.818919	-0.031308	-0.000106
H73	H	1.209564	-0.130467	-0.000151
H74	H	0.911283	-0.232634	-0.000079
F75	F	1.227277	-0.273756	-0.000130
F76	F	1.182157	-0.001418	-0.232120
H77	H	1.201180	-0.574506	-0.000098
H78	H	1.198683	-0.706623	-0.000065
F79	F	0.893559	-0.089337	-0.000080
H80	H	0.902894	-0.676672	-0.000028
