data_functionalizedCrystal
_audit_creation_method	'MofGen! by Chris Wilmer'
_symmetry_space_group_name_H-M	'P1'
_symmetry_Int_Tables_number	1
_symmetry_cell_setting	triclinic
loop_
_symmetry_equiv_pos_as_xyz
  x,y,z
_cell_length_a	23.532407
_cell_length_b	23.532407
_cell_length_c	9.130307
_cell_angle_alpha	89.992076
_cell_angle_beta	90.003827
_cell_angle_gamma	82.848678
loop_
_atom_site_label
_atom_site_type_symbol
_atom_site_fract_x
_atom_site_fract_y
_atom_site_fract_z
O1	O	0.755257	0.069134	-0.121631
O2	O	1.005257	0.319134	0.128369
O3	O	1.255257	0.569134	0.378369
O4	O	1.505257	0.819134	0.628369
O5	O	0.589394	0.079137	-0.121676
O6	O	0.839394	0.329137	0.128324
O7	O	1.089394	0.579137	0.378324
O8	O	1.339394	0.829137	0.628324
O9	O	0.677327	-0.008796	-0.121626
O10	O	0.927327	0.241204	0.128374
O11	O	1.177327	0.491204	0.378374
O12	O	1.427327	0.741204	0.628374
O13	O	0.667324	0.157067	-0.121682
O14	O	0.917324	0.407067	0.128318
O15	O	1.167324	0.657067	0.378318
O16	O	1.417324	0.907067	0.628318
O17	O	0.677324	-0.008797	0.121973
O18	O	0.927324	0.241203	0.371973
O19	O	1.177324	0.491203	0.621973
O20	O	1.427324	0.741203	0.871973
O21	O	0.589391	0.079136	0.121923
O22	O	0.839391	0.329136	0.371923
O23	O	1.089391	0.579136	0.621923
O24	O	1.339391	0.829136	0.871923
O25	O	0.755254	0.069133	0.121968
O26	O	1.005254	0.319133	0.371968
O27	O	1.255254	0.569133	0.621968
O28	O	1.505254	0.819133	0.871968
Cu29	Cu	0.672322	0.074135	0.144188
Cu30	Cu	0.922322	0.324135	0.394188
Cu31	Cu	1.172322	0.574135	0.644188
Cu32	Cu	1.422322	0.824135	0.894188
Cu33	Cu	0.672326	0.074136	-0.143896
Cu34	Cu	0.922326	0.324136	0.106104
Cu35	Cu	1.172326	0.574136	0.356104
Cu36	Cu	1.422326	0.824136	0.606104
O37	O	0.667321	0.157066	0.121917
O38	O	0.917321	0.407066	0.371917
O39	O	1.167321	0.657066	0.621917
O40	O	1.417321	0.907066	0.871917
C41	C	0.568176	0.078882	0.000118
C42	C	0.818176	0.328882	0.250118
C43	C	1.068176	0.578882	0.500118
C44	C	1.318176	0.828882	0.750118
C45	C	0.504959	0.078116	0.000102
C46	C	0.754959	0.328116	0.250102
C47	C	1.004959	0.578116	0.500102
C48	C	1.254959	0.828116	0.750102
C49	C	0.677071	-0.030013	0.000177
C50	C	0.927071	0.219987	0.250177
C51	C	1.177071	0.469987	0.500177
C52	C	1.427071	0.719987	0.750177
C53	C	0.676305	-0.093230	0.000189
C54	C	0.926305	0.156770	0.250189
C55	C	1.176305	0.406770	0.500189
C56	C	1.426305	0.656770	0.750189
C57	C	0.105856	0.125350	0.000152
C58	C	0.355856	0.375350	0.250152
C59	C	0.605856	0.625350	0.500152
C60	C	0.855856	0.875350	0.750152
C61	C	0.046456	0.124638	0.000161
C62	C	0.296456	0.374638	0.250161
C63	C	0.546456	0.624638	0.500161
C64	C	0.796456	0.874638	0.750161
O65	O	0.009711	0.168424	0.000199
O66	O	0.259711	0.418424	0.250199
O67	O	0.509711	0.668424	0.500199
O68	O	0.759711	0.918424	0.750199
N69	N	0.023830	0.072362	0.000176
N70	N	0.273830	0.322362	0.250176
N71	N	0.523830	0.572362	0.500176
N72	N	0.773830	0.822362	0.750176
C73	C	0.060607	0.020794	0.000197
C74	C	0.310607	0.270794	0.250197
C75	C	0.560607	0.520794	0.500197
C76	C	0.810607	0.770794	0.750197
O77	O	0.035908	-0.023737	0.000213
O78	O	0.285908	0.226263	0.250213
O79	O	0.535908	0.476263	0.500213
O80	O	0.785908	0.726263	0.750213
C81	C	0.120006	0.021506	0.000199
C82	C	0.370006	0.271506	0.250199
C83	C	0.620006	0.521506	0.500199
C84	C	0.870006	0.771506	0.750199
C85	C	0.142629	0.073785	0.000169
C86	C	0.392629	0.323785	0.250169
C87	C	0.642629	0.573785	0.500169
C88	C	0.892629	0.823785	0.750169
C89	C	0.128479	0.177625	0.000123
C90	C	0.378479	0.427625	0.250123
C91	C	0.628479	0.677625	0.500123
C92	C	0.878479	0.927625	0.750123
C93	C	0.187876	0.178336	0.000111
C94	C	0.437876	0.428336	0.250111
C95	C	0.687876	0.678336	0.500111
C96	C	0.937876	0.928336	0.750111
C97	C	0.224649	0.126772	0.000128
C98	C	0.474649	0.376772	0.250128
C99	C	0.724649	0.626772	0.500128
C100	C	0.974649	0.876772	0.750128
C101	C	0.202025	0.074496	0.000157
C102	C	0.452025	0.324496	0.250157
C103	C	0.702025	0.574496	0.500157
C104	C	0.952025	0.824496	0.750157
C105	C	0.156783	-0.030062	0.000230
C106	C	0.406783	0.219938	0.250230
C107	C	0.656783	0.469938	0.500230
C108	C	0.906783	0.719938	0.750230
C109	C	0.216185	-0.029345	0.000233
C110	C	0.466185	0.220655	0.250233
C111	C	0.716185	0.470655	0.500233
C112	C	0.966185	0.720655	0.750233
C113	C	0.238808	0.022934	0.000202
C114	C	0.488808	0.272934	0.250202
C115	C	0.738808	0.522934	0.500202
C116	C	0.988808	0.772934	0.750202
C117	C	0.298194	0.023643	0.000161
C118	C	0.548194	0.273643	0.250161
C119	C	0.798194	0.523643	0.500161
C120	C	1.048194	0.773643	0.750161
N121	N	0.320820	0.075920	0.000146
N122	N	0.570820	0.325920	0.250146
N123	N	0.820820	0.575920	0.500146
N124	N	1.070820	0.825920	0.750146
C125	C	0.284048	0.127484	0.000129
C126	C	0.534048	0.377484	0.250129
C127	C	0.784048	0.627484	0.500129
C128	C	1.034048	0.877484	0.750129
C129	C	-0.064135	0.019302	0.000197
C130	C	0.185865	0.269302	0.250197
C131	C	0.435865	0.519302	0.500197
C132	C	0.685865	0.769302	0.750197
C133	C	-0.123533	0.018589	0.000186
C134	C	0.126467	0.268589	0.250186
C135	C	0.376467	0.518589	0.500186
C136	C	0.626467	0.768589	0.750186
C137	C	-0.137680	0.122434	0.000152
C138	C	0.112320	0.372434	0.250152
C139	C	0.362320	0.622434	0.500152
C140	C	0.612320	0.872434	0.750152
C141	C	-0.078281	0.123146	0.000153
C142	C	0.171719	0.373146	0.250153
C143	C	0.421719	0.623146	0.500153
C144	C	0.671719	0.873146	0.750153
C145	C	-0.041509	0.071578	0.000182
C146	C	0.208491	0.321578	0.250182
C147	C	0.458491	0.571578	0.500182
C148	C	0.708491	0.821578	0.750182
C149	C	0.408784	0.128974	0.000103
C150	C	0.658784	0.378974	0.250103
C151	C	0.908784	0.628974	0.500103
C152	C	1.158784	0.878974	0.750103
C153	C	0.468186	0.129680	0.000085
C154	C	0.718186	0.379680	0.250085
C155	C	0.968186	0.629680	0.500085
C156	C	1.218186	0.879680	0.750085
C157	C	0.482329	0.025836	0.000126
C158	C	0.732329	0.275836	0.250126
C159	C	0.982329	0.525836	0.500126
C160	C	1.232329	0.775836	0.750126
C161	C	0.422932	0.025129	0.000137
C162	C	0.672932	0.275129	0.250137
C163	C	0.922932	0.525129	0.500137
C164	C	1.172932	0.775129	0.750137
C165	C	0.386160	0.076702	0.000130
C166	C	0.636160	0.326702	0.250130
C167	C	0.886160	0.576702	0.500130
C168	C	1.136160	0.826702	0.750130
O169	O	0.334974	-0.020119	0.000129
O170	O	0.584974	0.229881	0.250129
O171	O	0.834974	0.479881	0.500129
O172	O	1.084974	0.729881	0.750129
O173	O	0.308755	0.172007	0.000133
O174	O	0.558755	0.422007	0.250133
O175	O	0.808755	0.672007	0.500133
O176	O	1.058755	0.922007	0.750133
C177	C	0.723539	-0.492333	0.000121
C178	C	0.973539	-0.242333	0.250121
C179	C	1.223539	0.007667	0.500121
C180	C	1.473539	0.257667	0.750121
C181	C	0.722827	-0.551733	0.000110
C182	C	0.972827	-0.301733	0.250110
C183	C	1.222827	-0.051733	0.500110
C184	C	1.472827	0.198267	0.750110
O185	O	0.766613	-0.588478	0.000068
O186	O	1.016613	-0.338478	0.250068
O187	O	1.266613	-0.088478	0.500068
O188	O	1.516613	0.161522	0.750068
N189	N	0.670551	-0.574359	0.000097
N190	N	0.920551	-0.324359	0.250097
N191	N	1.170551	-0.074359	0.500097
N192	N	1.420551	0.175641	0.750097
C193	C	0.618983	-0.537582	0.000080
C194	C	0.868983	-0.287582	0.250080
C195	C	1.118983	-0.037582	0.500080
C196	C	1.368983	0.212418	0.750080
O197	O	0.574452	-0.562281	0.000066
O198	O	0.824452	-0.312281	0.250066
O199	O	1.074452	-0.062281	0.500066
O200	O	1.324452	0.187719	0.750066
C201	C	0.619695	-0.478182	0.000081
C202	C	0.869695	-0.228182	0.250081
C203	C	1.119695	0.021818	0.500081
C204	C	1.369695	0.271818	0.750081
C205	C	0.671974	-0.455560	0.000109
C206	C	0.921974	-0.205560	0.250109
C207	C	1.171974	0.044440	0.500109
C208	C	1.421974	0.294440	0.750109
C209	C	0.775814	-0.469710	0.000147
C210	C	1.025814	-0.219710	0.250147
C211	C	1.275814	0.030290	0.500147
C212	C	1.525814	0.280290	0.750147
C213	C	0.776525	-0.410313	0.000161
C214	C	1.026525	-0.160313	0.250161
C215	C	1.276525	0.089687	0.500161
C216	C	1.526525	0.339687	0.750161
C217	C	0.724961	-0.373540	0.000149
C218	C	0.974961	-0.123540	0.250149
C219	C	1.224961	0.126460	0.500149
C220	C	1.474961	0.376460	0.750149
C221	C	0.672685	-0.396164	0.000123
C222	C	0.922685	-0.146164	0.250123
C223	C	1.172685	0.103836	0.500123
C224	C	1.422685	0.353836	0.750123
C225	C	0.568127	-0.441406	0.000053
C226	C	0.818127	-0.191406	0.250053
C227	C	1.068127	0.058594	0.500053
C228	C	1.318127	0.308594	0.750053
C229	C	0.568844	-0.382004	0.000053
C230	C	0.818844	-0.132004	0.250053
C231	C	1.068844	0.117996	0.500053
C232	C	1.318844	0.367996	0.750053
C233	C	0.621123	-0.359381	0.000081
C234	C	0.871123	-0.109381	0.250081
C235	C	1.121123	0.140619	0.500081
C236	C	1.371123	0.390619	0.750081
C237	C	0.621832	-0.299995	0.000124
C238	C	0.871832	-0.049995	0.250124
C239	C	1.121832	0.200005	0.500124
C240	C	1.371832	0.450005	0.750124
N241	N	0.674109	-0.277368	0.000138
N242	N	0.924109	-0.027368	0.250138
N243	N	1.174109	0.222632	0.500138
N244	N	1.424109	0.472632	0.750138
C245	C	0.725673	-0.314141	0.000150
C246	C	0.975673	-0.064141	0.250150
C247	C	1.225673	0.185859	0.500150
C248	C	1.475673	0.435859	0.750150
C249	C	0.617491	-0.662324	0.000076
C250	C	0.867491	-0.412324	0.250076
C251	C	1.117491	-0.162324	0.500076
C252	C	1.367491	0.087676	0.750076
C253	C	0.616778	-0.721722	0.000085
C254	C	0.866778	-0.471722	0.250085
C255	C	1.116778	-0.221722	0.500085
C256	C	1.366778	0.028278	0.750085
C257	C	0.720623	-0.735869	0.000112
C258	C	0.970623	-0.485869	0.250112
C259	C	1.220623	-0.235869	0.500112
C260	C	1.470623	0.014131	0.750112
C261	C	0.721335	-0.676470	0.000113
C262	C	0.971335	-0.426470	0.250113
C263	C	1.221335	-0.176470	0.500113
C264	C	1.471335	0.073530	0.750113
C265	C	0.669767	-0.639698	0.000089
C266	C	0.919767	-0.389698	0.250089
C267	C	1.169767	-0.139698	0.500089
C268	C	1.419767	0.110302	0.750089
C269	C	0.727163	-0.189405	0.000181
C270	C	0.977163	0.060595	0.250181
C271	C	1.227163	0.310595	0.500181
C272	C	1.477163	0.560595	0.750181
C273	C	0.727869	-0.130003	0.000201
C274	C	0.977869	0.119997	0.250201
C275	C	1.227869	0.369997	0.500201
C276	C	1.477869	0.619997	0.750201
C277	C	0.624025	-0.115860	0.000166
C278	C	0.874025	0.134140	0.250166
C279	C	1.124025	0.384140	0.500166
C280	C	1.374025	0.634140	0.750166
C281	C	0.623318	-0.175257	0.000154
C282	C	0.873318	0.074743	0.250154
C283	C	1.123318	0.324743	0.500154
C284	C	1.373318	0.574743	0.750154
C285	C	0.674891	-0.212029	0.000156
C286	C	0.924891	0.037971	0.250156
C287	C	1.174891	0.287971	0.500156
C288	C	1.424891	0.537971	0.750156
O289	O	0.578070	-0.263215	0.000161
O290	O	0.828070	-0.013215	0.250161
O291	O	1.078070	0.236785	0.500161
O292	O	1.328070	0.486785	0.750161
O293	O	0.770196	-0.289433	0.000144
O294	O	1.020196	-0.039433	0.250144
O295	O	1.270196	0.210567	0.500144
O296	O	1.520196	0.460567	0.750144
C297	C	0.776472	0.069388	0.000170
C298	C	1.026472	0.319388	0.250170
C299	C	1.276472	0.569388	0.500170
C300	C	1.526472	0.819388	0.750170
C301	C	0.839689	0.070154	0.000177
C302	C	1.089689	0.320154	0.250177
C303	C	1.339689	0.570154	0.500177
C304	C	1.589689	0.820154	0.750177
C305	C	0.667577	0.178283	0.000110
C306	C	0.917577	0.428283	0.250110
C307	C	1.167577	0.678283	0.500110
C308	C	1.417577	0.928283	0.750110
C309	C	0.668343	0.241500	0.000090
C310	C	0.918343	0.491500	0.250090
C311	C	1.168343	0.741500	0.500090
C312	C	1.418343	0.991500	0.750090
N313	N	0.672324	0.074134	0.346810
N314	N	0.922324	0.324134	0.596810
N315	N	1.172324	0.574134	0.846810
N316	N	1.422324	0.824134	1.096810
N317	N	0.672328	0.074132	-0.346519
N318	N	0.922328	0.324132	-0.096519
N319	N	1.172328	0.574132	0.153481
N320	N	1.422328	0.824132	0.403481
C321	C	0.750220	-0.003709	0.346845
C322	C	1.000220	0.246291	0.596845
C323	C	1.250220	0.496291	0.846845
C324	C	1.500220	0.746291	1.096845
C325	C	0.789172	-0.042629	0.423530
C326	C	1.039172	0.207371	0.673530
C327	C	1.289172	0.457371	0.923530
C328	C	1.539172	0.707371	1.173530
C329	C	0.789178	-0.042630	0.576863
C330	C	1.039178	0.207370	0.826863
C331	C	1.289178	0.457370	1.076863
C332	C	1.539178	0.707370	1.326863
C333	C	0.750226	-0.003707	0.653516
C334	C	1.000226	0.246293	0.903516
C335	C	1.250226	0.496293	1.153516
C336	C	1.500226	0.746293	1.403516
C337	C	0.711275	0.035213	0.576832
C338	C	0.961275	0.285213	0.826832
C339	C	1.211275	0.535213	1.076832
C340	C	1.461275	0.785213	1.326832
C341	C	0.711274	0.035210	0.423495
C342	C	0.961274	0.285210	0.673495
C343	C	1.211274	0.535210	0.923495
C344	C	1.461274	0.785210	1.173495
C345	C	0.633377	0.113052	0.576797
C346	C	0.883377	0.363052	0.826797
C347	C	1.133377	0.613052	1.076797
C348	C	1.383377	0.863052	1.326797
C349	C	0.633373	0.113056	0.423463
C350	C	0.883373	0.363056	0.673463
C351	C	1.133373	0.613056	0.923463
C352	C	1.383373	0.863056	1.173463
C353	C	0.594425	0.151974	0.653449
C354	C	0.844425	0.401974	0.903449
C355	C	1.094425	0.651974	1.153449
C356	C	1.344425	0.901974	1.403449
C357	C	0.555475	0.190898	0.576765
C358	C	0.805475	0.440898	0.826765
C359	C	1.055475	0.690898	1.076765
C360	C	1.305475	0.940898	1.326765
C361	C	0.555471	0.190897	0.423422
C362	C	0.805471	0.440897	0.673422
C363	C	1.055471	0.690897	0.923422
C364	C	1.305471	0.940897	1.173422
C365	C	0.594421	0.151976	0.346779
C366	C	0.844421	0.401976	0.596779
C367	C	1.094421	0.651976	0.846779
C368	C	1.344421	0.901976	1.096779
H369	H	0.486602	0.172255	0.000060
H370	H	0.736602	0.422255	0.250060
H371	H	0.986602	0.672255	0.500060
H372	H	1.236602	0.922255	0.750060
H373	H	0.526850	-0.352066	0.000031
H374	H	0.776850	-0.102066	0.250031
H375	H	1.026850	0.147934	0.500031
H376	H	1.276850	0.397934	0.750031
H377	H	-0.034198	-0.022693	0.000208
H378	H	0.215802	0.227307	0.250208
H379	H	0.465802	0.477307	0.500208
H380	H	0.715802	0.727307	0.750208
H381	H	0.206289	0.220908	0.000086
H382	H	0.456289	0.470908	0.250086
H383	H	0.706289	0.720908	0.500086
H384	H	0.956289	0.970908	0.750086
H385	H	0.770444	-0.111587	0.000227
H386	H	1.020444	0.138413	0.250227
H387	H	1.270444	0.388413	0.500227
H388	H	1.520444	0.638413	0.750227
H389	H	-0.059867	0.165717	0.000137
H390	H	0.190133	0.415717	0.250137
H391	H	0.440133	0.665717	0.500137
H392	H	0.690133	0.915717	0.750137
H393	H	0.098544	0.219617	0.000115
H394	H	0.348544	0.469617	0.250115
H395	H	0.598544	0.719617	0.500115
H396	H	0.848544	0.969617	0.750115
H397	H	0.580748	-0.193677	0.000172
H398	H	0.830748	0.056323	0.250172
H399	H	1.080748	0.306323	0.500172
H400	H	1.330748	0.556323	0.750172
H401	H	0.404512	-0.017441	0.000140
H402	H	0.654512	0.232559	0.250140
H403	H	0.904512	0.482559	0.500140
H404	H	1.154512	0.732559	0.750140
H405	H	0.574207	-0.740136	0.000088
H406	H	0.824207	-0.490136	0.250088
H407	H	1.074207	-0.240136	0.500088
H408	H	1.324207	0.009864	0.750088
H409	H	0.525555	-0.459814	0.000022
H410	H	0.775555	-0.209814	0.250022
H411	H	1.025555	0.040186	0.500022
H412	H	1.275555	0.290186	0.750022
H413	H	0.594429	0.151970	0.778302
H414	H	0.844429	0.401970	1.028302
H415	H	1.094429	0.651970	1.278302
H416	H	1.344429	0.901970	1.528302
H417	H	0.769159	-0.219337	0.000177
H418	H	1.019159	0.030663	0.250177
H419	H	1.269159	0.280663	0.500177
H420	H	1.519159	0.530663	0.750177
H421	H	-0.167632	0.164421	0.000145
H422	H	0.082368	0.414421	0.250145
H423	H	0.332368	0.664421	0.500145
H424	H	0.582368	0.914421	0.750145
H425	H	0.820885	-0.074321	0.361106
H426	H	1.070885	0.175679	0.611106
H427	H	1.320885	0.425679	0.861106
H428	H	1.570885	0.675679	1.111106
H429	H	0.820894	-0.074323	0.639299
H430	H	1.070894	0.175677	0.889299
H431	H	1.320894	0.425677	1.139299
H432	H	1.570894	0.675677	1.389299
H433	H	0.582043	-0.085909	0.000161
H434	H	0.832043	0.164091	0.250161
H435	H	1.082043	0.414091	0.500161
H436	H	1.332043	0.664091	0.750161
H437	H	0.378852	0.170970	0.000102
H438	H	0.628852	0.420970	0.250102
H439	H	0.878852	0.670970	0.500102
H440	H	1.128852	0.920970	0.750102
H441	H	0.817806	-0.499645	0.000152
H442	H	1.067806	-0.249645	0.250152
H443	H	1.317806	0.000355	0.500152
H444	H	1.567806	0.250355	0.750152
H445	H	0.523761	0.222583	0.639185
H446	H	0.773761	0.472583	0.889185
H447	H	1.023761	0.722583	1.139185
H448	H	1.273761	0.972583	1.389185
H449	H	-0.141947	-0.023982	0.000187
H450	H	0.108053	0.226018	0.250187
H451	H	0.358053	0.476018	0.500187
H452	H	0.608053	0.726018	0.750187
H453	H	0.138375	-0.072634	0.000256
H454	H	0.388375	0.177366	0.250256
H455	H	0.638375	0.427366	0.500256
H456	H	0.888375	0.677366	0.750256
H457	H	0.523750	0.222588	0.360994
H458	H	0.773750	0.472588	0.610994
H459	H	1.023750	0.722588	0.860994
H460	H	1.273750	0.972588	1.110994
H461	H	0.750229	-0.003715	0.778368
H462	H	1.000229	0.246285	1.028368
H463	H	1.250229	0.496285	1.278368
H464	H	1.500229	0.746285	1.528368
H465	H	0.594423	0.151974	0.221927
H466	H	0.844423	0.401974	0.471927
H467	H	1.094423	0.651974	0.721927
H468	H	1.344423	0.901974	0.971927
H469	H	0.246123	-0.071339	0.000257
H470	H	0.496123	0.178661	0.250257
H471	H	0.746123	0.428661	0.500257
H472	H	0.996123	0.678661	0.750257
H473	H	0.512280	-0.016146	0.000134
H474	H	0.762280	0.233854	0.250134
H475	H	1.012280	0.483854	0.500134
H476	H	1.262280	0.733854	0.750134
H477	H	0.750224	-0.003708	0.221993
H478	H	1.000224	0.246292	0.471993
H479	H	1.250224	0.496292	0.721993
H480	H	1.500224	0.746292	0.971993
H481	H	0.819097	-0.391900	0.000178
H482	H	1.069097	-0.141900	0.250178
H483	H	1.319097	0.108100	0.500178
H484	H	1.569097	0.358100	0.750178
H485	H	0.763906	-0.658056	0.000135
H486	H	1.013906	-0.408056	0.250135
H487	H	1.263906	-0.158056	0.500135
H488	H	1.513906	0.091944	0.750135
H489	H	0.762610	-0.765821	0.000117
H490	H	1.012610	-0.515821	0.250117
H491	H	1.262610	-0.265821	0.500117
H492	H	1.512610	-0.015821	0.750117
H493	H	0.575496	-0.632386	0.000068
H494	H	0.825496	-0.382386	0.250068
H495	H	1.075496	-0.132386	0.500068
H496	H	1.325496	0.117614	0.750068
