data_functionalizedCrystal
_audit_creation_method	'MofGen! by Chris Wilmer'
_symmetry_space_group_name_H-M	'P1'
_symmetry_Int_Tables_number	1
_symmetry_cell_setting	triclinic
loop_
_symmetry_equiv_pos_as_xyz
  x,y,z
_cell_length_a	12.759401
_cell_length_b	12.645330
_cell_length_c	12.645323
_cell_angle_alpha	89.973156
_cell_angle_beta	89.980205
_cell_angle_gamma	90.019217
loop_
_atom_site_label
_atom_site_type_symbol
_atom_site_fract_x
_atom_site_fract_y
_atom_site_fract_z
Zn1	Zn	1.606233	-0.421967	-0.599390
Zn2	Zn	1.606118	-0.599261	-0.422130
Zn3	Zn	1.430535	-0.422017	-0.422140
Zn4	Zn	1.430514	-0.599194	-0.599351
O5	O	1.518350	-0.510610	-0.510753
O6	O	1.753238	-0.445493	-0.575888
O7	O	1.582787	-0.575799	-0.273784
O8	O	1.453898	-0.273663	-0.445673
O9	O	1.753154	-0.575750	-0.445655
O10	O	1.582983	-0.273627	-0.575898
O11	O	1.453787	-0.445578	-0.273792
O12	O	1.283511	-0.445513	-0.445636
O13	O	1.453863	-0.575635	-0.747704
O14	O	1.283496	-0.575684	-0.575832
O15	O	1.582962	-0.445428	-0.747732
O16	O	1.582767	-0.747600	-0.445618
O17	O	1.453752	-0.747550	-0.575822
C18	C	1.245383	-0.510597	-0.510732
C19	C	1.128606	-0.510617	-0.510748
C20	C	1.073764	-0.578500	-0.578434
C21	C	0.964040	-0.578504	-0.578455
C22	C	0.964010	-0.442739	-0.443094
C23	C	1.073732	-0.442730	-0.443080
C24	C	1.518273	-0.786040	-0.510738
C25	C	1.518337	-0.903870	-0.510767
C26	C	1.437508	-1.071446	-0.592931
C27	C	1.437094	-0.948887	-0.592667
C28	C	1.488363	-0.948468	-0.399046
C29	C	1.487870	-1.071067	-0.399545
C30	C	1.629633	-1.070955	-0.539418
C31	C	1.628951	-0.948348	-0.541861
C32	C	1.792383	-0.510624	-0.510775
C33	C	1.909160	-0.510629	-0.510784
C34	C	1.518423	-0.510518	-0.787258
C35	C	1.518454	-0.510479	-0.905088
C36	C	1.518456	-0.234105	-0.510791
C37	C	1.518501	-0.116274	-0.510807
C38	C	1.437243	-0.592376	-0.949953
C39	C	1.436957	-0.592068	-1.072513
C40	C	1.488852	-0.398582	-1.072992
C41	C	1.488230	-0.399122	-0.950393
C42	C	1.629541	-0.539364	-0.950275
C43	C	1.628978	-0.541762	-1.072882
C44	C	1.518338	-0.510624	-0.235323
C45	C	1.518510	-0.510365	-0.117494
H46	H	1.455847	-0.918730	-0.675507
Cl47	Cl	1.142682	-0.357377	-0.357988
Cl48	Cl	1.722802	-1.115732	-0.447088
H49	H	1.354706	-0.919655	-0.573712
H50	H	0.919318	-0.387470	-0.388000
H51	H	1.408571	-0.373687	-1.103696
H52	H	1.456089	-1.100855	-0.676043
Cl53	Cl	1.311103	-1.119181	-0.564064
H54	H	1.406631	-1.099761	-0.375307
Cl55	Cl	1.722957	-0.447279	-0.905474
H56	H	0.919392	-0.633780	-0.633574
H57	H	1.544302	-1.100725	-0.336270
H58	H	1.545484	-0.919311	-0.336186
H59	H	1.407971	-0.917860	-0.374370
H60	H	1.656975	-1.101795	-0.619500
H61	H	1.651555	-0.919194	-0.624082
H62	H	1.692473	-0.917698	-0.486402
Cl63	Cl	1.310876	-0.563172	-0.902399
Cl64	Cl	1.309887	-0.562496	-1.117802
H65	H	1.656592	-0.619527	-0.919359
Cl66	Cl	1.465535	-0.720028	-1.118973
H67	H	1.455524	-0.675547	-0.920476
Cl68	Cl	1.575613	-0.301668	-0.904565
Cl69	Cl	1.362881	-0.361391	-0.906239
Cl70	Cl	1.577399	-0.301739	-1.117971
Cl71	Cl	1.663520	-0.668777	-1.117787
H72	H	1.118439	-0.633775	-0.633537
Cl73	Cl	1.727381	-0.456381	-1.120153
