data_functionalizedCrystal
_audit_creation_method	'MofGen! by Chris Wilmer'
_symmetry_space_group_name_H-M	'P1'
_symmetry_Int_Tables_number	1
_symmetry_cell_setting	triclinic
loop_
_symmetry_equiv_pos_as_xyz
  x,y,z
_cell_length_a	10.968094
_cell_length_b	10.967829
_cell_length_c	16.176319
_cell_angle_alpha	77.865348
_cell_angle_beta	102.120057
_cell_angle_gamma	87.247546
loop_
_atom_site_label
_atom_site_type_symbol
_atom_site_fract_x
_atom_site_fract_y
_atom_site_fract_z
O1	O	1.657112	0.174980	0.142377
O2	O	2.157112	0.674980	0.642377
O3	O	1.293979	0.191745	0.088260
O4	O	1.793979	0.691745	0.588260
O5	O	1.483917	0.001782	0.142382
O6	O	1.983917	0.501782	0.642382
O7	O	1.467174	0.364943	0.088255
O8	O	1.967174	0.864943	0.588255
O9	O	1.483891	0.001770	0.279873
O10	O	1.983891	0.501770	0.779873
O11	O	1.293952	0.191733	0.225751
O12	O	1.793952	0.691733	0.725751
O13	O	1.657085	0.174967	0.279868
O14	O	2.157085	0.674967	0.779868
Cu15	Cu	1.475516	0.183349	0.265364
Cu16	Cu	1.975516	0.683349	0.765364
Cu17	Cu	1.475548	0.183364	0.102764
Cu18	Cu	1.975548	0.683364	0.602764
O19	O	1.467147	0.364930	0.225746
O20	O	1.967147	0.864930	0.725746
C21	C	1.247468	0.190521	0.150556
C22	C	1.747468	0.690521	0.650556
C23	C	1.108921	0.186878	0.131338
C24	C	1.608921	0.686878	0.631338
C25	C	0.903936	0.181469	0.174130
C26	C	1.403936	0.681469	0.674130
C27	C	1.047131	0.185243	0.193999
C28	C	1.547131	0.685243	0.693999
C29	C	1.482684	-0.044725	0.217577
C30	C	1.982684	0.455275	0.717577
C31	C	1.479033	-0.183282	0.236793
C32	C	1.979033	0.316718	0.736793
C33	C	1.477419	-0.245042	0.174135
C34	C	1.977419	0.254958	0.674135
C35	C	1.473645	-0.388248	0.193994
C36	C	1.973645	0.111752	0.693994
C37	C	1.703596	0.176191	0.217571
C38	C	2.203596	0.676191	0.717571
C39	C	1.842143	0.179834	0.236782
C40	C	2.342143	0.679834	0.736782
C41	C	1.468381	0.411437	0.150549
C42	C	1.968381	0.911437	0.650549
C43	C	1.472032	0.549994	0.131327
C44	C	1.972032	1.049994	0.631327
N45	N	1.475504	0.183338	0.379729
N46	N	1.975504	0.683338	0.879729
N47	N	1.475571	0.183365	-0.011598
N48	N	1.975571	0.683365	0.488402
C49	C	1.559634	0.099257	0.446957
C50	C	2.059634	0.599257	0.946957
C51	C	1.559640	0.099256	0.533505
C52	C	2.059640	0.599256	1.033505
C53	C	1.475521	0.183342	0.552823
C54	C	1.975521	0.683342	1.052823
C55	C	1.391382	0.267427	0.485587
C56	C	1.891382	0.767427	0.985587
C57	C	1.391370	0.267421	0.399041
C58	C	1.891370	0.767421	0.899041
C59	C	1.391425	0.267451	0.834618
C60	C	1.891425	0.767451	1.334618
C61	C	1.391445	0.267453	0.921172
C62	C	1.891445	0.767453	1.421172
C63	C	1.559695	0.099285	0.969082
C64	C	2.059695	0.599285	1.469082
C65	C	1.559683	0.099280	0.882536
C66	C	2.059683	0.599280	1.382536
C67	C	1.475540	0.183359	0.815307
C68	C	1.975540	0.683359	1.315307
C69	C	1.475533	0.183358	0.721462
C70	C	1.975533	0.683358	1.221462
C71	C	1.475534	0.183350	0.646666
C72	C	1.975534	0.683350	1.146666
H73	H	1.055820	0.185485	0.062986
H74	H	1.555820	0.685485	0.562986
H75	H	1.100235	0.186632	0.262352
H76	H	1.600235	0.686632	0.762352
C77	C	1.652173	0.006753	0.425717
C78	C	2.152173	0.506753	0.925717
N79	N	1.721872	-0.062928	0.409723
N80	N	2.221872	0.437072	0.909723
H81	H	1.478825	-0.191898	0.105788
H82	H	1.978825	0.308102	0.605788
C83	C	0.913881	0.181739	0.329116
C84	C	1.413881	0.681739	0.829116
N85	N	0.967910	0.183183	0.398663
N86	N	1.467910	0.683183	0.898663
C87	C	1.471735	-0.460033	0.286334
C88	C	1.971735	0.039967	0.786334
N89	N	1.470297	-0.514102	0.355882
N90	N	1.970297	-0.014102	0.855882
C91	C	1.477122	-0.255071	0.329128
C92	C	1.977122	0.244929	0.829128
N93	N	1.475684	-0.309141	0.398677
N94	N	1.975684	0.190859	0.898677
H95	H	1.628145	0.030790	0.588243
H96	H	2.128145	0.530790	1.088243
H97	H	1.628185	0.030813	0.866812
H98	H	2.128185	0.530813	1.366812
C99	C	1.298838	0.359911	0.506840
C100	C	1.798838	0.859911	1.006840
N101	N	1.229131	0.429572	0.522846
N102	N	1.729131	0.929572	1.022846
H103	H	1.473429	-0.396866	0.062974
H104	H	1.973429	0.103134	0.562974
H105	H	1.628205	0.030819	1.023830
H106	H	2.128205	0.530819	1.523830
H107	H	1.322940	0.335928	0.936896
H108	H	1.822940	0.835928	1.436896
H109	H	1.322861	0.335887	0.344302
H110	H	1.822861	0.835887	0.844302
H111	H	1.322914	0.335914	0.779887
H112	H	1.822914	0.835914	1.279887
H113	H	0.850830	0.180067	0.105784
H114	H	1.350830	0.680067	0.605784
