data_functionalizedCrystal
_audit_creation_method	'MofGen! by Chris Wilmer'
_symmetry_space_group_name_H-M	'P1'
_symmetry_Int_Tables_number	1
_symmetry_cell_setting	triclinic
loop_
_symmetry_equiv_pos_as_xyz
  x,y,z
_cell_length_a	18.215407
_cell_length_b	12.827892
_cell_length_c	18.215399
_cell_angle_alpha	89.976162
_cell_angle_beta	89.982632
_cell_angle_gamma	90.012835
loop_
_atom_site_label
_atom_site_type_symbol
_atom_site_fract_x
_atom_site_fract_y
_atom_site_fract_z
Zn1	Zn	1.125120	-0.416115	-0.416088
Zn2	Zn	1.458454	-0.082782	-0.082755
Zn3	Zn	1.791787	0.250552	0.250578
Zn4	Zn	1.125049	-0.590874	-0.293031
Zn5	Zn	1.458383	-0.257541	0.040302
Zn6	Zn	1.791716	0.075792	0.373636
Zn7	Zn	1.002053	-0.416140	-0.293041
Zn8	Zn	1.335386	-0.082807	0.040292
Zn9	Zn	1.668720	0.250527	0.373626
Zn10	Zn	1.002039	-0.590807	-0.416061
Zn11	Zn	1.335373	-0.257474	-0.082728
Zn12	Zn	1.668706	0.075860	0.250605
O13	O	1.063566	-0.503484	-0.354555
O14	O	1.396899	-0.170151	-0.021222
O15	O	1.730232	0.163183	0.312111
O16	O	1.228095	-0.439315	-0.399772
O17	O	1.561429	-0.105982	-0.066438
O18	O	1.894762	0.227352	0.266895
O19	O	1.108710	-0.567734	-0.190048
O20	O	1.442043	-0.234401	0.143285
O21	O	1.775376	0.098933	0.476619
O22	O	1.018414	-0.269901	-0.309379
O23	O	1.351747	0.063433	0.023954
O24	O	1.685080	0.396766	0.357287
O25	O	1.228043	-0.567710	-0.309362
O26	O	1.561376	-0.234376	0.023971
O27	O	1.894710	0.098957	0.357305
O28	O	1.108831	-0.269882	-0.399782
O29	O	1.442164	0.063451	-0.066448
O30	O	1.775498	0.396784	0.266885
O31	O	1.018345	-0.439358	-0.190056
O32	O	1.351678	-0.106024	0.143278
O33	O	1.685011	0.227309	0.476611
O34	O	0.899067	-0.439292	-0.309353
O35	O	1.232400	-0.105959	0.023980
O36	O	1.565734	0.227374	0.357314
O37	O	1.018390	-0.567595	-0.519049
O38	O	1.351724	-0.234262	-0.185716
O39	O	1.685057	0.099072	0.147618
O40	O	0.899057	-0.567619	-0.399735
O41	O	1.232390	-0.234286	-0.066402
O42	O	1.565724	0.099047	0.266931
O43	O	1.108818	-0.439250	-0.519069
O44	O	1.442151	-0.105916	-0.185736
O45	O	1.775484	0.227417	0.147597
O46	O	1.108696	-0.737101	-0.309336
O47	O	1.442030	-0.403768	0.023998
O48	O	1.775363	-0.070435	0.357331
O49	O	1.018321	-0.737052	-0.399725
O50	O	1.351655	-0.403719	-0.066392
O51	O	1.684988	-0.070385	0.266941
C52	C	0.872359	-0.503452	-0.354543
C53	C	1.205693	-0.170119	-0.021209
C54	C	1.539026	0.163215	0.312124
C55	C	0.790560	-0.503463	-0.354555
C56	C	1.123894	-0.170130	-0.021221
C57	C	1.457227	0.163203	0.312112
C58	C	0.602393	-0.436746	-0.401705
C59	C	0.935726	-0.103412	-0.068372
C60	C	1.269059	0.229921	0.264961
C61	C	0.525534	-0.436755	-0.401708
C62	C	0.858867	-0.103421	-0.068374
C63	C	1.192201	0.229912	0.264959
C64	C	0.525490	-0.570252	-0.307419
C65	C	0.858824	-0.236918	0.025915
C66	C	1.192157	0.096415	0.359248
C67	C	0.602348	-0.570237	-0.307413
C68	C	0.935681	-0.236903	0.025920
C69	C	1.269014	0.096430	0.359254
C70	C	0.640797	-0.503485	-0.354560
C71	C	0.974130	-0.170152	-0.021227
C72	C	1.307464	0.163181	0.312106
C73	C	0.487081	-0.503509	-0.354569
C74	C	0.820414	-0.170176	-0.021235
C75	C	1.153747	0.163157	0.312098
C76	C	0.403747	-0.503519	-0.354571
C77	C	0.737080	-0.170186	-0.021238
C78	C	1.070414	0.163147	0.312096
C79	C	0.724136	-0.503473	-0.354557
C80	C	1.057469	-0.170140	-0.021224
C81	C	1.390803	0.163193	0.312109
C82	C	1.063519	-0.774994	-0.354542
C83	C	1.396853	-0.441661	-0.021209
C84	C	1.730186	-0.108327	0.312124
C85	C	1.063567	-0.891147	-0.354562
C86	C	1.396900	-0.557814	-0.021228
C87	C	1.730234	-0.224480	0.312105
C88	C	1.108341	-0.942922	-0.309883
C89	C	1.441674	-0.609588	0.023450
C90	C	1.775007	-0.276255	0.356783
C91	C	1.108391	-1.062972	-0.309902
C92	C	1.441724	-0.729639	0.023431
C93	C	1.775058	-0.396305	0.356765
C94	C	1.255518	-0.503517	-0.354569
C95	C	1.588852	-0.170184	-0.021236
C96	C	1.922185	0.163150	0.312098
C97	C	1.337317	-0.503531	-0.354575
C98	C	1.670651	-0.170198	-0.021241
C99	C	2.003984	0.163135	0.312092
C100	C	1.063610	-0.503412	-0.546508
C101	C	1.396944	-0.170079	-0.213175
C102	C	1.730277	0.163255	0.120158
C103	C	1.063629	-0.503381	-0.628307
C104	C	1.396963	-0.170048	-0.294974
C105	C	1.730296	0.163285	0.038359
C106	C	1.063632	-0.230914	-0.354585
C107	C	1.396965	0.102419	-0.021251
C108	C	1.730298	0.435753	0.312082
C109	C	1.063660	-0.114761	-0.354597
C110	C	1.396993	0.218573	-0.021264
C111	C	1.730327	0.551906	0.312070
C112	C	1.110732	-0.436489	-0.816513
C113	C	1.444065	-0.103156	-0.483180
C114	C	1.777398	0.230177	-0.149846
C115	C	1.110741	-0.436459	-0.893372
C116	C	1.444074	-0.103126	-0.560038
C117	C	1.777407	0.230208	-0.226705
C118	C	1.016579	-0.570112	-0.893340
C119	C	1.349912	-0.236778	-0.560006
C120	C	1.683246	0.096555	-0.226673
C121	C	1.016567	-0.570136	-0.816482
C122	C	1.349901	-0.236803	-0.483149
C123	C	1.683234	0.096531	-0.149816
C124	C	1.063648	-0.503327	-0.778071
C125	C	1.396981	-0.169993	-0.444738
C126	C	1.730314	0.163340	-0.111404
C127	C	1.063668	-0.503272	-0.931787
C128	C	1.397002	-0.169938	-0.598454
C129	C	1.730335	0.163395	-0.265120
C130	C	1.063678	-0.503239	-1.015121
C131	C	1.397011	-0.169906	-0.681788
C132	C	1.730344	0.163428	-0.348454
C133	C	1.063638	-0.503357	-0.694732
C134	C	1.396971	-0.170024	-0.361399
C135	C	1.730304	0.163309	-0.028065
C136	C	1.063563	-0.503480	-0.163349
C137	C	1.396897	-0.170147	0.169984
C138	C	1.730230	0.163186	0.503317
C139	C	1.063687	-0.503217	-0.081551
C140	C	1.397020	-0.169883	0.251783
C141	C	1.730353	0.163450	0.585116
H142	H	0.633696	-0.382389	-0.440093
H143	H	0.967029	-0.049056	-0.106760
H144	H	1.300362	0.284277	0.226573
H145	H	1.025323	-1.070244	-0.392847
H146	H	1.358656	-0.736910	-0.059514
H147	H	1.691989	-0.403577	0.273820
C148	C	0.483292	-0.363347	-0.453571
C149	C	0.816626	-0.030013	-0.120237
C150	C	1.149959	0.303320	0.213096
H151	H	0.517201	-0.323599	-0.481651
H152	H	0.850535	0.009735	-0.148318
H153	H	1.183868	0.343068	0.185016
H154	H	0.453303	-0.317766	-0.425478
H155	H	0.786636	0.015567	-0.092145
H156	H	1.119969	0.348900	0.241188
H157	H	0.453321	-0.403393	-0.485592
H158	H	0.786654	-0.070060	-0.152259
H159	H	1.119987	0.263273	0.181074
C160	C	1.011832	-0.951316	-0.406259
C161	C	1.345166	-0.617983	-0.072925
C162	C	1.678499	-0.284649	0.260408
H163	H	0.983739	-0.903265	-0.434291
H164	H	1.317073	-0.569932	-0.100957
H165	H	1.650406	-0.236599	0.232376
H166	H	0.979829	-0.993962	-0.378061
H167	H	1.313162	-0.660628	-0.044727
H168	H	1.646496	-0.327295	0.288606
H169	H	1.040017	-0.993829	-0.438332
H170	H	1.373350	-0.660495	-0.104998
H171	H	1.706684	-0.327162	0.228335
C172	C	1.160078	-0.882753	-0.258189
C173	C	1.493411	-0.549419	0.075144
C174	C	1.826745	-0.216086	0.408478
H175	H	1.188179	-0.930803	-0.230164
H176	H	1.521512	-0.597470	0.103169
H177	H	1.854845	-0.264137	0.436502
H178	H	1.131902	-0.840232	-0.226120
H179	H	1.465235	-0.506899	0.107213
H180	H	1.798568	-0.173566	0.440546
H181	H	1.192086	-0.840115	-0.286396
H182	H	1.525419	-0.506782	0.046938
H183	H	1.858752	-0.173448	0.380271
C184	C	1.162509	-0.362989	-0.774263
C185	C	1.495842	-0.029656	-0.440929
C186	C	1.829175	0.303677	-0.107596
H187	H	1.190545	-0.323172	-0.808168
H188	H	1.523878	0.010162	-0.474835
H189	H	1.857212	0.343495	-0.141502
H190	H	1.194563	-0.402969	-0.744278
H191	H	1.527897	-0.069635	-0.410944
H192	H	1.861230	0.263698	-0.077611
H193	H	1.134353	-0.317461	-0.744286
H194	H	1.467686	0.015872	-0.410953
H195	H	1.801020	0.349205	-0.077619
C196	C	1.162537	-0.362943	-0.935655
C197	C	1.495870	-0.029610	-0.602322
C198	C	1.829203	0.303724	-0.268988
H199	H	1.190576	-0.323166	-0.901769
H200	H	1.523909	0.010167	-0.568435
H201	H	1.857243	0.343501	-0.235102
H202	H	1.134403	-0.317394	-0.965639
H203	H	1.467736	0.015939	-0.632306
H204	H	1.801069	0.349273	-0.298972
H205	H	1.194599	-0.402921	-0.965636
H206	H	1.527932	-0.069588	-0.632303
H207	H	1.861266	0.263746	-0.298969
H208	H	0.978249	-0.624508	-0.924624
H209	H	1.311583	-0.291175	-0.591290
H210	H	1.644916	0.042159	-0.257957
H211	H	0.978220	-0.624562	-0.785182
H212	H	1.311554	-0.291229	-0.451849
H213	H	1.644887	0.042105	-0.118515
H214	H	0.494176	-0.624599	-0.269034
H215	H	0.827509	-0.291266	0.064300
H216	H	1.160842	0.042067	0.397633
H217	H	1.146721	-1.107497	-0.271650
H218	H	1.480054	-0.774164	0.061684
H219	H	1.813388	-0.440830	0.395017
C220	C	0.644595	-0.643657	-0.255554
C221	C	0.977929	-0.310324	0.077780
C222	C	1.311262	0.023009	0.411113
H223	H	0.610690	-0.683425	-0.227483
H224	H	0.944023	-0.350092	0.105850
H225	H	1.277357	-0.016758	0.439184
H226	H	0.674569	-0.603620	-0.223534
H227	H	1.007902	-0.270287	0.109799
H228	H	1.341236	0.063046	0.443133
H229	H	0.674584	-0.689235	-0.283657
H230	H	1.007917	-0.355902	0.049677
H231	H	1.341250	-0.022569	0.383010
