data_functionalizedCrystal
_audit_creation_method	'MofGen! by Chris Wilmer'
_symmetry_space_group_name_H-M	'P1'
_symmetry_Int_Tables_number	1
_symmetry_cell_setting	triclinic
loop_
_symmetry_equiv_pos_as_xyz
  x,y,z
_cell_length_a	10.967926
_cell_length_b	11.792254
_cell_length_c	9.482900
_cell_angle_alpha	99.398945
_cell_angle_beta	92.549900
_cell_angle_gamma	84.460570
loop_
_atom_site_label
_atom_site_type_symbol
_atom_site_fract_x
_atom_site_fract_y
_atom_site_fract_z
O1	O	1.611521	0.200404	0.282842
O2	O	1.944854	0.533737	0.616176
O3	O	2.278188	0.867071	0.949509
O4	O	1.262324	0.202894	0.195354
O5	O	1.595657	0.536227	0.528687
O6	O	1.928990	0.869560	0.862021
O7	O	1.445387	0.036809	0.241229
O8	O	1.778720	0.370142	0.574563
O9	O	2.112053	0.703476	0.907896
O10	O	1.428458	0.366489	0.236967
O11	O	1.761791	0.699822	0.570301
O12	O	2.095124	1.033155	0.903634
O13	O	1.408203	0.070687	0.473704
O14	O	1.741537	0.404020	0.807037
O15	O	2.074870	0.737353	1.140370
O16	O	1.225140	0.236771	0.427829
O17	O	1.558474	0.570104	0.761162
O18	O	1.891807	0.903438	1.094495
O19	O	1.574338	0.234282	0.515317
O20	O	1.907671	0.567615	0.848650
O21	O	2.241004	0.900948	1.181983
Cu22	Cu	1.396344	0.238620	0.492799
Cu23	Cu	1.729677	0.571953	0.826133
Cu24	Cu	2.063010	0.905286	1.159466
Cu25	Cu	1.440317	0.198556	0.217871
Cu26	Cu	1.773651	0.531889	0.551205
Cu27	Cu	2.106984	0.865222	0.884538
O28	O	1.391274	0.400366	0.469442
O29	O	1.724608	0.733700	0.802775
O30	O	2.057941	1.067033	1.136108
C31	C	1.199027	0.217091	0.300391
C32	C	1.532360	0.550425	0.633724
C33	C	1.865694	0.883758	0.967058
C34	C	1.065820	0.208911	0.267017
C35	C	1.399153	0.542244	0.600351
C36	C	1.732487	0.875577	0.933684
C37	C	0.987170	0.222813	0.372567
C38	C	1.320503	0.556146	0.705900
C39	C	1.653836	0.889480	1.039234
C40	C	0.849493	0.214358	0.338076
C41	C	1.182826	0.547692	0.671410
C42	C	1.516159	0.881025	1.004743
C43	C	1.425729	0.011416	0.357199
C44	C	1.759062	0.344749	0.690532
C45	C	2.092395	0.678082	1.023865
C46	C	1.422536	-0.114721	0.356398
C47	C	1.755870	0.218612	0.689731
C48	C	2.089203	0.551945	1.023064
C49	C	1.419943	-0.217159	0.355743
C50	C	1.753276	0.116174	0.689076
C51	C	2.086610	0.449507	1.022409
C52	C	1.416702	-0.345673	0.354917
C53	C	1.750035	-0.012340	0.688251
C54	C	2.083368	0.320993	1.021584
C55	C	1.637635	0.220083	0.410277
C56	C	1.970968	0.553417	0.743610
C57	C	2.304301	0.886750	1.076943
C58	C	1.770843	0.228263	0.443641
C59	C	2.104177	0.561596	0.776974
C60	C	2.437510	0.894930	1.110308
C61	C	1.410933	0.425759	0.353469
C62	C	1.744266	0.759092	0.686802
C63	C	2.077600	1.092426	1.020136
C64	C	1.414127	0.551895	0.354261
C65	C	1.747460	0.885228	0.687594
C66	C	2.080794	1.218561	1.020928
N67	N	1.365424	0.266798	0.686171
N68	N	1.698757	0.600132	1.019504
N69	N	2.032091	0.933465	1.352838
N70	N	1.471247	0.170368	0.024502
N71	N	1.804580	0.503702	0.357835
N72	N	2.137913	0.837035	0.691169
C73	C	1.431189	0.206861	0.774851
C74	C	1.764522	0.540194	1.108184
C75	C	2.097856	0.873527	1.441518
C76	C	1.405472	0.230315	0.935824
C77	C	1.738805	0.563648	1.269157
C78	C	2.072139	0.896982	1.602490
H79	H	1.031229	0.190746	0.151118
H80	H	1.364563	0.524079	0.484452
H81	H	1.697896	0.857413	0.817785
N82	N	1.525695	0.120696	0.720583
N83	N	1.859028	0.454030	1.053916
N84	N	2.192362	0.787363	1.387250
N85	N	1.546448	0.101762	0.589895
N86	N	1.879781	0.435095	0.923228
N87	N	2.213115	0.768428	1.256562
H88	H	1.613194	0.040905	0.551569
H89	H	1.946527	0.374238	0.884902
H90	H	2.279861	0.707572	1.218235
N91	N	1.310942	0.316465	0.990080
N92	N	1.644275	0.649798	1.323413
N93	N	1.977609	0.983132	1.656747
N94	N	1.290181	0.335392	1.120766
N95	N	1.623514	0.668725	1.454099
N96	N	1.956847	1.002058	1.787432
H97	H	1.223419	0.396233	1.159088
H98	H	1.556752	0.729566	1.492421
H99	H	1.890086	1.062900	1.825755
H100	H	1.546590	0.101681	0.981259
H101	H	1.879924	0.435014	1.314592
H102	H	2.213257	0.768347	1.647925
H103	H	0.805427	0.246422	0.559549
H104	H	1.138760	0.579755	0.892882
H105	H	1.472094	0.913088	1.226216
H106	H	1.290076	0.335473	0.729419
H107	H	1.623410	0.668806	1.062753
H108	H	1.956743	1.002140	1.396086
H109	H	1.021761	0.240968	0.488466
H110	H	1.355095	0.574302	0.821800
H111	H	1.688428	0.907635	1.155133
H112	H	0.814908	0.196193	0.222170
H113	H	1.148242	0.529526	0.555503
H114	H	1.481575	0.862859	0.888836
