data_functionalizedCrystal
_audit_creation_method	'MofGen! by Chris Wilmer'
_symmetry_space_group_name_H-M	'P1'
_symmetry_Int_Tables_number	1
_symmetry_cell_setting	triclinic
loop_
_symmetry_equiv_pos_as_xyz
  x,y,z
_cell_length_a	19.188930
_cell_length_b	19.188930
_cell_length_c	17.666332
_cell_angle_alpha	90.011603
_cell_angle_beta	89.976766
_cell_angle_gamma	96.855221
loop_
_atom_site_label
_atom_site_type_symbol
_atom_site_fract_x
_atom_site_fract_y
_atom_site_fract_z
O1	O	0.926150	-0.087169	-0.063200
O2	O	0.722838	-0.098903	-0.063149
O3	O	0.830361	0.008620	-0.063161
O4	O	0.818627	-0.194692	-0.063188
O5	O	0.830342	0.008625	0.062735
O6	O	0.722820	-0.098897	0.062747
O7	O	0.926131	-0.087163	0.062697
Cu8	Cu	0.824473	-0.093030	0.074217
Cu9	Cu	0.824496	-0.093036	-0.074670
O10	O	0.818608	-0.194686	0.062709
C11	C	0.696818	-0.098520	-0.000194
C12	C	0.619313	-0.097380	-0.000174
C13	C	0.829972	0.034634	-0.000211
C14	C	0.828831	0.112138	-0.000204
C15	C	0.574389	-0.160470	-0.000194
C16	C	0.501566	-0.159399	-0.000203
C17	C	0.473669	-0.095233	-0.000206
C18	C	0.518603	-0.032133	-0.000181
C19	C	0.591425	-0.033207	-0.000166
N20	N	0.365695	-0.046188	-0.043078
N21	N	0.296517	-0.045172	-0.043095
C22	C	0.254260	-0.091994	-0.000252
N23	N	0.283795	-0.139881	0.042599
N24	N	0.352979	-0.140899	0.042612
C25	C	0.394707	-0.094062	-0.000222
C26	C	0.130372	-0.153928	-0.000280
C27	C	0.057547	-0.152853	-0.000283
C28	C	0.074586	-0.025586	-0.000270
C29	C	0.147409	-0.026662	-0.000258
C30	C	0.175298	-0.090835	-0.000267
C31	C	0.952151	-0.087546	-0.000260
C32	C	1.029656	-0.088687	-0.000285
C33	C	0.818997	-0.220700	-0.000244
C34	C	0.820138	-0.298204	-0.000255
N35	N	0.824463	-0.093025	0.178937
C36	C	0.891922	0.157062	-0.000216
C37	C	0.890850	0.229886	-0.000228
C38	C	0.826684	0.257782	-0.000212
C39	C	0.763585	0.212849	-0.000205
C40	C	0.764658	0.140026	-0.000200
N41	N	0.777630	0.365789	0.042645
N42	N	0.776615	0.434968	0.042642
C43	C	0.823446	0.477191	-0.000227
N44	N	0.871341	0.447624	-0.043084
N45	N	0.872359	0.378439	-0.043079
C46	C	0.825513	0.336745	-0.000218
C47	C	0.885379	0.601079	-0.000253
C48	C	0.884305	0.673904	-0.000270
C49	C	0.757038	0.656865	-0.000239
C50	C	0.758114	0.584042	-0.000230
C51	C	0.822287	0.556154	-0.000233
N52	N	0.824512	-0.093036	-0.179390
C53	C	0.872089	-0.045437	0.218541
C54	C	0.872093	-0.045433	0.297789
C55	C	0.824478	-0.093030	0.337429
C56	C	0.776842	-0.140621	0.297815
C57	C	0.776835	-0.140619	0.218569
N58	N	0.815401	-0.154837	0.461841
N59	N	0.815413	-0.154837	0.537121
C60	C	0.824496	-0.093040	0.576193
N61	N	0.833582	-0.031239	0.537140
N62	N	0.833574	-0.031240	0.461853
C63	C	0.824480	-0.093038	0.423358
C64	C	0.872130	-0.045444	0.701727
C65	C	0.872129	-0.045440	0.780976
C66	C	0.776881	-0.140634	0.781000
C67	C	0.776878	-0.140632	0.701753
C68	C	0.824506	-0.093038	0.662121
H69	H	0.597091	-0.212725	-0.000203
H70	H	0.944176	0.134360	-0.000222
H71	H	0.704792	0.679578	-0.000230
C72	C	0.724495	-0.192986	0.658181
C73	C	0.672135	-0.245363	0.701776
C74	C	0.619748	-0.297718	0.658204
C75	C	0.619720	-0.297696	0.571036
C76	C	0.672082	-0.245318	0.527436
C77	C	0.724469	-0.192963	0.571009
H78	H	0.672154	-0.245381	0.766307
H79	H	0.580986	-0.336493	0.690480
H80	H	0.580940	-0.336453	0.538781
H81	H	0.672063	-0.245300	0.462905
H82	H	0.763231	-0.154188	0.538733
C83	C	0.688712	0.534621	-0.000203
C84	C	0.618128	0.565301	-0.000183
C85	C	0.548723	0.515879	-0.000157
C86	C	0.549901	0.435777	-0.000151
C87	C	0.620487	0.405093	-0.000170
C88	C	0.689892	0.454515	-0.000196
H89	H	0.617254	0.624601	-0.000188
H90	H	0.496470	0.538594	-0.000143
H91	H	0.498523	0.399192	-0.000131
H92	H	0.621361	0.345793	-0.000165
H93	H	0.742145	0.431800	-0.000210
H94	H	0.937632	0.578372	-0.000259
C95	C	0.924472	0.006921	0.174944
C96	C	0.976860	0.059273	0.218511
C97	C	1.029240	0.111631	0.174910
C98	C	1.029232	0.111637	0.087742
C99	C	0.976842	0.059282	0.044171
C100	C	0.924461	0.006924	0.087771
H101	H	0.976868	0.059271	0.283042
H102	H	1.068022	0.150387	0.207165
H103	H	1.068007	0.150395	0.055467
H104	H	0.976834	0.059285	-0.020360
H105	H	0.885679	-0.031832	0.055516
C106	C	0.724447	-0.192972	0.174999
C107	C	0.672087	-0.245349	0.218594
C108	C	0.619700	-0.297704	0.175021
C109	C	0.619672	-0.297682	0.087854
C110	C	0.672034	-0.245303	0.044254
C111	C	0.724421	-0.192948	0.087826
H112	H	0.672106	-0.245367	0.283125
H113	H	0.580938	-0.336478	0.207297
H114	H	0.580892	-0.336438	0.055599
H115	H	0.672015	-0.245285	-0.020277
H116	H	0.763182	-0.154174	0.055550
C117	C	0.161056	-0.224514	-0.000278
C118	C	0.111636	-0.293917	-0.000287
C119	C	0.142317	-0.364503	-0.000285
C120	C	0.222418	-0.365688	-0.000273
C121	C	0.271843	-0.296283	-0.000265
C122	C	0.241161	-0.225696	-0.000267
H123	H	0.052336	-0.293042	-0.000295
H124	H	0.105729	-0.415881	-0.000291
H125	H	0.245130	-0.417940	-0.000272
H126	H	0.331142	-0.297157	-0.000256
H127	H	0.277749	-0.174318	-0.000261
H128	H	0.942228	0.266470	-0.000241
H129	H	0.713281	0.103448	-0.000190
H130	H	0.910878	-0.006680	0.330041
C131	C	0.924512	0.006914	0.658127
C132	C	0.976894	0.059269	0.701698
C133	C	1.029277	0.111628	0.658102
C134	C	1.029278	0.111632	0.570934
C135	C	0.976894	0.059275	0.527358
C136	C	0.924511	0.006916	0.570954
H137	H	0.976895	0.059268	0.766229
H138	H	1.068055	0.150387	0.690361
H139	H	1.068054	0.150392	0.538662
H140	H	0.976893	0.059276	0.462827
H141	H	0.885733	-0.031842	0.538696
C142	C	0.196831	0.042740	-0.000249
C143	C	0.166151	0.113323	-0.000254
C144	C	0.215573	0.182729	-0.000242
C145	C	0.295675	0.181551	-0.000226
C146	C	0.326359	0.110965	-0.000221
C147	C	0.276937	0.041559	-0.000233
H148	H	0.106851	0.114197	-0.000266
H149	H	0.192858	0.234981	-0.000246
H150	H	0.332260	0.232929	-0.000218
H151	H	0.385659	0.110090	-0.000209
H152	H	0.299652	-0.010693	-0.000229
H153	H	0.738109	-0.179385	0.813275
H154	H	0.464982	-0.210776	-0.000217
C155	C	0.693002	0.243532	-0.000188
C156	C	0.674750	0.291265	0.065189
C157	C	0.604164	0.321948	0.065201
C158	C	0.551830	0.304898	-0.000164
C159	C	0.570080	0.257163	-0.065546
C160	C	0.640666	0.226480	-0.065558
H161	H	0.713493	0.303888	0.113581
H162	H	0.590655	0.357284	0.113602
H163	H	0.499578	0.327611	-0.000156
H164	H	0.531338	0.244539	-0.113938
H165	H	0.654175	0.191143	-0.113959
H166	H	0.738072	-0.179374	0.330094
H167	H	0.051874	0.026659	-0.000319
C168	C	0.487920	0.038450	-0.000187
C169	C	0.440159	0.056690	0.065177
C170	C	0.409477	0.127276	0.065176
C171	C	0.426556	0.179622	-0.000189
C172	C	0.474319	0.161384	-0.065557
C173	C	0.505001	0.090798	-0.065556
H174	H	0.427514	0.017939	0.113568
H175	H	0.374119	0.140777	0.113566
H176	H	0.403843	0.231874	-0.000189
H177	H	0.486964	0.200135	-0.113948
H178	H	0.540359	0.077297	-0.113946
H179	H	0.628003	0.018171	-0.000150
H180	H	0.020970	-0.204232	-0.000295
H181	H	0.935683	0.710481	-0.000284
H182	H	0.910910	-0.006684	0.813222
