data_functionalizedCrystal
_audit_creation_method	'MofGen! by Chris Wilmer'
_symmetry_space_group_name_H-M	'P1'
_symmetry_Int_Tables_number	1
_symmetry_cell_setting	triclinic
loop_
_symmetry_equiv_pos_as_xyz
  x,y,z
_cell_length_a	16.120297
_cell_length_b	13.032831
_cell_length_c	13.032721
_cell_angle_alpha	90.902885
_cell_angle_beta	80.345876
_cell_angle_gamma	93.942761
loop_
_atom_site_label
_atom_site_type_symbol
_atom_site_fract_x
_atom_site_fract_y
_atom_site_fract_z
Zn1	Zn	-0.685769	-1.471908	0.646883
Zn2	Zn	-0.352436	-1.138575	0.980216
Zn3	Zn	-0.019103	-0.805241	1.313550
Zn4	Zn	-0.561755	-1.458691	0.812079
Zn5	Zn	-0.228422	-1.125358	1.145412
Zn6	Zn	0.104911	-0.792024	1.478745
Zn7	Zn	-0.527021	-1.311115	0.616368
Zn8	Zn	-0.193687	-0.977782	0.949702
Zn9	Zn	0.139646	-0.644449	1.283035
Zn10	Zn	-0.681325	-1.278370	0.796687
Zn11	Zn	-0.347992	-0.945036	1.130020
Zn12	Zn	-0.014659	-0.611703	1.463354
O13	O	-0.613968	-1.380021	0.718004
O14	O	-0.280634	-1.046688	1.051338
O15	O	0.052699	-0.713354	1.384671
O16	O	-0.685715	-1.612912	0.688009
O17	O	-0.352382	-1.279579	1.021342
O18	O	-0.019048	-0.946246	1.354675
O19	O	-0.440670	-1.447287	0.779788
O20	O	-0.107337	-1.113954	1.113121
O21	O	0.225996	-0.780621	1.446455
O22	O	-0.535402	-1.351680	0.475817
O23	O	-0.202069	-1.018347	0.809151
O24	O	0.131265	-0.685014	1.142484
O25	O	-0.594602	-1.603202	0.809377
O26	O	-0.261269	-1.269868	1.142710
O27	O	0.072064	-0.936535	1.476044
O28	O	-0.652034	-1.469814	0.498236
O29	O	-0.318701	-1.136481	0.831570
O30	O	0.014632	-0.803148	1.164903
O31	O	-0.415151	-1.338864	0.636001
O32	O	-0.081817	-1.005531	0.969334
O33	O	0.251516	-0.672197	1.302667
O34	O	-0.531093	-1.164014	0.621076
O35	O	-0.197760	-0.830681	0.954410
O36	O	0.135574	-0.497347	1.287743
O37	O	-0.798392	-1.295870	0.783144
O38	O	-0.465059	-0.962537	1.116478
O39	O	-0.131726	-0.629203	1.449811
O40	O	-0.644460	-1.139956	0.753555
O41	O	-0.311127	-0.806622	1.086889
O42	O	0.022206	-0.473289	1.420222
O43	O	-0.801657	-1.438062	0.673084
O44	O	-0.468324	-1.104729	1.006417
O45	O	-0.134991	-0.771395	1.339751
O46	O	-0.590293	-1.415535	0.954636
O47	O	-0.256960	-1.082202	1.287969
O48	O	0.076373	-0.748869	1.621302
O49	O	-0.678141	-1.283054	0.943328
O50	O	-0.344808	-0.949721	1.276661
O51	O	-0.011474	-0.616387	1.609994
C52	C	-0.583526	-1.114969	0.682335
C53	C	-0.250192	-0.781636	1.015669
C54	C	0.083141	-0.448303	1.349002
C55	C	-0.570525	-1.001574	0.667102
C56	C	-0.237191	-0.668241	1.000435
C57	C	0.096142	-0.334908	1.333768
C58	C	-0.831071	-1.364788	0.729801
C59	C	-0.497737	-1.031454	1.063134
C60	C	-0.164404	-0.698121	1.396468
C61	C	-0.923587	-1.358296	0.734828
C62	C	-0.590254	-1.024963	1.068162
C63	C	-0.256920	-0.691630	1.401495
C64	C	-0.637526	-1.344333	0.986479
C65	C	-0.304192	-1.011000	1.319813
C66	C	0.029141	-0.677667	1.653146
C67	C	-0.647642	-1.329157	1.101348
C68	C	-0.314309	-0.995824	1.434681
C69	C	0.019024	-0.662491	1.768015
C70	C	-1.092969	-1.346410	0.743978
C71	C	-0.759636	-1.013077	1.077312
C72	C	-0.426302	-0.679743	1.410645
C73	C	-1.135814	-1.413874	0.691748
C74	C	-0.802481	-1.080540	1.025081
C75	C	-0.469147	-0.747207	1.358414
C76	C	-1.230064	-1.407260	0.696839
C77	C	-0.896731	-1.073927	1.030172
C78	C	-0.563397	-0.740594	1.363506
C79	C	-0.998710	-1.353022	0.738888
C80	C	-0.665377	-1.019689	1.072222
C81	C	-0.332044	-0.686356	1.405555
C82	C	-0.397710	-1.395263	0.706187
C83	C	-0.064376	-1.061930	1.039520
C84	C	0.268957	-0.728597	1.372853
C85	C	-0.305191	-1.401991	0.700895
C86	C	0.028142	-1.068658	1.034228
C87	C	0.361476	-0.735324	1.367562
C88	C	-0.644529	-1.646107	0.753814
C89	C	-0.311196	-1.312774	1.087147
C90	C	0.022138	-0.979441	1.420480
C91	C	-0.657552	-1.759498	0.769073
C92	C	-0.324219	-1.426164	1.102407
C93	C	0.009114	-1.092831	1.435740
C94	C	-0.620753	-0.939135	0.725955
C95	C	-0.287420	-0.605802	1.059288
C96	C	0.045914	-0.272469	1.392622
C97	C	-0.607317	-0.821935	0.710212
C98	C	-0.273984	-0.488602	1.043545
C99	C	0.059350	-0.155269	1.376879
C100	C	-0.590339	-1.415874	0.448486
C101	C	-0.257006	-1.082541	0.781819
C102	C	0.076327	-0.749208	1.115152
C103	C	-0.580270	-1.431153	0.333633
C104	C	-0.246937	-1.097820	0.666966
C105	C	0.086396	-0.764486	1.000300
C106	C	-0.608731	-1.387993	1.158130
C107	C	-0.275398	-1.054660	1.491463
C108	C	0.057935	-0.721326	1.824797
C109	C	-0.619187	-1.372309	1.276853
C110	C	-0.285853	-1.038976	1.610186
C111	C	0.047480	-0.705643	1.943520
H112	H	-1.101710	-1.476597	0.643207
H113	H	-0.768377	-1.143264	0.976540
H114	H	-0.435044	-0.809931	1.309873
H115	H	-0.660246	-1.310327	1.316130
H116	H	-0.326913	-0.976993	1.649464
H117	H	0.006420	-0.643660	1.982797
H118	H	-0.554367	-0.788630	0.648162
H119	H	-0.221033	-0.455297	0.981495
H120	H	0.112300	-0.121964	1.314829
H121	H	-0.567681	-1.449979	1.118852
H122	H	-0.234348	-1.116646	1.452186
H123	H	0.098985	-0.783313	1.785519
H124	H	-0.539218	-1.493143	1.294358
H125	H	-0.205884	-1.159810	1.627692
H126	H	0.127449	-0.826477	1.961025
H127	H	-1.127071	-1.283692	0.792515
H128	H	-0.793737	-0.950358	1.125849
H129	H	-0.460404	-0.617025	1.459182
C130	C	-0.703103	-1.245424	1.154403
C131	C	-0.369770	-0.912090	1.487736
C132	C	-0.036436	-0.578757	1.821070
H133	H	-0.702850	-1.245863	1.227238
H134	H	-0.369517	-0.912530	1.560571
H135	H	-0.036184	-0.579197	1.893904
H136	H	-0.759200	-1.258689	1.141762
H137	H	-0.425867	-0.925356	1.475095
H138	H	-0.092534	-0.592023	1.808429
H139	H	-0.681462	-1.180051	1.126947
H140	H	-0.348129	-0.846717	1.460280
H141	H	-0.014795	-0.513384	1.793614
C142	C	-0.729091	-0.804474	0.852892
C143	C	-0.395758	-0.471141	1.186226
C144	C	-0.062424	-0.137808	1.519559
H145	H	-0.758864	-0.750101	0.887768
H146	H	-0.425531	-0.416768	1.221102
H147	H	-0.092198	-0.083435	1.554435
H148	H	-0.705872	-0.842311	0.901665
H149	H	-0.372538	-0.508978	1.234998
H150	H	-0.039205	-0.175644	1.568332
H151	H	-0.766683	-0.848748	0.820944
H152	H	-0.433350	-0.515414	1.154277
H153	H	-0.100016	-0.182081	1.487611
H154	H	-0.673705	-0.972446	0.787993
H155	H	-0.340372	-0.639112	1.121326
H156	H	-0.007039	-0.305779	1.454659
C157	C	-0.498996	-0.956586	0.583284
C158	C	-0.165662	-0.623253	0.916617
C159	C	0.167671	-0.289919	1.249950
H160	H	-0.499347	-0.883716	0.583701
H161	H	-0.166013	-0.550382	0.917034
H162	H	0.167320	-0.217049	1.250368
H163	H	-0.507161	-0.982364	0.516869
H164	H	-0.173827	-0.649030	0.850202
H165	H	0.159506	-0.315697	1.183535
H166	H	-0.446344	-0.975914	0.597583
H167	H	-0.113011	-0.642580	0.930916
H168	H	0.220323	-0.309247	1.264250
