data_functionalizedCrystal
_audit_creation_method	'MofGen! by Chris Wilmer'
_symmetry_space_group_name_H-M	'P1'
_symmetry_Int_Tables_number	1
_symmetry_cell_setting	triclinic
loop_
_symmetry_equiv_pos_as_xyz
  x,y,z
_cell_length_a	12.759401
_cell_length_b	12.759399
_cell_length_c	12.759393
_cell_angle_alpha	89.968645
_cell_angle_beta	90.019596
_cell_angle_gamma	89.976086
loop_
_atom_site_label
_atom_site_type_symbol
_atom_site_fract_x
_atom_site_fract_y
_atom_site_fract_z
Zn1	Zn	1.606201	0.418208	0.593976
Zn2	Zn	1.606065	0.593923	0.418294
Zn3	Zn	1.430500	0.418260	0.418315
Zn4	Zn	1.430464	0.593846	0.593935
O5	O	1.518308	0.506059	0.506130
O6	O	1.753204	0.441527	0.570680
O7	O	1.582734	0.570675	0.271275
O8	O	1.453879	0.271232	0.441644
O9	O	1.753104	0.570625	0.441606
O10	O	1.582966	0.271194	0.570701
O11	O	1.453747	0.441616	0.271291
O12	O	1.283474	0.441541	0.441604
O13	O	1.453818	0.570493	0.740962
O14	O	1.283448	0.570544	0.570631
O15	O	1.582931	0.441452	0.740992
O16	O	1.582699	0.740934	0.441567
O17	O	1.453686	0.740877	0.570609
C18	C	1.245340	0.506040	0.506116
C19	C	1.128564	0.506058	0.506134
C20	C	0.963984	0.573347	0.573220
C21	C	1.073708	0.573336	0.573209
C22	C	1.073689	0.438795	0.439058
C23	C	0.963967	0.438812	0.439065
C24	C	1.518203	0.779027	0.506104
C25	C	1.518254	0.895803	0.506128
C26	C	1.585431	0.950555	0.573384
C27	C	1.585473	1.060279	0.573409
C28	C	1.451157	1.060489	0.438914
C29	C	1.451110	0.950767	0.438895
C30	C	1.792341	0.506079	0.506145
C31	C	1.909117	0.506087	0.506152
C32	C	1.518386	0.505958	0.780164
C33	C	1.518420	0.505915	0.896940
C34	C	1.518402	1.232026	0.506172
C35	C	1.518342	1.115249	0.506173
C36	C	1.518290	0.506084	0.233163
C37	C	1.518460	0.505831	0.116387
C38	C	1.585654	0.438713	0.951820
C39	C	1.585672	0.438668	1.061544
C40	C	1.451218	0.573036	1.061499
C41	C	1.451196	0.573075	0.951777
H42	H	0.919293	0.384039	0.384445
Cl43	Cl	1.142650	0.354219	0.354732
Cl44	Cl	1.366643	0.881931	0.354346
Cl45	Cl	1.142679	0.657898	0.657525
Cl46	Cl	1.670159	0.354280	0.882885
Cl47	Cl	1.366660	0.657559	0.882781
H48	H	1.640174	1.104854	0.628178
Cl49	Cl	0.895034	0.657925	0.657553
H50	H	1.396493	1.105255	0.384174
Cl51	Cl	1.669836	0.881461	0.657909
Cl52	Cl	1.670208	0.354190	1.130531
H53	H	1.396489	0.627718	1.106161
