data_functionalizedCrystal
_audit_creation_method	'MofGen! by Chris Wilmer'
_symmetry_space_group_name_H-M	'P1'
_symmetry_Int_Tables_number	1
_symmetry_cell_setting	triclinic
loop_
_symmetry_equiv_pos_as_xyz
  x,y,z
_cell_length_a	11.169417
_cell_length_b	11.169416
_cell_length_c	11.169409
_cell_angle_alpha	90.031307
_cell_angle_beta	90.020564
_cell_angle_gamma	90.011027
loop_
_atom_site_label
_atom_site_type_symbol
_atom_site_fract_x
_atom_site_fract_y
_atom_site_fract_z
Zn1	Zn	-1.834973	0.477683	-0.678551
Zn2	Zn	-1.501639	0.811016	-0.345218
Zn3	Zn	-1.168306	1.144349	-0.011884
Zn4	Zn	-1.834860	0.678423	-0.477871
Zn5	Zn	-1.501527	1.011756	-0.144538
Zn6	Zn	-1.168193	1.345089	0.188795
Zn7	Zn	-1.634256	0.477755	-0.477885
Zn8	Zn	-1.300923	0.811089	-0.144552
Zn9	Zn	-0.967589	1.144422	0.188781
Zn10	Zn	-1.634267	0.678325	-0.678516
Zn11	Zn	-1.300933	1.011659	-0.345183
Zn12	Zn	-0.967600	1.344992	-0.011849
O13	O	-1.734589	0.578047	-0.578206
O14	O	-1.401256	0.911380	-0.244872
O15	O	-1.067922	1.244713	0.088461
O16	O	-2.002907	0.504321	-0.651939
O17	O	-1.669574	0.837655	-0.318606
O18	O	-1.336241	1.170988	0.014728
O19	O	-1.808198	0.651875	-0.309923
O20	O	-1.474865	0.985209	0.023410
O21	O	-1.141531	1.318542	0.356743
O22	O	-1.660924	0.309796	-0.504524
O23	O	-1.327591	0.643129	-0.171191
O24	O	-0.994257	0.976463	0.162142
O25	O	-2.002825	0.651804	-0.504500
O26	O	-1.669491	0.985138	-0.171167
O27	O	-1.336158	1.318471	0.162166
O28	O	-1.808390	0.309742	-0.651953
O29	O	-1.475056	0.643076	-0.318619
O30	O	-1.141723	0.976409	0.014714
O31	O	-1.660815	0.504446	-0.309934
O32	O	-1.327482	0.837779	0.023400
O33	O	-0.994148	1.171112	0.356733
O34	O	-1.466308	0.504351	-0.504491
O35	O	-1.132974	0.837685	-0.171157
O36	O	-0.799641	1.171018	0.162176
O37	O	-1.660942	0.651638	-0.846470
O38	O	-1.327609	0.984972	-0.513137
O39	O	-0.994276	1.318305	-0.179804
O40	O	-1.466316	0.651709	-0.651893
O41	O	-1.132982	0.985042	-0.318560
O42	O	-0.799649	1.318376	0.014773
O43	O	-1.808400	0.504227	-0.846496
O44	O	-1.475067	0.837560	-0.513163
O45	O	-1.141734	1.170894	-0.179829
O46	O	-1.808208	0.846360	-0.504467
O47	O	-1.474875	1.179693	-0.171133
O48	O	-1.141542	1.513026	0.162200
O49	O	-1.660833	0.846288	-0.651880
O50	O	-1.327500	1.179621	-0.318546
O51	O	-0.994167	1.512955	0.014787
C52	C	-1.422764	0.578028	-0.578190
C53	C	-1.089431	0.911362	-0.244857
C54	C	-0.756098	1.244695	0.088476
C55	C	-1.289364	0.578049	-0.578212
C56	C	-0.956031	0.911383	-0.244879
C57	C	-0.622698	1.244716	0.088454
C58	C	-1.734542	0.889871	-0.578194
C59	C	-1.401209	1.223205	-0.244861
C60	C	-1.067876	1.556538	0.088473
C61	C	-1.734632	1.023271	-0.578229
C62	C	-1.401299	1.356604	-0.244896
C63	C	-1.067966	1.689938	0.088438
C64	C	-1.734685	0.577914	-0.891248
C65	C	-1.401352	0.911247	-0.557915
C66	C	-1.068018	1.244580	-0.224582
C67	C	-1.734726	0.577857	-1.024649
C68	C	-1.401393	0.911190	-0.691315
C69	C	-1.068059	1.244524	-0.357982
C70	C	-2.047631	0.578066	-0.578222
C71	C	-1.714298	0.911399	-0.244889
C72	C	-1.380965	1.244732	0.088445
C73	C	-2.181031	0.578074	-0.578229
C74	C	-1.847698	0.911407	-0.244896
C75	C	-1.514364	1.244740	0.088438
C76	C	-1.734668	0.265004	-0.578244
C77	C	-1.401335	0.598338	-0.244911
C78	C	-1.068002	0.931671	0.088423
C79	C	-1.734702	0.131604	-0.578260
C80	C	-1.401369	0.464937	-0.244927
C81	C	-1.068035	0.798271	0.088406
C82	C	-1.734562	0.578092	-0.266381
C83	C	-1.401229	0.911426	0.066952
C84	C	-1.067895	1.244759	0.400286
C85	C	-1.734754	0.577811	-0.132982
C86	C	-1.401420	0.911144	0.200352
C87	C	-1.068087	1.244478	0.533685
