data_functionalizedCrystal
_audit_creation_method	'MofGen! by Chris Wilmer'
_symmetry_space_group_name_H-M	'P1'
_symmetry_Int_Tables_number	1
_symmetry_cell_setting	triclinic
loop_
_symmetry_equiv_pos_as_xyz
  x,y,z
_cell_length_a	14.971475
_cell_length_b	14.971486
_cell_length_c	13.448316
_cell_angle_alpha	90.006811
_cell_angle_beta	90.005879
_cell_angle_gamma	83.611904
loop_
_atom_site_label
_atom_site_type_symbol
_atom_site_fract_x
_atom_site_fract_y
_atom_site_fract_z
O1	O	-1.186953	-0.116518	-0.082672
O2	O	-0.926552	-0.130487	-0.082679
O3	O	-1.063732	0.006697	-0.082668
O4	O	-1.049773	-0.253703	-0.082683
O5	O	-1.063715	0.006706	0.082716
O6	O	-0.926535	-0.130479	0.082705
O7	O	-1.186936	-0.116510	0.082712
Cu8	Cu	-1.056734	-0.123494	0.097809
Cu9	Cu	-1.056754	-0.123504	-0.097776
O10	O	-1.049756	-0.253695	0.082701
C11	C	-0.893218	-0.129860	0.000013
C12	C	-0.793921	-0.127993	0.000010
C13	C	-0.747267	-0.127109	0.090162
C14	C	-0.653968	-0.125341	0.090162
C15	C	-0.607324	-0.124463	0.000010
C16	C	-0.653985	-0.125344	-0.090148
C17	C	-0.747283	-0.127106	-0.090148
C18	C	-0.459523	-0.121674	-0.090143
C19	C	-0.366218	-0.119914	-0.090144
C20	C	-0.366207	-0.119909	0.090167
C21	C	-0.459505	-0.121671	0.090168
C22	C	-0.506160	-0.122554	0.000009
C23	C	-1.063099	0.040026	0.000024
C24	C	-1.061228	0.139323	0.000023
C25	C	-0.220269	-0.117144	0.000017
C26	C	-0.319564	-0.119030	0.000008
C27	C	-1.050389	-0.287024	0.000007
C28	C	-1.052260	-0.386321	0.000002
N29	N	-1.056726	-0.123486	0.235374
C30	C	-1.141818	0.196552	0.000025
C31	C	-1.140055	0.289851	0.000015
C32	C	-1.057701	0.325920	0.000010
C33	C	-0.977106	0.268685	0.000004
C34	C	-0.978870	0.175387	0.000007
C35	C	-0.973434	0.463147	0.000000
C36	C	-0.971670	0.556451	-0.000001
C37	C	-1.134620	0.577611	0.000009
C38	C	-1.136384	0.484314	0.000012
C39	C	-1.055788	0.427084	0.000008
N40	N	-1.056769	-0.123504	-0.235340
C41	C	-1.117488	-0.062766	0.287419
C42	C	-1.117494	-0.062765	0.391522
C43	C	-1.056741	-0.123490	0.443578
C44	C	-0.995972	-0.184213	0.391526
C45	C	-0.995963	-0.184209	0.287425
C46	C	-0.995997	-0.184219	0.608506
C47	C	-0.996007	-0.184225	0.712615
C48	C	-1.117528	-0.062775	0.712603
C49	C	-1.117519	-0.062771	0.608502
C50	C	-1.056751	-0.123496	0.556457
H51	H	-0.785268	-0.127828	-0.163558
H52	H	-0.946483	-0.233652	0.245050
H53	H	-0.946501	-0.233653	0.433916
H54	H	-1.166970	-0.013321	0.433897
Cl55	Cl	-0.873574	0.314029	-0.000015
H56	H	-0.328243	-0.119199	-0.163553
Cl57	Cl	-0.595351	-0.124207	-0.203483
Cl58	Cl	-0.805895	-0.128219	0.203503
Cl59	Cl	-0.595319	-0.124246	0.203501
Cl60	Cl	-1.245355	0.151218	0.000043
H61	H	-0.497479	-0.122391	0.163578
Cl62	Cl	-0.868138	0.601794	-0.000007
Cl63	Cl	-1.193873	0.013575	0.221988
Cl64	Cl	-1.241373	0.361792	0.000022
H65	H	-1.166993	-0.013329	0.566118
Cl66	Cl	-1.239916	0.438971	0.000014
H67	H	-0.328217	-0.119190	0.163578
H68	H	-0.907804	0.416552	-0.000005
H69	H	-1.200244	0.624212	0.000009
Cl70	Cl	-0.877552	0.103442	-0.000000
Cl71	Cl	-1.193921	0.013562	0.778035
Cl72	Cl	-0.919626	-0.260566	0.778049
H73	H	-0.497506	-0.122393	-0.163560
Cl74	Cl	-0.919598	-0.260559	0.543082
