data_functionalizedCrystal
_audit_creation_method	'MofGen! by Chris Wilmer'
_symmetry_space_group_name_H-M	'P1'
_symmetry_Int_Tables_number	1
_symmetry_cell_setting	triclinic
loop_
_symmetry_equiv_pos_as_xyz
  x,y,z
_cell_length_a	17.038272
_cell_length_b	17.019294
_cell_length_c	15.072220
_cell_angle_alpha	86.119892
_cell_angle_beta	89.992913
_cell_angle_gamma	87.244363
loop_
_atom_site_label
_atom_site_type_symbol
_atom_site_fract_x
_atom_site_fract_y
_atom_site_fract_z
O1	O	1.037232	0.171281	-0.086756
O2	O	0.809603	0.168561	-0.086574
O3	O	0.929766	0.055515	-0.077919
O4	O	0.917069	0.284328	-0.095411
O5	O	0.929737	0.055520	0.069646
O6	O	0.809574	0.168566	0.060991
O7	O	1.037202	0.171286	0.060809
Zn8	Zn	0.923383	0.169927	0.084329
Zn9	Zn	0.923422	0.169921	-0.110094
O10	O	0.917039	0.284332	0.052154
C11	C	0.780462	0.166090	-0.012606
C12	C	0.693676	0.158710	-0.012052
C13	C	0.643504	0.226470	-0.017231
C14	C	0.561960	0.219531	-0.016689
C15	C	0.530588	0.144831	-0.010973
C16	C	0.580766	0.077066	-0.005791
C17	C	0.662309	0.084006	-0.006327
C18	C	0.284851	0.120313	-0.009075
C19	C	0.203301	0.113378	-0.008541
C20	C	0.184501	0.255844	-0.019438
C21	C	0.266046	0.262777	-0.019979
C22	C	0.316217	0.195012	-0.014792
C23	C	0.447236	0.137736	-0.010421
C24	C	0.399567	0.202107	-0.015338
C25	C	0.929270	0.026096	-0.001890
C26	C	0.927824	-0.061571	0.004806
C27	C	0.927163	-0.102755	-0.072486
C28	C	0.925800	-0.185127	-0.066192
C29	C	0.925103	-0.226314	0.017394
C30	C	0.925762	-0.185124	0.094691
C31	C	0.927120	-0.102753	0.088397
C32	C	0.920998	-0.475021	0.040424
C33	C	0.919643	-0.557398	0.046713
C34	C	0.919679	-0.557395	-0.114171
C35	C	0.921041	-0.475023	-0.120458
C36	C	0.921696	-0.433840	-0.043161
C37	C	0.923712	-0.310512	0.023829
C38	C	0.923081	-0.349643	-0.049597
C39	C	1.066343	0.173757	-0.013161
C40	C	1.153130	0.181138	-0.013721
C41	C	0.917536	0.313751	-0.023877
C42	C	0.918981	0.401418	-0.030578
N43	N	0.923362	0.169931	0.217017
N44	N	0.923449	0.169911	-0.242782
C45	C	0.923421	0.169917	0.576220
C46	C	0.858908	0.230174	0.534000
C47	C	0.859056	0.230420	0.431155
C48	C	0.923391	0.169924	0.398015
C49	C	1.004944	0.193374	0.433524
C50	C	1.004583	0.193809	0.536348
C51	C	0.907107	0.086068	0.544728
C52	C	0.905235	0.086494	0.441832
C53	C	0.923379	0.169927	0.297302
C54	C	0.923438	0.169917	0.676933
H55	H	0.425113	0.262928	-0.019987
H56	H	0.669040	0.287298	-0.021886
O57	O	0.925024	-0.229550	0.184844
H58	H	0.871154	-0.263635	0.191292
O59	O	0.918955	-0.601810	-0.197540
H60	H	0.971590	-0.642802	-0.198259
O61	O	1.023645	0.275029	0.561918
H62	H	0.978805	0.318940	0.533113
H63	H	0.925265	-0.218656	-0.129131
O64	O	0.918892	-0.601833	0.136866
H65	H	0.865879	-0.582585	0.173960
O66	O	0.921724	-0.430607	0.123790
H67	H	0.921026	-0.473089	0.182967
O68	O	0.507843	0.292613	-0.022274
H69	H	0.543357	0.345722	-0.026349
O70	O	0.830041	0.058008	0.581268
H71	H	0.819897	-0.001218	0.558120
O72	O	1.024467	0.273721	0.393268
H73	H	0.976217	0.297082	0.347972
H74	H	0.291582	0.323605	-0.024644
H75	H	0.923148	-0.344055	0.091886
O76	O	0.825766	0.063085	0.411346
H77	H	0.799305	0.110664	0.365173
H78	H	0.927647	-0.069221	0.151336
H79	H	0.949177	0.039129	0.419749
H80	H	0.923643	-0.316105	-0.117653
H81	H	0.143643	0.311014	-0.023659
H82	H	0.869463	0.292530	0.401795
O83	O	0.546936	-0.003507	0.000378
H84	H	0.481804	0.003049	-0.000128
H85	H	0.921609	-0.441494	-0.188523
O86	O	0.169460	0.032805	-0.002364
H87	H	0.189627	-0.000034	-0.059990
O88	O	0.969377	0.026551	0.581535
H89	H	1.000789	-0.000438	0.525785
H90	H	0.798433	0.215641	0.407067
O91	O	0.778342	0.210833	0.568277
H92	H	0.783416	0.158068	0.615776
O93	O	0.338959	0.047227	-0.003481
H94	H	0.303442	-0.005880	0.000576
H95	H	0.421684	0.076915	-0.005742
H96	H	0.703158	0.028828	-0.002110
H97	H	1.054083	0.151944	0.564429
H98	H	0.869172	0.291929	0.555119
H99	H	0.927734	-0.069227	-0.140551
O100	O	1.070055	0.137096	0.405427
H101	H	1.044920	0.091709	0.365757
