data_functionalizedCrystal
_audit_creation_method	'MofGen! by Chris Wilmer'
_symmetry_space_group_name_H-M	'P1'
_symmetry_Int_Tables_number	1
_symmetry_cell_setting	triclinic
loop_
_symmetry_equiv_pos_as_xyz
  x,y,z
_cell_length_a	19.188925
_cell_length_b	19.188928
_cell_length_c	18.266242
_cell_angle_alpha	89.986251
_cell_angle_beta	90.009988
_cell_angle_gamma	96.856819
loop_
_atom_site_label
_atom_site_type_symbol
_atom_site_fract_x
_atom_site_fract_y
_atom_site_fract_z
O1	O	0.926151	-0.087151	0.060909
O2	O	1.426151	0.412849	0.560909
O3	O	0.722839	-0.098889	0.060908
O4	O	1.222839	0.401111	0.560908
O5	O	0.830363	0.008636	0.060890
O6	O	1.330363	0.508636	0.560890
O7	O	0.818627	-0.194676	0.060927
O8	O	1.318627	0.305324	0.560927
O9	O	0.830345	0.008642	-0.060872
O10	O	1.330345	0.508642	0.439128
O11	O	0.722821	-0.098883	-0.060854
O12	O	1.222821	0.401117	0.439146
O13	O	0.926133	-0.087145	-0.060853
O14	O	1.426133	0.412855	0.439147
Zn15	Zn	0.824474	-0.093013	-0.080186
Zn16	Zn	1.324474	0.406987	0.419814
Zn17	Zn	0.824498	-0.093021	0.080241
Zn18	Zn	1.324498	0.406979	0.580241
O19	O	0.818609	-0.194670	-0.060835
O20	O	1.318609	0.305330	0.439165
C21	C	0.696819	-0.098507	0.000027
C22	C	1.196819	0.401493	0.500027
C23	C	0.619314	-0.097367	0.000026
C24	C	1.119314	0.402633	0.500026
C25	C	0.057543	-0.152832	0.000038
C26	C	0.557543	0.347168	0.500038
C27	C	0.130367	-0.153908	0.000042
C28	C	0.630367	0.346092	0.500042
C29	C	0.175302	-0.090816	0.000029
C30	C	0.675302	0.409184	0.500029
C31	C	0.147408	-0.026642	0.000031
C32	C	0.647408	0.473358	0.500031
C33	C	0.074586	-0.025568	0.000034
C34	C	0.574586	0.474432	0.500034
N35	N	0.295973	-0.045138	-0.041428
N36	N	0.795973	0.454862	0.458572
N37	N	0.365150	-0.046163	-0.041433
N38	N	0.865150	0.453837	0.458567
C39	C	0.394711	-0.094050	0.000021
C40	C	0.894711	0.405950	0.500021
N41	N	0.352479	-0.140884	0.041470
N42	N	0.852479	0.359116	0.541470
N43	N	0.283295	-0.139860	0.041471
N44	N	0.783295	0.360140	0.541471
C45	C	0.254266	-0.091974	0.000026
C46	C	0.754266	0.408026	0.500026
C47	C	0.501559	-0.159387	0.000029
C48	C	1.001559	0.340613	0.500029
C49	C	0.574384	-0.160460	0.000037
C50	C	1.074384	0.339540	0.500037
C51	C	0.591424	-0.033193	0.000019
C52	C	1.091424	0.466807	0.500019
C53	C	0.518601	-0.032121	0.000018
C54	C	1.018601	0.467879	0.500018
C55	C	0.473672	-0.095220	0.000019
C56	C	0.973672	0.404780	0.500019
C57	C	0.829974	0.034650	0.000006
C58	C	1.329974	0.534650	0.500006
C59	C	0.828834	0.112154	-0.000004
C60	C	1.328834	0.612154	0.499996
C61	C	0.891925	0.157080	-0.000009
C62	C	1.391925	0.657080	0.499991
C63	C	0.890854	0.229904	-0.000000
C64	C	1.390854	0.729904	0.500000
C65	C	0.826688	0.257799	-0.000001
C66	C	1.326688	0.757799	0.499999
C67	C	0.763589	0.212864	0.000008
C68	C	1.263589	0.712864	0.500008
C69	C	0.764662	0.140042	0.000007
C70	C	1.264662	0.640042	0.500007
N71	N	0.777636	0.365805	-0.041444
N72	N	1.277636	0.865805	0.458556
N73	N	0.776621	0.434984	-0.041444
N74	N	1.276621	0.934984	0.458556
C75	C	0.823452	0.477208	0.000004
C76	C	1.323452	0.977208	0.500004
N77	N	0.871347	0.447641	0.041444
N78	N	1.371347	0.947641	0.541444
N79	N	0.872364	0.378457	0.041441
N80	N	1.372364	0.878457	0.541441
C81	C	0.825518	0.336761	0.000001
C82	C	1.325518	0.836761	0.500001
C83	C	0.885387	0.601097	0.000010
C84	C	1.385387	1.101097	0.500010
C85	C	0.884313	0.673922	0.000023
C86	C	1.384313	1.173922	0.500023
C87	C	0.757045	0.656881	0.000024
C88	C	1.257045	1.156881	0.500024
C89	C	0.758121	0.584058	0.000018
C90	C	1.258121	1.084058	0.500018
C91	C	0.822293	0.556171	0.000008
C92	C	1.322293	1.056171	0.500008
C93	C	0.952153	-0.087527	0.000029
C94	C	1.452153	0.412473	0.500029
C95	C	1.029658	-0.088667	0.000035
C96	C	1.529658	0.411333	0.500035
C97	C	0.819000	0.779316	0.000040
C98	C	1.319000	1.279316	0.500040
C99	C	0.820146	0.701813	0.000023
C100	C	1.320146	1.201813	0.500023
N101	N	0.824463	-0.093008	-0.189673
N102	N	1.324463	0.406992	0.310327
C103	C	0.872090	-0.045419	-0.227990
C104	C	1.372090	0.454581	0.272010
C105	C	0.872094	-0.045416	-0.304635
C106	C	1.372094	0.454584	0.195365
C107	C	0.824478	-0.093014	-0.342960
C108	C	1.324478	0.406986	0.157040
C109	C	0.776842	-0.140606	-0.304634
C110	C	1.276842	0.359394	0.195366
C111	C	0.776834	-0.140603	-0.227990
C112	C	1.276834	0.359397	0.272010
N113	N	0.815402	-0.154821	-0.463281
N114	N	1.315402	0.345179	0.036719
N115	N	0.815414	-0.154822	-0.536089
N116	N	1.315414	0.345178	-0.036089
C117	C	0.824498	-0.093024	-0.573882
C118	C	1.324498	0.406976	-0.073882
N119	N	0.833584	-0.031223	-0.536117
N120	N	1.333584	0.468777	-0.036117
N121	N	0.833576	-0.031223	-0.463302
N122	N	1.333576	0.468777	0.036698
C123	C	0.824481	-0.093022	-0.426067
C124	C	1.324481	0.406978	0.073933
C125	C	0.872132	-0.045427	-0.695306
C126	C	1.372132	0.454573	-0.195306
C127	C	0.872132	-0.045423	-0.771953
C128	C	1.372132	0.454577	-0.271953
C129	C	0.776883	-0.140619	-0.771950
C130	C	1.276883	0.359381	-0.271950
C131	C	0.776880	-0.140617	-0.695305
C132	C	1.276880	0.359383	-0.195305
C133	C	0.824509	-0.093022	-0.656988
C134	C	1.324509	0.406978	-0.156988
N135	N	0.824515	-0.093020	0.189728
N136	N	1.324515	0.406980	0.689728
H137	H	0.464976	-0.210765	0.000031
H138	H	0.964976	0.289235	0.500031
H139	H	0.910870	-0.006663	-0.196794
H140	H	1.410870	0.493337	0.303206
H141	H	0.495897	0.020129	0.000011
H142	H	0.995897	0.520129	0.500011
H143	H	0.910914	-0.006667	-0.803151
H144	H	1.410914	0.493333	-0.303151
F145	F	0.044908	0.042729	0.000034
F146	F	0.544908	0.542729	0.500034
F147	F	0.726202	-0.191272	-0.812735
F148	F	1.226202	0.308728	-0.312735
F149	F	0.922788	0.005237	-0.345421
F150	F	1.422788	0.505237	0.154579
F151	F	0.604061	-0.228757	0.000047
F152	F	1.104061	0.271243	0.500047
H153	H	0.937640	0.578391	0.000005
H154	H	1.437640	1.078391	0.500005
F155	F	0.922820	0.005230	-0.654526
F156	F	1.422820	0.505230	-0.154526
F157	F	0.639243	0.033955	0.000015
F158	F	1.139243	0.533955	0.500015
H159	H	0.183999	0.024728	0.000022
H160	H	0.683999	0.524728	0.500022
F161	F	0.688754	0.686564	0.000027
F162	F	1.188754	1.186564	0.500027
F163	F	0.960224	0.127404	-0.000004
F164	F	1.460224	0.627404	0.499996
F165	F	0.958008	0.277725	-0.000005
F166	F	1.458008	0.777725	0.499995
F167	F	0.695299	0.242553	0.000012
F168	F	1.195299	0.742553	0.500012
H169	H	0.713283	0.103463	0.000011
H170	H	1.213283	0.603463	0.500011
F171	F	0.726192	-0.191271	-0.654522
F172	F	1.226192	0.308729	-0.154522
H173	H	0.706745	0.547478	0.000018
H174	H	1.206745	1.047478	0.500018
F175	F	0.009731	-0.219987	0.000046
F176	F	0.509731	0.280013	0.500046
F177	F	0.726163	-0.191261	-0.345422
F178	F	1.226163	0.308739	0.154578
F179	F	0.160052	-0.222204	0.000043
F180	F	0.660052	0.277796	0.500043
H181	H	0.935692	0.710501	0.000023
H182	H	1.435692	1.210501	0.500023
F183	F	0.726141	-0.191256	-0.187209
F184	F	1.226141	0.308744	0.312791
