data_functionalizedCrystal
_audit_creation_method	'MofGen! by Chris Wilmer'
_symmetry_space_group_name_H-M	'P1'
_symmetry_Int_Tables_number	1
_symmetry_cell_setting	triclinic
loop_
_symmetry_equiv_pos_as_xyz
  x,y,z
_cell_length_a	13.033290
_cell_length_b	13.033615
_cell_length_c	13.032268
_cell_angle_alpha	90.919108
_cell_angle_beta	74.844058
_cell_angle_gamma	90.902053
loop_
_atom_site_label
_atom_site_type_symbol
_atom_site_fract_x
_atom_site_fract_y
_atom_site_fract_z
Zn1	Zn	1.474966	-0.644211	0.321585
Zn2	Zn	1.480459	-0.794977	0.127013
Zn3	Zn	1.324221	-0.605970	0.170878
Zn4	Zn	1.280386	-0.794905	0.327145
O5	O	1.390008	-0.710016	0.236656
O6	O	1.622513	-0.680245	0.275091
O7	O	1.480378	-0.753931	-0.013995
O8	O	1.360264	-0.468876	0.206901
O9	O	1.626549	-0.791012	0.132139
O10	O	1.471016	-0.496972	0.317625
O11	O	1.365591	-0.615068	0.018232
O12	O	1.171588	-0.614998	0.212292
O13	O	1.285553	-0.790889	0.473235
O14	O	1.139382	-0.753808	0.327100
O15	O	1.428510	-0.680175	0.469150
O16	O	1.437872	-0.937134	0.137530
O17	O	1.290879	-0.937081	0.284566
C18	C	1.117416	-0.680246	0.275060
C19	C	1.000794	-0.667538	0.291512
C20	C	1.360240	-0.973975	0.206911
C21	C	1.347597	-1.086912	0.194207
C22	C	1.351529	-0.739790	0.510328
C23	C	1.335132	-0.752478	0.626950
C24	C	1.663664	-0.739902	0.198102
C25	C	1.780280	-0.752638	0.181672
C26	C	1.830274	-0.703511	0.245077
C27	C	1.950803	-0.716672	0.228098
C28	C	1.419917	-0.445031	0.266536
C29	C	1.432662	-0.332111	0.279269
C30	C	1.383547	-0.267866	0.230162
C31	C	1.396719	-0.151156	0.243321
C32	C	1.428406	-0.680291	-0.035952
C33	C	1.445038	-0.667339	-0.152571
C34	C	1.398554	-0.703356	0.676924
C35	C	1.381608	-0.716468	0.797459
H36	H	1.783844	-0.651711	0.311934
H37	H	1.295785	-0.118307	0.142426
H38	H	1.448519	-0.119761	0.295114
H39	H	1.484459	-0.300711	0.331058
N40	N	1.841765	-0.821265	0.093118
H41	H	1.919152	-0.820941	0.093542
H42	H	1.834989	-0.795228	0.022637
H43	H	1.314754	-0.768227	0.843909
N44	N	1.533583	-0.598758	0.785920
H45	H	1.533138	-0.599107	0.708532
H46	H	1.604064	-0.624815	0.792678
N47	N	1.246572	-0.821030	0.688472
H48	H	1.247015	-0.820674	0.765860
H49	H	1.257367	-0.893311	0.658899
N50	N	1.314936	-0.309446	0.161557
H51	H	1.239744	-0.284619	0.190470
H52	H	1.315343	-0.386921	0.161902
N53	N	1.487120	-0.634812	0.615400
H54	H	1.486683	-0.635174	0.538011
H55	H	1.557584	-0.660901	0.622173
H56	H	1.997226	-0.768486	0.161246
N57	N	1.939312	-0.598918	0.380081
H58	H	1.861925	-0.599243	0.379661
H59	H	1.968894	-0.526655	0.369262
