data_functionalizedCrystal
_audit_creation_method	'MofGen! by Chris Wilmer'
_symmetry_space_group_name_H-M	'P1'
_symmetry_Int_Tables_number	1
_symmetry_cell_setting	triclinic
loop_
_symmetry_equiv_pos_as_xyz
  x,y,z
_cell_length_a	12.837932
_cell_length_b	11.295483
_cell_length_c	12.837942
_cell_angle_alpha	85.469583
_cell_angle_beta	85.170678
_cell_angle_gamma	85.460332
loop_
_atom_site_label
_atom_site_type_symbol
_atom_site_fract_x
_atom_site_fract_y
_atom_site_fract_z
O1	O	1.408693	-0.099027	-0.265796
O2	O	1.105559	-0.099029	-0.252351
O3	O	1.250404	-0.099021	-0.107507
O4	O	1.263848	-0.099035	-0.410640
O5	O	1.237680	0.099030	-0.120208
O6	O	1.092835	0.099021	-0.265051
O7	O	1.395969	0.099023	-0.278497
Cu8	Cu	1.243240	0.117106	-0.272933
Cu9	Cu	1.258288	-0.117111	-0.257914
O10	O	1.251124	0.099015	-0.423340
C11	C	1.060128	-0.000004	-0.254159
C12	C	0.943713	-0.000004	-0.240614
C13	C	1.239500	0.000004	-0.074788
C14	C	1.225956	0.000002	0.041627
C15	C	0.782686	0.000003	-0.127402
C16	C	0.892069	0.000002	-0.140122
C17	C	0.885965	-0.000006	-0.328393
C18	C	0.776583	-0.000005	-0.315673
C19	C	0.724947	-0.000002	-0.215174
C20	C	0.615563	-0.000010	-0.202454
C21	C	0.609461	-0.000010	-0.390725
C22	C	0.718844	-0.000011	-0.403445
C23	C	1.441400	-0.000004	-0.276688
C24	C	1.557816	-0.000012	-0.290233
N25	N	1.232664	0.281841	-0.283497
N26	N	1.268871	-0.281847	-0.247343
C27	C	1.344999	0.531137	-0.171239
C28	C	1.337015	0.655801	-0.179230
C29	C	1.208705	0.655833	-0.307466
C30	C	1.216690	0.531170	-0.299474
C31	C	1.284840	0.468826	-0.231360
C32	C	1.292830	0.344161	-0.223374
C33	C	1.164515	0.344196	-0.351604
C34	C	1.156531	0.468859	-0.359595
C35	C	1.262027	-0.000012	-0.456059
C36	C	1.275572	-0.000018	-0.572474
C37	C	1.388787	-0.000022	0.266502
C38	C	1.376066	-0.000024	0.375884
C39	C	1.187794	-0.000013	0.369778
C40	C	1.200515	-0.000011	0.260395
C41	C	1.301015	-0.000014	0.208761
C42	C	1.313735	-0.000003	0.099376
C43	C	1.125464	-0.000000	0.093271
C44	C	1.112743	-0.000002	0.202654
H45	H	0.740644	-0.000006	-0.045571
C46	C	1.471033	0.543621	-0.045292
C47	C	1.419910	0.462601	-0.096373
H48	H	1.517275	0.501308	0.000932
H49	H	1.509876	0.592230	-0.095725
H50	H	1.420615	0.592260	-0.006424
H51	H	1.470328	0.413968	-0.135247
H52	H	1.381065	0.413972	-0.045933
C53	C	1.430740	0.101802	-0.026608
C54	C	1.424202	-0.000010	0.042619
H55	H	1.498943	0.101796	-0.061638
H56	H	1.380297	0.101802	-0.076651
H57	H	1.417430	0.170858	0.011524
H58	H	1.437505	-0.069066	0.004486
H59	H	1.474661	-0.000020	0.092669
C60	C	1.087323	0.659975	-0.428790
C61	C	1.081628	0.537395	-0.434469
H62	H	1.041086	0.702281	-0.475023
H63	H	1.067735	0.680402	-0.359114
H64	H	1.157010	0.680375	-0.448401
H65	H	1.011942	0.516993	-0.414850
H66	H	1.101209	0.516959	-0.504161
H67	H	0.573523	-0.000012	-0.120623
C68	C	1.123407	0.305839	-0.524272
C69	C	1.098384	0.275705	-0.417700
H70	H	1.082587	0.263550	-0.565076
H71	H	1.108894	0.388997	-0.538764
H72	H	1.195709	0.285387	-0.541252
H73	H	1.026083	0.296165	-0.400718
H74	H	1.112888	0.192528	-0.403201
C75	C	1.573609	-0.000035	0.283520
C76	C	1.499252	-0.000029	0.209738
H77	H	1.641806	-0.000048	0.248476
H78	H	1.560300	0.069027	0.321625
H79	H	1.569158	-0.069102	0.330487
H80	H	1.503697	0.069044	0.162776
H81	H	1.512565	-0.069098	0.171615
C82	C	1.062452	0.000006	-0.076024
C83	C	0.955538	0.000005	-0.043641
H84	H	1.101633	0.000015	-0.016457
H85	H	1.083555	-0.069057	-0.112350
H86	H	1.074678	0.069073	-0.121216
H87	H	0.943312	-0.069067	0.001544
H88	H	0.934429	0.069074	-0.007299
C89	C	0.938081	0.000023	0.098226
C90	C	1.028974	0.000015	0.029801
H91	H	0.878515	0.000044	0.059039
H92	H	0.941465	-0.069043	0.145433
H93	H	0.932613	0.069086	0.136599
H94	H	1.034446	-0.069054	-0.008567
H95	H	1.025589	0.069088	-0.017425
C96	C	1.477521	-0.101847	0.508952
C97	C	1.472549	-0.000033	0.439353
H98	H	1.537093	-0.101856	0.548128
H99	H	1.415859	-0.101834	0.555357
H100	H	1.483002	-0.170902	0.470566
H101	H	1.467060	0.069022	0.477739
H102	H	1.534227	-0.000036	0.392942
H103	H	0.928025	0.000002	-0.410215
H104	H	1.105972	-0.000023	0.411838
H105	H	0.760900	-0.000009	-0.485269
C106	C	1.009643	0.000007	0.367619
C107	C	1.002277	0.000009	0.259416
H108	H	0.941443	0.000025	0.402657
H109	H	1.050658	-0.069060	0.391218
H110	H	1.041811	0.069069	0.382364
H111	H	0.970117	-0.069058	0.244670
H112	H	0.961246	0.069083	0.235809
H113	H	1.348324	0.293402	-0.167915
H114	H	0.562438	-0.000015	-0.462195
H115	H	1.386001	0.706531	-0.130272
H116	H	1.153212	0.706610	-0.362915
