data_functionalizedCrystal
_audit_creation_method	'MofGen! by Chris Wilmer'
_symmetry_space_group_name_H-M	'P1'
_symmetry_Int_Tables_number	1
_symmetry_cell_setting	triclinic
loop_
_symmetry_equiv_pos_as_xyz
  x,y,z
_cell_length_a	10.723023
_cell_length_b	10.723024
_cell_length_c	9.130313
_cell_angle_alpha	89.999893
_cell_angle_beta	89.999886
_cell_angle_gamma	84.467709
loop_
_atom_site_label
_atom_site_type_symbol
_atom_site_fract_x
_atom_site_fract_y
_atom_site_fract_z
O1	O	1.657182	0.175017	-0.121791
O2	O	2.157182	0.675017	0.378209
O3	O	1.294029	0.191771	-0.121795
O4	O	1.794029	0.691771	0.378205
O5	O	1.483982	0.001818	-0.121787
O6	O	1.983982	0.501818	0.378213
O7	O	1.467229	0.364970	-0.121798
O8	O	1.967229	0.864970	0.378202
O9	O	1.483980	0.001823	0.121811
O10	O	1.983980	0.501823	0.621811
O11	O	1.294027	0.191776	0.121804
O12	O	1.794027	0.691776	0.621804
O13	O	1.657180	0.175022	0.121808
O14	O	2.157180	0.675022	0.621808
Cu15	Cu	1.475603	0.183400	0.144048
Cu16	Cu	1.975603	0.683400	0.644048
Cu17	Cu	1.475606	0.183394	-0.144035
Cu18	Cu	1.975606	0.683394	0.355965
O19	O	1.467227	0.364975	0.121800
O20	O	1.967227	0.864975	0.621800
C21	C	1.247529	0.190555	0.000004
C22	C	1.747529	0.690555	0.500004
C23	C	1.108974	0.186908	0.000003
C24	C	1.608974	0.686908	0.500003
C25	C	1.482762	-0.044679	0.000010
C26	C	1.982762	0.455321	0.500010
C27	C	1.479114	-0.183233	0.000005
C28	C	1.979114	0.316767	0.500005
C29	C	0.904005	0.181515	0.126189
C30	C	1.404005	0.681515	0.626189
C31	C	1.047208	0.185284	0.126193
C32	C	1.547208	0.685284	0.626193
C33	C	1.585402	-0.258216	0.000004
C34	C	2.085402	0.241784	0.500004
C35	C	1.581634	-0.401420	-0.000001
C36	C	2.081634	0.098580	0.499999
C37	C	1.703680	0.176239	0.000005
C38	C	2.203680	0.676239	0.500005
C39	C	1.842235	0.179886	-0.000003
C40	C	2.342235	0.679886	0.499997
C41	C	1.468447	0.411473	-0.000001
C42	C	1.968447	0.911473	0.499999
C43	C	1.472095	0.550027	-0.000005
C44	C	1.972095	1.050027	0.499995
N45	N	1.475610	0.183403	0.346671
N46	N	1.975610	0.683403	0.846671
N47	N	1.475609	0.183380	-0.346658
N48	N	1.975609	0.683380	0.153342
C49	C	1.559743	0.099321	0.423326
C50	C	2.059743	0.599321	0.923326
C51	C	1.559740	0.099306	0.576663
C52	C	2.059740	0.599306	1.076663
C53	C	1.391467	0.267467	0.576676
C54	C	1.891467	0.767467	1.076676
C55	C	1.391465	0.267475	0.423342
C56	C	1.891465	0.767475	0.923342
C57	C	1.656898	0.002238	0.423320
C58	C	2.156898	0.502238	0.923320
C59	C	1.656895	0.002223	0.576657
C60	C	2.156895	0.502223	1.076657
H61	H	0.850871	0.180125	0.234223
H62	H	1.350871	0.680125	0.734223
H63	H	1.752788	0.023590	0.618273
H64	H	2.252788	0.523590	1.118273
H65	H	1.679188	-0.216394	0.000014
H66	H	2.179188	0.283606	0.500014
H67	H	1.055862	0.185504	-0.108040
H68	H	1.555862	0.685504	0.391960
Cl69	Cl	1.624024	-0.145841	0.359054
Cl70	Cl	2.124024	0.354159	0.859054
H71	H	1.672625	-0.465852	0.000004
H72	H	2.172625	0.034148	0.500004
Cl73	Cl	1.331599	-0.350508	0.000008
Cl74	Cl	1.831599	0.149492	0.500008
H75	H	0.895367	0.181290	-0.108037
H76	H	1.395367	0.681290	0.391963
Cl77	Cl	1.129217	0.187437	0.293004
Cl78	Cl	1.629217	0.687437	0.793004
Cl79	Cl	1.285679	0.373164	0.326974
Cl80	Cl	1.785679	0.873164	0.826974
H81	H	1.385328	-0.225055	-0.000005
H82	H	1.885328	0.274945	0.499995
Cl83	Cl	1.796765	0.049157	0.349881
Cl84	Cl	2.296765	0.549157	0.849881
H85	H	1.626590	-0.088414	0.624206
H86	H	2.126590	0.411586	1.124206
Cl87	Cl	1.285689	0.373151	0.673071
Cl88	Cl	1.785689	0.873151	1.173071
