data_functionalizedCrystal
_audit_creation_method	'MofGen! by Chris Wilmer'
_symmetry_space_group_name_H-M	'P1'
_symmetry_Int_Tables_number	1
_symmetry_cell_setting	triclinic
loop_
_symmetry_equiv_pos_as_xyz
  x,y,z
_cell_length_a	12.759401
_cell_length_b	18.215405
_cell_length_c	18.215399
_cell_angle_alpha	90.030551
_cell_angle_beta	89.983502
_cell_angle_gamma	89.974954
loop_
_atom_site_label
_atom_site_type_symbol
_atom_site_fract_x
_atom_site_fract_y
_atom_site_fract_z
Zn1	Zn	1.606160	0.292989	-0.416037
Zn2	Zn	1.939494	0.626322	-0.082704
Zn3	Zn	2.272827	0.959655	0.250630
Zn4	Zn	1.606030	0.416060	-0.292965
Zn5	Zn	1.939363	0.749393	0.040368
Zn6	Zn	2.272696	1.082727	0.373701
Zn7	Zn	1.430468	0.293012	-0.292992
Zn8	Zn	1.763802	0.626345	0.040342
Zn9	Zn	2.097135	0.959679	0.373675
Zn10	Zn	1.430420	0.416018	-0.415997
Zn11	Zn	1.763753	0.749352	-0.082664
Zn12	Zn	2.097086	1.082685	0.250669
O13	O	1.518269	0.354520	-0.354498
O14	O	1.851603	0.687853	-0.021164
O15	O	2.184936	1.021186	0.312169
O16	O	1.753164	0.309322	-0.399717
O17	O	2.086497	0.642655	-0.066384
O18	O	2.419831	0.975989	0.266950
O19	O	1.582707	0.399765	-0.189984
O20	O	1.916040	0.733098	0.143349
O21	O	2.249373	1.066431	0.476682
O22	O	1.453849	0.190025	-0.309342
O23	O	1.787183	0.523358	0.023992
O24	O	2.120516	0.856691	0.357325
O25	O	1.753068	0.399742	-0.309297
O26	O	2.086401	0.733075	0.024037
O27	O	2.419735	1.066409	0.357370
O28	O	1.582929	0.190008	-0.399743
O29	O	1.916263	0.523341	-0.066409
O30	O	2.249596	0.856674	0.266924
O31	O	1.453723	0.309362	-0.190004
O32	O	1.787056	0.642695	0.143330
O33	O	2.120389	0.976029	0.476663
O34	O	1.283441	0.309322	-0.309303
O35	O	1.616774	0.642655	0.024030
O36	O	1.950108	0.975988	0.357364
O37	O	1.453766	0.399671	-0.518987
O38	O	1.787100	0.733004	-0.185654
O39	O	2.120433	1.066338	0.147680
O40	O	1.283405	0.399694	-0.399675
O41	O	1.616738	0.733027	-0.066341
O42	O	1.950072	1.066360	0.266992
O43	O	1.582882	0.309282	-0.519016
O44	O	1.916216	0.642615	-0.185683
O45	O	2.249549	0.975948	0.147651
O46	O	1.582659	0.519039	-0.309258
O47	O	1.915993	0.852372	0.024075
O48	O	2.249326	1.185705	0.357409
O49	O	1.453640	0.519008	-0.399649
O50	O	1.786973	0.852342	-0.066316
O51	O	2.120306	1.185675	0.267018
C52	C	1.245302	0.354506	-0.354488
C53	C	1.578635	0.687840	-0.021154
C54	C	1.911969	1.021173	0.312179
C55	C	1.128525	0.354518	-0.354501
C56	C	1.461859	0.687852	-0.021168
C57	C	1.795192	1.021185	0.312166
C58	C	1.518333	0.354469	-0.546451
C59	C	1.851667	0.687802	-0.213117
C60	C	2.185000	1.021136	0.120216
C61	C	1.518361	0.354447	-0.628250
C62	C	1.851694	0.687781	-0.294916
C63	C	2.185027	1.021114	0.038417
C64	C	1.518159	0.545726	-0.354462
C65	C	1.851492	0.879059	-0.021129
C66	C	2.184825	1.212393	0.312204
C67	C	1.518207	0.627525	-0.354472
C68	C	1.851540	0.960858	-0.021139
C69	C	2.184874	1.294192	0.312195
C70	C	1.073672	0.401650	-0.401480
C71	C	1.407006	0.734984	-0.068146
C72	C	1.740339	1.068317	0.265187
C73	C	0.963948	0.401660	-0.401488
C74	C	1.297282	0.734993	-0.068154
C75	C	1.630615	1.068326	0.265179
C76	C	0.963940	0.307403	-0.307532
C77	C	1.297274	0.640736	0.025801
C78	C	1.630607	0.974069	0.359135
C79	C	1.073662	0.307390	-0.307528
C80	C	1.406996	0.640724	0.025805
C81	C	1.740329	0.974057	0.359138
C82	C	1.128535	0.448778	-0.448452
C83	C	1.461869	0.782112	-0.115119
C84	C	1.795202	1.115445	0.218214
C85	C	1.073682	0.495915	-0.495434
C86	C	1.407016	0.829248	-0.162101
C87	C	1.740349	1.162581	0.171232
C88	C	0.963958	0.495924	-0.495442
C89	C	1.297291	0.829257	-0.162109
C90	C	1.630625	1.162591	0.171224
C91	C	0.909087	0.448797	-0.448468
C92	C	1.242421	0.782130	-0.115135
C93	C	1.575754	1.115464	0.218198
C94	C	1.792303	0.354534	-0.354508
C95	C	2.125636	0.687867	-0.021175
C96	C	2.458969	1.021201	0.312158
C97	C	1.909079	0.354540	-0.354513
C98	C	2.242413	0.687873	-0.021179
C99	C	2.575746	1.021207	0.312154
C100	C	1.518409	0.162567	-0.354549
C101	C	1.851743	0.495900	-0.021216
C102	C	2.185076	0.829234	0.312117
C103	C	1.518469	0.080768	-0.354571
C104	C	1.851802	0.414101	-0.021238
C105	C	2.185136	0.747435	0.312095
C106	C	1.585546	0.815710	-0.307492
C107	C	1.918879	1.149044	0.025842
C108	C	2.252212	1.482377	0.359175
C109	C	1.585592	0.892569	-0.307510
C110	C	1.918926	1.225902	0.025824
C111	C	2.252259	1.559236	0.359157
C112	C	1.451128	0.892577	-0.401557
C113	C	1.784461	1.225911	-0.068223
C114	C	2.117794	1.559244	0.265110
C115	C	1.451087	0.815720	-0.401542
C116	C	1.784420	1.149053	-0.068209
C117	C	2.117754	1.482387	0.265125
C118	C	1.518294	0.777288	-0.354505
C119	C	1.851628	1.110622	-0.021172
C120	C	2.184961	1.443955	0.312161
C121	C	1.518382	0.931004	-0.354538
C122	C	1.851715	1.264338	-0.021205
C123	C	2.185049	1.597671	0.312129
C124	C	1.518433	1.014338	-0.354558
C125	C	1.851766	1.347671	-0.021224
C126	C	2.185099	1.681005	0.312109
C127	C	1.518245	0.693949	-0.354487
C128	C	1.851579	1.027283	-0.021153
C129	C	2.184912	1.360616	0.312180
C130	C	1.585616	0.307338	-0.816460
C131	C	1.918949	0.640671	-0.483127
C132	C	2.252282	0.974004	-0.149794
C133	C	1.585628	0.307316	-0.893319
C134	C	1.918961	0.640650	-0.559986
C135	C	2.252295	0.973983	-0.226652
C136	C	1.451180	0.401443	-0.893277
C137	C	1.784514	0.734777	-0.559944
C138	C	2.117847	1.068110	-0.226611
C139	C	1.451163	0.401461	-0.816420
C140	C	1.784497	0.734794	-0.483087
C141	C	2.117830	1.068127	-0.149753
C142	C	1.518387	0.354409	-0.778013
C143	C	1.851720	0.687742	-0.444680
C144	C	2.185053	1.021075	-0.111347
C145	C	1.518416	0.354370	-0.931729
C146	C	1.851750	0.687704	-0.598396
C147	C	2.185083	1.021037	-0.265063
C148	C	1.518429	0.354347	-1.015063
C149	C	1.851763	0.687681	-0.681730
C150	C	2.185096	1.021014	-0.348397
C151	C	1.518373	0.354431	-0.694674
C152	C	1.851706	0.687764	-0.361341
C153	C	2.185039	1.021097	-0.028008
C154	C	1.518266	0.354517	-0.163292
C155	C	1.851599	0.687851	0.170042
C156	C	2.184933	1.021184	0.503375
C157	C	1.518442	0.354332	-0.081493
C158	C	1.851776	0.687665	0.251840
C159	C	2.185109	1.020998	0.585174
H160	H	1.217878	0.448777	-0.448450
H161	H	1.551212	0.782111	-0.115117
H162	H	1.884545	1.115444	0.218217
H163	H	1.640371	0.268985	-0.924619
H164	H	1.973704	0.602318	-0.591286
H165	H	2.307037	0.935652	-0.257952
H166	H	1.396410	0.439791	-0.785116
H167	H	1.729743	0.773124	-0.451782
H168	H	2.063077	1.106458	-0.118449
H169	H	1.640271	0.784421	-0.269193
H170	H	1.973605	1.117755	0.064141
H171	H	2.306938	1.451088	0.397474
Cl172	Cl	1.366681	0.460595	-0.941565
Cl173	Cl	1.700014	0.793928	-0.608232
Cl174	Cl	2.033348	1.127261	-0.274898
Cl175	Cl	1.670144	0.940868	-0.248406
Cl176	Cl	2.003477	1.274201	0.084927
Cl177	Cl	2.336811	1.607534	0.418261
Cl178	Cl	1.366640	0.940896	-0.460683
Cl179	Cl	1.699973	1.274230	-0.127349
Cl180	Cl	2.033307	1.607563	0.205984
Cl181	Cl	1.366541	0.767414	-0.460654
Cl182	Cl	1.699874	1.100748	-0.127321
Cl183	Cl	2.033208	1.434081	0.206013
H184	H	1.640350	0.269023	-0.785192
H185	H	1.973684	0.602356	-0.451858
H186	H	2.307017	0.935690	-0.118525
H187	H	0.919300	0.534300	-0.533703
H188	H	1.252633	0.867633	-0.200369
H189	H	1.585966	1.200966	0.132964
H190	H	1.118365	0.534279	-0.533683
H191	H	1.451699	0.867613	-0.200350
H192	H	1.785032	1.200946	0.132983
H193	H	1.118325	0.269006	-0.269279
H194	H	1.451658	0.602339	0.064054
H195	H	1.784991	0.935672	0.397387
H196	H	0.919256	0.269035	-0.269287
H197	H	1.252589	0.602368	0.064046
H198	H	1.585922	0.935701	0.397379
Cl199	Cl	0.771147	0.448805	-0.448486
Cl200	Cl	1.104480	0.782138	-0.115153
Cl201	Cl	1.437814	1.115471	0.218180
