data_functionalizedCrystal
_audit_creation_method	'MofGen! by Chris Wilmer'
_symmetry_space_group_name_H-M	'P1'
_symmetry_Int_Tables_number	1
_symmetry_cell_setting	triclinic
loop_
_symmetry_equiv_pos_as_xyz
  x,y,z
_cell_length_a	13.262390
_cell_length_b	10.540510
_cell_length_c	11.804365
_cell_angle_alpha	101.952739
_cell_angle_beta	62.657606
_cell_angle_gamma	84.472352
loop_
_atom_site_label
_atom_site_type_symbol
_atom_site_fract_x
_atom_site_fract_y
_atom_site_fract_z
O1	O	1.519423	0.018651	-0.591143
O2	O	1.191426	0.064618	-0.484910
O3	O	1.362925	-0.143740	-0.540455
O4	O	1.347924	0.227009	-0.535598
O5	O	1.317775	-0.088939	-0.327776
O6	O	1.146276	0.119419	-0.272231
O7	O	1.474274	0.073452	-0.378464
Cu8	Cu	1.306152	0.101439	-0.305928
Cu9	Cu	1.359547	0.036631	-0.557446
O10	O	1.302774	0.281810	-0.322919
C11	C	1.126851	0.094482	-0.364968
C12	C	1.001706	0.101806	-0.324436
C13	C	0.747400	0.002943	-0.673928
C14	C	0.864981	-0.003945	-0.712012
C15	C	0.899168	0.022492	-0.615121
C16	C	0.815762	0.055819	-0.480140
C17	C	0.698171	0.062699	-0.442052
C18	C	0.849939	0.082248	-0.383246
C19	C	0.766533	0.115575	-0.248264
C20	C	0.648954	0.122453	-0.210183
C21	C	0.614766	0.096016	-0.307074
C22	C	0.967531	0.075368	-0.421333
C23	C	0.918302	0.135123	-0.189458
C24	C	0.800721	0.142012	-0.151374
C25	C	1.339233	-0.163545	-0.433756
C26	C	1.335890	-0.304200	-0.432681
C27	C	1.454926	-0.532104	-0.470781
C28	C	1.458597	-0.385950	-0.472423
C29	C	1.298858	-0.374677	-0.533784
C30	C	1.296179	-0.521223	-0.533005
C31	C	1.242280	-0.458486	-0.290322
C32	C	1.247761	-0.312249	-0.290608
C33	C	1.538848	0.043588	-0.498409
C34	C	1.663995	0.036261	-0.538950
C35	C	1.326467	0.301614	-0.429621
C36	C	1.329812	0.442267	-0.430704
N37	N	1.268606	0.147020	-0.129027
N38	N	1.397102	-0.008961	-0.734350
C39	C	1.487266	-0.118443	0.174102
C40	C	1.515668	-0.152931	0.040241
C41	C	1.453905	-0.077946	-0.002083
C42	C	1.363734	0.031532	0.089468
C43	C	1.335335	0.066030	0.223340
C44	C	1.301974	0.106527	0.047155
C45	C	1.211803	0.216005	0.138706
C46	C	1.183408	0.250496	0.272564
C47	C	1.245172	0.175512	0.314888
C48	C	1.330373	0.072029	-0.086717
C49	C	1.178442	0.256502	-0.037479
C50	C	1.150040	0.290990	0.096382
H51	H	1.035429	0.048236	-0.531236
H52	H	1.526544	-0.384403	-0.575642
H53	H	0.994909	0.016883	-0.646138
H54	H	0.732796	0.169147	-0.041470
H55	H	0.946135	0.156649	-0.110561
H56	H	0.932883	-0.031087	-0.821914
H57	H	1.403790	-0.017108	-0.161246
H58	H	1.489264	-0.338536	-0.401284
H59	H	1.484242	-0.555859	-0.399168
H60	H	0.519024	0.101627	-0.276072
H61	H	1.128151	0.317564	-0.071937
H62	H	1.520841	-0.602143	-0.572779
O63	O	1.138964	-0.242000	-0.247012
C64	C	1.062875	-0.251998	-0.119421
H65	H	1.115108	-0.277202	-0.069612
H66	H	1.014357	-0.333656	-0.128781
C67	C	0.910588	-0.087609	-0.095863
C68	C	0.974740	-0.118554	-0.034682
H69	H	0.856218	-0.005298	-0.043593
H70	H	0.961848	-0.080876	-0.181826
H71	H	0.870167	-0.155667	-0.103660
H72	H	1.015171	-0.050505	-0.026902
H73	H	0.923485	-0.125273	0.051284
H74	H	1.477034	-0.106031	-0.111079
H75	H	1.358379	-0.588640	-0.637693
H76	H	1.209481	-0.320434	-0.509042
O77	O	0.714274	-0.022972	-0.768095
C78	C	0.769893	-0.153615	-0.851804
H79	H	0.796132	-0.215472	-0.797133
H80	H	0.850801	-0.151184	-0.945330
C81	C	0.653683	-0.140076	-0.957904
C82	C	0.685902	-0.216053	-0.890752
H83	H	0.601877	-0.178590	-0.981934
H84	H	0.616214	-0.052057	-0.901511
H85	H	0.721115	-0.138056	-1.035834
H86	H	0.618472	-0.218058	-0.812815
H87	H	0.723358	-0.304074	-0.947132
O88	O	0.568063	0.154657	-0.079028
C89	C	0.593707	0.060331	-0.021667
H90	H	0.690044	0.009902	-0.083574
H91	H	0.539268	-0.017526	-0.018996
C92	C	0.446798	0.192525	0.197043
C93	C	0.565123	0.130595	0.121014
H94	H	0.429162	0.235865	0.285058
H95	H	0.429518	0.256073	0.158399
H96	H	0.401446	0.127633	0.199255
H97	H	0.610473	0.195489	0.118790
H98	H	0.582411	0.067060	0.159662
H99	H	1.537551	-0.179480	0.208571
O100	O	1.188183	-0.540862	-0.504322
C101	C	1.196425	-0.640120	-0.610565
H102	H	1.288009	-0.705662	-0.669679
H103	H	1.177254	-0.591442	-0.678338
C104	C	0.995128	-0.645263	-0.482607
C105	C	1.107610	-0.725770	-0.555206
H106	H	0.940339	-0.698093	-0.448462
H107	H	0.989573	-0.578388	-0.411031
H108	H	0.979168	-0.604703	-0.539097
H109	H	1.123573	-0.766315	-0.498713
H110	H	1.113165	-0.792655	-0.626772
H111	H	1.149977	-0.472248	-0.259664
H112	H	1.361667	-0.370980	-0.638294
H113	H	1.261732	-0.480408	-0.210894
O114	O	1.603075	-0.259550	-0.048381
C115	C	1.576563	-0.375038	-0.009026
H116	H	1.478472	-0.358929	0.056908
H117	H	1.622071	-0.396969	0.048763
C118	C	1.739108	-0.513113	-0.214149
C119	C	1.618630	-0.493332	-0.133177
H120	H	1.765061	-0.586084	-0.290729
H121	H	1.756973	-0.435307	-0.240661
H122	H	1.777016	-0.531382	-0.165976
H123	H	1.580724	-0.475047	-0.181344
H124	H	1.600760	-0.571138	-0.106675
H125	H	1.274394	-0.264543	-0.215566
O126	O	1.062310	0.397209	0.185313
C127	C	0.957515	0.376863	0.188795
H128	H	0.963973	0.265855	0.152425
H129	H	0.941439	0.429745	0.121650
C130	C	0.848101	0.569496	0.377098
C131	C	0.856030	0.433153	0.332439
H132	H	0.785499	0.604223	0.465702
H133	H	0.918704	0.583207	0.374750
H134	H	0.834710	0.613547	0.321132
H135	H	0.869435	0.389103	0.388394
H136	H	0.785427	0.419436	0.334799
H137	H	1.222043	0.203587	0.423888
H138	H	1.109995	0.339649	0.347103
