data_functionalizedCrystal
_audit_creation_method	'MofGen! by Chris Wilmer'
_symmetry_space_group_name_H-M	'P1'
_symmetry_Int_Tables_number	1
_symmetry_cell_setting	triclinic
loop_
_symmetry_equiv_pos_as_xyz
  x,y,z
_cell_length_a	14.519731
_cell_length_b	16.109301
_cell_length_c	15.186229
_cell_angle_alpha	90.000638
_cell_angle_beta	89.995270
_cell_angle_gamma	96.424833
loop_
_atom_site_label
_atom_site_type_symbol
_atom_site_fract_x
_atom_site_fract_y
_atom_site_fract_z
O1	O	0.118539	-1.103344	-0.073175
O2	O	0.451872	-0.770011	0.260158
O3	O	0.785205	-0.436677	0.593492
O4	O	0.133291	-0.861309	-0.073189
O5	O	0.466624	-0.527975	0.260144
O6	O	0.799957	-0.194642	0.593478
O7	O	-0.008336	-0.988734	-0.073174
O8	O	0.324997	-0.655401	0.260160
O9	O	0.658331	-0.322068	0.593493
O10	O	0.260165	-0.975918	-0.073190
O11	O	0.593499	-0.642585	0.260143
O12	O	0.926832	-0.309252	0.593476
O13	O	-0.008338	-0.988726	0.073284
O14	O	0.324995	-0.655392	0.406617
O15	O	0.658329	-0.322059	0.739950
O16	O	0.133289	-0.861300	0.073268
O17	O	0.466622	-0.527967	0.406602
O18	O	0.799955	-0.194633	0.739935
O19	O	0.118537	-1.103335	0.073282
O20	O	0.451870	-0.770002	0.406616
O21	O	0.785203	-0.436669	0.739949
Zn22	Zn	0.125912	-0.982316	0.096529
Zn23	Zn	0.459246	-0.648983	0.429862
Zn24	Zn	0.792579	-0.315650	0.763195
Zn25	Zn	0.125915	-0.982328	-0.096435
Zn26	Zn	0.459248	-0.648994	0.236898
Zn27	Zn	0.792582	-0.315661	0.570231
O28	O	0.260163	-0.975910	0.073267
O29	O	0.593497	-0.642576	0.406600
O30	O	0.926830	-0.309243	0.739934
C31	C	0.132692	-0.830328	0.000038
C32	C	0.466025	-0.496995	0.333371
C33	C	0.799359	-0.163662	0.666704
C34	C	0.130901	-0.738030	0.000033
C35	C	0.464234	-0.404696	0.333366
C36	C	0.797567	-0.071363	0.666699
C37	C	-0.042695	-0.988129	0.000055
C38	C	0.290638	-0.654796	0.333389
C39	C	0.623971	-0.321463	0.666722
C40	C	-0.145072	-0.986330	0.000056
C41	C	0.188262	-0.652997	0.333389
C42	C	0.521595	-0.319663	0.666722
C43	C	0.119135	-1.134316	0.000054
C44	C	0.452469	-0.800982	0.333387
C45	C	0.785802	-0.467649	0.666720
C46	C	0.120927	-1.226614	0.000053
C47	C	0.454260	-0.893281	0.333386
C48	C	0.787593	-0.559948	0.666720
C49	C	-0.228213	-0.984868	0.000054
C50	C	0.105121	-0.651535	0.333387
C51	C	0.438454	-0.318201	0.666720
C52	C	-0.332518	-0.983041	0.000047
C53	C	0.000816	-0.649708	0.333380
C54	C	0.334149	-0.316374	0.666713
C55	C	-0.415654	-0.981591	0.000041
C56	C	-0.082320	-0.648258	0.333374
C57	C	0.251013	-0.314924	0.666708
C58	C	-0.519965	-0.979764	0.000036
C59	C	-0.186632	-0.646431	0.333369
C60	C	0.146702	-0.313097	0.666702
C61	C	0.294523	-0.976515	0.000036
C62	C	0.627856	-0.643181	0.333370
C63	C	0.961189	-0.309848	0.666703
C64	C	0.396899	-0.978314	0.000030
C65	C	0.730232	-0.644981	0.333363
C66	C	1.063566	-0.311647	0.666697
N67	N	0.125910	-0.982315	0.228221
N68	N	0.459243	-0.648981	0.561555
N69	N	0.792577	-0.315648	0.894888
C70	C	0.210773	-0.515901	0.000038
C71	C	0.544107	-0.182568	0.333371
C72	C	0.877440	0.150765	0.666704
C73	C	0.209083	-0.429178	0.000044
C74	C	0.542416	-0.095844	0.333377
C75	C	0.875750	0.237489	0.666710
C76	C	0.041048	-0.448750	0.000050
C77	C	0.374381	-0.115416	0.333384
C78	C	0.707714	0.217917	0.666717
C79	C	0.042739	-0.535471	0.000051
C80	C	0.376072	-0.202138	0.333384
C81	C	0.709406	0.131195	0.666718
C82	C	0.127605	-0.569045	0.000040
C83	C	0.460938	-0.235711	0.333374
C84	C	0.794271	0.097622	0.666707
C85	C	0.124223	-0.395599	0.000045
C86	C	0.457556	-0.062266	0.333379
C87	C	0.790889	0.271067	0.666712
C88	C	0.122389	-0.301570	0.000052
C89	C	0.455722	0.031763	0.333385
C90	C	0.789056	0.365097	0.666718
C91	C	0.129439	-0.663080	0.000036
C92	C	0.462772	-0.329747	0.333369
C93	C	0.796105	0.003587	0.666702
N94	N	0.125910	-0.982336	-0.228128
N95	N	0.459243	-0.649002	0.105205
N96	N	0.792577	-0.315669	0.438539
C97	C	0.063219	-1.038758	0.453951
C98	C	0.396552	-0.705425	0.787284
C99	C	0.729885	-0.372092	1.120618
C100	C	0.063217	-1.038761	0.546141
C101	C	0.396550	-0.705427	0.879474
C102	C	0.729883	-0.372094	1.212807
C103	C	0.188604	-0.925886	0.546136
C104	C	0.521938	-0.592553	0.879469
C105	C	0.855271	-0.259220	1.212803
C106	C	0.188601	-0.925880	0.453948
C107	C	0.521935	-0.592547	0.787281
C108	C	0.855268	-0.259214	1.120615
C109	C	0.125910	-0.982321	0.407858
C110	C	0.459243	-0.648988	0.741191
C111	C	0.792576	-0.315654	1.074525
C112	C	0.125910	-0.982330	0.592235
C113	C	0.459244	-0.648996	0.925569
C114	C	0.792577	-0.315663	1.258902
C115	C	0.125908	-0.982332	0.692192
C116	C	0.459242	-0.648999	1.025525
C117	C	0.792575	-0.315665	1.358858
C118	C	0.125910	-0.982318	0.307895
C119	C	0.459243	-0.648984	0.641229
C120	C	0.792577	-0.315651	0.974562
H121	H	0.279876	-0.543233	0.000036
H122	H	0.613210	-0.209900	0.333369
H123	H	0.946543	0.123433	0.666702
O124	O	0.298785	-0.371856	0.000038
O125	O	0.632119	-0.038522	0.333372
O126	O	0.965452	0.294811	0.666705
H127	H	0.358077	-0.409774	0.000026
H128	H	0.691411	-0.076441	0.333359
H129	H	1.024744	0.256893	0.666692
O130	O	-0.046971	-0.592797	0.000062
O131	O	0.286363	-0.259464	0.333395
O132	O	0.619696	0.073870	0.666728
H133	H	-0.050216	-0.632785	-0.059625
H134	H	0.283117	-0.299452	0.273708
H135	H	0.616451	0.033882	0.607042
H136	H	-0.028047	-0.421403	0.000064
H137	H	0.305286	-0.088070	0.333398
H138	H	0.638619	0.245263	0.666731
H139	H	0.012170	-1.084714	0.416427
H140	H	0.345503	-0.751381	0.749760
H141	H	0.678837	-0.418048	1.083093
H142	H	0.012167	-1.084716	0.583667
H143	H	0.345500	-0.751383	0.917000
H144	H	0.678834	-0.418049	1.250334
H145	H	0.239648	-0.879935	0.583672
H146	H	0.572981	-0.546602	0.917005
H147	H	0.906314	-0.213268	1.250338
O148	O	0.256224	-0.865009	0.404223
O149	O	0.589557	-0.531676	0.737556
O150	O	0.922890	-0.198343	1.070889
H151	H	0.299828	-0.825773	0.451758
H152	H	0.633161	-0.492439	0.785091
H153	H	0.966494	-0.159106	1.118425
