data_functionalizedCrystal
_audit_creation_method	'MofGen! by Chris Wilmer'
_symmetry_space_group_name_H-M	'P1'
_symmetry_Int_Tables_number	1
_symmetry_cell_setting	triclinic
loop_
_symmetry_equiv_pos_as_xyz
  x,y,z
_cell_length_a	16.176319
_cell_length_b	17.699083
_cell_length_c	17.699083
_cell_angle_alpha	83.283015
_cell_angle_beta	90.007696
_cell_angle_gamma	90.000958
loop_
_atom_site_label
_atom_site_type_symbol
_atom_site_fract_x
_atom_site_fract_y
_atom_site_fract_z
O1	O	-0.068624	-1.004079	-0.095713
O2	O	-0.068653	-0.783700	-0.108166
O3	O	-0.068630	-0.900116	0.008250
O4	O	-0.068647	-0.887663	-0.212129
O5	O	0.068863	-0.900100	0.008257
O6	O	0.068840	-0.783684	-0.108158
O7	O	0.068869	-1.004063	-0.095706
Cu8	Cu	0.081409	-0.893872	-0.101931
Cu9	Cu	-0.081193	-0.893891	-0.101940
O10	O	0.068846	-0.887647	-0.212121
C11	C	0.000090	-0.755495	-0.107716
C12	C	0.000079	-0.671477	-0.106377
N13	N	0.195774	-0.893864	-0.101925
N14	N	-0.195558	-0.893905	-0.101941
C15	C	0.000116	-0.899662	0.036451
C16	C	0.000116	-0.898323	0.120469
C17	C	0.239048	-0.945429	-0.050397
C18	C	0.325595	-0.945432	-0.050396
C19	C	0.368867	-0.893875	-0.101927
C20	C	0.325586	-0.842305	-0.153457
C21	C	0.239041	-0.842299	-0.153454
C22	C	0.674615	-0.842331	-0.153472
C23	C	0.761166	-0.842344	-0.153473
C24	C	0.761169	-0.945465	-0.050414
C25	C	0.674624	-0.945458	-0.050410
C26	C	0.631351	-0.893886	-0.101937
C27	C	0.537507	-0.893882	-0.101937
C28	C	0.462709	-0.893883	-0.101932
C29	C	0.000074	-0.622856	-0.174710
C30	C	0.000084	-0.543913	-0.173448
C31	C	0.000093	-0.513592	-0.103852
C32	C	0.000101	-0.562219	-0.035513
C33	C	0.000097	-0.641161	-0.036776
C34	C	0.000119	-0.243856	-0.030418
C35	C	0.000121	-0.164908	-0.029160
C36	C	0.000106	-0.146608	-0.167090
C37	C	0.000102	-0.225550	-0.168353
C38	C	0.000114	-0.274170	-0.100015
C39	C	0.000105	-0.359769	-0.101384
C40	C	0.000097	-0.427995	-0.102481
C41	C	0.000122	-0.032268	-0.096156
C42	C	0.000122	-0.116286	-0.097494
C43	C	0.000098	-0.888102	-0.240322
C44	C	0.000092	-0.889440	-0.324340
C45	C	0.000127	-0.966656	0.169090
C46	C	0.000119	-0.965394	0.248033
C47	C	0.000107	-0.895798	0.278354
C48	C	0.000095	-0.827459	0.229727
C49	C	0.000096	-0.828722	0.150785
C50	C	0.000087	-0.822364	0.548090
C51	C	0.000088	-0.821106	0.627038
C52	C	0.000110	-0.959036	0.645338
C53	C	0.000112	-0.960299	0.566396
C54	C	0.000095	-0.891961	0.517776
C55	C	0.000101	-0.893330	0.432177
C56	C	0.000107	-0.894427	0.363951
H57	H	0.360829	-0.987419	-0.008438
O58	O	0.000109	-0.693606	0.036927
H59	H	-0.055926	-0.730017	0.039649
H60	H	0.000141	-1.023330	0.144409
H61	H	0.000079	-0.504328	-0.229092
H62	H	0.203808	-0.800309	-0.195412
H63	H	0.000091	-0.250232	-0.225025
O64	O	0.000072	-0.655559	-0.249776
H65	H	0.000081	-0.608484	-0.297079
H66	H	0.000129	-1.021038	0.287618
O67	O	0.627950	-1.001062	0.005173
H68	H	0.672582	-1.036913	0.041011
H69	H	0.000125	-1.016971	0.541714
O70	O	0.000147	-0.132205	0.045910
H71	H	-0.055881	-0.151747	0.078749
O72	O	0.000121	-1.032749	0.697777
H73	H	0.000110	-1.020183	0.757765
H74	H	0.000130	-0.283434	0.025228
H75	H	0.000080	-0.764429	0.651721
O76	O	0.807840	-1.001086	0.005173
H77	H	0.875290	-0.992426	-0.003477
O78	O	0.000113	-0.094165	-0.240800
H79	H	-0.055919	-0.057750	-0.243526
O80	O	0.000090	-0.748660	0.495653
H81	H	0.000096	-0.700056	0.530002
O82	O	0.000114	-0.529522	0.039555
H83	H	0.000108	-0.466461	0.028955
O84	O	0.000091	-0.752391	0.262423
H85	H	0.000103	-0.762991	0.325485
O86	O	0.000094	-0.755021	0.098338
H87	H	0.000095	-0.706413	0.132682
H88	H	0.796396	-0.800357	-0.195437
O89	O	0.192378	-1.001034	0.005186
H90	H	0.237013	-1.036884	0.041022
O91	O	0.627947	-0.786714	-0.209050
H92	H	0.644542	-0.796256	-0.268040
O93	O	0.372251	-0.786698	-0.209043
H94	H	0.439702	-0.795370	-0.200397
