data_functionalizedCrystal
_audit_creation_method	'MofGen! by Chris Wilmer'
_symmetry_space_group_name_H-M	'P1'
_symmetry_Int_Tables_number	1
_symmetry_cell_setting	triclinic
loop_
_symmetry_equiv_pos_as_xyz
  x,y,z
_cell_length_a	25.639243
_cell_length_b	25.639239
_cell_length_c	12.645323
_cell_angle_alpha	90.032429
_cell_angle_beta	90.025047
_cell_angle_gamma	90.042008
loop_
_atom_site_label
_atom_site_type_symbol
_atom_site_fract_x
_atom_site_fract_y
_atom_site_fract_z
Zn1	Zn	0.799270	-0.208109	0.599458
Zn2	Zn	0.799179	-0.295547	0.422174
Zn3	Zn	0.711832	-0.208132	0.422195
Zn4	Zn	0.711790	-0.295519	0.599382
O5	O	0.755518	-0.251827	0.510802
O6	O	0.872423	-0.219710	0.575964
O7	O	0.787571	-0.283973	0.273830
O8	O	0.723487	-0.134964	0.445749
O9	O	0.872356	-0.283951	0.445714
O10	O	0.787727	-0.134947	0.575983
O11	O	0.723398	-0.219750	0.273845
O12	O	0.638662	-0.219722	0.445676
O13	O	0.723415	-0.283902	0.747740
O14	O	0.638631	-0.283925	0.575855
O15	O	0.787686	-0.219682	0.747795
O16	O	0.787531	-0.368709	0.445641
O17	O	0.723327	-0.368688	0.575835
C18	C	0.619675	-0.251823	0.510760
C19	C	0.561561	-0.251834	0.510767
C20	C	0.201227	-0.218429	0.578736
C21	C	0.146623	-0.218429	0.578743
O22	O	0.118411	-0.190017	0.636480
N23	N	0.119279	-0.251825	0.510831
C24	C	0.146541	-0.285221	0.442901
O25	O	0.118269	-0.313627	0.385137
C26	C	0.201145	-0.285218	0.442890
C27	C	0.228486	-0.251823	0.510814
C28	C	0.228569	-0.185036	0.646653
C29	C	0.283170	-0.185038	0.646648
C30	C	0.310428	-0.218432	0.578725
C31	C	0.283087	-0.251824	0.510808
C32	C	0.228406	-0.318611	0.374956
C33	C	0.283013	-0.318605	0.374950
C34	C	0.310355	-0.285210	0.442873
C35	C	0.364946	-0.285220	0.442880
N36	N	0.392291	-0.251823	0.510792
C37	C	0.365032	-0.218429	0.578714
C38	C	0.031871	-0.285223	0.442929
C39	C	-0.022732	-0.285229	0.442944
C40	C	-0.022646	-0.218436	0.578784
C41	C	0.031957	-0.218433	0.578773
C42	C	0.059215	-0.251826	0.510840
C43	C	0.479697	-0.218435	0.578698
C44	C	0.534302	-0.218440	0.578690
C45	C	0.534212	-0.285231	0.442846
C46	C	0.479611	-0.285227	0.442858
C47	C	0.452355	-0.251825	0.510788
O48	O	0.393193	-0.313616	0.385170
O49	O	0.393311	-0.190023	0.636459
C50	C	0.755428	-0.387669	0.510751
C51	C	0.755438	-0.445783	0.510765
C52	C	0.722081	-0.696978	0.578573
C53	C	0.722061	-0.642374	0.578560
O54	O	0.693614	-0.614139	0.636178
N55	N	0.755504	-0.615057	0.510820
C56	C	0.788972	-0.642348	0.443095
O57	O	0.817416	-0.614099	0.385476
C58	C	0.788993	-0.696951	0.443114
C59	C	0.755545	-0.724265	0.510851
C60	C	0.688635	-0.724292	0.646305
C61	C	0.688654	-0.778893	0.646316
C62	C	0.722118	-0.806179	0.578594
C63	C	0.755564	-0.778865	0.510861
C64	C	0.822463	-0.724240	0.375395
C65	C	0.822482	-0.778847	0.375420
C66	C	0.789034	-0.806161	0.443157
C67	C	0.789047	-0.860752	0.443150
N68	N	0.755604	-0.888069	0.510891
C69	C	0.722140	-0.860783	0.578612
C70	C	0.788924	-0.527677	0.443063
C71	C	0.788901	-0.473075	0.443038
C72	C	0.721991	-0.473105	0.578505
C73	C	0.722012	-0.527708	0.578524
C74	C	0.755482	-0.554994	0.510803
C75	C	0.722181	-0.975448	0.578629
C76	C	0.722202	-1.030053	0.578631
C77	C	0.789113	-1.030018	0.443168
C78	C	0.789091	-0.975418	0.443162
C79	C	0.755624	-0.948134	0.510901
O80	O	0.817481	-0.889022	0.385565
O81	O	0.693705	-0.889038	0.636232
C82	C	0.891891	-0.251831	0.510845
C83	C	0.950005	-0.251832	0.510863
C84	C	0.755556	-0.251786	0.787308
C85	C	0.755573	-0.251769	0.905138
C86	C	0.755622	-0.115454	0.510877
C87	C	0.755666	-0.057340	0.510909
C88	C	0.755509	-0.251829	0.235373
C89	C	0.755594	-0.251699	0.117543
C90	C	0.715015	-0.291980	1.072667
C91	C	0.715121	-0.292179	0.950107
C92	C	0.810658	-0.266720	0.949658
C93	C	0.810435	-0.266972	1.072256
C94	C	0.741566	-0.196383	1.072349
C95	C	0.740337	-0.196715	0.949743
H96	H	-0.044989	-0.312428	0.387646
C97	C	0.688251	-0.177970	1.114097
H98	H	0.674046	-0.203850	1.159482
H99	H	0.692549	-0.146340	1.152283
H100	H	0.665261	-0.172373	1.056277
H101	H	0.556561	-0.191245	0.634005
C102	C	0.685185	-0.443083	0.653009
H103	H	0.689970	-0.406652	0.643300
H104	H	0.650061	-0.452071	0.637440
H105	H	0.692828	-0.451998	0.724257
C106	C	0.313239	-0.148296	0.721350
H107	H	0.289177	-0.128406	0.761788
H108	H	0.334539	-0.168316	0.767471
H109	H	0.334541	-0.125486	0.680868
H110	H	0.699800	-0.185440	0.920643
H111	H	0.841694	-0.238907	1.101945
H112	H	0.816323	-0.953178	0.387994
C113	C	0.825690	-0.443035	0.368521
H114	H	0.845624	-0.467111	0.328199
H115	H	0.805698	-0.421770	0.322284
H116	H	0.848457	-0.421698	0.409117
H117	H	0.556416	-0.312421	0.387548
H118	H	0.767735	-0.165118	0.919132
H119	H	0.849740	-0.801060	0.320276
H120	H	0.206381	-0.157840	0.701964
H121	H	0.054061	-0.312421	0.387612
H122	H	0.694963	-1.052290	0.633793
H123	H	0.841702	-0.238309	0.920533
C124	C	0.827000	-0.320775	0.908202
H125	H	0.800332	-0.334305	0.863775
H126	H	0.858462	-0.317670	0.869057
H127	H	0.832277	-0.343706	0.966208
H128	H	0.054215	-0.191239	0.634080
C129	C	0.651866	-0.808932	0.720839
H130	H	0.631940	-0.784854	0.761172
H131	H	0.629100	-0.830274	0.680262
H132	H	0.671867	-0.830191	0.767081
H133	H	0.771122	-0.166373	1.101373
H134	H	0.457511	-0.191233	0.634010
H135	H	-0.044850	-0.191243	0.634088
H136	H	0.305204	-0.345798	0.319628
C137	C	0.198342	-0.355341	0.300229
H138	H	0.222405	-0.375220	0.259771
H139	H	0.177033	-0.378153	0.340680
H140	H	0.177048	-0.335306	0.254111
H141	H	0.457349	-0.312427	0.387562
C142	C	0.727396	-0.347034	1.114278
H143	H	0.702695	-0.371129	1.086791
H144	H	0.761442	-0.356857	1.092401
H145	H	0.725682	-0.347080	1.189323
H146	H	0.816178	-0.549890	0.387908
H147	H	0.661385	-0.702081	0.701457
C148	C	0.685367	-0.945443	0.653137
H149	H	0.665450	-0.969537	0.693467
H150	H	0.705343	-0.924105	0.699368
H151	H	0.662585	-0.924182	0.612533
H152	H	0.849701	-0.702009	0.320238
C153	C	0.685224	-0.557749	0.653043
H154	H	0.665295	-0.533673	0.693374
H155	H	0.662461	-0.579093	0.612463
H156	H	0.705225	-0.579007	0.699288
H157	H	0.816357	-1.052245	0.388027
C158	C	0.659942	-0.279534	0.909435
H159	H	0.637259	-0.274232	0.967840
H160	H	0.661068	-0.248807	0.867559
H161	H	0.647454	-0.307770	0.867830
H162	H	0.674046	-0.282714	1.102140
C163	C	0.727624	-0.347577	0.910485
H164	H	0.732667	-0.370046	0.969316
H165	H	0.699447	-0.360100	0.868773
H166	H	0.758474	-0.346765	0.868933
H167	H	0.822328	-0.307409	1.100857
