data_functionalizedCrystal
_audit_creation_method	'MofGen! by Chris Wilmer'
_symmetry_space_group_name_H-M	'P1'
_symmetry_Int_Tables_number	1
_symmetry_cell_setting	triclinic
loop_
_symmetry_equiv_pos_as_xyz
  x,y,z
_cell_length_a	12.645331
_cell_length_b	18.050582
_cell_length_c	12.645330
_cell_angle_alpha	89.980234
_cell_angle_beta	90.012860
_cell_angle_gamma	89.984751
loop_
_atom_site_label
_atom_site_type_symbol
_atom_site_fract_x
_atom_site_fract_y
_atom_site_fract_z
Zn1	Zn	1.620689	-0.419934	-0.422101
Zn2	Zn	1.620610	-0.295750	-0.599366
Zn3	Zn	1.443427	-0.295757	-0.422118
Zn4	Zn	1.443401	-0.419897	-0.599323
O5	O	1.532032	-0.357834	-0.510727
O6	O	1.769026	-0.403472	-0.445626
O7	O	1.597084	-0.191826	-0.575879
O8	O	1.466985	-0.312247	-0.273768
O9	O	1.768968	-0.312235	-0.575862
O10	O	1.597219	-0.403479	-0.273756
O11	O	1.466909	-0.191831	-0.445655
O12	O	1.295076	-0.312212	-0.445614
O13	O	1.466941	-0.523827	-0.575789
O14	O	1.295057	-0.403418	-0.575806
O15	O	1.597194	-0.523853	-0.445584
O16	O	1.597059	-0.312200	-0.747708
O17	O	1.466864	-0.403411	-0.747676
C18	C	1.256602	-0.357812	-0.510708
C19	C	1.138772	-0.357821	-0.510725
C20	C	1.093867	-0.300537	-0.428694
C21	C	0.971307	-0.300733	-0.428391
C22	C	0.970925	-0.436218	-0.480947
C23	C	1.093523	-0.435860	-0.480334
C24	C	1.093571	-0.337447	-0.622779
C25	C	0.970963	-0.335747	-0.622194
C26	C	1.532073	-0.551540	-0.510680
C27	C	1.532091	-0.634086	-0.510660
C28	C	1.461314	-0.833522	-0.581368
C29	C	1.558038	-0.882915	-0.607281
C30	C	1.532143	-0.785216	-0.510579
C31	C	1.435472	-0.882905	-0.484637
C32	C	1.532185	-0.931202	-0.510503
C33	C	1.628918	-0.833522	-0.536543
C34	C	1.506287	-0.833508	-0.413853
C35	C	1.603078	-0.882878	-0.439729
C36	C	1.532118	-0.701118	-0.510626
C37	C	1.532222	-1.015298	-0.510456
C38	C	1.808537	-0.357857	-0.510747
C39	C	1.926367	-0.357866	-0.510756
C40	C	1.531979	-0.357817	-0.786157
C41	C	1.532053	-0.357834	-0.903987
C42	C	1.532051	-0.164882	-0.510697
C43	C	1.532239	-0.082337	-0.510419
C44	C	1.613827	-0.300337	-1.071526
C45	C	1.614093	-0.300478	-0.948966
C46	C	1.562338	-0.436117	-0.948383
C47	C	1.562987	-0.435812	-1.070981
C48	C	1.419962	-0.337820	-1.071311
C49	C	1.420499	-0.336064	-0.948706
C50	C	1.532114	-0.357868	-0.234222
C51	C	1.532149	-0.357883	-0.116392
H52	H	0.941822	-0.480085	-0.538878
N53	N	1.723313	-0.317713	-1.112209
H54	H	1.751080	-0.274040	-1.153710
H55	H	1.720158	-0.362718	-1.159536
N56	N	1.132865	-0.223335	-0.453008
H57	H	1.103134	-0.187446	-0.399444
H58	H	1.108933	-0.208522	-0.526228
N59	N	1.327155	-0.911631	-0.455609
H60	H	1.307059	-0.892884	-0.383099
H61	H	1.328206	-0.967577	-0.455182
N62	N	1.589044	-0.223219	-1.110640
H63	H	1.524636	-0.224833	-1.157829
H64	H	1.651321	-0.203470	-1.151926
N65	N	1.132053	-0.392703	-0.703730
H66	H	1.173986	-0.366107	-0.760115
H67	H	1.069376	-0.418260	-0.737173
H68	H	1.397664	-0.278455	-0.919699
H69	H	0.941837	-0.278083	-0.644679
N70	N	1.669742	-0.459001	-0.907626
H71	H	1.688526	-0.509440	-0.936637
H72	H	1.668120	-0.461130	-0.827832
N73	N	1.589010	-0.223591	-0.909199
H74	H	1.577679	-0.189301	-0.971311
H75	H	1.649858	-0.204854	-0.864919
H76	H	1.401472	-0.811852	-0.641311
N77	N	1.477246	-0.804728	-0.305581
H78	H	1.478131	-0.748780	-0.306262
H79	H	1.530009	-0.823514	-0.251926
N80	N	1.485948	-0.494438	-0.909781
H81	H	1.506933	-0.544308	-0.939286
H82	H	1.412135	-0.481619	-0.934226
N83	N	1.682529	-0.911424	-0.360399
H84	H	1.755504	-0.893367	-0.380107
H85	H	1.681574	-0.967371	-0.360418
H86	H	0.940235	-0.453748	-0.399962
N87	N	1.339343	-0.393327	-1.109760
H88	H	1.267426	-0.380158	-1.080548
H89	H	1.359957	-0.444513	-1.084907
N90	N	1.737276	-0.804949	-0.565722
H91	H	1.766005	-0.773760	-0.505971
H92	H	1.732012	-0.773840	-0.631917
N93	N	1.134658	-0.318221	-0.319322
H94	H	1.073089	-0.328721	-0.270714
H95	H	1.176115	-0.274594	-0.291398
H96	H	0.940364	-0.374404	-0.686554
H97	H	1.123235	-0.480019	-0.537509
H98	H	1.579933	-0.904617	-0.689048
H99	H	0.941988	-0.314264	-0.345368
N100	N	1.134464	-0.263025	-0.658843
H101	H	1.182714	-0.241761	-0.602902
H102	H	1.072943	-0.228317	-0.670749
H103	H	1.697187	-0.313748	-0.919560
N104	N	1.671612	-0.458305	-1.108764
H105	H	1.718624	-0.468325	-1.045780
H106	H	1.702968	-0.417021	-1.152618
N107	N	1.487613	-0.494542	-1.110301
H108	H	1.454117	-0.520517	-1.047991
H109	H	1.527655	-0.531741	-1.154514
H110	H	1.392419	-0.281730	-1.102310
H111	H	1.356361	-0.374905	-0.918099
H112	H	0.941176	-0.242646	-0.446987
H113	H	1.122131	-0.453082	-0.398440
