data_functionalizedCrystal
_audit_creation_method	'MofGen! by Chris Wilmer'
_symmetry_space_group_name_H-M	'P1'
_symmetry_Int_Tables_number	1
_symmetry_cell_setting	triclinic
loop_
_symmetry_equiv_pos_as_xyz
  x,y,z
_cell_length_a	19.288867
_cell_length_b	18.366186
_cell_length_c	19.288865
_cell_angle_alpha	89.988521
_cell_angle_beta	83.136658
_cell_angle_gamma	89.992441
loop_
_atom_site_label
_atom_site_type_symbol
_atom_site_fract_x
_atom_site_fract_y
_atom_site_fract_z
O1	O	0.921352	-0.060532	0.086655
O2	O	1.254685	0.272801	0.419989
O3	O	1.588018	0.606134	0.753322
O4	O	0.719091	-0.060541	0.098343
O5	O	1.052425	0.272793	0.431676
O6	O	1.385758	0.606126	0.765009
O7	O	0.826066	-0.060522	-0.008631
O8	O	1.159399	0.272811	0.324702
O9	O	1.492733	0.606145	0.658035
O10	O	0.814377	-0.060551	0.193629
O11	O	1.147711	0.272782	0.526963
O12	O	1.481044	0.606115	0.860296
O13	O	0.826048	0.060578	-0.008637
O14	O	1.159381	0.393911	0.324697
O15	O	1.492714	0.727244	0.658030
O16	O	0.719073	0.060559	0.098337
O17	O	1.052407	0.393892	0.431671
O18	O	1.385740	0.727225	0.765004
O19	O	0.921334	0.060567	0.086650
O20	O	1.254667	0.393900	0.419983
O21	O	1.588000	0.727234	0.753317
Zn22	Zn	0.820201	0.079790	0.092493
Zn23	Zn	1.153534	0.413123	0.425826
Zn24	Zn	1.486867	0.746457	0.759160
Zn25	Zn	0.820224	-0.079764	0.092500
Zn26	Zn	1.153558	0.253570	0.425833
Zn27	Zn	1.486891	0.586903	0.759166
O28	O	0.814359	0.060548	0.193624
O29	O	1.147692	0.393882	0.526957
O30	O	1.481026	0.727215	0.860291
C31	C	0.693206	0.000008	0.097964
C32	C	1.026539	0.333342	0.431297
C33	C	1.359873	0.666675	0.764630
C34	C	0.616102	0.000006	0.096834
C35	C	0.949436	0.333339	0.430167
C36	C	1.282769	0.666672	0.763501
C37	C	0.825681	0.000030	-0.034510
C38	C	1.159014	0.333363	0.298823
C39	C	1.492347	0.666697	0.632156
C40	C	0.824552	0.000036	-0.111614
C41	C	1.157885	0.333370	0.221719
C42	C	1.491218	0.666703	0.555053
C43	C	0.060547	-0.065996	0.088701
C44	C	0.393880	0.267337	0.422034
C45	C	0.727214	0.600671	0.755367
C46	C	0.132994	-0.065999	0.089758
C47	C	0.466328	0.267335	0.423091
C48	C	0.799661	0.600668	0.756424
C49	C	0.169213	0.000012	0.090287
C50	C	0.502546	0.333346	0.423620
C51	C	0.835880	0.666679	0.756954
C52	C	0.132981	0.066031	0.089741
C53	C	0.466314	0.399364	0.423074
C54	C	0.799647	0.732698	0.756407
C55	C	0.060535	0.066032	0.088677
C56	C	0.393869	0.399365	0.422010
C57	C	0.727202	0.732699	0.755343
C58	C	0.278533	0.050579	0.132652
C59	C	0.611866	0.383912	0.465986
C60	C	0.945200	0.717246	0.799319
C61	C	0.350976	0.050575	0.133721
C62	C	0.684310	0.383909	0.467054
C63	C	1.017643	0.717242	0.800387
C64	C	0.392659	0.000012	0.093566
C65	C	0.725992	0.333345	0.426899
C66	C	1.059325	0.666679	0.760233
C67	C	0.361888	-0.050560	0.052352
C68	C	0.695221	0.282773	0.385685
C69	C	1.028555	0.616107	0.719018
C70	C	0.289443	-0.050559	0.051287
C71	C	0.622776	0.282774	0.384621
C72	C	0.956109	0.616108	0.717954
C73	C	0.247768	0.000019	0.091440
C74	C	0.581101	0.333352	0.424774
C75	C	0.914435	0.666685	0.758107
C76	C	0.507439	-0.066006	0.095253
C77	C	0.840772	0.267328	0.428587
C78	C	1.174106	0.600661	0.761920
C79	C	0.579889	-0.066006	0.096306
C80	C	0.913222	0.267327	0.429640
C81	C	1.246555	0.600661	0.762973
C82	C	0.579872	0.066026	0.096296
C83	C	0.913206	0.399359	0.429630
C84	C	1.246539	0.732692	0.762963
C85	C	0.507425	0.066024	0.095236
C86	C	0.840759	0.399357	0.428570
C87	C	1.174092	0.732691	0.761903
C88	C	0.471213	0.000006	0.094718
C89	C	0.804546	0.333340	0.428052
C90	C	1.137879	0.666673	0.761385
C91	C	0.947219	0.000016	0.087029
C92	C	1.280552	0.333350	0.420362
C93	C	1.613886	0.666683	0.753696
C94	C	1.024323	0.000014	0.088159
C95	C	1.357656	0.333347	0.421492
C96	C	1.690989	0.666681	0.754825
N97	N	0.820189	0.188681	0.092488
N98	N	1.153523	0.522014	0.425821
N99	N	1.486856	0.855348	0.759154
N100	N	0.820241	-0.188655	0.092499
N101	N	1.153575	0.144679	0.425833
N102	N	1.486908	0.478012	0.759166
C103	C	0.867573	0.226790	0.045143
C104	C	1.200906	0.560123	0.378476
C105	C	1.534240	0.893456	0.711810
C106	C	0.867578	0.303018	0.045140
C107	C	1.200911	0.636351	0.378473
C108	C	1.534244	0.969684	0.711806
C109	C	0.820205	0.341134	0.092493
C110	C	1.153538	0.674467	0.425827
C111	C	1.486871	1.007801	0.759160
C112	C	0.772812	0.303016	0.139842
C113	C	1.106145	0.636349	0.473175
C114	C	1.439479	0.969683	0.806509
C115	C	0.772804	0.226790	0.139839
C116	C	1.106138	0.560123	0.473172
C117	C	1.439471	0.893456	0.806506
C118	C	0.810907	0.461885	0.155781
C119	C	1.144240	0.795218	0.489115
C120	C	1.477573	1.128551	0.822448
C121	C	0.810919	0.538110	0.155785
C122	C	1.144252	0.871443	0.489118
C123	C	1.477586	1.204776	0.822452
C124	C	0.820224	0.576241	0.092502
C125	C	1.153558	0.909575	0.425835
C126	C	1.486891	1.242908	0.759169
C127	C	0.829532	0.538139	0.029213
C128	C	1.162865	0.871472	0.362546
C129	C	1.496199	1.204805	0.695879
C130	C	0.829524	0.461912	0.029210
C131	C	1.162858	0.795246	0.362543
C132	C	1.496191	1.128579	0.695877
C133	C	0.820208	0.423789	0.092502
C134	C	1.153541	0.757122	0.425835
C135	C	1.486874	1.090455	0.759168
C136	C	0.867616	0.697005	0.045150
C137	C	1.200949	1.030338	0.378483
C138	C	1.534282	1.363672	0.711817
C139	C	0.867615	0.773234	0.045146
C140	C	1.200949	1.106568	0.378479
C141	C	1.534282	1.439901	0.711813
C142	C	0.772853	0.773231	0.139854
C143	C	1.106186	1.106564	0.473188
C144	C	1.439520	1.439898	0.806521
C145	C	0.772850	0.697003	0.139852
C146	C	1.106184	1.030337	0.473186
C147	C	1.439517	1.363670	0.806519
C148	C	0.820235	0.658895	0.092501
C149	C	1.153569	0.992228	0.425834
C150	C	1.486902	1.325562	0.759168
C151	C	0.887320	0.000042	-0.156310
C152	C	1.220653	0.333376	0.177024
C153	C	1.553986	0.666709	0.510357
C154	C	0.886259	0.000031	-0.228757
C155	C	1.219592	0.333364	0.104576
C156	C	1.552926	0.666698	0.437910
C157	C	0.822427	0.000028	-0.256505
C158	C	1.155760	0.333361	0.076828
C159	C	1.489093	0.666694	0.410162
C160	C	0.759651	0.000018	-0.211799
C161	C	1.092984	0.333351	0.121534
C162	C	1.426317	0.666684	0.454867
C163	C	0.760713	0.000022	-0.139354
C164	C	1.094047	0.333355	0.193980
C165	C	1.427380	0.666689	0.527313
C166	C	0.772241	0.042444	-0.364795
C167	C	1.105574	0.375778	-0.031461
C168	C	1.438908	0.709111	0.301872
C169	C	0.771181	0.042445	-0.437239
C170	C	1.104515	0.375778	-0.103906
C171	C	1.437848	0.709111	0.229428
C172	C	0.819147	0.000011	-0.479951
C173	C	1.152481	0.333345	-0.146617
C174	C	1.485814	0.666678	0.186716
C175	C	0.868185	-0.042413	-0.450210
C176	C	1.201518	0.290921	-0.116877
C177	C	1.534852	0.624254	0.216456
C178	C	0.869247	-0.042408	-0.377765
C179	C	1.202581	0.290925	-0.044431
C180	C	1.535914	0.624258	0.288902
C181	C	0.821268	0.000023	-0.335059
C182	C	1.154601	0.333356	-0.001726
C183	C	1.487934	0.666689	0.331608
C184	C	0.880769	0.000004	-0.603202
C185	C	1.214103	0.333337	-0.269869
C186	C	1.547436	0.666671	0.063464
C187	C	0.879706	-0.000012	-0.675650
C188	C	1.213039	0.333321	-0.342317
C189	C	1.546373	0.666655	-0.008984
C190	C	0.753096	-0.000018	-0.658691
C191	C	1.086429	0.333315	-0.325358
C192	C	1.419763	0.666649	0.007976
C193	C	0.754161	-0.000009	-0.586245
C194	C	1.087494	0.333324	-0.252911
C195	C	1.420828	0.666657	0.080422
C196	C	0.818000	0.000005	-0.558505
C197	C	1.151333	0.333338	-0.225172
C198	C	1.484666	0.666672	0.108162
C199	C	0.814744	-0.000005	0.219503
C200	C	1.148078	0.333328	0.552836
C201	C	1.481411	0.666661	0.886170
C202	C	0.815873	-0.000016	0.296607
C203	C	1.149207	0.333317	0.629940
C204	C	1.482540	0.666650	0.963273
H205	H	0.031067	-0.119753	0.088276
H206	H	0.364401	0.213580	0.421609
H207	H	0.697734	0.546914	0.754943
H208	H	0.734218	0.195761	0.178394
H209	H	1.067551	0.529094	0.511727
H210	H	1.400885	0.862427	0.845060
H211	H	0.162493	-0.119754	0.090203
H212	H	0.495827	0.213580	0.423536
H213	H	0.829160	0.546913	0.756870
H214	H	0.906197	0.665976	0.006591
H215	H	1.239531	0.999309	0.339925
H216	H	1.572864	1.332643	0.673258
H217	H	0.734239	0.334054	0.178397
H218	H	1.067573	0.667387	0.511730
H219	H	1.400906	1.000721	0.845064
H220	H	0.909174	-0.076953	-0.353553
H221	H	1.242508	0.256381	-0.020220
H222	H	1.575841	0.589714	0.313113
H223	H	0.907243	-0.076966	-0.484985
H224	H	1.240577	0.256367	-0.151652
H225	H	1.573910	0.589701	0.181682
H226	H	0.932750	0.000012	-0.580616
H227	H	1.266084	0.333346	-0.247282
H228	H	1.599417	0.666679	0.086051
H229	H	0.609382	-0.119761	0.096742
H230	H	0.942715	0.213572	0.430076
H231	H	1.276048	0.546905	0.763409
H232	H	0.837101	0.430892	-0.022322
H233	H	1.170434	0.764226	0.311011
H234	H	1.503768	1.097559	0.644344
H235	H	0.264392	-0.091735	0.017728
H236	H	0.597726	0.241598	0.351061
H237	H	0.931059	0.574931	0.684395
H238	H	0.477931	0.119777	0.094797
H239	H	0.811264	0.453110	0.428131
H240	H	1.144598	0.786443	0.761464
H241	H	0.930821	-0.000011	-0.712042
H242	H	1.264155	0.333322	-0.378709
H243	H	1.597488	0.666655	-0.045375
H244	H	0.709598	0.000017	-0.102962
H245	H	1.042932	0.333350	0.230372
H246	H	1.376265	0.666684	0.563705
H247	H	0.031042	0.119787	0.088238
H248	H	0.364375	0.453120	0.421571
H249	H	0.697708	0.786454	0.754904
H250	H	0.701123	-0.000024	-0.681283
H251	H	1.034456	0.333309	-0.347949
H252	H	1.367789	0.666643	-0.014616
H253	H	0.395824	-0.091736	0.019656
H254	H	0.729158	0.241598	0.352989
H255	H	1.062491	0.574931	0.686323
H256	H	0.906164	0.334051	0.006584
H257	H	1.239498	0.667385	0.339918
H258	H	1.572831	1.000718	0.673251
H259	H	0.803345	0.569127	0.207319
H260	H	1.136678	0.902460	0.540652
H261	H	1.470011	1.235794	0.873986
H262	H	0.939302	0.000052	-0.133729
H263	H	1.272635	0.333385	0.199604
H264	H	1.605969	0.666718	0.532937
H265	H	0.376022	0.091739	0.167297
H266	H	0.709355	0.425072	0.500630
H267	H	1.042688	0.758406	0.833964
H268	H	0.477953	-0.119761	0.094829
H269	H	0.811287	0.213572	0.428163
H270	H	1.144620	0.546905	0.761496
H271	H	0.803317	0.430844	0.207317
H272	H	1.136650	0.764178	0.540650
H273	H	1.469984	1.097511	0.873984
H274	H	0.707678	0.000014	-0.234396
H275	H	1.041012	0.333347	0.098937
H276	H	1.374345	0.666680	0.432270
H277	H	0.734269	0.665973	0.178408
H278	H	1.067602	0.999306	0.511741
H279	H	1.400935	1.332640	0.845074
H280	H	0.906155	0.195764	0.006585
H281	H	1.239488	0.529097	0.339918
H282	H	1.572822	0.862431	0.673252
H283	H	0.906199	0.804263	0.006588
H284	H	1.239532	1.137596	0.339922
H285	H	1.572865	1.470930	0.673255
H286	H	0.609361	0.119773	0.096724
H287	H	0.942695	0.453107	0.430058
H288	H	1.276028	0.786440	0.763391
H289	H	0.244601	0.091762	0.165348
H290	H	0.577934	0.425095	0.498681
H291	H	0.911267	0.758429	0.832015
H292	H	0.837109	0.569184	-0.022318
H293	H	1.170442	0.902517	0.311015
H294	H	1.503776	1.235850	0.644348
H295	H	0.734279	0.804265	0.178408
H296	H	1.067612	1.137598	0.511741
H297	H	1.400945	1.470931	0.845074
H298	H	0.703049	-0.000010	-0.549852
H299	H	1.036382	0.333323	-0.216519
H300	H	1.369715	0.666656	0.116815
H301	H	0.937374	0.000033	-0.265155
H302	H	1.270707	0.333366	0.068178
H303	H	1.604040	0.666700	0.401511
H304	H	0.731249	0.076984	-0.461447
H305	H	1.064582	0.410318	-0.128114
H306	H	1.397915	0.743651	0.205219
H307	H	0.162475	0.119778	0.090170
H308	H	0.495808	0.453111	0.423503
H309	H	0.829141	0.786444	0.756837
H310	H	0.733179	0.077002	-0.330024
H311	H	1.066513	0.410336	0.003310
H312	H	1.399846	0.743669	0.336643
