data_functionalizedCrystal
_audit_creation_method	'MofGen! by Chris Wilmer'
_symmetry_space_group_name_H-M	'P1'
_symmetry_Int_Tables_number	1
_symmetry_cell_setting	triclinic
loop_
_symmetry_equiv_pos_as_xyz
  x,y,z
_cell_length_a	14.908795
_cell_length_b	29.839131
_cell_length_c	29.839125
_cell_angle_alpha	90.025363
_cell_angle_beta	93.313297
_cell_angle_gamma	93.324927
loop_
_atom_site_label
_atom_site_type_symbol
_atom_site_fract_x
_atom_site_fract_y
_atom_site_fract_z
Zn1	Zn	1.379103	-0.139357	0.293680
Zn2	Zn	1.378983	-0.214472	0.218536
Zn3	Zn	1.228253	-0.143681	0.214220
Zn4	Zn	1.228164	-0.218790	0.289296
O5	O	1.303626	-0.179075	0.253933
O6	O	1.505336	-0.145705	0.287352
O7	O	1.358975	-0.205084	0.155096
O8	O	1.248351	-0.080238	0.224789
O9	O	1.505248	-0.200892	0.232145
O10	O	1.359179	-0.077061	0.283167
O11	O	1.248235	-0.153074	0.151925
O12	O	1.101992	-0.157261	0.220538
O13	O	1.248200	-0.208251	0.352745
O14	O	1.101927	-0.212444	0.275696
O15	O	1.359093	-0.149891	0.355966
O16	O	1.358889	-0.277915	0.227894
O17	O	1.248083	-0.281087	0.279881
C18	C	1.069225	-0.185790	0.247174
C19	C	0.968947	-0.188674	0.244292
C20	C	1.303488	-0.295802	0.253891
C21	C	1.303512	-0.345735	0.253891
C22	C	0.827565	-0.221423	0.211444
C23	C	0.921785	-0.218716	0.214151
C24	C	0.921882	-0.161337	0.271729
C25	C	0.827662	-0.164044	0.269022
C26	C	0.780507	-0.194089	0.238879
C27	C	0.686285	-0.196799	0.236175
C28	C	0.686383	-0.139418	0.293750
C29	C	0.780603	-0.136710	0.296457
C30	C	1.361322	-0.653687	0.284371
C31	C	1.361419	-0.841357	0.284401
O32	O	1.410437	-0.864187	0.310285
N33	N	1.303779	-0.866513	0.253987
C34	C	1.246106	-0.844748	0.223566
O35	O	1.197074	-0.870451	0.197700
C36	C	1.246004	-0.657079	0.223538
C37	C	1.303655	-0.631926	0.253951
C38	C	1.418967	-0.628533	0.314782
C39	C	1.418945	-0.581619	0.314773
C40	C	1.361278	-0.559857	0.284353
C41	C	1.303633	-0.585011	0.253942
C42	C	1.188327	-0.635316	0.193119
C43	C	1.188305	-0.588395	0.193116
C44	C	1.245955	-0.563242	0.223529
C45	C	1.245944	-0.516335	0.223512
N46	N	1.303585	-0.491179	0.253926
C47	C	1.361252	-0.512940	0.284346
C48	C	1.246164	-0.943277	0.223582
C49	C	1.246191	-0.990194	0.223588
C50	C	1.361504	-0.986800	0.284424
C51	C	1.361481	-0.939882	0.284415
C52	C	1.303805	-0.918122	0.253995
C53	C	1.361203	-0.414416	0.284324
C54	C	1.361179	-0.367497	0.284311
C55	C	1.245863	-0.370895	0.223476
C56	C	1.245890	-0.417810	0.223488
C57	C	1.303563	-0.439569	0.253915
O58	O	1.196946	-0.493475	0.197645
O59	O	1.410262	-0.487230	0.310214
C60	C	1.361343	-0.700602	0.284381
C61	C	1.303698	-0.725755	0.253970
C62	C	1.246031	-0.703994	0.223550
C63	C	1.303724	-0.772672	0.253976
C64	C	1.361391	-0.794434	0.284396
C65	C	1.419032	-0.769278	0.314810
C66	C	1.419010	-0.722363	0.314801
C67	C	1.188390	-0.729150	0.193136
C68	C	1.188417	-0.776064	0.193147
C69	C	1.246084	-0.797826	0.223568
C70	C	1.538942	-0.172334	0.260719
C71	C	1.639220	-0.169462	0.263611
C72	C	1.303650	-0.179070	0.371112
C73	C	1.303660	-0.179068	0.421047
C74	C	1.303788	-0.061892	0.253985
C75	C	1.303858	-0.011956	0.254008
C76	C	1.303653	-0.179046	0.137211
C77	C	1.303818	-0.178916	0.087282
C78	C	1.361464	-0.148604	0.732372
C79	C	1.361508	-0.148564	0.920046
O80	O	1.410587	-0.122706	0.945739
N81	N	1.303780	-0.178945	0.941836
C82	C	1.246032	-0.209335	0.916703
O83	O	1.196926	-0.235172	0.939542
C84	C	1.245984	-0.209372	0.729029
C85	C	1.303722	-0.178993	0.707243
C86	C	1.419197	-0.118226	0.710585
C87	C	1.419188	-0.118238	0.663670
C88	C	1.361447	-0.148627	0.638540
C89	C	1.303714	-0.179005	0.660327
C90	C	1.188232	-0.239761	0.703897
C91	C	1.188224	-0.239766	0.656976
C92	C	1.245962	-0.209387	0.635190
C93	C	1.245964	-0.209406	0.588282
N94	N	1.303693	-0.179025	0.566493
C95	C	1.361434	-0.148636	0.591622
C96	C	1.246063	-0.209314	1.015234
C97	C	1.246076	-0.209306	1.062153
C98	C	1.361551	-0.148534	1.065493
C99	C	1.361542	-0.148545	1.018574
C100	C	1.303791	-0.178934	0.993445
C101	C	1.361413	-0.148663	0.493096
C102	C	1.361402	-0.148679	0.446176
C103	C	1.245924	-0.209449	0.442840
C104	C	1.245938	-0.209435	0.489756
C105	C	1.303685	-0.179039	0.514883
O106	O	1.196904	-0.235247	0.562561
O107	O	1.410519	-0.122797	0.568774
C108	C	1.361472	-0.148592	0.779288
C109	C	1.303739	-0.178969	0.801074
C110	C	1.245998	-0.209358	0.775945
C111	C	1.303752	-0.178961	0.847993
C112	C	1.361493	-0.148571	0.873122
C113	C	1.419221	-0.118191	0.851332
C114	C	1.419213	-0.118203	0.804417
C115	C	1.188269	-0.239739	0.797734
C116	C	1.188283	-0.239725	0.844650
C117	C	1.246024	-0.209336	0.869779
H118	H	0.647893	-0.221264	0.211632
H119	H	0.960291	-0.136874	0.296267
O120	O	1.475165	-0.088666	0.783206
C121	C	1.423829	-0.061116	0.754608
H122	H	1.355443	-0.078926	0.745594
H123	H	1.460584	-0.054036	0.722680
H124	H	1.413948	-0.028109	0.772422
H125	H	1.141249	-0.264487	0.777279
H126	H	1.466240	-0.093448	0.871801
O127	O	1.475175	-0.790396	0.344320
C128	C	1.565107	-0.776317	0.337145
H129	H	1.569722	-0.763306	0.301388
H130	H	1.609678	-0.805875	0.342326
H131	H	1.588641	-0.748385	0.361917
H132	H	1.408567	-0.123790	1.085961
H133	H	0.960097	-0.240973	0.191810
H134	H	0.819009	-0.112248	0.320997
O135	O	0.640572	-0.112929	0.320423
C136	C	0.586088	-0.140119	0.347832
H137	H	0.571926	-0.174547	0.331512
H138	H	0.519855	-0.123734	0.351990
H139	H	0.622423	-0.144063	0.382157
O140	O	1.189875	-0.349681	0.193971
C141	C	1.202238	-0.302878	0.200483
H142	H	1.231742	-0.295595	0.236014
H143	H	1.134658	-0.287013	0.195462
H144	H	1.250309	-0.288178	0.175238
O145	O	1.417653	-0.118989	0.997483
C146	C	1.468634	-0.092176	1.029729
H147	H	1.431689	-0.091677	1.062109
H148	H	1.478305	-0.056504	1.016466
H149	H	1.537131	-0.106666	1.036689
H150	H	1.466217	-0.093477	0.731041
O151	O	1.189967	-0.238986	0.418375
C152	C	1.241296	-0.266540	0.392717
H153	H	1.309692	-0.248738	0.387675
H154	H	1.204547	-0.273613	0.358658
H155	H	1.251155	-0.299551	0.411070
H156	H	1.199036	-0.234063	0.994779
H157	H	1.199255	-1.010670	0.198818
O158	O	1.417210	-0.343132	0.313900
C159	C	1.468123	-0.372403	0.340744
H160	H	1.431181	-0.406922	0.341223
H161	H	1.477690	-0.358549	0.376418
H162	H	1.536669	-0.375409	0.326299
H163	H	0.789171	-0.245890	0.186904
H164	H	1.408159	-0.432126	0.309104
H165	H	1.465926	-0.646246	0.339556
O166	O	1.474972	-0.557256	0.344361
C167	C	1.525883	-0.586532	0.371202
H168	H	1.488937	-0.621050	0.371677
H169	H	1.535450	-0.572682	0.406878
H170	H	1.594428	-0.589537	0.356756
H171	H	1.199070	-0.234048	1.079887
H172	H	1.141267	-0.264468	0.862385
H173	H	1.141215	-0.264499	0.721628
H174	H	1.141472	-0.796540	0.168377
H175	H	1.141185	-0.264509	0.636518
O176	O	1.417504	-0.915518	0.314004
C177	C	1.468421	-0.944792	0.340845
H178	H	1.431483	-0.979311	0.341318
H179	H	1.477985	-0.930942	0.376521
H180	H	1.536968	-0.947793	0.326399
H181	H	1.408460	-1.004526	0.309193
H182	H	1.408433	-0.123910	0.513549
O183	O	1.190111	-0.922213	0.193983
C184	C	1.139236	-0.954482	0.167151
H185	H	1.176217	-0.986849	0.166688
H186	H	1.129660	-0.941231	0.131470
H187	H	1.070694	-0.961460	0.181596
O188	O	1.132267	-0.659791	0.163641
C189	C	1.073957	-0.688599	0.187522
H190	H	1.105746	-0.694691	0.222493
H191	H	1.061879	-0.721950	0.168872
H192	H	1.007096	-0.672452	0.190512
H193	H	1.141335	-0.570681	0.168345
H194	H	1.465955	-0.701886	0.339566
O195	O	1.189809	-0.442180	0.193927
C196	C	1.138927	-0.412909	0.167066
H197	H	1.135769	-0.379543	0.185367
H198	H	1.067854	-0.428533	0.160200
H199	H	1.172010	-0.406981	0.133912
O200	O	1.132345	-0.708085	0.163539
C201	C	1.081466	-0.740354	0.136708
H202	H	1.118442	-0.772722	0.136247
H203	H	1.071892	-0.727104	0.101027
H204	H	1.012922	-0.747328	0.151153
H205	H	1.408423	-0.123940	0.428440
O206	O	1.189774	-0.238965	0.510850
C207	C	1.138830	-0.265799	0.478607
H208	H	1.135731	-0.247496	0.445076
H209	H	1.067741	-0.272625	0.490109
H210	H	1.171821	-0.298975	0.474565
H211	H	1.466203	-0.093499	0.645935
