data_functionalizedCrystal
_audit_creation_method	'MofGen! by Chris Wilmer'
_symmetry_space_group_name_H-M	'P1'
_symmetry_Int_Tables_number	1
_symmetry_cell_setting	triclinic
loop_
_symmetry_equiv_pos_as_xyz
  x,y,z
_cell_length_a	21.395364
_cell_length_b	12.645330
_cell_length_c	21.395355
_cell_angle_alpha	90.014466
_cell_angle_beta	90.024552
_cell_angle_gamma	90.027597
loop_
_atom_site_label
_atom_site_type_symbol
_atom_site_fract_x
_atom_site_fract_y
_atom_site_fract_z
Zn1	Zn	0.957938	-0.421739	0.354279
Zn2	Zn	1.457938	0.078261	0.854279
Zn3	Zn	0.957873	-0.598988	0.249509
Zn4	Zn	1.457873	-0.098988	0.749509
Zn5	Zn	0.853153	-0.421786	0.249516
Zn6	Zn	1.353153	0.078214	0.749516
Zn7	Zn	0.853155	-0.599007	0.354249
Zn8	Zn	1.353155	-0.099007	0.854249
O9	O	0.905530	-0.510380	0.301888
O10	O	1.405530	-0.010380	0.801888
O11	O	1.045607	-0.445224	0.340391
O12	O	1.545607	0.054776	0.840391
O13	O	0.943954	-0.575494	0.161832
O14	O	1.443954	-0.075494	0.661832
O15	O	0.867079	-0.273432	0.263428
O16	O	1.367079	0.226568	0.763428
O17	O	1.045560	-0.575449	0.263417
O18	O	1.545560	-0.075449	0.763417
O19	O	0.944064	-0.273398	0.340397
O20	O	1.444064	0.226602	0.840397
O21	O	0.867016	-0.445303	0.161837
O22	O	1.367016	0.054697	0.661837
O23	O	0.765475	-0.445322	0.263399
O24	O	1.265475	0.054678	0.763399
O25	O	0.867083	-0.575481	0.441931
O26	O	1.367083	-0.075481	0.941931
O27	O	0.765477	-0.575526	0.340346
O28	O	1.265477	-0.075526	0.840346
O29	O	0.944066	-0.445243	0.441953
O30	O	1.444066	0.054757	0.941953
O31	O	0.943956	-0.747338	0.263388
O32	O	1.443956	-0.247338	0.763388
O33	O	0.867020	-0.747352	0.340340
O34	O	1.367020	-0.247352	0.840340
C35	C	0.742742	-0.510432	0.301871
C36	C	1.242742	-0.010432	0.801871
C37	C	0.673101	-0.510479	0.301878
C38	C	1.173101	-0.010479	0.801878
C39	C	0.640435	-0.442783	0.342020
C40	C	1.140435	0.057217	0.842020
C41	C	0.574999	-0.442754	0.342023
C42	C	1.074999	0.057246	0.842023
C43	C	0.542233	-0.510442	0.301889
C44	C	1.042233	-0.010442	0.801889
C45	C	0.574907	-0.578143	0.261739
C46	C	1.074907	-0.078143	0.761739
C47	C	0.640341	-0.578162	0.261734
C48	C	1.140341	-0.078162	0.761734
C49	C	0.438526	-0.605910	0.296856
C50	C	0.938526	-0.105910	0.796856
C51	C	0.373093	-0.605893	0.296866
C52	C	0.873093	-0.105893	0.796866
C53	C	0.340412	-0.510383	0.301903
C54	C	0.840412	-0.010383	0.801903
C55	C	0.373172	-0.414888	0.306944
C56	C	0.873172	0.085112	0.806944
C57	C	0.438606	-0.414907	0.306938
C58	C	0.938606	0.085093	0.806938
C59	C	0.471280	-0.510429	0.301891
C60	C	0.971280	-0.010429	0.801891
C61	C	0.236793	-0.442650	0.342051
C62	C	0.736793	0.057350	0.842051
C63	C	0.171357	-0.442620	0.342049
C64	C	0.671357	0.057380	0.842049
C65	C	0.171265	-0.578019	0.261768
C66	C	0.671265	-0.078019	0.761768
C67	C	0.236700	-0.578039	0.261767
C68	C	0.736700	-0.078039	0.761767
C69	C	0.269461	-0.510357	0.301911
C70	C	0.769461	-0.010357	0.801911
C71	C	0.905498	-0.785810	0.301874
C72	C	1.405498	-0.285810	0.801874
C73	C	0.905542	-0.903640	0.301888
C74	C	1.405542	-0.403640	0.801888
C75	C	0.953865	-1.071151	0.253379
C76	C	1.453865	-0.571151	0.753379
C77	C	0.954022	-0.948591	0.253498
C78	C	1.454022	-0.448591	0.753498
C79	C	0.923453	-0.948039	0.367933
C80	C	1.423453	-0.448039	0.867933
C81	C	0.923836	-1.070636	0.367675
C82	C	1.423836	-0.570636	0.867675
C83	C	0.839290	-1.070990	0.285003
C84	C	1.339290	-0.570990	0.785003
C85	C	0.839607	-0.948385	0.283522
C86	C	1.339607	-0.448385	0.783522
C87	C	1.068953	-0.510329	0.301906
C88	C	1.568953	-0.010329	0.801906
C89	C	1.138594	-0.510307	0.301914
C90	C	1.638594	-0.010307	0.801914
C91	C	0.905582	-0.510359	0.465312
C92	C	1.405582	-0.010359	0.965312
C93	C	0.905604	-0.510349	0.534953
C94	C	1.405604	-0.010349	1.034953
C95	C	0.905578	-0.233875	0.301917
C96	C	1.405578	0.266125	0.801917
C97	C	0.905599	-0.116045	0.301929
C98	C	1.405599	0.383955	0.801929
C99	C	0.905514	-0.510325	0.139101
C100	C	1.405514	-0.010325	0.639101
C101	C	0.905613	-0.510035	0.069460
C102	C	1.405613	-0.010035	0.569460
C103	C	0.945687	-0.442532	0.567679
C104	C	1.445687	0.057468	1.067679
C105	C	0.945687	-0.442486	0.633114
C106	C	1.445687	0.057514	1.133114
C107	C	0.905609	-0.510277	0.665821
C108	C	1.405609	-0.010277	1.165821
C109	C	0.865517	-0.578100	0.633088
C110	C	1.365517	-0.078100	1.133088
C111	C	0.865515	-0.578136	0.567654
C112	C	1.365515	-0.078136	1.067654
C113	C	0.900651	-0.605732	0.769491
C114	C	1.400651	-0.105732	1.269491
C115	C	0.900657	-0.605697	0.834924
C116	C	1.400657	-0.105697	1.334924
C117	C	0.905613	-0.510165	0.867642
C118	C	1.405613	-0.010165	1.367642
C119	C	0.910574	-0.414664	0.834919
C120	C	1.410574	0.085336	1.334919
C121	C	0.910572	-0.414701	0.769485
C122	C	1.410572	0.085299	1.269485
C123	C	0.905607	-0.510245	0.736774
C124	C	1.405607	-0.010245	1.236774
C125	C	0.945697	-0.442292	0.971320
C126	C	1.445697	0.057708	1.471320
C127	C	0.945692	-0.442245	1.036757
C128	C	1.445692	0.057755	1.536757
C129	C	0.865526	-0.577868	1.036730
C130	C	1.365526	-0.077868	1.536730
C131	C	0.865528	-0.577906	0.971294
C132	C	1.365528	-0.077906	1.471294
C133	C	0.905617	-0.510120	0.938594
C134	C	1.405617	-0.010120	1.438594
H135	H	0.667104	-0.387669	0.374709
H136	H	1.167104	0.112331	0.874709
Br137	Br	1.003325	-0.896701	0.392231
Br138	Br	1.503325	-0.396701	0.892231
H139	H	0.346425	-0.683651	0.292765
H140	H	0.846425	-0.183651	0.792765
Br141	Br	0.935426	-1.120388	0.171515
Br142	Br	1.435426	-0.620388	0.671515
Br143	Br	1.000091	-0.350532	0.523302
Br144	Br	1.500091	0.149468	1.023302
Br145	Br	1.004620	-1.118139	0.391571
Br146	Br	1.504620	-0.618139	0.891571
Br147	Br	0.917305	-0.285004	0.879314
Br148	Br	1.417305	0.214996	1.379314
Br149	Br	0.917302	-0.285100	0.725077
Br150	Br	1.417302	0.214900	1.225077
Br151	Br	0.893944	-0.735397	0.725094
Br152	Br	1.393944	-0.235397	1.225094
Br153	Br	1.035286	-1.122335	0.271827
Br154	Br	1.535286	-0.622335	0.771827
Br155	Br	0.893933	-0.735304	0.879327
Br156	Br	1.393933	-0.235304	1.379327
Br157	Br	0.482872	-0.735540	0.290007
Br158	Br	0.982872	-0.235540	0.790007
Br159	Br	1.000100	-0.350296	0.926937
Br160	Br	1.500100	0.149704	1.426937
H161	H	0.832888	-0.633054	1.063359
H162	H	1.332888	-0.133054	1.563359
H163	H	0.826103	-0.919377	0.234919
H164	H	1.326103	-0.419377	0.734919
H165	H	0.978332	-0.387013	1.063401
H166	H	1.478332	0.112987	1.563401
H167	H	0.144587	-0.633131	0.229091
H168	H	0.644587	-0.133131	0.729091
H169	H	0.978326	-0.387255	0.659764
H170	H	1.478326	0.112745	1.159764
H171	H	0.263468	-0.387532	0.374735
H172	H	0.763468	0.112468	0.874735
Br173	Br	0.811121	-0.670096	0.677475
Br174	Br	1.311121	-0.170096	1.177475
H175	H	0.832892	-0.633137	0.944649
H176	H	1.332892	-0.133137	1.444649
H177	H	1.003135	-0.919165	0.264693
H178	H	1.503135	-0.419165	0.764693
H179	H	0.832871	-0.633360	0.541009
H180	H	1.332871	-0.133360	1.041009
H181	H	0.548224	-0.633254	0.229062
H182	H	1.048224	-0.133254	0.729062
Br183	Br	0.530657	-0.350870	0.396503
Br184	Br	1.030657	0.149130	0.896503
H185	H	0.144761	-0.387487	0.374736
H186	H	0.644761	0.112513	0.874736
Br187	Br	0.867781	-1.120139	0.430014
Br188	Br	1.367781	-0.620139	0.930014
H189	H	0.666937	-0.633291	0.229044
H190	H	1.166937	-0.133291	0.729044
H191	H	0.465276	-0.337151	0.311040
H192	H	0.965276	0.162849	0.811040
H193	H	0.942816	-0.918574	0.204527
H194	H	1.442816	-0.418574	0.704527
Br195	Br	0.281036	-0.669911	0.207280
Br196	Br	0.781036	-0.169911	0.707280
Br197	Br	0.328827	-0.285258	0.313782
Br198	Br	0.828827	0.214742	0.813782
H199	H	0.889369	-0.918922	0.405075
H200	H	1.389369	-0.418922	0.905075
H201	H	0.823003	-1.101989	0.237682
H202	H	1.323003	-0.601989	0.737682
H203	H	0.801705	-0.917800	0.316290
H204	H	1.301705	-0.417800	0.816290
Br205	Br	0.779350	-1.119386	0.343938
Br206	Br	1.279350	-0.619386	0.843938
