data_functionalizedCrystal
_audit_creation_method	'MofGen! by Chris Wilmer'
_symmetry_space_group_name_H-M	'P1'
_symmetry_Int_Tables_number	1
_symmetry_cell_setting	triclinic
loop_
_symmetry_equiv_pos_as_xyz
  x,y,z
_cell_length_a	14.909042
_cell_length_b	19.077115
_cell_length_c	19.076919
_cell_angle_alpha	90.076897
_cell_angle_beta	89.109790
_cell_angle_gamma	84.289534
loop_
_atom_site_label
_atom_site_type_symbol
_atom_site_fract_x
_atom_site_fract_y
_atom_site_fract_z
Zn1	Zn	-0.436521	1.078720	-0.421602
Zn2	Zn	0.063479	1.578720	0.078398
Zn3	Zn	-0.581601	1.090157	-0.297846
Zn4	Zn	-0.081601	1.590157	0.202154
Zn5	Zn	-0.424434	0.965372	-0.299917
Zn6	Zn	0.075566	1.465372	0.200083
Zn7	Zn	-0.581056	0.967953	-0.410623
Zn8	Zn	-0.081056	1.467953	0.089377
O9	O	-0.505903	1.025551	-0.357497
O10	O	-0.005903	1.525551	0.142503
O11	O	-0.461053	1.178817	-0.408913
O12	O	0.038947	1.678817	0.091087
O13	O	-0.555921	1.077310	-0.199997
O14	O	-0.055921	1.577310	0.300003
O15	O	-0.299774	0.974541	-0.321521
O16	O	0.200226	1.474541	0.178479
O17	O	-0.567642	1.187219	-0.317990
O18	O	-0.067642	1.687219	0.182010
O19	O	-0.308655	1.057818	-0.410922
O20	O	0.191345	1.557818	0.089078
O21	O	-0.440452	0.985631	-0.201519
O22	O	0.059548	1.485631	0.298481
O23	O	-0.439924	0.867135	-0.310875
O24	O	0.060076	1.367135	0.189125
O25	O	-0.566715	0.978941	-0.510203
O26	O	-0.066715	1.478941	-0.010203
O27	O	-0.554994	0.869032	-0.392210
O28	O	-0.054994	1.369032	0.107790
O29	O	-0.460525	1.060321	-0.518269
O30	O	0.039475	1.560321	-0.018269
O31	O	-0.707792	1.079813	-0.307344
O32	O	-0.207792	1.579813	0.192656
O33	O	-0.707392	0.990031	-0.390202
O34	O	-0.207392	1.490031	0.109798
C35	C	-0.496089	0.842523	-0.350577
C36	C	0.003911	1.342523	0.149423
C37	C	-0.491913	0.764223	-0.347632
C38	C	0.008087	1.264223	0.152368
C39	C	-0.461923	0.323367	-0.326518
C40	C	0.038077	0.823367	0.173482
C41	C	-0.465852	0.396938	-0.329289
C42	C	0.034148	0.896938	0.170711
C43	C	-0.527818	0.434735	-0.372944
C44	C	-0.027818	0.934735	0.127056
C45	C	-0.585853	0.398956	-0.413837
C46	C	-0.085853	0.898956	0.086163
C47	C	-0.581919	0.325386	-0.411069
C48	C	-0.081919	0.825386	0.088931
C49	C	-0.546014	0.654874	-0.385757
C50	C	-0.046014	1.154874	0.114243
C51	C	-0.549945	0.728449	-0.388520
C52	C	-0.049945	1.228449	0.111480
C53	C	-0.429942	0.726427	-0.303972
C54	C	0.070058	1.226427	0.196028
C55	C	-0.426017	0.652856	-0.301206
C56	C	0.073983	1.152856	0.198794
C57	C	-0.484049	0.617083	-0.342101
C58	C	0.015951	1.117083	0.157899
N59	N	-0.531838	0.509936	-0.375775
N60	N	-0.031838	1.009936	0.124225
N61	N	-0.480024	0.541882	-0.339273
N62	N	0.019976	1.041882	0.160727
C63	C	-0.740332	1.036462	-0.347373
C64	C	-0.240332	1.536462	0.152627
C65	C	-0.840627	1.041193	-0.343068
C66	C	-0.340627	1.541193	0.156932
C67	C	-1.028730	0.956509	-0.421176
C68	C	-0.528730	1.456509	0.078824
C69	C	-1.122966	0.960952	-0.417133
C70	C	-0.622966	1.460952	0.082867
C71	C	-1.123335	1.054518	-0.330936
C72	C	-0.623335	1.554518	0.169064
C73	C	-1.029099	1.050075	-0.334979
C74	C	-0.529099	1.550075	0.165021
C75	C	-0.981800	1.001070	-0.380101
C76	C	-0.481800	1.501070	0.119899
C77	C	-0.887563	0.996630	-0.384147
C78	C	-0.387563	1.496630	0.115853
C79	C	-0.887934	1.090193	-0.297947
C80	C	-0.387934	1.590193	0.202053
C81	C	-0.982169	1.094636	-0.293904
C82	C	-0.482169	1.594636	0.206096
C83	C	-0.270560	1.014616	-0.367677
C84	C	0.229440	1.514616	0.132323
C85	C	-0.170271	1.009956	-0.372015
C86	C	0.329729	1.509956	0.127985
C87	C	-0.514907	1.018643	-0.540390
C88	C	-0.014907	1.518643	-0.040390
C89	C	-0.518745	1.015700	-0.618327
C90	C	-0.018745	1.515700	-0.118327
C91	C	-0.515756	1.209293	-0.364445
C92	C	-0.015756	1.709293	0.135555
C93	C	-0.519955	1.287594	-0.367406
C94	C	-0.019955	1.787594	0.132594
C95	C	-0.465263	1.056685	-0.659143
C96	C	0.034737	1.556685	-0.159143
C97	C	-0.468864	1.053910	-0.732374
C98	C	0.031136	1.553910	-0.232374
C99	C	-0.525953	1.010154	-0.764787
C100	C	-0.025953	1.510154	-0.264787
C101	C	-0.579437	0.969164	-0.723966
C102	C	-0.079437	1.469164	-0.223966
C103	C	-0.575830	0.971935	-0.650737
C104	C	-0.075830	1.471935	-0.150737
C105	C	-0.542664	0.997319	-0.983349
C106	C	-0.042664	1.497319	-0.483349
C107	C	-0.546269	0.994552	-1.056583
C108	C	-0.046269	1.494552	-0.556583
C109	C	-0.435694	1.079298	-1.064986
C110	C	0.064306	1.579298	-0.564986
C111	C	-0.432097	1.082068	-0.991755
C112	C	0.067903	1.582068	-0.491755
C113	C	-0.485577	1.041076	-0.950940
C114	C	0.014423	1.541076	-0.450940
N115	N	-0.529638	1.007318	-0.839641
N116	N	-0.029638	1.507318	-0.339641
N117	N	-0.481887	1.043908	-0.876088
N118	N	0.018113	1.543908	-0.376088
C119	C	-0.496871	1.032469	-0.175321
C120	C	0.003129	1.532469	0.324679
C121	C	-0.492787	1.035537	-0.097399
C122	C	0.007213	1.535537	0.402601
H123	H	-0.411464	0.292599	-0.290968
H124	H	0.088536	0.792599	0.209032
C125	C	-0.369285	1.130196	-0.956106
C126	C	0.130715	1.630196	-0.456106
N127	N	-0.321973	1.166446	-0.929256
N128	N	0.178027	1.666446	-0.429256
H129	H	-1.161861	1.094410	-0.294193
H130	H	-0.661861	1.594410	0.205807
H131	H	-0.392153	1.112670	-1.098225
H132	H	0.107847	1.612670	-0.598225
H133	H	-0.619371	0.938553	-0.617505
H134	H	-0.119371	1.438553	-0.117505
H135	H	-0.586225	0.963951	-0.950126
H136	H	-0.086225	1.463951	-0.450126
H137	H	-0.425316	1.087286	-0.765603
H138	H	0.074684	1.587286	-0.265603
C139	C	-0.402013	0.436286	-0.284307
C140	C	0.097987	0.936286	0.215693
N141	N	-0.353926	0.465923	-0.250424
N142	N	0.146074	0.965923	0.249576
C143	C	-0.836303	1.139213	-0.252761
C144	C	-0.336303	1.639213	0.247239
N145	N	-0.797414	1.176135	-0.218730
N146	N	-0.297414	1.676135	0.281270
H147	H	-0.375564	0.622087	-0.265652
H148	H	0.124436	1.122087	0.234348
H149	H	-0.592759	0.958918	-1.082972
H150	H	-0.092759	1.458918	-0.582972
H151	H	-0.625916	0.933534	-0.750363
H152	H	-0.125916	1.433534	-0.250363
C153	C	-0.366100	0.765782	-0.259000
C154	C	0.133900	1.265782	0.241000
N155	N	-0.318007	0.795424	-0.225130
N156	N	0.181993	1.295424	0.274870
H157	H	-0.593271	0.625757	-0.419054
H158	H	-0.093271	1.125757	0.080946
H159	H	-1.020692	1.134533	-0.257165
H160	H	-0.520692	1.634533	0.242835
C161	C	-0.618109	0.770023	-0.436552
C162	C	-0.118109	1.270023	0.063448
N163	N	-0.669447	0.801337	-0.472729
N164	N	-0.169447	1.301337	0.027271
C165	C	-0.654019	0.440534	-0.461856
C166	C	-0.154019	0.940534	0.038144
N167	N	-0.705367	0.471851	-0.498023
N168	N	-0.205367	0.971851	0.001977
C169	C	-0.835536	0.942726	-0.433785
C170	C	-0.335536	1.442726	0.066215
N171	N	-0.796352	0.902123	-0.471172
N172	N	-0.296352	1.402123	0.028828
C173	C	-0.976699	0.902603	-0.470810
C174	C	-0.476699	1.402603	0.029190
N175	N	-0.937511	0.861999	-0.508194
N176	N	-0.437511	1.361999	-0.008194
C177	C	-1.174586	0.911934	-0.462320
C178	C	-0.674586	1.411934	0.037680
N179	N	-1.213465	0.875011	-0.496357
N180	N	-0.713465	1.375011	0.003643
C181	C	-0.645762	0.286035	-0.456047
C182	C	-0.145762	0.786035	0.043953
N183	N	-0.693850	0.256397	-0.489927
N184	N	-0.193850	0.756397	0.010073
C185	C	-0.402459	1.104820	-0.623496
C186	C	0.097541	1.604820	-0.123496
N187	N	-0.355150	1.141074	-0.596648
N188	N	0.144850	1.641074	-0.096648
