data_functionalizedCrystal
_audit_creation_method	'MofGen! by Chris Wilmer'
_symmetry_space_group_name_H-M	'P1'
_symmetry_Int_Tables_number	1
_symmetry_cell_setting	triclinic
loop_
_symmetry_equiv_pos_as_xyz
  x,y,z
_cell_length_a	8.559649
_cell_length_b	7.088929
_cell_length_c	9.065218
_cell_angle_alpha	83.685725
_cell_angle_beta	102.602725
_cell_angle_gamma	84.674985
loop_
_atom_site_label
_atom_site_type_symbol
_atom_site_fract_x
_atom_site_fract_y
_atom_site_fract_z
O1	O	2.103251	0.158958	0.032974
O2	O	1.639147	0.158966	-0.043093
O3	O	1.880793	0.158958	0.210789
O4	O	1.861606	0.158966	-0.220908
O5	O	1.913085	-0.159019	0.244786
O6	O	1.671440	-0.159011	-0.009096
O7	O	2.135544	-0.159019	0.066971
Cu8	Cu	1.906440	-0.188048	0.032042
Cu9	Cu	1.868251	0.187995	-0.008164
O10	O	1.893898	-0.159011	-0.186911
C11	C	1.595847	-0.000022	-0.031859
C12	C	1.418715	-0.000018	-0.049018
N13	N	1.933312	-0.452537	0.060322
C14	C	2.178843	-0.000027	0.055736
C15	C	2.355974	-0.000018	0.072894
C16	C	1.895095	-0.000027	0.282542
C17	C	1.889580	-0.000018	0.445691
N18	N	1.841391	0.452484	-0.036431
C19	C	1.879596	-0.000021	-0.258664
C20	C	1.885109	-0.000018	-0.421815
H21	H	1.437770	-0.000011	0.190394
H22	H	1.746125	-0.465866	-0.136697
C23	C	1.309431	0.000289	-0.205649
C24	C	1.196255	0.163862	-0.240234
C25	C	1.095544	0.164199	-0.384498
H26	H	1.372335	0.000386	-0.279983
H27	H	1.254956	-0.110535	-0.205705
H28	H	1.250726	0.274658	-0.240191
H29	H	1.133314	0.163801	-0.165939
H30	H	1.041069	0.053375	-0.384553
H31	H	1.158462	0.164290	-0.458819
H32	H	1.018734	0.275172	-0.407976
C33	C	2.060495	-0.561059	0.194076
C34	C	2.140974	-0.430750	0.278747
C35	C	2.258153	-0.530649	0.401959
H36	H	2.010191	-0.639167	0.257270
H37	H	2.135719	-0.639091	0.157017
H38	H	2.065762	-0.352751	0.315807
H39	H	2.191312	-0.352638	0.215598
H40	H	2.333377	-0.608681	0.364900
H41	H	2.207835	-0.608754	0.465140
H42	H	2.312782	-0.442251	0.459415
