data_functionalizedCrystal
_audit_creation_method	'MofGen! by Chris Wilmer'
_symmetry_space_group_name_H-M	'P1'
_symmetry_Int_Tables_number	1
_symmetry_cell_setting	triclinic
loop_
_symmetry_equiv_pos_as_xyz
  x,y,z
_cell_length_a	12.837942
_cell_length_b	10.654550
_cell_length_c	11.892083
_cell_angle_alpha	93.937008
_cell_angle_beta	94.299957
_cell_angle_gamma	90.343065
loop_
_atom_site_label
_atom_site_type_symbol
_atom_site_fract_x
_atom_site_fract_y
_atom_site_fract_z
O1	O	0.139158	-1.690986	-0.093917
O2	O	0.153040	-1.327024	-0.093938
O3	O	-0.004861	-1.500934	-0.093921
O4	O	0.297059	-1.517076	-0.093934
O5	O	0.008276	-1.486418	0.094085
O6	O	0.166177	-1.312508	0.094068
O7	O	0.152295	-1.676470	0.094089
Zn8	Zn	0.161322	-1.492185	0.123929
Zn9	Zn	0.144013	-1.511309	-0.123778
O10	O	0.310197	-1.502560	0.094072
C11	C	0.158589	-1.272857	0.000063
C12	C	0.155539	-1.133082	0.000055
C13	C	-0.036953	-1.488223	0.000081
C14	C	-0.152147	-1.471961	0.000078
C15	C	0.146746	-1.730637	0.000086
C16	C	0.149796	-1.870413	0.000086
C17	C	-0.391700	-1.667466	0.000066
C18	C	-0.499936	-1.652193	0.000063
C19	C	-0.476857	-1.426141	0.000062
C20	C	-0.368621	-1.441415	0.000065
C21	C	-0.326047	-1.562081	0.000068
C22	C	-0.217808	-1.577354	0.000079
C23	C	-0.194732	-1.351304	0.000070
C24	C	-0.302968	-1.336030	0.000067
C25	C	0.342288	-1.515271	0.000067
C26	C	0.457481	-1.531534	0.000063
N27	N	0.173134	-1.479142	0.292982
C28	C	0.248509	-1.063741	0.000054
C29	C	0.245639	-0.932406	0.000074
C30	C	0.056819	-0.939763	0.000090
C31	C	0.059691	-1.071095	0.000079
N32	N	0.132193	-1.524361	-0.292831
C33	C	0.255438	-1.388472	0.470511
C34	C	0.247165	-1.397564	0.352170
C35	C	0.107370	-1.551630	0.352143
C36	C	0.115643	-1.542538	0.470485
C37	C	0.189680	-1.460958	0.529664
C38	C	0.197958	-1.451873	0.648008
C39	C	0.058158	-1.605932	0.647979
C40	C	0.049885	-1.615024	0.529638
H41	H	-0.183147	-1.675606	0.000086
O42	O	-0.344463	-1.218897	-0.000084
C43	C	-0.460021	-1.077948	-0.097519
C44	C	-0.413128	-1.210658	-0.097479
H45	H	-0.515530	-1.071235	-0.176265
H46	H	-0.504699	-1.059058	-0.018894
H47	H	-0.394481	-1.005267	-0.097458
H48	H	-0.478604	-1.283423	-0.097580
H49	H	-0.368424	-1.229440	-0.176097
O50	O	0.035517	-1.631155	0.294907
C51	C	-0.025928	-1.845344	0.259012
C52	C	0.055488	-1.755339	0.323833
H53	H	-0.009797	-1.945768	0.282357
H54	H	-0.107540	-1.817391	0.282379
H55	H	-0.020677	-1.839504	0.164238
H56	H	0.050332	-1.761133	0.418621
H57	H	0.137065	-1.783319	0.300373
H58	H	-0.016022	-1.127554	0.000083
O59	O	-0.350223	-1.784621	-0.000076
C60	C	-0.248262	-1.940598	-0.097499
C61	C	-0.295155	-1.807885	-0.097466
H62	H	-0.203747	-1.959460	-0.176242
H63	H	-0.192607	-1.947352	-0.018871
H64	H	-0.313791	-2.013273	-0.097440
H65	H	-0.229696	-1.735132	-0.097565
H66	H	-0.350836	-1.801238	-0.176088
O67	O	-0.563617	-1.754670	-0.000087
C68	C	-0.623304	-1.950679	-0.097523
C69	C	-0.551119	-1.834697	-0.097478
H70	H	-0.613240	-2.015399	-0.176268
H71	H	-0.602211	-2.003441	-0.018896
H72	H	-0.707965	-1.919006	-0.097471
H73	H	-0.466435	-1.866262	-0.097570
H74	H	-0.572300	-1.781960	-0.176099
H75	H	0.326555	-1.114206	0.000043
H76	H	0.321345	-0.875954	0.000075
O77	O	-0.131073	-1.248839	-0.000078
C78	C	-0.084989	-1.067857	-0.097504
C79	C	-0.157166	-1.183835	-0.097470
H80	H	-0.106044	-1.015283	-0.176249
H81	H	-0.095109	-1.002966	-0.018877
H82	H	-0.000318	-1.099518	-0.097442
H83	H	-0.241864	-1.152288	-0.097572
H84	H	-0.146955	-1.248698	-0.176090
O85	O	0.269896	-1.372521	0.705323
C86	C	0.407709	-1.220708	0.692853
C87	C	0.326272	-1.310509	0.627808
H88	H	0.453327	-1.170567	0.630211
H89	H	0.366353	-1.148226	0.748245
H90	H	0.463790	-1.276925	0.748271
H91	H	0.270169	-1.254397	0.572329
H92	H	0.367698	-1.382992	0.572487
H93	H	-0.010398	-1.681442	0.481440
O94	O	0.327379	-1.309127	0.527830
C95	C	0.465209	-1.157332	0.515372
C96	C	0.383767	-1.247121	0.450320
H97	H	0.510835	-1.107196	0.452734
H98	H	0.423857	-1.084846	0.570763
H99	H	0.521281	-1.213558	0.570791
H100	H	0.327672	-1.191000	0.394840
H101	H	0.425189	-1.319608	0.395001
O102	O	-0.005875	-1.676295	0.705314
C103	C	-0.183178	-1.725556	0.741577
C104	C	-0.110791	-1.645807	0.676558
H105	H	-0.268017	-1.700916	0.718370
H106	H	-0.170596	-1.829649	0.718250
H107	H	-0.164496	-1.705080	0.836320
H108	H	-0.129428	-1.666174	0.581800
H109	H	-0.123386	-1.541738	0.699979
H110	H	-0.021217	-0.889277	0.000117
H111	H	-0.511541	-1.327901	0.000047
H112	H	0.300710	-1.338537	0.304011
