data_functionalizedCrystal
_audit_creation_method	'MofGen! by Chris Wilmer'
_symmetry_space_group_name_H-M	'P1'
_symmetry_Int_Tables_number	1
_symmetry_cell_setting	triclinic
loop_
_symmetry_equiv_pos_as_xyz
  x,y,z
_cell_length_a	6.394989
_cell_length_b	17.699077
_cell_length_c	16.776229
_cell_angle_alpha	89.993415
_cell_angle_beta	90.003593
_cell_angle_gamma	95.110856
loop_
_atom_site_label
_atom_site_type_symbol
_atom_site_fract_x
_atom_site_fract_y
_atom_site_fract_z
O1	O	-0.264072	1.006776	-0.066273
O2	O	-0.298449	0.786748	-0.066276
O3	O	0.022820	0.899885	-0.066275
O4	O	-0.585341	0.893639	-0.066274
O5	O	0.022840	0.899870	0.066302
O6	O	-0.298429	0.786732	0.066301
O7	O	-0.264052	1.006761	0.066304
Zn8	Zn	-0.281237	0.896744	0.087352
Zn9	Zn	-0.281263	0.896765	-0.087324
O10	O	-0.585321	0.893623	0.066303
C11	C	-0.297209	0.758531	0.000012
C12	C	-0.293520	0.674475	0.000011
C13	C	-0.291771	0.634981	0.072279
C14	C	-0.288272	0.556003	0.072280
C15	C	-0.286536	0.516519	0.000011
C16	C	-0.288279	0.556018	-0.072263
C17	C	-0.291764	0.634996	-0.072263
C18	C	-0.274223	0.237512	-0.072264
C19	C	-0.270745	0.158528	-0.072258
C20	C	-0.270731	0.158519	0.072278
C21	C	-0.274216	0.237496	0.072278
C22	C	-0.275947	0.276989	0.000005
C23	C	-0.279738	0.362626	0.000005
C24	C	-0.282760	0.430883	0.000011
C25	C	0.100645	0.898642	0.000011
C26	C	0.336860	0.894868	0.000010
C27	C	-0.265292	1.034978	0.000014
C28	C	-0.268981	1.119034	0.000011
N29	N	-0.281218	0.896735	0.206563
N30	N	-0.281266	0.896779	-0.206535
C31	C	-0.139019	0.946849	0.248281
C32	C	-0.139017	0.946853	0.331733
C33	C	-0.281227	0.896747	0.373466
C34	C	-0.423433	0.846628	0.331742
C35	C	-0.423423	0.846621	0.248292
C36	C	-0.423474	0.846656	0.668290
C37	C	-0.423477	0.846669	0.751746
C38	C	-0.139068	0.946888	0.751731
C39	C	-0.139058	0.946881	0.668280
C40	C	-0.281256	0.896760	0.626564
C41	C	-0.281254	0.896755	0.536075
C42	C	-0.281241	0.896755	0.463953
H43	H	-0.293192	0.667150	-0.131111
C44	C	-0.297120	0.756040	0.136462
C45	C	-0.293682	0.678379	0.151719
H46	H	-0.298308	0.782829	0.185507
H47	H	-0.175952	0.773596	0.106773
H48	H	-0.419457	0.764365	0.106768
H49	H	-0.171337	0.670053	0.181408
H50	H	-0.414862	0.660817	0.181421
C51	C	0.142130	1.045910	0.256656
C52	C	0.017309	1.001927	0.202411
H53	H	0.238653	1.079908	0.228338
H54	H	0.055279	1.073962	0.289192
H55	H	0.217136	1.013686	0.289217
H56	H	-0.057709	1.034151	0.169854
H57	H	0.104171	0.973872	0.169862
H58	H	-0.275639	0.269639	0.131126
H59	H	-0.269312	0.126354	0.131127
H60	H	-0.286812	0.523852	0.131128
H61	H	-0.539285	0.805863	0.785724
H62	H	-0.269330	0.126383	-0.131112
C63	C	-0.273890	0.229577	-0.215134
C64	C	-0.276137	0.280915	-0.151706
H65	H	-0.275082	0.256376	-0.264180
H66	H	-0.150792	0.203385	-0.212124
H67	H	-0.394297	0.194160	-0.212121
H68	H	-0.155721	0.316329	-0.154715
H69	H	-0.399248	0.307120	-0.154718
C70	C	0.145317	0.960595	0.425575
C71	C	0.017293	1.001945	0.377583
H72	H	0.241828	0.994610	0.453875
H73	H	0.060638	0.930763	0.462374
H74	H	0.220335	0.928379	0.393021
H75	H	-0.057738	1.034158	0.410138
H76	H	0.101982	1.031790	0.340780
H77	H	-0.286851	0.523865	-0.131105
H78	H	-0.023265	0.987684	0.634303
C79	C	0.145272	0.960617	0.845579
C80	C	0.017266	1.001975	0.797588
H81	H	0.241786	0.994627	0.873884
H82	H	0.060581	0.930784	0.882373
H83	H	0.220287	0.928401	0.813023
H84	H	-0.057761	1.034188	0.830145
H85	H	0.101968	1.031822	0.760790
H86	H	-0.539260	0.805847	0.634331
C87	C	-0.549753	0.802143	0.459672
C88	C	-0.579759	0.791552	0.377614
H89	H	-0.646279	0.768144	0.487987
H90	H	-0.410404	0.792596	0.473354
H91	H	-0.572264	0.852872	0.473325
H92	H	-0.557234	0.740824	0.363959
H93	H	-0.719141	0.801093	0.363926
H94	H	-0.539214	0.805812	0.214326
