data_functionalizedCrystal
_audit_creation_method	'MofGen! by Chris Wilmer'
_symmetry_space_group_name_H-M	'P1'
_symmetry_Int_Tables_number	1
_symmetry_cell_setting	triclinic
loop_
_symmetry_equiv_pos_as_xyz
  x,y,z
_cell_length_a	16.992694
_cell_length_b	12.996460
_cell_length_c	14.519731
_cell_angle_alpha	89.988498
_cell_angle_beta	92.821461
_cell_angle_gamma	89.999814
loop_
_atom_site_label
_atom_site_type_symbol
_atom_site_fract_x
_atom_site_fract_y
_atom_site_fract_z
O1	O	1.040679	0.085459	-0.195571
O2	O	1.290679	0.335459	0.054429
O3	O	1.540679	0.585459	0.304429
O4	O	1.790679	0.835459	0.554429
O5	O	0.812391	0.085489	-0.193425
O6	O	1.062391	0.335489	0.056575
O7	O	1.312391	0.585489	0.306575
O8	O	1.562391	0.835489	0.556575
O9	O	0.932579	0.085452	-0.060695
O10	O	1.182579	0.335452	0.189305
O11	O	1.432579	0.585452	0.439305
O12	O	1.682579	0.835452	0.689305
O13	O	0.920491	0.085495	-0.328302
O14	O	1.170491	0.335495	-0.078302
O15	O	1.420491	0.585495	0.171698
O16	O	1.670491	0.835495	0.421698
O17	O	0.932567	-0.085682	-0.060686
O18	O	1.182567	0.164318	0.189314
O19	O	1.432567	0.414318	0.439314
O20	O	1.682567	0.664318	0.689314
O21	O	0.812378	-0.085645	-0.193417
O22	O	1.062378	0.164355	0.056583
O23	O	1.312378	0.414355	0.306583
O24	O	1.562378	0.664355	0.556583
O25	O	1.040667	-0.085675	-0.195562
O26	O	1.290667	0.164325	0.054438
O27	O	1.540667	0.414325	0.304438
O28	O	1.790667	0.664325	0.554438
Cu29	Cu	0.926521	-0.101286	-0.194489
Cu30	Cu	1.176521	0.148714	0.055511
Cu31	Cu	1.426521	0.398714	0.305511
Cu32	Cu	1.676521	0.648714	0.555511
Cu33	Cu	0.926536	0.101100	-0.194499
Cu34	Cu	1.176536	0.351100	0.055501
Cu35	Cu	1.426536	0.601100	0.305501
Cu36	Cu	1.676536	0.851100	0.555501
O37	O	0.920479	-0.085639	-0.328293
O38	O	1.170479	0.164361	-0.078293
O39	O	1.420479	0.414361	0.171707
O40	O	1.670479	0.664361	0.421707
C41	C	0.783168	-0.000075	-0.190661
C42	C	1.033168	0.249925	0.059339
C43	C	1.283168	0.499925	0.309339
C44	C	1.533168	0.749925	0.559339
C45	C	0.696112	-0.000064	-0.182426
C46	C	0.946112	0.249936	0.067574
C47	C	1.196112	0.499936	0.317574
C48	C	1.446112	0.749936	0.567574
N49	N	0.926517	-0.243633	-0.194481
N50	N	1.176517	0.006367	0.055519
N51	N	1.426517	0.256367	0.305519
N52	N	1.676517	0.506367	0.555519
C53	C	0.645988	-0.000052	-0.261885
C54	C	0.895988	0.249948	-0.011885
C55	C	1.145988	0.499948	0.238115
C56	C	1.395988	0.749948	0.488115
C57	C	0.564190	-0.000068	-0.254142
C58	C	0.814190	0.249932	-0.004142
C59	C	1.064190	0.499932	0.245858
C60	C	1.314190	0.749932	0.495858
C61	C	0.532517	-0.000088	-0.166938
C62	C	0.782517	0.249912	0.083062
C63	C	1.032517	0.499912	0.333062
C64	C	1.282517	0.749912	0.583062
C65	C	0.582648	-0.000103	-0.087473
C66	C	0.832648	0.249897	0.162527
C67	C	1.082648	0.499897	0.412527
C68	C	1.332648	0.749897	0.662527
C69	C	0.664444	-0.000095	-0.095217
C70	C	0.914444	0.249905	0.154783
C71	C	1.164444	0.499905	0.404783
C72	C	1.414444	0.749905	0.654783
C73	C	0.288873	-0.000120	-0.134841
C74	C	0.538873	0.249880	0.115159
C75	C	0.788873	0.499880	0.365159
C76	C	1.038873	0.749880	0.615159
C77	C	0.207070	-0.000125	-0.127103
C78	C	0.457070	0.249875	0.122897
C79	C	0.707070	0.499875	0.372897
C80	C	0.957070	0.749875	0.622897
C81	C	0.188618	-0.000092	-0.293773
C82	C	0.438618	0.249908	-0.043773
C83	C	0.688618	0.499908	0.206227
C84	C	0.938618	0.749908	0.456227
C85	C	0.270416	-0.000078	-0.301509
C86	C	0.520416	0.249922	-0.051509
C87	C	0.770416	0.499922	0.198491
C88	C	1.020416	0.749922	0.448491
C89	C	0.320539	-0.000098	-0.222044
C90	C	0.570539	0.249902	0.027956
C91	C	0.820539	0.499902	0.277956
C92	C	1.070539	0.749902	0.527956
N93	N	0.448907	-0.000100	-0.159021
N94	N	0.698907	0.249900	0.090979
N95	N	0.948907	0.499900	0.340979
N96	N	1.198907	0.749900	0.590979
N97	N	0.404148	-0.000093	-0.229962
N98	N	0.654148	0.249907	0.020038
N99	N	0.904148	0.499907	0.270038
N100	N	1.154148	0.749907	0.520038
C101	C	0.926535	-0.663447	-0.194500
C102	C	1.176535	-0.413447	0.055500
C103	C	1.426535	-0.163447	0.305500
C104	C	1.676535	0.086553	0.555500
C105	C	0.926528	-0.546642	-0.194498
C106	C	1.176528	-0.296642	0.055502
C107	C	1.426528	-0.046642	0.305502
C108	C	1.676528	0.203358	0.555502
C109	C	0.926526	-0.453544	-0.194491
C110	C	1.176526	-0.203544	0.055509
C111	C	1.426526	0.046456	0.305509
C112	C	1.676526	0.296456	0.555509
C113	C	0.926518	-0.336731	-0.194488
C114	C	1.176518	-0.086731	0.055512
C115	C	1.426518	0.163269	0.305512
C116	C	1.676518	0.413269	0.555512
C117	C	1.069890	-0.000110	-0.198327
C118	C	1.319890	0.249890	0.051673
C119	C	1.569890	0.499890	0.301673
C120	C	1.819890	0.749890	0.551673
C121	C	1.156946	-0.000113	-0.206562
C122	C	1.406946	0.249887	0.043438
C123	C	1.656946	0.499887	0.293438
C124	C	1.906946	0.749887	0.543438
C125	C	0.932006	-0.000118	-0.026290
C126	C	1.182006	0.249882	0.223710
C127	C	1.432006	0.499882	0.473710
C128	C	1.682006	0.749882	0.723710
C129	C	0.930309	-0.000127	0.076212
C130	C	1.180309	0.249873	0.326212
C131	C	1.430309	0.499873	0.576212
C132	C	1.680309	0.749873	0.826212
N133	N	0.926547	0.243447	-0.194500
N134	N	1.176547	0.493447	0.055500
N135	N	1.426547	0.743447	0.305500
N136	N	1.676547	0.993447	0.555500
C137	C	0.928930	-0.000132	0.159455
C138	C	1.178930	0.249868	0.409455
C139	C	1.428930	0.499868	0.659455
C140	C	1.678930	0.749868	0.909455
C141	C	0.927207	-0.000132	0.263887
C142	C	1.177207	0.249868	0.513887
C143	C	1.427207	0.499868	0.763887
C144	C	1.677207	0.749868	1.013887
C145	C	0.925839	-0.000133	0.347124
C146	C	1.175839	0.249867	0.597124
C147	C	1.425839	0.499867	0.847124
C148	C	1.675839	0.749867	1.097124
C149	C	0.924116	-0.000135	0.451563
C150	C	1.174116	0.249865	0.701563
C151	C	1.424116	0.499865	0.951563
C152	C	1.674116	0.749865	1.201563
C153	C	0.921051	-0.000088	0.637303
C154	C	1.171051	0.249912	0.887303
C155	C	1.421051	0.499912	1.137303
C156	C	1.671051	0.749912	1.387303
C157	C	0.922748	-0.000136	0.534801
C158	C	1.172748	0.249864	0.784801
C159	C	1.422748	0.499864	1.034801
C160	C	1.672748	0.749864	1.284801
H161	H	0.671769	-0.000035	-0.332896
H162	H	0.921769	0.249965	-0.082896
H163	H	1.171769	0.499965	0.167104
H164	H	1.421769	0.749965	0.417104
H165	H	0.523382	-0.000057	-0.318846
H166	H	0.773382	0.249943	-0.068846
H167	H	1.023382	0.499943	0.181154
H168	H	1.273382	0.749943	0.431154
H169	H	0.181286	-0.000141	-0.056087
H170	H	0.431286	0.249859	0.193913
H171	H	0.681286	0.499859	0.443913
H172	H	0.931286	0.749859	0.693913
C173	C	0.305250	-0.000071	-0.397433
C174	C	0.555250	0.249929	-0.147433
C175	C	0.805250	0.499929	0.102567
C176	C	1.055250	0.749929	0.352567
H177	H	0.263682	-0.000077	-0.443649
H178	H	0.513682	0.249923	-0.193649
H179	H	0.763682	0.499923	0.056351
H180	H	1.013682	0.749923	0.306351
H181	H	0.336775	0.059608	-0.403926
H182	H	0.586775	0.309608	-0.153926
H183	H	0.836775	0.559608	0.096074
H184	H	1.086775	0.809608	0.346074
H185	H	0.336776	-0.059756	-0.403909
H186	H	0.586776	0.190244	-0.153909
H187	H	0.836776	0.440244	0.096091
H188	H	1.086776	0.690244	0.346091
H189	H	0.329674	-0.000138	-0.070134
H190	H	0.579674	0.249862	0.179866
H191	H	0.829674	0.499862	0.429866
H192	H	1.079674	0.749862	0.679866
C193	C	0.133482	-0.000083	-0.381176
C194	C	0.383482	0.249917	-0.131176
C195	C	0.633482	0.499917	0.118824
C196	C	0.883482	0.749917	0.368824
H197	H	0.080230	-0.000099	-0.364078
H198	H	0.330230	0.249901	-0.114078
H199	H	0.580230	0.499901	0.135922
H200	H	0.830230	0.749901	0.385922
H201	H	0.143091	0.059600	-0.416692
H202	H	0.393091	0.309600	-0.166692
H203	H	0.643091	0.559600	0.083308
H204	H	0.893091	0.809600	0.333308
H205	H	0.143101	-0.059764	-0.416677
H206	H	0.393101	0.190236	-0.166677
H207	H	0.643101	0.440236	0.083323
H208	H	0.893101	0.690236	0.333323
C209	C	0.547810	-0.000123	0.008450
C210	C	0.797810	0.249877	0.258450
C211	C	1.047810	0.499877	0.508450
C212	C	1.297810	0.749877	0.758450
H213	H	0.491916	-0.000115	0.001683
H214	H	0.741916	0.249885	0.251683
H215	H	0.991916	0.499885	0.501683
H216	H	1.241916	0.749885	0.751683
H217	H	0.565008	-0.059805	0.041425
H218	H	0.815008	0.190195	0.291425
H219	H	1.065008	0.440195	0.541425
H220	H	1.315008	0.690195	0.791425
H221	H	0.565006	0.059559	0.041415
H222	H	0.815006	0.309559	0.291415
H223	H	1.065006	0.559559	0.541415
H224	H	1.315006	0.809559	0.791415
C225	C	0.719580	-0.000098	-0.007812
C226	C	0.969580	0.249902	0.242188
C227	C	1.219580	0.499902	0.492188
C228	C	1.469580	0.749902	0.742188
H229	H	0.689004	-0.000099	0.045233
H230	H	0.939004	0.249901	0.295233
H231	H	1.189004	0.499901	0.545233
H232	H	1.439004	0.749901	0.795233
H233	H	0.751878	-0.059771	-0.007363
H234	H	1.001878	0.190229	0.242637
H235	H	1.251878	0.440229	0.492637
H236	H	1.501878	0.690229	0.742637
H237	H	0.751867	0.059593	-0.007374
H238	H	1.001867	0.309593	0.242626
H239	H	1.251867	0.559593	0.492626
H240	H	1.501867	0.809593	0.742626
