data_functionalizedCrystal
_audit_creation_method	'MofGen! by Chris Wilmer'
_symmetry_space_group_name_H-M	'P1'
_symmetry_Int_Tables_number	1
_symmetry_cell_setting	triclinic
loop_
_symmetry_equiv_pos_as_xyz
  x,y,z
_cell_length_a	16.120484
_cell_length_b	12.759401
_cell_length_c	16.120297
_cell_angle_alpha	87.118559
_cell_angle_beta	84.385569
_cell_angle_gamma	92.925560
loop_
_atom_site_label
_atom_site_type_symbol
_atom_site_fract_x
_atom_site_fract_y
_atom_site_fract_z
Zn1	Zn	-0.356741	1.552087	0.489387
Zn2	Zn	-0.489431	1.551955	0.356697
Zn3	Zn	-0.349678	1.385777	0.349640
Zn4	Zn	-0.496473	1.366966	0.496428
O5	O	-0.423081	1.464196	0.423038
O6	O	-0.374352	1.699089	0.471792
O7	O	-0.464989	1.537728	0.238799
O8	O	-0.233650	1.415766	0.362278
O9	O	-0.471838	1.698992	0.374306
O10	O	-0.238839	1.537953	0.464949
O11	O	-0.362313	1.415638	0.233614
O12	O	-0.369142	1.236261	0.369105
O13	O	-0.483840	1.383705	0.612456
O14	O	-0.476991	1.222441	0.476949
O15	O	-0.381180	1.519713	0.607283
O16	O	-0.607330	1.519488	0.381133
O17	O	-0.612504	1.383577	0.483792
C18	C	-0.423065	1.191230	0.423026
C19	C	-0.423079	1.074452	0.423042
C20	C	-0.479317	1.012421	0.479112
C21	C	-0.479328	0.902696	0.479122
C22	C	-0.366860	0.917042	0.366983
C23	C	-0.366846	1.026765	0.366978
C24	C	-0.544253	1.004138	0.543852
C25	C	-0.544264	0.894412	0.543862
C26	C	-0.640246	1.449504	0.434011
C27	C	-0.733151	1.443313	0.438733
C28	C	-0.903252	1.432015	0.447371
C29	C	-0.942070	1.496565	0.398718
C30	C	-1.036720	1.490278	0.403525
C31	C	-0.808594	1.438300	0.442566
C32	C	-0.205069	1.478973	0.412041
C33	C	-0.112165	1.485270	0.407354
C34	C	-0.434084	1.449626	0.641044
C35	C	-0.438772	1.443417	0.733946
C36	C	-0.423097	1.738227	0.423051
C37	C	-0.423104	1.855003	0.423056
C38	C	-0.412060	1.478774	0.205877
C39	C	-0.407136	1.485202	0.112964
C40	C	-0.447314	1.432044	0.904036
C41	C	-0.398597	1.496572	0.942879
C42	C	-0.403350	1.490244	1.037523
C43	C	-0.442563	1.438370	0.809384
H44	H	-0.524287	0.857836	0.604231
F45	F	-0.623062	1.045231	0.517530
F46	F	-0.952722	1.353615	0.506529
H47	H	-0.608096	0.861429	0.529688
H48	H	-0.353318	1.556568	0.905052
H49	H	-0.321046	1.077267	0.321325
F50	F	-0.307015	0.866281	0.307321
F51	F	-0.525995	1.038937	0.627360
F52	F	-0.892599	1.574966	0.339553
H53	H	-0.492589	1.372052	0.941860
