data_functionalizedCrystal
_audit_creation_method	'MofGen! by Chris Wilmer'
_symmetry_space_group_name_H-M	'P1'
_symmetry_Int_Tables_number	1
_symmetry_cell_setting	triclinic
loop_
_symmetry_equiv_pos_as_xyz
  x,y,z
_cell_length_a	10.723024
_cell_length_b	9.482900
_cell_length_c	10.723024
_cell_angle_alpha	80.575205
_cell_angle_beta	84.467869
_cell_angle_gamma	99.378782
loop_
_atom_site_label
_atom_site_type_symbol
_atom_site_fract_x
_atom_site_fract_y
_atom_site_fract_z
O1	O	1.676469	0.120882	0.155657
O2	O	1.313317	0.120887	0.172409
O3	O	1.503269	0.120879	-0.017542
O4	O	1.486518	0.120890	0.345608
O5	O	1.464687	-0.120912	0.021197
O6	O	1.274735	-0.120904	0.211149
O7	O	1.637887	-0.120909	0.194396
Cu8	Cu	1.452788	-0.142984	0.206310
Cu9	Cu	1.498416	0.142962	0.160496
O10	O	1.447935	-0.120901	0.384348
C11	C	1.247527	-0.000008	0.190560
C12	C	1.108973	-0.000007	0.186912
C13	C	0.917216	-0.000007	0.073605
C14	C	1.060419	-0.000009	0.077372
N15	N	1.420705	-0.344103	0.238532
C16	C	1.488944	-0.416305	0.169993
C17	C	1.462260	-0.583721	0.196813
C18	C	1.703678	-0.000011	0.176245
C19	C	1.842234	-0.000003	0.179892
C20	C	1.482759	-0.000015	-0.044673
C21	C	1.479112	-0.000010	-0.183228
N22	N	1.530509	0.344081	0.128263
C23	C	1.585400	-0.000009	-0.258210
C24	C	1.581633	-0.000004	-0.401415
C25	C	1.468446	-0.000004	0.411477
C26	C	1.472094	0.000000	0.550031
H27	H	0.875389	-0.000032	-0.020177
H28	H	1.044549	0.000003	0.277906
H29	H	1.124852	-0.000003	-0.013619
C30	C	1.363528	0.124293	-0.333610
C31	C	1.352499	-0.000004	-0.239676
H32	H	1.285361	0.124290	-0.368460
H33	H	1.382964	0.208592	-0.296886
H34	H	1.429729	0.124280	-0.399202
H35	H	1.286304	0.000015	-0.174079
H36	H	1.333047	-0.084324	-0.276399
C37	C	0.992527	0.124312	0.295397
C38	C	0.898673	0.000012	0.306508
H39	H	1.027359	0.124325	0.373572
H40	H	1.058119	0.124293	0.229217
H41	H	0.955743	0.208618	0.275888
H42	H	0.935460	-0.084294	0.326009
H43	H	0.833070	0.000018	0.372709
H44	H	1.608687	-0.593798	0.049720
C45	C	1.567321	-0.369054	-0.053034
C46	C	1.594489	-0.332410	0.063993
H47	H	1.632481	-0.317244	-0.118468
H48	H	1.563266	-0.470540	-0.048945
H49	H	1.487798	-0.344207	-0.071064
H50	H	1.674008	-0.357267	0.082027
H51	H	1.598559	-0.230901	0.059904
H52	H	1.672623	-0.000010	-0.465846
C53	C	1.239512	-0.630919	0.276222
C54	C	1.356711	-0.667574	0.302835
H55	H	1.174353	-0.682696	0.341670
H56	H	1.243605	-0.529426	0.272118
H57	H	1.221087	-0.655801	0.196834
H58	H	1.375141	-0.642683	0.382219
H59	H	1.352620	-0.769090	0.306952
C60	C	1.342362	-0.391260	0.461555
C61	C	1.315161	-0.427953	0.344552
H62	H	1.277195	-0.443017	0.527005
H63	H	1.421865	-0.416127	0.479588
H64	H	1.346450	-0.289751	0.457424
H65	H	1.311082	-0.529461	0.348680
H66	H	1.235636	-0.403096	0.326515
C67	C	1.809577	0.000010	-0.298484
C68	C	1.712018	0.000001	-0.201769
H69	H	1.887749	0.000028	-0.263641
H70	H	1.790136	-0.084306	-0.335183
H71	H	1.817022	0.084330	-0.362208
H72	H	1.704567	-0.084326	-0.138049
H73	H	1.731464	0.084325	-0.165050
H74	H	1.381097	-0.000010	-0.385542
