data_functionalizedCrystal
_audit_creation_method	'MofGen! by Chris Wilmer'
_symmetry_space_group_name_H-M	'P1'
_symmetry_Int_Tables_number	1
_symmetry_cell_setting	triclinic
loop_
_symmetry_equiv_pos_as_xyz
  x,y,z
_cell_length_a	19.288840
_cell_length_b	12.811415
_cell_length_c	18.366186
_cell_angle_alpha	84.562925
_cell_angle_beta	89.983729
_cell_angle_gamma	83.586086
loop_
_atom_site_label
_atom_site_type_symbol
_atom_site_fract_x
_atom_site_fract_y
_atom_site_fract_z
O1	O	0.922014	0.130809	-0.069307
O2	O	0.719838	0.148499	-0.070450
O3	O	0.826011	-0.013164	-0.059786
O4	O	0.815841	0.292471	-0.079972
O5	O	0.825993	-0.013172	0.061314
O6	O	0.719820	0.148491	0.050650
O7	O	0.921996	0.130801	0.051793
Zn8	Zn	0.820905	0.139645	0.070448
Zn9	Zn	0.820929	0.139655	-0.089106
O10	O	0.815823	0.292463	0.041128
C11	C	0.693950	0.147930	-0.009860
C12	C	0.616837	0.146234	-0.009738
C13	C	0.580639	0.145424	-0.075697
C14	C	0.508184	0.143819	-0.075600
C15	C	0.471932	0.143004	-0.009539
C16	C	0.508138	0.143820	0.056429
C17	C	0.580590	0.145435	0.056330
C18	C	0.362278	0.078964	0.045252
C19	C	0.289828	0.077342	0.045350
C20	C	0.248463	0.138026	-0.009229
C21	C	0.279560	0.200319	-0.063916
C22	C	0.352012	0.201934	-0.064016
C23	C	0.393369	0.141253	-0.009423
C24	C	0.133702	0.135477	-0.075088
C25	C	0.061245	0.133879	-0.074988
C26	C	0.061200	0.133869	0.057044
C27	C	0.133655	0.135478	0.056942
C28	C	0.169902	0.136277	-0.009126
C29	C	0.825432	-0.052269	0.003346
C30	C	0.823724	-0.168780	0.011037
C31	C	0.820522	-0.387694	-0.106549
C32	C	0.818917	-0.497166	-0.099326
C33	C	0.818905	-0.497196	0.032706
C34	C	0.820510	-0.387724	0.025482
C35	C	0.821319	-0.332977	-0.044147
C36	C	0.822929	-0.223505	-0.051369
C37	C	0.822911	-0.223535	0.080661
C38	C	0.821307	-0.333007	0.087884
C39	C	0.947884	0.131369	-0.008800
C40	C	1.024997	0.133065	-0.008926
C41	C	0.816402	0.331569	-0.022005
C42	C	0.818110	0.448079	-0.029701
N43	N	0.820894	0.139637	0.179340
N44	N	0.820946	0.139654	-0.197997
C45	C	0.867923	0.068088	0.222160
C46	C	0.867927	0.068083	0.298389
C47	C	0.820909	0.139645	0.331792
C48	C	0.773871	0.211200	0.288962
C49	C	0.773864	0.211196	0.212736
C50	C	0.812086	0.235280	0.446237
C51	C	0.812099	0.235286	0.522461
C52	C	0.820929	0.139659	0.566899
C53	C	0.829762	0.044021	0.535103
C54	C	0.829754	0.044017	0.458877
C55	C	0.820912	0.139658	0.414446
C56	C	0.867965	0.068098	0.692375
C57	C	0.867965	0.068092	0.768605
C58	C	0.773912	0.211219	0.759176
C59	C	0.773910	0.211216	0.682949
C60	C	0.820940	0.139657	0.649553
H61	H	0.163128	0.136131	0.110654
O62	O	0.728142	0.280632	0.791589
C63	C	0.607551	0.342659	0.810821
C64	C	0.659313	0.263975	0.774083
H65	H	0.551892	0.329234	0.796669
H66	H	0.615571	0.330374	0.872667
H67	H	0.616877	0.426681	0.790283
H68	H	0.650018	0.179922	0.794563
H69	H	0.651281	0.276352	0.712241
H70	H	0.377328	0.252657	-0.108542
H71	H	0.823590	-0.178932	-0.108065
H72	H	0.735617	0.269482	0.648082
O73	O	0.913530	-0.001713	0.189883
C74	C	0.953607	-0.184525	0.179028
C75	C	0.901910	-0.105498	0.215546
H76	H	0.944241	-0.268452	0.199774
H77	H	0.945622	-0.172545	0.117172
H78	H	1.009270	-0.171073	0.193142
H79	H	0.846227	-0.118902	0.201490
H80	H	0.909956	-0.117498	0.277393
O81	O	0.818214	-0.550278	0.100382
C82	C	0.877840	-0.596019	0.216214
C83	C	0.878700	-0.535844	0.139598
H84	H	0.926744	-0.584388	0.247937
H85	H	0.829637	-0.564639	0.246757
H86	H	0.876520	-0.683650	0.210648
H87	H	0.880044	-0.448204	0.145098
H88	H	0.926897	-0.567309	0.109083
O89	O	0.823564	-0.170315	0.141261
C90	C	0.765300	-0.034512	0.208927
C91	C	0.764461	-0.094714	0.140276
H92	H	0.717528	0.026639	0.208145
H93	H	0.764402	-0.092398	0.259953
H94	H	0.814626	0.006840	0.209479
H95	H	0.715144	-0.136070	0.139652
H96	H	0.765396	-0.036780	0.089281
H97	H	0.906259	0.009823	0.803470
O98	O	0.821280	-0.334664	-0.174237
C99	C	0.821177	-0.346195	-0.304431
C100	C	0.820300	-0.406376	-0.227818
H101	H	0.820400	-0.404150	-0.347772
H102	H	0.773366	-0.285127	-0.311807
H103	H	0.870468	-0.304753	-0.310429
H104	H	0.771040	-0.447881	-0.221767
H105	H	0.868143	-0.467384	-0.220477
O106	O	0.818235	-0.550448	-0.159890
C107	C	0.876549	-0.686154	-0.227602
C108	C	0.877403	-0.625918	-0.158969
H109	H	0.924389	-0.747170	-0.226888
H110	H	0.827279	-0.727640	-0.228169
H111	H	0.877369	-0.628184	-0.278591
H112	H	0.876610	-0.683818	-0.107942
H113	H	0.926669	-0.584416	-0.158466
O114	O	0.168960	0.136082	-0.139233
C115	C	0.258428	0.047035	-0.209958
C116	C	0.218545	0.046205	-0.137285
H117	H	0.298536	-0.025610	-0.208401
H118	H	0.220140	0.046124	-0.257109
H119	H	0.286165	0.121261	-0.218146
H120	H	0.190806	-0.028007	-0.129027
H121	H	0.256865	0.047172	-0.090172
H122	H	0.245882	0.249738	-0.108357
H123	H	0.906225	0.009817	0.333259
O124	O	0.820400	-0.386123	0.155532
C125	C	0.759827	-0.407422	0.269816
C126	C	0.760756	-0.347205	0.193219
H127	H	0.711618	-0.375966	0.300314
H128	H	0.758498	-0.495067	0.264302
H129	H	0.808715	-0.395766	0.301557
H130	H	0.711878	-0.358776	0.161436
H131	H	0.762122	-0.259583	0.198786
O132	O	0.838304	-0.048973	0.428108
C133	C	0.855857	-0.238680	0.448681
C134	C	0.846168	-0.133446	0.483621
H135	H	0.862232	-0.307004	0.493547
H136	H	0.808201	-0.245557	0.413490
H137	H	0.904364	-0.241377	0.413130
H138	H	0.797688	-0.130677	0.519207
H139	H	0.893860	-0.126612	0.518770
O140	O	0.803482	0.328276	0.553226
C141	C	0.785994	0.517985	0.532641
C142	C	0.795730	0.412748	0.497708
H143	H	0.779739	0.586308	0.487771
H144	H	0.737454	0.520806	0.568145
H145	H	0.833638	0.524745	0.567879
H146	H	0.748125	0.405918	0.462435
H147	H	0.844298	0.409973	0.462247
O148	O	0.026191	0.133047	-0.139128
C149	C	0.033882	0.133267	-0.270096
C150	C	0.073668	0.134188	-0.197510
H151	H	0.072247	0.134211	-0.317318
H152	H	0.006133	0.059058	-0.268543
H153	H	-0.006206	0.205933	-0.278165
H154	H	0.113790	0.061572	-0.189395
H155	H	0.101369	0.208444	-0.199096
H156	H	0.804883	0.313157	0.410061
H157	H	0.264515	0.026614	0.089876
O158	O	0.838216	-0.048862	0.578286
C159	C	0.788966	-0.162364	0.671893
C160	C	0.779291	-0.057155	0.623019
H161	H	0.741340	-0.169093	0.708083
H162	H	0.795236	-0.230750	0.636104
H163	H	0.837517	-0.165103	0.707711
H164	H	0.730738	-0.054312	0.587193
H165	H	0.773061	0.011183	0.658851
H166	H	0.735588	0.269466	0.316164
H167	H	0.478616	0.143158	0.110217
O168	O	0.728250	0.280853	0.171160
C169	C	0.688045	0.463521	0.135812
C170	C	0.739751	0.384748	0.182922
H171	H	0.697315	0.547538	0.145316
H172	H	0.696117	0.451322	0.075579
H173	H	0.632383	0.450010	0.151703
H174	H	0.795433	0.398211	0.167094
H175	H	0.731617	0.396966	0.243143
O176	O	0.473123	0.142989	-0.139739
C177	C	0.480804	0.143222	-0.270709
C178	C	0.520595	0.144138	-0.198125
H179	H	0.519166	0.144174	-0.317934
H180	H	0.453057	0.069012	-0.269157
H181	H	0.440713	0.215887	-0.278771
H182	H	0.560719	0.071525	-0.190017
H183	H	0.548294	0.218397	-0.199710
O184	O	0.615895	0.146027	-0.139842
C185	C	0.705373	0.056987	-0.210558
C186	C	0.665486	0.056157	-0.137888
H187	H	0.745486	-0.015653	-0.208997
H188	H	0.667089	0.056068	-0.257712
H189	H	0.733105	0.131217	-0.218746
H190	H	0.637752	-0.018061	-0.129630
H191	H	0.703802	0.057132	-0.090773
H192	H	0.906258	0.009827	0.665183
O193	O	0.402357	0.019906	0.098307
C194	C	0.404893	-0.102214	0.206708
C195	C	0.359424	-0.035402	0.146662
H196	H	0.370198	-0.146930	0.245828
H197	H	0.443778	-0.160844	0.180560
H198	H	0.434365	-0.048260	0.238217
H199	H	0.329907	-0.089273	0.115132
H200	H	0.320582	0.023238	0.172854
H201	H	0.610062	0.146096	0.110044
H202	H	0.031684	0.133211	0.110832
