data_functionalizedCrystal
_audit_creation_method	'MofGen! by Chris Wilmer'
_symmetry_space_group_name_H-M	'P1'
_symmetry_Int_Tables_number	1
_symmetry_cell_setting	triclinic
loop_
_symmetry_equiv_pos_as_xyz
  x,y,z
_cell_length_a	17.699083
_cell_length_b	26.210047
_cell_length_c	17.699083
_cell_angle_alpha	89.996398
_cell_angle_beta	83.283015
_cell_angle_gamma	90.002990
loop_
_atom_site_label
_atom_site_type_symbol
_atom_site_fract_x
_atom_site_fract_y
_atom_site_fract_z
O1	O	1.004082	0.042358	0.095700
O2	O	1.337415	0.375692	0.429034
O3	O	1.670749	0.709025	0.762367
O4	O	0.783704	0.042375	0.108153
O5	O	1.117037	0.375709	0.441486
O6	O	1.450370	0.709042	0.774819
O7	O	0.900119	0.042362	-0.008263
O8	O	1.233452	0.375695	0.325071
O9	O	1.566786	0.709029	0.658404
O10	O	0.887667	0.042372	0.212116
O11	O	1.221000	0.375705	0.545449
O12	O	1.554333	0.709039	0.878782
O13	O	0.900097	-0.042496	-0.008244
O14	O	1.233430	0.290837	0.325089
O15	O	1.566763	0.624171	0.658422
O16	O	0.783681	-0.042483	0.108171
O17	O	1.117014	0.290851	0.441504
O18	O	1.450348	0.624184	0.774838
O19	O	1.004060	-0.042500	0.095719
O20	O	1.337393	0.290834	0.429052
O21	O	1.670726	0.624167	0.762385
Cu22	Cu	0.893868	-0.050239	0.101946
Cu23	Cu	1.227202	0.283094	0.435280
Cu24	Cu	1.560535	0.616427	0.768613
Cu25	Cu	0.893895	0.050115	0.101925
Cu26	Cu	1.227228	0.383448	0.435258
Cu27	Cu	1.560562	0.716782	0.768592
O28	O	0.887644	-0.042486	0.212134
O29	O	1.220977	0.290847	0.545467
O30	O	1.554311	0.624180	0.878801
C31	C	0.755495	-0.000052	0.107716
C32	C	1.088829	0.333282	0.441049
C33	C	1.422162	0.666615	0.774382
C34	C	0.671477	-0.000045	0.106377
C35	C	1.004811	0.333288	0.439710
C36	C	1.338144	0.666621	0.773044
N37	N	0.893855	-0.120823	0.101961
N38	N	1.227188	0.212510	0.435294
N39	N	1.560522	0.545843	0.768628
C40	C	0.622856	-0.000042	0.174711
C41	C	0.956190	0.333291	0.508044
C42	C	1.289523	0.666624	0.841377
C43	C	0.543913	-0.000049	0.173448
C44	C	0.877246	0.333284	0.506782
C45	C	1.210580	0.666618	0.840115
C46	C	0.513592	-0.000055	0.103852
C47	C	0.846926	0.333278	0.437185
C48	C	1.180259	0.666612	0.770518
C49	C	0.562219	-0.000059	0.035513
C50	C	0.895553	0.333274	0.368846
C51	C	1.228886	0.666607	0.702180
C52	C	0.641161	-0.000056	0.036776
C53	C	0.974495	0.333277	0.370110
C54	C	1.307828	0.666610	0.703443
C55	C	0.243856	-0.000072	0.030418
C56	C	0.577190	0.333261	0.363751
C57	C	0.910523	0.666594	0.697085
C58	C	0.164908	-0.000074	0.029160
C59	C	0.498242	0.333260	0.362493
C60	C	0.831575	0.666593	0.695827
C61	C	0.146608	-0.000065	0.167090
C62	C	0.479942	0.333268	0.500423
C63	C	0.813275	0.666602	0.833757
C64	C	0.225550	-0.000062	0.168353
C65	C	0.558883	0.333271	0.501686
C66	C	0.892217	0.666605	0.835020
C67	C	0.274170	-0.000069	0.100015
C68	C	0.607504	0.333264	0.433348
C69	C	0.940837	0.666598	0.766681
C70	C	0.359769	-0.000063	0.101384
C71	C	0.693103	0.333271	0.434718
C72	C	1.026436	0.666604	0.768051
C73	C	0.427995	-0.000058	0.102481
C74	C	0.761328	0.333276	0.435815
C75	C	1.094661	0.666609	0.769148
C76	C	0.945438	-0.473343	0.050388
C77	C	1.278772	-0.140010	0.383721
C78	C	1.612105	0.193323	0.717054
C79	C	0.945455	-0.687002	0.050377
C80	C	1.278788	-0.353669	0.383711
C81	C	1.612122	-0.020335	0.717044
O82	O	0.989284	-0.714629	0.006531
O83	O	1.322617	-0.381295	0.339865
O84	O	1.655950	-0.047962	0.673198
N85	N	0.893899	-0.713717	0.101908
N86	N	1.227232	-0.380384	0.435242
N87	N	1.560566	-0.047051	0.768575
C88	C	0.842332	-0.687015	0.153442
C89	C	1.175665	-0.353681	0.486776
C90	C	1.508998	-0.020348	0.820109
O91	O	0.798475	-0.714640	0.197267
O92	O	1.131809	-0.381307	0.530600
O93	O	1.465142	-0.047974	0.863934
C94	C	0.842312	-0.473357	0.153449
C95	C	1.175645	-0.140024	0.486782
C96	C	1.508979	0.193310	0.820115
C97	C	0.893877	-0.446644	0.101919
C98	C	1.227210	-0.113311	0.435253
C99	C	1.560543	0.220022	0.768586
C100	C	0.996998	-0.446631	-0.001138
C101	C	1.330332	-0.113297	0.332196
C102	C	1.663665	0.220036	0.665529
C103	C	0.996996	-0.393219	-0.001132
C104	C	1.330330	-0.059886	0.332201
C105	C	1.663663	0.273447	0.665535
C106	C	0.945434	-0.366520	0.050400
C107	C	1.278768	-0.033187	0.383733
C108	C	1.612101	0.300146	0.717066
C109	C	0.893875	-0.393233	0.101925
C110	C	1.227208	-0.059900	0.435259
C111	C	1.560541	0.273434	0.768592
C112	C	0.790742	-0.446655	0.204978
C113	C	1.124075	-0.113322	0.538312
C114	C	1.457408	0.220011	0.871645
C115	C	0.790740	-0.393238	0.204974
C116	C	1.124073	-0.059904	0.538307
C117	C	1.457407	0.273429	0.871641
C118	C	0.842305	-0.366525	0.153445
C119	C	1.175638	-0.033192	0.486778
C120	C	1.508971	0.300142	0.820112
C121	C	0.842311	-0.313123	0.153463
C122	C	1.175644	0.020211	0.486796
C123	C	1.508978	0.353544	0.820129
N124	N	0.893867	-0.286407	0.101932
N125	N	1.227200	0.046926	0.435265
N126	N	1.560534	0.380259	0.768598
C127	C	0.945429	-0.313106	0.050400
C128	C	1.278762	0.020227	0.383733
C129	C	1.612095	0.353560	0.717067
C130	C	0.842347	-0.799188	0.153436
C131	C	1.175680	-0.465855	0.486770
C132	C	1.509013	-0.132521	0.820103
C133	C	0.842352	-0.852602	0.153436
C134	C	1.175686	-0.519269	0.486769
C135	C	1.509019	-0.185935	0.820103
C136	C	0.945475	-0.852586	0.050370
C137	C	1.278808	-0.519252	0.383703
C138	C	1.612142	-0.185919	0.717036
C139	C	0.945472	-0.799171	0.050374
C140	C	1.278806	-0.465837	0.383708
C141	C	1.612139	-0.132504	0.717041
C142	C	0.893903	-0.772473	0.101905
C143	C	1.227236	-0.439139	0.435239
C144	C	1.560569	-0.105806	0.768572
C145	C	0.945421	-0.200938	0.050417
C146	C	1.278755	0.132395	0.383750
C147	C	1.612088	0.465728	0.717084
C148	C	0.945417	-0.147522	0.050429
C149	C	1.278750	0.185811	0.383763
C150	C	1.612084	0.519145	0.717096
C151	C	0.842292	-0.147543	0.153493
C152	C	1.175625	0.185790	0.486826
C153	C	1.508959	0.519123	0.820159
C154	C	0.842299	-0.200955	0.153483
C155	C	1.175632	0.132379	0.486816
C156	C	1.508965	0.465712	0.820150
C157	C	0.893866	-0.227651	0.101939
C158	C	1.227200	0.105682	0.435272
C159	C	1.560533	0.439016	0.768606
O160	O	0.798499	-0.285463	0.197280
O161	O	1.131833	0.047871	0.530613
O162	O	1.465166	0.381204	0.863947
O163	O	0.989268	-0.285471	0.006571
O164	O	1.322601	0.047862	0.339904
O165	O	1.655934	0.381195	0.673237
C166	C	0.945440	-0.526755	0.050382
C167	C	1.278774	-0.193421	0.383715
C168	C	1.612107	0.139912	0.717049
C169	C	0.893880	-0.553467	0.101908
C170	C	1.227214	-0.220134	0.435241
C171	C	1.560547	0.113199	0.768574
C172	C	0.842319	-0.526769	0.153439
C173	C	1.175652	-0.193435	0.486772
C174	C	1.508985	0.139898	0.820106
C175	C	0.893886	-0.606881	0.101907
C176	C	1.227219	-0.273548	0.435240
C177	C	1.560553	0.059785	0.768574
C178	C	0.945448	-0.633580	0.050375
C179	C	1.278781	-0.300247	0.383709
C180	C	1.612115	0.033086	0.717042
C181	C	0.997004	-0.606865	-0.001156
C182	C	1.330337	-0.273532	0.332178
C183	C	1.663671	0.059802	0.665511
C184	C	0.997002	-0.553454	-0.001150
C185	C	1.330335	-0.220120	0.332184
C186	C	1.663669	0.113213	0.665517
C187	C	0.790763	-0.553484	0.204970
C188	C	1.124096	-0.220151	0.538303
C189	C	1.457429	0.113183	0.871637
C190	C	0.790769	-0.606895	0.204961
C191	C	1.124103	-0.273562	0.538294
C192	C	1.457436	0.059771	0.871627
C193	C	0.842331	-0.633594	0.153429
C194	C	1.175664	-0.300261	0.486762
C195	C	1.508998	0.033072	0.820096
C196	C	1.032268	-0.000072	0.096156
C197	C	1.365601	0.333262	0.429489
C198	C	1.698934	0.666595	0.762822
C199	C	1.116286	-0.000074	0.097494
C200	C	1.449619	0.333259	0.430828
C201	C	1.782953	0.666592	0.764161
C202	C	0.899662	-0.000067	-0.036451
C203	C	1.232995	0.333266	0.296883
C204	C	1.566328	0.666600	0.630216
C205	C	0.898323	-0.000067	-0.120469
C206	C	1.231656	0.333266	0.212865
C207	C	1.564990	0.666599	0.546198
N208	N	0.893914	0.120699	0.101904
N209	N	1.227247	0.454032	0.435238
N210	N	1.560581	0.787366	0.768571
C211	C	0.966656	-0.000073	-0.169090
C212	C	1.299990	0.333260	0.164244
C213	C	1.633323	0.666593	0.497577
C214	C	0.965394	-0.000069	-0.248033
C215	C	1.298727	0.333265	0.085300
C216	C	1.632061	0.666598	0.418634
C217	C	0.895798	-0.000062	-0.278354
C218	C	1.229131	0.333272	0.054980
C219	C	1.562464	0.666605	0.388313
C220	C	0.827459	-0.000054	-0.229727
C221	C	1.160792	0.333279	0.103607
C222	C	1.494126	0.666612	0.436940
C223	C	0.828722	-0.000055	-0.150785
C224	C	1.162055	0.333278	0.182549
C225	C	1.495389	0.666612	0.515882
C226	C	0.822364	-0.000050	-0.548090
C227	C	1.155697	0.333284	-0.214756
C228	C	1.489030	0.666617	0.118577
C229	C	0.821106	-0.000050	-0.627038
C230	C	1.154439	0.333283	-0.293704
C231	C	1.487773	0.666616	0.039629
C232	C	0.959036	-0.000063	-0.645338
C233	C	1.292369	0.333270	-0.312004
C234	C	1.625702	0.666604	0.021329
C235	C	0.960299	-0.000064	-0.566396
C236	C	1.293632	0.333269	-0.233063
C237	C	1.626966	0.666603	0.100271
C238	C	0.891961	-0.000054	-0.517776
C239	C	1.225294	0.333279	-0.184442
C240	C	1.558627	0.666613	0.148891
C241	C	0.893330	-0.000058	-0.432177
C242	C	1.226664	0.333275	-0.098843
C243	C	1.559997	0.666609	0.234490
C244	C	0.894427	-0.000061	-0.363951
C245	C	1.227761	0.333272	-0.030618
C246	C	1.561094	0.666605	0.302715
C247	C	0.888102	-0.000056	0.240322
C248	C	1.221435	0.333277	0.573655
C249	C	1.554768	0.666611	0.906989
C250	C	0.889440	-0.000053	0.324340
C251	C	1.222773	0.333281	0.657673
C252	C	1.556107	0.666614	0.991007
H253	H	0.647537	-0.000037	0.231384
H254	H	0.980870	0.333296	0.564717
H255	H	1.314204	0.666630	0.898051
Cl256	Cl	1.047795	-0.000071	-0.528283
Cl257	Cl	1.381128	0.333262	-0.194950
Cl258	Cl	1.714462	0.666596	0.138384
H259	H	1.014680	-0.000069	-0.684934
H260	H	1.348013	0.333265	-0.351601
H261	H	1.681347	0.666598	-0.018268
Cl262	Cl	0.725904	-0.359678	0.269759
Cl263	Cl	1.059237	-0.026345	0.603093
Cl264	Cl	1.392570	0.306988	0.936426
Cl265	Cl	0.736452	-0.000036	-0.486977
Cl266	Cl	1.069786	0.333298	-0.153644
Cl267	Cl	1.403119	0.666631	0.179689
H268	H	0.770792	-0.000045	-0.254420
H269	H	1.104126	0.333288	0.078913
H270	H	1.437459	0.666621	0.412247
Cl271	Cl	0.777480	-0.234535	0.218273
Cl272	Cl	1.110814	0.098799	0.551606
Cl273	Cl	1.444147	0.432132	0.884940
H274	H	0.107012	-0.000062	0.222734
H275	H	0.440345	0.333272	0.556068
H276	H	0.773678	0.666605	0.889401
Cl277	Cl	1.051303	-0.000078	-0.309154
Cl278	Cl	1.384637	0.333256	0.024180
Cl279	Cl	1.717970	0.666589	0.357513
H280	H	0.800313	-0.125797	0.195451
H281	H	1.133646	0.207537	0.528785
H282	H	1.466980	0.540870	0.862118
H283	H	0.773078	-0.000050	-0.111198
H284	H	1.106411	0.333283	0.222136
H285	H	1.439745	0.666616	0.555469
H286	H	0.680748	-0.000059	-0.018868
H287	H	1.014082	0.333275	0.314465
H288	H	1.347415	0.666608	0.647799
Cl289	Cl	1.010247	-0.113943	-0.014354
Cl290	Cl	1.343580	0.219390	0.318980
Cl291	Cl	1.676913	0.552723	0.652313
Cl292	Cl	1.061828	-0.519879	-0.065934
Cl293	Cl	1.395162	-0.186546	0.267400
Cl294	Cl	1.728495	0.146787	0.600733
H295	H	1.038990	-0.628612	-0.043112
H296	H	1.372324	-0.295279	0.290221
H297	H	1.705657	0.038055	0.623554
Cl298	Cl	0.482792	-0.000042	0.259357
Cl299	Cl	0.816126	0.333291	0.592691
Cl300	Cl	1.149459	0.666624	0.926024
H301	H	0.250232	-0.000055	0.225025
H302	H	0.583566	0.333279	0.558359
H303	H	0.916899	0.666612	0.891692
H304	H	0.800372	-0.874348	0.195404
H305	H	1.133705	-0.541014	0.528737
H306	H	1.467038	-0.207681	0.862070
Cl307	Cl	1.054154	-0.000087	-0.130980
Cl308	Cl	1.387488	0.333246	0.202353
Cl309	Cl	1.720821	0.666580	0.535686
Cl310	Cl	1.010251	-0.234491	-0.014382
Cl311	Cl	1.343585	0.098843	0.318952
Cl312	Cl	1.676918	0.432176	0.652285
Cl313	Cl	1.061828	-0.480186	-0.065929
Cl314	Cl	1.395161	-0.146853	0.267405
Cl315	Cl	1.728494	0.186481	0.600738
H316	H	0.537526	-0.000072	-0.021154
H317	H	0.870859	0.333262	0.312180
H318	H	1.204193	0.666595	0.645513
Cl319	Cl	0.733606	-0.000040	-0.665153
Cl320	Cl	1.066940	0.333293	-0.331820
Cl321	Cl	1.400273	0.666626	0.001513
H322	H	0.748781	-0.628641	0.246928
H323	H	1.082114	-0.295308	0.580262
H324	H	1.415447	0.038026	0.913595
H325	H	1.038982	-0.371473	-0.043093
H326	H	1.372316	-0.038140	0.290240
H327	H	1.705649	0.295194	0.623573
Cl328	Cl	1.010297	-0.765595	-0.014409
Cl329	Cl	1.343630	-0.432262	0.318924
Cl330	Cl	1.676964	-0.098928	0.652257
H331	H	0.987460	-0.874333	0.008412
H332	H	1.320793	-0.540999	0.341745
H333	H	1.654126	-0.207666	0.675078
H334	H	0.140225	-0.000079	-0.027517
H335	H	0.473558	0.333254	0.305816
H336	H	0.806892	0.666587	0.639150
H337	H	0.283434	-0.000079	-0.025228
H338	H	0.616767	0.333255	0.308106
H339	H	0.950101	0.666588	0.641439
Cl340	Cl	0.777513	-0.765631	0.218227
Cl341	Cl	1.110846	-0.432297	0.551560
Cl342	Cl	1.444180	-0.098964	0.884893
Cl343	Cl	0.725913	-0.480226	0.269759
Cl344	Cl	1.059246	-0.146893	0.603092
Cl345	Cl	1.392579	0.186440	0.936426
H346	H	0.748774	-0.531750	0.246932
H347	H	1.082107	-0.198416	0.580266
H348	H	1.415440	0.134917	0.913599
