data_functionalizedCrystal
_audit_creation_method	'MofGen! by Chris Wilmer'
_symmetry_space_group_name_H-M	'P1'
_symmetry_Int_Tables_number	1
_symmetry_cell_setting	triclinic
loop_
_symmetry_equiv_pos_as_xyz
  x,y,z
_cell_length_a	17.000383
_cell_length_b	15.944545
_cell_length_c	15.021413
_cell_angle_alpha	89.990408
_cell_angle_beta	89.997113
_cell_angle_gamma	79.548238
loop_
_atom_site_label
_atom_site_type_symbol
_atom_site_fract_x
_atom_site_fract_y
_atom_site_fract_z
O1	O	0.102624	1.106930	0.073973
O2	O	0.115285	0.861443	0.073987
O3	O	-0.006911	0.999428	0.073976
O4	O	0.224820	0.968945	0.073984
O5	O	-0.006903	0.999443	-0.074089
O6	O	0.115293	0.861458	-0.074077
O7	O	0.102632	1.106944	-0.074091
Zn8	Zn	0.108964	0.984203	-0.097593
Zn9	Zn	0.108954	0.984184	0.097488
O10	O	0.224828	0.968959	-0.074080
C11	C	0.114764	0.830195	-0.000043
C12	C	0.113191	0.737065	-0.000038
C13	C	0.032748	0.472378	-0.000050
C14	C	0.071535	0.520100	-0.073054
C15	C	0.107581	0.401836	-0.000053
C16	C	0.071547	0.520065	0.072925
C17	C	0.110333	0.566546	-0.000044
C18	C	0.146348	0.448332	-0.073118
C19	C	0.146350	0.448294	0.072928
C20	C	0.185192	0.495979	-0.000094
C21	C	0.105993	0.306951	-0.000059
C22	C	0.111927	0.661428	-0.000045
C23	C	-0.036561	1.001072	-0.000056
C24	C	-0.124919	1.005941	-0.000053
C25	C	-0.625135	1.037375	-0.000051
C26	C	-0.542112	1.032794	-0.000056
C27	C	-0.491120	0.953285	-0.000048
C28	C	-0.523154	0.878351	-0.000043
C29	C	-0.606176	0.882932	-0.000044
C30	C	-0.239975	0.935588	-0.000049
C31	C	-0.156948	0.931012	-0.000045
C32	C	-0.175912	1.085457	-0.000061
C33	C	-0.258934	1.090031	-0.000057
C34	C	-0.290961	1.015097	-0.000056
C35	C	-0.406257	0.948600	-0.000050
C36	C	-0.375822	1.019782	-0.000060
C37	C	0.254478	0.967315	-0.000047
C38	C	0.342836	0.962447	-0.000044
N39	N	0.108970	0.984222	-0.230730
C40	C	0.103153	1.138192	-0.000059
C41	C	0.104726	1.231322	-0.000059
C42	C	0.052453	1.048039	-0.470395
C43	C	0.036993	0.973282	-0.529720
C44	C	0.108960	0.984204	-0.412337
C45	C	0.124373	1.058946	-0.529754
C46	C	0.108948	0.984193	-0.587761
C47	C	0.093464	0.909411	-0.470356
C48	C	0.180875	0.995122	-0.470384
C49	C	0.165446	0.920308	-0.529683
C50	C	0.108964	0.984211	-0.311280
C51	C	0.108944	0.984176	-0.688817
N52	N	0.108941	0.984172	0.230626
H53	H	0.039934	0.551373	-0.134776
H54	H	-0.031700	0.461488	-0.000124
H55	H	-0.300447	1.154777	-0.000068
H56	H	-0.666648	1.102121	-0.000051
H57	H	-0.481629	0.813612	-0.000041
H58	H	-0.516039	1.093809	-0.000064
H59	H	-0.149826	1.146464	-0.000054
H60	H	0.177932	0.417194	-0.134903
H61	H	0.213229	0.866264	-0.555550
H62	H	0.249689	0.506704	-0.000135
H63	H	-0.417344	1.084519	-0.000072
H64	H	-0.023829	0.964035	-0.555784
H65	H	0.080353	0.846188	-0.444375
H66	H	0.177923	0.417008	0.134651
H67	H	-0.115431	0.866262	-0.000041
H68	H	-0.266040	0.874572	-0.000039
H69	H	0.137416	1.122159	-0.555845
H70	H	0.241679	1.004394	-0.444301
H71	H	0.039927	0.551313	0.134641
H72	H	-0.632252	0.821917	-0.000045
H73	H	-0.364730	0.883863	-0.000039
H74	H	0.004641	1.101972	-0.444362
