data_functionalizedCrystal
_audit_creation_method	'MofGen! by Chris Wilmer'
_symmetry_space_group_name_H-M	'P1'
_symmetry_Int_Tables_number	1
_symmetry_cell_setting	triclinic
loop_
_symmetry_equiv_pos_as_xyz
  x,y,z
_cell_length_a	12.996460
_cell_length_b	17.699083
_cell_length_c	17.699083
_cell_angle_alpha	83.283015
_cell_angle_beta	89.998816
_cell_angle_gamma	89.999828
loop_
_atom_site_label
_atom_site_type_symbol
_atom_site_fract_x
_atom_site_fract_y
_atom_site_fract_z
O1	O	0.085425	-1.004078	-0.095706
O2	O	0.418758	-0.670745	0.237627
O3	O	0.752091	-0.337412	0.570961
O4	O	0.085459	-0.783700	-0.108158
O5	O	0.418792	-0.450367	0.225175
O6	O	0.752125	-0.117033	0.558508
O7	O	0.085432	-0.900115	0.008257
O8	O	0.418765	-0.566782	0.341590
O9	O	0.752098	-0.233449	0.674924
O10	O	0.085452	-0.887663	-0.212121
O11	O	0.418785	-0.554330	0.121212
O12	O	0.752118	-0.220996	0.454545
O13	O	-0.085702	-0.900100	0.008250
O14	O	0.247631	-0.566767	0.341583
O15	O	0.580964	-0.233434	0.674917
O16	O	-0.085675	-0.783685	-0.108165
O17	O	0.247658	-0.450352	0.225168
O18	O	0.580991	-0.117018	0.558501
O19	O	-0.085709	-1.004063	-0.095713
O20	O	0.247624	-0.670730	0.237621
O21	O	0.580957	-0.337397	0.570954
Cu22	Cu	-0.101318	-0.893873	-0.101940
Cu23	Cu	0.232015	-0.560539	0.231394
Cu24	Cu	0.565349	-0.227206	0.564727
Cu25	Cu	0.101067	-0.893890	-0.101932
Cu26	Cu	0.434401	-0.560557	0.231402
Cu27	Cu	0.767734	-0.227224	0.564735
O28	O	-0.085682	-0.887648	-0.212128
O29	O	0.247651	-0.554315	0.121205
O30	O	0.580985	-0.220981	0.454538
C31	C	-0.000104	-0.755495	-0.107716
C32	C	0.333229	-0.422162	0.225618
C33	C	0.666563	-0.088829	0.558951
C34	C	-0.000091	-0.671477	-0.106377
C35	C	0.333242	-0.338144	0.226956
C36	C	0.666575	-0.004811	0.560290
N37	N	-0.243665	-0.893866	-0.101945
N38	N	0.089668	-0.560532	0.231389
N39	N	0.423002	-0.227199	0.564722
C40	C	-0.000135	-0.899662	0.036451
C41	C	0.333198	-0.566328	0.369784
C42	C	0.666531	-0.232995	0.703117
C43	C	-0.000136	-0.898323	0.120469
C44	C	0.333198	-0.564990	0.453802
C45	C	0.666531	-0.231656	0.787135
C46	C	-0.336771	-0.893869	-0.101947
C47	C	-0.003438	-0.560536	0.231387
C48	C	0.329896	-0.227203	0.564720
C49	C	-0.453576	-0.893876	-0.101942
C50	C	-0.120243	-0.560543	0.231392
C51	C	0.213090	-0.227210	0.564725
C52	C	-0.546675	-0.893886	-0.101933
C53	C	-0.213341	-0.560552	0.231400
C54	C	0.119992	-0.227219	0.564733
C55	C	-0.663487	-0.893894	-0.101929
C56	C	-0.330154	-0.560561	0.231404
C57	C	0.003180	-0.227227	0.564738
N58	N	0.243415	-0.893903	-0.101920
N59	N	0.576748	-0.560570	0.231413
N60	N	0.910081	-0.227237	0.564746
C61	C	-0.000144	-1.032268	-0.096156
C62	C	0.333189	-0.698934	0.237178
C63	C	0.666522	-0.365601	0.570511
C64	C	-0.000150	-1.116286	-0.097494
C65	C	0.333183	-0.782953	0.235839
C66	C	0.666516	-0.449619	0.569172
C67	C	-0.000085	-0.622856	-0.174710
C68	C	0.333248	-0.289523	0.158623
C69	C	0.666581	0.043810	0.491956
C70	C	-0.000099	-0.543913	-0.173448
C71	C	0.333234	-0.210580	0.159885
C72	C	0.666568	0.122754	0.493218
C73	C	-0.000111	-0.513592	-0.103852
C74	C	0.333222	-0.180259	0.229482
C75	C	0.666556	0.153074	0.562815
C76	C	-0.000120	-0.562219	-0.035513
C77	C	0.333213	-0.228886	0.297820
C78	C	0.666547	0.104447	0.631154
C79	C	-0.000114	-0.641161	-0.036776
C80	C	0.333220	-0.307828	0.296557
C81	C	0.666553	0.025505	0.629890
C82	C	-0.000146	-0.243856	-0.030418
C83	C	0.333188	0.089477	0.302915
C84	C	0.666521	0.422810	0.636249
C85	C	-0.000149	-0.164908	-0.029160
C86	C	0.333185	0.168425	0.304173
C87	C	0.666518	0.501758	0.637507
C88	C	-0.000131	-0.146608	-0.167090
C89	C	0.333202	0.186725	0.166243
C90	C	0.666536	0.520058	0.499577
C91	C	-0.000125	-0.225550	-0.168353
C92	C	0.333209	0.107783	0.164980
C93	C	0.666542	0.441117	0.498314
C94	C	-0.000139	-0.274170	-0.100015
C95	C	0.333194	0.059163	0.233319
C96	C	0.666527	0.392496	0.566652
C97	C	-0.000127	-0.359769	-0.101384
C98	C	0.333207	-0.026436	0.231949
C99	C	0.666540	0.306897	0.565282
C100	C	-0.000116	-0.427995	-0.102481
C101	C	0.333217	-0.094661	0.230852
C102	C	0.666551	0.238672	0.564185
C103	C	-0.000113	-0.888102	-0.240322
C104	C	0.333220	-0.554768	0.093011
C105	C	0.666554	-0.221435	0.426345
C106	C	-0.000106	-0.889440	-0.324340
C107	C	0.333227	-0.556107	0.008993
C108	C	0.666561	-0.222773	0.342327
C109	C	-0.000148	-0.966656	0.169090
C110	C	0.333186	-0.633323	0.502423
C111	C	0.666519	-0.299990	0.835756
C112	C	-0.000138	-0.965394	0.248033
C113	C	0.333195	-0.632061	0.581366
C114	C	0.666528	-0.298727	0.914700
C115	C	-0.000124	-0.895798	0.278354
C116	C	0.333209	-0.562464	0.611687
C117	C	0.666542	-0.229131	0.945020
C118	C	-0.000109	-0.827459	0.229727
C119	C	0.333224	-0.494126	0.563060
C120	C	0.666557	-0.160792	0.896393
C121	C	-0.000111	-0.828722	0.150785
C122	C	0.333222	-0.495389	0.484118
C123	C	0.666555	-0.162055	0.817451
C124	C	-0.000100	-0.822364	0.548090
C125	C	0.333233	-0.489030	0.881423
C126	C	0.666567	-0.155697	1.214756
C127	C	-0.000101	-0.821106	0.627038
C128	C	0.333232	-0.487773	0.960371
C129	C	0.666565	-0.154439	1.293704
C130	C	-0.000127	-0.959036	0.645338
C131	C	0.333206	-0.625703	0.978671
C132	C	0.666539	-0.292369	1.312004
C133	C	-0.000129	-0.960299	0.566396
C134	C	0.333204	-0.626966	0.899729
C135	C	0.666538	-0.293632	1.233063
C136	C	-0.000109	-0.891961	0.517776
C137	C	0.333225	-0.558627	0.851109
C138	C	0.666558	-0.225294	1.184442
C139	C	-0.000117	-0.893330	0.432177
C140	C	0.333217	-0.559997	0.765510
C141	C	0.666550	-0.226664	1.098843
C142	C	-0.000124	-0.894427	0.363951
C143	C	0.333210	-0.561094	0.697285
C144	C	0.666543	-0.227761	1.030618
H145	H	-0.000075	-0.647537	-0.231384
H146	H	0.333258	-0.314204	0.101949
H147	H	0.666592	0.019130	0.435283
H148	H	-0.000092	-0.764429	0.651721
H149	H	0.333241	-0.431096	0.985054
H150	H	0.666575	-0.097762	1.318388
H151	H	-0.000084	-0.766718	0.508512
H152	H	0.333250	-0.433385	0.841845
H153	H	0.666583	-0.100052	1.175179
Br154	Br	-0.000087	-0.735980	0.084797
Br155	Br	0.333247	-0.402647	0.418131
Br156	Br	0.666580	-0.069314	0.751464
Br157	Br	-0.000168	-0.309831	0.062327
Br158	Br	0.333165	0.023502	0.395660
Br159	Br	0.666499	0.356835	0.728994
Br160	Br	-0.000087	-0.477929	-0.266191
Br161	Br	0.333246	-0.144596	0.067143
Br162	Br	0.666579	0.188737	0.400476
Br163	Br	-0.000099	-0.266696	-0.262808
Br164	Br	0.333234	0.066638	0.070525
Br165	Br	0.666568	0.399971	0.403858
H166	H	-0.000125	-0.107012	-0.222734
H167	H	0.333209	0.226322	0.110599
H168	H	0.666542	0.559655	0.443933
Br169	Br	-0.000073	-0.733005	0.270875
Br170	Br	0.333260	-0.399672	0.604208
Br171	Br	0.666594	-0.066339	0.937542
H172	H	-0.000144	-0.537526	0.021154
H173	H	0.333189	-0.204193	0.354487
H174	H	0.666522	0.129141	0.687820
H175	H	-0.000160	-0.140225	0.027517
H176	H	0.333173	0.193108	0.360850
H177	H	0.666507	0.526442	0.694184
Br178	Br	-0.000155	-1.051783	0.711327
Br179	Br	0.333179	-0.718449	1.044660
Br180	Br	0.666512	-0.385116	1.377993
H181	H	-0.000150	-1.021038	0.287618
H182	H	0.333183	-0.687705	0.620951
H183	H	0.666516	-0.354372	0.954284
H184	H	-0.000118	-0.680748	0.018868
H185	H	0.333215	-0.347415	0.352201
H186	H	0.666549	-0.014082	0.685535
Br187	Br	-0.000181	-1.061114	0.127948
Br188	Br	0.333152	-0.727781	0.461282
Br189	Br	0.666485	-0.394447	0.794615
H190	H	-0.000146	-1.016971	0.541714
H191	H	0.333188	-0.683638	0.875047
H192	H	0.666521	-0.350305	1.208380
