data_functionalizedCrystal
_audit_creation_method	'MofGen! by Chris Wilmer'
_symmetry_space_group_name_H-M	'P1'
_symmetry_Int_Tables_number	1
_symmetry_cell_setting	triclinic
loop_
_symmetry_equiv_pos_as_xyz
  x,y,z
_cell_length_a	14.519731
_cell_length_b	14.519709
_cell_length_c	18.366186
_cell_angle_alpha	89.992822
_cell_angle_beta	89.990864
_cell_angle_gamma	83.684499
loop_
_atom_site_label
_atom_site_type_symbol
_atom_site_fract_x
_atom_site_fract_y
_atom_site_fract_z
O1	O	1.223861	0.120986	-0.060553
O2	O	1.557195	0.454319	0.272781
O3	O	1.890528	0.787653	0.606114
O4	O	0.955387	0.135202	-0.060554
O5	O	1.288720	0.468535	0.272779
O6	O	1.622054	0.801869	0.606113
O7	O	1.096742	-0.006144	-0.060547
O8	O	1.430076	0.327190	0.272786
O9	O	1.763409	0.660523	0.606120
O10	O	1.082506	0.262332	-0.060560
O11	O	1.415839	0.595665	0.272773
O12	O	1.749173	0.928999	0.606107
O13	O	1.096718	-0.006151	0.060553
O14	O	1.430052	0.327182	0.393886
O15	O	1.763385	0.660516	0.727219
O16	O	0.955363	0.135195	0.060545
O17	O	1.288696	0.468528	0.393879
O18	O	1.622030	0.801862	0.727212
O19	O	1.223837	0.120979	0.060547
O20	O	1.557171	0.454312	0.393880
O21	O	1.890504	0.787646	0.727213
Zn22	Zn	1.089596	0.128086	0.079773
Zn23	Zn	1.422930	0.461419	0.413106
Zn24	Zn	1.756263	0.794753	0.746440
Zn25	Zn	1.089628	0.128095	-0.079781
Zn26	Zn	1.422961	0.461429	0.253553
Zn27	Zn	1.756295	0.794762	0.586886
O28	O	1.082482	0.262325	0.060539
O29	O	1.415815	0.595658	0.393873
O30	O	1.749149	0.928992	0.727206
C31	C	0.921016	0.134532	-0.000005
C32	C	1.254349	0.467866	0.333329
C33	C	1.587682	0.801199	0.666662
C34	C	0.818635	0.132536	-0.000005
C35	C	1.151969	0.465870	0.333329
C36	C	1.485302	0.799203	0.666662
C37	C	0.735491	0.130915	-0.000008
C38	C	1.068825	0.464248	0.333326
C39	C	1.402158	0.797581	0.666659
C40	C	0.631182	0.128888	-0.000008
C41	C	0.964516	0.462221	0.333325
C42	C	1.297849	0.795555	0.666659
C43	C	0.548043	0.127280	-0.000008
C44	C	0.881377	0.460613	0.333326
C45	C	1.214710	0.793946	0.666659
C46	C	0.443728	0.125253	-0.000009
C47	C	0.777061	0.458586	0.333324
C48	C	1.110395	0.791920	0.666657
C49	C	1.096067	-0.040507	0.000003
C50	C	1.429400	0.292826	0.333336
C51	C	1.762734	0.626160	0.666670
C52	C	1.094079	-0.142889	0.000003
C53	C	1.427412	0.190445	0.333337
C54	C	1.760745	0.523778	0.666670
C55	C	1.086759	-0.517785	-0.000016
C56	C	1.420093	-0.184452	0.333318
C57	C	1.753426	0.148882	0.666651
C58	C	1.088792	-0.413477	-0.000010
C59	C	1.422125	-0.080143	0.333323
C60	C	1.755459	0.253190	0.666657
C61	C	1.090419	-0.330340	-0.000005
C62	C	1.423752	0.002993	0.333328
C63	C	1.757085	0.336327	0.666661
C64	C	1.092452	-0.226025	-0.000001
C65	C	1.425785	0.107308	0.333332
C66	C	1.759118	0.440641	0.666665
C67	C	1.258209	0.121649	-0.000005
C68	C	1.591542	0.454982	0.333329
C69	C	1.924875	0.788315	0.666662
C70	C	1.360589	0.123645	-0.000009
C71	C	1.693922	0.456978	0.333324
C72	C	2.027256	0.790311	0.666658
C73	C	1.083157	0.296688	-0.000012
C74	C	1.416491	0.630022	0.333321
C75	C	1.749824	0.963355	0.666655
C76	C	1.085146	0.399070	-0.000017
C77	C	1.418479	0.732403	0.333316
C78	C	1.751812	1.065736	0.666649
N79	N	1.089581	0.128079	0.188664
N80	N	1.422915	0.461412	0.521998
N81	N	1.756248	0.794746	0.855331
N82	N	1.089650	0.128095	-0.188672
N83	N	1.422984	0.461428	0.144662
N84	N	1.756317	0.794762	0.477995
C85	C	1.152194	0.065522	0.226768
C86	C	1.485527	0.398855	0.560101
C87	C	1.818861	0.732189	0.893434
C88	C	1.152200	0.065518	0.302996
C89	C	1.485533	0.398851	0.636329
C90	C	1.818867	0.732185	0.969662
C91	C	1.089602	0.128087	0.341117
C92	C	1.422935	0.461420	0.674450
C93	C	1.756269	0.794753	1.007784
C94	C	1.026977	0.190649	0.303004
C95	C	1.360311	0.523982	0.636337
C96	C	1.693644	0.857315	0.969671
C97	C	1.026967	0.190645	0.226778
C98	C	1.360300	0.523978	0.560111
C99	C	1.693634	0.857311	0.893444
C100	C	1.077658	0.212057	0.461873
C101	C	1.410991	0.545390	0.795206
C102	C	1.744324	0.878724	1.128540
C103	C	1.077674	0.212062	0.538098
C104	C	1.411008	0.545396	0.871431
C105	C	1.744341	0.878729	1.204765
C106	C	1.089628	0.128098	0.576224
C107	C	1.422961	0.461432	0.909558
C108	C	1.756295	0.794765	1.242891
C109	C	1.101585	0.044126	0.538117
C110	C	1.434918	0.377459	0.871450
C111	C	1.768251	0.710793	1.204783
C112	C	1.101574	0.044122	0.461890
C113	C	1.434908	0.377455	0.795223
C114	C	1.768241	0.710789	1.128557
C115	C	1.089606	0.128098	0.423772
C116	C	1.422939	0.461431	0.757105
C117	C	1.756272	0.794764	1.090438
C118	C	1.152251	0.065532	0.696983
C119	C	1.485584	0.398865	1.030316
C120	C	1.818917	0.732198	1.363650
C121	C	1.152250	0.065526	0.773212
C122	C	1.485583	0.398860	1.106546
C123	C	1.818917	0.732193	1.439879
C124	C	1.027032	0.190665	0.773219
C125	C	1.360365	0.523998	1.106553
C126	C	1.693698	0.857332	1.439886
C127	C	1.027028	0.190662	0.696991
C128	C	1.360361	0.523996	1.030325
C129	C	1.693695	0.857329	1.363658
C130	C	1.089642	0.128097	0.658878
C131	C	1.422976	0.461430	0.992211
C132	C	1.756309	0.794763	1.325545
H133	H	1.203176	0.014575	0.195738
H134	H	1.536509	0.347909	0.529071
H135	H	1.869843	0.681242	0.862405
F136	F	1.114291	-0.045245	0.421336
F137	F	1.447625	0.288089	0.754669
F138	F	1.780958	0.621422	1.088002
F139	F	0.960405	0.257250	0.813787
F140	F	1.293738	0.590583	1.147120
F141	F	1.627071	0.923916	1.480454
F142	F	0.960353	0.257236	0.343576
F143	F	1.293686	0.590569	0.676909
F144	F	1.627019	0.923903	1.010243
H145	H	0.976046	0.241606	0.665965
H146	H	1.309380	0.574939	0.999299
H147	H	1.642713	0.908273	1.332632
F148	F	0.960324	0.257230	0.186223
F149	F	1.293657	0.590563	0.519557
F150	F	1.626990	0.923896	0.852890
H151	H	1.111318	-0.024246	0.569157
H152	H	1.444651	0.309088	0.902491
H153	H	1.777985	0.642421	1.235824
F154	F	1.064956	0.301432	0.578648
F155	F	1.398289	0.634765	0.911982
F156	F	1.731622	0.968099	1.245315
H157	H	1.203232	0.014584	0.665950
H158	H	1.536566	0.347917	0.999283
H159	H	1.869899	0.681251	1.332616
H160	H	1.203234	0.014580	0.804237
H161	H	1.536567	0.347913	1.137570
H162	H	1.869901	0.681247	1.470903
F163	F	1.065002	0.301431	0.421303
F164	F	1.398335	0.634765	0.754637
F165	F	1.731668	0.968098	1.087970
F166	F	1.218845	-0.001067	0.343555
F167	F	1.552178	0.332266	0.676888
F168	F	1.885511	0.665599	1.010222
