data_functionalizedCrystal
_audit_creation_method	'MofGen! by Chris Wilmer'
_symmetry_space_group_name_H-M	'P1'
_symmetry_Int_Tables_number	1
_symmetry_cell_setting	triclinic
loop_
_symmetry_equiv_pos_as_xyz
  x,y,z
_cell_length_a	10.489741
_cell_length_b	10.489741
_cell_length_c	10.868271
_cell_angle_alpha	89.995151
_cell_angle_beta	89.998385
_cell_angle_gamma	84.539174
loop_
_atom_site_label
_atom_site_type_symbol
_atom_site_fract_x
_atom_site_fract_y
_atom_site_fract_z
O1	O	1.694053	0.179969	-0.102245
O2	O	1.322858	0.196862	-0.102265
O3	O	1.516902	0.002817	-0.102247
O4	O	1.500009	0.374013	-0.102263
O5	O	1.516886	0.002810	0.102397
O6	O	1.322841	0.196854	0.102380
O7	O	1.694037	0.179961	0.102399
Zn8	Zn	1.508437	0.188406	0.134881
Zn9	Zn	1.508458	0.188416	-0.134747
O10	O	1.499993	0.374005	0.102382
C11	C	1.275318	0.195582	0.000055
C12	C	1.133688	0.191765	0.000048
C13	C	1.065548	0.068300	0.000065
C14	C	0.973429	0.126627	-0.100835
C15	C	0.973448	0.126649	0.100928
C16	C	1.043435	0.250143	-0.100935
C17	C	1.043463	0.250147	0.100919
C18	C	0.951371	0.308564	-0.000006
C19	C	1.515618	-0.044718	0.000074
C20	C	1.511801	-0.186348	0.000072
C21	C	1.388336	-0.254488	0.000057
C22	C	1.446652	-0.346614	0.100960
C23	C	1.446697	-0.346581	-0.100804
C24	C	1.570167	-0.276609	0.101059
C25	C	1.570195	-0.276566	-0.100796
C26	C	1.628600	-0.368665	0.000132
C27	C	1.741577	0.181241	0.000077
C28	C	1.883206	0.185058	0.000076
C29	C	1.501277	0.421541	0.000058
C30	C	1.505094	0.563170	0.000052
N31	N	1.508432	0.188398	0.318896
N32	N	1.508473	0.188414	-0.318761
C33	C	1.508451	0.188414	0.569902
C34	C	1.508436	0.188409	0.430224
H35	H	0.901947	0.410168	-0.000065
O36	O	1.632632	-0.239928	0.202857
C37	C	1.758880	-0.299608	0.203112
H38	H	1.788431	-0.327555	0.105096
H39	H	1.826517	-0.230463	0.241288
H40	H	1.763780	-0.389059	0.263158
O41	O	1.384204	-0.383763	0.202594
C42	C	1.277269	-0.446562	0.166368
H43	H	1.292960	-0.485731	0.069146
H44	H	1.264619	-0.528891	0.232364
H45	H	1.187760	-0.375848	0.168300
O46	O	1.267321	-0.195045	0.000103
C47	C	1.272551	-0.061237	-0.000954
H48	H	1.368419	-0.038139	-0.040339
H49	H	1.191491	-0.014633	-0.060354
H50	H	1.261969	-0.022736	0.096973
H51	H	1.394447	-0.377542	-0.186118
O52	O	1.749797	-0.427661	-0.000040
C53	C	1.768580	-0.503921	-0.106513
H54	H	1.697675	-0.466563	-0.180596
H55	H	1.870479	-0.499611	-0.141653
H56	H	1.752776	-0.607253	-0.083386
O57	O	1.632304	-0.239339	-0.202593
C58	C	1.549200	-0.153392	-0.271745
H59	H	1.470955	-0.106643	-0.209205
H60	H	1.605678	-0.076375	-0.313396
H61	H	1.503768	-0.207658	-0.348552
O62	O	1.124743	-0.052817	-0.000268
C63	C	1.089239	-0.117439	-0.106839
H64	H	1.056503	-0.044513	-0.180823
H65	H	1.174883	-0.182252	-0.142059
H66	H	1.007624	-0.177806	-0.083812
H67	H	1.074270	0.302346	-0.186335
O68	O	0.936655	0.064227	-0.202634
C69	C	1.045442	0.023105	-0.273507
H70	H	1.134000	0.015051	-0.212170
H71	H	1.032667	-0.074358	-0.315699
H72	H	1.057628	0.095366	-0.349963
H73	H	1.074502	0.302342	0.186224
O74	O	0.936651	0.064133	0.202661
C75	C	0.995313	-0.062512	0.202259
H76	H	1.085468	-0.067800	0.143190
H77	H	1.021916	-0.092852	0.300387
H78	H	0.925991	-0.129291	0.162876
