data_functionalizedCrystal
_audit_creation_method	'MofGen! by Chris Wilmer'
_symmetry_space_group_name_H-M	'P1'
_symmetry_Int_Tables_number	1
_symmetry_cell_setting	triclinic
loop_
_symmetry_equiv_pos_as_xyz
  x,y,z
_cell_length_a	10.489741
_cell_length_b	22.010155
_cell_length_c	10.489741
_cell_angle_alpha	90.004586
_cell_angle_beta	95.460826
_cell_angle_gamma	90.005851
loop_
_atom_site_label
_atom_site_type_symbol
_atom_site_fract_x
_atom_site_fract_y
_atom_site_fract_z
O1	O	1.694063	0.050487	-0.179950
O2	O	1.322867	0.050497	-0.196843
O3	O	1.516911	0.050488	-0.002799
O4	O	1.500019	0.050496	-0.373995
O5	O	1.516876	-0.050562	-0.002828
O6	O	1.322832	-0.050554	-0.196872
O7	O	1.694028	-0.050563	-0.179979
Cu8	Cu	1.508426	-0.059785	-0.188428
Cu9	Cu	1.508468	0.059719	-0.188394
O10	O	1.499983	-0.050555	-0.374024
C11	C	1.275318	-0.000027	-0.195582
C12	C	1.133688	-0.000024	-0.191765
N13	N	1.508406	-0.143838	-0.188452
C14	C	1.065548	-0.000032	-0.068300
C15	C	0.973439	0.049791	-0.126609
C16	C	0.973438	-0.049837	-0.126667
C17	C	1.043444	0.049840	-0.250125
C18	C	1.043453	-0.049832	-0.250165
C19	C	0.951371	0.000003	-0.308564
C20	C	1.594396	-0.563621	-0.102484
C21	C	1.594402	-0.627228	-0.102475
O22	O	1.667463	-0.660123	-0.029398
N23	N	1.508467	-0.659045	-0.188367
C24	C	1.422512	-0.627250	-0.274265
O25	O	1.349418	-0.660153	-0.347322
C26	C	1.422501	-0.563644	-0.274267
C27	C	1.508450	-0.531831	-0.188378
C28	C	1.680337	-0.531808	-0.016600
C29	C	1.680333	-0.468204	-0.016611
C30	C	1.594387	-0.436414	-0.102505
C31	C	1.508446	-0.468227	-0.188388
C32	C	1.336541	-0.531850	-0.360158
C33	C	1.336537	-0.468240	-0.360151
C34	C	1.422486	-0.436426	-0.274262
C35	C	1.422496	-0.372834	-0.274293
N36	N	1.508430	-0.341018	-0.188400
C37	C	1.594376	-0.372808	-0.102506
C38	C	1.422540	-0.760828	-0.274254
C39	C	1.422556	-0.824433	-0.274260
C40	C	1.594445	-0.824407	-0.102467
C41	C	1.594434	-0.760801	-0.102469
C42	C	1.508475	-0.729012	-0.188362
C43	C	1.594361	-0.239237	-0.102536
C44	C	1.594352	-0.175628	-0.102558
C45	C	1.422460	-0.175659	-0.274345
C46	C	1.422472	-0.239263	-0.274328
C47	C	1.508428	-0.271050	-0.188413
O48	O	1.349469	-0.339899	-0.347329
O49	O	1.667447	-0.339897	-0.029451
C50	C	1.741577	-0.000038	-0.181241
C51	C	1.883206	-0.000037	-0.185058
C52	C	1.515618	-0.000037	0.044718
C53	C	1.511801	-0.000036	0.186348
N54	N	1.508498	0.143771	-0.188361
C55	C	1.501277	-0.000028	-0.421541
C56	C	1.505094	-0.000026	-0.563170
C57	C	1.388336	-0.000028	0.254488
C58	C	1.446642	-0.049852	0.346596
C59	C	1.446706	0.049775	0.346599
C60	C	1.570158	-0.049901	0.276591
C61	C	1.570205	0.049771	0.276584
C62	C	1.628600	-0.000065	0.368665
H63	H	0.942439	0.091911	-0.074356
O64	O	1.253885	-0.000087	0.188691
H65	H	1.184108	-0.000544	0.261867
O66	O	1.763202	-0.000054	0.434091
H67	H	1.759481	0.000361	0.539481
H68	H	1.394387	-0.091973	0.377595
O69	O	1.639366	0.105564	0.235456
H70	H	1.587936	0.146865	0.263188
H71	H	1.622338	-0.092071	0.245746
H72	H	1.664425	-0.850302	-0.032526
H73	H	1.352487	-0.149766	-0.344283
O74	O	1.377515	0.105574	0.387654
H75	H	1.277811	0.105467	0.341486
O76	O	1.329897	-0.858744	-0.366938
H77	H	1.270145	-0.825946	-0.426668
H78	H	0.901947	0.000032	-0.410168
H79	H	1.352546	-0.734948	-0.344209
H80	H	1.115238	0.000028	0.033196
H81	H	1.664352	-0.265110	-0.032575
O82	O	1.084286	0.105714	-0.319206
H83	H	1.189859	0.105297	-0.321440
H84	H	1.664347	-0.149727	-0.032617
O85	O	1.084592	-0.105624	-0.319318
H86	H	1.056865	-0.146926	-0.267883
H87	H	1.750316	-0.442306	0.053331
O88	O	0.932390	-0.105638	-0.057475
H89	H	0.978560	-0.105531	0.042229
H90	H	1.750325	-0.557686	0.053351
O91	O	1.687122	-0.726488	-0.009821
H92	H	1.746876	-0.759287	0.049907
H93	H	1.266535	-0.442360	-0.430094
O94	O	1.243884	-0.566154	-0.452842
H95	H	1.184136	-0.533353	-0.512567
H96	H	1.352497	-0.265165	-0.344280
