data_functionalizedCrystal
_audit_creation_method	'MofGen! by Chris Wilmer'
_symmetry_space_group_name_H-M	'P1'
_symmetry_Int_Tables_number	1
_symmetry_cell_setting	triclinic
loop_
_symmetry_equiv_pos_as_xyz
  x,y,z
_cell_length_a	13.033304
_cell_length_b	13.032868
_cell_length_c	13.033288
_cell_angle_alpha	90.885024
_cell_angle_beta	76.656197
_cell_angle_gamma	105.190463
loop_
_atom_site_label
_atom_site_type_symbol
_atom_site_fract_x
_atom_site_fract_y
_atom_site_fract_z
Zn1	Zn	-1.689064	0.098096	0.818281
Zn2	Zn	-1.643821	0.298255	0.663174
Zn3	Zn	-1.483167	0.148894	0.623790
Zn4	Zn	-1.488795	0.298221	0.818142
O5	O	-1.576211	0.210867	0.730847
O6	O	-1.834109	0.103402	0.814246
O7	O	-1.601220	0.299715	0.511700
O8	O	-1.527058	-0.004105	0.633166
O9	O	-1.800870	0.250458	0.700289
O10	O	-1.678330	-0.041426	0.776057
O11	O	-1.483188	0.189981	0.482765
O12	O	-1.332866	0.189948	0.633031
O13	O	-1.536651	0.250401	0.964410
O14	O	-1.337001	0.299658	0.775821
O15	O	-1.683787	0.103370	0.964512
O16	O	-1.606677	0.444511	0.700155
O17	O	-1.492781	0.444487	0.814009
C18	C	-1.295769	0.250312	0.700138
C19	C	-1.175795	0.267209	0.687028
C20	C	-1.138756	0.202066	0.737676
C21	C	-1.014757	0.219528	0.724128
C22	C	-1.545463	0.482415	0.761367
C23	C	-1.532412	0.598566	0.774469
C24	C	-1.615894	0.171215	1.003442
C25	C	-1.632804	0.154318	1.119606
C26	C	-0.857749	0.171263	0.761668
C27	C	-0.977723	0.154376	0.774783
C28	C	-1.583013	0.650312	0.724032
C29	C	-1.569526	0.770360	0.737572
C30	C	-1.607076	0.938257	0.700218
C31	C	-1.620133	0.822104	0.687128
C32	C	-1.585016	0.202075	1.291407
C33	C	-1.567536	0.219540	1.171345
C34	C	-1.536672	0.250389	1.459314
C35	C	-1.519757	0.267289	1.343149
H36	H	-1.037808	0.085667	0.828173
H37	H	-1.701623	0.085554	1.164188
H38	H	-1.516221	0.814928	0.790786
H39	H	-1.115705	0.335906	0.633634
H40	H	-1.450949	0.336053	1.298564
H41	H	-1.673448	0.777535	0.633922
H42	H	-1.198845	0.133364	0.791064
H43	H	-1.636324	0.605741	0.670829
H44	H	-1.479111	0.643138	0.827680
H45	H	-1.653831	0.133318	1.335995
H46	H	-0.954670	0.288229	0.670730
H47	H	-1.498723	0.288309	1.126764
