data_functionalizedCrystal
_audit_creation_method	'MofGen! by Chris Wilmer'
_symmetry_space_group_name_H-M	'P1'
_symmetry_Int_Tables_number	1
_symmetry_cell_setting	triclinic
loop_
_symmetry_equiv_pos_as_xyz
  x,y,z
_cell_length_a	27.354012
_cell_length_b	27.353283
_cell_length_c	27.349551
_cell_angle_alpha	60.005606
_cell_angle_beta	60.011434
_cell_angle_gamma	59.993282
loop_
_atom_site_label
_atom_site_type_symbol
_atom_site_fract_x
_atom_site_fract_y
_atom_site_fract_z
O1	O	0.067635	-0.714267	0.597330
O2	O	0.567635	-0.214267	1.097330
O3	O	0.025429	-0.556105	0.481282
O4	O	0.525429	-0.056105	0.981282
O5	O	0.125575	-0.656186	0.481214
O6	O	0.625575	-0.156186	0.981214
O7	O	-0.032512	-0.614186	0.597397
O8	O	0.467488	-0.114186	1.097397
O9	O	0.158797	-0.622968	0.514367
O10	O	0.658797	-0.122968	1.014367
O11	O	0.058650	-0.522887	0.514434
O12	O	0.558650	-0.022887	1.014434
O13	O	0.100856	-0.681048	0.630482
O14	O	0.600856	-0.181048	1.130482
Zn15	Zn	0.085028	-0.596693	0.577722
Zn16	Zn	0.585028	-0.096693	1.077722
Zn17	Zn	0.041257	-0.640460	0.534042
Zn18	Zn	0.541257	-0.140460	1.034042
O19	O	0.000709	-0.580967	0.630549
O20	O	0.500709	-0.080967	1.130549
N21	N	0.114901	-0.566828	0.607534
N22	N	0.614901	-0.066828	1.107534
N23	N	0.011389	-0.670331	0.504229
N24	N	0.511389	-0.170331	1.004229
C25	C	0.179404	-0.338196	0.672015
C26	C	0.679404	0.161804	1.172015
C27	C	0.179501	-0.502386	0.836160
C28	C	0.679501	-0.002386	1.336160
C29	C	0.179415	-0.502363	0.671996
C30	C	0.679415	-0.002363	1.171996
C31	C	0.343611	-0.502373	0.671960
C32	C	0.843611	-0.002373	1.171960
C33	C	0.197478	-0.392371	0.690061
C34	C	0.697478	0.107629	1.190061
C35	C	0.197534	-0.484321	0.781984
C36	C	0.697534	0.015679	1.281984
C37	C	0.289434	-0.484312	0.690032
C38	C	0.789434	0.015688	1.190032
C39	C	0.197486	-0.484308	0.690051
C40	C	0.697486	0.015692	1.190051
C41	C	0.156398	-0.269238	0.649045
C42	C	0.656398	0.230762	1.149045
C43	C	0.156418	-0.525342	0.649015
C44	C	0.656418	-0.025342	1.149015
C45	C	0.220484	-0.461329	0.713032
C46	C	0.720484	0.038671	1.213032
C47	C	0.443889	-0.485097	0.619172
C48	C	0.943889	0.014903	1.119172
C49	C	0.506571	-0.505993	0.598266
C50	C	1.006571	-0.005993	1.098266
C51	C	0.506589	-0.607412	0.636940
C52	C	1.006589	-0.107412	1.136940
C53	C	0.443909	-0.586515	0.657848
C54	C	0.943909	-0.086515	1.157848
C55	C	0.171510	-0.237888	0.587422
C56	C	0.671510	0.262112	1.087422
C57	C	0.150593	-0.175201	0.566543
C58	C	0.650593	0.324799	1.066543
C59	C	0.099458	-0.175218	0.668913
C60	C	0.599458	0.324782	1.168913
C61	C	0.120375	-0.237905	0.689792
C62	C	0.620375	0.262095	1.189792
C63	C	0.094789	-0.510201	0.664176
C64	C	0.594789	-0.010201	1.164176
C65	C	0.073888	-0.531091	0.643278
C66	C	0.573888	-0.031091	1.143278
C67	C	0.176239	-0.582263	0.592072
C68	C	0.676239	-0.082263	1.092072
C69	C	0.197142	-0.561373	0.612963
C70	C	0.697142	-0.061373	1.112963
C71	C	0.094933	-0.510244	0.936476
C72	C	0.594933	-0.010244	1.436476
C73	C	0.074073	-0.531151	0.999161
C74	C	0.574073	-0.031151	1.499161
C75	C	0.176453	-0.582335	0.999126
C76	C	0.676453	-0.082335	1.499126
C77	C	0.197312	-0.561429	0.936439
C78	C	0.697312	-0.061429	1.436439
C79	C	0.156551	-0.525382	0.905116
C80	C	0.656551	-0.025382	1.405116
C81	C	0.412561	-0.525357	0.648961
C82	C	0.912561	-0.025357	1.148961
C83	C	-0.098513	-0.688235	0.485867
C84	C	0.401487	-0.188235	0.985867
C85	C	-0.006461	-0.688368	0.394066
C86	C	0.493539	-0.188368	0.894066
C87	C	-0.006645	-0.780264	0.486040
C88	C	0.493355	-0.280264	0.986040
C89	C	-0.006630	-0.688361	0.486097
C90	C	0.493370	-0.188361	0.986097
C91	C	-0.029562	-0.711308	0.463018
C92	C	0.470438	-0.211308	0.963018
N93	N	0.537030	-0.566846	0.607436
N94	N	1.037030	-0.066846	1.107436
O95	O	0.741877	-0.576849	0.459995
O96	O	1.241877	-0.076849	0.959995
O97	O	0.742050	-0.693241	0.618010
O98	O	1.242050	-0.193241	1.118010
O99	O	0.741986	-0.692977	0.517791
O100	O	1.241986	-0.192977	1.017791
O101	O	0.741941	-0.577114	0.560214
O102	O	1.241941	-0.077114	1.060214
O103	O	0.642405	-0.659839	0.551046
O104	O	1.142405	-0.159839	1.051046
O105	O	0.642469	-0.660104	0.651265
O106	O	1.142469	-0.160104	1.151265
O107	O	0.642296	-0.543712	0.493251
O108	O	1.142296	-0.043712	0.993251
Zn109	Zn	0.626572	-0.596646	0.577538
Zn110	Zn	1.126572	-0.096646	1.077538
Zn111	Zn	0.757774	-0.640307	0.533723
Zn112	Zn	1.257774	-0.140307	1.033723
O113	O	0.642360	-0.543976	0.593469
O114	O	1.142360	-0.043976	1.093469
N115	N	0.847316	-0.670107	0.503818
N116	N	1.347316	-0.170107	1.003818
N117	N	0.114877	-0.144758	0.607577
N118	N	0.614877	0.355242	1.107577
O119	O	-0.032498	0.060193	0.597441
O120	O	0.467502	0.560193	1.097441
O121	O	0.125523	0.060193	0.481067
O122	O	0.625523	0.560193	0.981067
O123	O	0.025289	0.060179	0.481345
O124	O	0.525289	0.560179	0.981345
O125	O	0.067736	0.060207	0.597163
O126	O	0.567736	0.560207	1.097163
O127	O	0.058511	-0.039410	0.514543
O128	O	0.558511	0.460590	1.014543
O129	O	0.158745	-0.039397	0.514265
O130	O	0.658745	0.460603	1.014265
O131	O	0.000724	-0.039396	0.630638
O132	O	0.500724	0.460604	1.130638
Zn133	Zn	0.085009	-0.055208	0.577722
Zn134	Zn	0.585009	0.444792	1.077722
Zn135	Zn	0.041238	0.076005	0.533983
Zn136	Zn	0.541238	0.576005	1.033983
O137	O	0.100958	-0.039382	0.630360
O138	O	0.600958	0.460618	1.130360
N139	N	0.011362	0.165555	0.504130
N140	N	0.511362	0.665555	1.004130
N141	N	0.115121	-0.566884	1.029592
N142	N	0.615121	-0.066884	1.529592
O143	O	0.104990	-0.714248	1.234528
O144	O	0.604990	-0.214248	1.734528
O145	O	-0.011371	-0.556177	1.234539
O146	O	0.488629	-0.056177	1.734539
O147	O	-0.011103	-0.656395	1.234497
O148	O	0.488897	-0.156395	1.734497
O149	O	0.104722	-0.614030	1.234569
O150	O	0.604722	-0.114030	1.734569
O151	O	0.022090	-0.623190	1.134913
O152	O	0.522090	-0.123190	1.634913
O153	O	0.021822	-0.522972	1.134954
O154	O	0.521822	-0.022972	1.634954
O155	O	0.138182	-0.681044	1.134943
O156	O	0.638182	-0.181044	1.634943
Zn157	Zn	0.085272	-0.596736	1.119137
Zn158	Zn	0.585272	-0.096736	1.619137
Zn159	Zn	0.041539	-0.640484	1.250344
Zn160	Zn	0.541539	-0.140484	1.750344
O161	O	0.137914	-0.580826	1.134984
O162	O	0.637914	-0.080826	1.634984
N163	N	0.011689	-0.670343	1.339890
N164	N	0.511689	-0.170343	1.839890
C165	C	0.038085	-0.519567	0.481870
C166	C	0.538085	-0.019567	0.981870
C167	C	0.162104	-0.643505	0.481786
C168	C	0.662104	-0.143505	0.981786
C169	C	0.088200	-0.717587	0.629893
C170	C	0.588200	-0.217587	1.129893
C171	C	-0.035819	-0.593649	0.629977
C172	C	0.464181	-0.093649	1.129977
C173	C	0.692280	-0.692701	0.654545
C174	C	1.192280	-0.192701	1.154545
C175	C	0.692203	-0.692374	0.530435
C176	C	1.192203	-0.192374	1.030435
C177	C	0.692063	-0.544251	0.456717
C178	C	1.192063	-0.044251	0.956717
C179	C	0.692144	-0.544580	0.580825
C180	C	1.192144	-0.044580	1.080825
C181	C	0.162000	0.010521	0.481600
C182	C	0.662000	0.510521	0.981600
C183	C	0.037914	0.010381	0.481984
C184	C	0.537914	0.510381	0.981984
C185	C	-0.035795	0.010399	0.630065
C186	C	0.464205	0.510399	1.130065
C187	C	0.088333	0.010415	0.629722
C188	C	0.588333	0.510415	1.129722
C189	C	-0.010799	-0.519660	1.184747
C190	C	0.489201	-0.019660	1.684747
C191	C	-0.010461	-0.643761	1.184677
C192	C	0.489539	-0.143761	1.684677
C193	C	0.137610	-0.717561	1.184734
C194	C	0.637610	-0.217561	1.684734
C195	C	0.137280	-0.593452	1.184783
C196	C	0.637280	-0.093452	1.684783
H197	H	0.061737	-0.480889	0.910978
H198	H	0.561737	0.019111	1.410978
H199	H	0.692221	-0.728771	0.521355
H200	H	1.192221	-0.228771	1.021355
H201	H	0.173667	-0.584388	1.184797
H202	H	0.673667	-0.084388	1.684797
H203	H	0.097420	0.010424	0.666105
H204	H	0.597420	0.510424	1.166105
H205	H	-0.081177	0.010398	0.666600
H206	H	0.418823	0.510398	1.166600
H207	H	0.029071	-0.474132	0.445424
H208	H	0.529071	0.025868	0.945424
H209	H	0.692134	-0.508185	0.589902
H210	H	1.192134	-0.008185	1.089902
C211	C	0.049312	-0.779146	0.730418
C212	C	0.549312	-0.279146	1.230418
C213	C	0.100362	-0.778919	0.679099
C214	C	0.600362	-0.278919	1.179099
H215	H	0.056823	-0.817009	0.760796
H216	H	0.556823	-0.317009	1.260796
H217	H	0.016665	-0.771880	0.721073
H218	H	0.516665	-0.271880	1.221073
H219	H	0.039833	-0.748709	0.744194
H220	H	0.539833	-0.248709	1.244194
H221	H	0.109838	-0.809353	0.665320
H222	H	0.609838	-0.309353	1.165320
H223	H	0.133019	-0.786192	0.688445
H224	H	0.633019	-0.286192	1.188445
C225	C	-0.038803	-0.421306	1.184778
C226	C	0.461197	0.078694	1.684778
C227	C	-0.060119	-0.458376	1.184752
C228	C	0.439881	0.041624	1.684752
H229	H	-0.069253	-0.383473	1.184785
H230	H	0.430747	0.116527	1.684785
H231	H	-0.004782	-0.416068	1.150060
H232	H	0.495218	0.083932	1.650060
H233	H	-0.027926	-0.439233	1.219515
H234	H	0.472074	0.060767	1.719515
H235	H	-0.070991	-0.440451	1.150013
H236	H	0.429009	0.059549	1.650013
H237	H	-0.094150	-0.463612	1.219474
H238	H	0.405850	0.036388	1.719474
C239	C	0.260419	-0.714007	0.453946
C240	C	0.760419	-0.214007	0.953946
C241	C	0.223398	-0.655587	0.432530
C242	C	0.723398	-0.155587	0.932530
H243	H	0.298260	-0.721463	0.423537
H244	H	0.798260	-0.221463	0.923537
H245	H	0.242470	-0.741670	0.464848
H246	H	0.742470	-0.241670	0.964848
H247	H	0.265639	-0.718503	0.487972
H248	H	0.765639	-0.218503	0.987972
H249	H	0.218174	-0.651092	0.398506
H250	H	0.718174	-0.151092	0.898506
H251	H	0.241351	-0.627916	0.421619
H252	H	0.741351	-0.127916	0.921619
H253	H	0.692005	-0.507708	0.411338
H254	H	1.192005	-0.007708	0.911338
C255	C	-0.107834	-0.533454	0.693037
C256	C	0.392166	-0.033454	1.193037
C257	C	-0.097113	-0.581570	0.679236
C258	C	0.402887	-0.081570	1.179236
H259	H	-0.145672	-0.526001	0.723451
H260	H	0.354328	-0.026001	1.223451
H261	H	-0.107730	-0.498800	0.658245
H262	H	0.392270	0.001200	1.158245
H263	H	-0.077375	-0.542935	0.706786
H264	H	0.422625	-0.042935	1.206786
H265	H	-0.127570	-0.572087	0.665483
H266	H	0.372430	-0.072087	1.165483
H267	H	-0.097222	-0.616232	0.714036
H268	H	0.402778	-0.116232	1.214036
C269	C	-0.025027	-0.478439	0.992891
C270	C	0.474973	0.021561	1.492891
C271	C	0.006339	-0.514498	1.033626
C272	C	0.506339	-0.014498	1.533626
H273	H	-0.066844	-0.468157	1.014169
H274	H	0.433156	0.031843	1.514169
H275	H	-0.014764	-0.499701	0.968439
H276	H	0.485236	0.000299	1.468439
H277	H	-0.014753	-0.442999	0.968443
H278	H	0.485247	0.057001	1.468443
H279	H	-0.003932	-0.549940	1.058071
H280	H	0.496068	-0.049940	1.558071
H281	H	-0.003929	-0.493235	1.058088
H282	H	0.496071	0.006765	1.558088
C283	C	0.260187	0.011024	0.453423
C284	C	0.760187	0.511024	0.953423
C285	C	0.223136	0.010899	0.432150
C286	C	0.723136	0.510899	0.932150
H287	H	0.297928	0.011262	0.422893
H288	H	0.797928	0.511262	0.922893
H289	H	0.265639	-0.023777	0.487335
H290	H	0.765639	0.476223	0.987335
H291	H	0.242125	0.045680	0.464461
H292	H	0.742125	0.545680	0.964461
H293	H	0.241196	-0.023759	0.421116
H294	H	0.741196	0.476241	0.921116
H295	H	0.217685	0.045704	0.398227
H296	H	0.717685	0.545704	0.898227
H297	H	0.692323	-0.729239	0.699929
H298	H	1.192323	-0.229239	1.199929
C299	C	-0.032775	0.010333	0.454452
C300	C	0.467225	0.510333	0.954452
C301	C	0.025660	0.010348	0.432871
C302	C	0.525660	0.510348	0.932871
H303	H	-0.040335	0.010302	0.424134
H304	H	0.459665	0.510302	0.924134
H305	H	-0.060396	0.045069	0.465335
H306	H	0.439604	0.545069	0.965335
H307	H	-0.037220	-0.024389	0.488517
H308	H	0.462780	0.475611	0.988517
H309	H	0.030104	0.045072	0.398808
H310	H	0.530104	0.545072	0.898808
H311	H	0.053289	-0.024392	0.421979
H312	H	0.553289	0.475608	0.921979
C313	C	0.200811	-0.789599	1.133523
C314	C	0.700811	-0.289599	1.633523
C315	C	0.186931	-0.778845	1.184729
C316	C	0.686931	-0.278845	1.684729
H317	H	0.231257	-0.827435	1.133522
H318	H	0.731257	-0.327435	1.633522
H319	H	0.214537	-0.759138	1.098812
H320	H	0.714537	-0.259138	1.598812
H321	H	0.166052	-0.789528	1.133513
H322	H	0.666052	-0.289528	1.633513
H323	H	0.221689	-0.778912	1.184737
H324	H	0.721689	-0.278912	1.684737
H325	H	0.173207	-0.809314	1.219449
H326	H	0.673207	-0.309314	1.719449
H327	H	-0.046832	-0.652809	1.184615
H328	H	0.453168	-0.152809	1.684615
H329	H	0.209648	-0.611676	1.024626
H330	H	0.709648	-0.111676	1.524626
H331	H	0.061625	-0.480862	0.693528
H332	H	0.561625	0.019138	1.193528
C333	C	0.296416	-0.614114	0.942703
C334	C	0.796416	-0.114114	1.442703
C335	C	0.265048	-0.578067	0.901970
C336	C	0.765048	-0.078067	1.401970
H337	H	0.338232	-0.624381	0.921423
H338	H	0.838232	-0.124381	1.421423
H339	H	0.286156	-0.649557	0.967147
H340	H	0.786156	-0.149557	1.467147
H341	H	0.286140	-0.592845	0.967159
H342	H	0.786140	-0.092845	1.467159
H343	H	0.275320	-0.599338	0.877517
H344	H	0.775320	-0.099338	1.377517
H345	H	0.275312	-0.542619	0.877516
H346	H	0.775312	-0.042619	1.377516
H347	H	0.023705	-0.518748	0.655609
H348	H	0.523705	-0.018748	1.155609
H349	H	0.209407	-0.611608	0.562721
H350	H	0.709407	-0.111608	1.062721
H351	H	0.247325	-0.573698	0.600612
H352	H	0.747325	-0.073698	1.100612
H353	H	0.418403	-0.619300	0.682106
H354	H	0.918403	-0.119300	1.182106
H355	H	0.532110	-0.657210	0.644171
H356	H	1.032110	-0.157210	1.144171
H357	H	0.418366	-0.435297	0.611936
H358	H	0.918366	0.064703	1.111936
C359	C	0.525836	-0.419436	0.514175
C360	C	1.025836	0.080564	1.014175
C361	C	0.541014	-0.461740	0.565515
C362	C	1.041014	0.038260	1.065515
H363	H	0.547103	-0.392119	0.493952
H364	H	1.047103	0.107881	0.993952
H365	H	0.484024	-0.398239	0.525358
H366	H	0.984024	0.101761	1.025358
H367	H	0.536097	-0.439262	0.488391
H368	H	1.036097	0.060738	0.988391
H369	H	0.530749	-0.441914	0.591301
H370	H	1.030749	0.058086	1.091301
H371	H	0.582835	-0.482939	0.554332
H372	H	1.082835	0.017061	1.054332
C373	C	0.219942	-0.231571	0.484131
C374	C	0.719942	0.268429	0.984131
C375	C	0.211103	-0.272328	0.542631
C376	C	0.711103	0.227672	1.042631
H377	H	0.244383	-0.252836	0.456481
H378	H	0.744383	0.247164	0.956481
H379	H	0.239079	-0.207122	0.478106
H380	H	0.739079	0.292878	0.978106
H381	H	0.182358	-0.207121	0.478130
H382	H	0.682358	0.292879	0.978130
H383	H	0.248688	-0.296775	0.548634
H384	H	0.748688	0.203225	1.048634
H385	H	0.191968	-0.296787	0.548658
H386	H	0.691968	0.203213	1.048658
H387	H	0.162897	-0.149674	0.516363
H388	H	0.662897	0.350326	1.016363
H389	H	0.070133	-0.149706	0.702094
H390	H	0.570133	0.350294	1.202094
H391	H	0.108067	-0.263426	0.739970
H392	H	0.608067	0.236574	1.239970
