data_functionalizedCrystal
_audit_creation_method	'MofGen! by Chris Wilmer'
_symmetry_space_group_name_H-M	'P1'
_symmetry_Int_Tables_number	1
_symmetry_cell_setting	triclinic
loop_
_symmetry_equiv_pos_as_xyz
  x,y,z
_cell_length_a	10.908937
_cell_length_b	11.026607
_cell_length_c	17.766277
_cell_angle_alpha	89.996915
_cell_angle_beta	89.988590
_cell_angle_gamma	84.335986
loop_
_atom_site_label
_atom_site_type_symbol
_atom_site_fract_x
_atom_site_fract_y
_atom_site_fract_z
O1	O	1.662457	-0.179059	-0.062617
O2	O	2.162457	0.320941	0.437383
O3	O	1.309525	-0.088522	-0.062613
O4	O	1.809525	0.411478	0.437387
O5	O	1.456740	-0.304541	-0.062612
O6	O	1.956740	0.195459	0.437388
O7	O	1.515242	0.036960	-0.062618
O8	O	2.015242	0.536960	0.437382
O9	O	1.456705	-0.304543	0.062576
O10	O	1.956705	0.195457	0.562576
O11	O	1.309489	-0.088524	0.062575
O12	O	1.809489	0.411476	0.562575
O13	O	1.662422	-0.179061	0.062571
O14	O	2.162422	0.320939	0.562571
Cu15	Cu	1.485952	-0.133793	0.074004
Cu16	Cu	1.985952	0.366207	0.574004
Cu17	Cu	1.485994	-0.133790	-0.074046
Cu18	Cu	1.985994	0.366210	0.425954
O19	O	1.515206	0.036958	0.062570
O20	O	2.015206	0.536958	0.562570
C21	C	1.263622	-0.080062	-0.000018
C22	C	1.763622	0.419938	0.499982
C23	C	1.126895	-0.054865	-0.000017
C24	C	1.626895	0.445135	0.499983
C25	C	1.445930	-0.347575	-0.000019
C26	C	1.945930	0.152425	0.499981
C27	C	1.413757	-0.475796	-0.000021
C28	C	1.913757	0.024204	0.499979
C29	C	0.915317	-0.120775	-0.000029
C30	C	1.415317	0.379225	0.499971
C31	C	1.056631	-0.146820	-0.000019
C32	C	1.556631	0.353180	0.499981
C33	C	1.502592	-0.567529	-0.000023
C34	C	2.002592	-0.067529	0.499977
C35	C	1.469342	-0.700053	-0.000025
C36	C	1.969342	-0.200053	0.499975
C37	C	1.708325	-0.187521	-0.000025
C38	C	2.208325	0.312479	0.499975
C39	C	1.845052	-0.212718	-0.000032
C40	C	2.345052	0.287282	0.499968
C41	C	1.526016	0.079992	-0.000025
C42	C	2.026016	0.579992	0.499975
C43	C	1.558189	0.208213	-0.000028
C44	C	2.058189	0.708213	0.499972
N45	N	1.485932	-0.133797	0.178134
N46	N	1.985932	0.366203	0.678134
N47	N	1.486022	-0.133797	-0.178176
N48	N	1.986022	0.366203	0.321824
C49	C	1.551155	-0.229417	0.217522
C50	C	2.051155	0.270583	0.717522
C51	C	1.551161	-0.229424	0.296324
C52	C	2.051161	0.270576	0.796324
C53	C	1.485960	-0.133793	0.335735
C54	C	1.985960	0.366207	0.835735
C55	C	1.420723	-0.038164	0.296338
C56	C	1.920723	0.461836	0.796338
C57	C	1.420709	-0.038167	0.217538
C58	C	1.920709	0.461833	0.717538
C59	C	1.494294	-0.024956	0.460571
C60	C	1.994294	0.475044	0.960571
C61	C	1.494317	-0.024954	0.539370
C62	C	1.994317	0.475046	1.039370
C63	C	1.485996	-0.133786	0.578781
C64	C	1.985996	0.366214	1.078781
C65	C	1.477677	-0.242630	0.539384
C66	C	1.977677	0.257370	1.039384
C67	C	1.477663	-0.242632	0.460584
C68	C	1.977663	0.257368	0.960584
C69	C	1.485967	-0.133781	0.421181
C70	C	1.985967	0.366219	0.921181
C71	C	1.551228	-0.229421	0.703615
C72	C	2.051228	0.270579	1.203615
C73	C	1.551225	-0.229427	0.782418
C74	C	2.051225	0.270573	1.282418
C75	C	1.420795	-0.038159	0.782431
C76	C	1.920795	0.461841	1.282431
C77	C	1.420790	-0.038161	0.703629
C78	C	1.920790	0.461839	1.203629
C79	C	1.486014	-0.133792	0.664226
C80	C	1.986014	0.366208	1.164226
H81	H	0.870855	-0.022779	-0.000039
H82	H	1.370855	0.477221	0.499961
H83	H	1.101088	-0.244824	-0.000019
H84	H	1.601088	0.255176	0.499981
H85	H	1.470887	-0.331255	0.428510
H86	H	1.970887	0.168745	0.928510
H87	H	0.889514	-0.310715	-0.000031
H88	H	1.389514	0.189285	0.499969
H89	H	1.082440	0.043139	-0.000024
H90	H	1.582440	0.543139	0.499976
H91	H	1.604275	-0.307292	0.328399
H92	H	2.104275	0.192708	0.828399
H93	H	1.603262	-0.547952	-0.000020
H94	H	2.103262	-0.047952	0.499980
H95	H	1.368665	-0.719623	-0.000029
H96	H	1.868665	-0.219623	0.499971
H97	H	1.658866	-0.772219	-0.000085
H98	H	2.158866	-0.272219	0.499915
H99	H	1.501049	0.063678	0.428489
H100	H	2.001049	0.563678	0.928489
H101	H	1.604260	-0.307288	0.185442
H102	H	2.104260	0.192712	0.685442
H103	H	1.313087	-0.495373	-0.000025
H104	H	1.813087	0.004627	0.499975
H105	H	1.470901	-0.331251	0.571471
H106	H	1.970901	0.168749	1.071471
H107	H	1.367685	0.039705	0.671558
H108	H	1.867685	0.539705	1.171558
H109	H	1.604333	-0.307292	0.671531
H110	H	2.104333	0.192708	1.171531
H111	H	1.604333	-0.307298	0.814488
H112	H	2.104333	0.192702	1.314488
H113	H	1.367702	0.039702	0.814519
H114	H	1.867702	0.539702	1.314519
H115	H	1.501098	0.063671	0.571441
H116	H	2.001098	0.563671	1.071441
H117	H	1.367633	0.039698	0.328431
H118	H	1.867633	0.539698	0.828431
H119	H	1.367595	0.039700	0.185468
H120	H	1.867595	0.539700	0.685468
