data_functionalizedCrystal
_audit_creation_method	'MofGen! by Chris Wilmer'
_symmetry_space_group_name_H-M	'P1'
_symmetry_Int_Tables_number	1
_symmetry_cell_setting	triclinic
loop_
_symmetry_equiv_pos_as_xyz
  x,y,z
_cell_length_a	19.377369
_cell_length_b	27.440280
_cell_length_c	27.440280
_cell_angle_alpha	90.007570
_cell_angle_beta	72.126679
_cell_angle_gamma	48.634130
loop_
_atom_site_label
_atom_site_type_symbol
_atom_site_fract_x
_atom_site_fract_y
_atom_site_fract_z
Zr1	Zr	0.779798	0.372294	0.033773
O2	O	0.928459	0.275937	-0.025434
O3	O	0.631151	0.414681	0.039013
O4	O	0.779802	0.396141	-0.044041
O5	O	0.779800	0.294485	0.137820
O6	O	0.779788	0.476346	-0.044032
O7	O	0.779809	0.294476	0.057620
O8	O	0.513880	0.509509	0.104536
O9	O	1.045709	0.261322	-0.010748
O10	O	0.692276	0.477091	0.056852
O11	O	0.692280	0.417242	0.116698
O12	O	0.867297	0.395415	0.018913
O13	O	0.867301	0.335566	0.078759
Zr14	Zr	0.779763	0.500225	0.161696
Zr15	Zr	0.779776	0.500211	0.033786
Zr16	Zr	0.779785	0.372308	0.161683
Zr17	Zr	0.966798	0.348985	0.057195
Zr18	Zr	0.592763	0.523535	0.138274
O19	O	0.928409	0.457839	0.156456
O20	O	0.928428	0.457818	-0.025415
O21	O	0.928440	0.275957	0.156437
O22	O	0.631101	0.596583	0.220903
O23	O	0.631120	0.596562	0.039032
O24	O	0.631133	0.414701	0.220884
O25	O	0.779760	0.578034	0.057649
O26	O	0.779759	0.476378	0.239510
O27	O	0.779773	0.396173	0.239501
O28	O	0.779752	0.578043	0.137849
O29	O	1.045691	0.362998	-0.010738
O30	O	0.513869	0.509521	0.206207
O31	O	0.513852	0.611198	0.206217
O32	O	0.513862	0.611186	0.104546
O33	O	1.045698	0.261333	0.090923
O34	O	1.045681	0.363010	0.090933
O35	O	0.692264	0.477105	0.176556
O36	O	0.692260	0.536954	0.116710
O37	O	0.867280	0.455277	0.078771
O38	O	0.867284	0.395428	0.138617
C39	C	0.545872	0.465416	0.068437
C40	C	0.466486	0.475311	0.058494
C41	C	0.205096	0.351908	0.182157
C42	C	0.130409	0.361288	0.172856
C43	C	0.130414	0.423765	0.110382
C44	C	0.205099	0.414393	0.119679
C45	C	0.242434	0.378463	0.155567
C46	C	0.242438	0.440949	0.093089
C47	C	0.317119	0.431575	0.102383
C48	C	0.354462	0.395644	0.138268
C49	C	0.317116	0.369089	0.164861
C50	C	0.205106	0.476875	0.057198
C51	C	0.242444	0.503430	0.030608
C52	C	0.317122	0.494060	0.039905
C53	C	0.354465	0.458130	0.075790
C54	C	0.354468	0.520616	0.013312
C55	C	0.429150	0.511242	0.022607
C56	C	0.429147	0.448756	0.085085
C57	C	0.779808	0.276255	0.097718
C58	C	0.779817	0.221951	0.097712
C59	C	0.688405	-0.072106	0.117553
C60	C	0.688399	-0.123124	0.117557
O61	O	0.610702	-0.113253	0.134418
N62	N	0.779757	-0.191274	0.097753
C63	C	0.871127	-0.208408	0.077947
O64	O	0.948833	-0.271060	0.061103
C65	C	0.871131	-0.157390	0.077946
C66	C	0.779767	-0.089239	0.097747
C67	C	0.597048	-0.003958	0.137353
C68	C	0.597054	0.047056	0.137347
C69	C	0.688416	0.029922	0.117542
C70	C	0.779773	-0.038225	0.097742
C71	C	0.962500	-0.174524	0.058145
C72	C	0.962496	-0.123500	0.058146
C73	C	0.871132	-0.055349	0.077947
C74	C	0.871141	-0.004345	0.077931
N75	N	0.779783	0.063806	0.097735
C76	C	0.688421	0.080940	0.117541
C77	C	0.871110	-0.315544	0.077952
C78	C	0.871107	-0.366561	0.077949
C79	C	0.688379	-0.281273	0.117560
C80	C	0.688383	-0.230256	0.117559
C81	C	0.779752	-0.247393	0.097756
C82	C	0.688440	0.188070	0.117527
C83	C	0.688454	0.239085	0.117518
C84	C	0.871182	0.153793	0.077909
C85	C	0.871168	0.102782	0.077916
C86	C	0.779789	0.119926	0.097728
O87	O	0.948799	-0.014165	0.061081
O88	O	0.610727	0.143592	0.134389
C89	C	1.013688	0.407103	0.127032
C90	C	1.093075	0.397208	0.136975
C91	C	0.779797	0.436241	-0.062261
C92	C	0.779802	0.436235	-0.116562
C93	C	0.779753	0.596264	0.097751
C94	C	0.779744	0.650568	0.097757
C95	C	0.779774	0.392073	-0.351258
C96	C	0.779776	0.392070	-0.300238
O97	O	0.779749	0.354508	-0.273846
N98	N	0.779776	0.436252	-0.274720
C99	C	0.779763	0.480445	-0.300221
O100	O	0.779762	0.518025	-0.273831
C101	C	0.779754	0.480451	-0.351239
C102	C	0.779764	0.436261	-0.376757
C103	C	0.779783	0.347887	-0.376776
C104	C	0.779783	0.347890	-0.427793
C105	C	0.779773	0.392078	-0.453292
C106	C	0.779764	0.436263	-0.427774
C107	C	0.779734	0.524647	-0.376738
C108	C	0.779724	0.524649	-0.427759
C109	C	0.779734	0.480459	-0.453277
C110	C	0.779754	0.480454	-0.504289
N111	N	0.779754	0.436272	-0.529808
C112	C	0.779764	0.392084	-0.504309
C113	C	0.779781	0.480430	-0.193081
C114	C	0.779798	0.480421	-0.142066
C115	C	0.779809	0.392047	-0.142086
C116	C	0.779799	0.392053	-0.193104
C117	C	0.779781	0.436248	-0.218600
C118	C	0.779764	0.392091	-0.611448
C119	C	0.779768	0.392096	-0.662470
C120	C	0.779752	0.480472	-0.662445
C121	C	0.779753	0.480466	-0.611428
C122	C	0.779756	0.436273	-0.585930
O123	O	0.779777	0.517999	-0.530713
O124	O	0.779751	0.354516	-0.530703
C125	C	0.779764	0.436278	0.257730
C126	C	0.779758	0.436284	0.312031
C127	C	0.545845	0.625421	0.068454
C128	C	0.466449	0.689620	0.058517
C129	C	0.545856	0.465434	0.228433
C130	C	0.466464	0.475336	0.272791
C131	C	0.545828	0.625439	0.228449
C132	C	0.466427	0.689644	0.272813
C133	C	1.013732	0.247080	-0.032980
C134	C	1.093133	0.182875	-0.077344
C135	C	1.013716	0.247099	0.127015
C136	C	1.093112	0.182899	0.136953
C137	C	1.013705	0.407085	-0.032964
C138	C	1.093097	0.397183	-0.077321
C139	C	0.429172	0.688521	0.022599
C140	C	0.354582	0.748837	0.013251
C141	C	0.317265	0.810252	0.039824
C142	C	0.354548	0.811349	0.075743
C143	C	0.429143	0.751033	0.085088
C144	C	0.429172	0.511233	0.324872
C145	C	0.354585	0.520533	0.366557
C146	C	0.317287	0.493939	0.356159
C147	C	0.354586	0.458037	0.304072
C148	C	0.429176	0.448734	0.262389
C149	C	0.429137	0.751042	0.262407
C150	C	0.354542	0.811374	0.304088
C151	C	0.317232	0.810307	0.356173
C152	C	0.354529	0.748902	0.366578
C153	C	0.429129	0.688572	0.324899
C154	C	1.130432	0.121476	-0.066937
C155	C	1.205051	0.061142	-0.108615
C156	C	1.242364	0.062208	-0.160699
C157	C	1.205062	0.123613	-0.171105
C158	C	1.130450	0.183945	-0.129427
C159	C	1.130396	0.183997	0.172866
C160	C	1.205007	0.123678	0.182202
C161	C	1.242327	0.062263	0.155628
C162	C	1.205039	0.061167	0.119710
C163	C	1.130435	0.121484	0.110372
C164	C	1.130372	0.423786	-0.066907
C165	C	1.204959	0.414496	-0.108582
C166	C	1.242275	0.378598	-0.160671
C167	C	1.204993	0.351995	-0.171085
C168	C	1.130402	0.361290	-0.129411
H169	H	0.415276	0.388010	0.145833
O170	O	0.314271	0.747757	0.422755
H171	H	0.256123	0.800028	0.449982
O172	O	0.314357	0.877591	0.292859
H173	H	0.256237	0.919366	0.330590
O174	O	1.245254	0.313269	-0.227266
H175	H	1.303393	0.311270	-0.254489
H176	H	0.459480	0.638582	0.333378
H177	H	0.347516	0.339831	0.194085
H178	H	0.779775	0.516417	-0.213839
O179	O	0.314352	0.429358	0.292854
H180	H	0.280369	0.451652	0.263826
H181	H	1.100056	0.120596	-0.024531
H182	H	0.256489	0.859437	0.390106
H183	H	0.212040	0.532683	0.001387
H184	H	1.235306	0.436160	-0.100092
O185	O	0.779702	0.528140	-0.583885
H186	H	0.847997	0.498395	-0.575436
O187	O	1.245258	-0.005081	-0.097388
H188	H	1.206754	0.004322	-0.054171
H189	H	0.459529	0.419505	0.219982
O190	O	1.322850	-0.002869	-0.205649
H191	H	1.342510	-0.045739	-0.189658
H192	H	1.235353	0.124584	0.211451
H193	H	1.235437	0.011154	0.098076
O194	O	0.469417	0.622287	-0.006071
H195	H	0.551709	0.587288	-0.030293
O196	O	0.245305	0.313185	0.220892
H197	H	0.231040	0.346501	0.253618
H198	H	1.100015	0.233999	0.194511
H199	H	1.100080	0.120582	0.081129
H200	H	1.100001	0.453017	-0.024496
O201	O	1.090202	0.332591	-0.140643
H202	H	1.152840	0.276762	-0.157578
O203	O	0.314287	0.877592	0.104408
H204	H	0.256146	0.919345	0.091877
O205	O	0.779803	0.300219	-0.349279
H206	H	0.779816	0.269497	-0.375605
H207	H	0.324225	0.549770	0.408965
O208	O	0.469428	0.410021	0.123799
H209	H	0.503365	0.357775	0.110011
O210	O	0.498499	0.014529	0.158708
H211	H	0.434985	0.070490	0.172469
O212	O	0.469382	0.752199	0.206233
H213	H	0.430921	0.805032	0.206010
O214	O	0.779767	0.344430	-0.583946
H215	H	0.848087	0.291364	-0.608551
H216	H	0.100013	0.339658	0.194511
O217	O	0.498512	0.120559	0.158708
H218	H	0.434990	0.123891	0.172483
O219	O	0.314209	0.559356	-0.025402
H220	H	0.231935	0.604179	-0.004138
H221	H	1.235453	0.124473	-0.213517
H222	H	1.303075	0.013154	0.163237
H223	H	0.324235	0.747931	-0.015997
H224	H	0.779748	0.516448	-0.683215
O225	O	0.779707	0.572316	-0.349218
H226	H	0.779682	0.603047	-0.375524
O227	O	0.236805	0.875302	0.029741
H228	H	0.265429	0.898674	0.013772
H229	H	1.100082	0.233937	-0.137907
O230	O	0.469331	0.752223	0.123838
H231	H	0.430835	0.805065	0.140748
O232	O	0.779795	0.344398	-0.114570
H233	H	0.848099	0.310408	-0.106129
O234	O	0.236818	0.503989	0.401117
H235	H	0.217147	0.533430	0.439077
H236	H	0.779787	0.311909	-0.448566
O237	O	1.322741	0.368565	-0.205614
H238	H	1.294105	0.418662	-0.209155
O239	O	0.090151	0.462513	0.071672
H240	H	0.031945	0.464572	0.069676
O241	O	0.779720	0.572312	-0.455259
H242	H	0.711411	0.625378	-0.430650
O243	O	0.124561	0.486983	0.047168
H244	H	0.056627	0.541997	0.058222
O245	O	0.469434	0.539880	-0.006070
H246	H	0.406859	0.595717	0.004169
O247	O	0.589909	0.312593	0.138873
H248	H	0.546097	0.323259	0.181409
O249	O	0.589885	0.206562	0.138888
H250	H	0.526369	0.262523	0.152647
H251	H	0.613987	-0.174767	0.133688
H252	H	0.459532	0.532891	0.333349
O253	O	0.589832	-0.262795	0.138928
H254	H	0.605186	-0.309723	0.135606
O255	O	0.969650	-0.440064	0.056581
H256	H	0.974021	-0.465347	0.088668
H257	H	0.945518	-0.329508	0.061823
H258	H	0.779779	0.356109	-0.683246
H259	H	1.036902	-0.137462	0.042028
O260	O	1.061043	-0.248023	0.036789
H261	H	1.104835	-0.258662	0.060336
O262	O	0.969706	0.029273	0.056559
H263	H	1.033237	0.025933	0.042788
H264	H	0.945567	0.139853	0.061782
H265	H	0.779807	0.356070	-0.213877
H266	H	0.779805	0.516397	-0.121296
