data_functionalizedCrystal
_audit_creation_method	'MofGen! by Chris Wilmer'
_symmetry_space_group_name_H-M	'P1'
_symmetry_Int_Tables_number	1
_symmetry_cell_setting	triclinic
loop_
_symmetry_equiv_pos_as_xyz
  x,y,z
_cell_length_a	15.538191
_cell_length_b	16.992695
_cell_length_c	16.053802
_cell_angle_alpha	87.258926
_cell_angle_beta	88.442540
_cell_angle_gamma	111.029842
loop_
_atom_site_label
_atom_site_type_symbol
_atom_site_fract_x
_atom_site_fract_y
_atom_site_fract_z
O1	O	1.234788	0.253661	-0.069397
O2	O	0.967203	0.165024	-0.069406
O3	O	1.099922	0.323179	-0.069395
O4	O	1.102069	0.095505	-0.069409
O5	O	1.092615	0.314500	0.069463
O6	O	0.959895	0.156345	0.069452
O7	O	1.227481	0.244982	0.069461
Zn8	Zn	1.092528	0.199286	0.091503
Zn9	Zn	1.102156	0.210720	-0.091449
O10	O	1.094761	0.086827	0.069450
C11	C	0.929152	0.151411	0.000022
C12	C	0.826658	0.123787	0.000018
C13	C	1.265532	0.258595	0.000031
C14	C	1.368026	0.286219	0.000029
C15	C	1.093509	0.347267	0.000034
C16	C	1.085274	0.431967	0.000033
C17	C	1.676478	0.011786	0.000010
C18	C	1.772788	0.037762	0.000014
C19	C	1.784231	0.183870	0.000023
C20	C	1.687920	0.157907	0.000023
C21	C	1.634050	0.071864	0.000016
C22	C	1.645492	0.217984	0.000029
C23	C	1.549190	0.192022	0.000024
C24	C	1.495314	0.105983	0.000015
C25	C	1.537748	0.045902	0.000012
C26	C	1.699364	0.304027	0.000030
C27	C	1.656937	0.364104	0.000035
C28	C	1.560632	0.338142	0.000037
C29	C	1.506756	0.252103	0.000027
C30	C	1.518198	0.398224	0.000040
C31	C	1.421896	0.372262	0.000036
C32	C	1.410454	0.226142	0.000023
C33	C	1.101175	0.062739	0.000019
C34	C	1.109410	-0.021961	0.000014
N35	N	1.085964	0.191484	0.216363
C36	C	1.164727	0.504821	0.000037
C37	C	1.156985	0.584404	0.000028
C38	C	1.069788	0.591132	0.000023
C39	C	0.990329	0.518271	0.000017
C40	C	0.998073	0.438690	0.000019
C41	C	1.037694	0.825596	0.000010
C42	C	1.029957	0.905185	0.000010
C43	C	1.196613	0.971313	0.000021
C44	C	1.204349	0.891727	0.000028
C45	C	1.124890	0.818874	0.000017
N46	N	1.061872	0.672478	0.000017
N47	N	1.132808	0.737530	0.000017
N48	N	1.108726	0.218529	-0.216308
C49	C	1.142460	0.258768	0.260062
C50	C	1.137878	0.253306	0.347468
C51	C	1.076803	0.180557	0.391174
C52	C	1.020301	0.113269	0.347469
C53	C	1.024880	0.118735	0.260065
C54	C	1.056803	0.156707	0.652582
C55	C	1.052231	0.151246	0.739993
C56	C	1.169806	0.291284	0.739985
C57	C	1.174383	0.296740	0.652579
C58	C	1.117878	0.229454	0.608882
N59	N	1.072120	0.174971	0.480517
N60	N	1.122557	0.235043	0.519540
H61	H	1.416899	0.084847	0.000008
H62	H	0.958947	0.910655	0.000019
H63	H	1.632613	-0.058279	0.000016
H64	H	1.235732	0.499352	0.000046
H65	H	1.215809	0.346065	0.775572
C66	C	1.332522	1.047728	0.071407
C67	C	1.283951	1.051395	0.000023
H68	H	1.386440	1.097171	0.071406
H69	H	1.349608	0.999375	0.071403
H70	H	1.294460	1.044165	0.119823
H71	H	1.322011	1.054952	-0.048394
H72	H	1.266866	1.099762	0.000019
H73	H	1.010796	0.101919	0.617011
C74	C	1.034912	0.034925	0.838263
C75	C	0.985087	0.071273	0.788031
H76	H	0.993462	-0.014448	0.867914
H77	H	1.067898	0.074209	0.876796
H78	H	1.077157	0.020349	0.804142
H79	H	0.942847	0.085855	0.822153
H80	H	0.952086	0.031980	0.749494
C81	C	0.945966	0.693280	0.071382
C82	C	0.950358	0.745518	0.000004
H83	H	0.892049	0.643837	0.071374
H84	H	0.943855	0.722673	0.119797
H85	H	0.999010	0.677891	0.071375
H86	H	0.897317	0.760912	0.000015
H87	H	0.952461	0.716119	-0.048423
H88	H	0.970569	0.054037	0.383060
H89	H	1.192197	0.318006	0.224482
H90	H	1.493883	-0.024164	0.000017
H91	H	1.387351	0.421183	0.000039
H92	H	1.224114	0.355978	0.616995
H93	H	1.807327	-0.011167	0.000020
H94	H	1.828104	0.253927	0.000026
C95	C	1.837962	0.305900	-0.071344
C96	C	1.805222	0.332568	0.000034
H97	H	1.903314	0.323516	-0.071337
H98	H	1.820839	0.330035	-0.119759
H99	H	1.811947	0.246058	-0.071335
H100	H	1.831233	0.392410	0.000022
H101	H	1.822354	0.308436	0.048462
H102	H	0.919332	0.523755	0.000007
C103	C	1.809643	0.468783	0.000053
C104	C	1.716155	0.458680	0.000049
H105	H	1.846198	0.527171	0.000069
H106	H	1.825619	0.446056	-0.048372
H107	H	1.820516	0.439984	0.048474
H108	H	1.705280	0.487474	-0.048376
H109	H	1.700173	0.481418	0.048479
H110	H	0.978874	0.063946	0.224486
H111	H	0.933373	0.379370	0.000016
C112	C	1.254580	0.392260	0.338681
C113	C	1.199995	0.327259	0.395501
H114	H	1.292936	0.437913	0.368337
H115	H	1.215906	0.411110	0.304608
H116	H	1.291928	0.371842	0.304573
H117	H	1.162642	0.347676	0.429606
H118	H	1.238673	0.308408	0.429589
H119	H	1.366589	0.156076	0.000029
H120	H	1.562073	0.468280	0.000038
H121	H	1.221684	0.643721	0.000033
H122	H	1.275354	0.886258	0.000033
