data_functionalizedCrystal
_audit_creation_method	'MofGen! by Chris Wilmer'
_symmetry_space_group_name_H-M	'P1'
_symmetry_Int_Tables_number	1
_symmetry_cell_setting	triclinic
loop_
_symmetry_equiv_pos_as_xyz
  x,y,z
_cell_length_a	12.827893
_cell_length_b	21.295417
_cell_length_c	12.827885
_cell_angle_alpha	89.961710
_cell_angle_beta	89.980538
_cell_angle_gamma	90.030477
loop_
_atom_site_label
_atom_site_type_symbol
_atom_site_fract_x
_atom_site_fract_y
_atom_site_fract_z
Zn1	Zn	1.597562	-0.250578	-0.590788
Zn2	Zn	2.097562	0.249422	-0.090788
Zn3	Zn	1.597409	-0.355860	-0.416023
Zn4	Zn	2.097409	0.144140	0.083977
Zn5	Zn	1.422803	-0.250609	-0.416062
Zn6	Zn	1.922803	0.249391	0.083938
Zn7	Zn	1.422742	-0.355813	-0.590723
Zn8	Zn	1.922742	0.144187	-0.090723
O9	O	1.510129	-0.303215	-0.503399
O10	O	2.010129	0.196785	-0.003399
O11	O	1.743778	-0.264551	-0.567616
O12	O	2.243778	0.235449	-0.067616
O13	O	1.574209	-0.341931	-0.269792
O14	O	2.074209	0.158069	0.230208
O15	O	1.446074	-0.162516	-0.439283
O16	O	1.946074	0.337484	0.060717
O17	O	1.743665	-0.341901	-0.439217
O18	O	2.243665	0.158099	0.060783
O19	O	1.574469	-0.162493	-0.567654
O20	O	2.074469	0.337507	-0.067654
O21	O	1.445926	-0.264604	-0.269821
O22	O	1.945926	0.235396	0.230179
O23	O	1.276559	-0.264558	-0.439220
O24	O	1.776559	0.235442	0.060780
O25	O	1.445971	-0.341821	-0.736968
O26	O	1.945971	0.158179	-0.236968
O27	O	1.276514	-0.341851	-0.567543
O28	O	1.776514	0.158149	-0.067543
O29	O	1.574410	-0.264505	-0.737016
O30	O	2.074410	0.235495	-0.237016
O31	O	1.574150	-0.443944	-0.439154
O32	O	2.074150	0.056056	0.060846
O33	O	1.445823	-0.443909	-0.567505
O34	O	1.945823	0.056091	-0.067505
C35	C	1.238619	-0.303203	-0.503379
C36	C	1.738619	0.196797	-0.003379
C37	C	1.122466	-0.303213	-0.503396
C38	C	1.622466	0.196787	-0.003396
C39	C	1.070687	-0.341520	-0.566796
C40	C	1.570687	0.158480	-0.066796
C41	C	0.950637	-0.341531	-0.566814
C42	C	1.450637	0.158469	-0.066814
C43	C	1.509992	-0.466767	-0.503341
C44	C	2.009992	0.033233	-0.003341
C45	C	1.510029	-0.536735	-0.503351
C46	C	2.010029	-0.036735	-0.003351
C47	C	1.576908	-0.569599	-0.436587
C48	C	2.076908	-0.069599	0.063413
C49	C	1.576957	-0.635341	-0.436611
C50	C	2.076957	-0.135341	0.063389
C51	C	1.510108	-0.668217	-0.503387
C52	C	2.010108	-0.168217	-0.003387
C53	C	1.443224	-0.635346	-0.570165
C54	C	1.943224	-0.135346	-0.070165
C55	C	1.443185	-0.569604	-0.570147
C56	C	1.943185	-0.069604	-0.070147
N57	N	1.418692	-0.771483	-0.511347
N58	N	1.918692	-0.271483	-0.011347
N59	N	1.418732	-0.833934	-0.511358
N60	N	1.918732	-0.333934	-0.011358
C61	C	1.510225	-0.866292	-0.503447
C62	C	2.010225	-0.366292	-0.003447
N63	N	1.601678	-0.833839	-0.495504
N64	N	2.101678	-0.333839	0.004496
N65	N	1.601636	-0.771382	-0.495488
N66	N	2.101636	-0.271382	0.004512
C67	C	1.510144	-0.739503	-0.503415
C68	C	2.010144	-0.239503	-0.003415
C69	C	1.577163	-0.970441	-0.436705
C70	C	2.077163	-0.470441	0.063295
C71	C	1.577214	-1.036185	-0.436736
C72	C	2.077214	-0.536185	0.063264
C73	C	1.443472	-1.036188	-0.570284
C74	C	1.943472	-0.536188	-0.070284
C75	C	1.443431	-0.970446	-0.570259
C76	C	1.943431	-0.470446	-0.070259
C77	C	1.510275	-0.937576	-0.503464
C78	C	2.010275	-0.437576	-0.003464
C79	C	1.782699	-0.303228	-0.503420
C80	C	2.282699	0.196772	-0.003420
C81	C	1.898852	-0.303233	-0.503428
C82	C	2.398852	0.196767	-0.003428
C83	C	1.510201	-0.303154	-0.775969
C84	C	2.010201	0.196846	-0.275969
C85	C	1.510232	-0.303128	-0.892123
C86	C	2.010232	0.196872	-0.392123
C87	C	1.510295	-0.139025	-0.503480
C88	C	2.010295	0.360975	-0.003480
C89	C	1.510366	-0.069057	-0.503515
C90	C	2.010366	0.430943	-0.003515
C91	C	1.573825	-0.264836	-1.063976
C92	C	2.073825	0.235164	-0.563976
C93	C	1.573794	-0.264862	-0.943925
C94	C	2.073794	0.235138	-0.443925
C95	C	1.510117	-0.303231	-0.231889
C96	C	2.010117	0.196769	0.268111
C97	C	1.510289	-0.303079	-0.115737
C98	C	2.010289	0.196921	0.384263
H99	H	1.631339	-0.542838	-0.382202
H100	H	2.131339	-0.042838	0.117798
H101	H	1.077919	-0.270423	-0.449134
H102	H	1.577919	0.229577	0.050866
H103	H	1.631422	-0.662104	-0.382244
H104	H	2.131422	-0.162104	0.117756
H105	H	1.455827	-0.335867	-0.936629
H106	H	1.955827	0.164133	-0.436629
N107	N	1.371125	-0.670800	-0.642192
N108	N	1.871125	-0.170800	-0.142192
H109	H	1.381295	-0.717434	-0.632071
H110	H	1.881295	-0.217434	-0.132071
H111	H	1.296494	-0.659356	-0.625859
H112	H	1.796494	-0.159356	-0.125859
H113	H	1.631595	-0.943678	-0.382320
H114	H	2.131595	-0.443678	0.117680
H115	H	1.389047	-1.062955	-0.624660
H116	H	1.889047	-0.562955	-0.124660
N117	N	1.371046	-0.534154	-0.642157
N118	N	1.871046	-0.034154	-0.142157
H119	H	1.328705	-0.564954	-0.684468
H120	H	1.828705	-0.064954	-0.184468
H121	H	1.322692	-0.506927	-0.599565
H122	H	1.822692	-0.006927	-0.099565
H123	H	1.631682	-1.062942	-0.382371
H124	H	2.131682	-0.562942	0.117629
H125	H	0.943374	-0.270438	-0.449143
H126	H	1.443374	0.229562	0.050857
N127	N	1.371288	-0.934995	-0.642262
N128	N	1.871288	-0.434995	-0.142262
H129	H	1.328944	-0.965796	-0.684568
H130	H	1.828944	-0.465796	-0.184568
H131	H	1.322936	-0.907767	-0.599669
H132	H	1.822936	-0.407767	-0.099669
N133	N	1.645904	-0.221436	-1.122993
N134	N	2.145904	0.278564	-0.622993
H135	H	1.688299	-0.195917	-1.071957
H136	H	2.188299	0.304083	-0.571957
H137	H	1.694210	-0.247076	-1.168271
H138	H	2.194210	0.252924	-0.668271
H139	H	0.906108	-0.374329	-0.621090
H140	H	1.406108	0.125671	-0.121090
N141	N	1.645860	-0.221495	-0.884974
N142	N	2.145860	0.278505	-0.384974
H143	H	1.635629	-0.227664	-0.807571
H144	H	2.135629	0.272336	-0.307571
H145	H	1.720501	-0.231290	-0.904006
H146	H	2.220501	0.268710	-0.404006
H147	H	1.455876	-0.335842	-1.071174
H148	H	1.955876	0.164158	-0.571174
H149	H	1.115234	-0.374305	-0.621065
H150	H	1.615234	0.125695	-0.121065
