data_functionalizedCrystal
_audit_creation_method	'MofGen! by Chris Wilmer'
_symmetry_space_group_name_H-M	'P1'
_symmetry_Int_Tables_number	1
_symmetry_cell_setting	triclinic
loop_
_symmetry_equiv_pos_as_xyz
  x,y,z
_cell_length_a	14.971486
_cell_length_b	10.489741
_cell_length_c	14.048226
_cell_angle_alpha	89.993872
_cell_angle_beta	89.998499
_cell_angle_gamma	84.076651
loop_
_atom_site_label
_atom_site_type_symbol
_atom_site_fract_x
_atom_site_fract_y
_atom_site_fract_z
O1	O	1.187893	0.166222	-0.079050
O2	O	0.927606	0.186127	-0.079076
O3	O	1.063672	-0.009492	-0.079057
O4	O	1.051827	0.361841	-0.079070
O5	O	1.063656	-0.009503	0.079264
O6	O	0.927590	0.186116	0.079245
O7	O	1.187876	0.166211	0.079271
Zn8	Zn	1.057730	0.176161	0.104395
Zn9	Zn	1.057752	0.176177	-0.104200
O10	O	1.051810	0.361830	0.079252
C11	C	0.894268	0.185232	0.000081
C12	C	0.794956	0.182564	0.000071
C13	C	0.738385	0.297485	0.000069
C14	C	0.645071	0.294971	0.000083
C15	C	0.608330	0.177534	0.000093
C16	C	0.664909	0.062604	0.000098
C17	C	0.758221	0.065120	0.000091
C18	C	0.470416	0.057369	0.000112
C19	C	0.377098	0.054853	0.000117
C20	C	0.357267	0.287220	0.000104
C21	C	0.450579	0.289736	0.000096
C22	C	0.507151	0.174805	0.000100
C23	C	1.062769	-0.057019	0.000103
C24	C	1.060093	-0.198617	0.000101
C25	C	0.973518	-0.265755	0.000085
C26	C	1.014407	-0.358357	0.078150
C27	C	1.014444	-0.358320	-0.077942
C28	C	1.101017	-0.289354	0.078230
C29	C	1.101042	-0.289308	-0.077933
C30	C	1.141994	-0.381882	0.000151
C31	C	1.221215	0.167106	0.000111
C32	C	1.320527	0.169774	0.000115
C33	C	1.052713	0.409357	0.000090
C34	C	1.055390	0.550955	0.000085
N35	N	1.057722	0.176150	0.246755
N36	N	1.057768	0.176178	-0.246561
C37	C	1.117991	0.089566	0.296582
C38	C	1.117997	0.089565	0.396240
C39	C	1.057738	0.176156	0.446069
C40	C	0.997462	0.262744	0.396235
C41	C	0.997452	0.262738	0.296580
C42	C	0.997488	0.262754	0.603950
C43	C	0.997498	0.262762	0.703612
C44	C	1.118033	0.089581	0.703610
C45	C	1.118023	0.089574	0.603954
C46	C	1.057748	0.176165	0.554127
H47	H	0.311201	0.380801	0.000105
C48	C	0.336686	-0.074333	0.000130
N49	N	0.306247	-0.171637	0.000139
C50	C	0.964947	-0.399590	-0.167103
N51	N	0.927660	-0.430668	-0.234255
C52	C	0.964909	-0.399693	0.167298
N53	N	0.927622	-0.430823	0.234441
H54	H	0.948393	0.333244	0.436812
C55	C	1.150450	-0.248284	0.167493
N56	N	1.187678	-0.217346	0.234727
C57	C	1.238240	-0.449779	0.000222
N58	N	1.310730	-0.500924	0.000280
H59	H	1.137650	-0.258682	-0.143927
C60	C	1.184312	-0.005679	0.549144
N61	N	1.234239	-0.077430	0.507861
H62	H	0.634987	-0.033015	0.000120
H63	H	1.167110	0.019076	0.744184
C64	C	0.532644	-0.069061	0.000112
N65	N	0.579514	-0.164286	0.000106
C66	C	1.184283	-0.005693	0.241779
N67	N	1.234212	-0.077449	0.200504
H68	H	0.768291	0.393115	0.000060
H69	H	1.167073	0.019061	0.436808
H70	H	0.804281	-0.028461	0.000092
H71	H	0.902336	-0.215280	0.000157
C72	C	0.582846	0.421393	0.000097
N73	N	0.535978	0.516620	0.000115
C74	C	0.931158	0.357998	0.241771
N75	N	0.881224	0.429751	0.200490
H76	H	0.948428	0.333272	0.744178
H77	H	0.948402	0.333261	0.563384
H78	H	0.480489	0.385363	0.000079
