data_functionalizedCrystal
_audit_creation_method	'MofGen! by Chris Wilmer'
_symmetry_space_group_name_H-M	'P1'
_symmetry_Int_Tables_number	1
_symmetry_cell_setting	triclinic
loop_
_symmetry_equiv_pos_as_xyz
  x,y,z
_cell_length_a	14.908558
_cell_length_b	12.759400
_cell_length_c	14.908308
_cell_angle_alpha	86.729656
_cell_angle_beta	89.824401
_cell_angle_gamma	86.708584
loop_
_atom_site_label
_atom_site_type_symbol
_atom_site_fract_x
_atom_site_fract_y
_atom_site_fract_z
Zn1	Zn	1.345356	-0.548309	0.587597
Zn2	Zn	1.845356	-0.048309	1.087597
Zn3	Zn	1.353954	-0.714489	0.437245
Zn4	Zn	1.853954	-0.214489	0.937245
Zn5	Zn	1.203669	-0.528126	0.428595
Zn6	Zn	1.703669	-0.028126	0.928595
Zn7	Zn	1.194981	-0.713238	0.578898
Zn8	Zn	1.694981	-0.213238	1.078898
O9	O	1.274490	-0.626041	0.508083
O10	O	1.774490	-0.126041	1.008083
O11	O	1.472324	-0.579323	0.574913
O12	O	1.972324	-0.079323	1.074913
O13	O	1.341253	-0.681845	0.310272
O14	O	1.841253	-0.181845	0.810272
O15	O	1.222502	-0.383786	0.449707
O16	O	1.722502	0.116214	0.949707
O17	O	1.478641	-0.701415	0.464450
O18	O	1.978641	-0.201415	0.964450
O19	O	1.326599	-0.398614	0.566525
O20	O	1.826599	0.101386	1.066525
O21	O	1.230839	-0.544925	0.303917
O22	O	1.730839	-0.044925	0.803917
O23	O	1.076689	-0.543712	0.441272
O24	O	1.576689	-0.043712	0.941272
O25	O	1.207695	-0.699283	0.705877
O26	O	1.707695	-0.199283	1.205877
O27	O	1.070307	-0.679713	0.551699
O28	O	1.570307	-0.179713	1.051699
O29	O	1.318175	-0.578110	0.712268
O30	O	1.818175	-0.078110	1.212268
O31	O	1.332829	-0.861341	0.456015
O32	O	1.832829	-0.361341	0.956015
O33	O	1.216032	-0.860421	0.560087
O34	O	1.716032	-0.360421	1.060087
C35	C	1.040872	-0.609387	0.494603
C36	C	1.540872	-0.109387	0.994603
C37	C	0.940929	-0.602289	0.488858
C38	C	1.440929	-0.102289	0.988858
C39	C	0.803354	-0.521384	0.423361
C40	C	1.303354	-0.021384	0.923361
C41	C	0.897260	-0.528048	0.428756
C42	C	1.397260	-0.028048	0.928756
C43	C	0.890684	-0.669870	0.543571
C44	C	1.390684	-0.169870	1.043571
C45	C	0.796777	-0.663206	0.538177
C46	C	1.296777	-0.163206	1.038177
C47	C	0.753116	-0.588962	0.478069
C48	C	1.253116	-0.088962	0.978069
C49	C	0.659208	-0.582304	0.472670
C50	C	1.159208	-0.082304	0.972670
C51	C	0.652633	-0.724120	0.587490
C52	C	1.152633	-0.224120	1.087490
C53	C	0.746539	-0.730784	0.592884
C54	C	1.246539	-0.230784	1.092884
C55	C	1.274444	-0.899004	0.508066
C56	C	1.774444	-0.399004	1.008066
C57	C	1.274505	-1.015786	0.508094
C58	C	1.774505	-0.515786	1.008094
C59	C	1.328676	-1.078291	0.568967
C60	C	1.828676	-0.578291	1.068967
C61	C	1.328717	-1.188019	0.568991
C62	C	1.828717	-0.688019	1.068991
C63	C	1.220412	-1.172729	0.447262
C64	C	1.720412	-0.672729	0.947262
C65	C	1.220367	-1.063002	0.447243
C66	C	1.720367	-0.563002	0.947243
C67	C	1.382814	-1.031075	0.629818
C68	C	1.882814	-0.531075	1.129818
C69	C	1.436991	-1.093580	0.690695
C70	C	1.936991	-0.593580	1.190695
C71	C	1.437031	-1.203308	0.690719
C72	C	1.937031	-0.703308	1.190719
C73	C	1.382895	-1.250531	0.629866
C74	C	1.882895	-0.750531	1.129866
C75	C	1.509020	-0.642760	0.521616
C76	C	2.009020	-0.142760	1.021616
C77	C	1.608963	-0.649885	0.527383
C78	C	2.108963	-0.149885	1.027383
C79	C	1.261007	-0.640808	0.742609
C80	C	1.761007	-0.140808	1.242609
C81	C	1.255261	-0.647101	0.842551
C82	C	1.755261	-0.147101	1.342551
C83	C	1.274560	-0.352015	0.508121
C84	C	1.774560	0.147985	1.008121
C85	C	1.274590	-0.235241	0.508138
C86	C	1.774590	0.264759	1.008138
C87	C	1.287973	-0.611259	0.274473
C88	C	1.787973	-0.111259	0.774473
C89	C	1.293893	-0.604682	0.174542
C90	C	1.793893	-0.104682	0.674542
C91	C	1.359503	-0.532724	1.037007
C92	C	1.859503	-0.032724	1.537007
C93	C	1.354107	-0.538634	1.130911
C94	C	1.854107	-0.038634	1.630911
C95	C	1.239069	-0.664823	1.124263
C96	C	1.739069	-0.164823	1.624263
C97	C	1.244465	-0.658914	1.030359
C98	C	1.744465	-0.158914	1.530359
C99	C	1.304685	-0.592863	0.986735
C100	C	1.804685	-0.092863	1.486735
C101	C	1.310085	-0.586960	0.892830
C102	C	1.810085	-0.086960	1.392830
C103	C	1.195042	-0.713143	0.886184
C104	C	1.695042	-0.213143	1.386184
C105	C	1.189647	-0.719053	0.980087
C106	C	1.689647	-0.219053	1.480087
H107	H	0.611719	-0.779148	0.632036
H108	H	1.111719	-0.279148	1.132036
H109	H	1.481061	-1.055124	0.740244
H110	H	1.981061	-0.555124	1.240244
Br111	Br	1.157339	-0.754444	1.183483
Br112	Br	1.657339	-0.254444	1.683483
H113	H	0.938160	-0.473016	0.384210
H114	H	1.438160	0.026984	0.884210
H115	H	1.481137	-1.254197	0.740294
H116	H	1.981137	-0.754197	1.240294
H117	H	0.767804	-0.460934	0.374417
H118	H	1.267804	0.039066	0.874417
H119	H	1.176255	-1.012110	0.397676
H120	H	1.676255	-0.512110	0.897676
Br121	Br	1.382737	-0.882158	0.629810
Br122	Br	1.882737	-0.382158	1.129810
H123	H	0.623660	-0.521850	0.423727
H124	H	1.123660	-0.021850	0.923727
H125	H	1.382921	-1.339880	0.629901
H126	H	1.882921	-0.839880	1.129901
H127	H	1.176337	-1.211187	0.397719
H128	H	1.676337	-0.711187	0.897719
Br129	Br	1.391815	-0.497327	0.833625
Br130	Br	1.891815	0.002673	1.333625
Br131	Br	0.949955	-0.770636	0.625127
Br132	Br	1.449955	-0.270636	1.125127
Br133	Br	1.441241	-0.443104	0.977798
Br134	Br	1.941241	0.056896	1.477798
Br135	Br	1.120654	-0.794782	0.817953
Br136	Br	1.620654	-0.294782	1.317953
Br137	Br	1.107920	-0.808684	1.039300
Br138	Br	1.607920	-0.308684	1.539300
H139	H	1.398744	-0.489659	1.171839
H140	H	1.898744	0.010341	1.671839
H141	H	0.782101	-0.791229	0.641825
H142	H	1.282101	-0.291229	1.141825
