data_functionalizedCrystal
_audit_creation_method	'MofGen! by Chris Wilmer'
_symmetry_space_group_name_H-M	'P1'
_symmetry_Int_Tables_number	1
_symmetry_cell_setting	triclinic
loop_
_symmetry_equiv_pos_as_xyz
  x,y,z
_cell_length_a	12.837943
_cell_length_b	16.109301
_cell_length_c	15.186229
_cell_angle_alpha	90.005167
_cell_angle_beta	90.002255
_cell_angle_gamma	89.145210
loop_
_atom_site_label
_atom_site_type_symbol
_atom_site_fract_x
_atom_site_fract_y
_atom_site_fract_z
O1	O	-1.375379	-0.216129	-0.073219
O2	O	-1.073577	-0.205453	-0.073224
O3	O	-1.232769	-0.090419	-0.073212
O4	O	-1.216187	-0.331163	-0.073230
O5	O	-1.232758	-0.090416	0.073245
O6	O	-1.073567	-0.205450	0.073234
O7	O	-1.375369	-0.216127	0.073238
Zn8	Zn	-1.224466	-0.210788	0.096489
Zn9	Zn	-1.224480	-0.210791	-0.096475
O10	O	-1.216177	-0.331161	0.073227
C11	C	-1.034953	-0.201845	0.000004
C12	C	-0.919879	-0.191088	0.000003
C13	C	-1.232092	-0.059389	0.000017
C14	C	-1.230078	0.033066	0.000018
C15	C	-1.413993	-0.219735	0.000008
C16	C	-1.529067	-0.230491	0.000004
C17	C	-0.678877	-0.320405	0.000006
C18	C	-0.570755	-0.310302	0.000005
C19	C	-0.595510	-0.160779	0.000007
C20	C	-0.703632	-0.170882	0.000008
C21	C	-0.745312	-0.250698	0.000006
C22	C	-0.853436	-0.260800	0.000000
C23	C	-0.878189	-0.111278	0.000008
C24	C	-0.770067	-0.101175	0.000008
C25	C	-1.216854	-0.362190	-0.000004
C26	C	-1.218868	-0.454645	-0.000011
N27	N	-1.224464	-0.210786	0.228182
C28	C	-1.319857	0.248206	0.000006
C29	C	-1.317957	0.335078	-0.000002
C30	C	-1.129081	0.330208	-0.000001
C31	C	-1.130983	0.243338	-0.000000
C32	C	-1.226374	0.202340	0.000008
C33	C	-1.222572	0.376081	-0.000001
C34	C	-1.220511	0.470271	-0.000009
C35	C	-1.228435	0.108144	0.000014
N36	N	-1.224490	-0.210788	-0.228167
C37	C	-1.294978	-0.159869	0.453910
C38	C	-1.294981	-0.159868	0.546099
C39	C	-1.153968	-0.261706	0.546098
C40	C	-1.153961	-0.261703	0.453910
C41	C	-1.224472	-0.210786	0.407818
C42	C	-1.224482	-0.210787	0.592196
C43	C	-1.224485	-0.210786	0.692152
C44	C	-1.224468	-0.210786	0.307856
H45	H	-0.712813	-0.385393	0.000003
H46	H	-1.054852	0.205992	-0.000001
C47	C	-1.077470	-0.317126	0.596028
C48	C	-1.094228	-0.400161	0.573571
C49	C	-1.023766	-0.451238	0.619536
H50	H	-1.087495	-0.309950	0.657547
H51	H	-1.008274	-0.302631	0.580907
H52	H	-1.163407	-0.414651	0.588698
H53	H	-1.084195	-0.407362	0.512059
H54	H	-0.954570	-0.436743	0.604415
H55	H	-1.033797	-0.444055	0.681053
H56	H	-1.035120	-0.507582	0.604299
H57	H	-1.096541	-0.303165	0.416380
H58	H	-1.352393	-0.118406	0.583625
C59	C	-1.371568	-0.104494	0.404025
C60	C	-1.433295	-0.059886	0.464127
C61	C	-1.503852	-0.008855	0.418209
H62	H	-1.414805	-0.137746	0.368051
H63	H	-1.334315	-0.066870	0.368091
H64	H	-1.470546	-0.097506	0.500047
H65	H	-1.390087	-0.026619	0.500103
H66	H	-1.466598	0.028769	0.382274
H67	H	-1.547081	-0.042113	0.382236
H68	H	-1.545735	0.021423	0.458980
H69	H	-0.887369	-0.325790	0.000000
H70	H	-0.516666	-0.367065	0.000007
H71	H	-1.397531	0.214828	0.000010
C72	C	-0.950268	-0.035558	-0.000172
C73	C	-0.931450	0.011984	-0.075532
C74	C	-0.997837	0.081735	-0.075739
H75	H	-0.937694	-0.003086	0.050841
H76	H	-1.020649	-0.052968	-0.000222
H77	H	-0.861086	0.029395	-0.075475
H78	H	-0.944031	-0.020463	-0.126558
H79	H	-1.068217	0.064325	-0.075788
H80	H	-0.985257	0.114201	-0.024722
H81	H	-0.985084	0.113997	-0.126873
H82	H	-1.051417	0.363600	-0.000006
C83	C	-0.550045	-0.074197	-0.000025
C84	C	-0.441137	-0.080275	-0.000039
C85	C	-0.399219	-0.000532	-0.000077
H86	H	-0.572736	-0.045063	0.051036
H87	H	-0.572785	-0.045120	-0.051116
H88	H	-0.418406	-0.109340	0.051047
H89	H	-0.418417	-0.109394	-0.051096
H90	H	-0.421959	0.028545	-0.051168
H91	H	-0.421917	0.028596	0.050985
H92	H	-0.325321	-0.004645	-0.000095
C93	C	-0.724870	-0.014502	0.000186
C94	C	-0.758614	0.028148	0.075542
C95	C	-0.716993	0.107991	0.075739
H96	H	-0.747650	0.014654	-0.050830
H97	H	-0.650957	-0.018430	0.000233
H98	H	-0.832512	0.032080	0.075487
H99	H	-0.735836	-0.000983	0.126570
H100	H	-0.643080	0.104063	0.075786
H101	H	-0.739776	0.137140	0.024720
H102	H	-0.739874	0.136936	0.126871
H103	H	-1.394081	0.372419	-0.000005
