data_functionalizedCrystal
_audit_creation_method	'MofGen! by Chris Wilmer'
_symmetry_space_group_name_H-M	'P1'
_symmetry_Int_Tables_number	1
_symmetry_cell_setting	triclinic
loop_
_symmetry_equiv_pos_as_xyz
  x,y,z
_cell_length_a	16.109302
_cell_length_b	16.109304
_cell_length_c	15.186229
_cell_angle_alpha	90.000934
_cell_angle_beta	90.005299
_cell_angle_gamma	83.462209
loop_
_atom_site_label
_atom_site_type_symbol
_atom_site_fract_x
_atom_site_fract_y
_atom_site_fract_z
O1	O	1.103131	0.106869	0.073263
O2	O	1.353131	0.356869	0.323263
O3	O	1.603131	0.606869	0.573263
O4	O	1.853131	0.856869	0.823263
O5	O	0.861070	0.120167	0.073255
O6	O	1.111070	0.370167	0.323255
O7	O	1.361070	0.620167	0.573255
O8	O	1.611070	0.870167	0.823255
O9	O	0.988749	-0.007513	0.073259
O10	O	1.238749	0.242487	0.323259
O11	O	1.488749	0.492487	0.573259
O12	O	1.738749	0.742487	0.823259
O13	O	0.975452	0.234549	0.073258
O14	O	1.225452	0.484549	0.323258
O15	O	1.475452	0.734549	0.573258
O16	O	1.725452	0.984549	0.823258
O17	O	0.988740	-0.007514	-0.073198
O18	O	1.238740	0.242486	0.176802
O19	O	1.488740	0.492486	0.426802
O20	O	1.738740	0.742486	0.676802
O21	O	0.861061	0.120166	-0.073202
O22	O	1.111061	0.370166	0.176798
O23	O	1.361061	0.620166	0.426798
O24	O	1.611061	0.870166	0.676798
O25	O	1.103123	0.106867	-0.073195
O26	O	1.353123	0.356867	0.176805
O27	O	1.603123	0.606867	0.426805
O28	O	1.853123	0.856867	0.676805
Zn29	Zn	0.982091	0.113516	-0.096452
Zn30	Zn	1.232091	0.363516	0.153548
Zn31	Zn	1.482091	0.613516	0.403548
Zn32	Zn	1.732091	0.863516	0.653548
Zn33	Zn	0.982102	0.113518	0.096512
Zn34	Zn	1.232102	0.363518	0.346512
Zn35	Zn	1.482102	0.613518	0.596512
Zn36	Zn	1.732102	0.863518	0.846512
O37	O	0.975444	0.234547	-0.073199
O38	O	1.225444	0.484547	0.176801
O39	O	1.475444	0.734547	0.426801
O40	O	1.725444	0.984547	0.676801
C41	C	0.830090	0.119628	0.000025
C42	C	1.080090	0.369628	0.250025
C43	C	1.330090	0.619628	0.500025
C44	C	1.580090	0.869628	0.750025
C45	C	0.737795	0.118012	0.000023
C46	C	0.987795	0.368012	0.250023
C47	C	1.237795	0.618012	0.500023
C48	C	1.487795	0.868012	0.750023
C49	C	0.525450	0.114276	-0.079802
C50	C	0.775450	0.364276	0.170198
C51	C	1.025450	0.614276	0.420198
C52	C	1.275450	0.864276	0.670198
C53	C	0.438729	0.112750	-0.079799
C54	C	0.688729	0.362750	0.170201
C55	C	0.938729	0.612750	0.420201
C56	C	1.188729	0.862750	0.670201
C57	C	0.438749	0.112756	0.079876
C58	C	0.688749	0.362756	0.329876
C59	C	0.938749	0.612756	0.579876
C60	C	1.188749	0.862756	0.829876
C61	C	0.525468	0.114277	0.079872
C62	C	0.775468	0.364277	0.329872
C63	C	1.025468	0.614277	0.579872
C64	C	1.275468	0.864277	0.829872
C65	C	0.568816	0.115041	0.000030
C66	C	0.818816	0.365041	0.250030
C67	C	1.068816	0.615041	0.500030
C68	C	1.318816	0.865041	0.750030
C69	C	0.395377	0.111994	0.000038
C70	C	0.645377	0.361994	0.250038
C71	C	0.895377	0.611994	0.500038
C72	C	1.145377	0.861994	0.750038
C73	C	0.301351	0.110338	0.000041
C74	C	0.551351	0.360338	0.250041
C75	C	0.801351	0.610338	0.500041
C76	C	1.051351	0.860338	0.750041
C77	C	0.662848	0.116695	0.000026
C78	C	0.912848	0.366695	0.250026
C79	C	1.162848	0.616695	0.500026
C80	C	1.412848	0.866695	0.750026
C81	C	0.988206	-0.038488	0.000033
C82	C	1.238206	0.211512	0.250033
C83	C	1.488206	0.461512	0.500033
C84	C	1.738206	0.711512	0.750033
C85	C	0.986590	-0.130784	0.000039
C86	C	1.236590	0.119216	0.250039
C87	C	1.486590	0.369216	0.500039
C88	C	1.736590	0.619216	0.750039
C89	C	0.982861	-0.343120	0.079869
C90	C	1.232861	-0.093120	0.329869
C91	C	1.482861	0.156880	0.579869
C92	C	1.732861	0.406880	0.829869
C93	C	0.981334	-0.429840	0.079868
C94	C	1.231334	-0.179840	0.329868
C95	C	1.481334	0.070160	0.579868
C96	C	1.731334	0.320160	0.829868
C97	C	0.981329	-0.429839	-0.079807
C98	C	1.231329	-0.179839	0.170193
C99	C	1.481329	0.070161	0.420193
C100	C	1.731329	0.320161	0.670193
C101	C	0.982849	-0.343120	-0.079806
C102	C	1.232849	-0.093120	0.170194
C103	C	1.482849	0.156880	0.420194
C104	C	1.732849	0.406880	0.670194
C105	C	0.983619	-0.299763	0.000035
C106	C	1.233619	-0.049763	0.250035
C107	C	1.483619	0.200237	0.500035
C108	C	1.733619	0.450237	0.750035
C109	C	0.980573	-0.473202	0.000033
C110	C	1.230573	-0.223202	0.250033
C111	C	1.480573	0.026798	0.500033
C112	C	1.730573	0.276798	0.750033
C113	C	0.978918	-0.567228	0.000031
C114	C	1.228918	-0.317228	0.250031
C115	C	1.478918	-0.067228	0.500031
C116	C	1.728918	0.182772	0.750031
C117	C	0.985272	-0.205731	0.000037
C118	C	1.235272	0.044269	0.250037
C119	C	1.485272	0.294269	0.500037
C120	C	1.735272	0.544269	0.750037
C121	C	1.134102	0.107407	0.000037
C122	C	1.384102	0.357407	0.250037
C123	C	1.634102	0.607407	0.500037
C124	C	1.884102	0.857407	0.750037
C125	C	1.226397	0.109022	0.000045
C126	C	1.476397	0.359022	0.250045
C127	C	1.726397	0.609022	0.500045
C128	C	1.976397	0.859022	0.750045
C129	C	0.975987	0.265523	0.000029
C130	C	1.225987	0.515523	0.250029
C131	C	1.475987	0.765523	0.500029
C132	C	1.725987	1.015523	0.750029
C133	C	0.977603	0.357818	0.000029
C134	C	1.227603	0.607818	0.250029
C135	C	1.477603	0.857818	0.500029
C136	C	1.727603	1.107818	0.750029
N137	N	0.982089	0.113514	-0.228144
N138	N	1.232089	0.363514	0.021856
N139	N	1.482089	0.613514	0.271856
N140	N	1.732089	0.863514	0.521856
C141	C	1.038645	0.056996	-0.453865
C142	C	1.288645	0.306996	-0.203865
C143	C	1.538645	0.556996	0.046135
C144	C	1.788645	0.806996	0.296135
C145	C	1.038647	0.056994	-0.546055
C146	C	1.288647	0.306994	-0.296055
C147	C	1.538647	0.556994	-0.046055
C148	C	1.788647	0.806994	0.203945
C149	C	0.925548	0.170034	-0.546068
C150	C	1.175548	0.420034	-0.296068
C151	C	1.425548	0.670034	-0.046068
C152	C	1.675548	0.920034	0.203932
C153	C	0.925542	0.170032	-0.453880
C154	C	1.175542	0.420032	-0.203880
C155	C	1.425542	0.670032	0.046120
C156	C	1.675542	0.920032	0.296120
C157	C	0.982095	0.113514	-0.407781
C158	C	1.232095	0.363514	-0.157781
C159	C	1.482095	0.613514	0.092219
C160	C	1.732095	0.863514	0.342219
C161	C	0.982104	0.113514	-0.592159
C162	C	1.232104	0.363514	-0.342159
C163	C	1.482104	0.613514	-0.092159
C164	C	1.732104	0.863514	0.157841
C165	C	0.982106	0.113513	-0.692115
C166	C	1.232106	0.363513	-0.442115
C167	C	1.482106	0.613513	-0.192115
C168	C	1.732106	0.863513	0.057885
C169	C	0.982092	0.113514	-0.307819
C170	C	1.232092	0.363514	-0.057819
C171	C	1.482092	0.613514	0.192181
C172	C	1.732092	0.863514	0.442181
N173	N	0.982110	0.113514	0.228205
N174	N	1.232110	0.363514	0.478205
N175	N	1.482110	0.613514	0.728205
N176	N	1.732110	0.863514	0.978205
H177	H	0.403424	0.112127	-0.144807
H178	H	0.653424	0.362127	0.105193
H179	H	0.903424	0.612127	0.355193
H180	H	1.153424	0.862127	0.605193
Cl181	Cl	0.983794	-0.288608	-0.180177
Cl182	Cl	1.233794	-0.038608	0.069823
Cl183	Cl	1.483794	0.211392	0.319823
Cl184	Cl	1.733794	0.461392	0.569823
Cl185	Cl	0.579941	0.115232	-0.180175
Cl186	Cl	0.829941	0.365232	0.069825
Cl187	Cl	1.079941	0.615232	0.319825
Cl188	Cl	1.329941	0.865232	0.569825
Cl189	Cl	0.579991	0.115231	0.180242
Cl190	Cl	0.829991	0.365231	0.430242
Cl191	Cl	1.079991	0.615231	0.680242
Cl192	Cl	1.329991	0.865231	0.930242
Cl193	Cl	1.109739	-0.014061	-0.603987
Cl194	Cl	1.359739	0.235939	-0.353987
Cl195	Cl	1.609739	0.485939	-0.103987
Cl196	Cl	1.859739	0.735939	0.146013
Cl197	Cl	1.109736	-0.014058	-0.395916
Cl198	Cl	1.359736	0.235942	-0.145916
Cl199	Cl	1.609736	0.485942	0.104084
Cl200	Cl	1.859736	0.735942	0.354084
H201	H	0.403445	0.112134	0.144881
H202	H	0.653445	0.362134	0.394881
H203	H	0.903445	0.612134	0.644881
H204	H	1.153445	0.862134	0.894881
H205	H	0.983485	-0.307821	0.144881
H206	H	1.233485	-0.057821	0.394881
H207	H	1.483485	0.192179	0.644881
H208	H	1.733485	0.442179	0.894881
Cl209	Cl	0.854442	0.241084	-0.395940
Cl210	Cl	1.104442	0.491084	-0.145940
Cl211	Cl	1.354442	0.741084	0.104060
Cl212	Cl	1.604442	0.991084	0.354060
H213	H	0.879505	0.216051	-0.583611
H214	H	1.129505	0.466051	-0.333611
H215	H	1.379505	0.716051	-0.083611
H216	H	1.629505	0.966051	0.166389
H217	H	0.980715	-0.465137	0.144877
H218	H	1.230715	-0.215137	0.394877
H219	H	1.480715	0.034863	0.644877
H220	H	1.730715	0.284863	0.894877
H221	H	0.980704	-0.465151	-0.144811
H222	H	1.230704	-0.215151	0.105189
H223	H	1.480704	0.034849	0.355189
H224	H	1.730704	0.284849	0.605189
