data_functionalizedCrystal
_audit_creation_method	'MofGen! by Chris Wilmer'
_symmetry_space_group_name_H-M	'P1'
_symmetry_Int_Tables_number	1
_symmetry_cell_setting	triclinic
loop_
_symmetry_equiv_pos_as_xyz
  x,y,z
_cell_length_a	16.120490
_cell_length_b	12.827892
_cell_length_c	12.827885
_cell_angle_alpha	89.970214
_cell_angle_beta	87.082877
_cell_angle_gamma	87.107940
loop_
_atom_site_label
_atom_site_type_symbol
_atom_site_fract_x
_atom_site_fract_y
_atom_site_fract_z
Zn1	Zn	1.274622	-0.497187	-0.671786
Zn2	Zn	1.274538	-0.671959	-0.497041
Zn3	Zn	1.135200	-0.488355	-0.488207
Zn4	Zn	1.135188	-0.663003	-0.662893
O5	O	1.204887	-0.580126	-0.579982
O6	O	1.391278	-0.527815	-0.656025
O7	O	1.256024	-0.647655	-0.349631
O8	O	1.153735	-0.343293	-0.512584
O9	O	1.391216	-0.656219	-0.527641
O10	O	1.256168	-0.349782	-0.647459
O11	O	1.153653	-0.512763	-0.343141
O12	O	1.018531	-0.504079	-0.503960
O13	O	1.153715	-0.640956	-0.810310
O14	O	1.018522	-0.632392	-0.632301
O15	O	1.256156	-0.519131	-0.816845
O16	O	1.256012	-0.817004	-0.519017
O17	O	1.153633	-0.810425	-0.640867
C18	C	1.204835	-0.851633	-0.579960
C19	C	1.204889	-0.967789	-0.579990
C20	C	0.988276	-0.566306	-0.566207
C21	C	0.895609	-0.560419	-0.560339
C22	C	1.255610	-1.022799	-0.519769
C23	C	1.255667	-1.142853	-0.519799
C24	C	0.684675	-0.610655	-0.610422
C25	C	0.725951	-0.549680	-0.549624
C26	C	0.820357	-0.555657	-0.555588
C27	C	0.590259	-0.604680	-0.604459
C28	C	1.422344	-0.594001	-0.593811
C29	C	1.515011	-0.599913	-0.599704
C30	C	1.204944	-0.580029	-0.852556
C31	C	1.204968	-0.579988	-0.968710
C32	C	1.204962	-0.307561	-0.580028
C33	C	1.204994	-0.191410	-0.580047
C34	C	1.255665	-0.519693	-1.023729
C35	C	1.255691	-0.519649	-1.143781
C36	C	1.204878	-0.580150	-0.308471
C37	C	1.205016	-0.579907	-0.192327
H38	H	1.299088	-1.190147	-0.468239
N39	N	1.147514	-0.648276	-1.129673
H40	H	1.087942	-0.628247	-1.144828
H41	H	1.160494	-0.723756	-1.149442
N42	N	1.313193	-0.451274	-1.206426
H43	H	1.305062	-0.460936	-1.283307
H44	H	1.300247	-0.375803	-1.186592
H45	H	1.161578	-0.631569	-1.010485
N46	N	0.731777	-0.685759	-0.685283
H47	H	0.691080	-0.725628	-0.725027
H48	H	0.767932	-0.645529	-0.735956
N49	N	0.678842	-0.474597	-0.474736
H50	H	0.693916	-0.491683	-0.400979
H51	H	0.693967	-0.400914	-0.492109
H52	H	1.161564	-1.144122	-0.631604
N53	N	1.313076	-0.967471	-0.451435
H54	H	1.372660	-0.990132	-0.471501
H55	H	1.304821	-0.889566	-0.461124
H56	H	1.299046	-0.468102	-0.981954
N57	N	1.147419	-1.023116	-0.648321
H58	H	1.181331	-1.070490	-0.698910
H59	H	1.108866	-1.065959	-0.603258
