data_functionalizedCrystal
_audit_creation_method	'MofGen! by Chris Wilmer'
_symmetry_space_group_name_H-M	'P1'
_symmetry_Int_Tables_number	1
_symmetry_cell_setting	triclinic
loop_
_symmetry_equiv_pos_as_xyz
  x,y,z
_cell_length_a	17.038272
_cell_length_b	9.065218
_cell_length_c	16.098687
_cell_angle_alpha	87.236909
_cell_angle_beta	87.071094
_cell_angle_gamma	91.936279
loop_
_atom_site_label
_atom_site_type_symbol
_atom_site_fract_x
_atom_site_fract_y
_atom_site_fract_z
O1	O	0.118192	-1.965754	-0.069258
O2	O	0.127603	-1.537413	-0.069260
O3	O	0.009064	-1.749038	-0.069253
O4	O	0.236732	-1.754129	-0.069266
O5	O	0.002162	-1.761333	0.069258
O6	O	0.120702	-1.549708	0.069251
O7	O	0.111291	-1.978049	0.069252
Zn8	Zn	0.114901	-1.765831	0.091243
Zn9	Zn	0.123993	-1.749631	-0.091251
O10	O	0.229831	-1.766424	0.069245
C11	C	-0.023549	-1.750555	0.000003
C12	C	-0.110441	-1.736739	0.000002
C13	C	0.123248	-1.488483	-0.000005
C14	C	0.120544	-1.324369	-0.000005
C15	C	0.115646	-2.026979	-0.000005
C16	C	0.118351	-2.191092	-0.000010
C17	C	-0.159640	-1.863587	0.000004
C18	C	-0.241284	-1.850596	-0.000004
C19	C	-0.273728	-1.710756	-0.000008
C20	C	-0.224523	-1.583898	-0.000011
C21	C	-0.142880	-1.596890	-0.000009
C22	C	-0.519817	-1.664857	-0.000019
C23	C	-0.601466	-1.651874	-0.000019
C24	C	-0.618221	-1.918574	-0.000013
C25	C	-0.536576	-1.931554	-0.000006
C26	C	-0.487378	-1.804696	-0.000014
C27	C	-0.357181	-1.697474	-0.000013
C28	C	-0.403926	-1.817978	-0.000015
C29	C	0.262443	-1.764907	-0.000012
C30	C	0.349336	-1.778723	-0.000017
N31	N	0.108695	-1.776897	0.215790
N32	N	0.130193	-1.738576	-0.215797
C33	C	0.079899	-1.828419	0.740599
C34	C	0.084250	-1.820644	0.653411
C35	C	0.138891	-1.723017	0.609829
C36	C	0.189190	-1.633171	0.653439
C37	C	0.184843	-1.640954	0.740625
C38	C	0.154647	-1.694834	0.346585
C39	C	0.158989	-1.687054	0.259393
C40	C	0.054049	-1.874530	0.259372
C41	C	0.049703	-1.882298	0.346559
C42	C	0.100005	-1.792458	0.390161
C43	C	0.143338	-1.715065	0.520710
C44	C	0.095561	-1.800419	0.479279
H45	H	-0.281338	-1.953890	-0.000002
H46	H	0.195603	-1.621679	0.382079
N47	N	0.020969	-1.933727	0.787602
H48	H	-0.015907	-1.876200	0.823787
H49	H	-0.010172	-1.989441	0.746693
N50	N	-0.124649	-2.014416	0.000009
H51	H	-0.093715	-2.030307	0.051359
H52	H	-0.168251	-2.092704	-0.000023
H53	H	0.013096	-1.947676	0.223863
H54	H	0.233685	-1.553687	0.617950
N55	N	0.202267	-1.609756	0.473706
H56	H	0.239140	-1.667291	0.437521
H57	H	0.173615	-1.537436	0.437592
H58	H	-0.510166	-2.045426	-0.000004
H59	H	-0.658286	-2.021854	-0.000008
H60	H	0.043298	-1.893802	0.617910
H61	H	-0.377506	-1.931834	-0.000031
H62	H	0.005210	-1.961794	0.382042
N63	N	-0.636462	-1.501040	-0.000030
H64	H	-0.672520	-1.494259	0.051317
H65	H	-0.592862	-1.422735	-0.000069
H66	H	0.225798	-1.567797	0.776126
H67	H	0.203487	-1.607549	0.223913
H68	H	0.051075	-1.879912	0.514766
N69	N	-0.392182	-1.546654	-0.000007
H70	H	-0.376876	-1.495177	0.051341
H71	H	-0.371740	-1.486168	-0.051385
N72	N	-0.466760	-1.528038	-0.000024
H73	H	-0.499704	-1.437483	-0.000022
H74	H	-0.435081	-1.532174	0.051323
H75	H	-0.102823	-1.493596	-0.000011
N76	N	-0.259512	-1.433067	-0.000020
H77	H	-0.318698	-1.444082	-0.000018
H78	H	-0.244141	-1.381665	0.051326
