data_functionalizedCrystal
_audit_creation_method	'MofGen! by Chris Wilmer'
_symmetry_space_group_name_H-M	'P1'
_symmetry_Int_Tables_number	1
_symmetry_cell_setting	triclinic
loop_
_symmetry_equiv_pos_as_xyz
  x,y,z
_cell_length_a	17.640112
_cell_length_b	18.050589
_cell_length_c	17.640968
_cell_angle_alpha	78.773118
_cell_angle_beta	92.139080
_cell_angle_gamma	101.252307
loop_
_atom_site_label
_atom_site_type_symbol
_atom_site_fract_x
_atom_site_fract_y
_atom_site_fract_z
Zn1	Zn	1.247776	-0.021338	-0.195082
Zn2	Zn	1.221993	-0.174558	-0.068112
Zn3	Zn	1.095104	-0.069647	-0.093732
Zn4	Zn	1.120735	-0.164782	-0.220693
O5	O	1.171402	-0.107581	-0.144405
O6	O	1.350627	-0.025537	-0.156798
O7	O	1.183644	-0.184950	0.034761
O8	O	1.115420	0.040699	-0.107180
O9	O	1.331684	-0.138107	-0.063514
O10	O	1.227588	0.076191	-0.181641
O11	O	1.090420	-0.107872	0.015938
O12	O	0.992234	-0.098393	-0.132014
O13	O	1.159104	-0.121445	-0.323567
O14	O	1.011064	-0.168289	-0.225292
O15	O	1.252441	-0.016058	-0.304750
O16	O	1.208498	-0.277199	-0.088349
O17	O	1.134104	-0.270016	-0.200449
C18	C	0.974094	-0.137523	-0.184213
C19	C	0.889689	-0.150346	-0.201261
C20	C	0.563038	-0.010153	-0.014899
C21	C	0.483728	-0.022215	-0.030928
C22	C	0.503357	-0.095166	-0.127891
C23	C	0.582671	-0.083107	-0.111873
C24	C	0.612505	-0.040601	-0.055375
C25	C	0.632138	-0.113555	-0.152349
C26	C	0.711444	-0.101501	-0.136328
C27	C	0.741283	-0.058998	-0.079832
C28	C	0.691811	-0.028547	-0.039354
C29	C	0.602302	-0.156066	-0.208842
C30	C	0.651768	-0.186514	-0.249318
C31	C	0.731077	-0.174455	-0.233302
C32	C	0.760916	-0.131952	-0.176805
C33	C	0.780549	-0.204906	-0.273779
C34	C	0.859855	-0.192852	-0.257758
C35	C	0.840222	-0.119898	-0.160785
C36	C	1.171308	-0.300550	-0.144411
C37	C	1.171342	-0.383087	-0.144424
C38	C	1.130933	-0.578655	-0.205357
C39	C	1.098407	-0.646737	-0.139793
C40	C	1.171419	-0.534204	-0.144419
C41	C	1.203984	-0.613197	-0.209983
C42	C	1.171493	-0.680174	-0.144421
C43	C	1.138849	-0.601212	-0.078826
C44	C	1.244468	-0.567652	-0.149057
C45	C	1.211958	-0.635718	-0.083440
C46	C	1.171375	-0.450114	-0.144420
C47	C	1.171536	-0.764264	-0.144412
C48	C	1.369481	-0.077524	-0.104442
C49	C	1.453890	-0.064715	-0.087412
C50	C	1.211508	-0.062272	-0.342484
C51	C	1.228598	-0.042964	-0.426893
C52	C	1.171521	0.086148	-0.144411
C53	C	1.171572	0.168704	-0.144414
C54	C	1.041859	-0.253814	-0.753484
C55	C	1.057934	-0.235659	-0.832796
C56	C	1.155117	-0.125928	-0.813194
C57	C	1.139048	-0.144071	-0.733879
C58	C	1.082418	-0.208016	-0.704030
C59	C	1.179607	-0.098273	-0.684425
C60	C	1.163541	-0.116418	-0.605116
C61	C	1.106916	-0.180360	-0.575261
C62	C	1.066352	-0.226160	-0.624721
C63	C	1.236240	-0.034333	-0.714274
C64	C	1.276799	0.011465	-0.664820
C65	C	1.260730	-0.006676	-0.585511
C66	C	1.204105	-0.070618	-0.555656
C67	C	1.301293	0.039124	-0.536051
C68	C	1.285228	0.020980	-0.456742
C69	C	1.188039	-0.088763	-0.476347
C70	C	1.131497	-0.152654	0.052913
C71	C	1.114553	-0.171730	0.137352
H72	H	0.716105	0.006080	0.006640
H73	H	1.141907	-0.140817	-0.452047
Br74	Br	0.880720	-0.062201	-0.084116
Br75	Br	1.340277	0.083130	-0.389620
H76	H	0.900133	-0.217645	-0.290719
Br77	Br	0.416594	0.019102	0.024018
Br78	Br	1.249839	-0.623013	-0.302394
Br79	Br	0.603536	0.047543	0.061770
H80	H	1.096620	-0.553748	-0.256842
Br81	Br	1.002882	-0.297821	-0.899912
H82	H	1.036667	-0.681002	-0.135877
H83	H	0.756245	-0.239521	-0.319773
H84	H	1.020221	-0.278215	-0.600421
H85	H	1.246217	-0.660517	-0.031858
Br86	Br	1.347362	-0.510531	-0.155643
H87	H	1.322909	0.063527	-0.689134
H88	H	1.111265	-0.595430	-0.023378
Br89	Br	0.964995	-0.340589	-0.712969
Br90	Br	1.085116	-0.204993	-0.467625
Br91	Br	1.231972	-0.039153	-0.853709
Br92	Br	0.462859	-0.152865	-0.204552
H93	H	0.537725	-0.165879	-0.221884
Br94	Br	1.378155	0.125893	-0.576567
H95	H	0.805860	-0.049186	-0.066787
Br96	Br	0.611270	-0.244213	-0.325979
H97	H	1.249320	-0.019563	-0.778853
