data_functionalizedCrystal
_audit_creation_method	'MofGen! by Chris Wilmer'
_symmetry_space_group_name_H-M	'P1'
_symmetry_Int_Tables_number	1
_symmetry_cell_setting	triclinic
loop_
_symmetry_equiv_pos_as_xyz
  x,y,z
_cell_length_a	18.101398
_cell_length_b	19.121063
_cell_length_c	18.101390
_cell_angle_alpha	92.404924
_cell_angle_beta	89.975319
_cell_angle_gamma	92.464489
loop_
_atom_site_label
_atom_site_type_symbol
_atom_site_fract_x
_atom_site_fract_y
_atom_site_fract_z
Zn1	Zn	1.119561	-0.279674	-0.431399
Zn2	Zn	1.619561	0.220326	0.068601
Zn3	Zn	1.114180	-0.397138	-0.312833
Zn4	Zn	1.614180	0.102862	0.187167
Zn5	Zn	0.995718	-0.279696	-0.307561
Zn6	Zn	1.495718	0.220304	0.192439
Zn7	Zn	0.990397	-0.397078	-0.436619
Zn8	Zn	1.490397	0.102922	0.063381
O9	O	1.054964	-0.338397	-0.372103
O10	O	1.554964	0.161603	0.127897
O11	O	1.222480	-0.295271	-0.415693
O12	O	1.722480	0.204729	0.084307
O13	O	1.098441	-0.381594	-0.208503
O14	O	1.598441	0.118406	0.291497
O15	O	1.016625	-0.181409	-0.319598
O16	O	1.516625	0.318591	0.180402
O17	O	1.218526	-0.381572	-0.328583
O18	O	1.718526	0.118428	0.171417
O19	O	1.107612	-0.181393	-0.410581
O20	O	1.607612	0.318607	0.089419
O21	O	1.011407	-0.295310	-0.204629
O22	O	1.511407	0.204690	0.295371
O23	O	0.891380	-0.295252	-0.324660
O24	O	1.391380	0.204748	0.175340
O25	O	1.007556	-0.381470	-0.539558
O26	O	1.507556	0.118530	-0.039558
O27	O	0.887471	-0.381492	-0.419478
O28	O	1.387471	0.118508	0.080522
O29	O	1.102453	-0.295213	-0.535723
O30	O	1.602453	0.204787	-0.035723
O31	O	1.093281	-0.495414	-0.333645
O32	O	1.593281	0.004586	0.166355
O33	O	1.002339	-0.495370	-0.424590
O34	O	1.502339	0.004630	0.075410
C35	C	0.862555	-0.338368	-0.372063
C36	C	1.362555	0.161632	0.127937
C37	C	0.780241	-0.338373	-0.372065
C38	C	1.280241	0.161627	0.127935
C39	C	0.481148	-0.338417	-0.372129
C40	C	0.981148	0.161583	0.127871
C41	C	0.514920	-0.283886	-0.312739
C42	C	1.014920	0.216114	0.187261
C43	C	0.600532	-0.284032	-0.312502
C44	C	1.100532	0.215968	0.187498
C45	C	0.629531	-0.338394	-0.372097
C46	C	1.129531	0.161606	0.127903
C47	C	0.595090	-0.412381	-0.354095
C48	C	1.095090	0.087619	0.145905
C49	C	0.509458	-0.412078	-0.353686
C50	C	1.009458	0.087922	0.146314
C51	C	0.513608	-0.319604	-0.449683
C52	C	1.013608	0.180396	0.050317
C53	C	0.599333	-0.317957	-0.449182
C54	C	1.099333	0.182043	0.050818
C55	C	0.713391	-0.338386	-0.372080
C56	C	1.213391	0.161614	0.127920
C57	C	0.397288	-0.338430	-0.372144
C58	C	0.897288	0.161570	0.127856
C59	C	1.046669	-0.520876	-0.380272
C60	C	1.546669	-0.020876	0.119728
C61	C	1.043188	-0.598942	-0.383791
C62	C	1.543188	-0.098942	0.116209
C63	C	1.088938	-0.635616	-0.338133
C64	C	1.588938	-0.135616	0.161867
C65	C	1.085668	-0.708967	-0.341448
C66	C	1.585668	-0.208967	0.158552
C67	C	1.036644	-0.745642	-0.390416
C68	C	1.536644	-0.245642	0.109584
C69	C	0.990892	-0.708962	-0.436079
C70	C	1.490892	-0.208962	0.063921
C71	C	0.994166	-0.635612	-0.432768
C72	C	1.494166	-0.135612	0.067232
C73	C	1.024392	-0.967110	-0.402783
C74	C	1.524392	-0.467110	0.097217
C75	C	1.021120	-1.040464	-0.406089
C76	C	1.521120	-0.540464	0.093911
C77	C	1.115898	-1.040465	-0.311459
C78	C	1.615898	-0.540465	0.188541
C79	C	1.119164	-0.967114	-0.308149
C80	C	1.619164	-0.467114	0.191851
C81	C	1.073415	-0.930440	-0.353814
C82	C	1.573415	-0.430440	0.146186
C83	C	1.033299	-0.820618	-0.393803
C84	C	1.533299	-0.320618	0.106197
C85	C	1.076764	-0.855465	-0.350430
C86	C	1.576764	-0.355465	0.149570
C87	C	1.248125	-0.338426	-0.372144
C88	C	1.748125	0.161574	0.127856
C89	C	1.330438	-0.338438	-0.372161
C90	C	1.830438	0.161562	0.127839
C91	C	1.055011	-0.338333	-0.565262
C92	C	1.555011	0.161667	-0.065262
C93	C	1.055031	-0.338305	-0.647575
C94	C	1.555031	0.161695	-0.147575
C95	C	1.063313	-0.155205	-0.363919
C96	C	1.563313	0.344795	0.136081
C97	C	1.066870	-0.077139	-0.360432
C98	C	1.566870	0.422861	0.139568
C99	C	1.055073	-0.338261	-0.946665
C100	C	1.555073	0.161739	-0.446665
C101	C	1.114959	-0.284182	-0.912935
C102	C	1.614959	0.215818	-0.412935
C103	C	1.114789	-0.283981	-0.827308
C104	C	1.614789	0.216019	-0.327308
C105	C	1.055053	-0.338283	-0.798283
C106	C	1.555053	0.161717	-0.298283
C107	C	0.977940	-0.318168	-0.828446
C108	C	1.477940	0.181832	-0.328446
C109	C	0.978302	-0.317763	-0.914073
C110	C	1.478302	0.182237	-0.414073
C111	C	1.071607	-0.412595	-0.918417
C112	C	1.571607	0.087405	-0.418417
C113	C	1.073336	-0.412216	-0.832750
C114	C	1.573336	0.087784	-0.332750
C115	C	1.055037	-0.338297	-0.714424
C116	C	1.555037	0.161703	-0.214424
C117	C	1.055084	-0.338246	-1.030523
C118	C	1.555084	0.161754	-0.530523
C119	C	1.054963	-0.338410	-0.179693
C120	C	1.554963	0.161590	0.320307
C121	C	1.055095	-0.338239	-0.097372
C122	C	1.555095	0.161761	0.402628
H123	H	0.615775	-0.428611	-0.298129
H124	H	1.115775	0.071389	0.201871
H125	H	0.956912	-0.605752	-0.469948
H126	H	1.456912	-0.105752	0.030052
H127	H	0.619084	-0.354780	-0.495534
H128	H	1.119084	0.145220	0.004466
H129	H	0.491568	-0.359323	-0.493894
H130	H	0.991568	0.140677	0.006106
H131	H	0.932253	-0.356344	-0.809778
H132	H	1.432253	0.143656	-0.309778
H133	H	0.494417	-0.266592	-0.466691
H134	H	0.994417	0.233408	0.033309
H135	H	0.950978	-0.738828	-0.475953
H136	H	1.450978	-0.238828	0.024047
Cl137	Cl	0.907338	-0.375917	-0.948654
Cl138	Cl	1.407338	0.124083	-0.448654
H139	H	0.981207	-1.070323	-0.445978
H140	H	1.481207	-0.570323	0.054022
Cl141	Cl	0.486978	-0.198917	-0.329329
Cl142	Cl	0.986978	0.301083	0.170671
H143	H	0.963896	-0.263426	-0.931622
H144	H	1.463896	0.236574	-0.431622
H145	H	0.624037	-0.229168	-0.323405
H146	H	1.124037	0.270832	0.176595
Cl147	Cl	1.138395	-0.809359	-0.288875
Cl148	Cl	1.638395	-0.309359	0.211125
Cl149	Cl	0.480783	-0.302856	-0.224423
Cl150	Cl	0.980783	0.197144	0.275577
Cl151	Cl	0.966876	-0.921015	-0.460190
Cl152	Cl	1.466876	-0.421015	0.039810
H153	H	1.027952	-0.452890	-0.940473
H154	H	1.527952	0.047110	-0.440473
H155	H	0.620426	-0.296469	-0.254968
H156	H	1.120426	0.203531	0.245032
Cl157	Cl	1.098297	-0.198962	-0.791874
Cl158	Cl	1.598297	0.301038	-0.291874
Cl159	Cl	1.150567	-0.589518	-0.276565
Cl160	Cl	1.650567	-0.089518	0.223435
H161	H	0.488730	-0.428031	-0.297088
H162	H	0.988730	0.071969	0.202912
Cl163	Cl	0.971670	-0.866729	-0.455361
Cl164	Cl	1.471670	-0.366729	0.044639
H165	H	1.159083	-0.937255	-0.268275
H166	H	1.659083	-0.437255	0.231725
Cl167	Cl	0.955183	-0.235204	-0.791628
Cl168	Cl	1.455183	0.264796	-0.291628
H169	H	1.172074	-0.296579	-0.806871
H170	H	1.672074	0.203421	-0.306871
Cl171	Cl	1.156666	-0.440841	-0.953049
Cl172	Cl	1.656666	0.059159	-0.453049
H173	H	1.172441	-0.296624	-0.934101
H174	H	1.672441	0.203376	-0.434101
H175	H	1.122922	-0.738825	-0.304268
H176	H	1.622922	-0.238825	0.195732
H177	H	1.130068	-0.427384	-0.813126
H178	H	1.630068	0.072616	-0.313126
Cl179	Cl	0.474549	-0.476935	-0.417831
Cl180	Cl	0.974549	0.023065	0.082169
H181	H	1.032623	-0.454674	-0.813236
H182	H	1.532623	0.045326	-0.313236
H183	H	1.104431	-0.229422	-0.932012
H184	H	1.604431	0.270578	-0.432012
H185	H	0.622122	-0.263511	-0.462816
H186	H	1.122122	0.236489	0.037184
Cl187	Cl	0.623627	-0.476793	-0.419019
Cl188	Cl	1.123627	0.023207	0.080981
H189	H	1.153145	-1.070332	-0.274282
H190	H	1.653145	-0.570332	0.225718
