data_functionalizedCrystal
_audit_creation_method	'MofGen! by Chris Wilmer'
_symmetry_space_group_name_H-M	'P1'
_symmetry_Int_Tables_number	1
_symmetry_cell_setting	triclinic
loop_
_symmetry_equiv_pos_as_xyz
  x,y,z
_cell_length_a	12.784890
_cell_length_b	12.837942
_cell_length_c	16.176319
_cell_angle_alpha	89.999659
_cell_angle_beta	90.006060
_cell_angle_gamma	83.967749
loop_
_atom_site_label
_atom_site_type_symbol
_atom_site_fract_x
_atom_site_fract_y
_atom_site_fract_z
O1	O	1.410974	0.006419	0.068721
O2	O	1.910974	0.506419	0.568721
O3	O	1.105974	0.050414	0.068728
O4	O	1.605974	0.550414	0.568728
O5	O	1.251711	-0.121877	0.068720
O6	O	1.751711	0.378123	0.568720
O7	O	1.265237	0.178710	0.068730
O8	O	1.765237	0.678710	0.568730
O9	O	1.251687	-0.121866	-0.068773
O10	O	1.751687	0.378134	0.431227
O11	O	1.105951	0.050424	-0.068765
O12	O	1.605951	0.550424	0.431235
O13	O	1.410950	0.006430	-0.068772
O14	O	1.910950	0.506430	0.431228
Cu15	Cu	1.258448	0.028428	-0.081323
Cu16	Cu	1.758448	0.528428	0.418677
Cu17	Cu	1.258476	0.028416	0.081279
Cu18	Cu	1.758476	0.528416	0.581279
O19	O	1.265213	0.178720	-0.068764
O20	O	1.765213	0.678720	0.431236
C21	C	1.066653	0.053280	-0.000018
C22	C	1.566653	0.553280	0.499982
C23	C	0.949521	0.061794	-0.000015
C24	C	1.449521	0.561794	0.499985
C25	C	0.781351	0.168495	-0.000010
C26	C	1.281351	0.668495	0.499990
C27	C	0.891407	0.160502	-0.000011
C28	C	1.391407	0.660502	0.499989
C29	C	0.897572	-0.028928	-0.000017
C30	C	1.397572	0.471072	0.499983
C31	C	0.787516	-0.020935	-0.000016
C32	C	1.287516	0.479065	0.499984
C33	C	0.729410	0.077780	-0.000014
C34	C	1.229410	0.577780	0.499986
C35	C	0.619353	0.085771	-0.000020
C36	C	1.119353	0.585771	0.499980
C37	C	0.625519	-0.103657	-0.000020
C38	C	1.125519	0.396343	0.499980
C39	C	0.735575	-0.111650	-0.000020
C40	C	1.235575	0.388350	0.499980
C41	C	1.247130	-0.160080	-0.000026
C42	C	1.747130	0.339920	0.499974
C43	C	1.233502	-0.273929	-0.000025
C44	C	1.733502	0.226071	0.499975
C45	C	1.397334	-0.529655	-0.000011
C46	C	1.897334	-0.029655	0.499989
C47	C	1.384534	-0.636627	-0.000009
C48	C	1.884534	-0.136627	0.499991
C49	C	1.195104	-0.594847	-0.000014
C50	C	1.695104	-0.094847	0.499986
C51	C	1.207904	-0.487875	-0.000015
C52	C	1.707904	0.012125	0.499985
C53	C	1.309022	-0.455284	-0.000015
C54	C	1.809022	0.044716	0.499985
C55	C	1.321820	-0.348309	-0.000023
C56	C	1.821820	0.151691	0.499977
C57	C	1.132391	-0.306531	-0.000021
C58	C	1.632391	0.193469	0.499979
C59	C	1.119592	-0.413503	-0.000020
C60	C	1.619592	0.086497	0.499980
C61	C	1.450272	0.003563	-0.000025
C62	C	1.950272	0.503563	0.499975
C63	C	1.567404	-0.004950	-0.000022
C64	C	2.067404	0.495050	0.499978
C65	C	1.269795	0.216924	-0.000016
C66	C	1.769795	0.716924	0.499984
C67	C	1.283422	0.330772	-0.000012
C68	C	1.783422	0.830772	0.499988
N69	N	1.258436	0.028436	-0.195688
N70	N	1.758436	0.528436	0.304312
C71	C	1.323039	-0.047867	-0.761074
C72	C	1.823039	0.452133	-0.261074
C73	C	1.323036	-0.047859	-0.674527
C74	C	1.823036	0.452141	-0.174527
C75	C	1.258482	0.028410	-0.631263
C76	C	1.758482	0.528410	-0.131263
C77	C	1.193935	0.104684	-0.674551
C78	C	1.693935	0.604684	-0.174551
C79	C	1.193945	0.104680	-0.761097
C80	C	1.693945	0.604680	-0.261097
C81	C	1.193894	0.104702	-0.325523
C82	C	1.693894	0.604702	0.174477
C83	C	1.193886	0.104698	-0.238971
C84	C	1.693886	0.604698	0.261029
C85	C	1.322984	-0.047837	-0.238953
C86	C	1.822984	0.452163	0.261047
C87	C	1.322994	-0.047841	-0.325499
C88	C	1.822994	0.452159	0.174501
C89	C	1.258452	0.028435	-0.368779
C90	C	1.758452	0.528435	0.131221
C91	C	1.258459	0.028427	-0.462623
C92	C	1.758459	0.528427	0.037377
C93	C	1.258469	0.028415	-0.537421
C94	C	1.758469	0.528415	-0.037421
N95	N	1.258496	0.028399	0.195644
N96	N	1.758496	0.528399	0.695644
H97	H	0.944901	-0.109296	-0.000012
H98	H	1.444901	0.390704	0.499988
F99	F	1.038397	-0.227370	-0.000034
F100	F	1.538397	0.272630	0.499966
H101	H	0.933693	0.234372	-0.000009
H102	H	1.433693	0.734372	0.499991
F103	F	1.011980	-0.448201	-0.000013
F104	F	1.511980	0.051799	0.499987
H105	H	1.375556	-0.109950	-0.360722
H106	H	1.875556	0.390050	0.139278
F107	F	1.391680	-0.129016	-0.192885
F108	F	1.891680	0.370984	0.307115
F109	F	1.391743	-0.129050	-0.807111
F110	F	1.891743	0.370950	-0.307111
H111	H	0.734040	0.248872	-0.000019
H112	H	1.234040	0.748872	0.499981
H113	H	0.572044	0.166150	-0.000023
H114	H	1.072044	0.666150	0.499977
H115	H	1.375593	-0.109960	-0.639288
H116	H	1.875593	0.390040	-0.139288
H117	H	0.583217	-0.177525	0.000042
H118	H	1.083217	0.322475	0.500042
F119	F	1.125201	0.185877	-0.371578
F120	F	1.625201	0.685877	0.128422
F121	F	1.478528	-0.715777	-0.000003
F122	F	1.978528	-0.215777	0.499997
F123	F	1.125236	0.185861	-0.628506
F124	F	1.625236	0.685861	-0.128506
H125	H	0.782900	-0.192020	-0.000019
H126	H	1.282900	0.307980	0.499981
H127	H	1.404156	-0.321777	-0.000026
H128	H	1.904156	0.178223	0.499974
F129	F	1.125177	0.185880	-0.192928
F130	F	1.625177	0.685880	0.307072
F131	F	1.504949	-0.494967	-0.000028
F132	F	2.004949	0.005033	0.499972
H133	H	1.112778	-0.621402	-0.000005
H134	H	1.612778	-0.121402	0.499995
H135	H	1.141389	0.166784	-0.796336
H136	H	1.641389	0.666784	-0.296336
