data_functionalizedCrystal
_audit_creation_method	'MofGen! by Chris Wilmer'
_symmetry_space_group_name_H-M	'P1'
_symmetry_Int_Tables_number	1
_symmetry_cell_setting	triclinic
loop_
_symmetry_equiv_pos_as_xyz
  x,y,z
_cell_length_a	11.792254
_cell_length_b	10.868271
_cell_length_c	11.792241
_cell_angle_alpha	90.001559
_cell_angle_beta	84.196007
_cell_angle_gamma	90.004308
loop_
_atom_site_label
_atom_site_type_symbol
_atom_site_fract_x
_atom_site_fract_y
_atom_site_fract_z
O1	O	1.506901	0.102322	0.155631
O2	O	1.756901	0.352322	0.405631
O3	O	2.006901	0.602322	0.655631
O4	O	2.256901	0.852322	0.905631
O5	O	1.176561	0.102324	0.171649
O6	O	1.426561	0.352324	0.421649
O7	O	1.676561	0.602324	0.671649
O8	O	1.926561	0.852324	0.921649
O9	O	1.349747	0.102314	-0.001530
O10	O	1.599747	0.352314	0.248470
O11	O	1.849747	0.602314	0.498470
O12	O	2.099747	0.852314	0.748470
O13	O	1.333715	0.102332	0.328810
O14	O	1.583715	0.352332	0.578810
O15	O	1.833715	0.602332	0.828810
O16	O	2.083715	0.852332	1.078810
O17	O	1.349732	-0.102330	-0.001525
O18	O	1.599732	0.147670	0.248475
O19	O	1.849732	0.397670	0.498475
O20	O	2.099732	0.647670	0.748475
O21	O	1.176546	-0.102320	0.171654
O22	O	1.426546	0.147680	0.421654
O23	O	1.676546	0.397680	0.671654
O24	O	1.926546	0.647680	0.921654
O25	O	1.506885	-0.102323	0.155636
O26	O	1.756885	0.147677	0.405636
O27	O	2.006885	0.397677	0.655636
O28	O	2.256885	0.647677	0.905636
Zn29	Zn	1.341713	-0.134813	0.163646
Zn30	Zn	1.591713	0.115187	0.413646
Zn31	Zn	1.841713	0.365187	0.663646
Zn32	Zn	2.091713	0.615187	0.913646
Zn33	Zn	1.341733	0.134815	0.163639
Zn34	Zn	1.591733	0.384815	0.413639
Zn35	Zn	1.841733	0.634815	0.663639
Zn36	Zn	2.091733	0.884815	0.913639
O37	O	1.333699	-0.102313	0.328815
O38	O	1.583699	0.147687	0.578815
O39	O	1.833699	0.397687	0.828815
O40	O	2.083699	0.647687	1.078815
C41	C	1.134263	0.000002	0.170642
C42	C	1.384263	0.250002	0.420642
C43	C	1.634263	0.500002	0.670642
C44	C	1.884263	0.750002	0.920642
C45	C	1.008250	0.000003	0.167622
C46	C	1.258250	0.250003	0.417622
C47	C	1.508250	0.500003	0.667622
C48	C	1.758250	0.750003	0.917622
N49	N	1.341707	-0.318827	0.163651
N50	N	1.591707	-0.068827	0.413651
N51	N	1.841707	0.181173	0.663651
N52	N	2.091707	0.431173	0.913651
C53	C	1.341716	-0.430165	0.163651
C54	C	1.591716	-0.180165	0.413651
C55	C	1.841716	0.069835	0.663651
C56	C	2.091716	0.319835	0.913651
C57	C	1.341730	-0.569843	0.163640
C58	C	1.591730	-0.319843	0.413640
C59	C	1.841730	-0.069843	0.663640
C60	C	2.091730	0.180157	0.913640
C61	C	0.905913	0.000008	0.165168
C62	C	1.155913	0.250008	0.415168
C63	C	1.405913	0.500008	0.665168
C64	C	1.655913	0.750008	0.915168
C65	C	0.777527	0.000009	0.162100
C66	C	1.027527	0.250009	0.412100
C67	C	1.277527	0.500009	0.662100
C68	C	1.527527	0.750009	0.912100
C69	C	1.549183	0.000002	0.156643
C70	C	1.799183	0.250002	0.406643
C71	C	2.049183	0.500002	0.656643
C72	C	2.299183	0.750002	0.906643
C73	C	1.675196	0.000009	0.159663
C74	C	1.925196	0.250009	0.409663
C75	C	2.175196	0.500009	0.659663
C76	C	2.425196	0.750009	0.909663
C77	C	1.348732	-0.000008	-0.043819
C78	C	1.598732	0.249992	0.206181
C79	C	1.848732	0.499992	0.456181
C80	C	2.098732	0.749992	0.706181
C81	C	1.345718	-0.000006	-0.169832
C82	C	1.595718	0.249994	0.080168
C83	C	1.845718	0.499994	0.330168
C84	C	2.095718	0.749994	0.580168
N85	N	1.341748	0.318829	0.163626
N86	N	1.591748	0.568829	0.413626
N87	N	1.841748	0.818829	0.663626
N88	N	2.091748	1.068829	0.913626
C89	C	1.340175	0.000014	-0.400545
C90	C	1.590175	0.250014	-0.150545
C91	C	1.840175	0.500014	0.099455
C92	C	2.090175	0.750014	0.349455
C93	C	1.343255	0.000003	-0.272160
C94	C	1.593255	0.250003	-0.022160
C95	C	1.843255	0.500003	0.227840
C96	C	2.093255	0.750003	0.477840
C97	C	1.334714	0.000012	0.371104
C98	C	1.584714	0.250012	0.621104
C99	C	1.834714	0.500012	0.871104
C100	C	2.084714	0.750012	1.121104
C101	C	1.337728	0.000019	0.497118
C102	C	1.587728	0.250019	0.747118
C103	C	1.837728	0.500019	0.997118
C104	C	2.087728	0.750019	1.247118
