data_functionalizedCrystal
_audit_creation_method	'MofGen! by Chris Wilmer'
_symmetry_space_group_name_H-M	'P1'
_symmetry_Int_Tables_number	1
_symmetry_cell_setting	triclinic
loop_
_symmetry_equiv_pos_as_xyz
  x,y,z
_cell_length_a	13.339070
_cell_length_b	13.339070
_cell_length_c	15.021413
_cell_angle_alpha	90.007525
_cell_angle_beta	90.009942
_cell_angle_gamma	64.370706
loop_
_atom_site_label
_atom_site_type_symbol
_atom_site_fract_x
_atom_site_fract_y
_atom_site_fract_z
O1	O	1.496809	-0.550514	0.074055
O2	O	1.182000	-0.478254	0.074051
O3	O	1.303274	-0.356979	0.074050
O4	O	1.375534	-0.671788	0.074056
O5	O	1.303254	-0.356995	-0.074014
O6	O	1.181980	-0.478270	-0.074013
O7	O	1.496789	-0.550530	-0.074009
Zn8	Zn	1.339381	-0.514403	-0.097519
Zn9	Zn	1.339408	-0.514381	0.097562
O10	O	1.375514	-0.671805	-0.074008
C11	C	1.140874	-0.466056	0.000019
C12	C	1.018360	-0.429672	0.000017
C13	C	1.291058	-0.315872	0.000019
C14	C	1.254675	-0.193358	0.000022
C15	C	0.732973	-0.712571	0.000037
C16	C	0.848081	-0.746759	0.000041
C17	C	0.890657	-0.667490	0.000035
C18	C	0.818112	-0.554028	0.000025
C19	C	0.702992	-0.519837	0.000027
C20	C	0.860676	-0.474756	0.000025
C21	C	0.788132	-0.361294	0.000016
C22	C	0.673023	-0.327109	0.000018
C23	C	0.630448	-0.406377	0.000024
C24	C	0.975796	-0.508947	0.000023
C25	C	0.945816	-0.316213	0.000013
C26	C	0.830707	-0.282025	0.000009
C27	C	1.537914	-0.562728	0.000026
C28	C	1.660428	-0.599111	0.000033
C29	C	1.387730	-0.712912	0.000025
C30	C	1.424114	-0.835426	0.000028
C31	C	1.537574	0.092030	0.000025
C32	C	1.571761	-0.023079	0.000018
C33	C	1.492492	-0.065654	0.000019
C34	C	1.379030	0.006890	0.000028
C35	C	1.344839	0.122010	0.000029
C36	C	1.299758	-0.035674	0.000022
C37	C	1.186296	0.036871	0.000031
C38	C	1.152111	0.151979	0.000033
C39	C	1.231380	0.194555	0.000031
C40	C	1.333949	-0.150794	0.000021
C41	C	1.141215	-0.120813	0.000025
C42	C	1.107028	-0.005705	0.000033
N43	N	1.339371	-0.514419	-0.230657
C44	C	1.283271	-0.570457	-0.470340
C45	C	1.388482	-0.619622	-0.529672
C46	C	1.339391	-0.514400	-0.412264
C47	C	1.234215	-0.465266	-0.529673
C48	C	1.339403	-0.514381	-0.587688
C49	C	1.444666	-0.563628	-0.470290
C50	C	1.290321	-0.409211	-0.470285
C51	C	1.395592	-0.458355	-0.529591
C52	C	1.339384	-0.514413	-0.311206
C53	C	1.339421	-0.514370	-0.688743
N54	N	1.339424	-0.514358	0.230699
H55	H	1.034852	-0.601328	0.000027
H56	H	1.602102	0.126707	0.000017
H57	H	1.664142	-0.082137	0.000009
H58	H	1.533663	-0.605279	-0.444315
H59	H	1.014645	0.053377	0.000039
Br60	Br	1.184985	0.350780	0.000163
H61	H	1.059723	0.211043	0.000033
Br62	Br	1.487928	-0.249233	0.000007
H63	H	1.429995	-0.708572	-0.555758
H64	H	1.076667	-0.155477	0.000022
Br65	Br	0.675186	-0.820136	0.000064
H66	H	1.235894	-0.617934	-0.444324
H67	H	1.443126	-0.410957	-0.555444
H68	H	0.613959	-0.234720	0.000019
Br69	Br	0.474223	-0.359983	0.000013
Br70	Br	1.003586	-0.208626	0.000016
H71	H	0.984385	-0.695333	0.000040
Br72	Br	1.221091	-0.260983	-0.426770
H73	H	0.907140	-0.839139	0.000056
Br74	Br	1.085959	-0.396020	-0.573154
H75	H	0.771625	-0.189642	0.000008
H76	H	1.520335	-0.159382	0.000012
