data_functionalizedCrystal
_audit_creation_method	'MofGen! by Chris Wilmer'
_symmetry_space_group_name_H-M	'P1'
_symmetry_Int_Tables_number	1
_symmetry_cell_setting	triclinic
loop_
_symmetry_equiv_pos_as_xyz
  x,y,z
_cell_length_a	17.699083
_cell_length_b	17.699083
_cell_length_c	16.776229
_cell_angle_alpha	90.007545
_cell_angle_beta	90.000683
_cell_angle_gamma	83.283015
loop_
_atom_site_label
_atom_site_type_symbol
_atom_site_fract_x
_atom_site_fract_y
_atom_site_fract_z
O1	O	-1.004078	-0.095713	-0.066170
O2	O	-0.504078	0.404287	0.433830
O3	O	-0.783700	-0.108165	-0.066198
O4	O	-0.283700	0.391835	0.433802
O5	O	-0.900116	0.008250	-0.066176
O6	O	-0.400116	0.508250	0.433824
O7	O	-0.887663	-0.212128	-0.066192
O8	O	-0.387663	0.287872	0.433808
O9	O	-0.900100	0.008257	0.066400
O10	O	-0.400100	0.508257	0.566400
O11	O	-0.783685	-0.108158	0.066378
O12	O	-0.283685	0.391842	0.566378
O13	O	-1.004063	-0.095706	0.066406
O14	O	-0.504063	0.404294	0.566406
Zn15	Zn	-0.893871	-0.101931	0.087442
Zn16	Zn	-0.393871	0.398069	0.587442
Zn17	Zn	-0.893892	-0.101940	-0.087233
Zn18	Zn	-0.393892	0.398060	0.412767
O19	O	-0.887648	-0.212121	0.066385
O20	O	-0.387648	0.287879	0.566385
C21	C	-0.755495	-0.107716	0.000087
C22	C	-0.255495	0.392284	0.500087
C23	C	-0.671477	-0.106377	0.000076
C24	C	-0.171477	0.393623	0.500076
C25	C	-0.622856	-0.174710	0.000071
C26	C	-0.122856	0.325290	0.500071
C27	C	-0.543913	-0.173448	0.000081
C28	C	-0.043913	0.326552	0.500081
C29	C	-0.513592	-0.103852	0.000090
C30	C	-0.013592	0.396148	0.500090
C31	C	-0.562219	-0.035513	0.000097
C32	C	-0.062219	0.464487	0.500097
C33	C	-0.641161	-0.036776	0.000093
C34	C	-0.141161	0.463224	0.500093
C35	C	-0.243856	-0.030418	0.000115
C36	C	0.256144	0.469582	0.500115
C37	C	-0.164908	-0.029160	0.000117
C38	C	0.335092	0.470840	0.500117
C39	C	-0.146608	-0.167090	0.000103
C40	C	0.353392	0.332910	0.500103
C41	C	-0.225550	-0.168353	0.000098
C42	C	0.274450	0.331647	0.500098
C43	C	-0.274170	-0.100015	0.000110
C44	C	0.225830	0.399985	0.500110
C45	C	-0.359769	-0.101384	0.000101
C46	C	0.140231	0.398616	0.500101
C47	C	-0.427995	-0.102481	0.000093
C48	C	0.072005	0.397519	0.500093
N49	N	-0.893863	-0.101924	0.206653
N50	N	-0.393863	0.398076	0.706653
C51	C	-0.899662	0.036451	0.000112
C52	C	-0.399662	0.536451	0.500112
C53	C	-0.898323	0.120469	0.000112
C54	C	-0.398323	0.620469	0.500112
C55	C	-0.032268	-0.096156	0.000118
C56	C	0.467732	0.403844	0.500118
C57	C	-0.116286	-0.097494	0.000117
C58	C	0.383714	0.402506	0.500117
C59	C	-0.888102	-0.240322	0.000095
C60	C	-0.388102	0.259678	0.500095
C61	C	-0.889440	-0.324340	0.000089
C62	C	-0.389440	0.175660	0.500089
C63	C	-0.966656	0.169090	0.000122
C64	C	-0.466656	0.669090	0.500122
C65	C	-0.965394	0.248033	0.000115
C66	C	-0.465394	0.748033	0.500115
C67	C	-0.895798	0.278354	0.000103
C68	C	-0.395798	0.778354	0.500103
C69	C	-0.827459	0.229727	0.000091
C70	C	-0.327459	0.729727	0.500091
C71	C	-0.828722	0.150785	0.000093
C72	C	-0.328722	0.650785	0.500093
C73	C	-0.822364	0.548090	0.000084
C74	C	-0.322364	1.048090	0.500084
C75	C	-0.821106	0.627038	0.000085
C76	C	-0.321106	1.127038	0.500085
C77	C	-0.959036	0.645338	0.000106
C78	C	-0.459036	1.145338	0.500106
C79	C	-0.960299	0.566396	0.000108
C80	C	-0.460299	1.066396	0.500108
C81	C	-0.891961	0.517776	0.000091
C82	C	-0.391961	1.017776	0.500091
C83	C	-0.893330	0.432177	0.000098
C84	C	-0.393330	0.932177	0.500098
C85	C	-0.894427	0.363951	0.000103
C86	C	-0.394427	0.863951	0.500103
N87	N	-0.893906	-0.101941	-0.206445
N88	N	-0.393906	0.398059	0.293555
C89	C	-0.945428	-0.050396	0.248380
C90	C	-0.445428	0.449604	0.748380
C91	C	-0.945432	-0.050396	0.331832
C92	C	-0.445432	0.449604	0.831832
C93	C	-0.893875	-0.101927	0.373556
C94	C	-0.393875	0.398073	0.873556
C95	C	-0.842305	-0.153457	0.331823
C96	C	-0.342305	0.346543	0.831823
C97	C	-0.842297	-0.153454	0.248373
C98	C	-0.342297	0.346546	0.748373
C99	C	-0.842332	-0.153472	0.668370
C100	C	-0.342332	0.346528	1.168370
C101	C	-0.842345	-0.153473	0.751827
C102	C	-0.342345	0.346527	1.251827
C103	C	-0.945466	-0.050414	0.751830
C104	C	-0.445466	0.449586	1.251830
C105	C	-0.945459	-0.050411	0.668379
C106	C	-0.445459	0.449589	1.168379
C107	C	-0.893887	-0.101938	0.626654
C108	C	-0.393887	0.398062	1.126654
C109	C	-0.893882	-0.101937	0.536165
C110	C	-0.393882	0.398063	1.036165
C111	C	-0.893882	-0.101932	0.464043
C112	C	-0.393882	0.398068	0.964043
H113	H	-0.140225	0.027517	0.000125
H114	H	0.359775	0.527517	0.500125
Cl115	Cl	-0.777503	-0.218250	0.615921
Cl116	Cl	-0.277503	0.281750	1.115921
H117	H	-0.770792	0.254420	0.000077
H118	H	-0.270792	0.754420	0.500077
Cl119	Cl	-0.482792	-0.259357	0.000070
Cl120	Cl	0.017208	0.240643	0.500070
Cl121	Cl	-1.010250	0.014386	0.195936
Cl122	Cl	-0.510250	0.514386	0.695936
H123	H	-0.283434	0.025228	0.000125
H124	H	0.216566	0.525228	0.500125
Cl125	Cl	-0.742813	0.089661	0.000077
Cl126	Cl	-0.242813	0.589661	0.500077
H127	H	-0.680748	0.018868	0.000097
H128	H	-0.180748	0.518868	0.500097
H129	H	-1.016971	0.541714	0.000121
H130	H	-0.516971	1.041714	0.500121
Cl131	Cl	-1.044948	0.706465	0.000124
Cl132	Cl	-0.544948	1.206465	0.500124
H133	H	-0.987444	-0.008452	0.634410
H134	H	-0.487444	0.491548	1.134410
H135	H	-0.766718	0.508512	0.000071
H136	H	-0.266718	1.008512	0.500071
H137	H	-0.647537	-0.231384	0.000063
H138	H	-0.147537	0.268616	0.500063
Cl139	Cl	-0.263663	-0.255849	0.000083
Cl140	Cl	0.236337	0.244151	0.500083
H141	H	-0.764429	0.651721	0.000077
H142	H	-0.264429	1.151721	0.500077
Cl143	Cl	-1.010256	0.014384	0.384290
Cl144	Cl	-0.510256	0.514384	0.884290
Cl145	Cl	-1.010299	0.014367	0.804289
Cl146	Cl	-0.510299	0.514367	1.304289
H147	H	-0.107012	-0.222734	0.000097
H148	H	0.392988	0.277266	0.500097
Cl149	Cl	-0.777524	-0.218259	0.804279
Cl150	Cl	-0.277524	0.281741	1.304279
H151	H	-0.800322	-0.195412	0.365800
H152	H	-0.300322	0.304588	0.865800
H153	H	-0.800308	-0.195412	0.214399
H154	H	-0.300308	0.304588	0.714399
Cl155	Cl	-0.524102	0.051980	0.000114
Cl156	Cl	-0.024102	0.551980	0.500114
H157	H	-1.021038	0.287618	0.000125
H158	H	-0.521038	0.787618	0.500125
Cl159	Cl	-1.054154	0.130980	0.000144
Cl160	Cl	-0.554154	0.630980	0.500144
