data_functionalizedCrystal
_audit_creation_method	'MofGen! by Chris Wilmer'
_symmetry_space_group_name_H-M	'P1'
_symmetry_Int_Tables_number	1
_symmetry_cell_setting	triclinic
loop_
_symmetry_equiv_pos_as_xyz
  x,y,z
_cell_length_a	14.044220
_cell_length_b	14.044190
_cell_length_c	13.101039
_cell_angle_alpha	93.663707
_cell_angle_beta	93.659868
_cell_angle_gamma	86.809672
loop_
_atom_site_label
_atom_site_type_symbol
_atom_site_fract_x
_atom_site_fract_y
_atom_site_fract_z
O1	O	-1.281975	0.225348	-0.085126
O2	O	-1.005305	0.217041	-0.085151
O3	O	-1.139483	0.082859	-0.085118
O4	O	-1.147797	0.359530	-0.085158
O5	O	-1.129857	0.092504	0.085309
O6	O	-0.995679	0.226686	0.085277
O7	O	-1.272349	0.234993	0.085302
Zn8	Zn	-1.132486	0.232371	0.112348
Zn9	Zn	-1.145168	0.219663	-0.112197
O10	O	-1.138172	0.369174	0.085270
C11	C	-0.964870	0.218228	0.000060
C12	C	-0.858728	0.207382	0.000051
C13	C	-1.131033	0.052060	0.000098
C14	C	-1.120185	-0.054083	0.000106
C15	C	-1.312784	0.233806	0.000089
C16	C	-1.418927	0.244651	0.000091
C17	C	-0.664388	0.187557	0.000075
C18	C	-0.613261	0.264472	0.000068
C19	C	-0.505123	0.253441	0.000081
C20	C	-0.772535	0.198587	0.000062
C21	C	-1.177288	-0.299543	0.000071
C22	C	-1.100371	-0.248418	0.000071
C23	C	-1.111398	-0.140280	0.000091
C24	C	-1.166262	-0.407691	0.000052
C25	C	-1.146621	0.399974	0.000051
C26	C	-1.157470	0.506116	0.000036
N27	N	-1.123838	0.241043	0.265595
N28	N	-1.153824	0.210984	-0.265444
C29	C	-1.112072	0.252851	0.474635
C30	C	-1.165586	0.199179	0.525523
C31	C	-1.159040	0.205749	0.641840
C32	C	-1.118618	0.246282	0.358307
H33	H	-0.626948	0.113431	0.000091
O34	O	-1.265752	-0.254933	-0.000088
C35	C	-1.320640	-0.286650	-0.088336
H36	H	-1.271043	-0.315275	-0.150044
H37	H	-1.367925	-0.224482	-0.117943
H38	H	-1.367336	-0.345836	-0.068381
H39	H	-0.650703	0.338605	0.000052
O40	O	-1.225878	0.138245	0.473284
C41	C	-1.172942	0.071629	0.411400
H42	H	-1.102497	0.102685	0.395348
H43	H	-1.215641	0.055383	0.335945
H44	H	-1.157883	0.002951	0.452863
H45	H	-1.026240	-0.285862	0.000059
O46	O	-1.051638	0.313540	0.527024
C47	C	-1.058469	0.306661	0.633179
H48	H	-1.130492	0.278109	0.647699
H49	H	-1.051832	0.380343	0.674036
H50	H	-0.998609	0.255970	0.663640
