data_functionalizedCrystal
_audit_creation_method	'MofGen! by Chris Wilmer'
_symmetry_space_group_name_H-M	'P1'
_symmetry_Int_Tables_number	1
_symmetry_cell_setting	triclinic
loop_
_symmetry_equiv_pos_as_xyz
  x,y,z
_cell_length_a	15.298206
_cell_length_b	15.297327
_cell_length_c	15.296720
_cell_angle_alpha	72.680778
_cell_angle_beta	69.221745
_cell_angle_gamma	88.422996
loop_
_atom_site_label
_atom_site_type_symbol
_atom_site_fract_x
_atom_site_fract_y
_atom_site_fract_z
Zn1	Zn	1.197171	-0.637538	0.412757
Zn2	Zn	1.697171	-0.137538	0.912757
Zn3	Zn	1.197068	-0.766145	0.284166
Zn4	Zn	1.697068	-0.266145	0.784166
Zn5	Zn	1.077888	-0.593099	0.274918
Zn6	Zn	1.577888	-0.093099	0.774918
Zn7	Zn	1.014713	-0.766131	0.466583
Zn8	Zn	1.514713	-0.266131	0.966583
O9	O	1.121710	-0.690728	0.359606
O10	O	1.621710	-0.190728	0.859606
O11	O	1.323393	-0.673202	0.377043
O12	O	1.823393	-0.173202	0.877043
O13	O	1.207655	-0.724598	0.148911
O14	O	1.707655	-0.224598	0.648911
O15	O	1.120193	-0.472757	0.266805
O16	O	1.620193	0.027243	0.766805
O17	O	1.323318	-0.767689	0.282568
O18	O	1.823318	-0.267689	0.782568
O19	O	1.207829	-0.505406	0.368075
O20	O	1.707829	-0.005406	0.868075
O21	O	1.120094	-0.597462	0.142116
O22	O	1.620094	-0.097462	0.642116
O23	O	0.943272	-0.597448	0.318998
O24	O	1.443272	-0.097448	0.818998
O25	O	1.012521	-0.767665	0.593471
O26	O	1.512521	-0.267665	1.093471
O27	O	0.896858	-0.724574	0.459814
O28	O	1.396858	-0.224574	0.959814
O29	O	1.146571	-0.673188	0.553925
O30	O	1.646571	-0.173188	1.053925
O31	O	1.146397	-0.892380	0.334761
O32	O	1.646397	-0.392380	0.834761
O33	O	1.012421	-0.892369	0.468782
O34	O	1.512421	-0.392369	0.968782
C35	C	0.887333	-0.656188	0.394244
C36	C	1.387333	-0.156188	0.894244
C37	C	0.787056	-0.641436	0.409090
C38	C	1.287056	-0.141436	0.909090
C39	C	0.739953	-0.585415	0.465371
C40	C	1.239953	-0.085415	0.965371
C41	C	0.645740	-0.571547	0.479320
C42	C	1.145740	-0.071547	0.979320
C43	C	0.598618	-0.613704	0.436995
C44	C	1.098618	-0.113704	0.936995
C45	C	0.645718	-0.669732	0.380718
C46	C	1.145718	-0.169732	0.880718
C47	C	0.739943	-0.683596	0.366762
C48	C	1.239943	-0.183596	0.866762
C49	C	0.598608	-0.711885	0.338386
C50	C	1.098608	-0.211885	0.838386
C51	C	0.645708	-0.767913	0.282109
C52	C	1.145708	-0.267913	0.782109
C53	C	0.739924	-0.781775	0.268156
C54	C	1.239924	-0.281775	0.768156
C55	C	0.787046	-0.739617	0.310480
C56	C	1.287046	-0.239617	0.810480
C57	C	0.504383	-0.698021	0.352342
C58	C	1.004383	-0.198021	0.852342
C59	C	0.504373	-0.796202	0.253733
C60	C	1.004373	-0.296202	0.753733
C61	C	0.598586	-0.810070	0.239784
C62	C	1.098586	-0.310070	0.739784
C63	C	1.072563	-0.925113	0.408633
C64	C	1.572563	-0.425113	0.908633
C65	C	1.051614	-1.025400	0.429627
C66	C	1.551614	-0.525400	0.929627
C67	C	1.271744	-1.308042	0.209831
C68	C	1.771744	-0.808042	0.709831
C69	C	1.291427	-1.213816	0.190101
C70	C	1.791427	-0.713816	0.690101
C71	C	1.231476	-1.166708	0.249981
C72	C	1.731476	-0.666708	0.749981
C73	C	1.151837	-1.213834	0.329594
C74	C	1.651837	-0.713834	0.829594
C75	C	1.132148	-1.308067	0.349321
C76	C	1.632148	-0.808067	0.849321
C77	C	1.091880	-1.166733	0.389471
C78	C	1.591880	-0.666733	0.889471
C79	C	1.012241	-1.213859	0.469083
C80	C	1.512241	-0.713859	0.969083
C81	C	0.992556	-1.308084	0.488807
C82	C	1.492556	-0.808084	0.988807
C83	C	1.052508	-1.355192	0.428927
C84	C	1.552508	-0.855192	0.928927
C85	C	1.111569	-1.072500	0.369744
C86	C	1.611569	-0.572500	0.869744
C87	C	0.971973	-1.072525	0.509234
C88	C	1.471973	-0.572525	1.009234
C89	C	0.952290	-1.166751	0.528963
C90	C	1.452290	-0.666751	1.028963
C91	C	1.357002	-0.725404	0.324833
C92	C	1.857002	-0.225404	0.824833
C93	C	1.457270	-0.740181	0.310014
C94	C	1.957270	-0.240181	0.810014
C95	C	1.072511	-0.725382	0.609422
C96	C	1.572511	-0.225382	1.109422
C97	C	1.051545	-0.740150	0.715878
C98	C	1.551545	-0.240150	1.215878
C99	C	1.171069	-0.455435	0.310404
C100	C	1.671069	0.044565	0.810404
C101	C	1.192104	-0.355167	0.289438
C102	C	1.692104	0.144833	0.789438
C103	C	1.170784	-0.656151	0.110740
C104	C	1.670784	-0.156151	0.610740
C105	C	1.191977	-0.641156	0.004205
C106	C	1.691977	-0.141156	0.504205
C107	C	1.271623	-0.585029	0.933605
C108	C	1.771623	-0.085029	1.433605
C109	C	1.291327	-0.571157	0.833583
C110	C	1.791327	-0.071157	1.333583
C111	C	1.231383	-0.613404	0.804151
C112	C	1.731383	-0.113404	1.304151
C113	C	1.151732	-0.669526	0.874752
C114	C	1.651732	-0.169526	1.374752
C115	C	1.132030	-0.683405	0.974784
C116	C	1.632030	-0.183405	1.474784
C117	C	1.091790	-0.711780	0.845331
C118	C	1.591790	-0.211780	1.345331
C119	C	1.012139	-0.767902	0.915932
C120	C	1.512139	-0.267902	1.415932
C121	C	0.992440	-0.781778	1.015954
C122	C	1.492440	-0.281778	1.515954
C123	C	1.052384	-0.739532	1.045385
C124	C	1.552384	-0.239532	1.545385
C125	C	1.111492	-0.697900	0.745299
C126	C	1.611492	-0.197900	1.245299
C127	C	0.971899	-0.796276	0.786479
C128	C	1.471899	-0.296276	1.286479
C129	C	0.952195	-0.810148	0.886501
C130	C	1.452195	-0.310148	1.386501
H131	H	0.521906	-0.602406	0.448352
H132	H	1.021906	-0.102406	0.948352
O133	O	0.907305	-1.021730	0.573831
O134	O	1.407305	-0.521730	1.073831
H135	H	0.934381	-0.948293	0.546747
H136	H	1.434381	-0.448293	1.046747
H137	H	1.176344	-0.652204	0.687825
H138	H	1.676344	-0.152204	1.187825
H139	H	1.356267	-1.175449	0.125281
H140	H	1.856267	-0.675449	0.625281
H141	H	1.247431	-0.602105	0.722708
H142	H	1.747431	-0.102105	1.222708
H143	H	1.176411	-1.034138	0.304922
H144	H	1.676411	-0.534138	0.804922
O145	O	1.377230	-0.510632	0.757436
O146	O	1.877230	-0.010632	1.257436
H147	H	1.415600	-0.483582	0.794703
H148	H	1.915600	0.016418	1.294703
H149	H	0.927589	-0.827485	1.073436
H150	H	1.427589	-0.327485	1.573436
O151	O	1.336254	-0.539441	0.965344
O152	O	1.836254	-0.039441	1.465344
H153	H	1.309162	-0.558509	1.046759
H154	H	1.809162	-0.058509	1.546759
H155	H	1.247506	-1.089985	0.233911
H156	H	1.747506	-0.589985	0.733911
H157	H	0.778274	-0.827387	0.222322
H158	H	1.278274	-0.327387	0.722322
O159	O	1.031127	-0.754496	1.153271
O160	O	1.531127	-0.254496	1.653271
H161	H	1.086192	-0.715689	1.161870
H162	H	1.586192	-0.215689	1.661870
H163	H	0.887342	-0.855843	0.943997
H164	H	1.387342	-0.355843	1.443997
H165	H	0.778331	-0.551091	0.499820
H166	H	1.278331	-0.051091	0.999820
O167	O	0.453591	-0.637598	0.413042
O168	O	0.953591	-0.137598	0.913042
H169	H	0.428723	-0.579377	0.367000
H170	H	0.928723	-0.079377	0.867000
O171	O	1.336418	-1.358854	0.145272
O172	O	1.836418	-0.858854	0.645272
H173	H	1.309355	-1.432296	0.172376
H174	H	1.809355	-0.932296	0.672376
O175	O	0.907232	-0.841843	0.754752
O176	O	1.407232	-0.341843	1.254752
H177	H	0.934306	-0.822754	0.673336
H178	H	1.434306	-0.322754	1.173336
H179	H	0.607397	-0.525930	0.525142
H180	H	1.107397	-0.025930	1.025142
H181	H	1.036488	-1.431919	0.444989
H182	H	1.536488	-0.931919	0.944989
O183	O	0.906659	-1.358916	0.574668
O184	O	1.406659	-0.858916	1.074668
H185	H	0.868282	-1.310334	0.612999
H186	H	1.368282	-0.810334	1.112999
O187	O	0.888673	-0.754559	0.295411
O188	O	1.388673	-0.254559	0.795411
H189	H	0.913524	-0.715824	0.334290
H190	H	1.413524	-0.215824	0.834290
H191	H	0.466006	-0.830531	0.219270
H192	H	0.966006	-0.330531	0.719270
O193	O	0.649394	-0.870488	0.179074
O194	O	1.149394	-0.370488	0.679074
H195	H	0.722828	-0.873035	0.176476
H196	H	1.222828	-0.373035	0.676476
O197	O	0.866387	-1.217585	0.614815
O198	O	1.366387	-0.717585	1.114815
H199	H	0.888161	-1.273179	0.666587
H200	H	1.388161	-0.773179	1.166587
