data_functionalizedCrystal
_audit_creation_method	'MofGen! by Chris Wilmer'
_symmetry_space_group_name_H-M	'P1'
_symmetry_Int_Tables_number	1
_symmetry_cell_setting	triclinic
loop_
_symmetry_equiv_pos_as_xyz
  x,y,z
_cell_length_a	11.026623
_cell_length_b	9.482900
_cell_length_c	10.723024
_cell_angle_alpha	80.575205
_cell_angle_beta	83.472714
_cell_angle_gamma	78.636013
loop_
_atom_site_label
_atom_site_type_symbol
_atom_site_fract_x
_atom_site_fract_y
_atom_site_fract_z
O1	O	-1.633307	0.120896	0.508198
O2	O	-1.279505	0.120898	0.448584
O3	O	-1.464566	0.120891	0.298577
O4	O	-1.448245	0.120902	0.658205
O5	O	-1.426977	-0.120900	0.329203
O6	O	-1.241916	-0.120894	0.479210
O7	O	-1.595718	-0.120895	0.538824
Cu8	Cu	-1.415385	-0.142972	0.511814
Cu9	Cu	-1.459838	0.142974	0.475595
O10	O	-1.410657	-0.120889	0.688831
C11	C	-1.215408	0.000002	0.452900
C12	C	-1.080421	0.000003	0.420115
N13	N	-1.384128	-0.344091	0.537289
C14	C	-1.007370	0.000006	0.510635
C15	C	-0.867854	0.000007	0.476753
C16	C	-1.450610	-0.416292	0.483100
C17	C	-1.424612	-0.583709	0.504308
C18	C	-0.659815	0.000003	0.534507
C19	C	-0.794804	0.000010	0.567285
C20	C	-1.444584	-0.000003	0.267134
C21	C	-1.441031	0.000003	0.127812
N22	N	-1.491104	0.344093	0.450111
C23	C	-1.544582	0.000004	0.075180
C24	C	-1.540912	0.000009	-0.068816
C25	C	-1.430639	0.000008	0.720274
C26	C	-1.434194	0.000012	0.859595
H27	H	-1.048114	0.000001	0.613216
Cl28	Cl	-1.608967	-0.560007	0.354559
H29	H	-1.526770	-0.354167	0.421000
H30	H	-0.827119	0.000041	0.374161
Cl31	Cl	-1.677784	0.000000	-0.138744
Cl32	Cl	-0.857689	-0.000005	0.725677
Cl33	Cl	-1.017522	-0.000012	0.261736
Cl34	Cl	-1.266525	-0.440001	0.633153
H35	H	-1.348438	-0.645831	0.566401
H36	H	-1.635952	-0.000005	0.136726
Cl37	Cl	-1.297313	-0.000001	-0.070483
Cl38	Cl	-1.299956	0.000018	0.032800
