data_functionalizedCrystal
_audit_creation_method	'MofGen! by Chris Wilmer'
_symmetry_space_group_name_H-M	'P1'
_symmetry_Int_Tables_number	1
_symmetry_cell_setting	triclinic
loop_
_symmetry_equiv_pos_as_xyz
  x,y,z
_cell_length_a	12.837943
_cell_length_b	11.792241
_cell_length_c	11.892095
_cell_angle_alpha	93.915739
_cell_angle_beta	85.689438
_cell_angle_gamma	89.511178
loop_
_atom_site_label
_atom_site_type_symbol
_atom_site_fract_x
_atom_site_fract_y
_atom_site_fract_z
O1	O	1.383703	0.288690	-0.093984
O2	O	1.081816	0.274106	-0.093991
O3	O	1.240085	0.116971	-0.093980
O4	O	1.225434	0.445825	-0.093996
O5	O	1.226889	0.130050	0.094027
O6	O	1.068620	0.287185	0.094016
O7	O	1.370507	0.301770	0.094022
Zn8	Zn	1.217468	0.296554	0.123869
Zn9	Zn	1.234855	0.279322	-0.123838
O10	O	1.212238	0.458904	0.094011
C11	C	1.036570	0.275719	0.000012
C12	C	0.921410	0.261025	0.000009
C13	C	0.681444	0.437671	0.000017
C14	C	0.573241	0.423870	0.000015
C15	C	0.596797	0.219624	0.000013
C16	C	0.705001	0.233425	0.000015
C17	C	0.747320	0.342452	0.000015
C18	C	0.855526	0.356251	0.000008
C19	C	0.879080	0.152006	0.000014
C20	C	0.770877	0.138205	0.000013
C21	C	1.232566	0.081126	0.000023
C22	C	1.229812	-0.045167	0.000022
C23	C	1.224748	-0.276394	0.000003
C24	C	1.227561	-0.147723	0.000014
C25	C	1.415753	0.300157	0.000017
C26	C	1.530913	0.314850	0.000012
C27	C	1.219756	0.494749	0.000005
C28	C	1.222512	0.621042	-0.000001
N29	N	1.205610	0.308315	0.292922
N30	N	1.246721	0.267553	-0.292891
C31	C	1.329237	0.185651	0.529579
C32	C	1.320956	0.193880	0.647920
C33	C	1.180761	0.332997	0.647948
C34	C	1.189043	0.324768	0.529607
C35	C	1.263284	0.251093	0.470427
C36	C	1.271570	0.242870	0.352083
C37	C	1.131371	0.381980	0.352113
C38	C	1.123090	0.390210	0.470454
H39	H	1.332023	0.182884	0.303899
C40	C	1.409990	0.105880	0.465274
C41	C	1.478585	0.168588	0.397359
C42	C	1.553009	0.095151	0.338126
H43	H	1.375803	0.051298	0.419015
H44	H	1.448149	0.068122	0.517431
H45	H	1.440431	0.206327	0.345209
H46	H	1.512797	0.223166	0.443590
H47	H	1.591167	0.057393	0.390283
H48	H	1.518812	0.040573	0.291873
H49	H	1.599564	0.137689	0.292047
C50	C	1.392692	0.122775	0.711940
C51	C	1.459493	0.056515	0.634777
C52	C	1.525600	-0.008997	0.693710
H53	H	1.352002	0.074560	0.758118
H54	H	1.432929	0.171505	0.758071
H55	H	1.419260	0.007789	0.588666
H56	H	1.500206	0.104700	0.588597
H57	H	1.565837	0.039734	0.739841
H58	H	1.484901	-0.057204	0.739886
H59	H	1.570938	-0.053954	0.641365
H60	H	0.736404	0.049439	0.000026
C61	C	0.950738	0.048702	-0.000167
C62	C	1.020344	0.043952	-0.096882
C63	C	1.086379	-0.051185	-0.097086
H64	H	0.910165	-0.018286	-0.000227
H65	H	0.988905	0.054387	0.065358
H66	H	0.982181	0.038257	-0.162390
H67	H	1.060940	0.110916	-0.096843
H68	H	1.124546	-0.045499	-0.031561
H69	H	1.045798	-0.118165	-0.097143
H70	H	1.133621	-0.054414	-0.162700
H71	H	1.120309	0.392973	0.696148
H72	H	1.062641	0.450192	0.518653
H73	H	0.519607	0.501409	0.000020
C74	C	1.059874	0.453242	0.287953
C75	C	1.075333	0.568669	0.316722
C76	C	1.009504	0.634352	0.257631
H77	H	0.989181	0.434879	0.307313
H78	H	1.075442	0.437874	0.208985
H79	H	1.059758	0.584030	0.395672
H80	H	1.146012	0.587066	0.297359
H81	H	1.025071	0.618983	0.178663
H82	H	0.938815	0.615979	0.276996
H83	H	1.019990	0.712675	0.277135
C84	C	0.901272	0.474717	0.000068
C85	C	0.820413	0.555153	0.000103
C86	C	0.862508	0.664298	0.000177
H87	H	0.947577	0.479955	-0.065475
H88	H	0.938360	0.488961	0.065657
H89	H	0.783341	0.540914	-0.065480
H90	H	0.774101	0.549950	0.065641
H91	H	0.899597	0.678542	0.065766
H92	H	0.908813	0.669525	-0.065367
H93	H	0.807652	0.718887	0.000211
C94	C	0.550642	0.101351	-0.000030
C95	C	0.441783	0.109651	-0.000048
C96	C	0.399230	0.000721	-0.000099
H97	H	0.568502	0.066114	0.065516
H98	H	0.577748	0.057067	-0.065616
H99	H	0.414686	0.153917	0.065532
H100	H	0.423894	0.144867	-0.065589
H101	H	0.426337	-0.043563	-0.065686
H102	H	0.417098	-0.034507	0.065448
H103	H	0.325367	0.006337	-0.000122
H104	H	0.715901	0.526445	0.000015
