data_functionalizedCrystal
_audit_creation_method	'MofGen! by Chris Wilmer'
_symmetry_space_group_name_H-M	'P1'
_symmetry_Int_Tables_number	1
_symmetry_cell_setting	triclinic
loop_
_symmetry_equiv_pos_as_xyz
  x,y,z
_cell_length_a	18.101398
_cell_length_b	18.050590
_cell_length_c	18.101389
_cell_angle_alpha	90.019149
_cell_angle_beta	90.009745
_cell_angle_gamma	90.014109
loop_
_atom_site_label
_atom_site_type_symbol
_atom_site_fract_x
_atom_site_fract_y
_atom_site_fract_z
Zn1	Zn	1.132186	-0.295825	0.418547
Zn2	Zn	1.632186	0.204175	0.918547
Zn3	Zn	1.132109	-0.420000	0.294704
Zn4	Zn	1.632109	0.080000	0.794704
Zn5	Zn	1.008344	-0.295818	0.294740
Zn6	Zn	1.508344	0.204182	0.794740
Zn7	Zn	1.008322	-0.419968	0.418524
Zn8	Zn	1.508322	0.080032	0.918524
O9	O	1.070240	-0.357903	0.356628
O10	O	1.570240	0.142097	0.856628
O11	O	1.235808	-0.312313	0.402113
O12	O	1.735808	0.187687	0.902113
O13	O	1.115668	-0.403537	0.191076
O14	O	1.615668	0.096463	0.691076
O15	O	1.024814	-0.191895	0.311187
O16	O	1.524814	0.308105	0.811187
O17	O	1.235752	-0.403544	0.311126
O18	O	1.735752	0.096456	0.811126
O19	O	1.115799	-0.191900	0.402148
O20	O	1.615799	0.308100	0.902148
O21	O	1.024739	-0.312301	0.191102
O22	O	1.524739	0.187699	0.691102
O23	O	0.904709	-0.312271	0.311165
O24	O	1.404709	0.187729	0.811165
O25	O	1.024776	-0.403491	0.522160
O26	O	1.524776	0.096509	1.022160
O27	O	0.904692	-0.403484	0.402109
O28	O	1.404692	0.096516	0.902109
O29	O	1.115778	-0.312283	0.522177
O30	O	1.615778	0.187717	1.022177
O31	O	1.115647	-0.523920	0.311104
O32	O	1.615647	-0.023920	0.811104
O33	O	1.024701	-0.523897	0.402074
O34	O	1.524701	-0.023897	0.902074
C35	C	0.877830	-0.357874	0.356639
C36	C	1.377830	0.142126	0.856639
C37	C	0.795516	-0.357879	0.356661
C38	C	1.295516	0.142121	0.856661
C39	C	0.496425	-0.357923	0.356630
C40	C	0.996425	0.142077	0.856630
C41	C	0.527764	-0.415589	0.413567
C42	C	1.027764	0.084411	0.913567
C43	C	0.613383	-0.415408	0.413801
C44	C	1.113383	0.084592	0.913801
C45	C	0.644807	-0.357902	0.356645
C46	C	1.144807	0.142098	0.856645
C47	C	0.613736	-0.279684	0.377974
C48	C	1.113736	0.220316	0.877974
C49	C	0.528091	-0.280030	0.378379
C50	C	1.028091	0.219970	0.878379
C51	C	0.527976	-0.377785	0.278227
C52	C	1.027976	0.122215	0.778227
C53	C	0.613627	-0.379502	0.278646
C54	C	1.113627	0.120498	0.778646
C55	C	0.728667	-0.357885	0.356653
C56	C	1.228667	0.142115	0.856653
C57	C	0.412565	-0.357934	0.356624
C58	C	0.912565	0.142066	0.856624
C59	C	1.070183	-0.550855	0.356599
C60	C	1.570183	-0.050855	0.856599
C61	C	1.070227	-0.633401	0.356611
C62	C	1.570227	-0.133401	0.856611
C63	C	1.119786	-0.832837	0.307211
C64	C	1.619786	-0.332837	0.807211
C65	C	1.137875	-0.882182	0.374798
C66	C	1.637875	-0.382182	0.874798
C67	C	1.070269	-0.784531	0.356641
C68	C	1.570269	-0.284531	0.856641
C69	C	1.052255	-0.882268	0.289084
C70	C	1.552255	-0.382268	0.789084
C71	C	1.070311	-0.930516	0.356663
C72	C	1.570311	-0.430516	0.856663
C73	C	1.088393	-0.832789	0.424263
C74	C	1.588393	-0.332789	0.924263
C75	C	1.002741	-0.832871	0.338504
C76	C	1.502741	-0.332871	0.838504
C77	C	1.020805	-0.882193	0.406138
C78	C	1.520805	-0.382193	0.906138
C79	C	1.070246	-0.700433	0.356627
C80	C	1.570246	-0.200433	0.856627
C81	C	1.070333	-1.014613	0.356685
C82	C	1.570333	-0.514613	0.856685
C83	C	1.263402	-0.357933	0.356619
C84	C	1.763402	0.142067	0.856619
C85	C	1.345716	-0.357946	0.356614
C86	C	1.845716	0.142054	0.856614
C87	C	1.070283	-0.357884	0.549790
C88	C	1.570283	0.142116	1.049790
C89	C	1.070301	-0.357876	0.632105
C90	C	1.570301	0.142124	1.132105
C91	C	1.070318	-0.164197	0.356674
C92	C	1.570318	0.335803	0.856674
C93	C	1.070350	-0.081652	0.356694
C94	C	1.570350	0.418348	0.856694
C95	C	1.070240	-0.357868	0.164218
C96	C	1.570240	0.142132	0.664218
C97	C	1.070365	-0.357667	0.081904
C98	C	1.570365	0.142333	0.581904
C99	C	1.070344	-0.357737	0.931196
C100	C	1.570344	0.142263	1.431196
C101	C	1.012891	-0.414940	0.899860
C102	C	1.512891	0.085060	1.399860
C103	C	1.013047	-0.415205	0.814242
C104	C	1.513047	0.084795	1.314242
C105	C	1.070322	-0.357806	0.782813
C106	C	1.570322	0.142194	1.282813
C107	C	1.148352	-0.379056	0.813899
C108	C	1.648352	0.120944	1.313899
C109	C	1.148032	-0.379431	0.899544
C110	C	1.648032	0.120569	1.399544
C111	C	1.050446	-0.279157	0.899626
C112	C	1.550446	0.220843	1.399626
C113	C	1.048710	-0.279611	0.813975
C114	C	1.548710	0.220389	1.313975
C115	C	1.070315	-0.357844	0.698954
C116	C	1.570315	0.142156	1.198954
C117	C	1.070357	-0.357701	1.015055
C118	C	1.570357	0.142299	1.515055
H119	H	0.507359	-0.235526	0.338810
H120	H	1.007359	0.264474	0.838810
H121	H	0.634090	-0.235554	0.337798
H122	H	1.134090	0.264446	0.837798
H123	H	1.165510	-0.435888	0.792451
H124	H	1.665510	0.064112	1.292451
N125	N	1.203491	-0.328427	0.788361
N126	N	1.703491	0.171573	1.288361
N127	N	1.185852	-0.275995	0.746865
N128	N	1.685852	0.224005	1.246865
H129	H	1.224792	-0.240237	0.728827
H130	H	1.724792	0.259763	1.228827
N131	N	0.640663	-0.258169	0.449093
N132	N	1.140663	0.241831	0.949093
N133	N	0.682728	-0.300307	0.484193
N134	N	1.182728	0.199693	0.984193
H135	H	0.701746	-0.285117	0.534423
H136	H	1.201746	0.214883	1.034423
H137	H	1.195000	-0.903844	0.390152
H138	H	1.695000	-0.403844	0.890152
N139	N	1.107613	-0.805634	0.495964
N140	N	1.607613	-0.305634	0.995964
N141	N	1.110722	-0.737429	0.507518
N142	N	1.610722	-0.237429	1.007518
H143	H	1.124300	-0.718248	0.558154
H144	H	1.624300	-0.218248	1.058154
H145	H	1.037001	-0.904001	0.231943
H146	H	1.537001	-0.404001	0.731943
N147	N	0.968298	-0.909203	0.458653
N148	N	1.468298	-0.409203	0.958653
N149	N	0.975033	-0.893182	0.525502
N150	N	1.475033	-0.393182	1.025502
H151	H	0.937953	-0.912258	0.562594
H152	H	1.437953	-0.412258	1.062594
H153	H	0.634390	-0.473412	0.400433
H154	H	1.134390	0.026588	0.900433
N155	N	0.931099	-0.805681	0.319211
N156	N	1.431099	-0.305681	0.819211
N157	N	0.903563	-0.821522	0.257875
N158	N	1.403563	-0.321522	0.757875
H159	H	0.852965	-0.802319	0.244241
H160	H	1.352965	-0.302319	0.744241
N161	N	0.500860	-0.448105	0.253910
N162	N	1.000860	0.051895	0.753910
N163	N	0.457944	-0.484438	0.294075
N164	N	0.957944	0.015562	0.794075
H165	H	0.438791	-0.534103	0.276909
H166	H	0.938791	-0.034103	0.776909
N167	N	1.102934	-0.225681	0.925036
N168	N	1.602934	0.274319	1.425036
N169	N	1.140911	-0.190126	0.879559
N170	N	1.640911	0.309874	1.379559
H171	H	1.177983	-0.152363	0.897507
H172	H	1.677983	0.347637	1.397507
H173	H	0.955185	-0.401907	0.793224
H174	H	1.455185	0.098093	1.293224
N175	N	0.503054	-0.258907	0.450288
N176	N	1.003054	0.241093	0.950288
N177	N	0.520737	-0.296658	0.505399
N178	N	1.020737	0.203342	1.005399
H179	H	0.503059	-0.281742	0.556188
H180	H	1.003059	0.218258	1.056188
H181	H	0.991287	-0.263587	0.793658
H182	H	1.491287	0.236413	1.293658
N183	N	0.940086	-0.398419	0.925701
N184	N	1.440086	0.101581	1.425701
N185	N	0.929689	-0.344296	0.967517
N186	N	1.429689	0.155704	1.467517
H187	H	0.878269	-0.332627	0.985773
H188	H	1.378269	0.167373	1.485773
H189	H	0.633943	-0.437059	0.262560
H190	H	1.133943	0.062941	0.762560
H191	H	1.026185	-0.473451	0.793755
H192	H	1.526185	0.026549	1.293755
H193	H	1.025899	-0.472830	0.921381
H194	H	1.525899	0.027170	1.421381
H195	H	1.164899	-0.436874	0.919522
H196	H	1.664899	0.063126	1.419522
H197	H	0.507162	-0.473782	0.400348
H198	H	1.007162	0.026218	0.900348
N199	N	0.500776	-0.399307	0.486019
N200	N	1.000776	0.100693	0.986019
N201	N	0.458560	-0.345418	0.495903
N202	N	0.958560	0.154582	0.995903
H203	H	0.439498	-0.333916	0.547071
H204	H	0.939498	0.166084	1.047071
H205	H	1.192291	-0.339576	0.920273
H206	H	1.692291	0.160424	1.420273
H207	H	0.994534	-0.259798	0.921226
H208	H	1.494534	0.240202	1.421226
N209	N	1.097366	-0.223308	0.787121
N210	N	1.597366	0.276692	1.287121
N211	N	1.102622	-0.211749	0.719243
N212	N	1.602622	0.288251	1.219243
H213	H	1.136991	-0.171989	0.700272
H214	H	1.636991	0.328011	1.200272
N215	N	0.639094	-0.398924	0.486679
N216	N	1.139094	0.101076	0.986679
N217	N	0.593785	-0.387511	0.537525
N218	N	1.093785	0.112489	1.037525
H219	H	0.611942	-0.375867	0.588999
H220	H	1.111942	0.124133	1.088999
H221	H	0.635018	-0.340549	0.233945
H222	H	1.135018	0.159451	0.733945
H223	H	0.507709	-0.335782	0.235804
H224	H	1.007709	0.164218	0.735804
N225	N	1.172338	-0.805655	0.254827
N226	N	1.672338	-0.305655	0.754827
N227	N	1.239214	-0.821465	0.261687
N228	N	1.739214	-0.321465	0.761687
H229	H	1.276331	-0.802268	0.224694
H230	H	1.776331	-0.302268	0.724694
