data_functionalizedCrystal
_audit_creation_method	'MofGen! by Chris Wilmer'
_symmetry_space_group_name_H-M	'P1'
_symmetry_Int_Tables_number	1
_symmetry_cell_setting	triclinic
loop_
_symmetry_equiv_pos_as_xyz
  x,y,z
_cell_length_a	17.699083
_cell_length_b	15.944551
_cell_length_c	16.176319
_cell_angle_alpha	89.992246
_cell_angle_beta	89.998611
_cell_angle_gamma	83.390877
loop_
_atom_site_label
_atom_site_type_symbol
_atom_site_fract_x
_atom_site_fract_y
_atom_site_fract_z
O1	O	1.004260	0.106222	-0.068632
O2	O	0.783905	0.120042	-0.068660
O3	O	0.900100	-0.009156	-0.068638
O4	O	0.888065	0.235419	-0.068654
O5	O	0.900084	-0.009164	0.068855
O6	O	0.783889	0.120033	0.068833
O7	O	1.004244	0.106214	0.068861
Cu8	Cu	0.894065	0.113123	0.081401
Cu9	Cu	0.894084	0.113133	-0.081200
O10	O	0.888049	0.235411	0.068839
C11	C	0.755700	0.119542	0.000083
C12	C	0.671679	0.118057	0.000073
C13	C	0.899593	-0.040453	0.000109
C14	C	0.898095	-0.133696	0.000109
C15	C	0.623187	0.193893	0.000068
C16	C	0.544242	0.192492	0.000079
C17	C	0.513789	0.115254	0.000089
C18	C	0.562287	0.039412	0.000096
C19	C	0.641231	0.040814	0.000091
C20	C	0.243914	0.033758	0.000117
C21	C	0.164964	0.032362	0.000119
C22	C	0.146925	0.185436	0.000105
C23	C	0.225869	0.186837	0.000100
C24	C	0.274360	0.110996	0.000112
C25	C	0.359962	0.112516	0.000102
C26	C	0.428189	0.113733	0.000093
C27	C	0.822492	-0.348393	0.000088
C28	C	0.857591	-0.409488	0.067885
C29	C	0.895385	-0.304416	0.000102
C30	C	0.857624	-0.409464	-0.067672
C31	C	0.892762	-0.469323	0.000092
C32	C	0.930505	-0.364283	0.067955
C33	C	0.930527	-0.364252	-0.067663
C34	C	0.965680	-0.425329	0.000150
C35	C	0.896894	-0.209417	0.000109
C36	C	0.891259	-0.564321	0.000092
C37	C	1.032450	0.106713	0.000116
C38	C	1.116471	0.108199	0.000121
C39	C	0.888557	0.266708	0.000090
C40	C	0.890055	0.359951	0.000085
N41	N	0.894058	0.113116	0.195767
N42	N	0.894098	0.113133	-0.195565
C43	C	0.945524	0.055930	0.239040
C44	C	0.945528	0.055929	0.325588
C45	C	0.894068	0.113118	0.368859
C46	C	0.842596	0.170306	0.325579
C47	C	0.842589	0.170303	0.239034
C48	C	0.842622	0.170322	0.674608
C49	C	0.842634	0.170323	0.761159
C50	C	0.945561	0.055949	0.761161
C51	C	0.945554	0.055945	0.674616
C52	C	0.894080	0.113130	0.631343
C53	C	0.894075	0.113129	0.537499
C54	C	0.894076	0.113124	0.462702
H55	H	0.647975	0.256789	0.000060
H56	H	0.826754	-0.429535	0.125194
H57	H	0.761987	-0.314958	0.000149
H58	H	0.107434	0.247189	0.000100
O59	O	0.967368	-0.340582	0.136351
C60	C	1.042606	-0.380800	0.136529
H61	H	1.060296	-0.399418	0.070677
H62	H	1.045997	-0.439746	0.176873
C63	C	1.074589	-0.297090	0.252059
C64	C	1.096318	-0.319951	0.171178
H65	H	1.107721	-0.259558	0.273436
H66	H	1.023899	-0.269996	0.251942
H67	H	1.077414	-0.346217	0.285669
H68	H	1.093483	-0.270826	0.137567
H69	H	1.147009	-0.347036	0.171290
O70	O	1.037974	-0.464902	0.000246
C71	C	1.089849	-0.404098	0.000944
H72	H	1.060849	-0.342304	0.027293
H73	H	1.109682	-0.393207	-0.064839
C74	C	1.194515	-0.511758	0.022614
C75	C	1.158899	-0.435864	0.054983
H76	H	1.237110	-0.531353	0.055944
H77	H	1.159567	-0.552724	0.022140
H78	H	1.211036	-0.502672	-0.032205
H79	H	1.142370	-0.444953	0.109796
H80	H	1.193846	-0.394900	0.055467
O81	O	0.792636	0.225973	0.367517
C82	C	0.804945	0.309107	0.346366
H83	H	0.834114	0.308961	0.283526
H84	H	0.842617	0.335038	0.395066
C85	C	0.692271	0.365270	0.419543
C86	C	0.728092	0.365090	0.342359
H87	H	0.644865	0.399805	0.417075
H88	H	0.683979	0.309262	0.433797
H89	H	0.723672	0.386877	0.460119
H90	H	0.696695	0.343474	0.301787
H91	H	0.736376	0.421097	0.328098
O92	O	0.792700	0.225889	0.196903
C93	C	0.833226	0.277666	0.146841
H94	H	0.892447	0.244130	0.133875
H95	H	0.838369	0.339742	0.180182
C96	C	0.717811	0.336861	0.080560
C97	C	0.790546	0.295668	0.064628
H98	H	0.691484	0.347969	0.029848
H99	H	0.690508	0.301981	0.114290
H100	H	0.722107	0.388586	0.108346
H101	H	0.786249	0.243940	0.036853
H102	H	0.817848	0.330540	0.030892
O103	O	0.967175	-0.340324	-0.136118
C104	C	0.928564	-0.363094	-0.207460
H105	H	0.866857	-0.369730	-0.191226
H106	H	0.957194	-0.425792	-0.232191
C107	C	1.006860	-0.286154	-0.293854
C108	C	0.931069	-0.294298	-0.273916
H109	H	1.008407	-0.243720	-0.334849
H110	H	1.032876	-0.270816	-0.245790
H111	H	1.030710	-0.338408	-0.314458
H112	H	0.907223	-0.242049	-0.253303
H113	H	0.905049	-0.309626	-0.321978
H114	H	0.826790	-0.429472	-0.124993
H115	H	0.504763	0.254246	0.000074
H116	H	0.987432	0.009364	0.203814
H117	H	0.537486	-0.023476	0.000116
O118	O	0.255482	0.261847	-0.000063
C119	C	0.300615	0.267230	-0.071268
H120	H	0.281944	0.223370	-0.121029
H121	H	0.362872	0.247735	-0.055173
C122	C	0.313974	0.412561	-0.042456
C123	C	0.291037	0.358697	-0.103575
H124	H	0.308069	0.468983	-0.062383
H125	H	0.283569	0.408935	0.005518
H126	H	0.365853	0.396305	-0.029049
H127	H	0.239157	0.374947	-0.116974
H128	H	0.321433	0.362329	-0.151553
O129	O	0.995604	0.000357	0.367495
C130	C	1.041016	-0.050125	0.310744
H131	H	1.041855	-0.015691	0.249044
H132	H	1.016456	-0.112500	0.301558
C133	C	1.121636	-0.109821	0.420290
C134	C	1.122672	-0.067525	0.344511
H135	H	1.172004	-0.120558	0.441120
H136	H	1.091040	-0.075813	0.458525
H137	H	1.101165	-0.161795	0.412625
H138	H	1.143133	-0.015548	0.352179
H139	H	1.153273	-0.101525	0.306278
H140	H	0.140173	-0.030538	0.000128
H141	H	0.680713	-0.020940	0.000095
H142	H	0.283386	-0.027997	0.000127
H143	H	0.987460	0.009379	0.639387
O144	O	0.995524	0.000275	0.803108
C145	C	0.983207	-0.082859	0.781987
H146	H	0.954032	-0.082713	0.719152
H147	H	0.945536	-0.108782	0.830702
C148	C	1.095884	-0.139027	0.855165
C149	C	1.060056	-0.138849	0.777986
H150	H	1.143287	-0.173566	0.852701
H151	H	1.104181	-0.083019	0.869398
H152	H	1.064484	-0.160628	0.895753
H153	H	1.091451	-0.117239	0.737402
H154	H	1.051765	-0.194855	0.763746
O155	O	0.792565	0.225906	0.803067
C156	C	0.747141	0.276391	0.746316
H157	H	0.746281	0.241954	0.684628
H158	H	0.771706	0.338761	0.737098
C159	C	0.666558	0.336101	0.855873
C160	C	0.665497	0.293801	0.780109
H161	H	0.616196	0.346845	0.876719
H162	H	0.697162	0.302091	0.894108
H163	H	0.687032	0.388071	0.848181
H164	H	0.645032	0.241828	0.787804
H165	H	0.634887	0.327803	0.741876
H166	H	0.800711	0.216885	0.639382
