data_functionalizedCrystal
_audit_creation_method	'MofGen! by Chris Wilmer'
_symmetry_space_group_name_H-M	'P1'
_symmetry_Int_Tables_number	1
_symmetry_cell_setting	triclinic
loop_
_symmetry_equiv_pos_as_xyz
  x,y,z
_cell_length_a	13.033293
_cell_length_b	19.121063
_cell_length_c	13.032268
_cell_angle_alpha	80.752502
_cell_angle_beta	90.920818
_cell_angle_gamma	99.921715
loop_
_atom_site_label
_atom_site_type_symbol
_atom_site_fract_x
_atom_site_fract_y
_atom_site_fract_z
Zn1	Zn	1.482860	-0.220865	0.793484
Zn2	Zn	1.982860	0.279135	1.293484
Zn3	Zn	1.497396	-0.322885	0.627054
Zn4	Zn	1.997396	0.177115	1.127054
Zn5	Zn	1.332985	-0.217116	0.599456
Zn6	Zn	1.832985	0.282884	1.099456
Zn7	Zn	1.301556	-0.352479	0.778702
Zn8	Zn	1.801556	0.147521	1.278702
O9	O	1.403699	-0.278336	0.699674
O10	O	1.903699	0.221664	1.199674
O11	O	1.629471	-0.223582	0.789143
O12	O	2.129471	0.276418	1.289143
O13	O	1.494823	-0.294900	0.478727
O14	O	1.994823	0.205100	0.978727
O15	O	1.359936	-0.118269	0.619830
O16	O	1.859936	0.381731	1.119830
O17	O	1.640150	-0.298535	0.666868
O18	O	2.140150	0.201465	1.166868
O19	O	1.470048	-0.121023	0.762382
O20	O	1.970048	0.378977	1.262382
O21	O	1.374031	-0.217193	0.458450
O22	O	1.874031	0.282807	0.958450
O23	O	1.184133	-0.245889	0.605497
O24	O	1.684133	0.254111	1.105497
O25	O	1.306370	-0.348974	0.925330
O26	O	1.806370	0.151026	1.425330
O27	O	1.161042	-0.345339	0.737189
O28	O	1.661042	0.154661	1.237189
O29	O	1.439573	-0.252278	0.936190
O30	O	1.939573	0.247722	1.436190
O31	O	1.464347	-0.426155	0.652535
O32	O	1.964347	0.073845	1.152535
O33	O	1.320465	-0.447898	0.763950
O34	O	1.820465	0.052102	1.263950
C35	C	1.135073	-0.298419	0.666745
C36	C	1.635073	0.201581	1.166745
C37	C	1.020149	-0.307030	0.652683
C38	C	1.520149	0.192970	1.152683
C39	C	0.963610	-0.273860	0.707014
C40	C	1.463610	0.226140	1.207014
C41	C	0.844830	-0.282759	0.692482
C42	C	1.344830	0.217241	1.192482
C43	C	1.390598	-0.462786	0.709659
C44	C	1.890598	0.037214	1.209659
C45	C	1.385083	-0.541690	0.713977
C46	C	1.885083	-0.041690	1.213977
C47	C	1.457449	-0.567418	0.658059
C48	C	1.957449	-0.067418	1.158059
C49	C	1.452267	-0.641558	0.662126
C50	C	1.952267	-0.141558	1.162126
C51	C	1.374716	-0.689969	0.722107
C52	C	1.874716	-0.189969	1.222107
C53	C	1.302347	-0.664237	0.778032
C54	C	1.802347	-0.164237	1.278032
C55	C	1.307533	-0.590099	0.773970
C56	C	1.807533	-0.090099	1.273970
C57	C	1.355310	-0.914388	0.737278
C58	C	1.855310	-0.414388	1.237278
C59	C	1.350127	-0.988531	0.741334
C60	C	1.850127	-0.488531	1.241334
C61	C	1.500049	-0.965846	0.625429
C62	C	2.000049	-0.465846	1.125429
C63	C	1.505225	-0.891707	0.621367
C64	C	2.005225	-0.391707	1.121367
C65	C	1.432860	-0.865982	0.677296
C66	C	1.932860	-0.365982	1.177296
C67	C	1.369416	-0.765752	0.726264
C68	C	1.869416	-0.265752	1.226264
C69	C	1.438165	-0.790200	0.673145
C70	C	1.938165	-0.290200	1.173145
C71	C	1.673374	-0.258176	0.732733
C72	C	2.173374	0.241824	1.232733
C73	C	1.788294	-0.249584	0.746820
C74	C	2.288294	0.250416	1.246820
C75	C	1.367844	-0.304345	0.969319
C76	C	1.867844	0.195655	1.469319
C77	C	1.352565	-0.315429	1.084226
C78	C	1.852565	0.184571	1.584226
C79	C	1.416876	-0.093167	0.689676
C80	C	1.916876	0.406833	1.189676
C81	C	1.422492	-0.014258	0.685415
C82	C	1.922492	0.485742	1.185415
C83	C	1.439478	-0.252372	0.431083
C84	C	1.939478	0.247628	0.931083
C85	C	1.454971	-0.241074	0.316190
C86	C	1.954971	0.258926	0.816190
C87	C	1.411659	-0.272527	1.140828
C88	C	1.911659	0.227473	1.640828
C89	C	1.395869	-0.283982	1.259590
C90	C	1.895869	0.216018	1.759590
H91	H	0.805303	-0.317746	0.635202
H92	H	1.305303	0.182254	1.135202
H93	H	1.558966	-0.986800	0.579896
H94	H	2.058966	-0.486800	1.079896
Cl95	Cl	1.507798	-0.202709	1.079904
Cl96	Cl	2.007798	0.297291	1.579904
H97	H	1.517254	-0.195857	1.276731
H98	H	2.017254	0.304143	1.776731
Cl99	Cl	0.849312	-0.195557	0.835245
Cl100	Cl	1.349312	0.304443	1.335245
Cl101	Cl	1.299696	-0.353784	1.320505
Cl102	Cl	1.799696	0.146216	1.820505
H103	H	1.248607	-0.569153	0.819506
H104	H	1.748607	-0.069153	1.319506
H105	H	1.290276	-0.360635	1.123688
H106	H	1.790276	0.139365	1.623688
H107	H	0.980618	-0.342014	0.595407
H108	H	1.480618	0.157986	1.095407
H109	H	1.003142	-0.238871	0.764283
H110	H	1.503142	0.261129	1.264283
H111	H	1.296385	-0.893448	0.782816
H112	H	1.796385	-0.393448	1.282816
Cl113	Cl	1.554942	-0.506564	0.582643
Cl114	Cl	2.054942	-0.006564	1.082643
H115	H	1.511194	-0.662501	0.616591
H116	H	2.011194	-0.162501	1.116591
H117	H	1.306271	-0.805177	0.775098
H118	H	1.806271	-0.305177	1.275098
H119	H	1.568374	-0.852291	0.572526
H120	H	2.068374	-0.352291	1.072526
H121	H	1.286984	-1.027948	0.790197
H122	H	1.786984	-0.527948	1.290197
H123	H	1.239206	-0.703660	0.826875
H124	H	1.739206	-0.203660	1.326875
Cl125	Cl	1.535658	-0.729339	0.597747
Cl126	Cl	2.035658	-0.229339	1.097747
