data_functionalizedCrystal
_audit_creation_method	'MofGen! by Chris Wilmer'
_symmetry_space_group_name_H-M	'P1'
_symmetry_Int_Tables_number	1
_symmetry_cell_setting	triclinic
loop_
_symmetry_equiv_pos_as_xyz
  x,y,z
_cell_length_a	19.188930
_cell_length_b	27.732025
_cell_length_c	18.266242
_cell_angle_alpha	90.008162
_cell_angle_beta	89.977082
_cell_angle_gamma	82.889129
loop_
_atom_site_label
_atom_site_type_symbol
_atom_site_fract_x
_atom_site_fract_y
_atom_site_fract_z
O1	O	0.925757	0.060349	-0.061093
O2	O	1.425757	0.560349	0.438907
O3	O	0.722393	0.068472	-0.061040
O4	O	1.222393	0.568472	0.438960
O5	O	0.830400	-0.005968	-0.061090
O6	O	1.330400	0.494032	0.438910
O7	O	0.817751	0.134789	-0.061042
O8	O	1.317751	0.634789	0.438958
O9	O	0.830381	-0.005971	0.060672
O10	O	1.330381	0.494029	0.560672
O11	O	0.722375	0.068469	0.060722
O12	O	1.222375	0.568469	0.560722
O13	O	0.925739	0.060345	0.060669
O14	O	1.425739	0.560345	0.560669
Zn15	Zn	0.824054	0.064406	0.080028
Zn16	Zn	1.324054	0.564406	0.580028
Zn17	Zn	0.824078	0.064411	-0.080399
Zn18	Zn	1.324078	0.564411	0.419601
O19	O	0.817733	0.134785	0.060720
O20	O	1.317733	0.634785	0.560720
C21	C	0.696375	0.068207	-0.000152
C22	C	1.196375	0.568207	0.499848
C23	C	0.618876	0.067418	-0.000133
C24	C	1.118876	0.567418	0.499867
C25	C	0.830127	-0.023977	-0.000216
C26	C	1.330127	0.476023	0.499784
C27	C	0.829335	-0.077635	-0.000238
C28	C	1.329335	0.422365	0.499762
C29	C	0.573668	0.111097	-0.000130
C30	C	1.073668	0.611097	0.499870
C31	C	0.500849	0.110355	-0.000138
C32	C	1.000849	0.610355	0.499862
C33	C	0.473241	0.065931	-0.000165
C34	C	0.973241	0.565931	0.499835
C35	C	0.518458	0.022247	-0.000164
C36	C	1.018458	0.522247	0.499836
C37	C	0.591276	0.022990	-0.000148
C38	C	1.091276	0.522990	0.499852
N39	N	0.365487	0.031977	-0.041647
N40	N	0.865487	0.531977	0.458353
N41	N	0.296313	0.031274	-0.041663
N42	N	0.796313	0.531274	0.458337
C43	C	0.253847	0.063690	-0.000210
C44	C	0.753847	0.563690	0.499790
N45	N	0.283166	0.096843	0.041251
N46	N	0.783166	0.596843	0.541251
N47	N	0.352346	0.097547	0.041264
N48	N	0.852346	0.597547	0.541264
C49	C	0.394284	0.065121	-0.000181
C50	C	0.894284	0.565121	0.499819
C51	C	0.129680	0.106567	-0.000215
C52	C	0.629680	0.606567	0.499785
C53	C	0.056860	0.105823	-0.000218
C54	C	0.556860	0.605823	0.499782
C55	C	0.074471	0.017714	-0.000251
C56	C	0.574471	0.517714	0.499749
C57	C	0.147289	0.018459	-0.000240
C58	C	0.647289	0.518459	0.499760
C59	C	0.174889	0.062887	-0.000225
C60	C	0.674889	0.562887	0.499775
C61	C	0.823717	-0.460816	-0.066566
C62	C	1.323717	0.039184	0.433434
C63	C	0.826681	-0.259148	-0.066591
C64	C	1.326681	0.240852	0.433409
O65	O	0.827101	-0.233077	-0.123040
O66	O	1.327101	0.266923	0.376960
N67	N	0.827042	-0.233927	-0.000220
N68	N	1.327042	0.266073	0.499780
C69	C	0.826666	-0.259128	0.066161
C70	C	1.326666	0.240872	0.566161
O71	O	0.827048	-0.233049	0.122613
O72	O	1.327048	0.266951	0.622613
C73	C	0.823707	-0.460796	0.066185
C74	C	1.323707	0.039204	0.566185
C75	C	0.823339	-0.486013	-0.000190
C76	C	1.323339	0.013987	0.499810
C77	C	0.823350	-0.486033	-0.132936
C78	C	1.323350	0.013967	0.367064
C79	C	0.822605	-0.536447	-0.132929
C80	C	1.322605	-0.036447	0.367071
C81	C	0.822227	-0.561644	-0.066553
C82	C	1.322227	-0.061644	0.433447
C83	C	0.822594	-0.536426	-0.000183
C84	C	1.322594	-0.036426	0.499817
C85	C	0.823336	-0.485996	0.132565
C86	C	1.323336	0.014004	0.632565
C87	C	0.822598	-0.536416	0.132565
C88	C	1.322598	-0.036416	0.632565
C89	C	0.822230	-0.561633	0.066190
C90	C	1.322230	-0.061633	0.566190
C91	C	0.821471	-0.612037	0.066199
C92	C	1.321471	-0.112037	0.566199
N93	N	0.821110	-0.637257	-0.000171
N94	N	1.321110	-0.137257	0.499829
C95	C	0.821488	-0.612060	-0.066547
C96	C	1.321488	-0.112060	0.433453
C97	C	0.828219	-0.153249	0.066144
C98	C	1.328219	0.346751	0.566144
C99	C	0.828957	-0.102832	0.066138
C100	C	1.328957	0.397168	0.566138
C101	C	0.828974	-0.102856	-0.066614
C102	C	1.328974	0.397144	0.433386
C103	C	0.828230	-0.153273	-0.066607
C104	C	1.328230	0.346727	0.433393
C105	C	0.827858	-0.178469	-0.000226
C106	C	1.327858	0.321531	0.499774
C107	C	0.819923	-0.717933	-0.066528
C108	C	1.319923	-0.217933	0.433472
C109	C	0.819175	-0.768351	-0.066515
C110	C	1.319175	-0.268351	0.433485
C111	C	0.819162	-0.768323	0.066236
C112	C	1.319162	-0.268323	0.566236
C113	C	0.819907	-0.717909	0.066224
C114	C	1.319907	-0.217909	0.566224
C115	C	0.820289	-0.692716	-0.000164
C116	C	1.320289	-0.192716	0.499836
O117	O	0.821059	-0.638139	0.122619
O118	O	1.321059	-0.138139	0.622619
O119	O	0.821122	-0.638149	-0.122990
O120	O	1.321122	-0.138149	0.377010
C121	C	0.824462	-0.410402	-0.066573
C122	C	1.324462	0.089598	0.433427
C123	C	0.824829	-0.385185	-0.000204
C124	C	1.324829	0.114815	0.499796
C125	C	0.824451	-0.410382	0.066172
C126	C	1.324451	0.089618	0.566172
C127	C	0.825567	-0.334768	-0.000209
C128	C	1.325567	0.165232	0.499791
C129	C	0.825945	-0.309572	-0.066585
C130	C	1.325945	0.190428	0.433415
C131	C	0.825585	-0.334792	-0.132956
C132	C	1.325585	0.165208	0.367044
C133	C	0.824840	-0.385206	-0.132949
C134	C	1.324840	0.114794	0.367051
C135	C	0.824811	-0.385161	0.132543
C136	C	1.324811	0.114839	0.632543
C137	C	0.825556	-0.334748	0.132531
C138	C	1.325556	0.165252	0.632531
C139	C	0.825934	-0.309551	0.066155
C140	C	1.325934	0.190449	0.566155
C141	C	0.951758	0.060610	-0.000220
C142	C	1.451758	0.560610	0.499780
C143	C	1.029257	0.061400	-0.000244
C144	C	1.529257	0.561400	0.499756
C145	C	0.818005	0.152795	-0.000156
C146	C	1.318005	0.652795	0.499844
C147	C	0.818797	0.206453	-0.000139
C148	C	1.318797	0.706453	0.499861
N149	N	0.824043	0.064402	0.189515
N150	N	1.324043	0.564402	0.689515
N151	N	0.824095	0.064411	-0.189886
N152	N	1.324095	0.564411	0.310114
C153	C	0.871884	0.031456	0.227801
C154	C	1.371884	0.531456	0.727801
C155	C	0.871888	0.031454	0.304446
C156	C	1.371888	0.531454	0.804446
C157	C	0.824059	0.064406	0.342802
C158	C	1.324059	0.564406	0.842802
C159	C	0.776209	0.097355	0.304506
C160	C	1.276209	0.597355	0.804506
C161	C	0.776201	0.097353	0.227863
C162	C	1.276201	0.597353	0.727863
N163	N	0.814705	0.107197	0.463150
N164	N	1.314705	0.607197	0.963150
N165	N	0.814717	0.107197	0.535958
N166	N	1.314717	0.607197	1.035958
C167	C	0.824078	0.064413	0.573724
C168	C	1.324078	0.564413	1.073724
N169	N	0.833441	0.021628	0.535932
N170	N	1.333441	0.521628	1.035932
N171	N	0.833433	0.021628	0.463117
N172	N	1.333433	0.521628	0.963117
C173	C	0.824061	0.064412	0.425909
C174	C	1.324061	0.564412	0.925909
C175	C	0.871926	0.031462	0.695118
C176	C	1.371926	0.531462	1.195118
C177	C	0.871926	0.031459	0.771764
C178	C	1.371926	0.531459	1.271764
C179	C	0.776250	0.097364	0.771823
C180	C	1.276250	0.597364	1.271823
C181	C	0.776247	0.097363	0.695178
C182	C	1.276247	0.597363	1.195178
C183	C	0.824089	0.064412	0.656830
C184	C	1.324089	0.564412	1.156830
H185	H	0.596134	0.147273	-0.000119
H186	H	1.096134	0.647273	0.499881
H187	H	0.464034	0.145925	-0.000133
H188	H	0.964034	0.645925	0.499867
F189	F	0.725332	0.132430	0.654427
F190	F	1.225332	0.632430	1.154427
F191	F	0.922798	-0.003613	0.186991
F192	F	1.422798	0.496387	0.686991
H193	H	0.824506	-0.405672	0.186595
H194	H	1.324506	0.094328	0.686595
H195	H	0.910880	0.004630	0.663894
H196	H	1.410880	0.504630	1.163894
F197	F	0.922843	-0.003611	0.812513
F198	F	1.422843	0.496389	1.312513
F199	F	0.489075	-0.025032	-0.000188
F200	F	0.989075	0.474968	0.499812
F201	F	0.829367	-0.076030	-0.137256
F202	F	1.329367	0.423970	0.362744
F203	F	0.725342	0.132431	0.812640
F204	F	1.225342	0.632431	1.312640
H205	H	0.051994	-0.018457	-0.000318
H206	H	0.551994	0.481543	0.499682
F207	F	0.195405	-0.028031	-0.000248
F208	F	0.695405	0.471969	0.499752
H209	H	0.628085	-0.012580	-0.000151
H210	H	1.128085	0.487420	0.499849
F211	F	0.824449	-0.412037	-0.203595
F212	F	1.324449	0.087963	0.296405
F213	F	0.818782	-0.795186	-0.137163
F214	F	1.318782	-0.295186	0.362837
H215	H	0.825887	-0.314268	-0.187002
H216	H	1.325887	0.185732	0.312998
H217	H	0.152153	0.142743	-0.000192
H218	H	0.652153	0.642743	0.499808
H219	H	0.020052	0.141394	-0.000212
H220	H	0.520052	0.641394	0.499788
F221	F	0.922809	-0.003613	0.345200
F222	F	1.422809	0.496387	0.845200
F223	F	0.820330	-0.691127	-0.137185
F224	F	1.320330	-0.191127	0.362815
H225	H	0.822310	-0.556975	-0.186978
H226	H	1.322310	-0.056975	0.313022
H227	H	0.737243	0.124182	0.196689
H228	H	1.237243	0.624182	0.696689
H229	H	0.737264	0.124184	0.335739
H230	H	1.237264	0.624184	0.835739
H231	H	0.823660	-0.465524	-0.186990
H232	H	1.323660	0.034476	0.313010
F233	F	0.827840	-0.180106	-0.137251
F234	F	1.327840	0.319894	0.362749
H235	H	0.829243	-0.082303	0.120187
H236	H	1.329243	0.417697	0.620187
F237	F	0.827820	-0.180058	0.136800
F238	F	1.327820	0.319942	0.636800
H239	H	0.823643	-0.465473	0.186615
H240	H	1.323643	0.034527	0.686615
H241	H	0.822295	-0.556928	0.186622
H242	H	1.322295	-0.056928	0.686622
H243	H	0.820178	-0.697374	0.120272
H244	H	1.320178	-0.197374	0.620272
H245	H	0.818852	-0.788847	0.120278
H246	H	1.318852	-0.288847	0.620278
H247	H	0.825848	-0.314220	0.186585
H248	H	1.325848	0.185780	0.686585
