data_functionalizedCrystal
_audit_creation_method	'MofGen! by Chris Wilmer'
_symmetry_space_group_name_H-M	'P1'
_symmetry_Int_Tables_number	1
_symmetry_cell_setting	triclinic
loop_
_symmetry_equiv_pos_as_xyz
  x,y,z
_cell_length_a	17.699104
_cell_length_b	16.992695
_cell_length_c	16.776229
_cell_angle_alpha	89.993259
_cell_angle_beta	89.991971
_cell_angle_gamma	86.979870
loop_
_atom_site_label
_atom_site_type_symbol
_atom_site_fract_x
_atom_site_fract_y
_atom_site_fract_z
O1	O	1.010246	0.099224	-0.066305
O2	O	1.343580	0.432557	0.267028
O3	O	1.676913	0.765890	0.600361
O4	O	0.790672	0.112106	-0.066304
O5	O	1.124005	0.445439	0.267030
O6	O	1.457339	0.778773	0.600363
O7	O	0.899579	-0.008476	-0.066298
O8	O	1.232912	0.324857	0.267035
O9	O	1.566246	0.658190	0.600369
O10	O	0.901339	0.219806	-0.066311
O11	O	1.234673	0.553139	0.267023
O12	O	1.568006	0.886473	0.600356
O13	O	0.899563	-0.008484	0.066278
O14	O	1.232896	0.324850	0.399612
O15	O	1.566230	0.658183	0.732945
O16	O	0.790656	0.112098	0.066273
O17	O	1.123989	0.445432	0.399606
O18	O	1.457323	0.778765	0.732940
O19	O	1.010230	0.099216	0.066271
O20	O	1.343564	0.432550	0.399605
O21	O	1.676897	0.765883	0.732938
Zn22	Zn	0.900441	0.105656	0.087321
Zn23	Zn	1.233774	0.438990	0.420655
Zn24	Zn	1.567107	0.772323	0.753988
Zn25	Zn	0.900462	0.105666	-0.087354
Zn26	Zn	1.233795	0.438999	0.245980
Zn27	Zn	1.567128	0.772333	0.579313
O28	O	0.901323	0.219798	0.066266
O29	O	1.234657	0.553132	0.399599
O30	O	1.567990	0.886465	0.732932
C31	C	0.762438	0.111638	-0.000015
C32	C	1.095772	0.444971	0.333318
C33	C	1.429105	0.778304	0.666652
C34	C	0.678334	0.110245	-0.000014
C35	C	1.011668	0.443578	0.333319
C36	C	1.345001	0.776911	0.666653
C37	C	0.157381	0.173167	-0.000026
C38	C	0.490714	0.506501	0.333307
C39	C	0.824048	0.839834	0.666641
C40	C	0.236406	0.174472	-0.000028
C41	C	0.569739	0.507805	0.333305
C42	C	0.903073	0.841138	0.666638
C43	C	0.280616	0.103685	-0.000024
C44	C	0.613950	0.437019	0.333309
C45	C	0.947283	0.770352	0.666642
C46	C	0.245798	0.031590	-0.000026
C47	C	0.579131	0.364923	0.333307
C48	C	0.912465	0.698257	0.666641
C49	C	0.166774	0.030287	-0.000029
C50	C	0.500108	0.363620	0.333304
C51	C	0.833441	0.696953	0.666637
C52	C	0.564491	0.036845	-0.000013
C53	C	0.897824	0.370178	0.333320
C54	C	1.231158	0.703512	0.666653
C55	C	0.643520	0.038154	-0.000008
C56	C	0.976853	0.371487	0.333326
C57	C	1.310187	0.704821	0.666659
C58	C	0.634123	0.181030	-0.000013
C59	C	0.967456	0.514363	0.333321
C60	C	1.300789	0.847697	0.666654
C61	C	0.555099	0.179727	-0.000016
C62	C	0.888433	0.513060	0.333317
C63	C	1.221766	0.846393	0.666651
C64	C	0.520288	0.107632	-0.000022
C65	C	0.853621	0.440965	0.333312
C66	C	1.186954	0.774299	0.666645
C67	C	0.434600	0.106219	-0.000021
C68	C	0.767933	0.439552	0.333313
C69	C	1.101266	0.772885	0.666646
C70	C	0.366303	0.105098	-0.000020
C71	C	0.699636	0.438431	0.333314
C72	C	1.032970	0.771765	0.666647
C73	C	0.897306	-0.037688	-0.000010
C74	C	1.230640	0.295645	0.333323
C75	C	1.563973	0.628978	0.666657
C76	C	0.890549	-0.124720	-0.000010
C77	C	1.223882	0.208613	0.333323
C78	C	1.557216	0.541947	0.666657
C79	C	0.955746	-0.175080	-0.000010
C80	C	1.289080	0.158254	0.333324
C81	C	1.622413	0.491587	0.666657
C82	C	0.949393	-0.256855	-0.000017
C83	C	1.282726	0.076479	0.333316
C84	C	1.616060	0.409812	0.666649
C85	C	0.877841	-0.288269	-0.000019
C86	C	1.211175	0.045065	0.333314
C87	C	1.544508	0.378398	0.666647
C88	C	0.812639	-0.237902	-0.000022
C89	C	1.145972	0.095431	0.333311
C90	C	1.479306	0.428764	0.666645
C91	C	0.818993	-0.156129	-0.000020
C92	C	1.152327	0.177204	0.333313
C93	C	1.485660	0.510538	0.666646
C94	C	0.851505	-0.531818	-0.000030
C95	C	1.184839	-0.198485	0.333303
C96	C	1.518172	0.134849	0.666637
C97	C	0.845156	-0.613598	-0.000030
C98	C	1.178489	-0.280265	0.333304
C99	C	1.511823	0.053069	0.666637
C100	C	0.981910	-0.632545	-0.000026
C101	C	1.315244	-0.299211	0.333307
C102	C	1.648577	0.034122	0.666640
C103	C	0.988258	-0.550769	-0.000020
C104	C	1.321592	-0.217436	0.333314
C105	C	1.654925	0.115898	0.666647
C106	C	0.923056	-0.500410	-0.000027
C107	C	1.256390	-0.167077	0.333307
C108	C	1.589723	0.166257	0.666640
N109	N	0.871345	-0.371855	-0.000025
N110	N	1.204679	-0.038522	0.333309
N111	N	1.538012	0.294811	0.666642
N112	N	0.929553	-0.416825	-0.000027
N113	N	1.262886	-0.083491	0.333306
N114	N	1.596220	0.249842	0.666640
C115	C	1.038464	0.099684	-0.000019
C116	C	1.371797	0.433018	0.333314
C117	C	1.705131	0.766351	0.666648
C118	C	1.122568	0.101078	-0.000025
C119	C	1.455901	0.434411	0.333308
C120	C	1.789235	0.767744	0.666641
C121	C	0.903596	0.249011	-0.000024
C122	C	1.236929	0.582344	0.333309
C123	C	1.570263	0.915677	0.666642
C124	C	0.910353	0.336042	-0.000029
C125	C	1.243687	0.669376	0.333304
C126	C	1.577020	1.002709	0.666637
N127	N	0.900432	0.105649	0.206533
N128	N	1.233765	0.438982	0.539866
N129	N	1.567099	0.772316	0.873199
N130	N	0.900476	0.105667	-0.206565
N131	N	1.233809	0.439000	0.126768
N132	N	1.567143	0.772334	0.460102
C133	C	0.948673	0.052277	0.248252
C134	C	1.282006	0.385611	0.581586
C135	C	1.615340	0.718944	0.914919
C136	C	0.948677	0.052277	0.331704
C137	C	1.282010	0.385610	0.665038
C138	C	1.615344	0.718943	0.998371
C139	C	0.900444	0.105652	0.373436
C140	C	1.233777	0.438985	0.706769
C141	C	1.567110	0.772319	1.040102
C142	C	0.852197	0.159027	0.331710
C143	C	1.185531	0.492360	0.665044
C144	C	1.518864	0.825693	0.998377
C145	C	0.852190	0.159023	0.248260
C146	C	1.185523	0.492356	0.581593
C147	C	1.518856	0.825690	0.914926
C148	C	0.852226	0.159042	0.668257
C149	C	1.185559	0.492375	1.001591
C150	C	1.518892	0.825709	1.334924
C151	C	0.852238	0.159043	0.751714
C152	C	1.185572	0.492376	1.085047
C153	C	1.518905	0.825710	1.418381
C154	C	0.948713	0.052296	0.751702
C155	C	1.282046	0.385629	1.085036
C156	C	1.615379	0.718962	1.418369
C157	C	0.948705	0.052292	0.668252
C158	C	1.282039	0.385625	1.001585
C159	C	1.615372	0.718959	1.334918
C160	C	0.900457	0.105663	0.626534
C161	C	1.233790	0.438997	0.959867
C162	C	1.567123	0.772330	1.293200
C163	C	0.900452	0.105662	0.536045
C164	C	1.233785	0.438996	0.869379
C165	C	1.567118	0.772329	1.202712
C166	C	0.900452	0.105657	0.463922
C167	C	1.233785	0.438991	0.797256
C168	C	1.567118	0.772324	1.130589
H169	H	0.662476	0.239733	-0.000011
H170	H	0.995809	0.573067	0.333322
H171	H	1.329142	0.906400	0.666655
Cl172	Cl	1.045702	-0.135597	0.000001
Cl173	Cl	1.379035	0.197736	0.333334
Cl174	Cl	1.712368	0.531070	0.666668
H175	H	0.786887	-0.639171	-0.000018
H176	H	1.120221	-0.305838	0.333315
H177	H	1.453554	0.027495	0.666648
Cl178	Cl	0.520738	-0.053788	-0.000039
Cl179	Cl	0.854072	0.279545	0.333294
Cl180	Cl	1.187405	0.612878	0.666627
Cl181	Cl	0.791538	0.226120	0.195813
Cl182	Cl	1.124871	0.559453	0.529146
Cl183	Cl	1.458205	0.892786	0.862480
H184	H	0.987997	0.008835	0.785678
H185	H	1.321331	0.342169	1.119011
H186	H	1.654664	0.675502	1.452345
Cl187	Cl	0.722688	-0.277394	-0.000035
Cl188	Cl	1.056021	0.055939	0.333299
Cl189	Cl	1.389354	0.389273	0.666632
H190	H	0.281800	-0.026045	-0.000027
H191	H	0.615134	0.307288	0.333306
H192	H	0.948467	0.640621	0.666639
H193	H	0.121390	0.230810	-0.000023
H194	H	0.454723	0.564143	0.333310
H195	H	0.788057	0.897477	0.666643
Cl196	Cl	1.031360	-0.320161	-0.000015
Cl197	Cl	1.364693	0.013172	0.333319
Cl198	Cl	1.698026	0.346505	0.666652
H199	H	0.765903	-0.115126	-0.000021
H200	H	1.099236	0.218207	0.333313
H201	H	1.432569	0.551540	0.666646
H202	H	0.679515	-0.019492	-0.000006
H203	H	1.012848	0.313841	0.333327
H204	H	1.346181	0.647174	0.666660
Cl205	Cl	1.063873	-0.695857	-0.000020
Cl206	Cl	1.397207	-0.362523	0.333313
Cl207	Cl	1.730540	-0.029190	0.666647
Cl208	Cl	0.123009	-0.060344	-0.000028
Cl209	Cl	0.456343	0.272989	0.333305
Cl210	Cl	0.789676	0.606322	0.666638
Cl211	Cl	0.791575	0.226138	0.615817
Cl212	Cl	1.124908	0.559472	0.949151
Cl213	Cl	1.458242	0.892805	1.282484
H214	H	0.812921	0.202483	0.365693
H215	H	1.146254	0.535817	0.699026
H216	H	1.479587	0.869150	1.032359
H217	H	1.046523	-0.525198	-0.000018
H218	H	1.379857	-0.191865	0.333316
H219	H	1.713190	0.141468	0.666649
Cl220	Cl	0.280168	0.265103	-0.000034
Cl221	Cl	0.613501	0.598436	0.333300
Cl222	Cl	0.946834	0.931770	0.666633
H223	H	0.519107	0.237368	-0.000015
H224	H	0.852440	0.570702	0.333318
H225	H	1.185773	0.904035	0.666651
Cl226	Cl	0.791596	0.226148	0.804175
Cl227	Cl	1.124929	0.559481	1.137509
Cl228	Cl	1.458263	0.892815	1.470842
H229	H	0.798413	-0.490825	-0.000036
H230	H	1.131746	-0.157492	0.333298
H231	H	1.465079	0.175841	0.666631
H232	H	0.987953	0.008816	0.214280
H233	H	1.321287	0.342149	0.547613
H234	H	1.654620	0.675483	0.880947
H235	H	0.987958	0.008817	0.365672
H236	H	1.321291	0.342150	0.699005
H237	H	1.654625	0.675483	1.032339
H238	H	0.987984	0.008831	0.634277
H239	H	1.321317	0.342165	0.967610
H240	H	1.654651	0.675498	1.300943
