data_functionalizedCrystal
_audit_creation_method	'MofGen! by Chris Wilmer'
_symmetry_space_group_name_H-M	'P1'
_symmetry_Int_Tables_number	1
_symmetry_cell_setting	triclinic
loop_
_symmetry_equiv_pos_as_xyz
  x,y,z
_cell_length_a	17.077404
_cell_length_b	16.120444
_cell_length_c	17.077396
_cell_angle_alpha	92.869489
_cell_angle_beta	89.978556
_cell_angle_gamma	92.924939
loop_
_atom_site_label
_atom_site_type_symbol
_atom_site_fract_x
_atom_site_fract_y
_atom_site_fract_z
Zn1	Zn	1.184187	-0.331947	-0.459719
Zn2	Zn	1.177429	-0.471371	-0.335105
Zn3	Zn	1.052917	-0.331972	-0.328464
Zn4	Zn	1.046224	-0.471317	-0.466321
O5	O	1.115189	-0.401652	-0.397402
O6	O	1.293136	-0.350455	-0.443205
O7	O	1.160885	-0.452913	-0.224378
O8	O	1.075960	-0.215302	-0.340333
O9	O	1.288171	-0.452889	-0.351651
O10	O	1.172403	-0.215284	-0.436766
O11	O	1.069407	-0.350496	-0.219499
O12	O	0.942183	-0.350444	-0.346735
O13	O	1.064552	-0.452797	-0.575291
O14	O	0.937266	-0.452820	-0.448018
O15	O	1.165913	-0.350402	-0.570440
O16	O	1.154395	-0.588030	-0.358053
O17	O	1.057999	-0.587991	-0.454457
C18	C	0.911242	-0.401629	-0.397373
C19	C	0.823992	-0.401640	-0.397379
C20	C	0.450754	-0.348433	-0.445189
C21	C	0.532734	-0.348427	-0.445180
C22	C	0.571142	-0.401670	-0.397423
C23	C	0.527564	-0.454927	-0.349677
C24	C	0.445584	-0.454937	-0.349691
C25	C	0.698435	-0.454902	-0.349651
C26	C	0.780420	-0.454892	-0.349636
C27	C	0.785585	-0.348392	-0.445140
C28	C	0.703606	-0.348402	-0.445153
C29	C	0.660033	-0.401659	-0.397407
C30	C	1.104759	-0.618261	-0.407709
C31	C	1.100368	-0.710927	-0.412145
C32	C	1.138156	-0.921869	-0.374561
C33	C	1.092367	-0.880584	-0.420251
C34	C	1.096820	-0.786178	-0.415739
C35	C	1.133704	-1.016283	-0.379072
C36	C	1.319932	-0.401675	-0.397433
C37	C	1.407182	-0.401685	-0.397445
C38	C	1.115240	-0.401591	-0.602144
C39	C	1.115261	-0.401564	-0.689392
C40	C	1.125682	-0.184197	-0.387072
C41	C	1.130153	-0.091531	-0.382670
C42	C	1.168041	-0.348243	-0.727858
C43	C	1.168052	-0.348215	-0.809837
C44	C	1.115286	-0.401514	-0.853349
C45	C	1.062500	-0.454837	-0.814878
C46	C	1.062486	-0.454860	-0.732900
C47	C	1.062534	-0.454787	-0.985746
C48	C	1.062548	-0.454766	-1.067730
C49	C	1.168100	-0.348142	-1.062683
C50	C	1.168086	-0.348165	-0.980705
C51	C	1.115301	-0.401490	-0.942239
C52	C	1.115187	-0.401653	-0.193454
C53	C	1.115329	-0.401444	-0.106195
H54	H	0.568207	-0.305067	-0.484060
H55	H	1.019580	-0.498164	-1.103155
Cl56	Cl	0.402479	-0.281491	-0.505225
Cl57	Cl	0.655323	-0.281464	-0.505188
Cl58	Cl	1.234384	-0.281239	-0.673165
H59	H	1.180699	-0.886318	-0.332059
Cl60	Cl	1.234441	-0.281217	-0.858192
Cl61	Cl	0.840361	-0.281436	-0.505159
H62	H	1.211079	-0.304722	-1.094005
Cl63	Cl	0.575847	-0.521865	-0.289643
H64	H	0.662960	-0.498273	-0.310774
Cl65	Cl	0.996128	-0.521893	-0.684543
H66	H	0.811689	-0.498249	-0.310750
H67	H	0.410108	-0.498302	-0.310815
Cl68	Cl	1.026676	-0.935475	-0.485873
H69	H	1.211058	-0.304770	-0.945279
Cl70	Cl	0.996173	-0.521824	-0.937390
H71	H	1.019534	-0.498231	-0.850312
