data_functionalizedCrystal
_audit_creation_method	'MofGen! by Chris Wilmer'
_symmetry_space_group_name_H-M	'P1'
_symmetry_Int_Tables_number	1
_symmetry_cell_setting	triclinic
loop_
_symmetry_equiv_pos_as_xyz
  x,y,z
_cell_length_a	14.044220
_cell_length_b	16.992695
_cell_length_c	16.053802
_cell_angle_alpha	87.258926
_cell_angle_beta	87.189254
_cell_angle_gamma	88.071450
loop_
_atom_site_label
_atom_site_type_symbol
_atom_site_fract_x
_atom_site_fract_y
_atom_site_fract_z
O1	O	1.275866	-0.187009	-0.069341
O2	O	0.999379	-0.180151	-0.069362
O3	O	1.136514	-0.069360	-0.069345
O4	O	1.138731	-0.297800	-0.069358
O5	O	1.128964	-0.075431	0.069513
O6	O	0.991829	-0.186221	0.069496
O7	O	1.268316	-0.193080	0.069517
Zn8	Zn	1.128874	-0.190615	0.091553
Zn9	Zn	1.138822	-0.182616	-0.091398
O10	O	1.131181	-0.303871	0.069500
C11	C	0.960062	-0.180184	0.000064
C12	C	0.854158	-0.171230	0.000056
C13	C	0.660256	-0.154860	0.000074
C14	C	0.607434	-0.218367	0.000074
C15	C	0.499540	-0.209259	0.000083
C16	C	0.768160	-0.163967	0.000064
C17	C	1.129887	-0.042984	0.000084
C18	C	1.121378	0.044656	0.000083
C19	C	1.307633	-0.193047	0.000089
C20	C	1.413537	-0.202001	0.000091
C21	C	1.137808	-0.330247	0.000069
C22	C	1.146317	-0.417886	0.000065
N23	N	1.122091	-0.196073	0.216412
C24	C	1.203475	0.089154	0.000090
C25	C	1.195475	0.171500	0.000081
C26	C	1.105377	0.209347	0.000072
C27	C	1.023275	0.164843	0.000062
C28	C	1.031276	0.082498	0.000065
C29	C	1.072216	0.455265	0.000058
C30	C	1.064221	0.537616	0.000058
C31	C	1.236421	0.544267	0.000075
C32	C	1.244414	0.461920	0.000083
C33	C	1.162312	0.417424	0.000069
N34	N	1.097198	0.293518	0.000066
N35	N	1.170493	0.333254	0.000069
N36	N	1.145611	-0.177152	-0.216258
C37	C	1.180467	-0.148952	0.260114
C38	C	1.175732	-0.152778	0.347520
C39	C	1.112626	-0.203731	0.391223
C40	C	1.054244	-0.250855	0.347516
C41	C	1.058975	-0.247023	0.260111
C42	C	1.091960	-0.220444	0.652630
C43	C	1.087236	-0.224273	0.740041
C44	C	1.208722	-0.126196	0.740039
C45	C	1.213452	-0.122372	0.652633
C46	C	1.155066	-0.169493	0.608933
N47	N	1.107787	-0.207646	0.480566
N48	N	1.159901	-0.165574	0.519591
H49	H	0.643242	-0.279576	0.000066
C50	C	1.343522	0.420295	0.000083
H51	H	1.391272	0.458591	0.000077
H52	H	1.347594	0.386194	0.048504
H53	H	1.352850	0.390428	-0.048348
H54	H	1.035845	-0.265768	0.775620
H55	H	1.005362	0.419046	0.000046
H56	H	0.624450	-0.093656	0.000082
H57	H	1.276842	0.058345	0.000103
H58	H	1.011438	-0.285394	0.224531
C59	C	1.282862	-0.066319	0.604565
H60	H	1.316945	-0.038797	0.643111
H61	H	1.326521	-0.095973	0.570456
H62	H	1.247936	-0.029595	0.570481
H63	H	1.262327	0.207727	0.000089
H64	H	0.990848	0.568427	0.000063
C65	C	1.326726	0.593215	0.000079
H66	H	1.309061	0.647677	0.000068
H67	H	1.360785	0.578975	0.048502
H68	H	1.366040	0.583198	-0.048350
H69	H	0.949916	0.195665	0.000049
C70	C	0.940970	0.033550	0.000059
H71	H	0.886165	0.067882	0.000060
H72	H	0.943147	0.003403	-0.048364
H73	H	0.937878	-0.000824	0.048488
C74	C	1.249882	-0.092902	0.212047
H75	H	1.283963	-0.065381	0.250596
H76	H	1.293543	-0.122554	0.177939
H77	H	1.214957	-0.056176	0.177964
C78	C	1.027747	-0.272282	0.604571
H79	H	0.989496	-0.303181	0.643120
H80	H	0.987775	-0.239641	0.570485
H81	H	1.066361	-0.306019	0.570466
C82	C	1.239954	-0.100953	0.395588
H83	H	1.278225	-0.070068	0.357041
H84	H	1.201356	-0.067214	0.429697
H85	H	1.279922	-0.133608	0.429671
H86	H	1.256256	-0.087831	0.775627
H87	H	1.002857	-0.292339	0.383104
