data_functionalizedCrystal
_audit_creation_method	'MofGen! by Chris Wilmer'
_symmetry_space_group_name_H-M	'P1'
_symmetry_Int_Tables_number	1
_symmetry_cell_setting	triclinic
loop_
_symmetry_equiv_pos_as_xyz
  x,y,z
_cell_length_a	21.295419
_cell_length_b	19.805407
_cell_length_c	19.805399
_cell_angle_alpha	90.017803
_cell_angle_beta	89.985581
_cell_angle_gamma	90.000967
loop_
_atom_site_label
_atom_site_type_symbol
_atom_site_fract_x
_atom_site_fract_y
_atom_site_fract_z
Zn1	Zn	0.250669	1.034852	0.382750
Zn2	Zn	0.750669	1.534852	0.882750
Zn3	Zn	0.355937	1.034815	0.269587
Zn4	Zn	0.855937	1.534815	0.769587
Zn5	Zn	0.250681	0.921666	0.269578
Zn6	Zn	0.750681	1.421666	0.769578
Zn7	Zn	0.355899	0.921679	0.382738
Zn8	Zn	0.855899	1.421679	0.882738
O9	O	0.303297	0.978253	0.326163
O10	O	0.803297	1.478253	0.826163
O11	O	0.264644	1.129564	0.367747
O12	O	0.764644	1.629564	0.867747
O13	O	0.341996	1.019786	0.174869
O14	O	0.841996	1.519786	0.674869
O15	O	0.162590	0.936691	0.284591
O16	O	0.662590	1.436691	0.784591
O17	O	0.341984	1.129537	0.284608
O18	O	0.841984	1.629537	0.784608
O19	O	0.162581	1.019848	0.367738
O20	O	0.662581	1.519848	0.867738
O21	O	0.264665	0.936656	0.174862
O22	O	0.764665	1.436656	0.674862
O23	O	0.264628	0.826952	0.284580
O24	O	0.764628	1.326952	0.784580
O25	O	0.341919	0.936712	0.477456
O26	O	0.841919	1.436712	0.977456
O27	O	0.341931	0.826961	0.367718
O28	O	0.841931	1.326961	0.867718
O29	O	0.264607	1.019860	0.477465
O30	O	0.764607	1.519860	0.977465
O31	O	0.444022	1.019798	0.284596
O32	O	0.944022	1.519798	0.784596
O33	O	0.443994	0.936677	0.367727
O34	O	0.943994	1.436677	0.867727
C35	C	0.303277	0.802397	0.326147
C36	C	0.803277	1.302397	0.826147
C37	C	0.303284	0.727165	0.326156
C38	C	0.803284	1.227165	0.826156
C39	C	0.263084	0.691836	0.369512
C40	C	0.763084	1.191836	0.869512
C41	C	0.263087	0.621147	0.369515
C42	C	0.763087	1.121147	0.869515
C43	C	0.303294	0.585790	0.326164
C44	C	0.803294	1.085790	0.826164
C45	C	0.343496	0.621124	0.282802
C46	C	0.843496	1.121124	0.782802
C47	C	0.343489	0.691811	0.282797
C48	C	0.843489	1.191811	0.782797
C49	C	0.343524	0.336051	0.282823
C50	C	0.843524	0.836051	0.782823
C51	C	0.343529	0.265359	0.282833
C52	C	0.843529	0.765359	0.782833
C53	C	0.263122	0.265387	0.369541
C54	C	0.763122	0.765387	0.869541
C55	C	0.263115	0.336074	0.369536
C56	C	0.763115	0.836074	0.869536
C57	C	0.303314	0.371402	0.326172
C58	C	0.803314	0.871402	0.826172
C59	C	0.303310	0.448051	0.326169
C60	C	0.803310	0.948051	0.826169
C61	C	0.303302	0.509142	0.326170
C62	C	0.803302	1.009142	0.826170
C63	C	0.139106	0.978272	0.326165
C64	C	0.639106	1.478272	0.826165
C65	C	0.069138	0.978280	0.326166
C66	C	0.569138	1.478280	0.826166
C67	C	0.036262	0.935003	0.369444
C68	C	0.536262	1.435003	0.869444
C69	C	-0.029481	0.935010	0.369454
C70	C	0.470519	1.435010	0.869454
C71	C	-0.062344	0.978286	0.326173
C72	C	0.437656	1.478286	0.826173
C73	C	-0.029459	1.021571	0.282891
C74	C	0.470541	1.521571	0.782891
C75	C	0.036282	1.021568	0.282888
C76	C	0.536282	1.521568	0.782888
N77	N	-0.165553	0.983468	0.266931
N78	N	0.334447	1.483468	0.766931
N79	N	-0.228004	0.983466	0.266936
N80	N	0.271996	1.483466	0.766936
C81	C	-0.260419	0.978298	0.326182
C82	C	0.239581	1.478298	0.826182
N83	N	-0.228023	0.973118	0.385423
N84	N	0.271977	1.473118	0.885423
N85	N	-0.165566	0.973115	0.385417
N86	N	0.334434	1.473115	0.885417
C87	C	-0.133630	0.978294	0.326172
C88	C	0.366370	1.478294	0.826172
C89	C	-0.364581	0.935026	0.369474
C90	C	0.135419	1.435026	0.869474
C91	C	-0.430325	0.935037	0.369485
C92	C	0.069675	1.435037	0.869485
C93	C	-0.430302	1.021595	0.282916
C94	C	0.069698	1.521595	0.782916
C95	C	-0.364560	1.021587	0.282912
C96	C	0.135440	1.521587	0.782912
C97	C	-0.331703	0.978299	0.326190
C98	C	0.168297	1.478299	0.826190
C99	C	0.466848	0.978253	0.326176
C100	C	0.966848	1.478253	0.826176
C101	C	0.536816	0.978315	0.326204
C102	C	1.036816	1.478315	0.826204
C103	C	0.303257	0.978291	0.502706
C104	C	0.803257	1.478291	1.002706
C105	C	0.303240	0.978307	0.577938
C106	C	0.803240	1.478307	1.077938
C107	C	0.303317	1.154796	0.326180
C108	C	0.803317	1.654796	0.826180
C109	C	0.303326	1.230028	0.326187
C110	C	0.803326	1.730028	0.826187
C111	C	0.303291	0.978254	0.150307
C112	C	0.803291	1.478254	0.650307
C113	C	0.303130	0.978369	0.075075
C114	C	0.803130	1.478369	0.575075
C115	C	0.262982	1.021603	0.613288
C116	C	0.762982	1.521603	1.113288
C117	C	0.262963	1.021610	0.683976
C118	C	0.762963	1.521610	1.183976
C119	C	0.303207	0.978324	0.719314
C120	C	0.803207	1.478324	1.219314
C121	C	0.343468	0.935023	0.683959
C122	C	0.843468	1.435023	1.183959
C123	C	0.343482	0.935013	0.613272
C124	C	0.843482	1.435013	1.113272
C125	C	0.343409	0.935061	0.969032
C126	C	0.843409	1.435061	1.469032
C127	C	0.343392	0.935076	1.039724
C128	C	0.843392	1.435076	1.539724
C129	C	0.262890	1.021658	1.039737
C130	C	0.762890	1.521658	1.539737
C131	C	0.262905	1.021648	0.969050
C132	C	0.762905	1.521648	1.469050
C133	C	0.303162	0.978345	0.933701
C134	C	0.803162	1.478345	1.433701
C135	C	0.303181	0.978337	0.857053
C136	C	0.803181	1.478337	1.357053
C137	C	0.303192	0.978335	0.795961
C138	C	0.803192	1.478335	1.295961
H139	H	0.376223	0.720576	0.247491
H140	H	0.876223	1.220576	0.747491
H141	H	0.376230	0.592330	0.247502
H142	H	0.876230	1.092330	0.747502
H143	H	0.063009	0.899753	0.404682
H144	H	0.563009	1.399753	0.904682
C145	C	0.387206	0.227091	0.235686
C146	C	0.887206	0.727091	0.735686
C147	C	0.422397	0.273158	0.197694
C148	C	0.922397	0.773158	0.697694
C149	C	0.462630	0.237931	0.154252
C150	C	0.962630	0.737931	0.654252
H151	H	0.414725	0.199528	0.261457
H152	H	0.914725	0.699528	0.761457
H153	H	0.363102	0.199514	0.206206
H154	H	0.863102	0.699514	0.706206
H155	H	0.446498	0.300723	0.227170
H156	H	0.946498	0.800723	0.727170
H157	H	0.394894	0.300723	0.171909
H158	H	0.894894	0.800723	0.671909
H159	H	0.438526	0.210354	0.124772
H160	H	0.938526	0.710354	0.624772
H161	H	0.490145	0.210369	0.180029
H162	H	0.990145	0.710369	0.680029
H163	H	0.486507	0.269182	0.128466
H164	H	0.986507	0.769182	0.628466
C165	C	0.219180	1.068517	0.574962
C166	C	0.719180	1.568517	1.074962
C167	C	0.156893	1.053773	0.592145
C168	C	0.656893	1.553773	1.092145
C169	C	0.116523	1.096970	0.556849
C170	C	0.616523	1.596970	1.056849
H171	H	0.228311	1.114019	0.586526
H172	H	0.728311	1.614019	1.086526
H173	H	0.224910	1.062308	0.527793
H174	H	0.724910	1.562308	1.027793
H175	H	0.151166	1.059988	0.639303
H176	H	0.651166	1.559988	1.139303
H177	H	0.147743	1.008279	0.580579
H178	H	0.647743	1.508279	1.080579
H179	H	0.122253	1.090761	0.509680
H180	H	0.622253	1.590761	1.009680
H181	H	0.125659	1.142469	0.568416
H182	H	0.625659	1.642469	1.068416
H183	H	0.074256	1.086968	0.568498
H184	H	0.574256	1.586968	1.068498
H185	H	-0.337828	0.899788	0.404723
H186	H	0.162172	1.399788	0.904723
C187	C	-0.466136	0.888123	0.416451
C188	C	0.033864	1.388123	0.916451
C189	C	-0.530743	0.897404	0.407209
C190	C	-0.030743	1.397404	0.907209
C191	C	-0.563752	0.854205	0.450470
C192	C	-0.063752	1.354205	0.950470
H193	H	-0.455441	0.842616	0.406580
H194	H	0.044559	1.342616	0.906580
H195	H	-0.455404	0.898041	0.461944
H196	H	0.044596	1.398041	0.961944
H197	H	-0.541471	0.887482	0.361727
H198	H	-0.041471	1.387482	0.861727
H199	H	-0.541456	0.942903	0.417086
H200	H	-0.041456	1.442903	0.917086
H201	H	-0.553020	0.864123	0.495962
H202	H	-0.053020	1.364123	0.995962
H203	H	-0.553052	0.808700	0.440594
H204	H	-0.053052	1.308700	0.940594
H205	H	-0.607591	0.860501	0.444209
H206	H	-0.107591	1.360501	0.944209
C207	C	0.219392	0.374339	0.416628
C208	C	0.719392	0.874339	0.916628
C209	C	0.184174	0.328269	0.454587
C210	C	0.684174	0.828269	0.954587
C211	C	0.143881	0.363493	0.497967
C212	C	0.643881	0.863493	0.997967
H213	H	0.243434	0.401933	0.446137
H214	H	0.743434	0.901933	0.946137
H215	H	0.191897	0.401885	0.390793
H216	H	0.691897	0.901885	0.890793
H217	H	0.211665	0.300734	0.480420
H218	H	0.711665	0.800734	0.980420
H219	H	0.160119	0.300674	0.425096
H220	H	0.660119	0.800674	0.925096
H221	H	0.116386	0.391039	0.472132
H222	H	0.616386	0.891039	0.972132
H223	H	0.167928	0.391085	0.527471
H224	H	0.667928	0.891085	1.027471
H225	H	0.119976	0.332239	0.523723
H226	H	0.619976	0.832239	1.023723
C227	C	0.387211	0.374485	0.235859
C228	C	0.887211	0.874485	0.735859
C229	C	0.427592	0.415100	0.274109
C230	C	0.927592	0.915100	0.774109
C231	C	0.467843	0.450523	0.230867
C232	C	0.967843	0.950523	0.730867
H233	H	0.411218	0.343377	0.210031
H234	H	0.911218	0.843377	0.710031
H235	H	0.363114	0.402084	0.206412
H236	H	0.863114	0.902084	0.706412
H237	H	0.451687	0.387503	0.303544
H238	H	0.951687	0.887503	0.803544
H239	H	0.403603	0.446220	0.299935
H240	H	0.903603	0.946220	0.799935
H241	H	0.443746	0.478122	0.201420
H242	H	0.943746	0.978122	0.701420
H243	H	0.491845	0.419410	0.205042
H244	H	0.991845	0.919410	0.705042
H245	H	0.495242	0.478088	0.256813
H246	H	0.995242	0.978088	0.756813
C247	C	-0.065023	1.068628	0.235871
C248	C	0.434977	1.568628	0.735871
C249	C	-0.022156	1.106540	0.197978
C250	C	0.477844	1.606540	0.697978
C251	C	-0.054893	1.149905	0.154663
C252	C	0.445107	1.649905	0.654663
H253	H	-0.090665	1.042804	0.206318
H254	H	0.409335	1.542804	0.706318
H255	H	-0.090660	1.098161	0.261751
H256	H	0.409340	1.598161	0.761751
H257	H	0.003471	1.077010	0.172100
H258	H	0.503471	1.577010	0.672100
H259	H	0.003487	1.132377	0.227513
H260	H	0.503487	1.632377	0.727513
H261	H	-0.080530	1.179438	0.180542
H262	H	0.419470	1.679438	0.680542
H263	H	-0.080533	1.124076	0.125114
H264	H	0.419467	1.624076	0.625114
H265	H	-0.025812	1.175637	0.128952
H266	H	0.474188	1.675637	0.628952
C267	C	0.219268	1.068607	0.930562
C268	C	0.719268	1.568607	1.430562
C269	C	0.227905	1.059339	0.861091
C270	C	0.727905	1.559339	1.361091
C271	C	0.187716	1.102585	0.825616
C272	C	0.687716	1.602585	1.325616
H273	H	0.176948	1.058739	0.942070
H274	H	0.676948	1.558739	1.442070
H275	H	0.228479	1.114104	0.942108
H276	H	0.728479	1.614104	1.442108
H277	H	0.218690	1.013852	0.849550
H278	H	0.718690	1.513852	1.349550
H279	H	0.270217	1.069211	0.849563
H280	H	0.770217	1.569211	1.349563
H281	H	0.196927	1.148082	0.837162
H282	H	0.696927	1.648082	1.337162
H283	H	0.145398	1.092714	0.837130
H284	H	0.645398	1.592714	1.337130
H285	H	0.193575	1.096307	0.778477
H286	H	0.693575	1.596307	1.278477
C287	C	-0.466088	1.068507	0.235950
C288	C	0.033912	1.568507	0.735950
C289	C	-0.530699	1.059238	0.245204
C290	C	-0.030699	1.559238	0.745204
C291	C	-0.563686	1.102438	0.201945
C292	C	-0.063686	1.602438	0.701945
H293	H	-0.455388	1.114014	0.245815
H294	H	0.044612	1.614014	0.745815
H295	H	-0.455342	1.058583	0.190457
H296	H	0.044658	1.558583	0.690457
H297	H	-0.541440	1.069167	0.290687
H298	H	-0.041440	1.569167	0.790687
H299	H	-0.541417	1.013740	0.235334
H300	H	-0.041417	1.513740	0.735334
H301	H	-0.552941	1.092514	0.156451
H302	H	-0.052941	1.592514	0.656451
H303	H	-0.552982	1.147942	0.211814
H304	H	-0.052982	1.647942	0.711814
H305	H	-0.607528	1.096150	0.208213
H306	H	-0.107528	1.596150	0.708213
H307	H	0.063050	1.056810	0.247645
H308	H	0.563050	1.556810	0.747645
H309	H	-0.337791	1.056825	0.247667
H310	H	0.162209	1.556825	0.747667
C311	C	0.387010	0.887970	0.930616
C312	C	0.887010	1.387970	1.430616
C313	C	0.351364	0.844577	0.890045
C314	C	0.851364	1.344577	1.390045
C315	C	0.391507	0.801180	0.854646
C316	C	0.891507	1.301180	1.354646
H317	H	0.414457	0.913775	0.902986
H318	H	0.914457	1.413775	1.402986
H319	H	0.410968	0.862151	0.961759
H320	H	0.910968	1.362151	1.461759
H321	H	0.327416	0.870393	0.858905
H322	H	0.827416	1.370393	1.358905
H323	H	0.323919	0.818756	0.917658
H324	H	0.823919	1.318756	1.417658
H325	H	0.415465	0.775360	0.885790
H326	H	0.915465	1.275360	1.385790
H327	H	0.418952	0.826990	0.827020
H328	H	0.918952	1.326990	1.327020
H329	H	0.367327	0.771728	0.827119
H330	H	0.867327	1.271728	1.327119
H331	H	0.230182	1.056868	0.712755
H332	H	0.730182	1.556868	1.212755
C333	C	0.219197	1.068594	1.078239
C334	C	0.719197	1.568594	1.578239
C335	C	0.227780	1.059327	1.147707
C336	C	0.727780	1.559327	1.647707
C337	C	0.187538	1.102546	1.183194
C338	C	0.687538	1.602546	1.683194
H339	H	0.228379	1.114096	1.066744
H340	H	0.728379	1.614096	1.566744
H341	H	0.176890	1.058685	1.066689
H342	H	0.676890	1.558685	1.566689
H343	H	0.270078	1.069240	1.159252
H344	H	0.770078	1.569240	1.659252
H345	H	0.218594	1.013834	1.159222
H346	H	0.718594	1.513834	1.659222
H347	H	0.145231	1.092637	1.171644
H348	H	0.645231	1.592637	1.671644
H349	H	0.196723	1.148045	1.171694
H350	H	0.696723	1.648045	1.671694
H351	H	0.193352	1.096259	1.230331
H352	H	0.693352	1.596259	1.730331
C353	C	-0.065073	0.887950	0.416472
C354	C	0.434927	1.387950	0.916472
C355	C	-0.022227	0.850032	0.454363
C356	C	0.477773	1.350032	0.954363
C357	C	-0.054989	0.806669	0.497678
C358	C	0.445011	1.306669	0.997678
H359	H	-0.090724	0.913775	0.446026
H360	H	0.409276	1.413775	0.946026
H361	H	-0.090702	0.858420	0.390593
H362	H	0.409298	1.358420	0.890593
H363	H	0.003392	0.879558	0.480241
H364	H	0.503392	1.379558	0.980241
H365	H	0.003426	0.824193	0.424827
H366	H	0.503426	1.324193	0.924827
H367	H	-0.080619	0.777139	0.471799
H368	H	0.419381	1.277139	0.971799
H369	H	-0.080639	0.832500	0.527228
H370	H	0.419361	1.332500	1.027228
H371	H	-0.025923	0.780933	0.523388
H372	H	0.474077	1.280933	1.023388
C373	C	0.387109	0.887999	1.077970
C374	C	0.887109	1.387999	1.577970
C375	C	0.422356	0.850059	1.031885
C376	C	0.922356	1.350059	1.531885
C377	C	0.462625	0.806682	1.067092
C378	C	0.962625	1.306682	1.567092
H379	H	0.414591	0.913815	1.105550
H380	H	0.914591	1.413815	1.605550
H381	H	0.363029	0.858483	1.105528
H382	H	0.863029	1.358483	1.605528
H383	H	0.446434	0.879571	1.004339
H384	H	0.946434	1.379571	1.504339
H385	H	0.394890	0.824230	1.004303
H386	H	0.894890	1.324230	1.504303
H387	H	0.438546	0.777166	1.094650
H388	H	0.938546	1.277166	1.594650
H389	H	0.490104	0.832503	1.094671
H390	H	0.990104	1.332503	1.594671
H391	H	0.486541	0.780931	1.035829
H392	H	0.986541	1.280931	1.535829
C393	C	0.387264	0.888065	0.722237
C394	C	0.887264	1.388065	1.222237
C395	C	0.449551	0.902781	0.705029
C396	C	0.949551	1.402781	1.205029
C397	C	0.489915	0.859532	0.740269
C398	C	0.989915	1.359532	1.240269
H399	H	0.381576	0.894230	0.769409
H400	H	0.881576	1.394230	1.269409
H401	H	0.378085	0.842576	0.710632
H402	H	0.878085	1.342576	1.210632
H403	H	0.458726	0.948260	0.716638
H404	H	0.958726	1.448260	1.216638
H405	H	0.455258	0.896612	0.657863
H406	H	0.955258	1.396612	1.157863
H407	H	0.480736	0.814043	0.728664
H408	H	0.980736	1.314043	1.228664
H409	H	0.484222	0.865701	0.787439
H410	H	0.984222	1.365701	1.287439
H411	H	0.532180	0.869507	0.728594
H412	H	1.032180	1.369507	1.228594
H413	H	0.376258	0.899750	0.584491
H414	H	0.876258	1.399750	1.084491
H415	H	0.230344	0.720619	0.404816
H416	H	0.730344	1.220619	0.904816
H417	H	0.230353	0.592385	0.404822
H418	H	0.730353	1.092385	0.904822
H419	H	0.230388	0.236614	0.404848
H420	H	0.730388	0.736614	0.904848
