data_functionalizedCrystal
_audit_creation_method	'MofGen! by Chris Wilmer'
_symmetry_space_group_name_H-M	'P1'
_symmetry_Int_Tables_number	1
_symmetry_cell_setting	triclinic
loop_
_symmetry_equiv_pos_as_xyz
  x,y,z
_cell_length_a	19.805407
_cell_length_b	17.637651
_cell_length_c	19.805399
_cell_angle_alpha	78.755479
_cell_angle_beta	89.983114
_cell_angle_gamma	101.218564
loop_
_atom_site_label
_atom_site_type_symbol
_atom_site_fract_x
_atom_site_fract_y
_atom_site_fract_z
Zn1	Zn	0.980290	-0.314769	-0.328179
Zn2	Zn	1.313623	0.018564	0.005154
Zn3	Zn	1.646956	0.351898	0.338488
Zn4	Zn	0.957347	-0.446988	-0.192081
Zn5	Zn	1.290680	-0.113655	0.141252
Zn6	Zn	1.624014	0.219678	0.474586
Zn7	Zn	0.867105	-0.314794	-0.214999
Zn8	Zn	1.200439	0.018539	0.118334
Zn9	Zn	1.533772	0.351872	0.451667
Zn10	Zn	0.844213	-0.446943	-0.305236
Zn11	Zn	1.177546	-0.113610	0.028098
Zn12	Zn	1.510880	0.219723	0.361431
O13	O	0.912239	-0.380874	-0.260124
O14	O	1.245572	-0.047540	0.073210
O15	O	1.578905	0.285793	0.406543
O16	O	1.071961	-0.332317	-0.310136
O17	O	1.405295	0.001017	0.023197
O18	O	1.738628	0.334350	0.356531
O19	O	0.945355	-0.429482	-0.100399
O20	O	1.278689	-0.096149	0.232934
O21	O	1.612022	0.237185	0.566267
O22	O	0.901301	-0.204152	-0.249206
O23	O	1.234635	0.129182	0.084127
O24	O	1.567968	0.462515	0.417460
O25	O	1.055106	-0.429458	-0.210145
O26	O	1.388439	-0.096124	0.123188
O27	O	1.721772	0.237209	0.456521
O28	O	0.984457	-0.204133	-0.332359
O29	O	1.317791	0.129200	0.000974
O30	O	1.651124	0.462533	0.334308
O31	O	0.879055	-0.332359	-0.117237
O32	O	1.212388	0.000974	0.216096
O33	O	1.545722	0.334307	0.549429
O34	O	0.769353	-0.332316	-0.226959
O35	O	1.102687	0.001018	0.106374
O36	O	1.436020	0.334351	0.439708
O37	O	0.862285	-0.429381	-0.403001
O38	O	1.195618	-0.096047	-0.069667
O39	O	1.528952	0.237286	0.263666
O40	O	0.752535	-0.429405	-0.293255
O41	O	1.085868	-0.096072	0.040078
O42	O	1.419201	0.237262	0.373412
O43	O	0.962260	-0.332273	-0.419857
O44	O	1.295593	0.001060	-0.086524
O45	O	1.628926	0.334394	0.246809
O46	O	0.923158	-0.557622	-0.187898
O47	O	1.256491	-0.224288	0.145435
O48	O	1.589824	0.109045	0.478769
O49	O	0.840038	-0.557588	-0.271032
O50	O	1.173372	-0.224255	0.062301
O51	O	1.506705	0.109078	0.395635
C52	C	0.736385	-0.380859	-0.260105
C53	C	1.069719	-0.047525	0.073229
C54	C	1.403052	0.285808	0.406562
C55	C	0.661151	-0.380871	-0.260109
C56	C	0.994485	-0.047538	0.073224
C57	C	1.327818	0.285795	0.406558
C58	C	0.876643	-0.586292	-0.224503
C59	C	1.209976	-0.252959	0.108830
C60	C	1.543309	0.080374	0.442164
C61	C	0.861477	-0.674171	-0.209287
C62	C	1.194810	-0.340838	0.124046
C63	C	1.528143	-0.007505	0.457380
C64	C	0.617054	-0.431502	-0.294546
C65	C	0.950387	-0.098168	0.038787
C66	C	1.283721	0.235165	0.372120
C67	C	0.546365	-0.431503	-0.294555
C68	C	0.879699	-0.098170	0.038778
C69	C	1.213032	0.235164	0.372111
C70	C	0.519775	-0.380877	-0.260123
C71	C	0.853108	-0.047544	0.073210
C72	C	1.186441	0.285789	0.406544
C73	C	0.563878	-0.330241	-0.225685
C74	C	0.897211	0.003092	0.107648
C75	C	1.230544	0.336425	0.440982
C76	C	0.634566	-0.330236	-0.225680
C77	C	0.967899	0.003097	0.107653
C78	C	1.301232	0.336430	0.440986
C79	C	0.278801	-0.330259	-0.225704
C80	C	0.612135	0.003075	0.107629
C81	C	0.945468	0.336408	0.440962
C82	C	0.208107	-0.330269	-0.225710
C83	C	0.541441	0.003064	0.107623
C84	C	0.874774	0.336398	0.440957
C85	C	0.190601	-0.431525	-0.294580
C86	C	0.523934	-0.098192	0.038754
C87	C	0.857268	0.235141	0.372087
C88	C	0.261289	-0.431521	-0.294575
C89	C	0.594622	-0.098187	0.038758
C90	C	0.927956	0.235146	0.372092
C91	C	0.305386	-0.380882	-0.260140
C92	C	0.638720	-0.047549	0.073193
C93	C	0.972053	0.285785	0.406527
C94	C	0.382035	-0.380880	-0.260131
C95	C	0.715368	-0.047547	0.073202
C96	C	1.048702	0.285787	0.406535
C97	C	0.443126	-0.380883	-0.260127
C98	C	0.776460	-0.047549	0.073206
C99	C	1.109793	0.285784	0.406539
C100	C	1.027894	-0.962852	-0.375932
C101	C	1.361228	-0.629519	-0.042598
C102	C	1.694561	-0.296185	0.290735
C103	C	1.013622	-1.045428	-0.361622
C104	C	1.346955	-0.712094	-0.028289
C105	C	1.680289	-0.378761	0.305045
C106	C	0.927089	-1.045554	-0.274952
C107	C	1.260423	-0.712221	0.058382
C108	C	1.593756	-0.378887	0.391715
C109	C	0.941357	-0.962977	-0.289251
C110	C	1.274690	-0.629643	0.044082
C111	C	1.608023	-0.296310	0.377415
C112	C	0.991760	-0.921632	-0.339743
C113	C	1.325093	-0.588299	-0.006409
C114	C	1.658426	-0.254965	0.326924
C115	C	0.905222	-0.921757	-0.253063
C116	C	1.238555	-0.588424	0.080271
C117	C	1.571889	-0.255090	0.413604
C118	C	0.919486	-0.839187	-0.267364
C119	C	1.252819	-0.505854	0.065969
C120	C	1.586153	-0.172520	0.399303
C121	C	0.969885	-0.797836	-0.317855
C122	C	1.303218	-0.464503	0.015479
C123	C	1.636552	-0.131170	0.348812
C124	C	1.006024	-0.839062	-0.354044
C125	C	1.339357	-0.505729	-0.020711
C126	C	1.672690	-0.172395	0.312622
C127	C	0.854816	-0.963103	-0.202575
C128	C	1.188149	-0.629770	0.130758
C129	C	1.521483	-0.296436	0.464092
C130	C	0.818681	-0.921883	-0.166386
C131	C	1.152014	-0.588550	0.166947
C132	C	1.485348	-0.255217	0.500281
C133	C	0.832948	-0.839312	-0.180684
C134	C	1.166282	-0.505978	0.152649
C135	C	1.499615	-0.172645	0.485983
C136	C	0.883347	-0.797961	-0.231174
C137	C	1.216681	-0.464628	0.102159
C138	C	1.550014	-0.131295	0.435492
C139	C	0.796810	-0.798086	-0.144494
C140	C	1.130143	-0.464753	0.188839
C141	C	1.463476	-0.131419	0.522172
C142	C	0.811074	-0.715516	-0.158796
C143	C	1.144407	-0.382183	0.174538
C144	C	1.477740	-0.048849	0.507871
C145	C	0.897611	-0.715391	-0.245476
C146	C	1.230945	-0.382058	0.087857
C147	C	1.564278	-0.048724	0.421191
C148	C	1.088779	-0.380890	-0.260143
C149	C	1.422112	-0.047556	0.073190
C150	C	1.755445	0.285777	0.406523
C151	C	1.164010	-0.380896	-0.260152
C152	C	1.497343	-0.047563	0.073182
C153	C	1.830676	0.285770	0.406515
C154	C	0.912278	-0.380819	-0.436676
C155	C	1.245611	-0.047486	-0.103343
C156	C	1.578945	0.285848	0.229991
C157	C	0.912295	-0.380796	-0.511912
C158	C	1.245628	-0.047462	-0.178579
C159	C	1.578961	0.285871	0.154755
C160	C	0.947992	-0.174653	-0.295898
C161	C	1.281326	0.158680	0.037435
C162	C	1.614659	0.492014	0.370768
C163	C	0.963228	-0.086774	-0.311143
C164	C	1.296561	0.246559	0.022190
C165	C	1.629895	0.579893	0.355523
C166	C	0.877785	-0.330219	-0.556024
C167	C	1.211119	0.003114	-0.222691
C168	C	1.544452	0.336448	0.110642
C169	C	0.877797	-0.330204	-0.626715
C170	C	1.211130	0.003130	-0.293382
C171	C	1.544464	0.336463	0.039951
C172	C	0.912323	-0.380761	-0.653294
C173	C	1.245656	-0.047428	-0.319960
C174	C	1.578990	0.285905	0.013373
C175	C	0.946833	-0.431343	-0.609176
C176	C	1.280167	-0.098010	-0.275842
C177	C	1.613500	0.235323	0.057491
C178	C	0.946817	-0.431362	-0.538485
C179	C	1.280150	-0.098029	-0.205152
C180	C	1.613484	0.235304	0.128181
C181	C	0.946900	-0.431269	-0.894262
C182	C	1.280233	-0.097936	-0.560929
C183	C	1.613567	0.235397	-0.227595
C184	C	0.946915	-0.431245	-0.964958
C185	C	1.280249	-0.097912	-0.631625
C186	C	1.613582	0.235422	-0.298292
C187	C	0.877880	-0.330111	-0.982492
C188	C	1.211213	0.003222	-0.649159
C189	C	1.544547	0.336556	-0.315825
C190	C	0.877864	-0.330130	-0.911802
C191	C	1.211197	0.003204	-0.578468
C192	C	1.544530	0.336537	-0.245135
C193	C	0.912371	-0.380714	-0.867689
C194	C	1.245704	-0.047381	-0.534356
C195	C	1.579037	0.285952	-0.201023
C196	C	0.912356	-0.380731	-0.791038
C197	C	1.245690	-0.047398	-0.457705
C198	C	1.579023	0.285935	-0.124371
C199	C	0.912342	-0.380741	-0.729944
C200	C	1.245675	-0.047407	-0.396611
C201	C	1.579009	0.285926	-0.063278
C202	C	0.912249	-0.380871	-0.084268
C203	C	1.245582	-0.047538	0.249065
C204	C	1.578915	0.285795	0.582398
C205	C	0.912402	-0.380672	-0.009071
C206	C	1.245735	-0.047339	0.324262
C207	C	1.579068	0.285995	0.657596
H208	H	0.638698	-0.472730	-0.322582
H209	H	0.972031	-0.139396	0.010751
H210	H	1.305364	0.193937	0.344084
H211	H	0.510464	-0.472732	-0.322597
H212	H	0.843797	-0.139399	0.010736
H213	H	1.177130	0.193934	0.344070
Br214	Br	1.096310	-0.906733	-0.444446
Br215	Br	1.429643	-0.573400	-0.111112
Br216	Br	1.762977	-0.240067	0.222221
H217	H	1.043042	-1.078986	-0.391105
H218	H	1.376375	-0.745652	-0.057771
H219	H	1.709708	-0.412319	0.275562
H220	H	0.314696	-0.289032	-0.197659
H221	H	0.648030	0.044302	0.135674
H222	H	0.981363	0.377635	0.469007
H223	H	0.282934	-0.472748	-0.322610
H224	H	0.616268	-0.139415	0.010723
H225	H	0.949601	0.193919	0.344056
H226	H	1.047072	-0.805398	-0.395154
H227	H	1.380405	-0.472064	-0.061821
H228	H	1.713739	-0.138731	0.271512
H229	H	0.542223	-0.289018	-0.197653
H230	H	0.875556	0.044316	0.135680
H231	H	1.208889	0.377649	0.469014
Br232	Br	0.993647	-0.500010	-0.478616
Br233	Br	1.326980	-0.166677	-0.145283
Br234	Br	1.660314	0.166656	0.188050
Br235	Br	0.993683	-0.499966	-0.645244
Br236	Br	1.327017	-0.166632	-0.311911
Br237	Br	1.660350	0.166701	0.021422
H238	H	0.975032	-0.472418	-0.986595
H239	H	1.308365	-0.139085	-0.653262
H240	H	1.641698	0.194248	-0.319928
H241	H	0.849675	-0.289044	-0.534391
H242	H	1.183008	0.044289	-0.201058
H243	H	1.516341	0.377622	0.132276
H244	H	0.886050	-1.079228	-0.233843
H245	H	1.219383	-0.745895	0.099490
H246	H	1.552716	-0.412561	0.432824
H247	H	0.843197	-1.030337	-0.190939
H248	H	1.176531	-0.697004	0.142395
H249	H	1.509864	-0.363670	0.475728
Br250	Br	0.750273	-0.978001	-0.097872
Br251	Br	1.083606	-0.644667	0.235462
Br252	Br	1.416939	-0.311334	0.568795
H253	H	0.670470	-0.289004	-0.197642
H254	H	1.003804	0.044330	0.135691
H255	H	1.337137	0.377663	0.469024
H256	H	0.981498	-0.730603	-0.329498
H257	H	1.314832	-0.397269	0.003836
H258	H	1.648165	-0.063936	0.337169
Br259	Br	0.728396	-0.854206	-0.075986
Br260	Br	1.061729	-0.520873	0.257347
Br261	Br	1.395063	-0.187539	0.590681
H262	H	0.154689	-0.472755	-0.322621
H263	H	0.488022	-0.139422	0.010712
H264	H	0.821355	0.193912	0.344045
Br265	Br	0.993736	-0.499915	-0.834405
Br266	Br	1.327069	-0.166582	-0.501072
Br267	Br	1.660403	0.166751	-0.167738
Br268	Br	0.762034	-0.659570	-0.109682
Br269	Br	1.095368	-0.326236	0.223652
Br270	Br	1.428701	0.007097	0.556985
Br271	Br	0.831010	-0.261509	-0.875735
Br272	Br	1.164344	0.071825	-0.542402
Br273	Br	1.497677	0.405158	-0.209069
Br274	Br	0.172021	-0.261559	-0.178977
Br275	Br	0.505354	0.071775	0.154357
Br276	Br	0.838687	0.405108	0.487690
Br277	Br	0.966027	-0.659273	-0.313990
Br278	Br	1.299360	-0.325939	0.019343
Br279	Br	1.632694	0.007394	0.352677
Br280	Br	0.830917	-0.261604	-0.686572
Br281	Br	1.164250	0.071729	-0.353239
Br282	Br	1.497583	0.405063	-0.019906
Br283	Br	0.831047	-0.261460	-1.042362
Br284	Br	1.164380	0.071873	-0.709029
Br285	Br	1.497713	0.405207	-0.375696
