data_functionalizedCrystal
_audit_creation_method	'MofGen! by Chris Wilmer'
_symmetry_space_group_name_H-M	'P1'
_symmetry_Int_Tables_number	1
_symmetry_cell_setting	triclinic
loop_
_symmetry_equiv_pos_as_xyz
  x,y,z
_cell_length_a	25.639239
_cell_length_b	16.959455
_cell_length_c	16.959447
_cell_angle_alpha	90.020374
_cell_angle_beta	90.033076
_cell_angle_gamma	90.035706
loop_
_atom_site_label
_atom_site_type_symbol
_atom_site_fract_x
_atom_site_fract_y
_atom_site_fract_z
Zn1	Zn	-0.208182	1.208282	0.447021
Zn2	Zn	-0.295623	1.208161	0.314836
Zn3	Zn	-0.208199	1.076110	0.314845
Zn4	Zn	-0.295584	1.076032	0.446961
O5	O	-0.251897	1.142146	0.380916
O6	O	-0.219791	1.318876	0.429508
O7	O	-0.284049	1.190627	0.204226
O8	O	-0.135031	1.093726	0.332407
O9	O	-0.284033	1.318788	0.332393
O10	O	-0.135019	1.190832	0.429516
O11	O	-0.219819	1.093609	0.204233
O12	O	-0.219781	0.965489	0.332348
O13	O	-0.283966	1.093593	0.557580
O14	O	-0.283982	0.965431	0.429414
O15	O	-0.219753	1.190756	0.557624
O16	O	-0.368783	1.190551	0.332334
O17	O	-0.368754	1.093476	0.429405
C18	C	-0.251880	0.936780	0.380876
C19	C	-0.251885	0.848923	0.380878
C20	C	-0.285315	0.477391	0.330322
C21	C	-0.218522	0.477504	0.431606
C22	C	-0.218514	0.560050	0.431587
C23	C	-0.251907	0.601270	0.380935
C24	C	-0.285308	0.559945	0.330303
C25	C	-0.185117	0.601382	0.482224
C26	C	-0.185107	0.683933	0.482207
C27	C	-0.218498	0.725155	0.431551
C28	C	-0.251900	0.683824	0.380916
C29	C	-0.285293	0.725044	0.330264
C30	C	-0.318693	0.683714	0.279625
C31	C	-0.318699	0.601166	0.279646
C32	C	-0.218492	0.807703	0.431529
C33	C	-0.285286	0.807597	0.330245
C34	C	-0.387739	1.142013	0.380880
C35	C	-0.445853	1.142029	0.380890
C36	C	-0.806219	1.192825	0.330457
C37	C	-0.860823	1.192856	0.330467
O38	O	-0.889062	1.235906	0.287547
N39	N	-0.888136	1.142285	0.380968
C40	C	-0.860841	1.091686	0.431467
O41	O	-0.889087	1.048676	0.474424
C42	C	-0.806238	1.091660	0.431460
C43	C	-0.778928	1.142228	0.380950
C44	C	-0.778909	1.243390	0.279952
C45	C	-0.724308	1.243358	0.279940
C46	C	-0.697018	1.192761	0.330434
C47	C	-0.724328	1.142197	0.380939
C48	C	-0.778945	1.041066	0.481963
C49	C	-0.724338	1.041045	0.481952
C50	C	-0.697028	1.091613	0.431442
C51	C	-0.642437	1.091568	0.431421
N52	N	-0.615124	1.142139	0.380920
C53	C	-0.642414	1.192735	0.330427
C54	C	-0.975512	1.091746	0.431479
C55	C	-1.030114	1.091767	0.431483
C56	C	-1.030092	1.192938	0.330484
C57	C	-0.975489	1.192912	0.330477
C58	C	-0.948199	1.142316	0.380979
C59	C	-0.527749	1.192664	0.330406
C60	C	-0.473144	1.192625	0.330397
C61	C	-0.473171	1.091458	0.431399
C62	C	-0.527771	1.091493	0.431405
C63	C	-0.555059	1.142103	0.380906
O64	O	-0.614163	1.048541	0.474322
O65	O	-0.614162	1.235746	0.287485
C66	C	-0.115524	1.142301	0.380969
C67	C	-0.057410	1.142367	0.380992
C68	C	-0.251853	1.142179	0.587084
C69	C	-0.251835	1.142193	0.674941
C70	C	-0.251914	1.348314	0.380956
C71	C	-0.251922	1.436171	0.380973
C72	C	-0.251902	1.142159	0.175549
C73	C	-0.251773	1.142298	0.087693
C74	C	-0.285213	1.091699	1.046396
C75	C	-0.218347	1.192876	1.046437
C76	C	-0.218358	1.192855	0.963891
C77	C	-0.251798	1.142256	0.922594
C78	C	-0.285226	1.091678	0.963842
C79	C	-0.184934	1.243438	0.922636
C80	C	-0.184944	1.243419	0.840085
C81	C	-0.218381	1.192816	0.798787
C82	C	-0.251811	1.142235	0.840040
C83	C	-0.285250	1.091636	0.798743
C84	C	-0.318678	1.041051	0.839995
C85	C	-0.318664	1.041074	0.922543
C86	C	-0.218395	1.192792	0.716238
C87	C	-0.285264	1.091615	0.716189
H88	H	-0.312478	0.841153	0.288995
H89	H	-0.549961	1.233877	0.289287
Br90	Br	-1.067140	1.261602	0.261953
H91	H	-0.450942	1.050260	0.472508
H92	H	-1.052345	1.050582	0.472606
H93	H	-0.345880	0.999893	0.956138
H94	H	-0.157712	1.284638	0.956267
H95	H	-0.345884	0.717287	0.238388
H96	H	-0.801123	1.284596	0.238834
H97	H	-0.953256	1.234089	0.289348
Br98	Br	-0.172972	1.261551	1.102484
H99	H	-0.953295	1.050538	0.472602
Br100	Br	-0.815994	0.972442	0.550525
Br101	Br	-0.436084	1.261256	0.261842
Br102	Br	-0.687305	0.972378	0.550497
H103	H	-0.157910	0.717577	0.523441
H104	H	-0.191299	0.841350	0.472761
H105	H	-0.345907	0.999857	0.806360
Br106	Br	-0.687253	1.312001	0.211399
H107	H	-0.312490	1.050404	0.682571
H108	H	-0.550008	1.050319	0.472537
H109	H	-0.345891	0.567508	0.238418
H110	H	-0.312427	1.050512	1.079987
H111	H	-0.312507	0.443737	0.289090
Br112	Br	-0.173213	0.421563	0.500355
H113	H	-0.157725	1.284608	0.806505
H114	H	-0.157933	0.567815	0.523466
Br115	Br	-0.173039	1.261445	0.660256
