data_functionalizedCrystal
_audit_creation_method	'MofGen! by Chris Wilmer'
_symmetry_space_group_name_H-M	'P1'
_symmetry_Int_Tables_number	1
_symmetry_cell_setting	triclinic
loop_
_symmetry_equiv_pos_as_xyz
  x,y,z
_cell_length_a	10.723024
_cell_length_b	10.540539
_cell_length_c	9.798715
_cell_angle_alpha	89.998989
_cell_angle_beta	89.996609
_cell_angle_gamma	84.496680
loop_
_atom_site_label
_atom_site_type_symbol
_atom_site_fract_x
_atom_site_fract_y
_atom_site_fract_z
O1	O	1.657276	0.178046	-0.113475
O2	O	2.157276	0.678046	0.386525
O3	O	1.294132	0.195088	-0.113479
O4	O	1.794132	0.695088	0.386521
O5	O	1.483989	0.001856	-0.113475
O6	O	1.983989	0.501856	0.386525
O7	O	1.467419	0.371278	-0.113479
O8	O	1.967419	0.871278	0.386521
O9	O	1.483974	0.001856	0.113507
O10	O	1.983974	0.501856	0.613507
O11	O	1.294118	0.195088	0.113503
O12	O	1.794118	0.695088	0.613503
O13	O	1.657262	0.178045	0.113507
O14	O	2.157262	0.678045	0.613507
Zn15	Zn	1.475687	0.186567	0.149543
Zn16	Zn	1.975687	0.686567	0.649543
Zn17	Zn	1.475706	0.186567	-0.149515
Zn18	Zn	1.975706	0.686567	0.350485
O19	O	1.467405	0.371277	0.113503
O20	O	1.967405	0.871277	0.613503
C21	C	1.247624	0.193848	0.000011
C22	C	1.747624	0.693848	0.500011
C23	C	1.109068	0.190137	0.000010
C24	C	1.609068	0.690137	0.500010
C25	C	1.482739	-0.045446	0.000013
C26	C	1.982739	0.454554	0.500013
C27	C	1.479021	-0.186392	0.000006
C28	C	1.979021	0.313608	0.500006
C29	C	1.034139	0.298260	0.000008
C30	C	1.534139	0.798260	0.500008
C31	C	0.890934	0.294427	0.000006
C32	C	1.390934	0.794427	0.500006
C33	C	1.336563	-0.369746	-0.000505
C34	C	1.836563	0.130254	0.499495
C35	C	1.340332	-0.223130	0.000006
C36	C	1.840332	0.276870	0.500006
C37	C	1.545757	-0.248085	0.129625
C38	C	2.045757	0.251915	0.629625
C39	C	1.541023	-0.394627	0.129734
C40	C	2.041023	0.105373	0.629734
C41	C	1.543860	-0.395146	-0.128387
C42	C	2.043860	0.104854	0.371613
C43	C	1.545138	-0.248165	-0.130101
C44	C	2.045138	0.251835	0.369899
C45	C	1.703769	0.179286	0.000013
C46	C	2.203769	0.679286	0.500013
C47	C	1.842325	0.182997	0.000006
C48	C	2.342325	0.682997	0.500006
C49	C	1.468654	0.418580	0.000012
C50	C	1.968654	0.918580	0.500012
C51	C	1.472372	0.559526	0.000010
C52	C	1.972372	1.059526	0.500010
N53	N	1.475684	0.186565	0.353643
N54	N	1.975684	0.686565	0.853643
N55	N	1.475720	0.186559	-0.353615
N56	N	1.975720	0.686559	0.146385
C57	C	1.555399	0.105075	0.421421
C58	C	2.055399	0.605075	0.921421
C59	C	1.555419	0.105071	0.578584
C60	C	2.055419	0.605071	1.078584
H61	H	1.076009	0.393665	0.000015
H62	H	1.576009	0.893665	0.500015
F63	F	0.806780	0.415416	-0.000006
F64	F	1.306780	0.915416	0.499994
F65	F	1.271196	-0.168510	0.121652
F66	F	1.771196	0.331490	0.621652
F67	F	1.386514	0.277762	0.570212
F68	F	1.886514	0.777762	1.070212
F69	F	1.671391	-0.457396	0.137436
F70	F	2.171391	0.042604	0.637436
F71	F	1.485150	-0.192377	0.255704
F72	F	1.985150	0.307623	0.755704
F73	F	1.264958	-0.407087	-0.122001
F74	F	1.764958	0.092913	0.377999
F75	F	0.926471	0.062002	-0.000002
F76	F	1.426471	0.562002	0.499998
H77	H	1.623672	0.035308	0.636871
H78	H	2.123672	0.535308	1.136871
H79	H	1.498979	-0.426675	-0.226630
H80	H	1.998979	0.073325	0.273370
H81	H	1.067199	0.094732	-0.000024
H82	H	1.567199	0.594732	0.499976
F83	F	1.481814	-0.194132	-0.255453
F84	F	1.981814	0.305868	0.244547
H85	H	1.647606	-0.225783	0.134445
H86	H	2.147606	0.274217	0.634445
F87	F	1.386489	0.277749	0.429870
F88	F	1.886489	0.777749	0.929870
F89	F	1.674794	-0.456942	-0.129529
F90	F	2.174794	0.043058	0.370471
H91	H	1.287821	-0.180499	-0.092910
H92	H	1.787821	0.319501	0.407090
F93	F	1.265051	-0.409621	0.119976
F94	F	1.765051	0.090379	0.619976
H95	H	1.491691	-0.422801	0.226625
H96	H	1.991691	0.077199	0.726625
F97	F	1.644363	0.013660	0.345195
F98	F	2.144363	0.513660	0.845195
F99	F	1.677302	-0.216568	-0.140339
F100	F	2.177302	0.283432	0.359661
