data_functionalizedCrystal
_audit_creation_method	'MofGen! by Chris Wilmer'
_symmetry_space_group_name_H-M	'P1'
_symmetry_Int_Tables_number	1
_symmetry_cell_setting	triclinic
loop_
_symmetry_equiv_pos_as_xyz
  x,y,z
_cell_length_a	10.686220
_cell_length_b	16.120531
_cell_length_c	10.686551
_cell_angle_alpha	88.704865
_cell_angle_beta	89.691918
_cell_angle_gamma	82.922025
loop_
_atom_site_label
_atom_site_type_symbol
_atom_site_fract_x
_atom_site_fract_y
_atom_site_fract_z
Zn1	Zn	1.957883	0.203140	0.579030
Zn2	Zn	1.930960	0.353953	0.381628
Zn3	Zn	1.730490	0.224455	0.387094
Zn4	Zn	1.737509	0.352264	0.607267
O5	O	1.839211	0.283453	0.488755
O6	O	2.130436	0.214932	0.538739
O7	O	1.890162	0.346402	0.207596
O8	O	1.768984	0.105022	0.403025
O9	O	2.110655	0.325734	0.393709
O10	O	1.936049	0.089362	0.544039
O11	O	1.742878	0.251260	0.211612
O12	O	1.555297	0.249623	0.430405
O13	O	1.780948	0.322856	0.778278
O14	O	1.560454	0.343524	0.592166
O15	O	1.942855	0.213294	0.757532
O16	O	1.896968	0.470334	0.421089
O17	O	1.754841	0.469093	0.586865
C18	C	1.512208	0.298704	0.514943
C19	C	1.372316	0.305246	0.526178
C20	C	1.823781	0.499945	0.506473
C21	C	1.817299	0.592553	0.514085
C22	C	1.805474	0.762108	0.528009
C23	C	1.872989	0.803959	0.449426
C24	C	1.866409	0.898305	0.457173
C25	C	1.812052	0.667753	0.520263
C26	C	2.167490	0.268143	0.462464
C27	C	2.307383	0.261619	0.451261
C28	C	1.865688	0.265509	0.814485
C29	C	1.876971	0.257862	0.953291
C30	C	1.854690	1.066116	0.470972
C31	C	1.861167	0.973509	0.463345
C32	C	1.812913	0.301264	0.164281
C33	C	1.801891	0.308664	0.025436
H34	H	1.358811	0.219264	0.378525
C35	C	1.975481	0.191200	1.013296
H36	H	2.021075	0.160359	0.949422
H37	H	1.934023	0.154368	1.065079
H38	H	2.032136	0.217753	1.062392
C39	C	1.720711	0.809416	0.626745
H40	H	1.679216	0.770752	0.675039
H41	H	1.659707	0.848605	0.586048
H42	H	1.770928	0.838073	0.680077
C43	C	1.302843	0.362472	0.624442
H44	H	1.214780	0.359509	0.619363
H45	H	1.318851	0.418459	0.608909
H46	H	1.332026	0.344737	0.705685
C47	C	1.957712	0.756651	0.350648
H48	H	1.951053	0.698529	0.358313
H49	H	2.042795	0.765838	0.363321
H50	H	1.931520	0.776393	0.269354
C51	C	1.703389	0.375322	0.965430
H52	H	1.708464	0.371886	0.876880
H53	H	1.719516	0.429290	0.989848
H54	H	1.621405	0.365903	0.992524
