data_functionalizedCrystal
_audit_creation_method	'MofGen! by Chris Wilmer'
_symmetry_space_group_name_H-M	'P1'
_symmetry_Int_Tables_number	1
_symmetry_cell_setting	triclinic
loop_
_symmetry_equiv_pos_as_xyz
  x,y,z
_cell_length_a	12.811445
_cell_length_b	12.837942
_cell_length_c	9.798715
_cell_angle_alpha	90.002852
_cell_angle_beta	95.434874
_cell_angle_gamma	89.412982
loop_
_atom_site_label
_atom_site_type_symbol
_atom_site_fract_x
_atom_site_fract_y
_atom_site_fract_z
O1	O	1.406644	0.139713	0.287572
O2	O	1.102579	0.154895	0.249945
O3	O	1.247869	-0.003628	0.267916
O4	O	1.261354	0.298236	0.269601
O5	O	1.247858	-0.003629	0.040932
O6	O	1.102568	0.154894	0.022961
O7	O	1.406633	0.139712	0.060589
Zn8	Zn	1.254599	0.147303	0.005737
Zn9	Zn	1.254614	0.147304	0.304797
O10	O	1.261343	0.298235	0.042618
C11	C	1.063384	0.154043	0.131604
C12	C	0.946611	0.151492	0.117153
C13	C	1.243308	-0.042269	0.153861
C14	C	1.229722	-0.157405	0.152182
C15	C	0.727192	0.146719	0.337482
C16	C	0.617474	0.144322	0.323910
C17	C	0.617454	0.144309	0.076439
C18	C	0.727172	0.146706	0.090011
C19	C	0.782038	0.147909	0.220536
C20	C	0.891758	0.150298	0.234107
C21	C	0.891736	0.150293	-0.013363
C22	C	0.782018	0.147896	-0.026935
C23	C	1.393052	-0.397655	0.172422
C24	C	1.380292	-0.505836	0.170846
C25	C	1.191442	-0.481950	0.147462
C26	C	1.204202	-0.373769	0.149038
C27	C	1.305011	-0.331626	0.161517
C28	C	1.317770	-0.223442	0.163084
C29	C	1.128921	-0.199559	0.139710
C30	C	1.116161	-0.307740	0.138133
C31	C	1.445828	0.140565	0.178933
C32	C	1.562601	0.143116	0.193393
C33	C	1.265904	0.336876	0.156676
C34	C	1.279490	0.452012	0.158364
N35	N	1.254596	0.147301	-0.198363
C36	C	1.315752	0.080597	-0.415731
C37	C	1.315738	0.080599	-0.258570
N38	N	1.254624	0.147298	0.508898
H39	H	0.936428	0.151277	0.340387
H40	H	0.936403	0.151260	-0.108589
H41	H	1.399853	-0.189132	0.173240
H42	H	1.202254	0.204406	-0.263142
H43	H	0.771865	0.147693	0.443761
H44	H	0.572823	0.143355	0.419139
C45	C	0.557094	0.142995	-0.067126
H46	H	0.605470	0.144055	-0.134837
H47	H	0.516246	0.081662	-0.077323
H48	H	0.512339	0.202477	-0.077795
C49	C	1.503933	-0.351293	0.186137
H50	H	1.554541	-0.406113	0.192409
H51	H	1.512829	-0.309591	0.108084
H52	H	1.512840	-0.309586	0.266403
H53	H	0.737331	0.146920	-0.133205
C54	C	1.477137	-0.578465	0.182834
H55	H	1.538998	-0.537868	0.190481
H56	H	1.476087	-0.621162	0.261856
H57	H	1.476082	-0.621164	0.103538
H58	H	1.368103	0.023495	-0.467550
C59	C	1.080565	-0.528321	0.133737
H60	H	1.085580	-0.602207	0.134355
H61	H	1.043856	-0.505680	0.208341
H62	H	1.043861	-0.505696	0.050025
C63	C	1.005281	-0.354104	0.124399
H64	H	1.010289	-0.427990	0.125013
H65	H	0.968569	-0.331462	0.199000
H66	H	0.968583	-0.331473	0.040685
C67	C	1.386454	0.003464	-0.171055
H68	H	1.377178	0.013593	-0.076905
H69	H	1.368142	-0.065824	-0.196672
H70	H	1.457682	0.015053	-0.185580
H71	H	1.057232	-0.145785	0.130819
C72	C	1.183907	0.224450	-0.421114
H73	H	1.145563	0.266302	-0.488780
H74	H	1.136489	0.186906	-0.371248
H75	H	1.226051	0.267758	-0.360150
