data_functionalizedCrystal
_audit_creation_method	'MofGen! by Chris Wilmer'
_symmetry_space_group_name_H-M	'P1'
_symmetry_Int_Tables_number	1
_symmetry_cell_setting	triclinic
loop_
_symmetry_equiv_pos_as_xyz
  x,y,z
_cell_length_a	18.050591
_cell_length_b	18.050589
_cell_length_c	18.050582
_cell_angle_alpha	90.018912
_cell_angle_beta	90.021817
_cell_angle_gamma	90.024227
loop_
_atom_site_label
_atom_site_type_symbol
_atom_site_fract_x
_atom_site_fract_y
_atom_site_fract_z
Zn1	Zn	-1.135299	0.295781	-0.420054
Zn2	Zn	-1.135208	0.419965	-0.295873
Zn3	Zn	-1.011116	0.295785	-0.295865
Zn4	Zn	-1.011066	0.419925	-0.420009
O5	O	-1.073172	0.357864	-0.357950
O6	O	-1.239212	0.312269	-0.403603
O7	O	-1.118730	0.403512	-0.191948
O8	O	-1.027649	0.191860	-0.312354
O9	O	-1.239145	0.403507	-0.312369
O10	O	-1.118885	0.191857	-0.403595
O11	O	-1.027560	0.312277	-0.191942
O12	O	-0.907185	0.312237	-0.312311
O13	O	-1.027563	0.403438	-0.523940
O14	O	-0.907148	0.403442	-0.403519
O15	O	-1.118837	0.312230	-0.523973
O16	O	-1.118681	0.523885	-0.312325
O17	O	-1.027475	0.523855	-0.403527
C18	C	-0.880220	0.357836	-0.357909
C19	C	-0.797674	0.357842	-0.357909
C20	C	-1.073083	0.550816	-0.357938
C21	C	-1.073112	0.633362	-0.357958
C22	C	-1.266878	0.357892	-0.357992
C23	C	-1.349424	0.357904	-0.358010
C24	C	-1.073205	0.357829	-0.551656
C25	C	-1.073218	0.357814	-0.634202
C26	C	-0.598222	0.308188	-0.308425
C27	C	-0.548802	0.375924	-0.290154
C28	C	-0.646544	0.357865	-0.357943
C29	C	-0.548882	0.290152	-0.376212
C30	C	-0.500559	0.357881	-0.357974
C31	C	-0.598211	0.425637	-0.339637
C32	C	-0.598296	0.339819	-0.425726
C33	C	-0.548898	0.407602	-0.407481
C34	C	-0.730642	0.357855	-0.357923
C35	C	-0.416462	0.357898	-0.357994
C36	C	-1.073283	0.164158	-0.357979
C37	C	-1.073330	0.081612	-0.357991
C38	C	-1.023563	0.832823	-0.407536
C39	C	-1.005464	0.882257	-0.339767
C40	C	-1.073185	0.784492	-0.357967
C41	C	-1.091321	0.882140	-0.425744
C42	C	-1.073254	0.930477	-0.357983
C43	C	-1.055051	0.832838	-0.290162
C44	C	-1.140939	0.832718	-0.376186
C45	C	-1.122866	0.882129	-0.308370
C46	C	-1.073144	0.700394	-0.357959
C47	C	-1.073296	1.014574	-0.357983
C48	C	-1.023630	0.407332	-0.883010
C49	C	-1.005490	0.339593	-0.833615
C50	C	-1.073281	0.357704	-0.931322
C51	C	-1.091355	0.425493	-0.833636
C52	C	-1.073248	0.357762	-0.785337
C53	C	-1.055106	0.289930	-0.883015
C54	C	-1.141003	0.375875	-0.883040
C55	C	-1.122888	0.308090	-0.833667
C56	C	-1.073298	0.357672	-1.015421
C57	C	-1.073231	0.357786	-0.701241
C58	C	-1.073183	0.357846	-0.164998
C59	C	-1.073313	0.357651	-0.082453
H60	H	-0.619879	0.266222	-0.266503
H61	H	-1.198271	0.391245	-0.904766
H62	H	-1.106632	0.903797	-0.483056
H63	H	-0.981624	0.449222	-0.904676
H64	H	-1.198190	0.810943	-0.391613
H65	H	-1.106657	0.482797	-0.811946
H66	H	-1.164859	0.903642	-0.266409
H67	H	-0.948200	0.904033	-0.324371
H68	H	-0.981538	0.811173	-0.449395
H69	H	-1.039740	0.232609	-0.904614
H70	H	-1.164863	0.266098	-0.812139
H71	H	-0.619790	0.482924	-0.324134
H72	H	-0.948205	0.324244	-0.811905
H73	H	-0.527064	0.391199	-0.232844
H74	H	-0.527377	0.449668	-0.449370
H75	H	-0.620052	0.324524	-0.483019
H76	H	-1.039673	0.811272	-0.232834
H77	H	-0.527175	0.232889	-0.391625
