data_functionalizedCrystal
_audit_creation_method	'MofGen! by Chris Wilmer'
_symmetry_space_group_name_H-M	'P1'
_symmetry_Int_Tables_number	1
_symmetry_cell_setting	triclinic
loop_
_symmetry_equiv_pos_as_xyz
  x,y,z
_cell_length_a	10.654562
_cell_length_b	14.750522
_cell_length_c	10.654550
_cell_angle_alpha	104.085618
_cell_angle_beta	84.487503
_cell_angle_gamma	104.089489
loop_
_atom_site_label
_atom_site_type_symbol
_atom_site_fract_x
_atom_site_fract_y
_atom_site_fract_z
O1	O	1.692385	0.079891	0.201027
O2	O	1.326905	0.079878	0.217813
O3	O	1.518047	0.079881	0.026680
O4	O	1.501243	0.079888	0.392160
O5	O	1.468961	-0.079779	-0.022394
O6	O	1.277819	-0.079782	0.168739
O7	O	1.643299	-0.079770	0.151953
Zn8	Zn	1.452766	-0.105125	0.152555
Zn9	Zn	1.517438	0.105234	0.217212
O10	O	1.452157	-0.079772	0.343086
C11	C	1.255564	0.000047	0.192039
C12	C	1.116120	0.000042	0.188340
C13	C	1.023835	-0.086981	0.159867
C14	C	0.892818	-0.086965	0.156407
C15	C	0.946383	0.087105	0.209901
C16	C	1.077399	0.087088	0.213351
C17	C	1.062556	-0.174027	0.134855
C18	C	0.970268	-0.261058	0.106382
C19	C	0.839251	-0.261042	0.102922
C20	C	0.800521	-0.173995	0.127935
N21	N	1.408638	-0.248690	0.108427
C22	C	1.684716	-0.600452	0.384605
C23	C	1.653823	-0.700957	0.353664
C24	C	1.500180	-0.700951	0.199904
C25	C	1.531055	-0.600444	0.230837
C26	C	1.623325	-0.550202	0.323187
C27	C	1.469665	-0.550194	0.169419
C28	C	1.500542	-0.449695	0.200344
C29	C	1.592811	-0.399447	0.292688
C30	C	1.654203	-0.449703	0.354112
C31	C	1.377402	-0.600438	0.077062
C32	C	1.316011	-0.550188	0.015644
C33	C	1.346882	-0.449687	0.046576
C34	C	1.439151	-0.399438	0.138920
C35	C	1.285490	-0.399430	-0.014848
C36	C	1.316368	-0.298932	0.016077
C37	C	1.470029	-0.298940	0.169845
C38	C	1.714641	0.000064	0.177727
C39	C	1.854087	0.000075	0.181429
C40	C	1.492270	0.000052	-0.044654
C41	C	1.488580	0.000055	-0.184097
N42	N	1.561576	0.248799	0.261329
C43	C	1.601121	0.000056	-0.263577
C44	C	1.597646	0.000063	-0.394596
C45	C	1.369078	0.000064	-0.366643
C46	C	1.372556	0.000064	-0.235624
C47	C	1.717144	0.000048	-0.212050
C48	C	1.829694	0.000048	-0.291532
C49	C	1.826220	0.000054	-0.422551
C50	C	1.710195	0.000061	-0.474088
C51	C	1.477934	0.000059	0.414421
C52	C	1.481627	0.000062	0.553866
H53	H	1.545150	-0.258030	0.245059
H54	H	1.280915	0.000062	-0.170909
Br55	Br	1.721864	0.000032	-0.034242
Br56	Br	1.233085	-0.230729	-0.067308
H57	H	1.729324	-0.408794	0.429326
H58	H	1.759837	-0.559542	0.459819
Br59	Br	0.622715	-0.173976	0.123196
H60	H	1.924165	0.000066	-0.249554
Br61	Br	1.211627	0.000073	-0.436587
H62	H	1.917866	0.000064	-0.487259
H63	H	1.707378	0.000077	-0.580770
H64	H	1.169233	-0.174050	0.137674
H65	H	1.001813	-0.331928	0.086007
Br66	Br	1.335510	-0.736831	0.035076
H67	H	1.210373	-0.440352	-0.090050
H68	H	0.764114	-0.331906	0.079727
Br69	Br	1.202653	0.205193	0.251985
H70	H	0.914837	0.157974	0.230269
Br71	Br	1.634728	-0.263054	0.334654
H72	H	1.703821	-0.741867	0.403686
H73	H	1.240889	-0.591108	-0.059552
H74	H	1.425058	-0.741872	0.124708
