data_functionalizedCrystal
_audit_creation_method	'MofGen! by Chris Wilmer'
_symmetry_space_group_name_H-M	'P1'
_symmetry_Int_Tables_number	1
_symmetry_cell_setting	triclinic
loop_
_symmetry_equiv_pos_as_xyz
  x,y,z
_cell_length_a	12.827893
_cell_length_b	14.908520
_cell_length_c	12.827885
_cell_angle_alpha	93.263516
_cell_angle_beta	89.980728
_cell_angle_gamma	93.320575
loop_
_atom_site_label
_atom_site_type_symbol
_atom_site_fract_x
_atom_site_fract_y
_atom_site_fract_z
Zn1	Zn	1.573615	-0.359115	-0.614817
Zn2	Zn	1.563402	-0.509998	-0.450147
Zn3	Zn	1.398853	-0.359159	-0.440093
Zn4	Zn	1.388739	-0.509931	-0.624843
O5	O	1.481152	-0.434551	-0.532475
O6	O	1.718495	-0.379139	-0.592984
O7	O	1.541533	-0.490036	-0.302580
O8	O	1.430542	-0.232908	-0.454867
O9	O	1.710992	-0.489993	-0.472002
O10	O	1.558939	-0.232876	-0.583236
O11	O	1.420640	-0.379214	-0.295194
O12	O	1.251276	-0.379149	-0.464589
O13	O	1.413304	-0.489879	-0.769746
O14	O	1.243845	-0.489921	-0.600323
O15	O	1.549132	-0.379074	-0.762380
O16	O	1.531726	-0.636234	-0.481724
O17	O	1.403401	-0.636184	-0.610072
C18	C	1.209643	-0.434533	-0.532454
C19	C	1.093489	-0.434548	-0.532471
C20	C	1.465386	-0.668943	-0.548100
C21	C	1.458737	-0.769217	-0.554820
C22	C	1.038049	-0.489447	-0.599545
C23	C	0.917998	-0.489463	-0.599564
C24	C	1.580004	-0.957632	-0.433905
C25	C	1.573760	-1.051849	-0.440215
C26	C	1.440011	-1.051867	-0.573755
C27	C	1.446255	-0.957651	-0.567444
C28	C	1.516253	-0.910537	-0.497516
C29	C	1.522491	-0.816319	-0.491201
C30	C	1.388748	-0.816339	-0.624745
C31	C	1.382504	-0.910555	-0.631056
C32	C	1.753721	-0.434569	-0.532497
C33	C	1.869874	-0.434576	-0.532506
C34	C	1.481229	-0.434464	-0.805039
C35	C	1.481262	-0.434427	-0.921190
C36	C	1.497008	-0.199243	-0.516811
C37	C	1.503765	-0.098969	-0.510137
C38	C	1.548481	-0.379587	-0.969329
C39	C	1.548517	-0.379547	-1.089377
C40	C	1.481140	-0.434572	-0.260966
C41	C	1.481327	-0.434355	-0.144799
H42	H	0.870335	-0.536467	-0.656985
H43	H	1.606000	-0.332662	-0.921668
H44	H	0.917530	-0.387576	-0.475075
H45	H	1.052076	-0.387555	-0.475065
H46	H	1.606069	-0.332600	-1.130790
O47	O	1.412809	-0.490417	-1.095296
C48	C	1.468426	-0.548674	-1.036065
H49	H	1.549775	-0.516852	-1.017712
H50	H	1.475373	-0.615549	-1.082518
C51	C	1.309990	-0.604040	-0.955944
C52	C	1.409902	-0.564953	-0.933396
H53	H	1.273888	-0.614086	-0.892616
H54	H	1.272518	-0.564794	-0.995852
H55	H	1.315793	-0.659766	-0.994658
H56	H	1.404097	-0.509224	-0.894695
H57	H	1.447371	-0.604190	-0.893479
H58	H	1.636991	-0.919271	-0.376960
H59	H	1.579483	-0.777959	-0.434260
O60	O	1.635853	-1.097482	-0.378466
C61	C	1.741515	-1.074361	-0.399892
H62	H	1.748162	-1.005933	-0.435498
H63	H	1.773178	-1.127327	-0.457194
C64	C	1.797016	-1.154037	-0.254063
C65	C	1.805182	-1.069988	-0.297786
H66	H	1.836291	-1.151343	-0.191082
H67	H	1.725831	-1.169617	-0.239630
H68	H	1.823401	-1.198166	-0.301825
H69	H	1.778785	-1.025863	-0.250030
H70	H	1.876365	-1.054400	-0.312210
O71	O	1.087570	-0.545382	-0.668080
C72	C	1.154164	-0.494029	-0.732201
H73	H	1.174980	-0.425608	-0.690897
H74	H	1.112859	-0.484237	-0.809054
C75	C	1.229020	-0.627624	-0.804951
C76	C	1.254594	-0.543590	-0.754217
H77	H	1.290968	-0.658196	-0.818536
H78	H	1.184152	-0.662222	-0.761755
H79	H	1.194597	-0.619452	-0.868990
H80	H	1.289004	-0.551764	-0.690174
H81	H	1.299470	-0.508994	-0.797402
O82	O	1.372047	-1.097782	-0.641589
C83	C	1.380234	-1.191037	-0.633536
H84	H	1.413658	-1.203925	-0.553785
H85	H	1.434082	-1.217689	-0.697360
C86	C	1.230237	-1.223664	-0.744206
C87	C	1.271280	-1.239494	-0.646251
H88	H	1.163031	-1.253556	-0.752054
H89	H	1.224723	-1.160836	-0.749635
H90	H	1.275120	-1.245874	-0.797381
H91	H	1.226404	-1.217274	-0.593078
H92	H	1.276784	-1.302319	-0.640813
H93	H	1.325517	-0.948929	-0.687992
H94	H	1.336834	-0.777983	-0.676539
O95	O	1.412493	-0.490312	-0.977988
C96	C	1.309634	-0.470638	-0.950059
H97	H	1.309172	-0.398601	-0.915188
H98	H	1.278980	-0.519076	-0.890011
C99	C	1.239875	-0.569500	-1.090601
C100	C	1.239307	-0.481021	-1.047779
H101	H	1.196492	-0.575909	-1.150877
H102	H	1.309172	-0.582759	-1.109415
H103	H	1.214333	-0.609856	-1.040551
H104	H	1.264861	-0.440668	-1.097824
H105	H	1.170012	-0.467756	-1.028975
