data_functionalizedCrystal
_audit_creation_method	'MofGen! by Chris Wilmer'
_symmetry_space_group_name_H-M	'P1'
_symmetry_Int_Tables_number	1
_symmetry_cell_setting	triclinic
loop_
_symmetry_equiv_pos_as_xyz
  x,y,z
_cell_length_a	16.109301
_cell_length_b	11.892113
_cell_length_c	16.109301
_cell_angle_alpha	94.370065
_cell_angle_beta	83.461532
_cell_angle_gamma	94.366300
loop_
_atom_site_label
_atom_site_type_symbol
_atom_site_fract_x
_atom_site_fract_y
_atom_site_fract_z
O1	O	1.107870	0.093945	0.111606
O2	O	0.865809	0.093962	0.124906
O3	O	0.993488	0.093941	-0.002776
O4	O	0.980190	0.093965	0.239287
O5	O	0.983995	-0.094066	-0.012261
O6	O	0.856316	-0.094046	0.115421
O7	O	1.098377	-0.094062	0.102121
Zn8	Zn	0.975839	-0.123905	0.107265
Zn9	Zn	0.988346	0.123804	0.119762
O10	O	0.970697	-0.094042	0.229802
C11	C	0.830087	-0.000040	0.119624
C12	C	0.737792	-0.000034	0.118010
C13	C	0.428793	-0.000047	0.188492
C14	C	0.515514	-0.000040	0.190018
C15	C	0.535387	-0.000040	0.038529
C16	C	0.448669	-0.000039	0.037005
C17	C	0.395373	-0.000048	0.111988
C18	C	0.568813	-0.000043	0.115038
C19	C	0.662839	-0.000036	0.116692
C20	C	0.301341	-0.000053	0.110335
N21	N	0.967310	-0.292959	0.098736
C22	C	1.056227	-0.529605	0.187676
C23	C	1.050271	-0.647947	0.181707
C24	C	0.949448	-0.647987	0.080825
C25	C	0.955403	-0.529645	0.086794
C26	C	1.008794	-0.470458	0.140222
C27	C	1.014744	-0.352114	0.146195
C28	C	0.913926	-0.352156	0.045308
C29	C	0.907970	-0.470498	0.039340
C30	C	1.134098	-0.000058	0.107402
C31	C	1.226394	-0.000056	0.109017
C32	C	0.988203	-0.000063	-0.038493
C33	C	0.986588	-0.000064	-0.130789
N34	N	0.996882	0.292858	0.128284
C35	C	1.058596	-0.000051	-0.353060
C36	C	1.057073	-0.000042	-0.439780
C37	C	0.905584	-0.000036	-0.419906
C38	C	0.907109	-0.000037	-0.333187
C39	C	0.983617	-0.000051	-0.299767
C40	C	0.980569	-0.000040	-0.473206
C41	C	0.978916	-0.000030	-0.567231
C42	C	0.985270	-0.000059	-0.205736
C43	C	0.975983	-0.000035	0.265520
C44	C	0.977598	-0.000026	0.357816
H45	H	1.058214	-0.303926	0.189703
H46	H	0.875298	-0.303986	0.006672
O47	O	0.834302	0.000163	-0.281368
C48	C	0.835578	0.097521	-0.225683
H49	H	0.881535	0.165575	-0.254021
H50	H	0.770256	0.130210	-0.214257
H51	H	0.855975	0.075508	-0.163743
O52	O	1.129844	-0.000194	-0.491642
C53	C	1.128590	-0.097574	-0.547307
H54	H	1.060961	-0.130034	-0.553313
H55	H	1.160681	-0.075670	-0.611386
H56	H	1.163115	-0.165762	-0.522237
O57	O	0.416306	0.000110	-0.037360
C58	C	0.448438	0.097494	-0.078139
H59	H	0.510216	0.129954	-0.053859
H60	H	0.459387	0.075596	-0.148485
H61	H	0.401696	0.165680	-0.065051
H62	H	1.120894	-0.000060	-0.325853
H63	H	0.864504	-0.518704	-0.004163
O64	O	0.831198	0.000020	-0.452232
C65	C	0.765345	-0.000005	-0.386596
H66	H	0.790433	0.035587	-0.325895
H67	H	0.714685	0.054581	-0.401945
H68	H	0.737665	-0.090201	-0.378873
O69	O	0.377067	0.000156	0.261361
C70	C	0.397142	0.097517	0.312733
H71	H	0.430228	0.165569	0.272267
H72	H	0.337255	0.130205	0.347738
H73	H	0.440173	0.075506	0.359734
O74	O	0.548024	0.000167	0.264325
C75	C	0.602512	0.097531	0.274648
H76	H	0.585451	0.165579	0.234635
H77	H	0.596347	0.130223	0.343305
H78	H	0.669797	0.075524	0.254352
O79	O	0.587252	0.000109	-0.034243
C80	C	0.642911	0.097491	-0.032986
H81	H	0.648912	0.129955	0.034644
H82	H	0.706992	0.075586	-0.065075
H83	H	0.617837	0.165674	-0.067511
O84	O	1.108150	-0.472279	0.239591
C85	C	1.148719	-0.549862	0.280218
H86	H	1.149340	-0.634225	0.241547
H87	H	1.215812	-0.515649	0.287126
H88	H	1.113812	-0.562447	0.344833
H89	H	1.088897	-0.696100	0.220349
H90	H	0.905989	-0.696197	0.037317
