data_functionalizedCrystal
_audit_creation_method	'MofGen! by Chris Wilmer'
_symmetry_space_group_name_H-M	'P1'
_symmetry_Int_Tables_number	1
_symmetry_cell_setting	triclinic
loop_
_symmetry_equiv_pos_as_xyz
  x,y,z
_cell_length_a	15.944493
_cell_length_b	15.944551
_cell_length_c	13.596369
_cell_angle_alpha	89.993059
_cell_angle_beta	89.995239
_cell_angle_gamma	83.486891
loop_
_atom_site_label
_atom_site_type_symbol
_atom_site_fract_x
_atom_site_fract_y
_atom_site_fract_z
O1	O	1.114555	0.108102	-0.081780
O2	O	0.869999	0.121509	-0.081786
O3	O	0.998955	-0.007471	-0.081774
O4	O	0.985599	0.237081	-0.081792
O5	O	0.998943	-0.007478	0.081809
O6	O	0.869986	0.121502	0.081797
O7	O	1.114543	0.108095	0.081802
Zn8	Zn	0.992262	0.114797	0.107772
Zn9	Zn	0.992279	0.114806	-0.107755
O10	O	0.985586	0.237074	0.081791
C11	C	0.838698	0.120957	0.000005
C12	C	0.745449	0.119314	0.000004
C13	C	0.509689	0.195235	-0.000003
C14	C	0.459125	0.154291	0.080660
C15	C	0.574728	0.116270	0.000006
C16	C	0.459142	0.154279	-0.080620
C17	C	0.409819	0.113336	0.000004
C18	C	0.525392	0.075347	0.080735
C19	C	0.525412	0.075347	-0.080618
C20	C	0.474880	0.034345	0.000064
C21	C	0.669728	0.117963	0.000008
C22	C	0.314821	0.111637	0.000008
C23	C	0.998395	-0.038768	0.000018
C24	C	0.996732	-0.132014	0.000018
C25	C	0.912826	-0.346853	0.000003
C26	C	0.951783	-0.407882	0.080660
C27	C	0.993725	-0.302739	0.000011
C28	C	0.951814	-0.407859	-0.080620
C29	C	0.990814	-0.467651	-0.000001
C30	C	1.032704	-0.362540	0.080734
C31	C	1.032725	-0.362510	-0.080618
C32	C	1.071741	-0.423521	0.000059
C33	C	0.995399	-0.207737	0.000018
C34	C	0.989146	-0.562652	-0.000002
C35	C	1.145844	0.108646	0.000009
C36	C	1.239092	0.110289	0.000005
C37	C	0.986147	0.268372	-0.000003
C38	C	0.987809	0.361617	-0.000010
N39	N	0.992257	0.114791	0.254864
N40	N	0.992291	0.114806	-0.254847
C41	C	0.992278	0.114807	0.656155
C42	C	0.992270	0.114805	0.544504
C43	C	0.992268	0.114799	0.455513
C44	C	0.992259	0.114796	0.343855
H45	H	0.525313	0.263254	0.000068
C46	C	0.420063	0.199352	-0.172740
N47	N	0.390631	0.233307	-0.242121
H48	H	0.845675	-0.313532	0.000082
H49	H	0.917560	-0.427986	0.148848
H50	H	0.917592	-0.427926	-0.148814
H51	H	1.066887	-0.342559	0.148998
H52	H	0.430182	0.187636	0.148847
H53	H	1.138950	-0.456694	0.000106
C54	C	0.564526	0.030332	-0.172742
N55	N	0.593983	-0.003570	-0.242138
C56	C	0.564326	0.030328	0.172960
N57	N	0.593652	-0.003576	0.242425
C58	C	0.453977	-0.057613	0.000136
N59	N	0.438229	-0.126874	0.000197
C60	C	1.078917	-0.335317	-0.172743
N61	N	1.113704	-0.314832	-0.242139
