data_functionalizedCrystal
_audit_creation_method	'MofGen! by Chris Wilmer'
_symmetry_space_group_name_H-M	'P1'
_symmetry_Int_Tables_number	1
_symmetry_cell_setting	triclinic
loop_
_symmetry_equiv_pos_as_xyz
  x,y,z
_cell_length_a	19.805407
_cell_length_b	19.805405
_cell_length_c	19.805407
_cell_angle_alpha	90.015038
_cell_angle_beta	90.007450
_cell_angle_gamma	90.023727
loop_
_atom_site_label
_atom_site_type_symbol
_atom_site_fract_x
_atom_site_fract_y
_atom_site_fract_z
Zn1	Zn	1.034666	-0.269623	0.382679
Zn2	Zn	1.034602	-0.382783	0.269488
Zn3	Zn	0.921502	-0.269608	0.269507
Zn4	Zn	0.921445	-0.382770	0.382638
O5	O	0.978054	-0.326196	0.326078
O6	O	1.129374	-0.284645	0.367673
O7	O	1.019596	-0.367769	0.174774
O8	O	0.936564	-0.174893	0.284546
O9	O	1.129327	-0.367784	0.284512
O10	O	1.019706	-0.174904	0.367692
O11	O	0.936501	-0.284620	0.174788
O12	O	0.826777	-0.284607	0.284505
O13	O	0.936467	-0.367761	0.477360
O14	O	0.826736	-0.367747	0.367622
O15	O	1.019651	-0.284633	0.477390
O16	O	1.019540	-0.477498	0.284472
O17	O	0.936404	-0.477488	0.367603
C18	C	0.977977	-0.502052	0.326045
C19	C	0.978007	-0.577284	0.326054
C20	C	0.802198	-0.326175	0.326062
C21	C	0.726966	-0.326182	0.326071
C22	C	1.021338	-0.612610	0.282813
C23	C	1.021366	-0.683299	0.282828
C24	C	0.978060	-0.718659	0.326081
C25	C	0.934727	-0.683328	0.369327
C26	C	0.934703	-0.612641	0.369315
C27	C	0.934827	-0.968401	0.369377
C28	C	0.934854	-1.039093	0.369384
C29	C	1.021491	-1.039059	0.282890
C30	C	1.021466	-0.968372	0.282878
C31	C	0.978136	-0.933047	0.326126
C32	C	0.978107	-0.856398	0.326110
C33	C	0.978086	-0.795306	0.326094
C34	C	0.691647	-0.282968	0.369439
C35	C	0.620958	-0.282972	0.369441
C36	C	0.585590	-0.326193	0.326079
C37	C	0.620914	-0.369408	0.282706
C38	C	0.691601	-0.369401	0.282701
C39	C	0.335840	-0.369439	0.282727
C40	C	0.265148	-0.369444	0.282737
C41	C	0.265198	-0.283010	0.369468
C42	C	0.335885	-0.283002	0.369462
C43	C	0.371203	-0.326215	0.326087
C44	C	0.447851	-0.326210	0.326084
C45	C	0.508943	-0.326202	0.326085
C46	C	1.154596	-0.326218	0.326095
C47	C	1.229828	-0.326227	0.326102
C48	C	0.978060	-0.326197	0.502621
C49	C	0.978062	-0.326198	0.577853
C50	C	0.978148	-0.149653	0.326126
C51	C	0.978189	-0.074421	0.326146
C52	C	1.021370	-0.282919	0.613214
C53	C	1.021365	-0.282917	0.683902
C54	C	0.978053	-0.326198	0.719228
C55	C	0.934740	-0.369478	0.683862
C56	C	0.934743	-0.369476	0.613175
C57	C	0.934727	-0.369486	0.968936
C58	C	0.934729	-0.369486	1.039628
C59	C	1.021348	-0.282927	1.039663
C60	C	1.021351	-0.282925	0.968976
C61	C	0.978036	-0.326203	0.933616
C62	C	0.978042	-0.326203	0.856967
C63	C	0.978050	-0.326201	0.795876
C64	C	0.978041	-0.326208	1.150222
C65	C	0.978034	-0.326203	1.074990
H66	H	1.056600	-0.583825	0.247589
H67	H	1.056650	-0.712059	0.247616
H68	H	0.236434	-0.247822	0.404783
C69	C	1.068560	-0.930104	0.235893
C70	C	1.106528	-0.976172	0.198039
C71	C	1.149927	-0.940945	0.154757
H72	H	1.042758	-0.902557	0.206313
H73	H	1.098057	-0.902510	0.261794
H74	H	1.077035	-1.003753	0.172140
H75	H	1.132344	-1.003719	0.227601
H76	H	1.179423	-0.913351	0.180659
H77	H	1.124120	-0.913400	0.125182
H78	H	1.175698	-0.972196	0.129073
C79	C	1.068259	-0.235847	1.078090
C80	C	1.029958	-0.192445	1.118661
C81	C	1.073148	-0.149063	1.154060
H82	H	1.097748	-0.261663	1.105720
H83	H	1.094043	-0.210034	1.046947
H84	H	1.004185	-0.218255	1.149800
H85	H	1.000470	-0.166614	1.091048
H86	H	1.098931	-0.123249	1.122917
H87	H	1.102635	-0.174884	1.181686
H88	H	1.047166	-0.119605	1.181587
C89	C	0.226869	-0.416395	0.235577
C90	C	0.272927	-0.454224	0.197576
C91	C	0.237688	-0.497473	0.154123
H92	H	0.199288	-0.445991	0.261341
H93	H	0.199308	-0.390471	0.206104
H94	H	0.300475	-0.480146	0.227046
H95	H	0.300508	-0.424646	0.171798
H96	H	0.210128	-0.471549	0.124650
H97	H	0.210109	-0.527065	0.179892
H98	H	0.268933	-0.523141	0.128330
C99	C	0.887732	-0.416404	0.930429
C100	C	0.896986	-0.407130	0.860963
C101	C	0.853699	-0.450336	0.825466
H102	H	0.897573	-0.461909	0.941922
H103	H	0.842245	-0.406487	0.941972
H104	H	0.942463	-0.417051	0.849424
H105	H	0.887141	-0.361634	0.849450
H106	H	0.808212	-0.440419	0.837009
H107	H	0.863543	-0.495838	0.836965
H108	H	0.859967	-0.444045	0.778330
H109	H	0.899545	-0.939644	0.404590
H110	H	1.056775	-1.067830	0.247678
C111	C	0.374263	-0.416401	0.235750
C112	C	0.414852	-0.459829	0.273990
C113	C	0.450264	-0.503098	0.230736
H114	H	0.343148	-0.442207	0.209916
H115	H	0.401878	-0.390483	0.206310
H116	H	0.387239	-0.485744	0.303418
H117	H	0.445979	-0.434042	0.299822
H118	H	0.477880	-0.477180	0.201296
H119	H	0.419145	-0.528899	0.204904
H120	H	0.477813	-0.532565	0.256675
C121	C	0.887770	-0.574245	0.416345
C122	C	0.926052	-0.533631	0.459766
C123	C	0.882843	-0.498259	0.503109
H124	H	0.858276	-0.546647	0.390503
H125	H	0.861992	-0.605405	0.442148
H126	H	0.951818	-0.502476	0.433966
H127	H	0.955544	-0.561213	0.485623
H128	H	0.857065	-0.529418	0.528911
H129	H	0.853352	-0.470664	0.477260
H130	H	0.908811	-0.470703	0.532578
H131	H	0.899457	-0.404731	1.068388
C132	C	0.887642	-0.416496	0.722092
C133	C	0.849702	-0.454384	0.675992
C134	C	0.806303	-0.497700	0.711182
H135	H	0.913442	-0.446051	0.749664
H136	H	0.858128	-0.390617	0.749656
H137	H	0.879213	-0.480261	0.648439
H138	H	0.823889	-0.424846	0.648418
H139	H	0.776789	-0.471821	0.738747
H140	H	0.832109	-0.527251	0.738753
H141	H	0.780552	-0.523408	0.679909
H142	H	0.720439	-0.247774	0.404751
H143	H	0.899590	-1.067882	0.404611
C144	C	0.582601	-0.416445	0.235666
C145	C	0.599794	-0.483433	0.250270
C146	C	0.564522	-0.526785	0.206946
H147	H	0.535434	-0.410355	0.241839
H148	H	0.594192	-0.406508	0.190194
H149	H	0.588199	-0.493367	0.295731
H150	H	0.646955	-0.489545	0.244093
H151	H	0.576113	-0.516848	0.161474
H152	H	0.517356	-0.520688	0.213122
H153	H	0.576187	-0.572240	0.216844
H154	H	0.899470	-0.712124	0.404547
H155	H	0.899470	-0.404711	0.584385
C156	C	0.730037	-0.416360	0.235727
C157	C	0.770628	-0.459785	0.273967
C158	C	0.806051	-0.503046	0.230714
H159	H	0.698929	-0.442168	0.209886
H160	H	0.757652	-0.390436	0.206292
H161	H	0.743015	-0.485707	0.303390
H162	H	0.801749	-0.433996	0.299805
H163	H	0.833666	-0.477122	0.201279
H164	H	0.774938	-0.528849	0.204876
H165	H	0.833600	-0.532511	0.256653
H166	H	1.056642	-0.247677	0.584456
C167	C	0.582734	-0.236028	0.416602
C168	C	0.628838	-0.198191	0.454590
C169	C	0.593651	-0.154943	0.498048
H170	H	0.555163	-0.206437	0.390842
H171	H	0.555170	-0.261954	0.446083
H172	H	0.656391	-0.172268	0.425113
H173	H	0.656411	-0.227765	0.480364
H174	H	0.566087	-0.180869	0.527529
H175	H	0.566081	-0.125357	0.472283
H176	H	0.624927	-0.129270	0.523833
C177	C	1.068350	-0.235817	0.722202
C178	C	1.053662	-0.168849	0.705002
C179	C	1.096938	-0.125438	0.740260
H180	H	1.062192	-0.241916	0.769372
H181	H	1.113832	-0.245691	0.710606
H182	H	1.008190	-0.158978	0.716602
H183	H	1.059824	-0.162729	0.657838
H184	H	1.142420	-0.135313	0.728664
H185	H	1.090776	-0.131543	0.787428
H186	H	1.086982	-0.079996	0.728590
C187	C	0.374162	-0.236001	0.416567
C188	C	0.328101	-0.198143	0.454535
C189	C	0.363336	-0.154829	0.497927
H190	H	0.401739	-0.261859	0.446069
H191	H	0.401726	-0.206432	0.390739
H192	H	0.300549	-0.227709	0.480361
H193	H	0.300523	-0.172271	0.425051
H194	H	0.390899	-0.125260	0.472099
H195	H	0.390912	-0.180693	0.527424
H196	H	0.332089	-0.129133	0.523689
C197	C	1.068400	-0.235860	0.930744
C198	C	1.106315	-0.197943	0.976843
C199	C	1.149655	-0.154570	0.941650
H200	H	1.097939	-0.261678	0.903163
H201	H	1.042538	-0.206329	0.903189
H202	H	1.132175	-0.227470	1.004387
H203	H	1.076794	-0.172111	1.004425
H204	H	1.123793	-0.125040	0.914094
H205	H	1.179189	-0.180394	0.914070
H206	H	1.175380	-0.128834	0.972922
