data_functionalizedCrystal
_audit_creation_method	'MofGen! by Chris Wilmer'
_symmetry_space_group_name_H-M	'P1'
_symmetry_Int_Tables_number	1
_symmetry_cell_setting	triclinic
loop_
_symmetry_equiv_pos_as_xyz
  x,y,z
_cell_length_a	19.805407
_cell_length_b	17.637651
_cell_length_c	19.805399
_cell_angle_alpha	101.242610
_cell_angle_beta	90.019573
_cell_angle_gamma	101.218564
loop_
_atom_site_label
_atom_site_type_symbol
_atom_site_fract_x
_atom_site_fract_y
_atom_site_fract_z
Zn1	Zn	0.980303	-0.314779	0.328177
Zn2	Zn	1.480303	0.185221	0.828177
Zn3	Zn	0.957355	-0.446994	0.192080
Zn4	Zn	1.457355	0.053006	0.692080
Zn5	Zn	0.867114	-0.314800	0.214998
Zn6	Zn	1.367114	0.185200	0.714998
Zn7	Zn	0.844226	-0.446952	0.305234
Zn8	Zn	1.344226	0.053048	0.805234
O9	O	0.912250	-0.380881	0.260122
O10	O	1.412250	0.119119	0.760122
O11	O	1.071974	-0.332326	0.310134
O12	O	1.571974	0.167674	0.810134
O13	O	0.945360	-0.429485	0.100399
O14	O	1.445360	0.070515	0.600399
O15	O	0.901312	-0.204159	0.249205
O16	O	1.401312	0.295841	0.749205
O17	O	1.055114	-0.429464	0.210144
O18	O	1.555114	0.070536	0.710144
O19	O	0.984471	-0.204143	0.332357
O20	O	1.484471	0.295857	0.832357
O21	O	0.879060	-0.332363	0.117237
O22	O	1.379060	0.167637	0.617237
O23	O	0.769363	-0.332322	0.226958
O24	O	1.269363	0.167678	0.726958
O25	O	0.862302	-0.429392	0.402999
O26	O	1.362302	0.070608	0.902999
O27	O	0.752547	-0.429413	0.293254
O28	O	1.252547	0.070587	0.793254
O29	O	0.962277	-0.332285	0.419855
O30	O	1.462277	0.167715	0.919855
O31	O	0.923166	-0.557627	0.187897
O32	O	1.423166	-0.057627	0.687897
O33	O	0.840050	-0.557596	0.271031
O34	O	1.340050	-0.057596	0.771031
C35	C	0.736396	-0.380866	0.260103
C36	C	1.236396	0.119134	0.760103
C37	C	0.661162	-0.380879	0.260108
C38	C	1.161162	0.119121	0.760108
C39	C	0.876652	-0.586299	0.224502
C40	C	1.376652	-0.086299	0.724502
C41	C	0.861485	-0.674177	0.209286
C42	C	1.361485	-0.174177	0.709286
C43	C	0.617066	-0.431510	0.294545
C44	C	1.117066	0.068490	0.794545
C45	C	0.546378	-0.431512	0.294554
C46	C	1.046378	0.068488	0.794554
C47	C	0.519785	-0.380885	0.260122
C48	C	1.019785	0.119115	0.760122
C49	C	0.563887	-0.330248	0.225684
C50	C	1.063887	0.169752	0.725684
C51	C	0.634575	-0.330243	0.225679
C52	C	1.134575	0.169757	0.725679
C53	C	0.278811	-0.330265	0.225703
C54	C	0.778811	0.169735	0.725703
C55	C	0.208117	-0.330276	0.225709
C56	C	0.708117	0.169724	0.725709
C57	C	0.190613	-0.431534	0.294578
C58	C	0.690613	0.068466	0.794578
C59	C	0.261301	-0.431529	0.294573
C60	C	0.761301	0.068471	0.794573
C61	C	0.305397	-0.380889	0.260139
C62	C	0.805397	0.119111	0.760139
C63	C	0.382046	-0.380887	0.260130
C64	C	0.882046	0.119113	0.760130
C65	C	0.443137	-0.380890	0.260126
C66	C	0.943137	0.119110	0.760126
C67	C	1.027910	-0.962863	0.375930
C68	C	1.527910	-0.462863	0.875930
C69	C	1.013637	-1.045438	0.361620
C70	C	1.513637	-0.545438	0.861620
C71	C	0.927101	-1.045562	0.274950
C72	C	1.427101	-0.545562	0.774950
C73	C	0.941369	-0.962985	0.289250
C74	C	1.441369	-0.462985	0.789250
C75	C	0.991774	-0.921642	0.339741
C76	C	1.491774	-0.421642	0.839741
C77	C	0.905232	-0.921764	0.253061
C78	C	1.405232	-0.421764	0.753061
C79	C	0.919497	-0.839195	0.267363
C80	C	1.419497	-0.339195	0.767363
C81	C	0.969898	-0.797846	0.317853
C82	C	1.469898	-0.297846	0.817853
C83	C	1.006039	-0.839072	0.354043
C84	C	1.506039	-0.339072	0.854043
C85	C	0.854824	-0.963109	0.202574
C86	C	1.354824	-0.463109	0.702574
C87	C	0.818688	-0.921888	0.166385
C88	C	1.318688	-0.421888	0.666385
C89	C	0.832956	-0.839317	0.180683
C90	C	1.332956	-0.339317	0.680683
C91	C	0.883357	-0.797968	0.231173
C92	C	1.383357	-0.297968	0.731173
C93	C	0.796816	-0.798090	0.144494
C94	C	1.296816	-0.298090	0.644494
C95	C	0.811080	-0.715521	0.158795
C96	C	1.311080	-0.215521	0.658795
C97	C	0.897622	-0.715398	0.245475
C98	C	1.397622	-0.215398	0.745475
C99	C	1.088790	-0.380897	0.260142
C100	C	1.588790	0.119103	0.760142
C101	C	1.164020	-0.380904	0.260150
C102	C	1.664020	0.119096	0.760150
C103	C	0.912296	-0.380831	0.436674
C104	C	1.412296	0.119169	0.936674
C105	C	0.912316	-0.380810	0.511910
C106	C	1.412316	0.119190	1.011910
C107	C	0.948005	-0.174661	0.295897
C108	C	1.448005	0.325339	0.795897
C109	C	0.963241	-0.086783	0.311142
C110	C	1.463241	0.413217	0.811142
C111	C	0.912252	-0.380874	0.084268
C112	C	1.412252	0.119126	0.584268
C113	C	0.912402	-0.380672	0.009071
C114	C	1.412402	0.119328	0.509071
C115	C	0.964375	-0.330244	0.556032
C116	C	1.464375	0.169756	1.056032
C117	C	0.964386	-0.330221	0.626725
C118	C	1.464386	0.169779	1.126725
C119	C	0.912340	-0.380769	0.653292
C120	C	1.412340	0.119231	1.153292
C121	C	0.860276	-0.431337	0.609164
C122	C	1.360276	0.068663	1.109164
C123	C	0.860263	-0.431356	0.538474
C124	C	1.360263	0.068644	1.038474
C125	C	0.860327	-0.431264	0.894250
C126	C	1.360327	0.068736	1.394250
C127	C	0.860345	-0.431243	0.964946
C128	C	1.360345	0.068757	1.464946
C129	C	0.964450	-0.330129	0.982501
C130	C	1.464450	0.169871	1.482501
C131	C	0.964437	-0.330147	0.911811
C132	C	1.464437	0.169853	1.411811
C133	C	0.912371	-0.380712	0.867690
C134	C	1.412371	0.119288	1.367690
C135	C	0.912359	-0.380736	0.791037
C136	C	1.412359	0.119264	1.291037
C137	C	0.912354	-0.380750	0.729943
C138	C	1.412354	0.119250	1.229943
H139	H	0.638711	-0.472739	0.322581
H140	H	1.138711	0.027261	0.822581
H141	H	0.886059	-1.079235	0.233842
H142	H	1.386059	-0.579235	0.733842
H143	H	0.981512	-0.730612	0.329496
H144	H	1.481512	-0.230612	0.829496
O145	O	0.747900	-0.838168	0.095373
O146	O	1.247900	-0.338168	0.595373
C147	C	0.766220	-0.818047	0.031410
C148	C	1.266220	-0.318047	0.531410
H149	H	0.802603	-0.758079	0.040413
H150	H	1.302603	-0.258079	0.540413
H151	H	0.717867	-0.815279	0.001494
H152	H	1.217867	-0.315279	0.501494
H153	H	0.793002	-0.864512	0.000600
H154	H	1.293002	-0.364512	0.500600
O155	O	0.809865	-0.480432	0.990769
O156	O	1.309865	0.019568	1.490769
C157	C	0.839555	-0.531480	1.022817
C158	C	1.339555	-0.031480	1.522817
H159	H	0.892010	-0.536377	1.000672
H160	H	1.392010	-0.036377	1.500672
H161	H	0.804523	-0.592321	1.013060
H162	H	1.304523	-0.092321	1.513060
H163	H	0.846140	-0.507022	1.080634
H164	H	1.346140	-0.007022	1.580634
H165	H	0.154702	-0.472764	0.322620
H166	H	0.654702	0.027236	0.822620
O167	O	0.677468	-0.281172	0.192172
O168	O	1.177468	0.218828	0.692172
C169	C	0.710539	-0.326117	0.140586
C170	C	1.210539	0.173883	0.640586
H171	H	0.710749	-0.386070	0.153977
H172	H	1.210749	0.113930	0.653977
H173	H	0.765826	-0.293897	0.137146
H174	H	1.265826	0.206103	0.637146
H175	H	0.681786	-0.334728	0.088923
H176	H	1.181786	0.165272	0.588923
O177	O	0.538006	-0.281179	0.192148
O178	O	1.038006	0.218821	0.692148
C179	C	0.489299	-0.326125	0.140588
C180	C	0.989299	0.173875	0.640588
H181	H	0.499812	-0.388386	0.125517
H182	H	0.999812	0.111614	0.625517
H183	H	0.493441	-0.297445	0.093514
H184	H	0.993441	0.202555	0.593514
H185	H	0.435257	-0.328887	0.161039
H186	H	0.935257	0.171113	0.661039
H187	H	1.068960	-0.929200	0.417040
H188	H	1.568960	-0.429200	0.917040
H189	H	1.006842	-0.288953	1.018435
H190	H	1.506842	0.211047	1.518435
H191	H	0.510477	-0.472742	0.322595
H192	H	1.010477	0.027258	0.822595
O193	O	0.321686	-0.280999	0.192362
O194	O	0.821686	0.219001	0.692362
C195	C	0.371438	-0.230001	0.239807
C196	C	0.871438	0.269999	0.739807
H197	H	0.350990	-0.225198	0.293957
H198	H	0.850990	0.274802	0.793957
H199	H	0.382779	-0.169119	0.225967
H200	H	0.882779	0.330881	0.725967
H201	H	0.420777	-0.254445	0.237863
H202	H	0.920777	0.245555	0.737863
O203	O	1.014951	-0.281108	0.885889
O204	O	1.514951	0.218892	1.385889
C205	C	1.003762	-0.291947	0.814038
C206	C	1.503762	0.208053	1.314038
H207	H	0.971027	-0.352970	0.793789
H208	H	1.471027	0.147030	1.293789
H209	H	1.055383	-0.286574	0.788108
H210	H	1.555383	0.213426	1.288108
H211	H	0.975828	-0.245063	0.802114
H212	H	1.475828	0.254937	1.302114
H213	H	0.186469	-0.289044	0.197671
H214	H	0.686469	0.210956	0.697671
O215	O	1.048765	-1.085559	0.396674
O216	O	1.548765	-0.585559	0.896674
C217	C	1.084277	-1.133300	0.349922
C218	C	1.584277	-0.633300	0.849922
H219	H	1.058295	-1.145735	0.296451
H220	H	1.558295	-0.645735	0.796451
H221	H	1.083307	-1.191332	0.367459
H222	H	1.583307	-0.691332	0.867459
H223	H	1.139943	-1.101441	0.348053
H224	H	1.639943	-0.601441	0.848053
H225	H	0.817898	-0.472491	0.630802
H226	H	1.317898	0.027509	1.130802
H227	H	0.781654	-0.681958	0.129327
H228	H	1.281654	-0.181958	0.629327
O229	O	0.946508	-0.675140	0.294568
O230	O	1.446508	-0.175140	0.794568
C231	C	0.916191	-0.627395	0.346526
C232	C	1.416191	-0.127395	0.846526
H233	H	0.867034	-0.615091	0.324738
H234	H	1.367034	-0.115091	0.824738
H235	H	0.953785	-0.569300	0.365680
H236	H	1.453785	-0.069300	0.865680
H237	H	0.903237	-0.659186	0.391175
H238	H	1.403237	-0.159186	0.891175
H239	H	0.817940	-0.472449	0.858333
H240	H	1.317940	0.027551	1.358333
H241	H	0.817866	-0.472524	0.502550
H242	H	1.317866	0.027476	1.002550
O243	O	1.014968	-0.281066	0.530345
O244	O	1.514968	0.218934	1.030345
C245	C	1.060927	-0.236444	0.584450
C246	C	1.560927	0.263556	1.084450
H247	H	1.033686	-0.233692	0.635309
H248	H	1.533686	0.266308	1.135309
H249	H	1.078943	-0.174156	0.574835
H250	H	1.578943	0.325844	1.074835
H251	H	1.107313	-0.265399	0.586955
H252	H	1.607313	0.234601	1.086955
O253	O	0.287023	-0.480733	0.328081
O254	O	0.787023	0.019267	0.828081
C255	C	0.232942	-0.525436	0.358465
C256	C	0.732942	-0.025436	0.858465
H257	H	0.188163	-0.493061	0.366472
H258	H	0.688163	0.006939	0.866472
H259	H	0.251914	-0.533948	0.410304
H260	H	0.751914	-0.033948	0.910304
H261	H	0.215017	-0.585447	0.323191
H262	H	0.715017	-0.085447	0.823191
H263	H	1.047088	-0.805409	0.395153
H264	H	1.547088	-0.305409	0.895153
H265	H	0.843205	-1.030342	0.190938
H266	H	1.343205	-0.530342	0.690938
O267	O	1.014883	-0.281119	0.669687
O268	O	1.514883	0.218881	1.169687
C269	C	1.003741	-0.291945	0.737776
C270	C	1.503741	0.208055	1.237776
H271	H	0.947020	-0.317840	0.742926
H272	H	1.447020	0.182160	1.242926
H273	H	1.018595	-0.232712	0.774912
H274	H	1.518595	0.267288	1.274912
H275	H	1.036597	-0.334036	0.750551
H276	H	1.536597	0.165964	1.250551
H277	H	0.777647	-0.955561	0.125277
H278	H	1.277647	-0.455561	0.625277
