data_functionalizedCrystal
_audit_creation_method	'MofGen! by Chris Wilmer'
_symmetry_space_group_name_H-M	'P1'
_symmetry_Int_Tables_number	1
_symmetry_cell_setting	triclinic
loop_
_symmetry_equiv_pos_as_xyz
  x,y,z
_cell_length_a	14.519709
_cell_length_b	8.597366
_cell_length_c	7.681481
_cell_angle_alpha	103.474720
_cell_angle_beta	84.246308
_cell_angle_gamma	84.511450
loop_
_atom_site_label
_atom_site_type_symbol
_atom_site_fract_x
_atom_site_fract_y
_atom_site_fract_z
O1	O	0.127529	2.100203	0.172201
O2	O	0.142225	1.636186	0.101798
O3	O	0.000626	1.880499	0.138882
O4	O	0.269129	1.855890	0.135116
O5	O	-0.016842	1.910570	0.436304
O6	O	0.124757	1.666256	0.399220
O7	O	0.110061	2.130274	0.469623
Zn8	Zn	0.114636	1.903040	0.481643
Zn9	Zn	0.137651	1.863420	0.089777
O10	O	0.251661	1.885961	0.432539
C11	C	0.132887	1.591836	0.241499
C12	C	0.131074	1.414887	0.214652
C13	C	-0.042467	1.894387	0.287419
C14	C	-0.144845	1.890951	0.286899
C15	C	-0.519725	1.878296	0.284933
C16	C	-0.415422	1.881810	0.285480
C17	C	-0.332289	1.884623	0.285918
C18	C	-0.227978	1.888138	0.286461
C19	C	0.294754	1.872072	0.283997
C20	C	0.397132	1.875507	0.284506
C21	C	0.119400	2.174623	0.329918
C22	C	0.121214	2.351571	0.356753
N23	N	0.098928	1.930091	0.749084
N24	N	0.153351	1.836382	-0.177661
H25	H	0.138122	1.333724	0.072443
H26	H	0.114159	1.432745	0.498971
H27	H	0.208900	1.740724	0.732622
C28	C	0.024965	2.057903	0.868651
C29	C	0.042496	2.210066	0.847017
C30	C	-0.025611	2.327842	0.957149
H31	H	-0.034828	2.037417	0.835501
H32	H	0.026680	2.055079	0.991202
H33	H	0.040772	2.212886	0.724494
H34	H	0.102277	2.230604	0.880180
H35	H	-0.023897	2.325019	1.079699
H36	H	-0.085401	2.307341	0.923988
H37	H	-0.013721	2.431099	0.942497
