data_functionalizedCrystal
_audit_creation_method	'MofGen! by Chris Wilmer'
_symmetry_space_group_name_H-M	'P1'
_symmetry_Int_Tables_number	1
_symmetry_cell_setting	triclinic
loop_
_symmetry_equiv_pos_as_xyz
  x,y,z
_cell_length_a	19.188930
_cell_length_b	11.026607
_cell_length_c	9.483290
_cell_angle_alpha	98.153647
_cell_angle_beta	79.536579
_cell_angle_gamma	84.134601
loop_
_atom_site_label
_atom_site_type_symbol
_atom_site_fract_x
_atom_site_fract_y
_atom_site_fract_z
O1	O	0.280320	-1.591745	0.120949
O2	O	0.247050	-1.238616	0.120943
O3	O	0.163331	-1.425375	0.120918
O4	O	0.364039	-1.404986	0.120974
O5	O	0.187025	-1.459077	-0.120852
O6	O	0.270744	-1.272318	-0.120826
O7	O	0.304013	-1.625447	-0.120821
Cu8	Cu	0.289542	-1.451960	-0.142899
Cu9	Cu	0.261521	-1.412103	0.143021
O10	O	0.387733	-1.438688	-0.120796
C11	C	0.149083	-1.441566	0.000029
C12	C	0.071327	-1.439587	0.000016
C13	C	0.252759	-1.210289	0.000057
C14	C	0.234463	-1.075672	0.000054
C15	C	0.298304	-1.653773	0.000068
C16	C	0.316599	-1.788388	0.000081
C17	C	0.040369	-1.549169	0.000011
C18	C	-0.032694	-1.547305	0.000034
C19	C	-0.074794	-1.435855	0.000033
C20	C	-0.043829	-1.326257	0.000047
C21	C	0.029232	-1.328123	0.000038
N22	N	-0.185592	-1.362135	-0.082247
N23	N	-0.254996	-1.360371	-0.082242
C24	C	-0.294922	-1.430227	0.000063
N25	N	-0.262820	-1.501935	0.082343
N26	N	-0.193409	-1.503704	0.082332
C27	C	-0.154017	-1.433820	0.000044
C28	C	-0.405104	-1.537795	0.000085
C29	C	-0.478169	-1.535925	0.000117
C30	C	-0.489302	-1.314876	0.000115
C31	C	-0.416239	-1.316748	0.000098
C32	C	-0.374143	-1.428211	0.000075
C33	C	0.401980	-1.422496	0.000097
C34	C	0.479735	-1.424474	0.000119
N35	N	0.309251	-1.480002	-0.344000
C36	C	0.284982	-1.001596	0.000069
C37	C	0.266073	-0.862463	0.000066
C38	C	0.283730	-1.443712	-0.583638
C39	C	0.267323	-1.420351	-0.416236
N40	N	0.241808	-1.384070	0.344122
H41	H	0.074639	-1.639931	-0.000002
C42	C	-0.358798	-1.660403	0.000082
N43	N	-0.323923	-1.752752	0.000085
H44	H	0.357295	-1.548354	-0.406078
H45	H	0.373854	-0.827968	0.000087
C46	C	0.176882	-1.291786	-0.572010
N47	N	0.127967	-1.222299	-0.508843
C48	C	-0.535608	-1.192279	0.000120
N49	N	-0.570490	-1.099935	0.000126
C50	C	-0.512221	-1.656482	0.000103
N51	N	-0.537869	-1.747289	0.000086
C52	C	0.188725	-0.808997	0.000044
N53	N	0.130468	-0.768724	0.000030
C54	C	0.157119	-1.022201	0.000032
N55	N	0.098862	-0.981928	0.000018
C56	C	-0.066754	-1.667860	0.000019
N57	N	-0.092406	-1.758664	0.000003
H58	H	0.054436	-1.238885	0.000042
C59	C	0.202394	-1.328062	-0.332375
N60	N	0.153479	-1.258576	-0.269208
C61	C	-0.090140	-1.203664	0.000036
N62	N	-0.125021	-1.111323	0.000028
C63	C	-0.382183	-1.196197	0.000095
N64	N	-0.356534	-1.105392	0.000099
H65	H	0.342233	-1.041183	0.000077
C66	C	0.348627	-1.536061	-0.667505
N67	N	0.397509	-1.605621	-0.730672
