data_functionalizedCrystal
_audit_creation_method	'MofGen! by Chris Wilmer'
_symmetry_space_group_name_H-M	'P1'
_symmetry_Int_Tables_number	1
_symmetry_cell_setting	triclinic
loop_
_symmetry_equiv_pos_as_xyz
  x,y,z
_cell_length_a	18.266242
_cell_length_b	15.995350
_cell_length_c	15.995292
_cell_angle_alpha	96.519505
_cell_angle_beta	90.003154
_cell_angle_gamma	89.994611
loop_
_atom_site_label
_atom_site_type_symbol
_atom_site_fract_x
_atom_site_fract_y
_atom_site_fract_z
O1	O	0.060814	-1.110968	0.107931
O2	O	0.310814	-0.860968	0.357931
O3	O	0.560814	-0.610968	0.607931
O4	O	0.810814	-0.360968	0.857931
O5	O	0.060828	-0.867190	0.121259
O6	O	0.310828	-0.617190	0.371259
O7	O	0.560828	-0.367190	0.621259
O8	O	0.810828	-0.117190	0.871259
O9	O	0.060822	-0.995769	-0.007296
O10	O	0.310822	-0.745769	0.242704
O11	O	0.560822	-0.495769	0.492704
O12	O	0.810822	-0.245769	0.742704
O13	O	0.060820	-0.982390	0.236486
O14	O	0.310820	-0.732390	0.486486
O15	O	0.560820	-0.482390	0.736486
O16	O	0.810820	-0.232390	0.986486
O17	O	-0.060940	-0.995747	-0.007303
O18	O	0.189060	-0.745747	0.242697
O19	O	0.439060	-0.495747	0.492697
O20	O	0.689060	-0.245747	0.742697
O21	O	-0.060934	-0.867169	0.121252
O22	O	0.189066	-0.617169	0.371252
O23	O	0.439066	-0.367169	0.621252
O24	O	0.689066	-0.117169	0.871252
O25	O	-0.060948	-1.110947	0.107924
O26	O	0.189052	-0.860947	0.357924
O27	O	0.439052	-0.610947	0.607924
O28	O	0.689052	-0.360947	0.857924
Zn29	Zn	-0.080273	-0.989054	0.114587
Zn30	Zn	0.169727	-0.739054	0.364587
Zn31	Zn	0.419727	-0.489054	0.614587
Zn32	Zn	0.669727	-0.239054	0.864587
Zn33	Zn	0.080153	-0.989083	0.114596
Zn34	Zn	0.330153	-0.739083	0.364596
Zn35	Zn	0.580153	-0.489083	0.614596
Zn36	Zn	0.830153	-0.239083	0.864596
O37	O	-0.060942	-0.982368	0.236479
O38	O	0.189058	-0.732368	0.486479
O39	O	0.439058	-0.482368	0.736479
O40	O	0.689058	-0.232368	0.986479
C41	C	-0.000051	-0.835985	0.120704
C42	C	0.249949	-0.585985	0.370704
C43	C	0.499949	-0.335985	0.620704
C44	C	0.749949	-0.085985	0.870704
C45	C	-0.000045	-0.743035	0.119053
C46	C	0.249955	-0.493035	0.369053
C47	C	0.499955	-0.243035	0.619053
C48	C	0.749955	0.006965	0.869053
N49	N	-0.189760	-0.989041	0.114581
N50	N	0.060240	-0.739041	0.364581
N51	N	0.310240	-0.489041	0.614581
N52	N	0.560240	-0.239041	0.864581
C53	C	-0.000058	-0.995213	-0.038495
C54	C	0.249942	-0.745213	0.211505
C55	C	0.499942	-0.495213	0.461505
C56	C	0.749942	-0.245213	0.711505
C57	C	-0.000052	-0.993581	-0.131448
C58	C	0.249948	-0.743581	0.118552
C59	C	0.499948	-0.493581	0.368552
C60	C	0.749948	-0.243581	0.618552
C61	C	-0.228072	-1.045994	0.057684
C62	C	0.021928	-0.795994	0.307684
C63	C	0.271928	-0.545994	0.557684
C64	C	0.521928	-0.295994	0.807684
C65	C	-0.304717	-1.045999	0.057681
C66	C	-0.054717	-0.795999	0.307681
C67	C	0.195283	-0.545999	0.557681
C68	C	0.445283	-0.295999	0.807681
C69	C	-0.343047	-0.989059	0.114587
C70	C	-0.093047	-0.739059	0.364587
C71	C	0.156953	-0.489059	0.614587
C72	C	0.406953	-0.239059	0.864587
C73	C	-0.304726	-0.932095	0.171488
C74	C	-0.054726	-0.682095	0.421488
C75	C	0.195274	-0.432095	0.671488
C76	C	0.445274	-0.182095	0.921488
C77	C	-0.228083	-0.932086	0.171484
C78	C	0.021917	-0.682086	0.421484
C79	C	0.271917	-0.432086	0.671484
C80	C	0.521917	-0.182086	0.921484
N81	N	-0.463380	-0.978386	0.188678
N82	N	-0.213380	-0.728386	0.438678
N83	N	0.036620	-0.478386	0.688678
N84	N	0.286620	-0.228386	0.938678
N85	N	-0.536188	-0.978400	0.188678
N86	N	-0.286188	-0.728400	0.438678
N87	N	-0.036188	-0.478400	0.688678
N88	N	0.213812	-0.228400	0.938678
C89	C	-0.573970	-0.989083	0.114599
C90	C	-0.323970	-0.739083	0.364599
C91	C	-0.073970	-0.489083	0.614599
C92	C	0.176030	-0.239083	0.864599
N93	N	-0.536193	-0.999767	0.040518
N94	N	-0.286193	-0.749767	0.290518
N95	N	-0.036193	-0.499767	0.540518
N96	N	0.213807	-0.249767	0.790518
N97	N	-0.463378	-0.999758	0.040518
N98	N	-0.213378	-0.749758	0.290518
N99	N	0.036622	-0.499758	0.540518
N100	N	0.286622	-0.249758	0.790518
C101	C	-0.426154	-0.989063	0.114597
C102	C	-0.176154	-0.739063	0.364597
C103	C	0.073846	-0.489063	0.614597
C104	C	0.323846	-0.239063	0.864597
C105	C	-0.695389	-1.046045	0.057694
C106	C	-0.445389	-0.796045	0.307694
C107	C	-0.195389	-0.546045	0.557694
C108	C	0.054611	-0.296045	0.807694
C109	C	-0.772035	-1.046044	0.057689
C110	C	-0.522035	-0.796044	0.307689
C111	C	-0.272035	-0.546044	0.557689
C112	C	-0.022035	-0.296044	0.807689
C113	C	-0.772043	-0.932145	0.171504
C114	C	-0.522043	-0.682145	0.421504
C115	C	-0.272043	-0.432145	0.671504
C116	C	-0.022043	-0.182145	0.921504
C117	C	-0.695398	-0.932141	0.171502
C118	C	-0.445398	-0.682141	0.421502
C119	C	-0.195398	-0.432141	0.671502
C120	C	0.054602	-0.182141	0.921502
C121	C	-0.657075	-0.989096	0.114598
C122	C	-0.407075	-0.739096	0.364598
C123	C	-0.157075	-0.489096	0.614598
C124	C	0.092925	-0.239096	0.864598
N125	N	0.189640	-0.989103	0.114596
N126	N	0.439640	-0.739103	0.364596
N127	N	0.689640	-0.489103	0.614596
N128	N	0.939640	-0.239103	0.864596
C129	C	-0.000068	-1.142152	0.108479
C130	C	0.249932	-0.892152	0.358479
C131	C	0.499932	-0.642152	0.608479
C132	C	0.749932	-0.392152	0.858479
C133	C	-0.000069	-1.235102	0.110130
C134	C	0.249931	-0.985102	0.360130
C135	C	0.499931	-0.735102	0.610130
C136	C	0.749931	-0.485102	0.860130
C137	C	-0.000060	-0.405288	0.113120
C138	C	0.249940	-0.155288	0.363120
C139	C	0.499940	0.094712	0.613120
C140	C	0.749940	0.344712	0.863120
C141	C	-0.000332	-0.452742	0.021566
C142	C	0.249668	-0.202742	0.271566
C143	C	0.499668	0.047258	0.521566
C144	C	0.749668	0.297258	0.771566
C145	C	-0.000052	-0.549431	0.023218
C146	C	0.249948	-0.299431	0.273218
C147	C	0.499948	-0.049431	0.523218
C148	C	0.749948	0.200569	0.773218
C149	C	-0.000053	-0.572848	0.116063
C150	C	0.249947	-0.322848	0.366063
C151	C	0.499947	-0.072848	0.616063
C152	C	0.749947	0.177152	0.866063
C153	C	0.069476	-0.531764	0.161224
C154	C	0.319476	-0.281764	0.411224
C155	C	0.569476	-0.031764	0.661224
C156	C	0.819476	0.218236	0.911224
C157	C	0.069529	-0.435129	0.158924
C158	C	0.319529	-0.185129	0.408924
C159	C	0.569529	0.064871	0.658924
C160	C	0.819529	0.314871	0.908924
C161	C	-0.068938	-0.434765	0.160808
C162	C	0.181062	-0.184765	0.410808
C163	C	0.431062	0.065235	0.660808
C164	C	0.681062	0.315235	0.910808
C165	C	-0.069851	-0.531710	0.160787
C166	C	0.180149	-0.281710	0.410787
C167	C	0.430149	-0.031710	0.660787
C168	C	0.680149	0.218290	0.910787
C169	C	-0.000047	-0.667546	0.117731
C170	C	0.249953	-0.417546	0.367731
C171	C	0.499953	-0.167546	0.617731
C172	C	0.749953	0.082454	0.867731
C173	C	-0.000062	-0.310591	0.111455
C174	C	0.249938	-0.060591	0.361455
C175	C	0.499938	0.189409	0.611455
C176	C	0.749938	0.439409	0.861455
C177	C	-0.000058	-0.987580	-0.469186
C178	C	0.249942	-0.737580	-0.219186
C179	C	0.499942	-0.487580	0.030814
C180	C	0.749942	-0.237580	0.280814
C181	C	-0.000336	-1.080384	-0.445874
C182	C	0.249664	-0.830384	-0.195874
C183	C	0.499664	-0.580384	0.054126
C184	C	0.749664	-0.330384	0.304126
C185	C	-0.000059	-1.082148	-0.349199
C186	C	0.249941	-0.832148	-0.099199
C187	C	0.499941	-0.582148	0.150801
C188	C	0.749941	-0.332148	0.400801
C189	C	-0.000056	-0.990557	-0.301631
C190	C	0.249944	-0.740557	-0.051631
C191	C	0.499944	-0.490557	0.198369
C192	C	0.749944	-0.240557	0.448369
C193	C	0.069477	-0.944172	-0.330728
C194	C	0.319477	-0.694172	-0.080728
C195	C	0.569477	-0.444172	0.169272
C196	C	0.819477	-0.194172	0.419272
C197	C	0.069533	-0.943055	-0.427518
C198	C	0.319533	-0.693055	-0.177518
C199	C	0.569533	-0.443055	0.072482
C200	C	0.819533	-0.193055	0.322482
C201	C	-0.068933	-0.941135	-0.427383
C202	C	0.181067	-0.691135	-0.177383
C203	C	0.431067	-0.441135	0.072617
C204	C	0.681067	-0.191135	0.322617
C205	C	-0.069850	-0.944574	-0.330890
C206	C	0.180150	-0.694574	-0.080890
C207	C	0.430150	-0.444574	0.169110
C208	C	0.680150	-0.194574	0.419110
C209	C	-0.000052	-0.992235	-0.206934
C210	C	0.249948	-0.742235	0.043066
C211	C	0.499948	-0.492235	0.293066
C212	C	0.749948	-0.242235	0.543066
C213	C	-0.000057	-0.985899	-0.563882
C214	C	0.249943	-0.735899	-0.313882
C215	C	0.499943	-0.485899	-0.063882
C216	C	0.749943	-0.235899	0.186118
C217	C	-0.000061	-0.982924	0.267678
C218	C	0.249939	-0.732924	0.517678
C219	C	0.499939	-0.482924	0.767678
C220	C	0.749939	-0.232924	1.017678
C221	C	-0.000062	-0.984556	0.360631
C222	C	0.249938	-0.734556	0.610631
C223	C	0.499938	-0.484556	0.860631
C224	C	0.749938	-0.234556	1.110631
H225	H	-0.196872	-1.092367	0.011348
H226	H	0.053128	-0.842367	0.261348
H227	H	0.303128	-0.592367	0.511348
H228	H	0.553128	-0.342367	0.761348
Br229	Br	0.082311	-0.420107	-0.039155
Br230	Br	0.332311	-0.170107	0.210845
Br231	Br	0.582311	0.079893	0.460845
Br232	Br	0.832311	0.329893	0.710845
H233	H	-0.664185	-1.092418	0.011357
H234	H	-0.414185	-0.842418	0.261357
H235	H	-0.164185	-0.592418	0.511357
H236	H	0.085815	-0.342418	0.761357
Br237	Br	0.073804	-0.555308	0.274906
Br238	Br	0.323804	-0.305308	0.524906
Br239	Br	0.573804	-0.055308	0.774906
Br240	Br	0.823804	0.194692	1.024906
Br241	Br	-0.155584	-0.577118	0.105744
Br242	Br	0.094416	-0.327118	0.355744
Br243	Br	0.344416	-0.077118	0.605744
Br244	Br	0.594416	0.172882	0.855744
H245	H	0.121221	-0.560154	0.129863
H246	H	0.371221	-0.310154	0.379863
H247	H	0.621221	-0.060154	0.629863
H248	H	0.871221	0.189846	0.879863
Br249	Br	0.155722	-0.997888	-0.297294
Br250	Br	0.405722	-0.747888	-0.047294
Br251	Br	0.655722	-0.497888	0.202706
Br252	Br	0.905722	-0.247888	0.452706
Br253	Br	-0.156778	-0.400538	0.110914
Br254	Br	0.093222	-0.150538	0.360914
Br255	Br	0.343222	0.099462	0.610914
Br256	Br	0.593222	0.349462	0.860914
H257	H	-0.803229	-1.092420	0.011353
H258	H	-0.553229	-0.842420	0.261353
H259	H	-0.303229	-0.592420	0.511353
H260	H	-0.053229	-0.342420	0.761353
Br261	Br	0.083311	-0.595863	-0.036074
Br262	Br	0.333311	-0.345863	0.213926
Br263	Br	0.583311	-0.095863	0.463926
Br264	Br	0.833311	0.154137	0.713926
Br265	Br	-0.643397	-0.854847	0.248724
Br266	Br	-0.393397	-0.604847	0.498724
Br267	Br	-0.143397	-0.354847	0.748724
Br268	Br	0.106603	-0.104847	0.998724
H269	H	-0.074047	-0.877721	-0.297921
H270	H	0.175953	-0.627721	-0.047921
H271	H	0.425953	-0.377721	0.202079
H272	H	0.675953	-0.127721	0.452079
Br273	Br	-0.076854	-0.557287	0.273638
Br274	Br	0.173146	-0.307287	0.523638
Br275	Br	0.423146	-0.057287	0.773638
Br276	Br	0.673146	0.192713	1.023638
H277	H	-0.069409	-0.402989	0.228311
H278	H	0.180591	-0.152989	0.478311
H279	H	0.430591	0.097011	0.728311
H280	H	0.680591	0.347011	0.978311
Br281	Br	-0.824056	-0.854860	0.248726
Br282	Br	-0.574056	-0.604860	0.498726
Br283	Br	-0.324056	-0.354860	0.748726
Br284	Br	-0.074056	-0.104860	0.998726
Br285	Br	-0.083124	-0.596817	-0.035950
Br286	Br	0.166876	-0.346817	0.214050
Br287	Br	0.416876	-0.096817	0.464050
Br288	Br	0.666876	0.153183	0.714050
Br289	Br	-0.083147	-1.142673	-0.317485
Br290	Br	0.166853	-0.892673	-0.067485
Br291	Br	0.416853	-0.642673	0.182515
Br292	Br	0.666853	-0.392673	0.432515
Br293	Br	-0.083440	-0.421865	-0.039438
Br294	Br	0.166560	-0.171865	0.210562
Br295	Br	0.416560	0.078135	0.460562
Br296	Br	0.666560	0.328135	0.710562
H297	H	0.121504	-0.416837	0.125996
H298	H	0.371504	-0.166837	0.375996
H299	H	0.621504	0.083163	0.625996
H300	H	0.871504	0.333163	0.875996
H301	H	0.072683	-0.402867	0.226142
H302	H	0.322683	-0.152867	0.476142
H303	H	0.572683	0.097133	0.726142
H304	H	0.822683	0.347133	0.976142
H305	H	-0.050201	-1.116146	-0.473874
H306	H	0.199799	-0.866146	-0.223874
H307	H	0.449799	-0.616146	0.026126
H308	H	0.699799	-0.366146	0.276126
H309	H	-0.335939	-0.885733	0.217821
H310	H	-0.085939	-0.635733	0.467821
H311	H	0.164061	-0.385733	0.717821
H312	H	0.414061	-0.135733	0.967821
H313	H	0.049245	-1.115965	-0.474889
H314	H	0.299245	-0.865965	-0.224889
H315	H	0.549245	-0.615965	0.025111
H316	H	0.799245	-0.365965	0.275111
Br317	Br	0.083157	-1.143083	-0.318510
Br318	Br	0.333157	-0.893083	-0.068510
Br319	Br	0.583157	-0.643083	0.181490
Br320	Br	0.833157	-0.393083	0.431490
Br321	Br	-0.356721	-1.123298	-0.019543
Br322	Br	-0.106721	-0.873298	0.230457
Br323	Br	0.143279	-0.623298	0.480457
Br324	Br	0.393279	-0.373298	0.730457
H325	H	-0.196889	-0.885707	0.217817
H326	H	0.053111	-0.635707	0.467817
H327	H	0.303111	-0.385707	0.717817
H328	H	0.553111	-0.135707	0.967817
Br329	Br	0.156157	-0.996632	-0.472215
Br330	Br	0.406157	-0.746632	-0.222215
Br331	Br	0.656157	-0.496632	0.027785
Br332	Br	0.906157	-0.246632	0.277785
H333	H	0.072685	-0.875011	-0.442068
H334	H	0.322685	-0.625011	-0.192068
H335	H	0.572685	-0.375011	0.057932
H336	H	0.822685	-0.125011	0.307932
Br337	Br	0.073797	-0.831837	-0.277612
Br338	Br	0.323797	-0.581837	-0.027612
Br339	Br	0.573797	-0.331837	0.222388
Br340	Br	0.823797	-0.081837	0.472388
H341	H	-0.121639	-0.970352	-0.455474
H342	H	0.128361	-0.720352	-0.205474
H343	H	0.378361	-0.470352	0.044526
H344	H	0.628361	-0.220352	0.294526
H345	H	-0.121289	-0.978349	-0.312328
H346	H	0.128711	-0.728349	-0.062328
H347	H	0.378711	-0.478349	0.187672
H348	H	0.628711	-0.228349	0.437672
Br349	Br	-0.069712	-0.827279	-0.450700
Br350	Br	0.180288	-0.577279	-0.200700
Br351	Br	0.430288	-0.327279	0.049300
Br352	Br	0.680288	-0.077279	0.299300
