data_functionalizedCrystal
_audit_creation_method	'MofGen! by Chris Wilmer'
_symmetry_space_group_name_H-M	'P1'
_symmetry_Int_Tables_number	1
_symmetry_cell_setting	triclinic
loop_
_symmetry_equiv_pos_as_xyz
  x,y,z
_cell_length_a	14.908520
_cell_length_b	14.908610
_cell_length_c	12.759393
_cell_angle_alpha	86.684102
_cell_angle_beta	86.737527
_cell_angle_gamma	89.796704
loop_
_atom_site_label
_atom_site_type_symbol
_atom_site_fract_x
_atom_site_fract_y
_atom_site_fract_z
Zn1	Zn	-0.437412	-1.353986	0.714287
Zn2	Zn	-0.587790	-1.345197	0.548109
Zn3	Zn	-0.428762	-1.203615	0.527945
Zn4	Zn	-0.579029	-1.194914	0.713068
O5	O	-0.508248	-1.274428	0.625852
O6	O	-0.464647	-1.478645	0.701192
O7	O	-0.566741	-1.326379	0.398414
O8	O	-0.304089	-1.230881	0.544735
O9	O	-0.575129	-1.472188	0.579102
O10	O	-0.310444	-1.341358	0.681640
O11	O	-0.449904	-1.222359	0.383600
O12	O	-0.441409	-1.076636	0.543553
O13	O	-0.560196	-1.216051	0.860250
O14	O	-0.551809	-1.070243	0.679562
O15	O	-0.456151	-1.332921	0.861146
O16	O	-0.712449	-1.317942	0.577920
O17	O	-0.706012	-1.207530	0.699115
C18	C	-0.494720	-1.040814	0.609238
C19	C	-0.488954	-0.940872	0.602157
C20	C	-0.741856	-1.260862	0.640598
C21	C	-0.841798	-1.255141	0.646947
C22	C	-0.423264	-0.803315	0.521468
C23	C	-0.428677	-0.897220	0.528117
C24	C	-0.543820	-0.890613	0.669554
C25	C	-0.538407	-0.796708	0.662905
C26	C	-0.478128	-0.753062	0.588859
C27	C	-0.472720	-0.659156	0.582206
C28	C	-0.587859	-0.652550	0.723647
C29	C	-0.593272	-0.746455	0.730296
C30	C	-1.036251	-1.359482	0.532795
C31	C	-1.130156	-1.354110	0.538757
C32	C	-1.123517	-1.239029	0.664840
C33	C	-1.029611	-1.244402	0.658877
C34	C	-0.985982	-1.304629	0.592851
C35	C	-0.892074	-1.309996	0.586884
C36	C	-0.885437	-1.194921	0.712971
C37	C	-0.979342	-1.189549	0.718934
C38	C	-0.273730	-1.288071	0.611074
C39	C	-0.173793	-1.293884	0.604776
C40	C	-0.508161	-1.274496	0.899885
C41	C	-0.508124	-1.274525	1.016661
C42	C	-0.521822	-0.508954	0.642523
C43	C	-0.527587	-0.608896	0.649603
C44	C	-0.508273	-1.274415	0.352886
C45	C	-0.508067	-1.274575	0.236107
C46	C	-0.453943	-1.335387	1.071991
C47	C	-0.453912	-1.335411	1.181715
C48	C	-0.562250	-1.213706	1.180768
C49	C	-0.562276	-1.213680	1.071046
C50	C	-0.391397	-1.405655	1.072539
C51	C	-0.391366	-1.405678	1.182262
H52	H	-0.423637	-0.623621	0.521914
H53	H	-0.320686	-1.391052	1.037056
H54	H	-0.844497	-1.150254	0.761870
O55	O	-0.614976	-1.154512	1.017462
C56	C	-0.662743	-1.100798	1.088993
H57	H	-0.667987	-1.137469	1.170019
H58	H	-0.733030	-1.087054	1.061058
H59	H	-0.625839	-1.034440	1.093743
H60	H	-0.856552	-1.359034	0.533120
O61	O	-0.651726	-0.788823	0.802361
C62	C	-0.630879	-0.767035	0.904254
H63	H	-0.557567	-0.745380	0.903337
H64	H	-0.642237	-0.828363	0.961011
H65	H	-0.675974	-0.709748	0.930808
H66	H	-1.014879	-1.140516	0.772692
O67	O	-0.310708	-1.380401	1.215650
C68	C	-0.289815	-1.292781	1.174150
H69	H	-0.328068	-1.277664	1.100301
H70	H	-0.214534	-1.287521	1.153536
H71	H	-0.309947	-1.242306	1.235052
O72	O	-1.166017	-1.180652	0.729040
C73	C	-1.223185	-1.228718	0.804043
H74	H	-1.241145	-1.296079	0.772795
H75	H	-1.287132	-1.188318	0.819672
H76	H	-1.187507	-1.240626	0.880312
H77	H	-0.374184	-0.767778	0.461175
H78	H	-0.383997	-0.938133	0.473245
O79	O	-0.602249	-0.933128	0.741528
C80	C	-0.554247	-0.990416	0.810115
H81	H	-0.486878	-1.008403	0.769879
H82	H	-0.594682	-1.054342	0.831109
H83	H	-0.542367	-0.954831	0.884817
H84	H	-1.171082	-1.398778	0.489855
O85	O	-0.425858	-1.482819	1.039545
C86	C	-0.515293	-1.493448	1.080437
H87	H	-0.525852	-1.453744	1.153862
H88	H	-0.529227	-1.567624	1.101579
H89	H	-0.563121	-1.467572	1.018938
O90	O	-0.641065	-0.603600	0.789067
C91	C	-0.623383	-0.511356	0.767303
H92	H	-0.553220	-0.502533	0.727736
H93	H	-0.627508	-0.475343	0.843851
H94	H	-0.675123	-0.481602	0.712726
O95	O	-0.994006	-1.418053	0.468635
C96	C	-1.058512	-1.465294	0.416876
H97	H	-1.125600	-1.464566	0.464381
H98	H	-1.035418	-1.537696	0.409039
H99	H	-1.066678	-1.431822	0.335355
O100	O	-0.614832	-1.154695	1.233768
C101	C	-0.603173	-1.167751	1.342475
H102	H	-0.577741	-1.238858	1.360545
H103	H	-0.670158	-1.157743	1.387979
H104	H	-0.552196	-1.117210	1.366803
O105	O	-0.418518	-1.487392	1.225241
C106	C	-0.496607	-1.477060	1.291117
H107	H	-0.500058	-1.405386	1.317751
H108	H	-0.494499	-1.526190	1.362799
H109	H	-0.558409	-1.491248	1.246075
