data_functionalizedCrystal
_audit_creation_method	'MofGen! by Chris Wilmer'
_symmetry_space_group_name_H-M	'P1'
_symmetry_Int_Tables_number	1
_symmetry_cell_setting	triclinic
loop_
_symmetry_equiv_pos_as_xyz
  x,y,z
_cell_length_a	12.837932
_cell_length_b	12.837942
_cell_length_c	14.048226
_cell_angle_alpha	89.994377
_cell_angle_beta	89.994021
_cell_angle_gamma	94.829322
loop_
_atom_site_label
_atom_site_type_symbol
_atom_site_fract_x
_atom_site_fract_y
_atom_site_fract_z
O1	O	1.402341	0.272152	-0.079162
O2	O	1.099207	0.258707	-0.079164
O3	O	1.244052	0.113863	-0.079157
O4	O	1.257495	0.416996	-0.079169
O5	O	1.244032	0.113851	0.079164
O6	O	1.099187	0.258696	0.079158
O7	O	1.402320	0.272141	0.079159
Zn8	Zn	1.250750	0.265416	0.104295
Zn9	Zn	1.250777	0.265431	-0.104300
O10	O	1.257475	0.416985	0.079153
C11	C	1.060127	0.254160	-0.000003
C12	C	0.943712	0.240614	-0.000004
C13	C	0.782686	0.127402	0.000003
C14	C	0.892069	0.140122	0.000002
C15	C	0.885965	0.328393	-0.000005
C16	C	0.776582	0.315673	-0.000004
C17	C	0.724947	0.215174	-0.000002
C18	C	0.615562	0.202455	-0.000008
C19	C	0.609460	0.390725	-0.000008
C20	C	0.718843	0.403445	-0.000009
C21	C	1.239501	0.074788	0.000003
C22	C	1.225956	-0.041627	0.000001
C23	C	1.388786	-0.266500	-0.000018
C24	C	1.376064	-0.375883	-0.000019
C25	C	1.187793	-0.369777	-0.000010
C26	C	1.200514	-0.260394	-0.000009
C27	C	1.301014	-0.208760	-0.000011
C28	C	1.313734	-0.099375	-0.000002
C29	C	1.125464	-0.093271	-0.000000
C30	C	1.112742	-0.202654	-0.000002
C31	C	1.441400	0.276688	-0.000003
C32	C	1.557815	0.290233	-0.000009
C33	C	1.262027	0.456060	-0.000010
C34	C	1.275571	0.572475	-0.000014
N35	N	1.250740	0.265406	0.246656
N36	N	1.250795	0.265434	-0.246661
C37	C	1.314902	0.201301	0.296477
C38	C	1.314909	0.201301	0.396135
C39	C	1.250758	0.265413	0.445970
C40	C	1.186588	0.329521	0.396142
C41	C	1.186577	0.329514	0.296486
C42	C	1.186619	0.329531	0.603856
C43	C	1.186632	0.329539	0.703519
C44	C	1.314952	0.201318	0.703505
C45	C	1.314940	0.201312	0.603849
C46	C	1.250772	0.265421	0.554028
H47	H	0.928026	0.410215	0.000002
H48	H	0.562437	0.462196	-0.000012
H49	H	1.030918	-0.244710	-0.000004
F50	F	1.495743	-0.211545	-0.000000
H51	H	0.573523	0.120623	-0.000009
F52	F	1.032045	-0.031812	0.000017
F53	F	0.773808	0.510398	-0.000011
F54	F	1.469483	-0.437331	-0.000029
F55	F	1.118319	0.397762	0.550837
F56	F	0.727730	0.020445	-0.000000
F57	F	1.118308	0.397749	0.449180
F58	F	0.953516	0.046702	0.000009
H59	H	1.134327	0.381714	0.255922
H60	H	1.395566	-0.057336	-0.000001
H61	H	1.105971	-0.411837	-0.000019
H62	H	1.367146	0.149099	0.255908
H63	H	1.367155	0.149101	0.436698
F64	F	1.383246	0.133090	0.756532
F65	F	1.383222	0.133084	0.550810
F66	F	1.118352	0.397775	0.756550
