data_functionalizedCrystal
_audit_creation_method	'MofGen! by Chris Wilmer'
_symmetry_space_group_name_H-M	'P1'
_symmetry_Int_Tables_number	1
_symmetry_cell_setting	triclinic
loop_
_symmetry_equiv_pos_as_xyz
  x,y,z
_cell_length_a	12.827893
_cell_length_b	12.827892
_cell_length_c	12.759393
_cell_angle_alpha	89.968904
_cell_angle_beta	89.980340
_cell_angle_gamma	90.015172
loop_
_atom_site_label
_atom_site_type_symbol
_atom_site_fract_x
_atom_site_fract_y
_atom_site_fract_z
Zn1	Zn	1.597675	-0.415972	-0.594019
Zn2	Zn	1.931008	-0.082638	-0.260686
Zn3	Zn	2.264342	0.250695	0.072648
Zn4	Zn	1.597568	-0.590752	-0.418341
Zn5	Zn	1.930902	-0.257419	-0.085007
Zn6	Zn	2.264235	0.075914	0.248326
Zn7	Zn	1.422915	-0.416026	-0.418355
Zn8	Zn	1.756249	-0.082693	-0.085021
Zn9	Zn	2.089582	0.250641	0.248312
Zn10	Zn	1.422902	-0.590671	-0.593978
Zn11	Zn	1.756236	-0.257338	-0.260645
Zn12	Zn	2.089569	0.075995	0.072688
O13	O	1.510265	-0.503355	-0.506173
O14	O	1.843599	-0.170022	-0.172840
O15	O	2.176932	0.163311	0.160493
O16	O	1.743897	-0.439168	-0.570726
O17	O	2.077230	-0.105835	-0.237393
O18	O	2.410564	0.227499	0.095941
O19	O	1.574361	-0.567631	-0.271321
O20	O	1.907695	-0.234298	0.062012
O21	O	2.241028	0.099035	0.395345
O22	O	1.446147	-0.269783	-0.441680
O23	O	1.779481	0.063551	-0.108346
O24	O	2.112814	0.396884	0.224987
O25	O	1.743819	-0.567579	-0.441656
O26	O	2.077152	-0.234245	-0.108323
O27	O	2.410485	0.099088	0.225011
O28	O	1.574543	-0.269743	-0.570740
O29	O	1.907876	0.063590	-0.237406
O30	O	2.241209	0.396924	0.095927
O31	O	1.446044	-0.439261	-0.271332
O32	O	1.779378	-0.105927	0.062002
O33	O	2.112711	0.227406	0.395335
O34	O	1.276677	-0.439182	-0.441640
O35	O	1.610011	-0.105848	-0.108307
O36	O	1.943344	0.227485	0.225026
O37	O	1.446125	-0.567440	-0.741005
O38	O	1.779459	-0.234107	-0.407672
O39	O	2.112792	0.099226	-0.074338
O40	O	1.276668	-0.567493	-0.570670
O41	O	1.610001	-0.234160	-0.237337
O42	O	1.943335	0.099174	0.095996
O43	O	1.574530	-0.439089	-0.741035
O44	O	1.907863	-0.105756	-0.407701
O45	O	2.241197	0.227577	-0.074368
O46	O	1.574349	-0.736978	-0.441617
O47	O	1.907682	-0.403644	-0.108283
O48	O	2.241015	-0.070311	0.225050
O49	O	1.446022	-0.736918	-0.570657
O50	O	1.779355	-0.403585	-0.237324
O51	O	2.112689	-0.070251	0.096010
C52	C	1.238755	-0.503335	-0.506153
C53	C	1.572089	-0.170002	-0.172820
C54	C	1.905422	0.163331	0.160513
C55	C	1.122602	-0.503352	-0.506170
C56	C	1.455936	-0.170018	-0.172836
C57	C	1.789269	0.163315	0.160497
C58	C	1.070840	-0.566943	-0.569919
C59	C	1.404174	-0.233610	-0.236586
C60	C	1.737507	0.099723	0.096747
C61	C	0.950790	-0.566962	-0.569938
C62	C	1.284123	-0.233629	-0.236604
C63	C	1.617457	0.099705	0.096729
C64	C	1.510201	-0.774865	-0.506154
C65	C	1.843534	-0.441532	-0.172820
C66	C	2.176867	-0.108199	0.160513
C67	C	1.510269	-0.891018	-0.506181
C68	C	1.843602	-0.557685	-0.172847
C69	C	2.176935	-0.224352	0.160486
C70	C	1.446754	-0.942808	-0.569987
C71	C	1.780087	-0.609475	-0.236654
C72	C	2.113421	-0.276141	0.096680
C73	C	1.446823	-1.062858	-0.570016
C74	C	1.780156	-0.729525	-0.236683
C75	C	2.113489	-0.396192	0.096651
C76	C	1.782835	-0.503376	-0.506194
C77	C	2.116169	-0.170043	-0.172861
C78	C	2.449502	0.163290	0.160473
C79	C	1.898988	-0.503385	-0.506203
C80	C	2.232322	-0.170052	-0.172869
C81	C	2.565655	0.163281	0.160464
C82	C	1.510338	-0.503250	-0.780207
C83	C	1.843672	-0.169916	-0.446873
C84	C	2.177005	0.163417	-0.113540
C85	C	1.510369	-0.503205	-0.896983
C86	C	1.843703	-0.169871	-0.563650
C87	C	2.177036	0.163462	-0.230317
C88	C	1.510358	-0.230785	-0.506216
C89	C	1.843692	0.102548	-0.172882
C90	C	2.177025	0.435881	0.160451
C91	C	1.510398	-0.114632	-0.506234
C92	C	1.843731	0.218701	-0.172900
C93	C	2.177065	0.552035	0.160433
C94	C	1.443579	-0.436350	-0.951850
C95	C	1.776912	-0.103016	-0.618517
C96	C	2.110245	0.230317	-0.285184
C97	C	1.443603	-0.436318	-1.061574
C98	C	1.776936	-0.102984	-0.728241
C99	C	2.110270	0.230349	-0.394908
C100	C	1.577218	-0.569998	-1.061555
C101	C	1.910551	-0.236665	-0.728222
C102	C	2.243884	0.096669	-0.394888
C103	C	1.577187	-0.570035	-0.951833
C104	C	1.910521	-0.236701	-0.618500
C105	C	2.243854	0.096632	-0.285166
C106	C	1.510253	-0.503385	-0.233206
C107	C	1.843586	-0.170052	0.100128
C108	C	2.176919	0.163281	0.433461
C109	C	1.510424	-0.503136	-0.116430
C110	C	1.843757	-0.169803	0.216904
C111	C	2.177091	0.163531	0.550237
H112	H	1.115402	-0.621369	-0.624488
H113	H	1.448735	-0.288036	-0.291154
H114	H	1.782069	0.045298	0.042179
H115	H	1.631579	-0.624480	-0.907159
H116	H	1.964912	-0.291147	-0.573826
H117	H	2.298245	0.042187	-0.240493
F118	F	1.064363	-0.432201	-0.434852
F119	F	1.397696	-0.098867	-0.101519
F120	F	1.731029	0.234466	0.231815
F121	F	0.892611	-0.638131	-0.641273
F122	F	1.225944	-0.304798	-0.307940
F123	F	1.559277	0.028535	0.025394
F124	F	0.957161	-0.432224	-0.434854
F125	F	1.290494	-0.098891	-0.101520
F126	F	1.623828	0.234443	0.231813
F127	F	1.372504	-0.365173	-1.119963
F128	F	1.705837	-0.031839	-0.786630
F129	F	2.039170	0.301494	-0.453296
F130	F	1.375750	-1.121069	-0.641426
F131	F	1.709083	-0.787736	-0.308092
F132	F	2.042417	-0.454402	0.025241
F133	F	1.375608	-0.884600	-0.641362
F134	F	1.708942	-0.551266	-0.308029
F135	F	2.042275	-0.217933	0.025305
F136	F	1.372462	-0.365226	-0.893479
F137	F	1.705796	-0.031893	-0.560145
F138	F	2.039129	0.301440	-0.226812
F139	F	1.648328	-0.641118	-1.119939
F140	F	1.981661	-0.307784	-0.786606
F141	F	2.314994	0.025549	-0.453272
H142	H	1.564783	-1.070102	-0.451608
H143	H	1.898116	-0.736769	-0.118274
H144	H	2.231449	-0.403435	0.215059
H145	H	1.564694	-0.935556	-0.451572
H146	H	1.898028	-0.602223	-0.118239
H147	H	2.231361	-0.268889	0.215094
