data_functionalizedCrystal
_audit_creation_method	'MofGen! by Chris Wilmer'
_symmetry_space_group_name_H-M	'P1'
_symmetry_Int_Tables_number	1
_symmetry_cell_setting	triclinic
loop_
_symmetry_equiv_pos_as_xyz
  x,y,z
_cell_length_a	11.026607
_cell_length_b	10.066323
_cell_length_c	10.967953
_cell_angle_alpha	86.903886
_cell_angle_beta	83.620047
_cell_angle_gamma	100.707942
loop_
_atom_site_label
_atom_site_type_symbol
_atom_site_fract_x
_atom_site_fract_y
_atom_site_fract_z
O1	O	1.615963	0.009352	-0.522312
O2	O	2.115963	0.509352	-0.022312
O3	O	1.260042	-0.004265	-0.464421
O4	O	1.760042	0.495735	0.035579
O5	O	1.439774	-0.038520	-0.318742
O6	O	1.939774	0.461480	0.181258
O7	O	1.436232	0.043607	-0.667992
O8	O	1.936232	0.543607	-0.167992
O9	O	1.474084	0.181907	-0.290898
O10	O	1.974084	0.681907	0.209102
O11	O	1.294352	0.216162	-0.436578
O12	O	1.794352	0.716162	0.063422
O13	O	1.650273	0.229779	-0.494469
O14	O	2.150273	0.729779	0.005531
Zn15	Zn	1.477760	0.257968	-0.461103
Zn16	Zn	1.977760	0.757968	0.038897
Zn17	Zn	1.432555	-0.032454	-0.497787
Zn18	Zn	1.932555	0.467546	0.002213
O19	O	1.470541	0.264033	-0.640149
O20	O	1.970541	0.764033	-0.140149
C21	C	1.231504	0.103437	-0.439820
C22	C	1.731504	0.603437	0.060180
C23	C	1.095352	0.095948	-0.407983
C24	C	1.595352	0.595948	0.092017
N25	N	1.508620	0.456173	-0.436068
N26	N	2.008620	0.956173	0.063932
N27	N	1.401705	-0.230661	-0.522815
N28	N	1.901705	0.269339	-0.022815
C29	C	1.025516	0.116619	-0.495891
C30	C	1.525516	0.616619	0.004109
C31	C	0.884795	0.108880	-0.462988
C32	C	1.384795	0.608880	0.037012
C33	C	1.678811	0.122074	-0.519070
C34	C	2.178811	0.622074	-0.019070
C35	C	1.814962	0.129554	-0.550909
C36	C	2.314962	0.629554	-0.050909
C37	C	1.467048	0.689068	-0.469808
C38	C	1.967048	1.189068	0.030192
C39	C	1.443267	0.536443	-0.489082
C40	C	1.943267	1.036443	0.010918
C41	C	1.454079	0.061014	-0.259414
C42	C	1.954079	0.561014	0.240586
C43	C	1.445574	0.029189	-0.124114
C44	C	1.945574	0.529189	0.375886
C45	C	1.456236	0.164497	-0.699477
C46	C	1.956236	0.664497	-0.199477
C47	C	1.464740	0.196313	-0.834777
C48	C	1.964740	0.696313	-0.334777
C49	C	1.450761	0.096314	0.090473
C50	C	1.950761	0.596314	0.590473
C51	C	1.459555	0.129202	-0.049366
C52	C	1.959555	0.629202	0.450634
H53	H	1.069908	0.140052	-0.595510
H54	H	1.569908	0.640052	-0.095510
H55	H	0.859347	0.152990	-0.650534
H56	H	1.359347	0.652990	-0.150534
H57	H	0.840405	0.085419	-0.363366
H58	H	1.340405	0.585419	0.136634
C59	C	1.035395	0.064295	-0.273404
C60	C	1.535395	0.564295	0.226596
H61	H	0.948678	0.063234	-0.268946
H62	H	1.448678	0.563234	0.231054
H63	H	1.072216	0.131919	-0.224405
H64	H	1.572216	0.631919	0.275595
H65	H	1.048287	-0.021822	-0.243840
H66	H	1.548287	0.478178	0.256160
H67	H	1.540603	0.733335	-0.410163
H68	H	2.040603	1.233335	0.089837
H69	H	1.369717	0.492182	-0.548741
H70	H	1.869717	0.992182	-0.048741
C71	C	1.425834	-0.052237	0.143855
C72	C	1.925834	0.447763	0.643855
H73	H	1.418224	-0.110710	0.078823
H74	H	1.918224	0.389290	0.578823
H75	H	1.350956	-0.070316	0.199040
H76	H	1.850956	0.429684	0.699040
H77	H	1.492977	-0.067338	0.186618
H78	H	1.992977	0.432662	0.686618
C79	C	1.607981	0.515953	-0.355475
C80	C	2.107981	1.015953	0.144525
H81	H	1.610926	0.610689	-0.353083
H82	H	2.110926	1.110689	0.146917
H83	H	1.686859	0.500519	-0.389202
H84	H	2.186859	1.000519	0.110798
H85	H	1.587438	0.473542	-0.274405
H86	H	2.087438	0.973542	0.225595
H87	H	1.328160	0.725072	-0.582470
H88	H	1.828160	1.225072	-0.082470
C89	C	1.484514	0.277759	-0.102751
C90	C	1.984514	0.777759	0.397249
H91	H	1.487141	0.280376	-0.189735
H92	H	1.987141	0.780376	0.310265
H93	H	1.561895	0.323738	-0.081930
H94	H	2.061895	0.823738	0.418070
H95	H	1.419882	0.320806	-0.069537
H96	H	1.919882	0.820806	0.430463
C97	C	1.420607	-0.119371	-0.070738
C98	C	1.920607	0.380629	0.429262
H99	H	1.412984	-0.177842	-0.135771
H100	H	1.912984	0.322158	0.364229
H101	H	1.345721	-0.137421	-0.015564
H102	H	1.845721	0.362579	0.484436
H103	H	1.487732	-0.134505	-0.027963
H104	H	1.987732	0.365495	0.472037
H105	H	1.483226	0.306273	0.125691
H106	H	1.983226	0.806273	0.625691
