data_functionalizedCrystal
_audit_creation_method	'MofGen! by Chris Wilmer'
_symmetry_space_group_name_H-M	'P1'
_symmetry_Int_Tables_number	1
_symmetry_cell_setting	triclinic
loop_
_symmetry_equiv_pos_as_xyz
  x,y,z
_cell_length_a	13.339070
_cell_length_b	9.065218
_cell_length_c	8.140239
_cell_angle_alpha	90.001686
_cell_angle_beta	89.999256
_cell_angle_gamma	79.677410
loop_
_atom_site_label
_atom_site_type_symbol
_atom_site_fract_x
_atom_site_fract_y
_atom_site_fract_z
O1	O	1.349082	-0.742386	-0.136550
O2	O	1.053662	-0.644943	-0.136565
O3	O	1.207479	-0.481403	-0.136553
O4	O	1.195266	-0.905926	-0.136561
O5	O	1.207470	-0.481397	0.136674
O6	O	1.053654	-0.644937	0.136663
O7	O	1.349074	-0.742380	0.136678
Zn8	Zn	1.201362	-0.693658	0.180051
Zn9	Zn	1.201374	-0.693666	-0.179938
O10	O	1.195258	-0.905920	0.136666
C11	C	1.015818	-0.628480	0.000047
C12	C	0.903067	-0.579416	0.000041
C13	C	1.386918	-0.758843	0.000062
C14	C	1.499669	-0.807907	0.000058
C15	C	1.860967	-0.426415	0.000041
C16	C	1.755032	-0.380313	0.000035
C17	C	1.691186	-0.487207	0.000041
C18	C	1.733286	-0.640212	0.000053
C19	C	1.839231	-0.686319	0.000046
C20	C	1.669450	-0.747111	0.000046
C21	C	1.711550	-0.900116	0.000058
C22	C	1.817485	-0.946215	0.000052
C23	C	1.881331	-0.839320	0.000046
C24	C	1.563505	-0.701004	0.000052
C25	C	1.541769	-0.960908	0.000057
C26	C	1.647704	-1.007010	0.000064
C27	C	1.206301	-0.425956	0.000057
C28	C	1.202791	-0.260745	0.000049
C29	C	1.196436	-0.961367	0.000052
C30	C	1.199945	-1.126579	0.000049
N31	N	1.201362	-0.693654	0.425733
N32	N	1.201382	-0.693660	-0.425620
H33	H	1.529238	-0.576427	0.000042
H34	H	1.604930	-0.449662	0.000036
H35	H	1.851759	-1.070801	0.000037
H36	H	1.912959	-0.339399	0.000025
H37	H	1.967593	-0.876849	0.000059
H38	H	1.681997	-1.131589	0.000073
H39	H	1.720762	-0.255737	0.000023
H40	H	1.489786	-1.047951	0.000062
