data_functionalizedCrystal
_audit_creation_method	'MofGen! by Chris Wilmer'
_symmetry_space_group_name_H-M	'P1'
_symmetry_Int_Tables_number	1
_symmetry_cell_setting	triclinic
loop_
_symmetry_equiv_pos_as_xyz
  x,y,z
_cell_length_a	14.971486
_cell_length_b	9.016244
_cell_length_c	14.971486
_cell_angle_alpha	89.993020
_cell_angle_beta	96.385871
_cell_angle_gamma	89.997425
loop_
_atom_site_label
_atom_site_type_symbol
_atom_site_fract_x
_atom_site_fract_y
_atom_site_fract_z
O1	O	1.186942	0.123170	-0.116566
O2	O	0.926541	0.123211	-0.130524
O3	O	1.063721	0.123179	0.006655
O4	O	1.049762	0.123202	-0.253745
O5	O	1.063715	-0.123502	0.006665
O6	O	0.926536	-0.123470	-0.130514
O7	O	1.186936	-0.123510	-0.116555
Cu8	Cu	1.056735	-0.146014	-0.123534
Cu9	Cu	1.056742	0.145715	-0.123546
O10	O	1.049756	-0.123478	-0.253735
C11	C	0.893214	-0.000124	-0.129895
C12	C	0.793917	-0.000109	-0.128024
N13	N	1.056737	-0.351200	-0.123525
C14	C	0.736692	-0.000104	-0.208614
C15	C	0.643392	-0.000126	-0.206850
C16	C	0.607320	-0.000143	-0.124497
C17	C	0.664552	-0.000153	-0.043902
C18	C	0.757850	-0.000141	-0.045666
C19	C	0.470090	-0.000173	-0.040231
C20	C	0.376786	-0.000182	-0.038466
C21	C	0.355632	-0.000159	-0.201415
C22	C	0.448930	-0.000147	-0.203179
C23	C	0.506156	-0.000154	-0.122584
C24	C	1.130389	-0.586204	-0.050392
C25	C	1.130194	-0.414313	-0.050117
C26	C	0.963397	-0.413613	-0.103041
C27	C	0.963835	-0.585557	-0.102528
C28	C	1.075604	-0.585699	-0.217401
C29	C	1.077720	-0.413744	-0.216770
C30	C	1.220263	-0.000172	-0.117185
C31	C	1.319561	-0.000177	-0.119056
C32	C	1.063094	-0.000161	0.039985
C33	C	1.061223	-0.000159	0.139282
N34	N	1.056747	0.350901	-0.123548
C35	C	1.050384	-0.000135	-0.287065
C36	C	1.052254	-0.000127	-0.386362
C37	C	1.141812	-0.000173	0.196507
C38	C	1.140049	-0.000158	0.289807
C39	C	1.057696	-0.000139	0.325879
C40	C	0.977101	-0.000121	0.268646
C41	C	0.978865	-0.000126	0.175349
C42	C	0.973430	-0.000115	0.463109
C43	C	0.971665	-0.000114	0.556413
C44	C	1.134614	-0.000147	0.577567
C45	C	1.136378	-0.000152	0.484269
C46	C	1.055782	-0.000136	0.427043
H47	H	0.766054	-0.000089	-0.275675
C48	C	0.885829	-0.000171	0.401124
C49	C	0.813329	-0.000197	0.452681
C50	C	0.732621	-0.000274	0.395613
H51	H	0.883004	0.085827	0.364262
H52	H	0.883079	-0.086230	0.364309
H53	H	0.816077	0.085853	0.489481
H54	H	0.816123	-0.086189	0.489542
H55	H	0.729871	-0.086333	0.358798
H56	H	0.729805	0.085726	0.358753
H57	H	0.683420	-0.000305	0.430585
H58	H	0.904606	-0.000123	0.585780
H59	H	0.309033	-0.000160	-0.267039
H60	H	0.516682	-0.000181	0.025399
H61	H	0.910047	-0.000097	0.298024
C62	C	0.888673	-0.358886	-0.172241
C63	C	0.925227	-0.267895	-0.234689
C64	C	0.856419	-0.217435	-0.298443
H65	H	0.859593	-0.441306	-0.202422
H66	H	0.846284	-0.303930	-0.142943
H67	H	0.967600	-0.322850	-0.263984
H68	H	0.954300	-0.185452	-0.204535
H69	H	0.814030	-0.162479	-0.269145
H70	H	0.827344	-0.299865	-0.328616
H71	H	0.881210	-0.155682	-0.340816
H72	H	0.913240	-0.000115	0.128756
H73	H	1.205673	-0.000172	0.336396
H74	H	0.947230	-0.625681	-0.034079
C75	C	1.114697	-0.644009	0.041955
C76	C	1.190034	-0.724605	0.078357
C77	C	1.175603	-0.777889	0.163419
H78	H	1.105160	-0.562896	0.080253
H79	H	1.063343	-0.706623	0.036661
H80	H	1.241373	-0.661994	0.083655
H81	H	1.199583	-0.805738	0.040084
H82	H	1.124249	-0.840504	0.158126
H83	H	1.166066	-0.696768	0.201709
H84	H	1.226713	-0.832591	0.188125
H85	H	1.027565	-0.370778	-0.273765
C86	C	0.819835	-0.000062	0.041929
C87	C	0.768278	-0.000037	0.114429
C88	C	0.825347	0.000051	0.195137
H89	H	0.856697	-0.086058	0.044760
H90	H	0.856651	0.086000	0.044673
H91	H	0.731478	-0.086090	0.111687
H92	H	0.731418	0.085952	0.111629
H93	H	0.862163	0.086113	0.197881
H94	H	0.862206	-0.085946	0.197959
H95	H	0.790374	0.000082	0.244338
C96	C	1.004142	-0.640013	-0.290109
C97	C	1.044988	-0.721453	-0.354065
C98	C	0.979184	-0.771502	-0.421052
H99	H	0.962525	-0.701369	-0.263920
H100	H	0.973422	-0.557351	-0.318368
H101	H	1.075692	-0.804104	-0.325809
H102	H	1.086598	-0.660128	-0.380277
H103	H	0.948464	-0.688840	-0.449312
H104	H	0.937571	-0.832852	-0.394855
H105	H	1.006889	-0.826753	-0.464458
H106	H	1.203437	-0.000177	0.454903
H107	H	1.118135	-0.373198	0.019533
C108	C	0.888509	-0.641270	-0.170723
C109	C	0.828858	-0.727293	-0.126879
C110	C	0.759461	-0.778655	-0.189663
H111	H	0.857289	-0.559172	-0.199071
H112	H	0.913121	-0.699886	-0.214700
H113	H	0.804248	-0.668680	-0.082917
H114	H	0.860051	-0.809413	-0.098534
H115	H	0.784072	-0.837271	-0.233640
H116	H	0.728248	-0.696548	-0.218008
H117	H	0.718984	-0.837038	-0.159925
C118	C	0.581410	-0.000043	-0.294446
C119	C	0.632970	0.000022	-0.366944
C120	C	0.575904	0.000115	-0.447654
H121	H	0.544564	-0.086050	-0.297273
H122	H	0.544579	0.086007	-0.297195
H123	H	0.669786	-0.086020	-0.364196
H124	H	0.669814	0.086022	-0.364147
H125	H	0.539072	0.086165	-0.450403
H126	H	0.539060	-0.085894	-0.450471
H127	H	0.610878	0.000172	-0.496853
H128	H	0.347419	-0.000198	0.028593
C129	C	0.625339	0.000135	0.045485
C130	C	0.572407	0.127062	0.051262
C131	C	0.536282	0.127392	0.133599
H132	H	0.589326	-0.085790	0.049652
H133	H	0.672760	0.000211	0.093257
H134	H	0.524993	0.126972	0.003504
H135	H	0.608400	0.213007	0.047112
H136	H	0.583702	0.127468	0.181370
H137	H	0.500273	0.041462	0.137758
H138	H	0.500370	0.213516	0.137533
H139	H	1.200238	-0.000155	0.624165
H140	H	0.478296	-0.000119	-0.270239
C141	C	1.222778	-0.358325	-0.066360
C142	C	1.279396	-0.479317	-0.076520
C143	C	1.364699	-0.427807	-0.091468
H144	H	1.218040	-0.299607	-0.119360
H145	H	1.246982	-0.300044	-0.016595
H146	H	1.255198	-0.537573	-0.126281
H147	H	1.284160	-0.538046	-0.023530
H148	H	1.388903	-0.369525	-0.041703
H149	H	1.359952	-0.369089	-0.144467
H150	H	1.403127	-0.509890	-0.098356
H151	H	1.200003	-0.627553	-0.062411
C152	C	0.940527	-0.356332	-0.012846
C153	C	0.857073	-0.413081	0.004316
C154	C	0.835976	-0.360333	0.087391
H155	H	0.985428	-0.387313	0.033215
H156	H	0.937910	-0.251063	-0.014202
H157	H	0.859696	-0.518327	0.005679
H158	H	0.812154	-0.382105	-0.041724
H159	H	0.833359	-0.255064	0.086034
H160	H	0.880882	-0.391317	0.133445
H161	H	0.779348	-0.398818	0.099042
C162	C	1.164479	-0.643201	-0.243676
C163	C	1.221769	-0.523420	-0.254641
C164	C	1.303647	-0.576331	-0.278845
H165	H	1.191512	-0.706841	-0.197827
H166	H	1.154125	-0.696690	-0.298520
H167	H	1.232125	-0.469955	-0.199803
H168	H	1.194765	-0.459769	-0.300492
H169	H	1.293293	-0.629820	-0.333690
H170	H	1.330671	-0.639971	-0.232993
H171	H	1.342525	-0.495068	-0.286296
H172	H	1.146385	-0.372953	-0.232312
H173	H	1.208874	-0.000197	0.167145
