data_functionalizedCrystal
_audit_creation_method	'MofGen! by Chris Wilmer'
_symmetry_space_group_name_H-M	'P1'
_symmetry_Int_Tables_number	1
_symmetry_cell_setting	triclinic
loop_
_symmetry_equiv_pos_as_xyz
  x,y,z
_cell_length_a	10.654545
_cell_length_b	10.540510
_cell_length_c	9.130313
_cell_angle_alpha	89.997956
_cell_angle_beta	89.996934
_cell_angle_gamma	84.498195
loop_
_atom_site_label
_atom_site_type_symbol
_atom_site_fract_x
_atom_site_fract_y
_atom_site_fract_z
O1	O	1.667887	0.178276	-0.121776
O2	O	1.302412	0.195269	-0.121781
O3	O	1.493507	0.002060	-0.121778
O4	O	1.476792	0.371484	-0.121779
O5	O	1.493494	0.002055	0.121821
O6	O	1.302398	0.195263	0.121818
O7	O	1.667873	0.178270	0.121823
Cu8	Cu	1.485135	0.186766	0.144063
Cu9	Cu	1.485150	0.186773	-0.144021
O10	O	1.476778	0.371479	0.121819
C11	C	1.255607	0.194020	0.000017
C12	C	1.116162	0.190290	0.000015
C13	C	1.050650	0.188532	0.132802
C14	C	0.919630	0.185006	0.132802
C15	C	0.919645	0.185004	-0.132783
C16	C	1.050664	0.188520	-0.132782
C17	C	1.492254	-0.045246	0.000018
C18	C	1.488528	-0.186194	0.000010
C19	C	1.621281	-0.403700	0.000569
C20	C	1.625256	-0.257105	0.000013
C21	C	1.418544	-0.230923	-0.139095
C22	C	1.415537	-0.377683	-0.139204
C23	C	1.412674	-0.377497	0.137813
C24	C	1.419160	-0.231158	0.139644
C25	C	1.714678	0.179519	0.000021
C26	C	1.854123	0.183249	0.000014
C27	C	1.478031	0.418785	0.000020
C28	C	1.481757	0.559733	0.000019
N29	N	1.485133	0.186761	0.346685
N30	N	1.485162	0.186768	-0.346644
C31	C	1.569779	0.101244	0.423339
C32	C	1.569791	0.101244	0.576675
C33	C	1.400507	0.272289	0.576692
C34	C	1.400490	0.272282	0.423358
H35	H	0.866295	0.183575	0.240930
H36	H	1.680015	-0.227784	0.099727
C37	C	1.282571	-0.166848	-0.146104
H38	H	1.267240	-0.112113	-0.064064
H39	H	1.225079	-0.230375	-0.144813
H40	H	1.271516	-0.118501	-0.233756
C41	C	1.692836	-0.462478	-0.133436
H42	H	1.638049	-0.509203	-0.189721
H43	H	1.762990	-0.517977	-0.101448
H44	H	1.721592	-0.396506	-0.191831
H45	H	1.104006	0.189949	-0.240919
H46	H	1.103975	0.189973	0.240933
H47	H	1.331555	0.341920	0.360943
H48	H	1.331595	0.341920	0.639134
H49	H	0.866300	0.183564	-0.240901
H50	H	1.680343	-0.228718	-0.099873
C51	C	1.693238	-0.460393	0.135340
H52	H	1.638843	-0.506883	0.192477
H53	H	1.721531	-0.393489	0.192605
H54	H	1.763725	-0.515808	0.104083
C55	C	1.487937	-0.192525	0.278669
H56	H	1.558628	-0.149167	0.251745
H57	H	1.515644	-0.266666	0.333296
H58	H	1.431967	-0.137877	0.336725
H59	H	1.313273	-0.400640	-0.145508
C60	C	1.662906	0.007181	0.660988
H61	H	1.713316	-0.043743	0.593359
H62	H	1.617277	-0.046092	0.720819
H63	H	1.715593	0.053353	0.720786
H64	H	1.463375	-0.417914	-0.243186
C65	C	1.484103	-0.189110	-0.278946
H66	H	1.554126	-0.144427	-0.252859
H67	H	1.426155	-0.134942	-0.335090
H68	H	1.512467	-0.262130	-0.335154
C69	C	1.471045	-0.434850	0.280250
H70	H	1.538102	-0.497619	0.257010
H71	H	1.408506	-0.472940	0.334566
H72	H	1.502571	-0.369369	0.337035
H73	H	1.319337	-0.182054	0.148043
H74	H	1.638698	0.031606	0.360915
C75	C	1.273997	-0.407364	0.139083
H76	H	1.258225	-0.457838	0.056098
H77	H	1.220436	-0.329988	0.136025
H78	H	1.257787	-0.452721	0.225900
