data_functionalizedCrystal
_audit_creation_method	'MofGen! by Chris Wilmer'
_symmetry_space_group_name_H-M	'P1'
_symmetry_Int_Tables_number	1
_symmetry_cell_setting	triclinic
loop_
_symmetry_equiv_pos_as_xyz
  x,y,z
_cell_length_a	35.288095
_cell_length_b	35.277630
_cell_length_c	35.277682
_cell_angle_alpha	89.996960
_cell_angle_beta	59.997048
_cell_angle_gamma	59.999936
loop_
_atom_site_label
_atom_site_type_symbol
_atom_site_fract_x
_atom_site_fract_y
_atom_site_fract_z
O1	O	0.334273	0.260034	-0.011290
O2	O	0.256671	0.204912	0.011213
O3	O	0.334270	0.204911	-0.066411
O4	O	0.256675	0.260035	0.066334
O5	O	0.271242	0.267958	-0.066410
O6	O	0.193643	0.267959	0.011213
O7	O	0.271245	0.323081	-0.011290
Cu8	Cu	0.226689	0.301277	-0.000038
Cu9	Cu	0.301227	0.226717	-0.000038
O10	O	0.193647	0.323082	0.066334
C11	C	0.388005	0.433150	-0.023613
C12	C	0.361404	0.483152	-0.020395
C13	C	0.365412	0.410129	-0.023930
C14	C	0.456628	0.364507	-0.023613
C15	C	0.503398	0.341115	-0.020396
C16	C	0.433931	0.341590	-0.023931
C17	C	0.388002	0.364509	-0.023608
C18	C	0.361397	0.341118	-0.020385
C19	C	0.433934	0.410127	-0.023935
C20	C	0.339903	0.322222	-0.017781
C21	C	0.339911	0.523548	-0.017795
C22	C	0.541183	0.322217	-0.017796
C23	C	0.312937	0.298515	-0.014514
C24	C	0.312949	0.574227	-0.014533
C25	C	0.588587	0.298509	-0.014535
C26	C	0.061861	0.027625	0.034093
C27	C	0.015934	0.050647	0.034413
C28	C	0.061859	0.096269	0.034096
C29	C	0.015933	0.119187	0.034415
C30	C	-0.006761	0.096268	0.034093
C31	C	0.084451	0.050648	0.034416
C32	C	0.185442	-0.137907	0.021664
C33	C	0.210706	-0.184784	0.018150
C34	C	0.189022	-0.208300	0.016384
C35	C	0.216419	-0.259130	0.012565
C36	C	0.142070	-0.184935	0.018137
C37	C	0.116805	-0.138060	0.021657
C38	C	0.138493	-0.114546	0.023421
C39	C	-0.159816	0.138183	0.021660
C40	C	-0.203166	0.159789	0.018145
C41	C	-0.224912	0.204994	0.016380
C42	C	-0.271908	0.228422	0.012562
C43	C	-0.203308	0.228597	0.018136
C44	C	-0.159966	0.206995	0.021659
C45	C	-0.138221	0.161784	0.023418
C46	C	0.185435	0.138187	0.021675
C47	C	0.210702	0.159792	0.018157
C48	C	0.189016	0.204999	0.016394
C49	C	0.216411	0.228426	0.012578
C50	C	0.142067	0.228599	0.018145
C51	C	0.116804	0.206993	0.021661
C52	C	0.138490	0.161787	0.023430
C53	C	0.111096	-0.063718	0.027234
C54	C	0.089258	-0.023203	0.030276
C55	C	0.089254	0.119693	0.030281
C56	C	0.111091	0.138365	0.027242
C57	C	-0.053758	0.119691	0.030275
C58	C	-0.091220	0.138362	0.027233
C59	C	0.466061	0.095976	-0.438568
C60	C	0.511988	0.050355	-0.461486
C61	C	0.466061	0.095976	-0.369925
C62	C	0.511988	0.050356	-0.392947
C63	C	0.534683	0.027333	-0.438567
C64	C	0.443470	0.118894	-0.392948
C65	C	0.342482	0.207164	-0.480484
C66	C	0.317218	0.228922	-0.502090
C67	C	0.338903	0.205466	-0.547297
C68	C	0.311507	0.229052	-0.570722
C69	C	0.385856	0.160253	-0.570898
C70	C	0.411120	0.138501	-0.549295
C71	C	0.389431	0.161959	-0.504086
C72	C	0.687740	-0.138198	-0.549752
C73	C	0.731090	-0.185075	-0.571509
C74	C	0.752835	-0.208592	-0.548055
C75	C	0.799832	-0.259420	-0.571638
C76	C	0.731231	-0.185227	-0.502843
C77	C	0.687889	-0.138350	-0.481090
C78	C	0.666143	-0.114839	-0.504550
C79	C	0.342482	0.207164	-0.204394
C80	C	0.317213	0.228920	-0.157515
C81	C	0.338898	0.205464	-0.133999
C82	C	0.311502	0.229050	-0.083169
C83	C	0.385848	0.160253	-0.157362
C84	C	0.411112	0.138499	-0.204239
C85	C	0.389427	0.161961	-0.227753
C86	C	0.416827	0.138367	-0.480662
C87	C	0.438665	0.119563	-0.461991
C88	C	0.438664	0.119564	-0.319097
C89	C	0.416827	0.138367	-0.278582
C90	C	0.581680	-0.023494	-0.462154
C91	C	0.619143	-0.064009	-0.480957
O92	O	0.712704	0.267954	0.011194
O93	O	0.602495	0.323076	-0.011309
O94	O	0.602485	0.323073	0.066314
O95	O	0.712715	0.267956	-0.066430
O96	O	0.602490	0.260024	0.066309
O97	O	0.602500	0.260027	-0.011315
O98	O	0.712709	0.204905	0.011188
Cu99	Cu	0.657605	0.226709	-0.000064
Cu100	Cu	0.657599	0.301272	-0.000057
O101	O	0.712720	0.204907	-0.066436
O102	O	0.193655	0.724110	0.011196
O103	O	0.271256	0.591365	-0.011308
O104	O	0.193662	0.668977	0.066316
O105	O	0.271249	0.646498	-0.066428
O106	O	0.256693	0.668975	0.066311
O107	O	0.334288	0.591363	-0.011313
O108	O	0.256686	0.724108	0.011191
Cu109	Cu	0.301242	0.657736	-0.000062
Cu110	Cu	0.226700	0.657738	-0.000056
O111	O	0.334280	0.646496	-0.066434
O112	O	0.925433	-0.408922	-0.602616
O113	O	0.815217	-0.276180	-0.547497
O114	O	0.815213	-0.353796	-0.547489
O115	O	0.925436	-0.331306	-0.602623
O116	O	0.815214	-0.353798	-0.610537
O117	O	0.815218	-0.276181	-0.610544
O118	O	0.925434	-0.408924	-0.665663
Cu119	Cu	0.870326	-0.342553	-0.643860
Cu120	Cu	0.870324	-0.342551	-0.569300
O121	O	0.925438	-0.331308	-0.665671
O122	O	0.256671	0.260039	-0.665375
O123	O	0.334269	0.204911	-0.610253
O124	O	0.256669	0.204914	-0.610247
O125	O	0.334271	0.260036	-0.665381
O126	O	0.193643	0.267960	-0.547200
O127	O	0.271243	0.267957	-0.547207
O128	O	0.193644	0.323085	-0.602329
Cu129	Cu	0.226689	0.301277	-0.569011
Cu130	Cu	0.301225	0.226719	-0.643571
O131	O	0.271244	0.323082	-0.602335
C132	C	0.071301	0.433157	0.293191
C133	C	0.024532	0.483159	0.316581
C134	C	0.093995	0.410135	0.316110
C135	C	0.139923	0.364514	0.224549
C136	C	0.166526	0.341122	0.174548
C137	C	0.162514	0.341596	0.247573
C138	C	0.139923	0.364515	0.293193
C139	C	0.166525	0.341124	0.316584
C140	C	0.093996	0.410134	0.247571
C141	C	0.188017	0.322227	0.335482
C142	C	-0.013251	0.523556	0.335478
C143	C	0.188020	0.322225	0.134151
C144	C	0.214980	0.298519	0.359191
C145	C	-0.060653	0.574235	0.359185
C146	C	0.214983	0.298516	0.083472
C147	C	0.387981	0.364490	0.293167
C148	C	0.361378	0.341096	0.316556
C149	C	0.365386	0.410110	0.316088
C150	C	0.456607	0.364495	0.224527
C151	C	0.503381	0.341106	0.174525
C152	C	0.433908	0.410115	0.247552
C153	C	0.387977	0.433135	0.293172
C154	C	0.361371	0.483136	0.316565
C155	C	0.433912	0.341574	0.247547
C156	C	0.339875	0.523533	0.335464
C157	C	0.339885	0.322197	0.335451
C158	C	0.541168	0.322210	0.134129
C159	C	0.312908	0.574212	0.359174
C160	C	0.312922	0.298487	0.359157
C161	C	0.588575	0.298505	0.083449
C162	C	0.139975	0.681233	0.293161
C163	C	0.166582	0.678009	0.316548
C164	C	0.094050	0.681548	0.316081
C165	C	0.139963	0.681248	0.224524
C166	C	0.166559	0.678040	0.174524
C167	C	0.094039	0.681563	0.247548
C168	C	0.071350	0.681232	0.293166
C169	C	0.024584	0.678006	0.316558
C170	C	0.162559	0.681564	0.247543
C171	C	-0.013197	0.675400	0.335457
C172	C	0.188079	0.675403	0.335442
C173	C	0.188046	0.675447	0.134128
C174	C	-0.060596	0.672130	0.359166
C175	C	0.215048	0.672135	0.359146
C176	C	0.215002	0.672195	0.083451
C177	C	1.061913	0.027648	-0.438592
C178	C	1.084504	0.050673	-0.461508
C179	C	0.993282	0.096287	-0.369947
C180	C	1.015977	0.119208	-0.392967
C181	C	1.061909	0.096293	-0.438587
C182	C	1.015982	0.050667	-0.392972
C183	C	1.116252	-0.137886	-0.480517
C184	C	1.141368	-0.184762	-0.502124
C185	C	1.188329	-0.208275	-0.547331
C186	C	1.215569	-0.259105	-0.570759
C187	C	1.210170	-0.184907	-0.570931
C188	C	1.185051	-0.138033	-0.549325
C189	C	1.138090	-0.114522	-0.504116
C190	C	1.185490	0.138219	-0.549766
C191	C	1.210754	0.159827	-0.571521
C192	C	1.189068	0.205032	-0.548065
C193	C	1.216460	0.228462	-0.571646
C194	C	1.142111	0.228631	-0.502852
C195	C	1.116844	0.207027	-0.481101
C196	C	1.138541	0.161816	-0.504563
C197	C	0.840211	0.138193	-0.204418
C198	C	0.796860	0.159794	-0.157539
C199	C	0.775110	0.205001	-0.134021
C200	C	0.728108	0.228423	-0.083192
C201	C	0.796715	0.228603	-0.157382
C202	C	0.840066	0.207000	-0.204259
C203	C	0.861808	0.161795	-0.227775
C204	C	1.110858	-0.063694	-0.480691
C205	C	1.089149	-0.023180	-0.462018
C206	C	0.946280	0.119708	-0.319120
C207	C	0.908814	0.138377	-0.278605
C208	C	1.089304	0.119719	-0.462172
C209	C	1.111142	0.138392	-0.480973
O210	O	0.256638	0.724095	0.389741
O211	O	0.334244	0.591352	0.334610
O212	O	0.256649	0.668970	0.334608
O213	O	0.334233	0.646478	0.389743
O214	O	0.193619	0.668964	0.397651
O215	O	0.271214	0.591347	0.397653
O216	O	0.193607	0.724089	0.452785
Cu217	Cu	0.226655	0.657717	0.430975
Cu218	Cu	0.301196	0.657724	0.356419
O219	O	0.271202	0.646472	0.452787
C220	C	0.534346	0.623684	-0.438579
C221	C	0.511645	0.623371	-0.461493
C222	C	0.465731	0.623671	-0.369936
C223	C	0.443134	0.623358	-0.392954
C224	C	0.465718	0.623689	-0.438572
C225	C	0.511658	0.623353	-0.392961
C226	C	0.687410	0.636110	-0.480504
C227	C	0.730760	0.639627	-0.502111
C228	C	0.752499	0.641401	-0.547316
C229	C	0.799496	0.645222	-0.570743
C230	C	0.730888	0.639655	-0.570914
C231	C	0.687546	0.636133	-0.549309
C232	C	0.665807	0.634361	-0.504102
C233	C	0.411364	0.636151	-0.549743
C234	C	0.386246	0.639673	-0.571496
C235	C	0.339289	0.641436	-0.548040
C236	C	0.312046	0.645261	-0.571618
C237	C	0.317454	0.639672	-0.502829
C238	C	0.342576	0.636142	-0.481080
C239	C	0.389533	0.634385	-0.504542
C240	C	0.411429	0.636058	-0.204413
C241	C	0.386320	0.639568	-0.157535
C242	C	0.339363	0.641329	-0.134017
C243	C	0.312134	0.645136	-0.083189
C244	C	0.317515	0.639585	-0.157377
C245	C	0.342625	0.636078	-0.204252
C246	C	0.389586	0.634310	-0.227768
C247	C	0.618806	0.630546	-0.480676
C248	C	0.581343	0.627503	-0.462004
C249	C	0.438506	0.627476	-0.319110
C250	C	0.416806	0.630507	-0.278596
C251	C	0.438479	0.627514	-0.462155
C252	C	0.416768	0.630562	-0.480954
H253	H	-0.003060	0.156670	0.034931
H254	H	0.074993	0.428618	0.353596
H255	H	0.078576	-0.119039	0.023086
H256	H	0.452925	0.428613	-0.024451
H257	H	0.452924	0.304108	-0.024442
H258	H	0.248935	-0.203804	0.016722
H259	H	0.328427	0.428590	0.353571
H260	H	0.199471	0.304113	0.229088
H261	H	0.324818	0.226269	-0.443675
H262	H	0.996990	0.032179	-0.374492
H263	H	0.075000	0.428619	0.229089
H264	H	0.452904	0.428598	0.229068
H265	H	0.449599	0.634717	-0.568850
H266	H	1.078611	0.226245	-0.444291
H267	H	-0.003060	0.032162	0.034931
H268	H	0.406504	0.156373	-0.374462
H269	H	0.452883	0.304103	0.229051
H270	H	0.075043	0.682081	0.229065
H271	H	0.449349	0.101690	-0.568514
H272	H	0.075061	0.682059	0.353564
H273	H	1.121468	0.032187	-0.498989
H274	H	0.199521	0.682073	0.229056
H275	H	0.996974	0.156694	-0.374482
H276	H	0.779274	0.140572	-0.138521
H277	H	0.857902	0.101389	-0.223566
H278	H	0.248929	0.140573	0.016730
H279	H	1.078014	-0.118747	-0.443707
H280	H	1.123581	-0.203784	-0.482907
H281	H	0.124417	-0.204085	0.016702
H282	H	-0.142382	0.226216	0.023091
H283	H	1.248405	-0.204055	-0.607738
H284	H	0.404026	0.641110	-0.608305
H285	H	-0.142116	0.101372	0.023095
H286	H	0.530639	0.622858	-0.498976
H287	H	0.449339	0.101687	-0.223258
H288	H	0.403501	0.141153	-0.138211
H289	H	0.748593	0.641097	-0.607720
H290	H	-0.220751	0.140568	0.016715
H291	H	1.202836	-0.119010	-0.568543
H292	H	0.203096	0.101378	0.023114
H293	H	0.203105	-0.118765	0.023101
H294	H	1.203158	0.101409	-0.568873
H295	H	1.248988	0.140609	-0.608331
H296	H	1.124450	0.265442	-0.483756
H297	H	0.857654	0.226221	-0.223277
H298	H	0.669955	0.634709	-0.568525
H299	H	-0.221019	0.265408	0.016705
H300	H	0.779001	0.265416	-0.138232
H301	H	0.078574	0.226214	0.023092
H302	H	0.124410	0.265411	0.016709
H303	H	0.406175	0.622844	-0.374466
H304	H	0.403509	0.141160	-0.607706
H305	H	0.530658	0.622832	-0.374482
H306	H	0.404111	0.640990	-0.138519
H307	H	0.279223	0.641101	-0.483732
H308	H	0.121405	0.032163	0.034935
H309	H	0.449669	0.634616	-0.223559
H310	H	0.669716	0.634666	-0.443696
H311	H	0.748347	0.641056	-0.482892
H312	H	0.530975	0.031871	-0.374459
H313	H	0.670041	-0.119057	-0.568858
H314	H	0.324796	0.634705	-0.444271
H315	H	0.279277	0.641022	-0.138225
H316	H	0.328448	0.428618	-0.024436
H317	H	0.530981	0.031874	-0.498970
H318	H	0.278981	0.265729	-0.138494
H319	H	0.324831	0.634660	-0.223268
H320	H	0.278989	0.265733	-0.482870
H321	H	0.748676	-0.204095	-0.608320
H322	H	0.748941	-0.204374	-0.483748
H323	H	0.670303	-0.119329	-0.444279
H324	H	0.324819	0.226269	-0.223536
