data_functionalizedCrystal
_audit_creation_method	'MofGen! by Chris Wilmer'
_symmetry_space_group_name_H-M	'P1'
_symmetry_Int_Tables_number	1
_symmetry_cell_setting	triclinic
loop_
_symmetry_equiv_pos_as_xyz
  x,y,z
_cell_length_a	14.519709
_cell_length_b	14.519709
_cell_length_c	12.996460
_cell_angle_alpha	89.992910
_cell_angle_beta	90.000034
_cell_angle_gamma	83.680145
loop_
_atom_site_label
_atom_site_type_symbol
_atom_site_fract_x
_atom_site_fract_y
_atom_site_fract_z
O1	O	-1.223869	-0.120893	0.085435
O2	O	-0.973869	0.129107	0.335435
O3	O	-0.723869	0.379107	0.585435
O4	O	-0.473869	0.629107	0.835435
O5	O	-0.955392	-0.135129	0.085467
O6	O	-0.705392	0.114871	0.335467
O7	O	-0.455392	0.364871	0.585467
O8	O	-0.205392	0.614871	0.835467
O9	O	-1.096749	0.006227	0.085441
O10	O	-0.846749	0.256227	0.335441
O11	O	-0.596749	0.506227	0.585441
O12	O	-0.346749	0.756227	0.835441
O13	O	-1.082512	-0.262250	0.085461
O14	O	-0.832512	-0.012250	0.335461
O15	O	-0.582512	0.237750	0.585461
O16	O	-0.332512	0.487750	0.835461
O17	O	-1.096734	0.006235	-0.085693
O18	O	-0.846734	0.256235	0.164307
O19	O	-0.596734	0.506235	0.414307
O20	O	-0.346734	0.756235	0.664307
O21	O	-0.955377	-0.135122	-0.085667
O22	O	-0.705377	0.114878	0.164333
O23	O	-0.455377	0.364878	0.414333
O24	O	-0.205377	0.614878	0.664333
O25	O	-1.223854	-0.120885	-0.085699
O26	O	-0.973854	0.129115	0.164301
O27	O	-0.723854	0.379115	0.414301
O28	O	-0.473854	0.629115	0.664301
Cu29	Cu	-1.089614	-0.128003	-0.101309
Cu30	Cu	-0.839614	0.121997	0.148691
Cu31	Cu	-0.589614	0.371997	0.398691
Cu32	Cu	-0.339614	0.621997	0.648691
Cu33	Cu	-1.089632	-0.128012	0.101077
Cu34	Cu	-0.839632	0.121988	0.351077
Cu35	Cu	-0.589632	0.371988	0.601077
Cu36	Cu	-0.339632	0.621988	0.851077
O37	O	-1.082497	-0.262242	-0.085673
O38	O	-0.832497	-0.012242	0.164327
O39	O	-0.582497	0.237758	0.414327
O40	O	-0.332497	0.487758	0.664327
C41	C	-0.921025	-0.134462	-0.000096
C42	C	-0.671025	0.115538	0.249904
C43	C	-0.421025	0.365538	0.499904
C44	C	-0.171025	0.615538	0.749904
C45	C	-0.818643	-0.132474	-0.000084
C46	C	-0.568643	0.117526	0.249916
C47	C	-0.318643	0.367526	0.499916
C48	C	-0.068643	0.617526	0.749916
C49	C	-1.096078	0.040591	-0.000126
C50	C	-0.846078	0.290591	0.249874
C51	C	-0.596078	0.540591	0.499874
C52	C	-0.346078	0.790591	0.749874
C53	C	-1.094090	0.142972	-0.000126
C54	C	-0.844090	0.392972	0.249874
C55	C	-0.594090	0.642972	0.499874
C56	C	-0.344090	0.892972	0.749874
C57	C	-1.258221	-0.121553	-0.000134
C58	C	-1.008221	0.128447	0.249866
C59	C	-0.758221	0.378447	0.499866
C60	C	-0.508221	0.628447	0.749866
C61	C	-1.360602	-0.123541	-0.000139
C62	C	-1.110602	0.126459	0.249861
C63	C	-0.860602	0.376459	0.499861
C64	C	-0.610602	0.626459	0.749861
C65	C	-1.083168	-0.296605	-0.000103
C66	C	-0.833168	-0.046605	0.249897
C67	C	-0.583168	0.203395	0.499897
C68	C	-0.333168	0.453395	0.749897
C69	C	-1.085156	-0.398987	-0.000096
C70	C	-0.835156	-0.148987	0.249904
C71	C	-0.585156	0.101013	0.499904
C72	C	-0.335156	0.351013	0.749904
C73	C	-0.443748	-0.125154	-0.000132
C74	C	-0.193748	0.124846	0.249868
C75	C	0.056252	0.374846	0.499868
C76	C	0.306252	0.624846	0.749868
C77	C	-0.548056	-0.127187	-0.000118
C78	C	-0.298056	0.122813	0.249882
C79	C	-0.048056	0.372813	0.499882
C80	C	0.201944	0.622813	0.749882
C81	C	-0.631192	-0.128814	-0.000107
C82	C	-0.381192	0.121186	0.249893
C83	C	-0.131192	0.371186	0.499893
C84	C	0.118808	0.621186	0.749893
C85	C	-0.735507	-0.130847	-0.000095
C86	C	-0.485507	0.119153	0.249905
C87	C	-0.235507	0.369153	0.499905
C88	C	0.014493	0.619153	0.749905
C89	C	-1.086770	0.517868	-0.000099
C90	C	-0.836770	0.767868	0.249901
C91	C	-0.586770	1.017868	0.499901
C92	C	-0.336770	1.267868	0.749901
C93	C	-1.088803	0.413560	-0.000107
C94	C	-0.838803	0.663560	0.249893
C95	C	-0.588803	0.913560	0.499893
C96	C	-0.338803	1.163560	0.749893
C97	C	-1.090430	0.330423	-0.000114
C98	C	-0.840430	0.580423	0.249886
C99	C	-0.590430	0.830423	0.499886
C100	C	-0.340430	1.080423	0.749886
C101	C	-1.092463	0.226109	-0.000120
C102	C	-0.842463	0.476109	0.249880
C103	C	-0.592463	0.726109	0.499880
C104	C	-0.342463	0.976109	0.749880
N105	N	-1.089609	-0.127996	-0.243656
N106	N	-0.839609	0.122004	0.006344
N107	N	-0.589609	0.372004	0.256344
N108	N	-0.339609	0.622004	0.506344
C109	C	-1.089630	-0.128013	-0.663470
C110	C	-0.839630	0.121987	-0.413470
C111	C	-0.589630	0.371987	-0.163470
C112	C	-0.339630	0.621987	0.086530
C113	C	-1.089622	-0.128011	-0.546665
C114	C	-0.839622	0.121989	-0.296665
C115	C	-0.589622	0.371989	-0.046665
C116	C	-0.339622	0.621989	0.203335
C117	C	-1.089620	-0.128005	-0.453567
C118	C	-0.839620	0.121995	-0.203567
C119	C	-0.589620	0.371995	0.046433
C120	C	-0.339620	0.621995	0.296433
C121	C	-1.089610	-0.128002	-0.336754
C122	C	-0.839610	0.121998	-0.086754
C123	C	-0.589610	0.371998	0.163246
C124	C	-0.339610	0.621998	0.413246
N125	N	-1.089644	-0.128012	0.243424
N126	N	-0.839644	0.121988	0.493424
N127	N	-0.589644	0.371988	0.743424
N128	N	-0.339644	0.621988	0.993424
