data_functionalizedCrystal
_audit_creation_method	'MofGen! by Chris Wilmer'
_symmetry_space_group_name_H-M	'P1'
_symmetry_Int_Tables_number	1
_symmetry_cell_setting	triclinic
loop_
_symmetry_equiv_pos_as_xyz
  x,y,z
_cell_length_a	12.827893
_cell_length_b	12.827892
_cell_length_c	18.215399
_cell_angle_alpha	90.024028
_cell_angle_beta	90.017704
_cell_angle_gamma	90.015362
loop_
_atom_site_label
_atom_site_type_symbol
_atom_site_fract_x
_atom_site_fract_y
_atom_site_fract_z
Zn1	Zn	1.597653	-0.416045	0.416094
Zn2	Zn	1.597552	-0.590804	0.293036
Zn3	Zn	1.422900	-0.416077	0.293046
Zn4	Zn	1.422880	-0.590744	0.416066
O5	O	1.510246	-0.503417	0.354561
O6	O	1.743876	-0.439238	0.399778
O7	O	1.574350	-0.567665	0.190053
O8	O	1.446132	-0.269837	0.309385
O9	O	1.743802	-0.567633	0.309368
O10	O	1.574522	-0.269813	0.399788
O11	O	1.446034	-0.439294	0.190060
O12	O	1.276661	-0.439236	0.309357
O13	O	1.446098	-0.567531	0.519054
O14	O	1.276647	-0.567563	0.399739
O15	O	1.574504	-0.439180	0.519075
O16	O	1.574331	-0.737032	0.309340
O17	O	1.446000	-0.736988	0.399730
C18	C	1.238736	-0.503397	0.354547
C19	C	1.122583	-0.503414	0.354558
C20	C	0.950734	-0.439848	0.309926
C21	C	1.070784	-0.439829	0.309913
C22	C	1.510181	-0.774927	0.354547
C23	C	1.510249	-0.891081	0.354566
C24	C	1.573752	-0.942770	0.399340
C25	C	1.573824	-1.062820	0.399361
C26	C	1.782816	-0.503438	0.354575
C27	C	1.898970	-0.503447	0.354581
C28	C	1.510310	-0.503345	0.546514
C29	C	1.510337	-0.503315	0.628312
C30	C	1.510340	-0.230847	0.354590
C31	C	1.510381	-0.114694	0.354603
C32	C	1.510243	-0.503414	0.163354
C33	C	1.510418	-0.503150	0.081556
C34	C	1.577222	-0.436420	0.816519
C35	C	1.577234	-0.436389	0.893377
C36	C	1.443526	-0.570048	0.893344
C37	C	1.443509	-0.570072	0.816487
C38	C	1.510363	-0.503260	0.778076
C39	C	1.510392	-0.503205	0.931792
C40	C	1.510406	-0.503173	1.015126
C41	C	1.510349	-0.503291	0.694737
H42	H	0.906174	-0.385408	0.271708
H43	H	1.628195	-1.107272	0.437691
H44	H	1.115300	-0.385383	0.271680
H45	H	1.456013	-1.070250	0.316265
H46	H	1.389099	-0.624447	0.924628
H47	H	1.631655	-0.382014	0.785247
H48	H	1.455929	-0.935704	0.316251
C49	C	1.650784	-0.362870	0.935661
H50	H	1.690599	-0.323091	0.901775
H51	H	1.610834	-0.317323	0.965645
H52	H	1.696312	-0.402846	0.965642
C53	C	1.062466	-0.576953	0.406228
H54	H	1.110538	-0.616840	0.434237
H55	H	1.019923	-0.536982	0.438311
H56	H	1.019853	-0.622417	0.378011
H57	H	1.389058	-0.624501	0.785186
H58	H	0.943529	-0.557879	0.392806
H59	H	1.628064	-0.898149	0.437661
