data_functionalizedCrystal
_audit_creation_method	'MofGen! by Chris Wilmer'
_symmetry_space_group_name_H-M	'P1'
_symmetry_Int_Tables_number	1
_symmetry_cell_setting	triclinic
loop_
_symmetry_equiv_pos_as_xyz
  x,y,z
_cell_length_a	13.897448
_cell_length_b	16.959455
_cell_length_c	16.959447
_cell_angle_alpha	89.985678
_cell_angle_beta	90.029368
_cell_angle_gamma	89.985361
loop_
_atom_site_label
_atom_site_type_symbol
_atom_site_fract_x
_atom_site_fract_y
_atom_site_fract_z
Zn1	Zn	-0.384074	-1.208397	0.446914
Zn2	Zn	0.115926	-0.708397	0.946914
Zn3	Zn	-0.545393	-1.208325	0.314738
Zn4	Zn	-0.045393	-0.708325	0.814738
Zn5	Zn	-0.384105	-1.076225	0.314751
Zn6	Zn	0.115895	-0.576225	0.814751
Zn7	Zn	-0.545321	-1.076195	0.446876
Zn8	Zn	-0.045321	-0.576195	0.946876
O9	O	-0.464723	-1.142286	0.380820
O10	O	0.035277	-0.642286	0.880820
O11	O	-0.405491	-1.318998	0.429390
O12	O	0.094509	-0.818998	0.929390
O13	O	-0.524040	-1.190784	0.204128
O14	O	-0.024040	-0.690784	0.704128
O15	O	-0.249119	-1.093801	0.332305
O16	O	0.250881	-0.593801	0.832305
O17	O	-0.524011	-1.318945	0.332281
O18	O	-0.024011	-0.818945	0.832281
O19	O	-0.249097	-1.190907	0.429404
O20	O	0.250903	-0.690907	0.929404
O21	O	-0.405543	-1.093731	0.204139
O22	O	0.094457	-0.593731	0.704139
O23	O	-0.405473	-0.965610	0.332268
O24	O	0.094527	-0.465610	0.832268
O25	O	-0.523888	-1.093750	0.557492
O26	O	-0.023888	-0.593750	1.057492
O27	O	-0.523917	-0.965589	0.429340
O28	O	-0.023917	-0.465589	0.929340
O29	O	-0.405421	-1.190878	0.557520
O30	O	0.094579	-0.690878	1.057520
O31	O	-0.680365	-1.190755	0.332244
O32	O	-0.180365	-0.690755	0.832244
O33	O	-0.680312	-1.093680	0.429326
O34	O	-0.180312	-0.593680	0.929326
C35	C	-0.464691	-0.936919	0.380802
C36	C	0.035309	-0.436919	0.880802
C37	C	-0.464701	-0.849063	0.380813
C38	C	0.035299	-0.349063	0.880813
C39	C	-0.715337	-1.142228	0.380797
C40	C	-0.215337	-0.642228	0.880797
C41	C	-0.822551	-1.142276	0.380814
C42	C	-0.322551	-0.642276	0.880814
C43	C	-0.464643	-1.142319	0.586988
C44	C	0.035357	-0.642319	1.086988
C45	C	-0.464609	-1.142333	0.674845
C46	C	0.035391	-0.642333	1.174845
C47	C	-1.018846	-1.142359	0.380863
C48	C	-0.518846	-0.642359	0.880863
C49	C	-0.909614	-1.142310	0.380838
C50	C	-0.409614	-0.642310	0.880838
C51	C	-0.213130	-1.142365	0.380860
C52	C	0.286870	-0.642365	0.880860
C53	C	-0.105916	-1.142399	0.380877
C54	C	0.394084	-0.642399	0.880877
C55	C	-0.464756	-1.348454	0.380838
C56	C	0.035244	-0.848454	0.880838
C57	C	-0.464770	-1.436310	0.380846
C58	C	0.035230	-0.936310	0.880846
C59	C	-0.402998	-0.477574	0.330380
C60	C	0.097002	0.022426	0.830380
C61	C	-0.526527	-0.477600	0.431305
C62	C	-0.026527	0.022400	0.931305
C63	C	-0.526513	-0.560146	0.431300
C64	C	-0.026513	-0.060146	0.931300
C65	C	-0.464742	-0.601410	0.380834
C66	C	0.035258	-0.101410	0.880834
C67	C	-0.402985	-0.560128	0.330372
C68	C	0.097015	-0.060128	0.830372
C69	C	-0.588276	-0.601434	0.481754
C70	C	-0.088276	-0.101434	0.981754
C71	C	-0.588266	-0.683985	0.481751
C72	C	-0.088266	-0.183985	0.981751
C73	C	-0.526489	-0.725251	0.431288
C74	C	-0.026489	-0.225251	0.931288
C75	C	-0.464728	-0.683963	0.380825
C76	C	0.035272	-0.183963	0.880825
C77	C	-0.402957	-0.725227	0.330359
C78	C	0.097043	-0.225227	0.830359
C79	C	-0.341191	-0.683941	0.279900
C80	C	0.158809	-0.183941	0.779900
C81	C	-0.341208	-0.601393	0.279909
C82	C	0.158792	-0.101393	0.779909
C83	C	-0.526472	-0.807799	0.431279
C84	C	-0.026472	-0.307799	0.931279
C85	C	-0.402944	-0.807781	0.330351
C86	C	0.097056	-0.307781	0.830351
C87	C	-0.464733	-1.142298	0.175454
C88	C	0.035267	-0.642298	0.675454
C89	C	-0.464495	-1.142437	0.087597
C90	C	0.035505	-0.642437	0.587597
C91	C	-0.526188	-1.091857	1.046309
C92	C	-0.026188	-0.591857	1.546309
C93	C	-0.402827	-1.192997	1.046333
C94	C	0.097173	-0.692997	1.546333
C95	C	-0.402848	-1.192976	0.963787
C96	C	0.097152	-0.692976	1.463787
C97	C	-0.464540	-1.142395	0.922498
C98	C	0.035460	-0.642395	1.422498
C99	C	-0.526212	-1.091836	0.963755
C100	C	-0.026212	-0.591836	1.463755
C101	C	-0.341184	-1.243540	0.922523
C102	C	0.158816	-0.743540	1.422523
C103	C	-0.341203	-1.243522	0.839972
C104	C	0.158797	-0.743522	1.339972
C105	C	-0.402891	-1.192937	0.798682
C106	C	0.097109	-0.692937	1.298682
C107	C	-0.464564	-1.142375	0.839944
C108	C	0.035436	-0.642375	1.339944
C109	C	-0.526257	-1.091794	0.798655
C110	C	-0.026257	-0.591794	1.298655
C111	C	-0.587926	-1.041227	0.839916
C112	C	-0.087926	-0.541227	1.339916
C113	C	-0.587900	-1.041251	0.922465
C114	C	-0.087900	-0.541251	1.422465
C115	C	-0.402917	-1.192913	0.716134
C116	C	0.097083	-0.692913	1.216134
C117	C	-0.526281	-1.091773	0.716102
C118	C	-0.026281	-0.591773	1.216102
H119	H	-0.290901	-0.717549	0.238807
H120	H	0.209099	-0.217549	0.738807
H121	H	-0.352635	-0.841372	0.289260
H122	H	0.147365	-0.341372	0.789260
H123	H	-0.576511	-1.050577	0.682490
H124	H	-0.076511	-0.550577	1.182490
H125	H	-0.576764	-0.841410	0.472360
H126	H	-0.076764	-0.341410	0.972360
N127	N	-0.274624	-0.556865	0.225465
N128	N	0.225376	-0.056865	0.725465
H129	H	-0.284021	-0.498310	0.233118
H130	H	0.215979	0.001690	0.733118
H131	H	-0.289580	-0.571288	0.168999
H132	H	0.210420	-0.071288	0.668999
N133	N	-0.654455	-0.986674	0.795371
N134	N	-0.154455	-0.486674	1.295371
H135	H	-0.639457	-0.930205	0.809733
H136	H	-0.139457	-0.430205	1.309733
H137	H	-0.723350	-0.998991	0.809734
H138	H	-0.223350	-0.498991	1.309734
H139	H	-0.352709	-1.234086	0.682543
H140	H	0.147291	-0.734086	1.182543
N141	N	-0.274677	-1.298048	0.795475
N142	N	0.225323	-0.798048	1.295475
H143	H	-0.284047	-1.290358	0.736916
H144	H	0.215953	-0.790358	1.236916
H145	H	-0.289690	-1.354500	0.809897
H146	H	0.210310	-0.854500	1.309897
H147	H	-0.576395	-1.050685	1.079907
H148	H	-0.076395	-0.550685	1.579907
N149	N	-0.336398	-0.433052	0.275944
N150	N	0.163602	0.066948	0.775944
H151	H	-0.345781	-0.374496	0.283600
H152	H	0.154219	0.125504	0.783600
H153	H	-0.351346	-0.447469	0.219476
H154	H	0.148654	0.052531	0.719476
N155	N	-0.654392	-0.986700	0.966966
N156	N	-0.154392	-0.486700	1.466966
H157	H	-0.645011	-0.994388	1.025525
H158	H	-0.145011	-0.494388	1.525525
H159	H	-0.723295	-0.998961	0.952529
H160	H	-0.223295	-0.498961	1.452529
N161	N	-0.274651	-1.298093	0.967054
N162	N	0.225349	-0.798093	1.467054
H163	H	-0.289651	-1.354561	0.952690
H164	H	0.210349	-0.854561	1.452690
H165	H	-0.284024	-1.290361	1.025594
H166	H	0.215976	-0.790361	1.525594
H167	H	-0.576824	-0.443998	0.472387
H168	H	-0.076824	0.056002	0.972387
N169	N	-0.654907	-0.556932	0.536175
N170	N	-0.154907	-0.056932	1.036175
H171	H	-0.645539	-0.498373	0.528524
H172	H	-0.145539	0.001627	1.028524
H173	H	-0.639984	-0.571381	0.592648
H174	H	-0.139984	-0.071381	1.092648
H175	H	-0.352606	-1.234182	1.079955
H176	H	0.147394	-0.734182	1.579955
N177	N	-0.654881	-0.728512	0.536171
N178	N	-0.154881	-0.228512	1.036171
H179	H	-0.694015	-0.689845	0.568140
H180	H	-0.194015	-0.189845	1.068140
H181	H	-0.615666	-0.762776	0.572805
H182	H	-0.115666	-0.262776	1.072805
