data_functionalizedCrystal
_audit_creation_method	'MofGen! by Chris Wilmer'
_symmetry_space_group_name_H-M	'P1'
_symmetry_Int_Tables_number	1
_symmetry_cell_setting	triclinic
loop_
_symmetry_equiv_pos_as_xyz
  x,y,z
_cell_length_a	6.817900
_cell_length_b	11.452732
_cell_length_c	10.773894
_cell_angle_alpha	83.898808
_cell_angle_beta	96.645922
_cell_angle_gamma	108.697210
loop_
_atom_site_label
_atom_site_type_symbol
_atom_site_fract_x
_atom_site_fract_y
_atom_site_fract_z
V1	V	-3.967651	-0.164841	-0.353160
V2	V	-3.467651	0.335159	0.146840
O3	O	-3.936515	0.012549	-0.384265
O4	O	-3.436515	0.512549	0.115735
O5	O	-3.938590	-0.331303	-0.314363
O6	O	-3.438590	0.168697	0.185637
O7	O	-3.884793	-0.160275	-0.523783
O8	O	-3.384793	0.339725	-0.023783
O9	O	-3.990684	-0.159663	-0.173395
O10	O	-3.490684	0.340337	0.326605
V11	V	-4.453238	-0.143863	-0.336078
V12	V	-3.953238	0.356137	0.163922
O13	O	-4.224382	-0.210858	-0.390630
O14	O	-3.724382	0.289142	0.109370
O15	O	-4.646704	-0.097846	-0.298608
O16	O	-4.146704	0.402154	0.201392
O17	O	-4.259092	0.022599	-0.374874
O18	O	-3.759092	0.522599	0.125126
O19	O	-4.601770	-0.321253	-0.304973
O20	O	-4.101770	0.178747	0.195027
O21	O	-4.547601	-0.149041	-0.515842
O22	O	-4.047601	0.350959	-0.015842
O23	O	-4.312889	-0.148429	-0.165455
O24	O	-3.812889	0.351571	0.334545
C25	C	-3.789411	-0.371946	-0.299404
C26	C	-3.289411	0.128054	0.200596
C27	C	-3.846707	-0.508018	-0.268821
C28	C	-3.346707	-0.008018	0.231179
C29	C	-3.890521	-0.584038	-0.360417
C30	C	-3.390521	-0.084038	0.139583
C31	C	-3.949740	-0.724675	-0.328810
C32	C	-3.449740	-0.224675	0.171190
C33	C	-3.720786	-0.153781	-0.566539
C34	C	-3.220786	0.346219	-0.066539
C35	C	-3.734453	-0.151149	-0.705785
C36	C	-3.234453	0.348851	-0.205785
C37	C	-3.913057	-0.155711	-0.772657
C38	C	-3.413057	0.344289	-0.272657
C39	C	-3.927186	-0.152990	-0.916576
C40	C	-3.427186	0.347010	-0.416576
C41	C	-4.071615	0.063236	-0.389828
C42	C	-3.571615	0.563236	0.110172
C43	C	-3.993555	0.199307	-0.420420
C44	C	-3.493555	0.699307	0.079580
C45	C	-4.140239	-0.154927	-0.122691
C46	C	-3.640239	0.345073	0.377309
C47	C	-4.105811	-0.157553	0.016555
C48	C	-3.605811	0.342447	0.516555
H49	H	-3.956055	-0.763704	-0.226984
H50	H	-3.456055	-0.263704	0.273016
H51	H	-3.884178	-0.545002	-0.462236
H52	H	-3.384178	-0.045002	0.037764
F53	F	-3.985280	-0.749687	-0.553515
F54	F	-3.485280	-0.249687	-0.053515
F55	F	-4.292018	-0.165269	-0.919028
F56	F	-3.792018	0.334731	-0.419028
F57	F	-3.854965	-0.559032	-0.135732
F58	F	-3.354965	-0.059032	0.364268
H59	H	-4.055503	-0.161621	-0.723362
H60	H	-3.555503	0.338379	-0.223362
F61	F	-3.548248	-0.143403	-0.770211
F62	F	-3.048248	0.356597	-0.270211
F63	F	-3.740968	-0.145244	-0.980997
F64	F	-3.240968	0.354756	-0.480997
