data_functionalizedCrystal
_audit_creation_method	'MofGen! by Chris Wilmer'
_symmetry_space_group_name_H-M	'P1'
_symmetry_Int_Tables_number	1
_symmetry_cell_setting	triclinic
loop_
_symmetry_equiv_pos_as_xyz
  x,y,z
_cell_length_a	9.065215
_cell_length_b	10.540510
_cell_length_c	8.140239
_cell_angle_alpha	89.998951
_cell_angle_beta	89.997810
_cell_angle_gamma	84.764004
loop_
_atom_site_label
_atom_site_type_symbol
_atom_site_fract_x
_atom_site_fract_y
_atom_site_fract_z
O1	O	1.959448	0.186128	-0.136584
O2	O	1.530084	0.201401	-0.136591
O3	O	1.754584	0.009092	-0.136587
O4	O	1.734947	0.378437	-0.136588
O5	O	1.754572	0.009089	0.136640
O6	O	1.530072	0.201398	0.136636
O7	O	1.959435	0.186126	0.136643
Zn8	Zn	1.744751	0.193762	0.180020
Zn9	Zn	1.744768	0.193765	-0.179968
O10	O	1.734935	0.378435	0.136639
C11	C	1.475099	0.199933	0.000022
C12	C	1.311278	0.195546	0.000019
C13	C	1.753115	-0.038218	0.000023
C14	C	1.748737	-0.179185	0.000013
C15	C	1.904696	-0.396065	0.000642
C16	C	1.909366	-0.249452	0.000017
C17	C	1.666517	-0.224245	-0.156011
C18	C	1.662985	-0.371019	-0.156133
C19	C	1.659625	-0.370843	0.154577
C20	C	1.667244	-0.224473	0.156631
C21	C	2.014421	0.187594	0.000027
C22	C	2.178241	0.191980	0.000019
C23	C	1.736404	0.425745	0.000025
C24	C	1.740782	0.566711	0.000024
N25	N	1.744751	0.193759	0.425703
N26	N	1.744780	0.193758	-0.425651
H27	H	1.973698	-0.219872	0.111859
C28	C	1.727051	-0.427314	0.312323
C29	C	1.618479	-0.483818	0.401758
C30	C	1.680557	-0.535868	0.547062
H31	H	1.764067	-0.361796	0.376210
H32	H	1.805784	-0.489833	0.286328
H33	H	1.539773	-0.421304	0.427757
H34	H	1.581454	-0.549351	0.337920
H35	H	1.759290	-0.598388	0.521067
H36	H	1.717572	-0.470343	0.610934
H37	H	1.606905	-0.574222	0.607754
H38	H	1.548264	-0.177292	-0.161814
H39	H	1.723626	-0.193177	-0.272122
H40	H	1.727070	-0.195642	0.272056
C41	C	1.510891	-0.159541	0.168875
C42	C	1.483838	-0.076888	0.035417
C43	C	1.339812	-0.017059	0.046620
H44	H	1.500623	-0.112468	0.268363
H45	H	1.441804	-0.222103	0.167486
H46	H	1.552906	-0.014334	0.036821
H47	H	1.494075	-0.123929	-0.064090
H48	H	1.270725	-0.079622	0.045231
H49	H	1.329557	0.030006	0.146113
H50	H	1.321433	0.039018	-0.043935
H51	H	1.539023	-0.393438	0.155627
H52	H	1.967271	-0.437790	0.112535
C53	C	1.987782	-0.453510	-0.147782
C54	C	2.037444	-0.355842	-0.243989
C55	C	2.113998	-0.408712	-0.380722
H56	H	1.923561	-0.500482	-0.211091
H57	H	2.070270	-0.508643	-0.111957
H58	H	1.954969	-0.300731	-0.279815
H59	H	2.101685	-0.308862	-0.180729
H60	H	2.196485	-0.463845	-0.344897
H61	H	2.049767	-0.455683	-0.444017
H62	H	2.147715	-0.342454	-0.446007
C63	C	1.502709	-0.402024	-0.165706
C64	C	1.409477	-0.288642	-0.171347
C65	C	1.261829	-0.317148	-0.180208
H66	H	1.479576	-0.449753	-0.071667
H67	H	1.488922	-0.450531	-0.261958
H68	H	1.423256	-0.240156	-0.075105
H69	H	1.432563	-0.240898	-0.265382
H70	H	1.248042	-0.365654	-0.276460
H71	H	1.238712	-0.364878	-0.086166
H72	H	1.198554	-0.240224	-0.184051
H73	H	1.974082	-0.220807	-0.112018
H74	H	1.719184	-0.411026	-0.272761
