data_functionalizedCrystal
_audit_creation_method	'MofGen! by Chris Wilmer'
_symmetry_space_group_name_H-M	'P1'
_symmetry_Int_Tables_number	1
_symmetry_cell_setting	triclinic
loop_
_symmetry_equiv_pos_as_xyz
  x,y,z
_cell_length_a	16.120297
_cell_length_b	13.897449
_cell_length_c	13.897448
_cell_angle_alpha	90.018972
_cell_angle_beta	87.126532
_cell_angle_gamma	87.120648
loop_
_atom_site_label
_atom_site_type_symbol
_atom_site_fract_x
_atom_site_fract_y
_atom_site_fract_z
Zn1	Zn	-0.471366	-1.447031	0.411661
Zn2	Zn	-0.138033	-1.113697	0.744994
Zn3	Zn	0.195300	-0.780364	1.078328
Zn4	Zn	-0.331958	-1.455109	0.564787
Zn5	Zn	0.001375	-1.121775	0.898121
Zn6	Zn	0.334709	-0.788442	1.231454
Zn7	Zn	-0.331973	-1.293903	0.403512
Zn8	Zn	0.001361	-0.960570	0.736846
Zn9	Zn	0.334694	-0.627236	1.070179
Zn10	Zn	-0.471327	-1.285704	0.572917
Zn11	Zn	-0.137993	-0.952371	0.906250
Zn12	Zn	0.195340	-0.619037	1.239584
O13	O	-0.401656	-1.370437	0.488219
O14	O	-0.068323	-1.037103	0.821553
O15	O	0.265011	-0.703770	1.154886
O16	O	-0.452884	-1.583083	0.431981
O17	O	-0.119551	-1.249750	0.765315
O18	O	0.213783	-0.916417	1.098648
O19	O	-0.215297	-1.440537	0.536581
O20	O	0.118037	-1.107203	0.869915
O21	O	0.451370	-0.773870	1.203248
O22	O	-0.350486	-1.314266	0.269613
O23	O	-0.017153	-0.980933	0.602946
O24	O	0.316180	-0.647600	0.936280
O25	O	-0.350461	-1.589018	0.544483
O26	O	-0.017128	-1.255685	0.877816
O27	O	0.316205	-0.922352	1.211149
O28	O	-0.452898	-1.426769	0.275600
O29	O	-0.119565	-1.093435	0.608933
O30	O	0.213768	-0.760102	0.942266
O31	O	-0.215308	-1.322099	0.418094
O32	O	0.118026	-0.988766	0.751427
O33	O	0.451359	-0.655433	1.084760
O34	O	-0.350448	-1.157834	0.425976
O35	O	-0.017114	-0.824501	0.759310
O36	O	0.316219	-0.491168	1.092643
O37	O	-0.587995	-1.300292	0.558338
O38	O	-0.254662	-0.966959	0.891672
O39	O	0.078672	-0.633625	1.225005
O40	O	-0.452831	-1.151811	0.550437
O41	O	-0.119497	-0.818477	0.883770
O42	O	0.213836	-0.485144	1.217104
O43	O	-0.588024	-1.418818	0.439864
O44	O	-0.254691	-1.085485	0.773198
O45	O	0.078642	-0.752152	1.106531
O46	O	-0.350423	-1.432586	0.700846
O47	O	-0.017089	-1.099253	1.034179
O48	O	0.316244	-0.765919	1.367513
O49	O	-0.452816	-1.308125	0.706819
O50	O	-0.119483	-0.974792	1.040152
O51	O	0.213850	-0.641458	1.373485
C52	C	-0.401632	-1.370368	0.738832
C53	C	-0.068298	-1.037034	1.072166
C54	C	0.265035	-0.703701	1.405499
C55	C	-0.401649	-1.370425	0.846047
C56	C	-0.068316	-1.037091	1.179381
C57	C	0.265017	-0.703758	1.512714
C58	C	-0.401637	-1.119823	0.488205
C59	C	-0.068304	-0.786490	0.821539
C60	C	0.265030	-0.453157	1.154872
C61	C	-0.401649	-1.012609	0.488224
C62	C	-0.068315	-0.679275	0.821557
C63	C	0.265018	-0.345942	1.154891
C64	C	-0.619105	-1.357740	0.500917
C65	C	-0.285771	-1.024406	0.834250
C66	C	0.047562	-0.691073	1.167584
C67	C	-0.711769	-1.352329	0.506328
C68	C	-0.378435	-1.018995	0.839661
C69	C	-0.045102	-0.685662	1.172995
C70	C	-0.881426	-1.342415	0.516186
C71	C	-0.548093	-1.009081	0.849519
C72	C	-0.214760	-0.675748	1.182852
C73	C	-0.922737	-1.398648	0.459964
C74	C	-0.589404	-1.065315	0.793297
C75	C	-0.256071	-0.731982	1.126631
C76	C	-1.017141	-1.393132	0.465449
C77	C	-0.683807	-1.059799	0.798782
C78	C	-0.350474	-0.726466	1.132116
C79	C	-0.787014	-1.347930	0.510702
C80	C	-0.453681	-1.014596	0.844036
C81	C	-0.120348	-0.681263	1.177369
C82	C	-0.185053	-1.383140	0.475502
C83	C	0.148280	-1.049806	0.808835
C84	C	0.481614	-0.716473	1.142168
C85	C	-0.092390	-1.388737	0.469819
C86	C	0.240944	-1.055404	0.803152
C87	C	0.574277	-0.722071	1.136485
C88	C	-0.401675	-1.622028	0.488234
C89	C	-0.068342	-1.288695	0.821568
C90	C	0.264991	-0.955362	1.154901
C91	C	-0.401684	-1.729242	0.488240
C92	C	-0.068350	-1.395908	0.821574
C93	C	0.264983	-1.062575	1.154907
C94	C	-0.401670	-0.816312	0.488229
C95	C	-0.068337	-0.482979	0.821562
C96	C	0.264996	-0.149646	1.154895
C97	C	-0.401656	-0.925546	0.488223
C98	C	-0.068323	-0.592212	0.821556
C99	C	0.265011	-0.258879	1.154890
C100	C	-0.401698	-1.370531	0.236629
C101	C	-0.068365	-1.037198	0.569962
C102	C	0.264968	-0.703864	0.903296
C103	C	-0.401716	-1.370571	0.129416
C104	C	-0.068383	-1.037238	0.462749
C105	C	0.264950	-0.703905	0.796083
C106	C	-0.401702	-1.370523	1.042345
C107	C	-0.068368	-1.037190	1.375679
C108	C	0.264965	-0.703856	1.709012
C109	C	-0.401675	-1.370465	0.933111
C110	C	-0.068342	-1.037132	1.266445
C111	C	0.264992	-0.703799	1.599778
H112	H	-0.887205	-1.450934	0.407711
H113	H	-0.553872	-1.117600	0.741044
H114	H	-0.220539	-0.784267	1.074378
H115	H	-0.916956	-1.290134	0.568435
H116	H	-0.583623	-0.956800	0.901768
H117	H	-0.250289	-0.623467	1.235101
