data_functionalizedCrystal
_audit_creation_method	'MofGen! by Chris Wilmer'
_symmetry_space_group_name_H-M	'P1'
_symmetry_Int_Tables_number	1
_symmetry_cell_setting	triclinic
loop_
_symmetry_equiv_pos_as_xyz
  x,y,z
_cell_length_a	12.837943
_cell_length_b	17.038272
_cell_length_c	11.295483
_cell_angle_alpha	94.391706
_cell_angle_beta	85.461227
_cell_angle_gamma	92.970248
loop_
_atom_site_label
_atom_site_type_symbol
_atom_site_fract_x
_atom_site_fract_y
_atom_site_fract_z
O1	O	1.400057	0.199823	-0.099006
O2	O	1.097361	0.189716	-0.099013
O3	O	1.246909	0.080820	-0.099000
O4	O	1.250509	0.308719	-0.099019
O5	O	1.233773	0.090368	0.099049
O6	O	1.084224	0.199264	0.099036
O7	O	1.386921	0.209371	0.099043
Cu8	Cu	1.234373	0.205189	0.117123
Cu9	Cu	1.249908	0.193897	-0.117093
O10	O	1.237372	0.318267	0.099030
C11	C	1.051871	0.191076	0.000011
C12	C	0.935896	0.180893	0.000008
C13	C	1.237069	0.056221	0.000024
C14	C	1.227305	-0.031301	0.000024
C15	C	0.705733	0.303310	0.000015
C16	C	0.596764	0.293746	0.000014
C17	C	0.608986	0.152201	0.000013
C18	C	0.717955	0.161765	0.000014
C19	C	0.766324	0.237322	0.000014
C20	C	0.875296	0.246885	0.000007
C21	C	0.887516	0.105342	0.000014
C22	C	0.778546	0.095777	0.000013
C23	C	1.316945	-0.074719	0.000027
C24	C	1.307766	-0.156956	0.000015
C25	C	1.208945	-0.195773	0.000009
C26	C	1.119299	-0.152349	0.000002
C27	C	1.128480	-0.070114	0.000005
C28	C	1.176511	-0.443954	-0.000008
C29	C	1.167337	-0.526195	-0.000007
C30	C	1.355805	-0.530796	0.000004
C31	C	1.364977	-0.448559	0.000014
C32	C	1.275331	-0.405143	0.000001
C33	C	1.199560	-0.279832	0.000001
C34	C	1.284718	-0.321086	0.000000
C35	C	1.432411	0.208011	0.000017
C36	C	1.548386	0.218194	0.000011
C37	C	1.247213	0.342865	0.000003
C38	C	1.256977	0.430387	-0.000004
N39	N	1.223454	0.213132	0.281859
N40	N	1.260835	0.185950	-0.281829
C41	C	1.339435	0.128734	0.531158
C42	C	1.331191	0.134742	0.655821
C43	C	1.198717	0.231151	0.655850
C44	C	1.206961	0.225143	0.531187
C45	C	1.277323	0.173934	0.468845
C46	C	1.285572	0.167930	0.344180
C47	C	1.153093	0.264335	0.344211
C48	C	1.144849	0.270343	0.468874
H49	H	0.914677	0.308407	0.000008
N50	N	1.122846	0.286389	0.723104
H51	H	1.084749	0.314117	0.664715
H52	H	1.070634	0.255300	0.774842
N53	N	0.726373	0.014289	0.000029
H54	H	0.648146	0.018242	0.000033
H55	H	0.752953	-0.018483	-0.073391
N56	N	1.391297	-0.279220	0.000020
H57	H	1.446698	-0.319201	0.000027
H58	H	1.404085	-0.248736	-0.073397
H59	H	1.380760	-0.192303	0.000021
H60	H	1.087559	0.312035	0.519647
N61	N	0.757913	0.384796	-0.000004
H62	H	0.702993	0.425149	-0.000010
H63	H	0.797991	0.395389	0.073414
H64	H	0.547433	0.347481	0.000019
N65	N	0.556804	0.070716	0.000047
H66	H	0.478578	0.074674	0.000059
H67	H	0.583374	0.037933	-0.073366
N68	N	1.060748	-0.568066	-0.000026
H69	H	1.047866	-0.598543	0.073393
H70	H	1.005419	-0.528038	-0.000082
N71	N	0.952868	0.034162	-0.000000
H72	H	1.029241	0.051683	-0.000004
H73	H	0.931625	0.005119	0.073417
H74	H	1.102521	0.301142	0.293462
H75	H	1.397415	-0.043120	0.000039
N76	N	1.471561	-0.406693	0.000027
H77	H	1.526957	-0.446678	0.000028
H78	H	1.484348	-0.376208	-0.073388
N79	N	1.452490	-0.577622	0.000020
H80	H	1.431683	-0.635608	0.000017
H81	H	1.500115	-0.567790	-0.073397
N82	N	1.079826	-0.397132	-0.000017
H83	H	1.015833	-0.434203	-0.000015
H84	H	1.074658	-0.359375	0.073402
N85	N	1.012712	-0.194211	-0.000012
H86	H	1.020496	-0.252895	-0.000009
H87	H	0.968297	-0.175293	0.073406
H88	H	1.055485	-0.034764	0.000002
H89	H	1.119099	-0.311445	-0.000001
H90	H	1.342867	0.126235	0.293423
N91	N	1.415331	0.073513	0.463909
H92	H	1.453434	0.045793	0.522301
H93	H	1.375740	0.033233	0.412195
H94	H	1.381767	0.097934	0.706553
