data_functionalizedCrystal
_audit_creation_method	'MofGen! by Chris Wilmer'
_symmetry_space_group_name_H-M	'P1'
_symmetry_Int_Tables_number	1
_symmetry_cell_setting	triclinic
loop_
_symmetry_equiv_pos_as_xyz
  x,y,z
_cell_length_a	14.044191
_cell_length_b	13.101039
_cell_length_c	16.109301
_cell_angle_alpha	93.366104
_cell_angle_beta	91.673371
_cell_angle_gamma	93.669281
loop_
_atom_site_label
_atom_site_type_symbol
_atom_site_fract_x
_atom_site_fract_y
_atom_site_fract_z
O1	O	1.252419	-0.085172	-0.204657
O2	O	1.585752	0.248161	0.128676
O3	O	1.919085	0.581495	0.462009
O4	O	0.976450	-0.085185	-0.197419
O5	O	1.309784	0.248149	0.135914
O6	O	1.643117	0.581482	0.469248
O7	O	1.122016	-0.085168	-0.080571
O8	O	1.455350	0.248166	0.252762
O9	O	1.788683	0.581499	0.586096
O10	O	1.106853	-0.085189	-0.321505
O11	O	1.440186	0.248144	0.011828
O12	O	1.773519	0.581478	0.345161
O13	O	1.132465	0.085264	-0.072176
O14	O	1.465798	0.418597	0.261157
O15	O	1.799132	0.751930	0.594490
O16	O	0.986899	0.085246	-0.189024
O17	O	1.320232	0.418580	0.144309
O18	O	1.653566	0.751913	0.477642
O19	O	1.262867	0.085259	-0.196263
O20	O	1.596201	0.418592	0.137071
O21	O	1.929534	0.751926	0.470404
Zn22	Zn	1.126542	0.112312	-0.191311
Zn23	Zn	1.459875	0.445646	0.142023
Zn24	Zn	1.793209	0.778979	0.475356
Zn25	Zn	1.112775	-0.112238	-0.202371
Zn26	Zn	1.446109	0.221095	0.130962
Zn27	Zn	1.779442	0.554429	0.464296
O28	O	1.117301	0.085242	-0.313111
O29	O	1.450635	0.418575	0.020222
O30	O	1.783968	0.751909	0.353556
C31	C	0.946361	0.000029	-0.190055
C32	C	1.279694	0.333363	0.143278
C33	C	1.613028	0.666696	0.476612
C34	C	0.841138	0.000025	-0.180609
C35	C	1.174471	0.333358	0.152724
C36	C	1.507804	0.666692	0.486058
C37	C	0.590836	0.000031	-0.230333
C38	C	0.924170	0.333364	0.103000
C39	C	1.257503	0.666697	0.436333
C40	C	0.648486	0.000035	-0.163352
C41	C	0.981820	0.333368	0.169981
C42	C	1.315153	0.666702	0.503314
C43	C	0.755687	0.000029	-0.172956
C44	C	1.089021	0.333363	0.160377
C45	C	1.422354	0.666696	0.493710
C46	C	0.483625	0.000036	-0.220731
C47	C	0.816959	0.333370	0.112603
C48	C	1.150292	0.666703	0.445936
N49	N	1.103381	-0.265488	-0.209913
N50	N	1.436714	0.067846	0.123420
N51	N	1.770047	0.401179	0.456753
C52	C	1.090590	-0.474532	-0.220174
C53	C	1.423924	-0.141198	0.113159
C54	C	1.757257	0.192135	0.446492
C55	C	1.148732	-0.525400	-0.173504
C56	C	1.482065	-0.192067	0.159829
C57	C	1.815398	0.141266	0.493163
C58	C	1.141615	-0.641720	-0.179213
C59	C	1.474948	-0.308386	0.154120
C60	C	1.808282	0.024947	0.487453
C61	C	1.097706	-0.358202	-0.214466
C62	C	1.431039	-0.024868	0.118867
C63	C	1.764372	0.308465	0.452201
C64	C	1.292956	0.000043	-0.203627
C65	C	1.626290	0.333376	0.129706
C66	C	1.959623	0.666710	0.463040
C67	C	1.398179	0.000041	-0.213073
C68	C	1.731513	0.333374	0.120260
C69	C	2.064846	0.666707	0.453594
C70	C	1.126626	0.000049	-0.045353
C71	C	1.459960	0.333382	0.287980
C72	C	1.793293	0.666715	0.621314
C73	C	1.124785	0.000050	0.047079
C74	C	1.458118	0.333383	0.380413
C75	C	1.791452	0.666717	0.713746
N76	N	1.135944	0.265562	-0.183762
N77	N	1.469278	0.598895	0.149571
N78	N	1.802611	0.932229	0.482904
C79	C	1.112691	0.000024	-0.348329
C80	C	1.446024	0.333357	-0.014996
C81	C	1.779358	0.666690	0.318338
C82	C	1.114532	0.000016	-0.440762
C83	C	1.447865	0.333349	-0.107428
C84	C	1.781199	0.666682	0.225905
C85	C	1.206878	0.000037	0.263242
C86	C	1.540211	0.333371	0.596575
C87	C	1.873545	0.666704	0.929908
C88	C	1.205140	0.000029	0.350091
C89	C	1.538473	0.333362	0.683424
C90	C	1.871807	0.666696	1.016758
C91	C	1.032432	0.000025	0.343070
C92	C	1.365766	0.333358	0.676403
C93	C	1.699099	0.666692	1.009736
C94	C	1.034171	0.000026	0.256222
C95	C	1.367504	0.333359	0.589555
C96	C	1.700837	0.666693	0.922888
C97	C	1.121397	0.000038	0.216310
C98	C	1.454730	0.333371	0.549644
C99	C	1.788064	0.666704	0.882977
C100	C	1.117920	0.000028	0.390008
C101	C	1.451254	0.333361	0.723341
C102	C	1.784587	0.666695	1.056674
C103	C	1.116035	0.000019	0.484173
C104	C	1.449368	0.333352	0.817507
C105	C	1.782702	0.666685	1.150840
C106	C	1.123282	0.000045	0.122138
C107	C	1.456616	0.333378	0.455472
C108	C	1.789949	0.666712	0.788805
H109	H	0.617327	-0.000031	-0.098799
H110	H	0.950660	0.333302	0.234534
H111	H	1.283993	0.666635	0.567868
O112	O	0.941964	0.000033	0.205602
O113	O	1.275297	0.333367	0.538935
O114	O	1.608631	0.666700	0.872268
H115	H	0.934359	-0.069436	0.162445
H116	H	1.267692	0.263897	0.495778
H117	H	1.601025	0.597231	0.829112
O118	O	1.221751	-0.467375	-0.114901
O119	O	1.555085	-0.134042	0.218432
O120	O	1.888418	0.199291	0.551766
H121	H	1.263252	-0.522586	-0.081598
H122	H	1.596585	-0.189252	0.251736
H123	H	1.929918	0.144081	0.585069
O124	O	1.300951	0.000029	0.220189
O125	O	1.634284	0.333362	0.553522
O126	O	1.967618	0.666696	0.886855
H127	H	1.360098	0.000014	0.267417
H128	H	1.693431	0.333347	0.600750
H129	H	2.026764	0.666681	0.934084
O130	O	1.297337	0.000042	0.400714
O131	O	1.630671	0.333375	0.734047
O132	O	1.964004	0.666708	1.067380
H133	H	1.358279	0.000060	0.358367
H134	H	1.691613	0.333393	0.691701
H135	H	2.024946	0.666727	1.025034
H136	H	0.621989	0.000022	-0.294885
H137	H	0.955323	0.333355	0.038448
H138	H	1.288656	0.666688	0.371781
H139	H	1.035472	-0.518335	-0.264414
H140	H	1.368805	-0.185002	0.068919
H141	H	1.702138	0.148331	0.402252
O142	O	0.938356	0.000035	0.386117
O143	O	1.271689	0.333368	0.719450
O144	O	1.605022	0.666701	1.052783
H145	H	0.951507	0.000049	0.454393
H146	H	1.284840	0.333382	0.787727
H147	H	1.618173	0.666715	1.121060
