data_functionalizedCrystal
_audit_creation_method	'MofGen! by Chris Wilmer'
_symmetry_space_group_name_H-M	'P1'
_symmetry_Int_Tables_number	1
_symmetry_cell_setting	triclinic
loop_
_symmetry_equiv_pos_as_xyz
  x,y,z
_cell_length_a	19.805407
_cell_length_b	16.959453
_cell_length_c	19.805399
_cell_angle_alpha	89.973285
_cell_angle_beta	89.975799
_cell_angle_gamma	90.019234
loop_
_atom_site_label
_atom_site_type_symbol
_atom_site_fract_x
_atom_site_fract_y
_atom_site_fract_z
Zn1	Zn	1.034766	-0.314716	-0.382807
Zn2	Zn	1.534766	0.185284	0.117193
Zn3	Zn	1.034693	-0.446898	-0.269621
Zn4	Zn	1.534693	0.053102	0.230379
Zn5	Zn	0.921581	-0.314736	-0.269623
Zn6	Zn	1.421581	0.185264	0.230377
Zn7	Zn	0.921557	-0.446854	-0.382758
Zn8	Zn	1.421557	0.053146	0.117242
O9	O	0.978149	-0.380801	-0.326202
O10	O	1.478149	0.119199	0.173798
O11	O	1.129473	-0.332260	-0.367812
O12	O	1.629473	0.167740	0.132188
O13	O	1.019668	-0.429393	-0.174904
O14	O	1.519668	0.070607	0.325096
O15	O	0.936635	-0.204122	-0.284658
O16	O	1.436635	0.295878	0.215342
O17	O	1.129420	-0.429374	-0.284655
O18	O	1.629420	0.070626	0.215345
O19	O	1.019792	-0.204107	-0.367814
O20	O	1.519792	0.295893	0.132186
O21	O	0.936565	-0.332294	-0.174906
O22	O	1.436565	0.167706	0.325094
O23	O	0.826861	-0.332252	-0.284611
O24	O	1.326861	0.167748	0.215389
O25	O	0.936595	-0.429299	-0.477481
O26	O	1.436595	0.070701	0.022519
O27	O	0.826843	-0.429319	-0.367731
O28	O	1.326843	0.070681	0.132269
O29	O	1.019769	-0.332217	-0.477517
O30	O	1.519769	0.167783	0.022483
O31	O	1.019645	-0.557503	-0.284607
O32	O	1.519645	-0.057503	0.215393
O33	O	0.936524	-0.557471	-0.367729
O34	O	1.436524	-0.057471	0.132271
C35	C	0.802293	-0.380783	-0.326166
C36	C	1.302293	0.119217	0.173834
C37	C	0.727061	-0.380795	-0.326167
C38	C	1.227061	0.119205	0.173833
C39	C	0.265279	-0.431439	-0.369458
C40	C	0.765279	0.068561	0.130542
C41	C	0.335967	-0.431437	-0.369444
C42	C	0.835967	0.068563	0.130556
C43	C	0.371299	-0.380820	-0.326229
C44	C	0.871299	0.119180	0.173771
C45	C	0.335940	-0.330206	-0.283020
C46	C	0.835940	0.169794	0.216980
C47	C	0.265252	-0.330212	-0.283032
C48	C	0.765252	0.169788	0.216968
C49	C	0.621013	-0.330182	-0.282972
C50	C	1.121013	0.169818	0.217028
C51	C	0.691705	-0.330179	-0.282966
C52	C	1.191705	0.169821	0.217034
C53	C	0.691728	-0.431407	-0.369385
C54	C	1.191728	0.068593	0.130615
C55	C	0.621041	-0.431413	-0.369396
C56	C	1.121041	0.068587	0.130604
C57	C	0.585687	-0.380803	-0.326186
C58	C	1.085687	0.119197	0.173814
C59	C	0.509038	-0.380806	-0.326201
C60	C	1.009038	0.119194	0.173799
C61	C	0.447947	-0.380812	-0.326217
C62	C	0.947947	0.119188	0.173783
C63	C	0.978093	-0.586167	-0.326177
C64	C	1.478093	-0.086167	0.173823
C65	C	0.978131	-0.674024	-0.326190
C66	C	1.478131	-0.174024	0.173810
C67	C	1.021504	-1.045433	-0.369583
C68	C	1.521504	-0.545433	0.130417
C69	C	0.934983	-1.045566	-0.282922
C70	C	1.434983	-0.545566	0.217078
C71	C	0.934958	-0.963020	-0.282906
C72	C	1.434958	-0.463020	0.217094
C73	C	0.978206	-0.921677	-0.326231
C74	C	1.478206	-0.421677	0.173769
C75	C	1.021479	-0.962880	-0.369571
C76	C	1.521479	-0.462880	0.130429
C77	C	0.891681	-0.921811	-0.239572
C78	C	1.391681	-0.421811	0.260428
C79	C	0.891653	-0.839260	-0.239555
C80	C	1.391653	-0.339260	0.260445
C81	C	0.934905	-0.797915	-0.282877
C82	C	1.434905	-0.297915	0.217123
C83	C	0.978181	-0.839123	-0.326218
C84	C	1.478181	-0.339123	0.173782
C85	C	1.021429	-0.797780	-0.369542
C86	C	1.521429	-0.297780	0.130458
C87	C	1.064708	-0.838987	-0.412881
C88	C	1.564708	-0.338987	0.087119
C89	C	1.064731	-0.921535	-0.412892
C90	C	1.564731	-0.421535	0.087108
C91	C	0.934882	-0.715367	-0.282865
C92	C	1.434882	-0.215367	0.217135
C93	C	1.021404	-0.715227	-0.369530
C94	C	1.521404	-0.215227	0.130470
C95	C	1.154692	-0.380819	-0.326239
C96	C	1.654692	0.119181	0.173761
C97	C	1.229924	-0.380827	-0.326255
C98	C	1.729924	0.119173	0.173745
C99	C	0.978187	-0.380751	-0.502745
C100	C	1.478187	0.119249	-0.002745
C101	C	0.978203	-0.380730	-0.577977
C102	C	1.478203	0.119270	-0.077977
C103	C	0.978224	-0.174633	-0.326242
C104	C	1.478224	0.325367	0.173758
C105	C	0.978256	-0.086776	-0.326259
C106	C	1.478256	0.413224	0.173741
C107	C	1.021513	-0.330177	-0.613341
C108	C	1.521513	0.169823	-0.113341
C109	C	1.021520	-0.330154	-0.684030
C110	C	1.521520	0.169846	-0.184030
C111	C	0.978220	-0.380689	-0.719353
C112	C	1.478220	0.119311	-0.219353
C113	C	0.934906	-0.431244	-0.683984
C114	C	1.434906	0.068756	-0.183984
C115	C	0.934896	-0.431262	-0.613297
C116	C	1.434896	0.068738	-0.113297
C117	C	0.934944	-0.431170	-0.969057
C118	C	1.434944	0.068830	-0.469057
C119	C	0.934958	-0.431150	-1.039749
C120	C	1.434958	0.068850	-0.539749
C121	C	1.021568	-0.330062	-1.039790
C122	C	1.521568	0.169938	-0.539790
C123	C	1.021558	-0.330080	-0.969103
C124	C	1.521558	0.169920	-0.469103
C125	C	0.978241	-0.380632	-0.933740
C126	C	1.478241	0.119368	-0.433740
C127	C	0.978234	-0.380656	-0.857092
C128	C	1.478234	0.119344	-0.357092
C129	C	0.978231	-0.380670	-0.796000
C130	C	1.478231	0.119330	-0.296000
C131	C	0.978150	-0.380794	-0.150346
C132	C	1.478150	0.119206	0.349654
C133	C	0.978265	-0.380592	-0.075115
C134	C	1.478265	0.119408	0.424885
H135	H	0.592276	-0.472628	-0.404589
H136	H	1.092276	0.027372	0.095411
H137	H	0.720521	-0.472619	-0.404568
H138	H	1.220521	0.027381	0.095432
O139	O	0.729818	-0.275596	-0.236341
O140	O	1.229818	0.224404	0.263659
H141	H	0.693359	-0.240414	-0.206287
H142	H	1.193359	0.259586	0.293713
H143	H	0.899770	-1.079232	-0.247652
H144	H	1.399770	-0.579232	0.252348
O145	O	1.111359	-0.794394	-0.459605
O146	O	1.611359	-0.294394	0.040395
H147	H	1.081034	-0.756780	-0.494003
H148	H	1.581034	-0.256780	0.005997
H149	H	1.056789	-0.288991	-0.712820
H150	H	1.556789	0.211009	-0.212820
H151	H	0.592236	-0.288975	-0.247785
H152	H	1.092236	0.211025	0.252215
O153	O	0.845050	-0.966408	-0.192839
O154	O	1.345050	-0.466408	0.307161
H155	H	0.810615	-1.004038	-0.223099
H156	H	1.310615	-0.504038	0.276901
O157	O	0.888213	-0.670920	-0.236125
O158	O	1.388213	-0.170920	0.263875
H159	H	0.858146	-0.713536	-0.206000
H160	H	1.358146	-0.213536	0.294000
H161	H	0.236467	-0.288997	-0.247852
H162	H	0.736467	0.211003	0.252148
O163	O	0.374043	-0.275608	-0.236408
O164	O	0.874043	0.224392	0.263592
H165	H	0.429136	-0.284099	-0.243663
H166	H	0.929136	0.215901	0.256337
O167	O	0.227199	-0.486090	-0.416044
O168	O	0.727199	0.013910	0.083956
H169	H	0.240800	-0.472659	-0.469192
H170	H	0.740800	0.027341	0.030808
O171	O	0.888190	-0.485670	-0.930941
O172	O	1.388190	0.014330	-0.430941
H173	H	0.899754	-0.547712	-0.944489
H174	H	1.399754	-0.047712	-0.444489
H175	H	1.056624	-0.681570	-0.404807
H176	H	1.556624	-0.181570	0.095193
O177	O	1.111397	-0.965976	-0.459645
O178	O	1.611397	-0.465976	0.040355
H179	H	1.104139	-1.030323	-0.452382
H180	H	1.604139	-0.530323	0.047618
O181	O	0.888197	-0.485747	-0.722077
O182	O	1.388197	0.014253	-0.222077
H183	H	0.895483	-0.477246	-0.777172
H184	H	1.395483	0.022754	-0.277172
O185	O	1.068177	-1.089868	-0.416333
O186	O	1.568177	-0.589868	0.083667
H187	H	1.060928	-1.154216	-0.409070
H188	H	1.560928	-0.654216	0.090930
H189	H	1.056775	-0.289028	-0.584586
H190	H	1.556775	0.210972	-0.084586
O191	O	0.374103	-0.486018	-0.416048
O192	O	0.874103	0.013982	0.083952
H193	H	0.337659	-0.521207	-0.446108
H194	H	0.837659	-0.021207	0.053892
O195	O	0.844988	-0.794816	-0.192804
O196	O	1.344988	-0.294816	0.307196
H197	H	0.814926	-0.837434	-0.162675
H198	H	1.314926	-0.337434	0.337325
O199	O	1.068260	-0.275577	-0.931002
O200	O	1.568260	0.224423	-0.431002
H201	H	1.098375	-0.240415	-0.967470
H202	H	1.598375	0.259585	-0.467470
H203	H	1.056836	-0.288897	-1.068591
H204	H	1.556836	0.211103	-0.568591
H205	H	0.899695	-0.472303	-1.068508
H206	H	1.399695	0.027697	-0.568508
O207	O	0.888174	-0.485776	-0.575149
O208	O	1.388174	0.014224	-0.075149
H209	H	0.858067	-0.520914	-0.611585
H210	H	1.358067	-0.020914	-0.111585
