data_functionalizedCrystal
_audit_creation_method	'MofGen! by Chris Wilmer'
_symmetry_space_group_name_H-M	'P1'
_symmetry_Int_Tables_number	1
_symmetry_cell_setting	triclinic
loop_
_symmetry_equiv_pos_as_xyz
  x,y,z
_cell_length_a	10.685980
_cell_length_b	16.120484
_cell_length_c	10.686551
_cell_angle_alpha	88.707809
_cell_angle_beta	81.591741
_cell_angle_gamma	97.500660
loop_
_atom_site_label
_atom_site_type_symbol
_atom_site_fract_x
_atom_site_fract_y
_atom_site_fract_z
Zn1	Zn	1.982414	-0.186867	-0.879991
Zn2	Zn	1.955183	-0.337902	-0.678466
Zn3	Zn	1.752181	-0.210071	-0.653105
Zn4	Zn	1.759312	-0.337821	-0.874371
O5	O	1.862272	-0.268165	-0.771483
O6	O	2.157128	-0.197225	-0.866224
O7	O	1.913873	-0.330690	-0.498163
O8	O	1.791134	-0.090321	-0.674940
O9	O	2.137121	-0.308190	-0.718165
O10	O	1.960286	-0.073273	-0.841632
O11	O	1.764728	-0.236773	-0.479530
O12	O	1.574801	-0.236695	-0.669491
O13	O	1.803288	-0.308052	-1.052056
O14	O	1.580040	-0.330552	-0.832054
O15	O	1.967201	-0.197147	-1.056184
O16	O	1.920788	-0.454563	-0.712715
O17	O	1.776883	-0.454504	-0.856646
C18	C	1.531182	-0.286133	-0.747411
C19	C	1.389542	-0.293838	-0.737144
C20	C	1.846691	-0.484782	-0.786853
C21	C	1.840145	-0.577443	-0.793479
C22	C	1.828203	-0.747094	-0.805602
C23	C	1.896572	-0.788383	-0.737402
C24	C	1.889927	-0.882783	-0.744147
C25	C	1.834846	-0.652686	-0.798858
C26	C	2.194655	-0.250128	-0.795650
C27	C	2.336297	-0.242442	-0.805949
C28	C	1.889077	-0.250002	-1.101281
C29	C	1.900500	-0.242262	-1.241821
C30	C	1.877952	-0.050700	-0.756084
C31	C	1.884634	0.041971	-0.749522
C32	C	1.835649	-0.286194	-0.442969
C33	C	1.824490	-0.293686	-0.302431
H34	H	1.326760	-0.343739	-0.670374
H35	H	1.764686	-0.782638	-0.869051
H36	H	1.960092	-0.752836	-0.673946
Br37	Br	1.440922	-0.159264	-0.917220
Br38	Br	1.701465	-0.376946	-1.209722
Br39	Br	2.023551	-0.159011	-1.334537
