data_functionalizedCrystal
_audit_creation_method	'MofGen! by Chris Wilmer'
_symmetry_space_group_name_H-M	'P1'
_symmetry_Int_Tables_number	1
_symmetry_cell_setting	triclinic
loop_
_symmetry_equiv_pos_as_xyz
  x,y,z
_cell_length_a	14.044220
_cell_length_b	11.026623
_cell_length_c	10.065875
_cell_angle_alpha	100.697799
_cell_angle_beta	99.592716
_cell_angle_gamma	79.112210
loop_
_atom_site_label
_atom_site_type_symbol
_atom_site_fract_x
_atom_site_fract_y
_atom_site_fract_z
O1	O	0.393292	-1.670494	-0.113518
O2	O	0.643292	-1.420494	0.136482
O3	O	0.893292	-1.170494	0.386482
O4	O	1.143292	-0.920494	0.636482
O5	O	0.347242	-1.312203	-0.113517
O6	O	0.597242	-1.062203	0.136483
O7	O	0.847242	-0.812203	0.386483
O8	O	1.097242	-0.562203	0.636483
O9	O	0.231366	-1.485969	-0.113504
O10	O	0.481366	-1.235969	0.136496
O11	O	0.731366	-0.985969	0.386496
O12	O	0.981366	-0.735969	0.636496
O13	O	0.509168	-1.496728	-0.113531
O14	O	0.759168	-1.246728	0.136469
O15	O	1.009168	-0.996728	0.386469
O16	O	1.259168	-0.746728	0.636469
O17	O	0.253575	-1.452846	0.113482
O18	O	0.503575	-1.202846	0.363482
O19	O	0.753575	-0.952846	0.613482
O20	O	1.003575	-0.702846	0.863482
O21	O	0.369451	-1.279081	0.113470
O22	O	0.619451	-1.029081	0.363470
O23	O	0.869451	-0.779081	0.613470
O24	O	1.119451	-0.529081	0.863470
O25	O	0.415501	-1.637372	0.113468
O26	O	0.665501	-1.387372	0.363468
O27	O	0.915501	-1.137372	0.613468
O28	O	1.165501	-0.887372	0.863468
Zn29	Zn	0.396003	-1.452967	0.149508
Zn30	Zn	0.646003	-1.202967	0.399508
Zn31	Zn	0.896003	-0.952967	0.649508
Zn32	Zn	1.146003	-0.702967	0.899508
Zn33	Zn	0.366741	-1.496607	-0.149556
Zn34	Zn	0.616741	-1.246607	0.100444
Zn35	Zn	0.866741	-0.996607	0.350444
Zn36	Zn	1.116741	-0.746607	0.600444
O37	O	0.531377	-1.463606	0.113455
O38	O	0.781377	-1.213606	0.363455
O39	O	1.031377	-0.963606	0.613455
O40	O	1.281377	-0.713606	0.863455
C41	C	0.349851	-1.249511	-0.000023
C42	C	0.599851	-0.999511	0.249977
C43	C	0.849851	-0.749511	0.499977
C44	C	1.099851	-0.499511	0.749977
C45	C	0.324527	-1.112056	-0.000022
C46	C	0.574527	-0.862056	0.249978
C47	C	0.824527	-0.612056	0.499978
C48	C	1.074527	-0.362056	0.749978
C49	C	0.206353	-1.464699	-0.000010
C50	C	0.456353	-1.214699	0.249990
C51	C	0.706353	-0.964699	0.499990
C52	C	0.956353	-0.714699	0.749990
C53	C	0.098731	-1.450655	-0.000008
C54	C	0.348731	-1.200655	0.249992
C55	C	0.598731	-0.950655	0.499992
C56	C	0.848731	-0.700655	0.749992
C57	C	0.394450	-1.045821	-0.000030
C58	C	0.644450	-0.795821	0.249970
C59	C	0.894450	-0.545821	0.499970
C60	C	1.144450	-0.295821	0.749970
C61	C	0.368277	-0.903753	-0.000029
C62	C	0.618277	-0.653753	0.249971
C63	C	0.868277	-0.403753	0.499971
C64	C	1.118277	-0.153753	0.749971
C65	C	-0.098313	-1.424983	-0.000028
C66	C	0.151687	-1.174983	0.249972
C67	C	0.401687	-0.924983	0.499972
C68	C	0.651687	-0.674983	0.749972
C69	C	-0.138951	-1.524588	-0.000032
C70	C	0.111049	-1.274588	0.249968
C71	C	0.361049	-1.024588	0.499968
C72	C	0.611049	-0.774588	0.749968
C73	C	-0.248593	-1.510304	-0.000043
C74	C	0.001407	-1.260304	0.249957
C75	C	0.251407	-1.010304	0.499957
C76	C	0.501407	-0.760304	0.749957
C77	C	0.011338	-1.439265	-0.000017
C78	C	0.261338	-1.189265	0.249983
C79	C	0.511338	-0.939265	0.499983
C80	C	0.761338	-0.689265	0.749983
C81	C	0.556390	-1.484876	-0.000041
C82	C	0.806390	-1.234876	0.249959
C83	C	1.056390	-0.984876	0.499959
C84	C	1.306390	-0.734876	0.749959
C85	C	0.664011	-1.498921	-0.000052
C86	C	0.914011	-1.248921	0.249948
C87	C	1.164011	-0.998921	0.499948
C88	C	1.414011	-0.748921	0.749948
C89	C	0.412890	-0.700064	-0.000028
C90	C	0.662890	-0.450064	0.249972
C91	C	0.912890	-0.200064	0.499972
C92	C	1.162890	0.049936	0.749972
C93	C	0.438211	-0.837520	-0.000036
C94	C	0.688211	-0.587520	0.249964
C95	C	0.938211	-0.337520	0.499964
C96	C	1.188211	-0.087520	0.749964
N97	N	0.415974	-1.423193	0.353611
N98	N	0.665974	-1.173193	0.603611
N99	N	0.915974	-0.923193	0.853611
N100	N	1.165974	-0.673193	1.103611
N101	N	0.346763	-1.526391	-0.353660
N102	N	0.596763	-1.276391	-0.103660
N103	N	0.846763	-1.026391	0.146340
N104	N	1.096763	-0.776391	0.396340
C105	C	0.373682	-1.486240	0.421395
C106	C	0.623682	-1.236240	0.671395
C107	C	0.873682	-0.986240	0.921395
C108	C	1.123682	-0.736240	1.171395
C109	C	0.389062	-1.463335	0.578560
C110	C	0.639062	-1.213335	0.828560
C111	C	0.889062	-0.963335	1.078560
C112	C	1.139062	-0.713335	1.328560
H113	H	0.473691	-1.094290	-0.000030
H114	H	0.723691	-0.844290	0.249970
H115	H	0.973691	-0.594290	0.499970
H116	H	1.223691	-0.344290	0.749970
H117	H	0.299162	-1.597325	0.588025
H118	H	0.549162	-1.347325	0.838025
H119	H	0.799162	-1.097325	1.088025
H120	H	1.049162	-0.847325	1.338025
H121	H	0.517458	-0.885982	-0.000035
H122	H	0.767458	-0.635982	0.249965
H123	H	1.017458	-0.385982	0.499965
H124	H	1.267458	-0.135982	0.749965
H125	H	-0.145863	-1.328988	-0.000031
H126	H	0.104137	-1.078988	0.249969
H127	H	0.354137	-0.828988	0.499969
H128	H	0.604137	-0.578988	0.749969
H129	H	0.326084	-1.557169	0.363076
H130	H	0.576084	-1.307169	0.613076
H131	H	0.826084	-1.057169	0.863076
H132	H	1.076084	-0.807169	1.113076
H133	H	0.436654	-1.392391	0.636876
H134	H	0.686654	-1.142391	0.886876
H135	H	0.936654	-0.892391	1.136876
H136	H	1.186654	-0.642391	1.386876
H137	H	0.463564	-1.352254	0.411932
H138	H	0.713564	-1.102254	0.661932
H139	H	0.963564	-0.852254	0.911932
H140	H	1.213564	-0.602254	1.161932
H141	H	0.289029	-0.855293	-0.000056
H142	H	0.539029	-0.605293	0.249944
H143	H	0.789029	-0.355293	0.499944
H144	H	1.039029	-0.105293	0.749944
N145	N	0.219562	-1.047866	0.000005
N146	N	0.469562	-0.797866	0.250005
N147	N	0.719562	-0.547866	0.500005
N148	N	0.969562	-0.297866	0.750005
H149	H	0.215744	-0.955476	0.000007
H150	H	0.465744	-0.705476	0.250007
H151	H	0.715744	-0.455476	0.500007
H152	H	0.965744	-0.205476	0.750007
H153	H	0.178130	-1.084930	-0.084137
H154	H	0.428130	-0.834930	0.165863
H155	H	0.678130	-0.584930	0.415863
H156	H	0.928130	-0.334930	0.665863
H157	H	-0.091407	-1.620605	-0.000124
H158	H	0.158593	-1.370605	0.249876
H159	H	0.408593	-1.120605	0.499876
H160	H	0.658593	-0.870605	0.749876
