data_functionalizedCrystal
_audit_creation_method	'MofGen! by Chris Wilmer'
_symmetry_space_group_name_H-M	'P1'
_symmetry_Int_Tables_number	1
_symmetry_cell_setting	triclinic
loop_
_symmetry_equiv_pos_as_xyz
  x,y,z
_cell_length_a	14.044191
_cell_length_b	14.044220
_cell_length_c	7.540329
_cell_angle_alpha	89.995368
_cell_angle_beta	89.999427
_cell_angle_gamma	93.190327
loop_
_atom_site_label
_atom_site_type_symbol
_atom_site_fract_x
_atom_site_fract_y
_atom_site_fract_z
O1	O	1.277170	0.230198	-0.147405
O2	O	1.777170	0.730198	0.352595
O3	O	1.000498	0.221886	-0.147427
O4	O	1.500498	0.721886	0.352573
O5	O	1.134681	0.087706	-0.147398
O6	O	1.634681	0.587706	0.352602
O7	O	1.142987	0.364378	-0.147433
O8	O	1.642987	0.864378	0.352567
O9	O	1.134672	0.087704	0.147567
O10	O	1.634672	0.587704	0.647567
O11	O	1.000489	0.221883	0.147538
O12	O	1.500489	0.721883	0.647538
O13	O	1.277162	0.230196	0.147560
O14	O	1.777162	0.730196	0.647560
Cu15	Cu	1.138824	0.226039	0.174482
Cu16	Cu	1.638824	0.726039	0.674482
Cu17	Cu	1.138835	0.226042	-0.174348
Cu18	Cu	1.638835	0.726042	0.325652
O19	O	1.142978	0.364375	0.147532
O20	O	1.642978	0.864375	0.647532
C21	C	0.964872	0.218248	0.000053
C22	C	1.464872	0.718248	0.500053
C23	C	0.858728	0.207401	0.000045
C24	C	1.358728	0.707401	0.500045
C25	C	0.613270	0.264501	0.000056
C26	C	1.113270	0.764501	0.500056
C27	C	0.664395	0.187585	0.000062
C28	C	1.164395	0.687585	0.500062
C29	C	0.772532	0.198613	0.000053
C30	C	1.272532	0.698613	0.500053
C31	C	0.505123	0.253474	0.000065
C32	C	1.005123	0.753474	0.500065
C33	C	1.131041	0.052083	0.000085
C34	C	1.631041	0.552083	0.500085
C35	C	1.120197	-0.054060	0.000086
C36	C	1.620197	0.445940	0.500086
C37	C	1.312788	0.233834	0.000077
C38	C	1.812788	0.733834	0.500077
C39	C	1.418931	0.244681	0.000073
C40	C	1.918931	0.744681	0.500073
C41	C	1.100370	-0.248398	0.000059
C42	C	1.600370	0.251602	0.500059
C43	C	1.177285	-0.299526	0.000059
C44	C	1.677285	0.200474	0.500059
C45	C	1.166253	-0.407663	0.000044
C46	C	1.666253	0.092337	0.500044
C47	C	1.111400	-0.140252	0.000074
C48	C	1.611400	0.359748	0.500074
C49	C	1.146618	0.399998	0.000045
C50	C	1.646618	0.899998	0.500045
C51	C	1.157463	0.506142	0.000032
C52	C	1.657463	1.006142	0.500032
N53	N	1.138824	0.226037	0.419831
N54	N	1.638824	0.726037	0.919831
N55	N	1.138842	0.226037	-0.419697
N56	N	1.638842	0.726037	0.080303
H57	H	0.650711	0.338628	0.000041
H58	H	1.150711	0.838628	0.500041
H59	H	1.251419	-0.262085	-0.000054
H60	H	1.751419	0.237915	0.499946
C61	C	1.000227	-0.298967	0.000048
C62	C	1.500227	0.201033	0.500048
H63	H	0.953415	-0.252670	0.000039
H64	H	1.453415	0.247330	0.500039
H65	H	0.992737	-0.337723	0.102901
H66	H	1.492737	0.162277	0.602901
H67	H	0.992742	-0.337703	-0.102833
H68	H	1.492742	0.162297	0.397167
C69	C	0.613819	0.087438	0.000046
C70	C	1.113819	0.587438	0.500046
H71	H	0.546720	0.093065	0.000029
H72	H	1.046720	0.593065	0.500029
H73	H	0.631758	0.053721	0.102897
H74	H	1.131758	0.553721	0.602897
H75	H	0.631765	0.053751	-0.102838
H76	H	1.131765	0.553751	0.397162
