data_functionalizedCrystal
_audit_creation_method	'MofGen! by Chris Wilmer'
_symmetry_space_group_name_H-M	'P1'
_symmetry_Int_Tables_number	1
_symmetry_cell_setting	triclinic
loop_
_symmetry_equiv_pos_as_xyz
  x,y,z
_cell_length_a	14.044220
_cell_length_b	11.026607
_cell_length_c	9.482900
_cell_angle_alpha	101.363848
_cell_angle_beta	100.188801
_cell_angle_gamma	79.112553
loop_
_atom_site_label
_atom_site_type_symbol
_atom_site_fract_x
_atom_site_fract_y
_atom_site_fract_z
O1	O	0.392560	-1.671574	-0.120918
O2	O	0.346512	-1.313283	-0.120917
O3	O	0.230635	-1.487049	-0.120903
O4	O	0.508437	-1.497809	-0.120932
O5	O	0.254293	-1.451766	0.120886
O6	O	0.370170	-1.278001	0.120872
O7	O	0.416218	-1.636292	0.120871
Cu8	Cu	0.395354	-1.453925	0.142949
Cu9	Cu	0.367376	-1.495650	-0.142995
O10	O	0.532095	-1.462526	0.120857
C11	C	0.349846	-1.249512	-0.000022
C12	C	0.324521	-1.112056	-0.000022
C13	C	0.206346	-1.464699	-0.000008
C14	C	0.098724	-1.450655	-0.000006
C15	C	0.412884	-1.700064	-0.000027
C16	C	0.438207	-1.837521	-0.000037
C17	C	-0.098320	-1.424983	-0.000027
C18	C	-0.138958	-1.524588	-0.000032
C19	C	-0.248600	-1.510304	-0.000043
C20	C	0.011332	-1.439266	-0.000015
C21	C	0.556383	-1.484876	-0.000041
C22	C	0.664004	-1.498922	-0.000053
N23	N	0.415033	-1.424586	0.344067
C24	C	0.394445	-1.045821	-0.000030
C25	C	0.368273	-0.903753	-0.000029
N26	N	0.347690	-1.524998	-0.344113
C27	C	0.373174	-1.486988	0.416271
C28	C	0.389556	-1.462587	0.583687
H29	H	-0.091415	-1.620606	-0.000129
H30	H	-0.145870	-1.328988	-0.000030
H31	H	0.517453	-0.885983	-0.000036
C32	C	0.501493	-1.111288	-0.000043
H33	H	0.505039	-1.198187	-0.000052
H34	H	0.540992	-1.075735	0.084268
H35	H	0.524484	-1.100346	-0.084377
C36	C	0.261219	-0.838293	-0.000026
H37	H	0.257671	-0.751397	-0.000038
H38	H	0.238217	-0.849238	0.084290
H39	H	0.221727	-0.873849	-0.084355
C40	C	0.454360	-1.366008	0.667593
H41	H	0.456876	-1.362284	0.769108
H42	H	0.427513	-1.285920	0.642742
H43	H	0.518681	-1.390258	0.642711
C44	C	0.282915	-1.621612	0.571984
H45	H	0.280418	-1.625359	0.470469
H46	H	0.218593	-1.597409	0.596850
H47	H	0.309798	-1.701692	0.596854
C48	C	0.217473	-1.046591	-0.000019
H49	H	0.213924	-0.959695	-0.000031
H50	H	0.194470	-1.057536	0.084298
H51	H	0.177981	-1.082147	-0.084348
H52	H	0.325203	-1.558472	0.354149
C53	C	0.479834	-1.328012	0.427979
H54	H	0.482350	-1.324288	0.529493
H55	H	0.452988	-1.247923	0.403127
H56	H	0.544156	-1.352261	0.403097
