data_functionalizedCrystal
_audit_creation_method	'MofGen! by Chris Wilmer'
_symmetry_space_group_name_H-M	'P1'
_symmetry_Int_Tables_number	1
_symmetry_cell_setting	triclinic
loop_
_symmetry_equiv_pos_as_xyz
  x,y,z
_cell_length_a	17.699083
_cell_length_b	12.837942
_cell_length_c	16.176319
_cell_angle_alpha	89.994101
_cell_angle_beta	89.998611
_cell_angle_gamma	89.055978
loop_
_atom_site_label
_atom_site_type_symbol
_atom_site_fract_x
_atom_site_fract_y
_atom_site_fract_z
O1	O	1.013708	0.131067	-0.068629
O2	O	1.513708	0.631067	0.431371
O3	O	0.794582	0.148119	-0.068656
O4	O	1.294582	0.648119	0.431344
O5	O	0.899286	-0.011297	-0.068638
O6	O	1.399286	0.488703	0.431362
O7	O	0.909004	0.290484	-0.068647
O8	O	1.409004	0.790484	0.431353
O9	O	0.899269	-0.011307	0.068855
O10	O	1.399269	0.488693	0.568855
O11	O	0.794565	0.148109	0.068837
O12	O	1.294565	0.648109	0.568837
O13	O	1.013691	0.131057	0.068864
O14	O	1.513691	0.631057	0.568864
Cu15	Cu	0.904126	0.139582	0.081405
Cu16	Cu	1.404126	0.639582	0.581405
Cu17	Cu	0.904146	0.139594	-0.081197
Cu18	Cu	1.404146	0.639594	0.418803
O19	O	0.908987	0.290474	0.068846
O20	O	1.408987	0.790474	0.568846
C21	C	0.766332	0.147503	0.000087
C22	C	1.266332	0.647503	0.500087
C23	C	0.682179	0.145670	0.000077
C24	C	1.182179	0.645670	0.500077
C25	C	0.640432	0.239245	0.000074
C26	C	1.140432	0.739245	0.500074
C27	C	0.561362	0.237516	0.000085
C28	C	1.061362	0.737516	0.500085
C29	C	0.524040	0.142212	0.000092
C30	C	1.024040	0.642212	0.500092
C31	C	0.565792	0.048631	0.000097
C32	C	1.065792	0.548631	0.500097
C33	C	0.644861	0.050360	0.000093
C34	C	1.144861	0.550360	0.500093
C35	C	0.246916	0.041653	0.000118
C36	C	0.746916	0.541653	0.500118
C37	C	0.167842	0.039931	0.000120
C38	C	0.667842	0.539931	0.500120
C39	C	0.163418	0.228809	0.000111
C40	C	0.663418	0.728809	0.500111
C41	C	0.242486	0.230539	0.000106
C42	C	0.742486	0.730539	0.500106
C43	C	0.284232	0.136958	0.000115
C44	C	0.784232	0.636958	0.500115
C45	C	0.369969	0.138833	0.000105
C46	C	0.869969	0.638833	0.500105
C47	C	0.438304	0.140336	0.000097
C48	C	0.938304	0.640336	0.500097
C49	C	0.895995	-0.049915	0.000108
C50	C	1.395995	0.450085	0.500108
C51	C	0.886204	-0.164967	0.000105
C52	C	1.386204	0.335033	0.500105
C53	C	1.003908	-0.406222	0.000102
C54	C	1.503908	0.093778	0.500102
C55	C	0.994712	-0.514324	0.000100
C56	C	1.494712	-0.014324	0.500100
C57	C	0.858617	-0.489277	0.000092
C58	C	1.358617	0.010723	0.500092
C59	C	0.867813	-0.381174	0.000094
C60	C	1.367813	0.118826	0.500094
C61	C	0.940461	-0.339651	0.000101
C62	C	1.440461	0.160349	0.500101
C63	C	0.949656	-0.231546	0.000109
C64	C	1.449656	0.268454	0.500109
C65	C	0.813561	-0.206501	0.000095
C66	C	1.313561	0.293499	0.500095
C67	C	0.804365	-0.314604	0.000093
C68	C	1.304365	0.185396	0.500093
C69	C	1.041941	0.131673	0.000119
C70	C	1.541941	0.631673	0.500119
C71	C	1.126094	0.133506	0.000124
C72	C	1.626094	0.633506	0.500124
C73	C	0.912278	0.329091	0.000099
C74	C	1.412278	0.829091	0.500099
C75	C	0.922069	0.444144	0.000096
C76	C	1.422069	0.944144	0.500096
N77	N	0.904118	0.139573	0.195770
N78	N	1.404118	0.639573	0.695770
N79	N	0.904160	0.139595	-0.195562
N80	N	1.404160	0.639595	0.304438
C81	C	0.950499	0.069012	0.239042
C82	C	1.450499	0.569012	0.739042
C83	C	0.950502	0.069011	0.325589
C84	C	1.450502	0.569011	0.825589
C85	C	0.904129	0.139577	0.368863
C86	C	1.404129	0.639577	0.868863
C87	C	0.857743	0.210141	0.325584
C88	C	1.357743	0.710141	0.825584
C89	C	0.857736	0.210136	0.239039
C90	C	1.357736	0.710136	0.739039
C91	C	0.857771	0.210161	0.674613
C92	C	1.357771	0.710161	1.174613
C93	C	0.857783	0.210162	0.761164
C94	C	1.357783	0.710162	1.261164
C95	C	0.950537	0.069035	0.761163
C96	C	1.450537	0.569035	1.261163
C97	C	0.950530	0.069031	0.674617
C98	C	1.450530	0.569031	1.174617
C99	C	0.904141	0.139591	0.631347
C100	C	1.404141	0.639591	1.131347
C101	C	0.904137	0.139590	0.537503
C102	C	1.404137	0.639590	1.037503
C103	C	0.904137	0.139584	0.462705
C104	C	1.404137	0.639584	0.962705
H105	H	0.137457	-0.037681	0.000128
H106	H	0.637457	0.462319	0.500128
F107	F	1.081224	-0.362027	0.000127
F108	F	1.581224	0.137973	0.500127
F109	F	1.062242	-0.585171	0.000099
F110	F	1.562242	-0.085171	0.500099
F111	F	0.808385	0.285239	0.371640
F112	F	1.308385	0.785239	0.871640
H113	H	0.988264	0.011554	0.203815
H114	H	1.488264	0.511554	0.703815
F115	F	0.999906	-0.006065	0.807221
F116	F	1.499906	0.493935	1.307221
F117	F	1.026973	-0.187355	0.000121
F118	F	1.526973	0.312645	0.500121
F119	F	0.808404	0.285257	0.628567
F120	F	1.308404	0.785257	1.128567
H121	H	0.819967	0.267593	0.203807
H122	H	1.319967	0.767593	0.703807
H123	H	0.129419	0.305007	0.000107
H124	H	0.629419	0.805007	0.500107
F125	F	0.680146	0.340682	0.000061
F126	F	1.180146	0.840682	0.500061
H127	H	0.799470	-0.523105	0.000077
H128	H	1.299470	-0.023105	0.500077
F129	F	0.808423	0.285270	0.807217
F130	F	1.308423	0.785270	1.307217
H131	H	0.527375	0.313714	0.000082
H132	H	1.027375	0.813714	0.500082
F133	F	0.291335	-0.057944	0.000128
F134	F	0.791335	0.442056	0.500128
H135	H	0.678850	-0.025837	0.000094
H136	H	1.178850	0.474163	0.500094
F137	F	0.282203	0.331974	0.000093
F138	F	0.782203	0.831974	0.500093
H139	H	0.988268	0.011555	0.360821
H140	H	1.488268	0.511555	0.860821
H141	H	0.745217	-0.348427	0.000084
H142	H	1.245217	0.151573	0.500084
F143	F	0.999889	-0.006070	0.628566
F144	F	1.499889	0.493930	1.128566
F145	F	0.746032	-0.135643	0.000102
F146	F	1.246032	0.364357	0.500102
F147	F	0.526069	-0.052799	0.000111
F148	F	1.026069	0.447201	0.500111
