data_functionalizedCrystal
_audit_creation_method	'MofGen! by Chris Wilmer'
_symmetry_space_group_name_H-M	'P1'
_symmetry_Int_Tables_number	1
_symmetry_cell_setting	triclinic
loop_
_symmetry_equiv_pos_as_xyz
  x,y,z
_cell_length_a	13.897448
_cell_length_b	12.759401
_cell_length_c	12.759393
_cell_angle_alpha	89.977503
_cell_angle_beta	90.032272
_cell_angle_gamma	89.981486
loop_
_atom_site_label
_atom_site_type_symbol
_atom_site_fract_x
_atom_site_fract_y
_atom_site_fract_z
Zn1	Zn	-0.383947	-1.606245	0.594051
Zn2	Zn	-0.545273	-1.606126	0.418366
Zn3	Zn	-0.383996	-1.430543	0.418381
Zn4	Zn	-0.545204	-1.430526	0.593998
O5	O	-0.464605	-1.518360	0.506199
O6	O	-0.405356	-1.753250	0.570761
O7	O	-0.523929	-1.582793	0.271346
O8	O	-0.249008	-1.453907	0.441713
O9	O	-0.523882	-1.753163	0.441686
O10	O	-0.248972	-1.582994	0.570777
O11	O	-0.405440	-1.453793	0.271358
O12	O	-0.405373	-1.283520	0.441662
O13	O	-0.523763	-1.453878	0.741026
O14	O	-0.523811	-1.283507	0.570686
O15	O	-0.405288	-1.582977	0.741065
O16	O	-0.680246	-1.582776	0.441635
O17	O	-0.680195	-1.453763	0.570671
C18	C	-0.464590	-1.245393	0.506171
C19	C	-0.464607	-1.128616	0.506183
C20	C	-0.715220	-1.518283	0.506168
C21	C	-0.822433	-1.518347	0.506191
C22	C	-0.526371	-1.073775	0.573259
C23	C	-0.526374	-0.964051	0.573277
C24	C	-0.402845	-0.964019	0.439134
C25	C	-0.402839	-1.073741	0.439122
C26	C	-1.018729	-1.518457	0.506256
C27	C	-0.909496	-1.518393	0.506223
C28	C	-0.213012	-1.518466	0.506252
C29	C	-0.105798	-1.518511	0.506275
C30	C	-0.464513	-1.518439	0.780232
C31	C	-0.464473	-1.518472	0.897009
C32	C	-0.464618	-0.792393	0.506221
C33	C	-0.464616	-0.909170	0.506213
C34	C	-0.464628	-1.518342	0.233232
C35	C	-0.464396	-1.518512	0.116455
C36	C	-0.402773	-1.585699	0.951893
C37	C	-0.402732	-1.585717	1.061617
C38	C	-0.526098	-1.451278	1.061564
C39	C	-0.526134	-1.451255	0.951842
H40	H	-0.576665	-1.118451	0.627868
N41	N	-0.592599	-1.378796	1.120724
H42	H	-0.661528	-1.395073	1.101622
H43	H	-0.577536	-1.303759	1.101603
N44	N	-0.336225	-1.132909	0.366773
H45	H	-0.291573	-1.178464	0.409558
H46	H	-0.297162	-1.081439	0.324296
N47	N	-0.336192	-1.658237	1.120811
H48	H	-0.345521	-1.648053	1.198640
H49	H	-0.267307	-1.641917	1.101641
H50	H	-0.352563	-1.640429	0.907252
N51	N	-0.592677	-1.378721	0.892652
H52	H	-0.661595	-1.394999	0.911729
H53	H	-0.583261	-1.388924	0.814841
N54	N	-0.592995	-0.904900	0.645619
H55	H	-0.632123	-0.956316	0.688094
H56	H	-0.637585	-0.859342	0.602765
H57	H	-0.352557	-0.919326	0.384534
