data_functionalizedCrystal
_audit_creation_method	'MofGen! by Chris Wilmer'
_symmetry_space_group_name_H-M	'P1'
_symmetry_Int_Tables_number	1
_symmetry_cell_setting	triclinic
loop_
_symmetry_equiv_pos_as_xyz
  x,y,z
_cell_length_a	19.288864
_cell_length_b	16.109301
_cell_length_c	17.766277
_cell_angle_alpha	89.992214
_cell_angle_beta	89.976791
_cell_angle_gamma	83.298863
loop_
_atom_site_label
_atom_site_type_symbol
_atom_site_fract_x
_atom_site_fract_y
_atom_site_fract_z
O1	O	0.921601	0.103716	-0.062838
O2	O	0.719373	0.117707	-0.062787
O3	O	0.826042	-0.010338	-0.062806
O4	O	0.814932	0.231761	-0.062819
O5	O	0.826024	-0.010345	0.062382
O6	O	0.719355	0.117701	0.062402
O7	O	0.921582	0.103710	0.062351
Cu8	Cu	0.820467	0.110704	0.073807
Cu9	Cu	0.820489	0.110712	-0.074243
O10	O	0.814913	0.231755	0.062370
C11	C	0.693487	0.117254	-0.000186
C12	C	0.616380	0.115902	-0.000166
C13	C	0.825583	-0.041315	-0.000211
C14	C	0.824234	-0.133606	-0.000210
C15	C	0.571863	0.191034	-0.000182
C16	C	0.499413	0.189764	-0.000190
C17	C	0.471483	0.113359	-0.000198
C18	C	0.516009	0.038218	-0.000178
C19	C	0.588458	0.039489	-0.000162
C20	C	0.363084	0.053298	-0.044079
C21	C	0.290636	0.052029	-0.044100
C22	C	0.248028	0.109433	-0.000243
C23	C	0.277874	0.168120	0.043624
C24	C	0.350323	0.169391	0.043640
C25	C	0.392925	0.111971	-0.000214
C26	C	0.124952	0.183193	-0.000267
C27	C	0.052501	0.181920	-0.000270
C28	C	0.069099	0.030372	-0.000266
C29	C	0.141548	0.031647	-0.000254
C30	C	0.169470	0.108060	-0.000259
C31	C	0.884391	-0.356084	-0.000237
C32	C	0.883118	-0.442800	-0.000243
C33	C	0.756559	-0.422493	-0.000208
C34	C	0.757833	-0.335778	-0.000208
C35	C	0.821751	-0.302577	-0.000218
C36	C	0.819204	-0.476007	-0.000225
C37	C	0.817823	-0.570028	-0.000231
C38	C	0.823133	-0.208549	-0.000213
C39	C	0.947469	0.104163	-0.000252
C40	C	1.024576	0.105514	-0.000277
C41	C	0.815372	0.262732	-0.000227
C42	C	0.816722	0.355022	-0.000233
N43	N	0.820456	0.110699	0.177937
N44	N	0.820505	0.110711	-0.178373
C45	C	0.867704	0.054028	0.217315
C46	C	0.867708	0.054024	0.296117
C47	C	0.820471	0.110705	0.335538
C48	C	0.773214	0.167380	0.296150
C49	C	0.773206	0.167377	0.217350
C50	C	0.811353	0.186459	0.460373
C51	C	0.811365	0.186463	0.539172
C52	C	0.820489	0.110715	0.578584
C53	C	0.829616	0.034960	0.539188
C54	C	0.829609	0.034956	0.460387
C55	C	0.820473	0.110715	0.420983
C56	C	0.867745	0.054035	0.703408
C57	C	0.867744	0.054030	0.782212
C58	C	0.773252	0.167394	0.782243
C59	C	0.773250	0.167392	0.703441
C60	C	0.820500	0.110713	0.664028
H61	H	0.594592	0.253255	-0.000187
C62	C	0.450435	0.272411	-0.000219
H63	H	0.477441	0.318101	-0.000226
H64	H	0.421798	0.275072	0.043426
H65	H	0.421859	0.275053	-0.043891
C66	C	0.686255	-0.459018	-0.000186
H67	H	0.694466	-0.518326	-0.000180
H68	H	0.660466	-0.440631	-0.043833
H69	H	0.660463	-0.440639	0.043485
C70	C	0.919670	-0.008325	0.173966
H71	H	0.947806	-0.042082	0.208709
H72	H	0.948571	0.021490	0.143201
H73	H	0.894686	-0.042864	0.143250
H74	H	0.734788	0.213542	0.814338
H75	H	0.046359	-0.031839	-0.000318
C76	C	0.954696	-0.319560	-0.000255
H77	H	0.946486	-0.260252	-0.000244
H78	H	0.980493	-0.337936	-0.043918
H79	H	0.980481	-0.337951	0.043399
C80	C	0.801327	0.269787	0.582505
H81	H	0.802647	0.258942	0.635079
H82	H	0.757511	0.299563	0.569611
H83	H	0.837642	0.302257	0.569563
C84	C	0.839648	-0.048368	0.582530
H85	H	0.838336	-0.037520	0.635102
H86	H	0.883459	-0.078153	0.569600
H87	H	0.803325	-0.080831	0.569635
H88	H	0.734751	0.213530	0.328250
C89	C	0.919709	-0.008315	0.660052
H90	H	0.947843	-0.042077	0.694793
H91	H	0.948612	0.021502	0.629291
H92	H	0.894725	-0.042851	0.629331
H93	H	0.147687	0.245413	-0.000259
H94	H	0.493264	-0.023992	-0.000194
C95	C	0.383156	0.233933	0.091893
H96	H	0.432405	0.226470	0.085615
H97	H	0.372056	0.226416	0.143358
H98	H	0.365270	0.288737	0.076465
C99	C	0.231014	0.231272	0.091864
H100	H	0.183592	0.222107	0.085579
H101	H	0.236872	0.286485	0.076439
H102	H	0.243660	0.224171	0.143337
H103	H	0.934126	-0.486363	-0.000260
C104	C	0.919685	-0.008315	0.339443
H105	H	0.947825	-0.042068	0.304684
H106	H	0.894715	-0.042848	0.370204
H107	H	0.948591	0.021518	0.370159
C108	C	0.919721	-0.008309	0.825528
H109	H	0.947863	-0.042057	0.790766
H110	H	0.894754	-0.042847	0.856287
H111	H	0.948626	0.021523	0.856247
C112	C	0.721283	0.229740	0.660122
H113	H	0.693154	0.263502	0.694884
H114	H	0.692377	0.199921	0.629401
H115	H	0.746263	0.264274	0.629366
H116	H	0.803911	0.248146	0.428290
H117	H	0.177795	-0.029534	-0.000246
H118	H	0.016255	0.243104	-0.000279
H119	H	0.266341	0.004247	-0.079822
C120	C	0.721236	0.229723	0.174032
H121	H	0.693104	0.263485	0.208792
H122	H	0.692331	0.199905	0.143308
H123	H	0.746216	0.264260	0.143277
H124	H	0.837038	-0.026726	0.428314
C125	C	0.409946	-0.009844	-0.092331
H126	H	0.381795	-0.044966	-0.118468
H127	H	0.441872	-0.042923	-0.060712
H128	H	0.435074	0.019411	-0.127594
H129	H	0.624704	-0.021694	-0.000150
C130	C	0.688926	-0.276916	-0.000185
H131	H	0.650676	-0.309108	-0.000167
H132	H	0.686798	-0.242660	-0.043839
H133	H	0.686790	-0.242675	0.043478
