data_functionalizedCrystal
_audit_creation_method	'MofGen! by Chris Wilmer'
_symmetry_space_group_name_H-M	'P1'
_symmetry_Int_Tables_number	1
_symmetry_cell_setting	triclinic
loop_
_symmetry_equiv_pos_as_xyz
  x,y,z
_cell_length_a	15.625110
_cell_length_b	15.538191
_cell_length_c	9.730217
_cell_angle_alpha	90.000608
_cell_angle_beta	108.082169
_cell_angle_gamma	66.740235
loop_
_atom_site_label
_atom_site_type_symbol
_atom_site_fract_x
_atom_site_fract_y
_atom_site_fract_z
O1	O	1.155986	0.122957	0.461934
O2	O	0.888717	0.137596	0.328710
O3	O	1.074378	-0.006784	0.421248
O4	O	0.970325	0.267337	0.369395
O5	O	1.074374	-0.006785	0.649827
O6	O	0.888713	0.137595	0.557288
O7	O	1.155983	0.122956	0.690512
Zn8	Zn	1.022347	0.130275	0.660192
Zn9	Zn	1.022352	0.130277	0.359030
O10	O	0.970322	0.267336	0.597973
C11	C	0.855344	0.136931	0.426365
C12	C	0.755914	0.134941	0.376802
C13	C	0.615771	0.132137	0.182356
C14	C	0.709201	0.134007	0.228942
C15	C	0.709204	0.134010	0.478132
C16	C	0.615769	0.132144	0.431566
C17	C	0.569061	0.131207	0.283676
C18	C	0.569059	0.131214	0.532886
C19	C	0.475635	0.129344	0.486323
C20	C	0.428921	0.128404	0.338440
C21	C	0.475637	0.129337	0.237113
C22	C	0.615773	0.132145	0.680776
C23	C	0.569063	0.131215	0.782097
C24	C	0.475634	0.129352	0.735533
C25	C	0.428920	0.128411	0.587650
C26	C	0.428919	0.128419	0.836860
C27	C	0.335495	0.126549	0.790298
C28	C	0.335496	0.126541	0.541088
C29	C	1.085263	-0.041865	0.540959
C30	C	1.117690	-0.146396	0.557110
C31	C	0.795530	-0.434615	0.396555
C32	C	0.826023	-0.532840	0.411758
C33	C	0.997542	-0.555055	0.497252
C34	C	0.967063	-0.456830	0.482050
C35	C	0.866056	-0.396617	0.431702
C36	C	1.037589	-0.418832	0.517197
C37	C	1.007111	-0.320615	0.502003
C38	C	0.906109	-0.260396	0.451661
C39	C	0.835579	-0.298400	0.416508
C40	C	1.138595	-0.479046	0.567555
C41	C	1.209121	-0.441048	0.602702
C42	C	1.178644	-0.342830	0.587498
C43	C	1.077642	-0.282611	0.537157
C44	C	1.249175	-0.304826	0.622652
C45	C	1.218697	-0.206609	0.607458
C46	C	1.047165	-0.184394	0.521962
C47	C	1.189355	0.123621	0.592854
C48	C	1.288786	0.125611	0.642408
C49	C	0.959437	0.302417	0.478259
C50	C	0.927009	0.406948	0.462100
N51	N	1.022351	0.130273	0.865730
N52	N	1.022359	0.130271	0.153497
C53	C	1.186791	0.002462	0.947682
C54	C	1.269016	-0.061441	1.060601
C55	C	1.269026	-0.061442	1.204485
C56	C	1.186800	0.002466	1.235449
C57	C	1.104574	0.066369	1.122531
C58	C	1.104575	0.066364	0.978648
C59	C	0.940133	0.194174	1.040578
C60	C	0.940125	0.194181	0.896694
C61	C	0.857907	0.258081	1.071542
C62	C	0.775683	0.321990	0.958624
C63	C	0.775677	0.321989	0.814733
C64	C	0.857899	0.258084	0.783776
H65	H	0.607108	0.131975	0.902510
O66	O	0.697371	-0.376250	0.347672
C67	C	0.530445	-0.364568	0.264352
C68	C	0.641570	-0.430772	0.319728
H69	H	0.485298	-0.408622	0.241715
H70	H	0.511823	-0.318042	0.350749
H71	H	0.511948	-0.318017	0.159490
H72	H	0.660146	-0.477383	0.424565
H73	H	0.660134	-0.477234	0.233239
O74	O	0.857733	0.258180	1.211219
C75	C	0.767530	0.328352	1.372738
C76	C	0.767591	0.328322	1.214487
H77	H	0.694667	0.385068	1.375436
H78	H	0.776320	0.256131	1.416263
H79	H	0.831603	0.343918	1.443694
H80	H	0.703524	0.312794	1.143417
H81	H	0.758850	0.400548	1.171079
H82	H	0.708717	0.374023	0.722796
O83	O	1.095644	-0.613589	0.545906
C84	C	1.229587	-0.737416	0.494286
C85	C	1.118475	-0.671168	0.438999
H86	H	1.248077	-0.784000	0.407892
H87	H	1.274811	-0.693432	0.516730
H88	H	1.248120	-0.783907	0.599230
H89	H	1.099850	-0.624664	0.334025
H90	H	1.073313	-0.715209	0.416657
H91	H	0.352849	0.126883	0.300531
H92	H	0.747249	0.134769	0.598546
O93	O	0.695723	0.383966	0.988599
C94	C	0.521004	0.438853	0.945496
C95	C	0.611481	0.368598	0.911443
H96	H	0.452868	0.426465	0.883110
H97	H	0.535055	0.427868	1.067705
H98	H	0.508099	0.514290	0.910806
H99	H	0.624437	0.293132	0.946044
H100	H	0.597387	0.379665	0.789232
H101	H	0.297458	0.125789	0.420659
H102	H	0.691844	0.133669	0.718683
H103	H	0.768585	-0.563772	0.383152
H104	H	0.857904	0.258080	0.666624
O105	O	0.949072	-0.125801	0.473243
C106	C	0.815096	-0.002053	0.524914
C107	C	0.926198	-0.068337	0.580249
H108	H	0.796564	0.044411	0.611414
H109	H	0.796514	0.044548	0.420055
H110	H	0.769944	-0.046102	0.502337
H111	H	0.971425	-0.024362	0.602912
H112	H	0.944702	-0.114941	0.685061
H113	H	0.466967	0.129173	0.957274
O114	O	1.307196	-0.499676	0.651526
C115	C	1.430170	-0.660830	0.712908
C116	C	1.319068	-0.594545	0.657572
H117	H	1.439805	-0.737544	0.717844
H118	H	1.466504	-0.647072	0.635331
H119	H	1.466455	-0.646935	0.826627
H120	H	1.282698	-0.608401	0.543876
H121	H	1.282807	-0.608317	0.735250
H122	H	0.747226	0.134770	0.146422
H123	H	1.163406	-0.559020	0.579912
H124	H	1.331414	-0.353865	0.663659
O125	O	1.287332	-0.169848	0.641588
C126	C	1.460684	-0.202238	0.728050
C127	C	1.383058	-0.243996	0.689415
H128	H	1.538095	-0.262166	0.766756
H129	H	1.450769	-0.156848	0.627421
H130	H	1.450645	-0.156774	0.818680
H131	H	1.393050	-0.289503	0.598826
H132	H	1.392995	-0.289331	0.790118
H133	H	0.437599	0.128585	0.116684
O134	O	1.186932	0.002314	0.807988
C135	C	1.277186	-0.067763	0.646491
C136	C	1.277145	-0.067712	0.804752
H137	H	1.350123	-0.124360	0.643826
H138	H	1.213202	-0.083427	0.575458
H139	H	1.268282	0.004518	0.603033
H140	H	1.286079	-0.139973	0.848342
H141	H	1.341116	-0.051995	0.875684
H142	H	1.335963	-0.113476	1.035376
H143	H	0.881296	-0.180422	0.439299
H144	H	1.186808	0.002454	1.352608
O145	O	0.289958	0.125775	0.888551
C146	C	0.147618	0.205210	0.962263
C147	C	0.199065	0.206196	0.850865
H148	H	0.074131	0.270233	0.931851
H149	H	0.133594	0.138535	0.961529
H150	H	0.197087	0.206159	1.075954
H151	H	0.149645	0.205281	0.737120
H152	H	0.213104	0.272865	0.851726
O153	O	0.737419	-0.240035	0.367625
C154	C	0.570494	-0.228353	0.284305
C155	C	0.681619	-0.294558	0.339681
H156	H	0.525347	-0.272408	0.261668
H157	H	0.551872	-0.181827	0.370702
H158	H	0.551997	-0.181802	0.179443
H159	H	0.700195	-0.341168	0.444518
H160	H	0.700182	-0.341019	0.253192
H161	H	0.577733	0.131385	0.061927
H162	H	1.335979	-0.113480	1.296426
