data_functionalizedCrystal
_audit_creation_method	'MofGen! by Chris Wilmer'
_symmetry_space_group_name_H-M	'P1'
_symmetry_Int_Tables_number	1
_symmetry_cell_setting	triclinic
loop_
_symmetry_equiv_pos_as_xyz
  x,y,z
_cell_length_a	12.759401
_cell_length_b	19.805405
_cell_length_c	12.759393
_cell_angle_alpha	90.037109
_cell_angle_beta	90.020473
_cell_angle_gamma	90.027935
loop_
_atom_site_label
_atom_site_type_symbol
_atom_site_fract_x
_atom_site_fract_y
_atom_site_fract_z
Zn1	Zn	1.606176	-0.269399	0.593976
Zn2	Zn	1.606033	-0.382603	0.418277
Zn3	Zn	1.430476	-0.269436	0.418311
Zn4	Zn	1.430431	-0.382555	0.593915
O5	O	1.518279	-0.325998	0.506120
O6	O	1.753178	-0.284421	0.570681
O7	O	1.582704	-0.367627	0.271261
O8	O	1.453862	-0.174715	0.441653
O9	O	1.753073	-0.367591	0.441596
O10	O	1.582948	-0.174688	0.570713
O11	O	1.453723	-0.284484	0.271285
O12	O	1.283449	-0.284437	0.441594
O13	O	1.453785	-0.367509	0.740944
O14	O	1.283416	-0.367545	0.570609
O15	O	1.582904	-0.284374	0.740989
O16	O	1.582660	-0.477313	0.441536
O17	O	1.453646	-0.477278	0.570576
C18	C	1.245312	-0.325990	0.506099
C19	C	1.128535	-0.326003	0.506115
C20	C	1.073683	-0.369343	0.573187
C21	C	0.963959	-0.369345	0.573208
C22	C	0.963948	-0.282666	0.439075
C23	C	1.073670	-0.282661	0.439060
C24	C	1.518161	-0.501854	0.506069
C25	C	1.518206	-0.577086	0.506082
C26	C	1.585449	-0.612426	0.438962
C27	C	1.585494	-0.683115	0.438985
C28	C	1.518289	-0.718462	0.506124
C29	C	1.451044	-0.683117	0.573252
C30	C	1.451005	-0.612430	0.573234
C31	C	1.451199	-0.968190	0.573330
C32	C	1.451240	-1.038882	0.573342
C33	C	1.585687	-1.038875	0.439081
C34	C	1.585649	-0.968188	0.439063
C35	C	1.518407	-0.932849	0.506194
C36	C	1.518361	-0.856201	0.506170
C37	C	1.518330	-0.795109	0.506144
C38	C	1.792312	-0.326007	0.506141
C39	C	1.909089	-0.326011	0.506150
C40	C	1.518355	-0.325932	0.780153
C41	C	1.518388	-0.325903	0.896930
C42	C	1.518426	-0.149456	0.506194
C43	C	1.518489	-0.074223	0.506225
C44	C	1.518263	-0.326016	0.233152
C45	C	1.518434	-0.325854	0.116376
C46	C	1.585647	-0.282582	1.061548
C47	C	1.585627	-0.282609	0.951824
C48	C	1.451172	-0.369179	0.951766
C49	C	1.451198	-0.369156	1.061488
H50	H	1.118332	-0.247364	0.384442
H51	H	1.396329	-0.711902	0.627923
N52	N	1.132863	-0.416081	0.645515
H53	H	1.178343	-0.447414	0.602723
H54	H	1.081396	-0.443491	0.687995
H55	H	0.919264	-0.247380	0.384480
N56	N	0.904802	-0.416097	0.645545
H57	H	0.859235	-0.447429	0.602761
H58	H	0.859382	-0.388585	0.694310
N59	N	1.378688	-0.415823	1.120629
H60	H	1.388910	-0.409237	1.198466
H61	H	1.394989	-0.464169	1.101433
H62	H	1.640249	-0.711886	0.384328
N63	N	1.657931	-0.574305	0.366543
H64	H	1.700537	-0.607422	0.324028
H65	H	1.706512	-0.544928	0.409346
H66	H	1.640369	-0.939411	0.384388
H67	H	1.640442	-1.067657	0.384424
N68	N	1.378750	-1.077009	0.645757
H69	H	1.336147	-1.043896	0.688283
H70	H	1.421509	-1.106292	0.694416
H71	H	1.640394	-0.247323	1.106235
H72	H	1.396446	-0.939422	0.627989
N73	N	1.378483	-0.574309	0.645631
H74	H	1.335913	-0.607426	0.688166
H75	H	1.329869	-0.545028	0.602817
N76	N	1.658124	-0.235940	0.892687
H77	H	1.700719	-0.208508	0.944111
H78	H	1.615376	-0.204626	0.847169
N79	N	1.378655	-0.415880	0.892564
H80	H	1.388833	-0.409329	0.814736
H81	H	1.303634	-0.405339	0.911742
