data_functionalizedCrystal
_audit_creation_method	'MofGen! by Chris Wilmer'
_symmetry_space_group_name_H-M	'P1'
_symmetry_Int_Tables_number	1
_symmetry_cell_setting	triclinic
loop_
_symmetry_equiv_pos_as_xyz
  x,y,z
_cell_length_a	19.805407
_cell_length_b	19.805405
_cell_length_c	19.805399
_cell_angle_alpha	90.029301
_cell_angle_beta	90.019573
_cell_angle_gamma	90.026410
loop_
_atom_site_label
_atom_site_type_symbol
_atom_site_fract_x
_atom_site_fract_y
_atom_site_fract_z
Zn1	Zn	1.034736	-0.269479	0.382712
Zn2	Zn	1.534736	0.230521	0.882712
Zn3	Zn	1.034651	-0.382667	0.269520
Zn4	Zn	1.534651	0.117333	0.769520
Zn5	Zn	0.921550	-0.269498	0.269536
Zn6	Zn	1.421550	0.230502	0.769536
Zn7	Zn	0.921514	-0.382631	0.382667
Zn8	Zn	1.421514	0.117369	0.882667
O9	O	0.978113	-0.326069	0.326109
O10	O	1.478113	0.173931	0.826109
O11	O	1.129441	-0.284501	0.367708
O12	O	1.629441	0.215499	0.867708
O13	O	1.019627	-0.367678	0.174805
O14	O	1.519627	0.132322	0.674805
O15	O	0.936616	-0.174778	0.284575
O16	O	1.436616	0.325222	0.784575
O17	O	1.129378	-0.367660	0.284547
O18	O	1.629378	0.132340	0.784547
O19	O	1.019772	-0.174765	0.367724
O20	O	1.519772	0.325235	0.867724
O21	O	0.936533	-0.284533	0.174817
O22	O	1.436533	0.215467	0.674817
O23	O	0.826829	-0.284498	0.284531
O24	O	1.326829	0.215502	0.784531
O25	O	0.936553	-0.367598	0.477389
O26	O	1.436553	0.132402	0.977389
O27	O	0.826802	-0.367617	0.367648
O28	O	1.326802	0.132383	0.867648
O29	O	1.019737	-0.284466	0.477422
O30	O	1.519737	0.215534	0.977422
O31	O	1.019592	-0.477379	0.284503
O32	O	1.519592	0.022621	0.784503
O33	O	0.936471	-0.477353	0.367632
O34	O	1.436471	0.022647	0.867632
C35	C	0.802257	-0.326056	0.326087
C36	C	1.302257	0.173944	0.826087
C37	C	0.727025	-0.326067	0.326093
C38	C	1.227025	0.173933	0.826093
C39	C	0.691684	-0.369412	0.369302
C40	C	1.191684	0.130588	0.869302
C41	C	0.620996	-0.369413	0.369312
C42	C	1.120996	0.130587	0.869312
C43	C	0.585649	-0.326072	0.326109
C44	C	1.085649	0.173928	0.826109
C45	C	0.620994	-0.282722	0.282898
C46	C	1.120994	0.217278	0.782898
C47	C	0.691681	-0.282718	0.282892
C48	C	1.191681	0.217282	0.782892
C49	C	0.335921	-0.282737	0.282920
C50	C	0.835921	0.217263	0.782920
C51	C	0.265229	-0.282746	0.282928
C52	C	0.765229	0.217254	0.782928
C53	C	0.265235	-0.369432	0.369340
C54	C	0.765235	0.130568	0.869340
C55	C	0.335922	-0.369428	0.369334
C56	C	0.835922	0.130572	0.869334
C57	C	0.371262	-0.326076	0.326126
C58	C	0.871262	0.173924	0.826126
C59	C	0.447910	-0.326074	0.326117
C60	C	0.947910	0.173926	0.826117
C61	C	0.509002	-0.326076	0.326114
C62	C	1.009002	0.173924	0.826114
C63	C	0.978036	-0.501925	0.326076
C64	C	1.478036	-0.001925	0.826076
C65	C	0.978066	-0.577157	0.326084
C66	C	1.478066	-0.077157	0.826084
C67	C	1.021389	-0.612492	0.282845
C68	C	1.521389	-0.112492	0.782845
C69	C	1.021418	-0.683181	0.282860
C70	C	1.521418	-0.183181	0.782860
C71	C	0.978119	-0.718532	0.326111
C72	C	1.478119	-0.218532	0.826111
C73	C	0.934794	-0.683192	0.369356
C74	C	1.434794	-0.183192	0.869356
C75	C	0.934769	-0.612505	0.369344
C76	C	1.434769	-0.112505	0.869344
C77	C	0.934894	-0.968265	0.369406
C78	C	1.434894	-0.468265	0.869406
C79	C	0.934921	-1.038957	0.369413
C80	C	1.434921	-0.538957	0.869413
C81	C	1.021542	-1.038941	0.282922
C82	C	1.521542	-0.538941	0.782922
C83	C	1.021517	-0.968254	0.282910
C84	C	1.521517	-0.468254	0.782910
C85	C	0.978195	-0.932920	0.326157
C86	C	1.478195	-0.432920	0.826157
C87	C	0.978166	-0.856271	0.326141
C88	C	1.478166	-0.356271	0.826141
C89	C	0.978145	-0.795179	0.326124
C90	C	1.478145	-0.295179	0.826124
C91	C	1.154655	-0.326082	0.326131
C92	C	1.654655	0.173918	0.826131
C93	C	1.229887	-0.326088	0.326140
C94	C	1.729887	0.173912	0.826140
C95	C	0.978151	-0.326026	0.502651
C96	C	1.478151	0.173974	1.002651
C97	C	0.978167	-0.326008	0.577883
C98	C	1.478167	0.173992	1.077883
C99	C	0.978207	-0.149526	0.326156
C100	C	1.478207	0.350474	0.826156
C101	C	0.978248	-0.074294	0.326177
C102	C	1.478248	0.425706	0.826177
C103	C	0.978114	-0.326062	0.150253
C104	C	1.478114	0.173938	0.650253
C105	C	0.978229	-0.325890	0.075021
C106	C	1.478229	0.174110	0.575021
C107	C	1.021481	-0.282719	0.613246
C108	C	1.521481	0.217281	1.113246
C109	C	1.021488	-0.282699	0.683934
C110	C	1.521488	0.217301	1.183934
C111	C	0.978184	-0.325973	0.719259
C112	C	1.478184	0.174027	1.219259
C113	C	0.934864	-0.369264	0.683892
C114	C	1.434864	0.130736	1.183892
C115	C	0.934854	-0.369279	0.613204
C116	C	1.434854	0.130721	1.113204
C117	C	0.934902	-0.369201	0.968965
C118	C	1.434902	0.130799	1.468965
C119	C	0.934917	-0.369183	1.039657
C120	C	1.434917	0.130817	1.539657
C121	C	1.021536	-0.282620	1.039695
C122	C	1.521536	0.217380	1.539695
C123	C	1.021527	-0.282636	0.969008
C124	C	1.521527	0.217364	1.469008
C125	C	0.978205	-0.325924	0.933647
C126	C	1.478205	0.174076	1.433647
C127	C	0.978197	-0.325944	0.856998
C128	C	1.478197	0.174056	1.356998
C129	C	0.978194	-0.325957	0.795906
C130	C	1.478194	0.174043	1.295906
H131	H	0.364698	-0.404723	0.404512
H132	H	0.864698	0.095277	0.904512
H133	H	0.592209	-0.247430	0.247724
H134	H	1.092209	0.252570	0.747724
C135	C	0.896479	-0.407601	1.148000
C136	C	1.396479	0.092399	1.648000
C137	C	0.887314	-0.416753	1.078489
C138	C	1.387314	0.083247	1.578489
H139	H	0.867096	-0.436972	1.171972
H140	H	1.367096	0.063028	1.671972
H141	H	0.886600	-0.362126	1.159593
H142	H	1.386600	0.137874	1.659593
H143	H	0.941956	-0.417509	1.159578
H144	H	1.441956	0.082491	1.659578
H145	H	0.841838	-0.406840	1.066910
H146	H	1.341838	0.093160	1.566910
H147	H	0.897188	-0.462239	1.066891
H148	H	1.397188	0.037761	1.566891
H149	H	1.056761	-0.247450	0.712723
H150	H	1.556761	0.252550	1.212723
H151	H	0.899637	-0.404459	0.940183
H152	H	1.399637	0.095541	1.440183
C153	C	0.849238	-0.454829	0.676749
C154	C	1.349238	0.045171	1.176749
C155	C	0.887261	-0.416831	0.722718
C156	C	1.387261	0.083169	1.222718
H157	H	0.819847	-0.484194	0.700719
H158	H	1.319847	0.015806	1.200719
H159	H	0.878709	-0.480726	0.649178
H160	H	1.378709	0.019274	1.149178
H161	H	0.823360	-0.425335	0.649182
H162	H	1.323360	0.074665	1.149182
H163	H	0.913142	-0.446325	0.750283
H164	H	1.413142	0.053675	1.250283
H165	H	0.857786	-0.390932	0.750301
H166	H	1.357786	0.109068	1.250301
C167	C	0.156879	-0.407930	0.407733
C168	C	0.656879	0.092070	0.907733
C169	C	0.226388	-0.417080	0.416843
C170	C	0.726388	0.082920	0.916843
H171	H	0.132900	-0.437344	0.437061
H172	H	0.632900	0.062656	0.937061
H173	H	0.145272	-0.417778	0.362244
H174	H	0.645272	0.082222	0.862244
H175	H	0.145325	-0.362465	0.417725
H176	H	0.645325	0.137535	0.917725
H177	H	0.237943	-0.462544	0.406845
H178	H	0.737943	0.037456	0.906845
H179	H	0.238000	-0.407237	0.462342
H180	H	0.738000	0.092763	0.962342
H181	H	0.236452	-0.247448	0.247747
H182	H	0.736452	0.252552	0.747747
H183	H	1.056792	-0.247400	0.940250
H184	H	1.556792	0.252600	1.440250
H185	H	0.899492	-0.583735	0.404555
H186	H	1.399492	-0.083735	0.904555
H187	H	0.720455	-0.247418	0.247711
H188	H	1.220455	0.252582	0.747711
C189	C	1.107164	-0.197056	1.032631
C190	C	1.607164	0.302944	1.532631
C191	C	1.069153	-0.235030	1.078565
C192	C	1.569153	0.264970	1.578565
H193	H	1.136563	-0.167682	1.056628
H194	H	1.636563	0.332318	1.556628
H195	H	1.077685	-0.171171	1.005062
H196	H	1.577685	0.328829	1.505062
H197	H	1.133031	-0.226565	1.005057
H198	H	1.633031	0.273435	1.505057
H199	H	1.043283	-0.205521	1.106136
H200	H	1.543283	0.294479	1.606136
H201	H	1.098636	-0.260917	1.106145
H202	H	1.598636	0.239083	1.606145
C203	C	0.925399	-0.460335	0.533674
C204	C	1.425399	0.039665	1.033674
C205	C	0.887247	-0.416865	0.574324
C206	C	1.387247	0.083135	1.074324
H207	H	0.896006	-0.489708	0.509668
H208	H	1.396006	0.010292	1.009668
H209	H	0.954870	-0.486222	0.561249
H210	H	1.454870	0.013778	1.061249
H211	H	0.951188	-0.434554	0.502528
H212	H	1.451188	0.065446	1.002528
H213	H	0.861463	-0.442646	0.605474
H214	H	1.361463	0.057354	1.105474
H215	H	0.857765	-0.390976	0.546747
H216	H	1.357765	0.109024	1.046747
C217	C	0.901770	-0.704912	0.483943
C218	C	1.401770	-0.204912	0.983943
C219	C	0.887202	-0.722051	0.416901
C220	C	1.387202	-0.222051	0.916901
H221	H	0.872389	-0.728905	0.513294
H222	H	1.372389	-0.228905	1.013294
H223	H	0.895552	-0.657762	0.490121
H224	H	1.395552	-0.157762	0.990121
H225	H	0.947247	-0.716456	0.493882
H226	H	1.447247	-0.216456	0.993882
H227	H	0.841726	-0.710502	0.406960
H228	H	1.341726	-0.210502	0.906960
H229	H	0.893415	-0.769211	0.410720
H230	H	1.393415	-0.269211	0.910720
H231	H	1.056695	-0.711948	0.247649
H232	H	1.556695	-0.211948	0.747649
C233	C	0.713485	-0.402526	0.483852
C234	C	1.213485	0.097474	0.983852
C235	C	0.730536	-0.417052	0.416794
C236	C	1.230536	0.082948	0.916794
H237	H	0.737473	-0.431934	0.513173
H238	H	1.237473	0.068066	1.013173
H239	H	0.666334	-0.408734	0.490034
H240	H	1.166334	0.091266	0.990034
H241	H	0.725096	-0.357059	0.493829
H242	H	1.225096	0.142941	0.993829
H243	H	0.718920	-0.462517	0.406816
H244	H	1.218920	0.037483	0.906816
H245	H	0.777697	-0.410849	0.410609
H246	H	1.277697	0.089151	0.910609
C247	C	0.512640	-0.407908	0.407696
C248	C	1.012640	0.092092	0.907696
C249	C	0.582149	-0.417059	0.416807
C250	C	1.082149	0.082941	0.916807
H251	H	0.488659	-0.437321	0.437024
H252	H	0.988659	0.062679	0.937024
H253	H	0.501033	-0.417754	0.362208
H254	H	1.001033	0.082246	0.862208
H255	H	0.501087	-0.362443	0.417689
H256	H	1.001087	0.137557	0.917689
H257	H	0.593703	-0.462524	0.406809
H258	H	1.093703	0.037476	0.906809
H259	H	0.593760	-0.407218	0.462306
H260	H	1.093760	0.092782	0.962306
C261	C	0.328805	-0.197049	0.197506
C262	C	0.828805	0.302951	0.697506
C263	C	0.374760	-0.235086	0.235426
C264	C	0.874760	0.264914	0.735426
H265	H	0.352786	-0.167633	0.168182
H266	H	0.852786	0.332367	0.668182
H267	H	0.301256	-0.171206	0.227047
H268	H	0.801256	0.328794	0.727047
H269	H	0.301213	-0.226516	0.171564
H270	H	0.801213	0.273484	0.671564
H271	H	0.402348	-0.205620	0.261373
H272	H	0.902348	0.294380	0.761373
H273	H	0.402320	-0.260931	0.205881
H274	H	0.902320	0.239069	0.705881
C275	C	1.107018	-0.619584	0.197353
C276	C	1.607018	-0.119584	0.697353
C277	C	1.068984	-0.573637	0.235300
C278	C	1.568984	-0.073637	0.735300
H279	H	1.136405	-0.595596	0.168004
H280	H	1.636405	-0.095596	0.668004
H281	H	1.077553	-0.647195	0.171442
H282	H	1.577553	-0.147195	0.671442
H283	H	1.132899	-0.647114	0.226880
H284	H	1.632899	-0.147114	0.726880
H285	H	1.043100	-0.546110	0.205773
H286	H	1.543100	-0.046110	0.705773
H287	H	1.098453	-0.546015	0.261213
H288	H	1.598453	-0.046015	0.761213
C289	C	1.107151	-0.975340	0.197421
C290	C	1.607151	-0.475340	0.697421
C291	C	1.069115	-0.929396	0.235369
C292	C	1.569115	-0.429396	0.735369
H293	H	1.136540	-0.951350	0.168076
H294	H	1.636540	-0.451350	0.668076
H295	H	1.077688	-1.002949	0.171506
H296	H	1.577688	-0.502949	0.671506
H297	H	1.133030	-1.002872	0.226948
H298	H	1.633030	-0.502872	0.726948
H299	H	1.043232	-0.901867	0.205842
H300	H	1.543232	-0.401867	0.705842
H301	H	1.098582	-0.901775	0.261286
H302	H	1.598582	-0.401775	0.761286
C303	C	1.112646	-1.118343	0.273628
C304	C	1.612646	-0.618343	0.773628
C305	C	1.069185	-1.077774	0.235396
C306	C	1.569185	-0.577774	0.735396
H307	H	1.142062	-1.142310	0.244288
H308	H	1.642062	-0.642310	0.744288
H309	H	1.086865	-1.149518	0.299375
H310	H	1.586865	-0.649518	0.799375
H311	H	1.138493	-1.090712	0.303141
H312	H	1.638493	-0.590712	0.803141
H313	H	1.043334	-1.105405	0.205886
H314	H	1.543334	-0.605405	0.705886
H315	H	1.094968	-1.046596	0.209637
H316	H	1.594968	-0.546596	0.709637
C317	C	0.849302	-1.031877	0.454926
C318	C	1.349302	-0.531877	0.954926
C319	C	0.887330	-1.077818	0.416965
C320	C	1.387330	-0.577818	0.916965
H321	H	0.819927	-1.055869	0.484283
H322	H	1.319927	-0.555869	0.984283
H323	H	0.823415	-1.004349	0.425413
H324	H	1.323415	-0.504349	0.925413
H325	H	0.878777	-1.004264	0.480836
H326	H	1.378777	-0.504264	0.980836
H327	H	0.857855	-1.105428	0.391052
H328	H	1.357855	-0.605428	0.891052
H329	H	0.913219	-1.105358	0.446482
H330	H	1.413219	-0.605358	0.946482
H331	H	0.899618	-0.939502	0.404618
H332	H	1.399618	-0.439502	0.904618
H333	H	1.056747	-0.247482	0.584489
H334	H	1.556747	0.252518	1.084489
