data_functionalizedCrystal
_audit_creation_method	'MofGen! by Chris Wilmer'
_symmetry_space_group_name_H-M	'P1'
_symmetry_Int_Tables_number	1
_symmetry_cell_setting	triclinic
loop_
_symmetry_equiv_pos_as_xyz
  x,y,z
_cell_length_a	13.897449
_cell_length_b	29.839131
_cell_length_c	13.897441
_cell_angle_alpha	90.042797
_cell_angle_beta	90.020733
_cell_angle_gamma	90.036508
loop_
_atom_site_label
_atom_site_type_symbol
_atom_site_fract_x
_atom_site_fract_y
_atom_site_fract_z
Zn1	Zn	1.474585	-0.178824	0.545299
Zn2	Zn	1.974585	0.321176	1.045299
Zn3	Zn	1.474430	-0.253959	0.383966
Zn4	Zn	1.974430	0.246041	0.883966
Zn5	Zn	1.313274	-0.178845	0.384018
Zn6	Zn	1.813274	0.321155	0.884018
Zn7	Zn	1.313207	-0.253929	0.545219
Zn8	Zn	1.813207	0.246071	1.045219
O9	O	1.393874	-0.216389	0.464626
O10	O	1.893874	0.283611	0.964626
O11	O	1.609546	-0.188794	0.523910
O12	O	2.109546	0.311206	1.023910
O13	O	1.453015	-0.244016	0.248992
O14	O	1.953015	0.255984	0.748992
O15	O	1.334766	-0.115975	0.405467
O16	O	1.834766	0.384025	0.905467
O17	O	1.609432	-0.243995	0.405380
O18	O	2.109432	0.256005	0.905380
O19	O	1.453280	-0.115959	0.523960
O20	O	1.953280	0.384041	1.023960
O21	O	1.334615	-0.188830	0.249029
O22	O	1.834615	0.311170	0.749029
O23	O	1.178284	-0.188802	0.405389
O24	O	1.678284	0.311198	0.905389
O25	O	1.334650	-0.243945	0.680211
O26	O	1.834650	0.256055	1.180211
O27	O	1.178234	-0.243966	0.523823
O28	O	1.678234	0.256034	1.023823
O29	O	1.453215	-0.188765	0.680270
O30	O	1.953215	0.311235	1.180270
O31	O	1.452950	-0.316822	0.405302
O32	O	1.952950	0.183178	0.905302
O33	O	1.334500	-0.316800	0.523773
O34	O	1.834500	0.183200	1.023773
C35	C	1.143260	-0.216383	0.464604
C36	C	1.643260	0.283617	0.964604
C37	C	1.036046	-0.216391	0.464617
C38	C	1.536046	0.283609	0.964617
C39	C	0.839750	-0.216393	0.464642
C40	C	1.339750	0.283607	0.964642
C41	C	0.948983	-0.216391	0.464626
C42	C	1.448983	0.283609	0.964626
C43	C	1.393727	-0.333112	0.464544
C44	C	1.893727	0.166888	0.964544
C45	C	1.393752	-0.383046	0.464542
C46	C	1.893752	0.116954	0.964542
C47	C	1.455571	-0.692646	0.526413
C48	C	1.955571	-0.192646	1.026413
C49	C	1.455676	-0.880319	0.526471
C50	C	1.955676	-0.380319	1.026471
O51	O	1.508092	-0.904548	0.579015
O52	O	2.008092	-0.404548	1.079015
N53	N	1.394038	-0.903831	0.464733
N54	N	1.894038	-0.403831	0.964733
C55	C	1.332365	-0.880422	0.402980
C56	C	1.832365	-0.380422	0.902980
O57	O	1.279933	-0.904726	0.350476
O58	O	1.779933	-0.404726	0.850476
C59	C	1.332256	-0.692750	0.402928
C60	C	1.832256	-0.192750	0.902928
C61	C	1.393905	-0.669240	0.464663
C62	C	1.893905	-0.169240	0.964663
C63	C	1.517214	-0.669137	0.588144
C64	C	2.017214	-0.169137	1.088144
C65	C	1.517191	-0.622222	0.588125
C66	C	2.017191	-0.122222	1.088125
C67	C	1.455525	-0.598816	0.526375
C68	C	1.955525	-0.098816	1.026375
C69	C	1.393882	-0.622325	0.464644
C70	C	1.893882	-0.122325	0.964644
C71	C	1.270579	-0.669341	0.341181
C72	C	1.770579	-0.169341	0.841181
C73	C	1.270555	-0.622420	0.341175
C74	C	1.770555	-0.122420	0.841175
C75	C	1.332204	-0.598911	0.402910
C76	C	1.832204	-0.098911	0.902910
C77	C	1.332192	-0.552003	0.402876
C78	C	1.832192	-0.052003	0.902876
N79	N	1.393830	-0.528492	0.464614
N80	N	1.893830	-0.028492	0.964614
C81	C	1.455496	-0.551898	0.526364
C82	C	1.955496	-0.051898	1.026364
C83	C	1.332428	-0.978952	0.403011
C84	C	1.832428	-0.478952	0.903011
C85	C	1.332456	-1.025870	0.403022
C86	C	1.832456	-0.525870	0.903022
C87	C	1.455766	-1.025765	0.526515
C88	C	1.955766	-0.525765	1.026515
C89	C	1.455742	-0.978846	0.526497
C90	C	1.955742	-0.478846	1.026497
C91	C	1.394065	-0.955441	0.464749
C92	C	1.894065	-0.455441	0.964749
C93	C	1.455444	-0.453372	0.526319
C94	C	1.955444	0.046628	1.026319
C95	C	1.455418	-0.406452	0.526292
C96	C	1.955418	0.093548	1.026292
C97	C	1.332105	-0.406562	0.402804
C98	C	1.832105	0.093438	0.902804
C99	C	1.332134	-0.453477	0.402827
C100	C	1.832134	0.046523	0.902827
C101	C	1.393807	-0.476881	0.464592
C102	C	1.893807	0.023119	0.964592
O103	O	1.279796	-0.527746	0.350366
O104	O	1.779796	-0.027746	0.850366
O105	O	1.507905	-0.527585	0.578874
O106	O	2.007905	-0.027585	1.078874
C107	C	1.455594	-0.739562	0.526432
C108	C	1.955594	-0.239562	1.026432
C109	C	1.393951	-0.763071	0.464701
C110	C	1.893951	-0.263071	0.964701
C111	C	1.332285	-0.739665	0.402951
C112	C	1.832285	-0.239665	0.902951
C113	C	1.393979	-0.809989	0.464712
C114	C	1.893979	-0.309989	0.964712
C115	C	1.455645	-0.833395	0.526462
C116	C	1.955645	-0.333395	1.026462
C117	C	1.517283	-0.809883	0.588200
C118	C	2.017283	-0.309883	1.088200
C119	C	1.517260	-0.762968	0.588181
C120	C	2.017260	-0.262968	1.088181
C121	C	1.270647	-0.763177	0.341213
C122	C	1.770647	-0.263177	0.841213
C123	C	1.270676	-0.810092	0.341236
C124	C	1.770676	-0.310092	0.841236
C125	C	1.332342	-0.833498	0.402986
C126	C	1.832342	-0.333498	0.902986
C127	C	1.645467	-0.216395	0.464648
C128	C	2.145467	0.283605	0.964648
C129	C	1.752681	-0.216398	0.464658
C130	C	2.252681	0.283602	0.964658
C131	C	1.393942	-0.216349	0.716219
C132	C	1.893942	0.283651	1.216219
C133	C	1.393971	-0.216332	0.823433
C134	C	1.893971	0.283668	1.323433
C135	C	1.394048	-0.099211	0.464728
C136	C	1.894048	0.400789	0.964728
C137	C	1.394122	-0.049276	0.464772
C138	C	1.894122	0.450724	0.964772
C139	C	1.393861	-0.216396	0.214011
C140	C	1.893861	0.283604	0.714011
C141	C	1.394019	-0.216287	0.106798
C142	C	1.894019	0.283713	0.606798
C143	C	1.393998	-0.216302	1.019728
C144	C	1.893998	0.283698	1.519728
C145	C	1.393980	-0.216320	0.910495
C146	C	1.893980	0.283680	1.410495
H147	H	1.505657	-0.472422	0.576621
H148	H	2.005657	0.027578	1.076621
N149	N	1.583785	-0.835128	0.654822
N150	N	2.083785	-0.335128	1.154822
H151	H	1.652714	-0.826946	0.639915
H152	H	2.152714	-0.326946	1.139915
H153	H	1.574359	-0.868410	0.645439
H154	H	2.074359	-0.368410	1.145439
H155	H	1.220378	-0.688474	0.290909
H156	H	1.720378	-0.188474	0.790909
H157	H	1.505941	-0.959707	0.576768
H158	H	2.005941	-0.459707	1.076768
H159	H	1.505978	-1.044830	0.576793
H160	H	2.005978	-0.544830	1.076793
H161	H	1.281942	-0.472620	0.352549
H162	H	1.781942	0.027380	0.852549
H163	H	1.220430	-0.744123	0.290930
H164	H	1.720430	-0.244123	0.790930
N165	N	1.521914	-0.381096	0.592879
N166	N	2.021914	0.118904	1.092879
H167	H	1.560979	-0.403046	0.632001
H168	H	2.060979	0.096954	1.132001
H169	H	1.482617	-0.361626	0.637475
H170	H	1.982617	0.138374	1.137475
N171	N	1.583672	-0.596867	0.654720
N172	N	2.083672	-0.096867	1.154720
H173	H	1.652604	-0.605012	0.639811
H174	H	2.152604	-0.105012	1.139811
H175	H	1.568565	-0.605025	0.723597
H176	H	2.068565	-0.105025	1.223597
N177	N	1.583706	-0.694378	0.654776
N178	N	2.083706	-0.194378	1.154776
H179	H	1.622738	-0.672359	0.693882
H180	H	2.122738	-0.172359	1.193882
H181	H	1.628391	-0.713846	0.615583
H182	H	2.128391	-0.213846	1.115583
H183	H	1.220328	-0.603366	0.290893
H184	H	1.720328	-0.103366	0.790893
H185	H	1.281900	-0.387497	0.352524
H186	H	1.781900	0.112503	0.852524
H187	H	1.282266	-1.045007	0.352741
H188	H	1.782266	-0.545007	0.852741
N189	N	1.265911	-0.953710	0.336399
N190	N	1.765911	-0.453710	0.836399
H191	H	1.196989	-0.961901	0.351313
H192	H	1.696989	-0.461901	0.851313
H193	H	1.281028	-0.961910	0.267526
H194	H	1.781028	-0.461910	0.767526
N195	N	1.583751	-0.737615	0.654769
N196	N	2.083751	-0.237615	1.154769
H197	H	1.622813	-0.759568	0.693886
H198	H	2.122813	-0.259568	1.193886
H199	H	1.544455	-0.718147	0.699371
H200	H	2.044455	-0.218147	1.199371
H201	H	1.220475	-0.829229	0.290955
H202	H	1.720475	-0.329229	0.790955
