data_functionalizedCrystal
_audit_creation_method	'MofGen! by Chris Wilmer'
_symmetry_space_group_name_H-M	'P1'
_symmetry_Int_Tables_number	1
_symmetry_cell_setting	triclinic
loop_
_symmetry_equiv_pos_as_xyz
  x,y,z
_cell_length_a	21.395362
_cell_length_b	19.077068
_cell_length_c	21.395355
_cell_angle_alpha	92.279051
_cell_angle_beta	89.956060
_cell_angle_gamma	92.343691
loop_
_atom_site_label
_atom_site_type_symbol
_atom_site_fract_x
_atom_site_fract_y
_atom_site_fract_z
Zn1	Zn	0.947861	-0.279990	-0.364586
Zn2	Zn	1.281194	0.053343	-0.031253
Zn3	Zn	1.614527	0.386677	0.302080
Zn4	Zn	0.943561	-0.397672	-0.264012
Zn5	Zn	1.276894	-0.064339	0.069321
Zn6	Zn	1.610227	0.268995	0.402655
Zn7	Zn	0.843074	-0.280023	-0.259789
Zn8	Zn	1.176408	0.053311	0.073545
Zn9	Zn	1.509741	0.386644	0.406878
Zn10	Zn	0.838842	-0.397686	-0.368717
Zn11	Zn	1.172175	-0.064353	-0.035384
Zn12	Zn	1.505508	0.268980	0.297949
O13	O	0.893334	-0.338843	-0.314276
O14	O	1.226668	-0.005509	0.019057
O15	O	1.560001	0.327824	0.352391
O16	O	1.034969	-0.295581	-0.351283
O17	O	1.368302	0.037752	-0.017950
O18	O	1.701636	0.371086	0.315383
O19	O	0.930203	-0.382073	-0.175774
O20	O	1.263536	-0.048740	0.157559
O21	O	1.596869	0.284594	0.490892
O22	O	0.860546	-0.181525	-0.270194
O23	O	1.193879	0.151808	0.063139
O24	O	1.527212	0.485141	0.396473
O25	O	1.031810	-0.382041	-0.277392
O26	O	1.365143	-0.048708	0.055941
O27	O	1.698476	0.284625	0.389275
O28	O	0.937532	-0.181501	-0.347188
O29	O	1.270865	0.151832	-0.013855
O30	O	1.604198	0.485165	0.319478
O31	O	0.856376	-0.295637	-0.172671
O32	O	1.189709	0.037697	0.160662
O33	O	1.523043	0.371030	0.493995
O34	O	0.754834	-0.295651	-0.274200
O35	O	1.088168	0.037683	0.059134
O36	O	1.421501	0.371016	0.392467
O37	O	0.853331	-0.382066	-0.455847
O38	O	1.186665	-0.048733	-0.122514
O39	O	1.519998	0.284601	0.210820
O40	O	0.751725	-0.382098	-0.354229
O41	O	1.085058	-0.048764	-0.020896
O42	O	1.418391	0.284569	0.312438
O43	O	0.933427	-0.295595	-0.452812
O44	O	1.266761	0.037738	-0.119479
O45	O	1.600094	0.371072	0.213855
O46	O	0.926098	-0.496167	-0.281398
O47	O	1.259432	-0.162833	0.051935
O48	O	1.592765	0.170500	0.385269
O49	O	0.849162	-0.496177	-0.358324
O50	O	1.182495	-0.162844	-0.024991
O51	O	1.515828	0.170489	0.308342
C52	C	0.730545	-0.338880	-0.314205
C53	C	1.063879	-0.005547	0.019129
C54	C	1.397212	0.327787	0.352462
C55	C	0.660903	-0.338913	-0.314190
C56	C	0.994236	-0.005579	0.019144
C57	C	1.327570	0.327754	0.352477
C58	C	0.626585	-0.383985	-0.355803
C59	C	0.959918	-0.050652	-0.022470
C60	C	1.293251	0.282681	0.310864
C61	C	0.561150	-0.383968	-0.355830
C62	C	0.894483	-0.050635	-0.022497
C63	C	1.227817	0.282699	0.310836
C64	C	0.530036	-0.338886	-0.314233
C65	C	0.863369	-0.005552	0.019100
C66	C	1.196702	0.327781	0.352433
C67	C	0.564362	-0.293804	-0.272617
C68	C	0.897695	0.039529	0.060717
C69	C	1.231029	0.372862	0.394050
C70	C	0.629796	-0.293818	-0.272595
C71	C	0.963129	0.039515	0.060738
C72	C	1.296462	0.372849	0.394072
C73	C	0.426513	-0.333216	-0.257626
C74	C	0.759847	0.000118	0.075708
C75	C	1.093180	0.333451	0.409041
C76	C	0.361081	-0.333207	-0.257647
C77	C	0.694414	0.000126	0.075687
C78	C	1.027747	0.333460	0.409020
C79	C	0.328216	-0.338840	-0.314301
C80	C	0.661550	-0.005506	0.019032
C81	C	0.994883	0.327827	0.352366
C82	C	0.360792	-0.344496	-0.370937
C83	C	0.694126	-0.011163	-0.037603
C84	C	1.027459	0.322171	0.295730
C85	C	0.426226	-0.344510	-0.370915
C86	C	0.759559	-0.011176	-0.037581
C87	C	1.092893	0.322157	0.295752
C88	C	0.459084	-0.338866	-0.314253
C89	C	0.792417	-0.005532	0.019081
C90	C	1.125751	0.327801	0.352414
C91	C	0.222946	-0.383896	-0.355947
C92	C	0.556280	-0.050563	-0.022614
C93	C	0.889613	0.282771	0.310719
C94	C	0.157511	-0.383874	-0.355976
C95	C	0.490844	-0.050541	-0.022642
C96	C	0.824177	0.282793	0.310691
C97	C	0.160724	-0.293714	-0.272756
C98	C	0.494057	0.039620	0.060577
C99	C	0.827390	0.372953	0.393910
C100	C	0.226158	-0.293732	-0.272734
C101	C	0.559492	0.039601	0.060600
C102	C	0.892825	0.372934	0.393933
C103	C	0.257266	-0.338827	-0.314328
C104	C	0.590599	-0.005494	0.019005
C105	C	0.923932	0.327840	0.352338
C106	C	0.886721	-0.521710	-0.320781
C107	C	1.220054	-0.188377	0.012552
C108	C	1.553388	0.144957	0.345885
C109	C	0.883949	-0.599942	-0.323585
C110	C	1.217283	-0.266608	0.009748
C111	C	1.550616	0.066725	0.343081
C112	C	0.922735	-0.636666	-0.284884
C113	C	1.256068	-0.303333	0.048449
C114	C	1.589402	0.030001	0.381782
C115	C	0.920132	-0.710173	-0.287525
C116	C	1.253465	-0.376839	0.045808
C117	C	1.586798	-0.043506	0.379141
C118	C	0.878739	-0.746954	-0.328864
C119	C	1.212072	-0.413620	0.004469
C120	C	1.545406	-0.080287	0.337802
C121	C	0.839952	-0.710224	-0.367570
C122	C	1.173285	-0.376891	-0.034236
C123	C	1.506619	-0.043558	0.299097
C124	C	0.842559	-0.636719	-0.364931
C125	C	1.175892	-0.303386	-0.031598
C126	C	1.509225	0.029948	0.301735
C127	C	0.866647	-0.966795	-0.341049
C128	C	1.199980	-0.633461	-0.007716
C129	C	1.533313	-0.300128	0.325618
C130	C	0.864041	-1.040305	-0.343683
C131	C	1.197375	-0.706972	-0.010350
C132	C	1.530708	-0.373639	0.322984
C133	C	0.944222	-1.040249	-0.263639
C134	C	1.277555	-0.706915	0.069694
C135	C	1.610889	-0.373582	0.403028
C136	C	0.946823	-0.966742	-0.261002
C137	C	1.280156	-0.633409	0.072331
C138	C	1.613489	-0.300075	0.405665
C139	C	0.908038	-0.930019	-0.299709
C140	C	1.241371	-0.596685	0.033624
C141	C	1.574705	-0.263352	0.366957
N142	N	0.876076	-0.822090	-0.331564
N143	N	1.209409	-0.488756	0.001770
N144	N	1.542742	-0.155423	0.335103
N145	N	0.910705	-0.854884	-0.297013
N146	N	1.244038	-0.521551	0.036320
N147	N	1.577372	-0.188218	0.369654
C148	C	1.056759	-0.338806	-0.314348
C149	C	1.390092	-0.005473	0.018985
C150	C	1.723426	0.327861	0.352319
C151	C	1.126401	-0.338790	-0.314379
C152	C	1.459734	-0.005457	0.018955
C153	C	1.793067	0.327877	0.352288
C154	C	0.893387	-0.338828	-0.477699
C155	C	1.226720	-0.005495	-0.144366
C156	C	1.560053	0.327838	0.188968
C157	C	0.893409	-0.338822	-0.547340
C158	C	1.226743	-0.005489	-0.214007
C159	C	1.560076	0.327844	0.119327
C160	C	0.899990	-0.155261	-0.307759
C161	C	1.233324	0.178072	0.025574
C162	C	1.566657	0.511406	0.358908
C163	C	0.902827	-0.077030	-0.304982
C164	C	1.236160	0.256304	0.028351
C165	C	1.569493	0.589637	0.361685
C166	C	0.935113	-0.293795	-0.578474
C167	C	1.268447	0.039538	-0.245140
C168	C	1.601780	0.372872	0.088193
C169	C	0.935114	-0.293765	-0.643908
C170	C	1.268447	0.039569	-0.310575
C171	C	1.601780	0.372902	0.022759
C172	C	0.893416	-0.338774	-0.678207
C173	C	1.226749	-0.005441	-0.344873
C174	C	1.560082	0.327892	-0.011540
C175	C	0.851704	-0.383805	-0.647065
C176	C	1.185037	-0.050472	-0.313732
C177	C	1.518370	0.282862	0.019601
C178	C	0.851700	-0.383829	-0.581632
C179	C	1.185034	-0.050496	-0.248299
C180	C	1.518367	0.282838	0.085035
C181	C	0.886177	-0.402150	-0.784134
C182	C	1.219510	-0.068817	-0.450801
C183	C	1.552843	0.264517	-0.117468
C184	C	0.886184	-0.402127	-0.849566
C185	C	1.219518	-0.068794	-0.516233
C186	C	1.552851	0.264539	-0.182900
C187	C	0.893422	-0.338700	-0.880025
C188	C	1.226756	-0.005367	-0.546692
C189	C	1.560089	0.327967	-0.213358
C190	C	0.900666	-0.275294	-0.845043
C191	C	1.233999	0.058040	-0.511710
C192	C	1.567333	0.391373	-0.178376
C193	C	0.900663	-0.275318	-0.779610
C194	C	1.233996	0.058016	-0.446276
C195	C	1.567329	0.391349	-0.112943
C196	C	0.893414	-0.338753	-0.749158
C197	C	1.226748	-0.005420	-0.415825
C198	C	1.560081	0.327914	-0.082492
C199	C	0.935129	-0.293636	-0.982110
C200	C	1.268462	0.039697	-0.648777
C201	C	1.601796	0.373031	-0.315443
C202	C	0.935125	-0.293605	-1.047545
C203	C	1.268458	0.039729	-0.714212
C204	C	1.601792	0.373062	-0.380879
C205	C	0.851718	-0.383651	-1.050701
C206	C	1.185051	-0.050318	-0.717368
C207	C	1.518385	0.283016	-0.384035
C208	C	0.851719	-0.383676	-0.985267
C209	C	1.185052	-0.050343	-0.651934
C210	C	1.518386	0.282990	-0.318600
C211	C	0.893428	-0.338670	-0.950975
C212	C	1.226761	-0.005336	-0.617642
C213	C	1.560095	0.327997	-0.284308
C214	C	0.893320	-0.338806	-0.151487
C215	C	1.226653	-0.005473	0.181846
C216	C	1.559987	0.327861	0.515179
C217	C	0.893426	-0.338614	-0.081839
C218	C	1.226759	-0.005281	0.251494
C219	C	1.560093	0.328053	0.584827
H220	H	0.651908	-0.420704	-0.389674
H221	H	0.985241	-0.087371	-0.056340
H222	H	1.318575	0.245962	0.276993
H223	H	0.817751	-0.420450	-0.674995
H224	H	1.151084	-0.087117	-0.341662
H225	H	1.484418	0.246217	-0.008329
Cl226	Cl	0.672941	-0.237151	-0.220276
Cl227	Cl	1.006274	0.096183	0.113057
Cl228	Cl	1.339607	0.429516	0.446390
Cl229	Cl	0.262056	-0.440581	-0.408240
Cl230	Cl	0.595389	-0.107248	-0.074907
Cl231	Cl	0.928723	0.226086	0.258426
Cl232	Cl	0.787919	-0.756463	-0.419543
Cl233	Cl	1.121252	-0.423130	-0.086210
Cl234	Cl	1.454585	-0.089797	0.247124
Cl235	Cl	0.987534	-0.237140	-0.683056
Cl236	Cl	1.320867	0.096193	-0.349722
Cl237	Cl	1.654200	0.429526	-0.016389
Cl238	Cl	0.793800	-0.590551	-0.413588
Cl239	Cl	1.127133	-0.257217	-0.080255
Cl240	Cl	1.460466	0.076116	0.253078
H241	H	0.880115	-0.453787	-0.759340
H242	H	1.213449	-0.120454	-0.426007
H243	H	1.546782	0.212880	-0.092674
Cl244	Cl	0.992981	-1.086419	-0.214986
Cl245	Cl	1.326314	-0.753086	0.118348
Cl246	Cl	1.659648	-0.419752	0.451681
H247	H	0.906559	-0.223690	-0.751130
H248	H	1.239892	0.109643	-0.417797
H249	H	1.573226	0.442977	-0.084464
H250	H	0.906561	-0.223645	-0.869841
H251	H	1.239894	0.109688	-0.536507
H252	H	1.573228	0.443022	-0.203174
H253	H	0.969088	-0.256985	-0.954188
H254	H	1.302421	0.076348	-0.620854
H255	H	1.635754	0.409682	-0.287521
Cl256	Cl	0.987568	-0.237004	-1.086686
Cl257	Cl	1.320901	0.096329	-0.753352
Cl258	Cl	1.654234	0.429662	-0.420019
Cl259	Cl	0.467177	-0.351615	-0.442110
Cl260	Cl	0.800510	-0.018282	-0.108777
Cl261	Cl	1.133844	0.315051	0.224557
Cl262	Cl	0.799292	-0.440229	-1.093813
Cl263	Cl	1.132625	-0.106896	-0.760480
Cl264	Cl	1.465958	0.226438	-0.427147
Cl265	Cl	0.974770	-0.590434	-0.232908
Cl266	Cl	1.308103	-0.257101	0.100425
Cl267	Cl	1.641437	0.076232	0.433758
Cl268	Cl	0.817887	-0.920638	-0.389709
Cl269	Cl	1.151220	-0.587305	-0.056376
Cl270	Cl	1.484553	-0.253971	0.276958
Cl271	Cl	0.968895	-0.756338	-0.238872
Cl272	Cl	1.302229	-0.423004	0.094461
Cl273	Cl	1.635562	-0.089671	0.427795
H274	H	0.880290	-0.453757	-0.878044
H275	H	1.213623	-0.120423	-0.544710
H276	H	1.546957	0.212910	-0.211377
H277	H	0.129570	-0.420576	-0.389866
H278	H	0.462903	-0.087243	-0.056533
H279	H	0.796236	0.246091	0.276801
Cl280	Cl	0.987544	-0.237211	-0.535367
Cl281	Cl	1.320877	0.096122	-0.202034
Cl282	Cl	1.654210	0.429455	0.131299
Cl283	Cl	0.799268	-0.440440	-0.542490
Cl284	Cl	1.132602	-0.107107	-0.209157
Cl285	Cl	1.465935	0.226227	0.124176
H286	H	0.539024	-0.257097	-0.238749
H287	H	0.872358	0.076237	0.094584
H288	H	1.205691	0.409570	0.427917
Cl289	Cl	0.998870	-0.920508	-0.209039
Cl290	Cl	1.332203	-0.587175	0.124294
Cl291	Cl	1.665537	-0.253842	0.457627
H292	H	0.135391	-0.257003	-0.238890
H293	H	0.468724	0.076330	0.094443
H294	H	0.802058	0.409663	0.427777
Cl295	Cl	0.269304	-0.237068	-0.220415
Cl296	Cl	0.602637	0.096265	0.112919
Cl297	Cl	0.935970	0.429598	0.446252
H298	H	0.817763	-0.420347	-0.959918
H299	H	1.151096	-0.087013	-0.626585
H300	H	1.484429	0.246320	-0.293251
H301	H	0.533203	-0.420671	-0.389719
H302	H	0.866536	-0.087338	-0.056386
H303	H	1.199869	0.245995	0.276947
Cl304	Cl	0.319485	-0.351573	-0.442165
Cl305	Cl	0.652819	-0.018240	-0.108831
Cl306	Cl	0.986152	0.315093	0.224502
H307	H	0.334562	-0.328606	-0.211530
H308	H	0.667896	0.004728	0.121803
H309	H	1.001229	0.338061	0.455136
Cl310	Cl	0.811993	-1.086543	-0.395648
Cl311	Cl	1.145326	-0.753210	-0.062315
Cl312	Cl	1.478659	-0.419877	0.271019
Cl313	Cl	0.467821	-0.326137	-0.186396
Cl314	Cl	0.801155	0.007197	0.146938
Cl315	Cl	1.134488	0.340530	0.480271
