data_functionalizedCrystal
_audit_creation_method	'MofGen! by Chris Wilmer'
_symmetry_space_group_name_H-M	'P1'
_symmetry_Int_Tables_number	1
_symmetry_cell_setting	triclinic
loop_
_symmetry_equiv_pos_as_xyz
  x,y,z
_cell_length_a	12.645330
_cell_length_b	12.645331
_cell_length_c	12.645323
_cell_angle_alpha	89.978207
_cell_angle_beta	89.973156
_cell_angle_gamma	90.016671
loop_
_atom_site_label
_atom_site_type_symbol
_atom_site_fract_x
_atom_site_fract_y
_atom_site_fract_z
Zn1	Zn	-0.422039	1.620722	-0.599446
Zn2	Zn	-0.599333	1.620606	-0.422186
Zn3	Zn	-0.422081	1.443439	-0.422191
Zn4	Zn	-0.599258	1.443418	-0.599402
O5	O	-0.510678	1.532047	-0.510806
O6	O	-0.445572	1.769054	-0.575949
O7	O	-0.575869	1.597065	-0.273840
O8	O	-0.273728	1.467013	-0.445724
O9	O	-0.575829	1.768969	-0.445717
O10	O	-0.273697	1.597262	-0.575953
O11	O	-0.445643	1.466901	-0.273843
O12	O	-0.445570	1.295089	-0.445681
O13	O	-0.575700	1.466978	-0.747755
O14	O	-0.575741	1.295074	-0.575877
O15	O	-0.445499	1.597242	-0.747788
O16	O	-0.747671	1.597045	-0.445674
O17	O	-0.747615	1.466866	-0.575873
C18	C	-0.510653	1.256617	-0.510776
C19	C	-0.510667	1.138787	-0.510788
C20	C	-0.786108	1.531969	-0.510791
C21	C	-0.903938	1.532033	-0.510821
C22	C	-0.428400	0.971197	-0.429333
C23	C	-0.428613	1.093757	-0.428974
C24	C	-0.622343	1.094267	-0.480273
C25	C	-0.621893	0.971668	-0.479717
C26	C	-0.482323	0.971636	-0.623072
C27	C	-0.479828	1.094241	-0.622448
C28	C	-1.071511	1.450475	-0.592982
C29	C	-0.948951	1.450058	-0.592717
C30	C	-0.948535	1.501789	-0.399099
C31	C	-1.071133	1.501292	-0.399597
C32	C	-1.071028	1.644334	-0.539475
C33	C	-0.948421	1.643646	-0.541918
C34	C	-0.234173	1.532153	-0.510844
C35	C	-0.116343	1.532198	-0.510861
C36	C	-0.510586	1.532120	-0.787312
C37	C	-0.510547	1.532152	-0.905142
C38	C	-0.510704	1.808552	-0.510838
C39	C	-0.510715	1.926382	-0.510851
C40	C	-0.592441	1.450207	-0.950003
C41	C	-0.592133	1.449919	-1.072563
C42	C	-0.398649	1.502283	-1.073044
C43	C	-0.399189	1.501655	-0.950446
C44	C	-0.539437	1.644240	-0.950333
C45	C	-0.541835	1.643672	-1.072939
C46	C	-0.510693	1.532034	-0.235377
C47	C	-0.510433	1.532208	-0.117547
H48	H	-0.345802	1.123857	-0.448100
H49	H	-1.101870	1.671922	-0.619558
F50	F	-0.372419	1.132295	-0.652535
F51	F	-1.108638	1.394149	-0.367914
F52	F	-0.644221	1.679916	-0.909930
H53	H	-0.919716	1.366926	-0.573760
F54	F	-0.366102	1.396402	-1.113170
H55	H	-0.919380	1.559426	-0.336240
F56	F	-0.908529	1.395761	-0.366841
F57	F	-0.560686	0.933757	-0.702462
F58	F	-1.109905	1.575708	-0.316889
H59	H	-0.675012	1.468602	-1.102653
F60	F	-0.649366	1.673178	-1.110956
F61	F	-0.908356	1.727426	-0.469439
F62	F	-0.653361	0.934225	-0.372486
H63	H	-0.479786	1.705289	-0.921328
F64	F	-1.109953	1.474975	-0.701619
F65	F	-0.567712	1.342263	-0.909739
F66	F	-0.319831	0.932686	-0.454061
H67	H	-0.486539	1.707980	-1.103564
H68	H	-0.919268	1.666453	-0.624140
H69	H	-0.335930	1.560155	-1.102181
H70	H	-1.100019	1.705220	-0.479663
F71	F	-0.453137	1.132032	-0.320277
F72	F	-0.452639	0.930861	-0.321278
H73	H	-0.675612	1.468654	-0.920527
H74	H	-0.572951	1.366879	-1.101889
F75	F	-0.909531	1.474788	-0.700997
F76	F	-0.367240	1.394578	-0.913062
F77	F	-1.111918	1.342497	-0.568537
F78	F	-0.316689	1.576302	-0.911651
H79	H	-0.535408	1.124898	-0.686433
H80	H	-0.685313	1.123435	-0.537783
F81	F	-0.704774	0.932916	-0.553933
H82	H	-0.646833	1.124924	-0.399115
H83	H	-0.402311	0.940739	-0.650823
