data_functionalizedCrystal
_audit_creation_method	'MofGen! by Chris Wilmer'
_symmetry_space_group_name_H-M	'P1'
_symmetry_Int_Tables_number	1
_symmetry_cell_setting	triclinic
loop_
_symmetry_equiv_pos_as_xyz
  x,y,z
_cell_length_a	16.625548
_cell_length_b	13.897448
_cell_length_c	13.897433
_cell_angle_alpha	89.928482
_cell_angle_beta	89.950353
_cell_angle_gamma	90.018760
loop_
_atom_site_label
_atom_site_type_symbol
_atom_site_fract_x
_atom_site_fract_y
_atom_site_fract_z
Zn1	Zn	1.232939	-0.383567	-0.545411
Zn2	Zn	1.732939	0.116433	-0.045411
Zn3	Zn	1.232785	-0.545004	-0.384112
Zn4	Zn	1.732785	-0.045004	0.115888
Zn5	Zn	1.098032	-0.383728	-0.384126
Zn6	Zn	1.598032	0.116272	0.115874
Zn7	Zn	1.098082	-0.544825	-0.545362
Zn8	Zn	1.598082	-0.044825	-0.045362
O9	O	1.165459	-0.464281	-0.464753
O10	O	1.665459	0.035719	0.035247
O11	O	1.345751	-0.404990	-0.524029
O12	O	1.845751	0.095010	-0.024029
O13	O	1.214824	-0.523752	-0.249132
O14	O	1.714824	-0.023752	0.250868
O15	O	1.115971	-0.248725	-0.405547
O16	O	1.615971	0.251275	0.094453
O17	O	1.345638	-0.523597	-0.405524
O18	O	1.845638	-0.023597	0.094476
O19	O	1.215087	-0.248607	-0.524043
O20	O	1.715087	0.251393	-0.024043
O21	O	1.115822	-0.405263	-0.249142
O22	O	1.615822	0.094737	0.250858
O23	O	0.985206	-0.405090	-0.405500
O24	O	1.485206	0.094910	0.094500
O25	O	1.116057	-0.523291	-0.680351
O26	O	1.616057	-0.023291	-0.180351
O27	O	0.985243	-0.523447	-0.523959
O28	O	1.485243	-0.023447	-0.023959
O29	O	1.215135	-0.404816	-0.680387
O30	O	1.715135	0.095184	-0.180387
O31	O	1.214873	-0.679962	-0.405476
O32	O	1.714873	-0.179962	0.094524
O33	O	1.115907	-0.679830	-0.523946
O34	O	1.615907	-0.179830	-0.023946
C35	C	1.165401	-0.714895	-0.464725
C36	C	1.665401	-0.214895	0.035275
C37	C	1.165449	-0.822109	-0.464745
C38	C	1.665449	-0.322109	0.035255
C39	C	0.955969	-0.464267	-0.464726
C40	C	1.455969	0.035733	0.035274
C41	C	0.866347	-0.464284	-0.464737
C42	C	1.366347	0.035716	0.035263
C43	C	1.165534	-1.018404	-0.464806
C44	C	1.665534	-0.518404	0.035194
C45	C	1.165484	-0.909172	-0.464775
C46	C	1.665484	-0.409172	0.035225
C47	C	0.538172	-0.464291	-0.464779
C48	C	1.038172	0.035709	0.035221
C49	C	0.629480	-0.464286	-0.464764
C50	C	1.129480	0.035714	0.035236
C51	C	0.702257	-0.464288	-0.464757
C52	C	1.202257	0.035712	0.035243
C53	C	0.793571	-0.464283	-0.464744
C54	C	1.293571	0.035717	0.035256
C55	C	1.375768	-0.464295	-0.464781
C56	C	1.875768	0.035705	0.035219
C57	C	1.465389	-0.464302	-0.464792
C58	C	1.965389	0.035698	0.035208
C59	C	1.165619	-0.464016	-0.716347
C60	C	1.665619	0.035984	-0.216347
C61	C	1.165686	-0.463903	-0.823561
C62	C	1.665686	0.036097	-0.323561
C63	C	1.165540	-0.212688	-0.464802
C64	C	1.665540	0.287312	0.035198
C65	C	1.165575	-0.105474	-0.464823
C66	C	1.665575	0.394526	0.035177
C67	C	1.165347	-0.464475	-0.214138
C68	C	1.665347	0.035525	0.285862
C69	C	1.165436	-0.464316	-0.106925
C70	C	1.665436	0.035684	0.393075
C71	C	1.165615	-0.464033	0.089370
C72	C	1.665615	0.035967	0.589370
C73	C	1.165518	-0.464193	-0.019862
C74	C	1.665518	0.035807	0.480138
