data_functionalizedCrystal
_audit_creation_method	'MofGen! by Chris Wilmer'
_symmetry_space_group_name_H-M	'P1'
_symmetry_Int_Tables_number	1
_symmetry_cell_setting	triclinic
loop_
_symmetry_equiv_pos_as_xyz
  x,y,z
_cell_length_a	29.839135
_cell_length_b	18.050589
_cell_length_c	18.050582
_cell_angle_alpha	89.981795
_cell_angle_beta	89.981854
_cell_angle_gamma	90.030751
loop_
_atom_site_label
_atom_site_type_symbol
_atom_site_fract_x
_atom_site_fract_y
_atom_site_fract_z
Zn1	Zn	0.686773	-0.295656	-0.419999
Zn2	Zn	1.186773	0.204344	0.080001
Zn3	Zn	0.686719	-0.419840	-0.295818
Zn4	Zn	1.186719	0.080160	0.204182
Zn5	Zn	0.611652	-0.295674	-0.295816
Zn6	Zn	1.111652	0.204326	0.204184
Zn7	Zn	0.611620	-0.419815	-0.419960
Zn8	Zn	1.111620	0.080185	0.080040
O9	O	0.649191	-0.357746	-0.357898
O10	O	1.149191	0.142254	0.142102
O11	O	0.749633	-0.312133	-0.403543
O12	O	1.249633	0.187867	0.096457
O13	O	0.676751	-0.403387	-0.191893
O14	O	1.176751	0.096613	0.308107
O15	O	0.621653	-0.191747	-0.312305
O16	O	1.121653	0.308253	0.187695
O17	O	0.749593	-0.403370	-0.312309
O18	O	1.249593	0.096630	0.187691
O19	O	0.676843	-0.191734	-0.403541
O20	O	1.176843	0.308266	0.096459
O21	O	0.621600	-0.312162	-0.191892
O22	O	1.121600	0.187838	0.308108
O23	O	0.548781	-0.312138	-0.312267
O24	O	1.048781	0.187862	0.187733
O25	O	0.621599	-0.403327	-0.523890
O26	O	1.121599	0.096673	-0.023890
O27	O	0.548758	-0.403344	-0.403475
O28	O	1.048758	0.096656	0.096525
O29	O	0.676813	-0.312109	-0.523918
O30	O	1.176813	0.187891	-0.023918
O31	O	0.676721	-0.523761	-0.312271
O32	O	1.176721	-0.023761	0.187729
O33	O	0.621547	-0.523743	-0.403477
O34	O	1.121547	-0.023743	0.096523
C35	C	0.532468	-0.357740	-0.357867
C36	C	1.032468	0.142260	0.142133
C37	C	0.482534	-0.357756	-0.357871
C38	C	0.982534	0.142244	0.142129
C39	C	0.649137	-0.550698	-0.357886
C40	C	1.149137	-0.050698	0.142114
C41	C	0.649155	-0.633244	-0.357906
C42	C	1.149155	-0.133244	0.142094
C43	C	0.619180	-0.832712	-0.407486
C44	C	1.119180	-0.332712	0.092514
C45	C	0.608232	-0.882146	-0.339718
C46	C	1.108232	-0.382146	0.160282
C47	C	0.649199	-0.784374	-0.357915
C48	C	1.149199	-0.284374	0.142085
C49	C	0.660169	-0.882021	-0.425691
C50	C	1.160169	-0.382021	0.074309
C51	C	0.649241	-0.930359	-0.357931
C52	C	1.149241	-0.430359	0.142069
C53	C	0.638229	-0.832722	-0.290111
C54	C	1.138229	-0.332722	0.209889
C55	C	0.690185	-0.832593	-0.376130
C56	C	1.190185	-0.332593	0.123870
C57	C	0.679252	-0.882005	-0.308315
C58	C	1.179252	-0.382005	0.191685
C59	C	0.649174	-0.700276	-0.357907
C60	C	1.149174	-0.200276	0.142093
C61	C	0.649266	-1.014456	-0.357931
C62	C	1.149266	-0.514456	0.142069
C63	C	0.172908	-0.310311	-0.405474
C64	C	0.672908	0.189689	0.094526
C65	C	-0.014765	-0.310316	-0.405495
C66	C	0.485235	0.189684	0.094505
O67	O	-0.039015	-0.269960	-0.445935
O68	O	0.460985	0.230040	0.054065
N69	N	-0.038251	-0.357747	-0.357926
N70	N	0.461749	0.142253	0.142074
C71	C	-0.014816	-0.405176	-0.310344
C72	C	0.485184	0.094824	0.189656
O73	O	-0.039099	-0.445514	-0.269878
O74	O	0.460901	0.054486	0.230122
C75	C	0.172856	-0.405167	-0.310319
C76	C	0.672856	0.094833	0.189681
C77	C	0.196340	-0.357738	-0.357898
C78	C	0.696340	0.142262	0.142102
C79	C	0.196392	-0.262886	-0.453048
C80	C	0.696392	0.237114	0.046952
C81	C	0.243308	-0.262888	-0.453045
C82	C	0.743308	0.237112	0.046955
C83	C	0.266739	-0.310315	-0.405469
C84	C	0.766739	0.189685	0.094531
C85	C	0.243255	-0.357740	-0.357895
C86	C	0.743255	0.142260	0.142105
C87	C	0.196290	-0.452592	-0.262734
C88	C	0.696290	0.047408	0.237266
C89	C	0.243211	-0.452584	-0.262731
C90	C	0.743211	0.047416	0.237269
C91	C	0.266695	-0.405156	-0.310309
C92	C	0.766695	0.094844	0.189691
C93	C	0.313602	-0.405170	-0.310315
C94	C	0.813602	0.094830	0.189685
N95	N	0.337088	-0.357739	-0.357885
N96	N	0.837088	0.142261	0.142115
C97	C	0.313657	-0.310312	-0.405462
C98	C	0.813657	0.189688	0.094538
C99	C	-0.113347	-0.405179	-0.310361
C100	C	0.386653	0.094821	0.189639
C101	C	-0.160265	-0.405182	-0.310368
C102	C	0.339735	0.094818	0.189632
C103	C	-0.160210	-0.310321	-0.405519
C104	C	0.339790	0.189679	0.094481
C105	C	-0.113291	-0.310322	-0.405515
C106	C	0.386709	0.189678	0.094485
C107	C	-0.089861	-0.357748	-0.357931
C108	C	0.410139	0.142252	0.142069
C109	C	0.412183	-0.310320	-0.405452
C110	C	0.912183	0.189680	0.094548
C111	C	0.459102	-0.310329	-0.405447
C112	C	0.959102	0.189671	0.094553
C113	C	0.459044	-0.405187	-0.310294
C114	C	0.959044	0.094813	0.189706
C115	C	0.412128	-0.405181	-0.310301
C116	C	0.912128	0.094819	0.189699
C117	C	0.388699	-0.357742	-0.357883
C118	C	0.888699	0.142258	0.142117
O119	O	0.337881	-0.445499	-0.269891
O120	O	0.837881	0.054501	0.230109
O121	O	0.337948	-0.269969	-0.445910
O122	O	0.837948	0.230031	0.054090
C123	C	0.125993	-0.310309	-0.405477
C124	C	0.625993	0.189691	0.094523
C125	C	0.102509	-0.357734	-0.357903
C126	C	0.602509	0.142266	0.142097
C127	C	0.125940	-0.405162	-0.310327
C128	C	0.625940	0.094838	0.189673
C129	C	0.055591	-0.357738	-0.357910
C130	C	0.555591	0.142262	0.142090
C131	C	0.032159	-0.310310	-0.405487
C132	C	0.532159	0.189690	0.094513
C133	C	0.055646	-0.262880	-0.453057
C134	C	0.555646	0.237120	0.046943
C135	C	0.102561	-0.262882	-0.453054
C136	C	0.602561	0.237118	0.046946
C137	C	0.102454	-0.452592	-0.262757
C138	C	0.602454	0.047408	0.237243
C139	C	0.055539	-0.452587	-0.262764
C140	C	0.555539	0.047413	0.237236
C141	C	0.032107	-0.405160	-0.310341
C142	C	0.532107	0.094840	0.189659
C143	C	0.766369	-0.357752	-0.357931
C144	C	1.266369	0.142248	0.142069
C145	C	0.816304	-0.357755	-0.357944
C146	C	1.316304	0.142245	0.142056
C147	C	0.649209	-0.357713	-0.551604
C148	C	1.149209	0.142287	-0.051604
C149	C	0.649216	-0.357699	-0.634150
C150	C	1.149216	0.142301	-0.134150
C151	C	0.649258	-0.164041	-0.357927
C152	C	1.149258	0.335959	0.142073
C153	C	0.649286	-0.081495	-0.357939
C154	C	1.149286	0.418505	0.142061
C155	C	0.619214	-0.407236	-0.833585
C156	C	1.119214	0.092764	-0.333585
C157	C	0.660201	-0.425387	-0.882982
C158	C	1.160201	0.074613	-0.382982
C159	C	0.649238	-0.357642	-0.785280
C160	C	1.149238	0.142358	-0.285280
C161	C	0.608274	-0.339471	-0.882966
C162	C	1.108274	0.160529	-0.382966
C163	C	0.649256	-0.357589	-0.931266
C164	C	1.149256	0.142411	-0.431266
C165	C	0.690247	-0.375828	-0.833590
C166	C	1.190247	0.124172	-0.333590
C167	C	0.638292	-0.289882	-0.833569
C168	C	1.138292	0.210118	-0.333569
C169	C	0.679307	-0.308007	-0.882943
C170	C	1.179307	0.191993	-0.382943
C171	C	0.649227	-0.357675	-0.701182
C172	C	1.149227	0.142325	-0.201182
C173	C	0.649271	-0.357556	-1.015362
C174	C	1.149271	0.142444	-0.515362
C175	C	0.649199	-0.357725	-0.164946
C176	C	1.149199	0.142275	0.335054
C177	C	0.649279	-0.357530	-0.082401
C178	C	1.149279	0.142470	0.417599
H179	H	0.593757	-0.811067	-0.449347
H180	H	1.093757	-0.311067	0.050653
H181	H	0.036422	-0.491216	-0.224021
H182	H	0.536422	0.008784	0.275979
O183	O	0.566878	-0.908082	-0.321461
O184	O	1.066878	-0.408082	0.178539
C185	C	0.535306	-0.882957	-0.373841
C186	C	1.035306	-0.382957	0.126159
H187	H	0.553146	-0.869045	-0.427945
H188	H	1.053146	-0.369045	0.072055
H189	H	0.509380	-0.928189	-0.384215
H190	H	1.009380	-0.428189	0.115785
H191	H	0.517861	-0.831323	-0.351721
H192	H	1.017861	-0.331323	0.148279
H193	H	0.262424	-0.224265	-0.491787
H194	H	0.762424	0.275735	0.008213
H195	H	0.669431	-0.903677	-0.483003
H196	H	1.169431	-0.403677	0.016997
H197	H	-0.179381	-0.443812	-0.271633
H198	H	0.320619	0.056188	0.228367
O199	O	0.588901	-0.457228	-0.807688
O200	O	1.088901	0.042772	-0.307688
C201	C	0.556370	-0.420350	-0.764703
C202	C	1.056370	0.079650	-0.264703
H203	H	0.555007	-0.359515	-0.781528
H204	H	1.055007	0.140485	-0.281528
H205	H	0.522203	-0.446969	-0.774248
H206	H	1.022203	0.053031	-0.274248
H207	H	0.565595	-0.424744	-0.703575
H208	H	1.065595	0.075256	-0.203575
O209	O	0.173434	-0.498559	-0.216479
O210	O	0.673434	0.001441	0.283521
C211	C	0.146307	-0.456210	-0.168573
C212	C	0.646307	0.043790	0.331427
H213	H	0.139297	-0.399970	-0.194866
H214	H	0.639297	0.100030	0.305134
H215	H	0.113305	-0.486451	-0.158563
H216	H	0.613305	0.013549	0.341437
H217	H	0.164383	-0.447966	-0.113554
H218	H	0.664383	0.052034	0.386446
O219	O	0.265901	-0.498729	-0.216485
O220	O	0.765901	0.001271	0.283515
C221	C	0.235109	-0.540573	-0.174485
C222	C	0.735109	-0.040573	0.325515
H223	H	0.201670	-0.543182	-0.204904
H224	H	0.701670	-0.043182	0.295096
H225	H	0.248641	-0.599077	-0.166461
H226	H	0.748641	-0.099077	0.333539
H227	H	0.230116	-0.513298	-0.118129
H228	H	0.730116	-0.013298	0.381871
O229	O	0.627055	-0.806966	-0.221766
O230	O	1.127055	-0.306966	0.278234
C231	C	0.587912	-0.763555	-0.226922
C232	C	1.087912	-0.263555	0.273078
H233	H	0.568373	-0.779984	-0.278636
H234	H	1.068373	-0.279984	0.221364
H235	H	0.566215	-0.773068	-0.175800
H236	H	1.066215	-0.273068	0.324200
H237	H	0.597496	-0.702511	-0.230500
H238	H	1.097496	-0.202511	0.269500
O239	O	0.389382	-0.451283	-0.264022
O240	O	0.889382	0.048717	0.235978
C241	C	0.420127	-0.493161	-0.222047
C242	C	0.920127	0.006839	0.277953
H243	H	0.453582	-0.462741	-0.219528
H244	H	0.953582	0.037259	0.280472
H245	H	0.406558	-0.501004	-0.163521
H246	H	0.906558	-0.001004	0.336479
H247	H	0.425102	-0.549601	-0.249150
H248	H	0.925102	-0.049601	0.250850
H249	H	0.573623	-0.324124	-0.904655
H250	H	1.073623	0.175876	-0.404655
H251	H	0.629011	-0.232617	-0.811849
H252	H	1.129011	0.267383	-0.311849
O253	O	0.671186	-0.493765	-0.908846
O254	O	1.171186	0.006235	-0.408846
C255	C	0.639445	-0.545916	-0.883688
C256	C	1.139445	-0.045916	-0.383688
H257	H	0.606741	-0.516386	-0.869820
H258	H	1.106741	-0.016386	-0.369820
H259	H	0.633137	-0.588770	-0.928882
H260	H	1.133137	-0.088770	-0.428882
H261	H	0.652790	-0.574765	-0.832020
H262	H	1.152790	-0.074765	-0.332020
O263	O	0.731625	-0.394098	-0.807866
O264	O	1.231625	0.105902	-0.307866
C265	C	0.763256	-0.342053	-0.833617
C266	C	1.263256	0.157947	-0.333617
H267	H	0.745507	-0.287961	-0.847768
H268	H	1.245507	0.212039	-0.347768
H269	H	0.789316	-0.331488	-0.788670
H270	H	1.289316	0.168512	-0.288670
H271	H	0.780522	-0.364626	-0.885233
H272	H	1.280522	0.135374	-0.385233
O273	O	0.389448	-0.264322	-0.451782
O274	O	0.889448	0.235678	0.048218
C275	C	0.400938	-0.280652	-0.525766
C276	C	0.900938	0.219348	-0.025766
H277	H	0.413813	-0.339988	-0.529405
H278	H	0.913813	0.160012	-0.029405
H279	H	0.370096	-0.274304	-0.562478
H280	H	0.870096	0.225696	-0.062478
H281	H	0.428193	-0.240869	-0.545241
H282	H	0.928193	0.259131	-0.045241
H283	H	0.704656	-0.903513	-0.266353
H284	H	1.204656	-0.403513	0.233647
O285	O	0.125321	-0.216842	-0.499372
O286	O	0.625321	0.283158	0.000628
C287	C	0.113872	-0.233188	-0.573362
C288	C	0.613872	0.266812	-0.073362
H289	H	0.079800	-0.261747	-0.574850
H290	H	0.579800	0.238253	-0.074850
H291	H	0.112285	-0.179635	-0.606752
H292	H	0.612285	0.320365	-0.106752
H293	H	0.140273	-0.271396	-0.598314
H294	H	0.640273	0.228604	-0.098314
H295	H	0.724818	-0.810812	-0.391555
H296	H	1.224818	-0.310812	0.108445
H297	H	0.177319	-0.224261	-0.491791
H298	H	0.677319	0.275739	0.008209
H299	H	0.478221	-0.271706	-0.444194
H300	H	0.978221	0.228294	0.055806
H301	H	-0.094274	-0.443802	-0.271610
H302	H	0.405726	0.056198	0.228390
O303	O	0.709675	-0.257938	-0.908514
O304	O	1.209675	0.242062	-0.408514
C305	C	0.731109	-0.223405	-0.848084
C306	C	1.231109	0.276595	-0.348084
H307	H	0.728733	-0.260719	-0.797268
H308	H	1.228733	0.239281	-0.297268
H309	H	0.767852	-0.213355	-0.862222
H310	H	1.267852	0.286645	-0.362222
H311	H	0.714077	-0.168216	-0.835896
H312	H	1.214077	0.331784	-0.335896
O313	O	0.125142	-0.498738	-0.216516
O314	O	0.625142	0.001262	0.283484
C315	C	0.094347	-0.540581	-0.174522
C316	C	0.594347	-0.040581	0.325478
H317	H	0.060909	-0.543184	-0.204944
H318	H	0.560909	-0.043184	0.295056
H319	H	0.107876	-0.599087	-0.166502
H320	H	0.607876	-0.099087	0.333498
H321	H	0.089353	-0.513310	-0.118165
H322	H	0.589353	-0.013310	0.381835
O323	O	-0.090550	-0.264178	-0.451754
O324	O	0.409450	0.235822	0.048246
C325	C	-0.121298	-0.222338	-0.493760
C326	C	0.378702	0.277662	0.006240
H327	H	-0.154749	-0.219731	-0.463347
H328	H	0.345251	0.280269	0.036653
H329	H	-0.107727	-0.163834	-0.501784
H330	H	0.392273	0.336166	-0.001784
H331	H	-0.126283	-0.249616	-0.550116
H332	H	0.373717	0.250384	-0.050116
O333	O	-0.183025	-0.264350	-0.451770
O334	O	0.316975	0.235650	0.048230
C335	C	-0.210158	-0.306697	-0.499682
C336	C	0.289842	0.193303	0.000318
H337	H	-0.217206	-0.362946	-0.473401
H338	H	0.282794	0.137054	0.026599
H339	H	-0.243141	-0.276466	-0.509679
H340	H	0.256859	0.223534	-0.009679
H341	H	-0.192069	-0.314922	-0.554705
H342	H	0.307931	0.185078	-0.054705
O343	O	0.481879	-0.451184	-0.264102
O344	O	0.981879	0.048816	0.235898
C345	C	0.528325	-0.441019	-0.274318
C346	C	1.028325	0.058981	0.225682
H347	H	0.534751	-0.383742	-0.298745
H348	H	1.034751	0.116258	0.201255
H349	H	0.546145	-0.445969	-0.218681
H350	H	1.046145	0.054031	0.281319
H351	H	0.541635	-0.485127	-0.313786
H352	H	1.041635	0.014873	0.186214
O353	O	0.032830	-0.216911	-0.499310
O354	O	0.532830	0.283089	0.000690
C355	C	0.005695	-0.259262	-0.547215
C356	C	0.505695	0.240738	-0.047215
H357	H	-0.001352	-0.315509	-0.520929
H358	H	0.498648	0.184491	-0.020929
H359	H	-0.027288	-0.229031	-0.557213
H360	H	0.472712	0.270969	-0.057213
H361	H	0.023783	-0.267491	-0.602240
H362	H	0.523783	0.232509	-0.102240
