data_functionalizedCrystal
_audit_creation_method	'MofGen! by Chris Wilmer'
_symmetry_space_group_name_H-M	'P1'
_symmetry_Int_Tables_number	1
_symmetry_cell_setting	triclinic
loop_
_symmetry_equiv_pos_as_xyz
  x,y,z
_cell_length_a	16.109301
_cell_length_b	16.109301
_cell_length_c	14.586319
_cell_angle_alpha	90.005214
_cell_angle_beta	89.999213
_cell_angle_gamma	96.538519
loop_
_atom_site_label
_atom_site_type_symbol
_atom_site_fract_x
_atom_site_fract_y
_atom_site_fract_z
O1	O	1.103131	-0.106866	-0.076185
O2	O	0.861069	-0.120165	-0.076200
O3	O	0.988749	0.007515	-0.076183
O4	O	0.975450	-0.234547	-0.076203
O5	O	0.988741	0.007517	0.076298
O6	O	0.861060	-0.120164	0.076281
O7	O	1.103122	-0.106864	0.076295
Cu8	Cu	0.982090	-0.113514	0.090211
Cu9	Cu	0.982101	-0.113516	-0.090115
O10	O	0.975441	-0.234545	0.076278
C11	C	0.830090	-0.119626	0.000038
C12	C	0.737794	-0.118011	0.000033
C13	C	0.988206	0.038491	0.000058
C14	C	0.986591	0.130786	0.000059
N15	N	0.982089	-0.113512	0.217042
C16	C	0.515522	-0.190018	0.000038
C17	C	0.428801	-0.188494	0.000044
C18	C	0.448676	-0.037006	0.000052
C19	C	0.535394	-0.038530	0.000053
C20	C	0.568815	-0.115039	0.000041
C21	C	0.395376	-0.111990	0.000046
C22	C	0.301350	-0.110337	0.000053
C23	C	0.662847	-0.116693	0.000036
C24	C	1.134101	-0.107404	0.000055
C25	C	1.226397	-0.109019	0.000054
C26	C	0.975984	-0.265521	0.000035
C27	C	0.977600	-0.357816	0.000028
C28	C	1.058599	0.353059	0.000049
C29	C	1.057075	0.439779	0.000041
C30	C	0.905586	0.419905	0.000036
C31	C	0.907111	0.333186	0.000037
C32	C	0.983620	0.299766	0.000048
C33	C	0.980571	0.473205	0.000039
C34	C	0.978918	0.567231	0.000031
C35	C	0.985273	0.205734	0.000055
N36	N	0.982109	-0.113511	-0.216947
C37	C	1.038644	-0.056994	0.452057
C38	C	1.038647	-0.056992	0.548038
C39	C	0.925547	-0.170032	0.548032
C40	C	0.925541	-0.170030	0.452052
C41	C	0.982095	-0.113511	0.404067
C42	C	0.982103	-0.113512	0.596028
C43	C	0.982105	-0.113510	0.700095
C44	C	0.982092	-0.113512	0.299993
H45	H	0.542730	-0.252317	0.000035
H46	H	0.879487	-0.216053	0.412977
O47	O	0.377151	-0.261406	-0.000003
C48	C	0.425249	-0.329257	0.000011
H49	H	0.489977	-0.308137	-0.028857
H50	H	0.431419	-0.352707	0.073162
C51	C	0.302516	-0.426163	-0.024334
C52	C	0.382015	-0.400225	-0.059798
H53	H	0.275847	-0.469942	-0.061223
H54	H	0.270111	-0.380451	-0.024340
H55	H	0.307669	-0.445699	0.036624
H56	H	0.376861	-0.380680	-0.120750
H57	H	0.414418	-0.445935	-0.059803
H58	H	1.120897	0.325851	0.000056
O59	O	0.834327	0.281326	0.000158
C60	C	0.830665	0.230588	0.079138
H61	H	0.896656	0.226231	0.105471
H62	H	0.792693	0.259105	0.134435
C63	C	0.707767	0.147881	0.022801
C64	C	0.788818	0.142524	0.055139
H65	H	0.681951	0.093560	0.008000
H66	H	0.710232	0.182066	-0.030409
H67	H	0.676134	0.171648	0.068887
H68	H	0.820453	0.118767	0.009049
H69	H	0.786358	0.108333	0.108341
H70	H	1.084693	-0.010972	0.412989
O71	O	0.831322	0.452471	-0.000089
C72	C	0.825899	0.502017	-0.079071
H73	H	0.891434	0.523633	-0.105399
H74	H	0.789108	0.463690	-0.134370
C75	C	0.700658	0.552164	-0.022743
C76	C	0.781149	0.578718	-0.055075
H77	H	0.673051	0.599475	-0.007944
H78	H	0.704308	0.518782	0.030467
H79	H	0.670009	0.520224	-0.068832
H80	H	0.811799	0.610648	-0.008983
H81	H	0.777502	0.612108	-0.108277
O82	O	0.416071	0.037239	0.000016
C83	C	0.328102	0.022509	0.000035
H84	H	0.307719	-0.042379	-0.028836
H85	H	0.303962	0.026536	0.073187
C86	C	0.317190	0.168329	-0.024303
C87	C	0.292155	0.088635	-0.059769
H88	H	0.295015	0.209120	-0.061189
H89	H	0.376456	0.178254	-0.024312
H90	H	0.297071	0.171673	0.036657
H91	H	0.312283	0.085288	-0.120723
H92	H	0.232891	0.078711	-0.059771
O93	O	1.093662	-0.002061	0.594512
C94	C	1.143557	0.047836	0.531574
H95	H	1.144482	0.013747	0.463153
H96	H	1.116582	0.109607	0.521373
C97	C	1.232113	0.106814	0.653063
C98	C	1.233255	0.064942	0.569029
H99	H	1.287442	0.117370	0.676168
H100	H	1.198496	0.073201	0.695466
H101	H	1.209630	0.158286	0.644551
H102	H	1.255728	0.013468	0.577544
H103	H	1.266878	0.098548	0.526628
O104	O	0.870585	-0.224821	0.594750
C105	C	0.819300	-0.180282	0.650265
H106	H	0.852431	-0.115232	0.664647
H107	H	0.757854	-0.174617	0.613284
C108	C	0.760835	-0.307050	0.723767
C109	C	0.801531	-0.227157	0.741438
H110	H	0.749871	-0.335966	0.780005
H111	H	0.795384	-0.337058	0.686363
H112	H	0.709635	-0.302318	0.692947
H113	H	0.852734	-0.231891	0.772246
H114	H	0.766990	-0.197151	0.778849
H115	H	0.578788	0.022530	0.000058
H116	H	1.118130	0.483168	0.000040
