data_functionalizedCrystal
_audit_creation_method	'MofGen! by Chris Wilmer'
_symmetry_space_group_name_H-M	'P1'
_symmetry_Int_Tables_number	1
_symmetry_cell_setting	triclinic
loop_
_symmetry_equiv_pos_as_xyz
  x,y,z
_cell_length_a	9.065215
_cell_length_b	17.038272
_cell_length_c	8.140239
_cell_angle_alpha	90.003562
_cell_angle_beta	90.000939
_cell_angle_gamma	88.063127
loop_
_atom_site_label
_atom_site_type_symbol
_atom_site_fract_x
_atom_site_fract_y
_atom_site_fract_z
O1	O	1.971907	0.114731	0.136597
O2	O	2.471907	0.614731	0.636597
O3	O	1.543566	0.124145	0.136604
O4	O	2.043566	0.624145	0.636604
O5	O	1.755190	0.005604	0.136587
O6	O	2.255190	0.505604	0.636587
O7	O	1.760282	0.233271	0.136613
O8	O	2.260282	0.733271	0.636613
O9	O	1.755183	0.005603	-0.136640
O10	O	2.255183	0.505603	0.363360
O11	O	1.543558	0.124144	-0.136623
O12	O	2.043558	0.624144	0.363377
O13	O	1.971899	0.114730	-0.136631
O14	O	2.471899	0.614730	0.363369
Zn15	Zn	1.757728	0.119437	-0.180007
Zn16	Zn	2.257728	0.619437	0.319993
Zn17	Zn	1.757737	0.119438	0.179981
Zn18	Zn	2.257737	0.619438	0.679981
O19	O	1.760275	0.233270	-0.136614
O20	O	2.260275	0.733270	0.363386
C21	C	1.488485	0.123240	-0.000009
C22	C	1.988485	0.623240	0.499991
C23	C	1.324370	0.120536	-0.000006
C24	C	1.824370	0.620536	0.499994
C25	C	1.750556	-0.023558	-0.000026
C26	C	2.250556	0.476442	0.499974
C27	C	1.736740	-0.110451	-0.000025
C28	C	2.236740	0.389549	0.499975
C29	C	1.863588	-0.159650	-0.000029
C30	C	2.363588	0.340350	0.499971
C31	C	1.850597	-0.241294	-0.000013
C32	C	2.350597	0.258706	0.499987
C33	C	1.710758	-0.273738	-0.000005
C34	C	2.210758	0.226262	0.499995
C35	C	1.583900	-0.224532	0.000004
C36	C	2.083900	0.275468	0.500004
C37	C	1.596892	-0.142890	-0.000000
C38	C	2.096892	0.357110	0.500000
C39	C	1.664860	-0.519827	0.000018
C40	C	2.164860	-0.019827	0.500018
C41	C	1.651877	-0.601476	0.000017
C42	C	2.151877	-0.101476	0.500017
C43	C	1.918576	-0.618232	0.000003
C44	C	2.418576	-0.118232	0.500003
C45	C	1.931556	-0.536587	-0.000011
C46	C	2.431556	-0.036587	0.499989
C47	C	1.804698	-0.487389	0.000007
C48	C	2.304698	0.012611	0.500007
C49	C	1.697476	-0.357191	0.000006
C50	C	2.197476	0.142809	0.500006
C51	C	1.817981	-0.403937	0.000008
C52	C	2.317981	0.096063	0.500008
C53	C	2.026980	0.115634	-0.000014
C54	C	2.526980	0.615634	0.499986
C55	C	2.191095	0.118338	-0.000006
C56	C	2.691095	0.618338	0.499994
C57	C	1.764909	0.262433	0.000003
C58	C	2.264909	0.762433	0.500003
C59	C	1.778725	0.349325	0.000013
C60	C	2.278725	0.849325	0.500013
N61	N	1.757732	0.119435	-0.425690
N62	N	2.257732	0.619435	0.074310
N63	N	1.757744	0.119433	0.425664
N64	N	2.257744	0.619433	0.925664
H65	H	1.977460	-0.133241	-0.000046
H66	H	2.477460	0.366759	0.499954
H67	H	1.470039	-0.250954	0.000021
H68	H	1.970039	0.249046	0.500021
H69	H	1.493598	-0.102832	0.000003
H70	H	1.993598	0.397168	0.500003
H71	H	2.045428	-0.510178	-0.000017
H72	H	2.545428	-0.010178	0.499983
H73	H	1.931838	-0.377518	0.000037
H74	H	2.431838	0.122482	0.500037
Br75	Br	2.022757	-0.308062	-0.000018
Br76	Br	2.522757	0.191938	0.499982
H77	H	1.583617	-0.383616	0.000009
H78	H	2.083617	0.116384	0.500009
H79	H	1.561562	-0.479779	0.000032
H80	H	2.061562	0.020221	0.500032
Br81	Br	1.462082	-0.645506	0.000011
Br82	Br	1.962082	-0.145506	0.500011
Br83	Br	2.090730	-0.685004	-0.000020
Br84	Br	2.590730	-0.185004	0.499980
