data_functionalizedCrystal
_audit_creation_method	'MofGen! by Chris Wilmer'
_symmetry_space_group_name_H-M	'P1'
_symmetry_Int_Tables_number	1
_symmetry_cell_setting	triclinic
loop_
_symmetry_equiv_pos_as_xyz
  x,y,z
_cell_length_a	14.044220
_cell_length_b	10.540539
_cell_length_c	12.503572
_cell_angle_alpha	93.560877
_cell_angle_beta	86.164750
_cell_angle_gamma	88.857185
loop_
_atom_site_label
_atom_site_type_symbol
_atom_site_fract_x
_atom_site_fract_y
_atom_site_fract_z
O1	O	1.265193	0.299541	-0.089197
O2	O	0.989150	0.288487	-0.089224
O3	O	1.133469	0.109945	-0.089208
O4	O	1.120874	0.478084	-0.089212
O5	O	1.122616	0.123396	0.089432
O6	O	0.978297	0.301939	0.089417
O7	O	1.254339	0.312993	0.089444
Cu8	Cu	1.115327	0.308694	0.105742
Cu9	Cu	1.128163	0.292786	-0.105522
O10	O	1.110020	0.491536	0.089428
C11	C	0.948377	0.290375	0.000093
C12	C	0.843054	0.275945	0.000082
C13	C	1.127098	0.069272	0.000110
C14	C	1.124272	-0.071962	0.000104
C15	C	0.650213	0.249566	0.000104
C16	C	0.593272	0.351908	0.000107
C17	C	0.485969	0.337231	0.000119
C18	C	0.757526	0.264241	0.000092
C19	C	1.016008	-0.266368	-0.000308
C20	C	1.018848	-0.119430	0.000095
C21	C	1.168809	-0.120809	0.102122
C22	C	1.165206	-0.267711	0.102207
C23	C	1.179693	-0.283309	-0.100941
C24	C	1.180746	-0.136331	-0.102289
C25	C	1.295113	0.311105	0.000125
C26	C	1.400436	0.325535	0.000129
C27	C	1.116392	0.532208	0.000108
C28	C	1.119218	0.673442	0.000107
N29	N	1.106306	0.319883	0.254333
N30	N	1.137191	0.281588	-0.254113
C31	C	1.093036	0.336354	0.473447
C32	C	1.150458	0.265121	0.526780
C33	C	1.143074	0.274286	0.648703
C34	C	1.100419	0.327191	0.351513
H35	H	0.625111	0.450550	0.000101
H36	H	0.618375	0.150932	0.000110
H37	H	0.983371	-0.086369	-0.073036
H38	H	0.978808	-0.304687	-0.073467
H39	H	1.205164	0.197256	0.480873
F40	F	0.955893	-0.304635	0.094509
H41	H	1.038335	0.404216	0.519348
H42	H	0.974198	-0.076223	0.073339
H43	H	1.240744	-0.307665	0.106843
F44	F	1.110138	-0.302023	0.201872
F45	F	1.269703	-0.080988	0.107093
F46	F	1.116717	-0.062318	0.201345
H47	H	1.150270	-0.324134	-0.178263
H48	H	1.148208	-0.104908	-0.177759
H49	H	1.257982	-0.104802	-0.108442
F50	F	1.279276	-0.335043	-0.101830
