data_functionalizedCrystal
_audit_creation_method	'MofGen! by Chris Wilmer'
_symmetry_space_group_name_H-M	'P1'
_symmetry_Int_Tables_number	1
_symmetry_cell_setting	triclinic
loop_
_symmetry_equiv_pos_as_xyz
  x,y,z
_cell_length_a	15.944551
_cell_length_b	16.974829
_cell_length_c	16.053770
_cell_angle_alpha	83.469087
_cell_angle_beta	87.097463
_cell_angle_gamma	83.448291
loop_
_atom_site_label
_atom_site_type_symbol
_atom_site_fract_x
_atom_site_fract_y
_atom_site_fract_z
O1	O	0.113520	1.055148	-0.140724
O2	O	0.446854	1.388481	0.192609
O3	O	0.780187	1.721814	0.525943
O4	O	0.126437	0.824278	-0.125127
O5	O	0.459770	1.157611	0.208206
O6	O	0.793103	1.490944	0.541540
O7	O	-0.002285	0.946017	-0.133344
O8	O	0.331049	1.279350	0.199990
O9	O	0.664382	1.612684	0.533323
O10	O	0.242242	0.933408	-0.132507
O11	O	0.575575	1.266742	0.200826
O12	O	0.908908	1.600075	0.534160
O13	O	-0.008654	0.940072	0.005918
O14	O	0.324679	1.273406	0.339251
O15	O	0.658013	1.606739	0.672585
O16	O	0.120067	0.818333	0.014135
O17	O	0.453401	1.151666	0.347468
O18	O	0.786734	1.485000	0.680802
O19	O	0.107151	1.049203	-0.001462
O20	O	0.440484	1.382536	0.331871
O21	O	0.773818	1.715870	0.665205
Zn22	Zn	0.112598	0.932824	0.028447
Zn23	Zn	0.445931	1.266158	0.361781
Zn24	Zn	0.779265	1.599491	0.695114
Zn25	Zn	0.120990	0.940657	-0.155036
Zn26	Zn	0.454323	1.273990	0.178297
Zn27	Zn	0.787656	1.607323	0.511630
O28	O	0.235872	0.927464	0.006755
O29	O	0.569206	1.260797	0.340088
O30	O	0.902539	1.594130	0.673421
C31	C	0.122641	0.791762	-0.053500
C32	C	0.455974	1.125095	0.279833
C33	C	0.789308	1.458429	0.613167
C34	C	0.120811	0.703732	-0.047553
C35	C	0.454144	1.037065	0.285781
C36	C	0.787478	1.370398	0.619114
C37	C	0.110165	0.207864	-0.005926
C38	C	0.443498	0.541197	0.327407
C39	C	0.776832	0.874531	0.660740
C40	C	0.111884	0.290578	-0.011516
C41	C	0.445218	0.623911	0.321817
C42	C	0.778551	0.957244	0.655150
C43	C	0.116210	0.335176	-0.090224
C44	C	0.449543	0.668509	0.243109
C45	C	0.782877	1.001843	0.576442
C46	C	0.118825	0.297055	-0.163347
C47	C	0.452158	0.630389	0.169986
C48	C	0.785491	0.963722	0.503320
C49	C	0.117111	0.214342	-0.157756
C50	C	0.450444	0.547676	0.175577
C51	C	0.783778	0.881009	0.508910
C52	C	0.121712	0.582898	-0.115085
C53	C	0.455046	0.916232	0.218249
C54	C	0.788379	1.249565	0.551582
C55	C	0.123423	0.665617	-0.120670
C56	C	0.456756	0.998950	0.212663
C57	C	0.790090	1.332284	0.545997
C58	C	0.116484	0.659133	0.031161
C59	C	0.449818	0.992467	0.364495
C60	C	0.783151	1.325800	0.697828
C61	C	0.114766	0.576420	0.036745
C62	C	0.448099	0.909753	0.370078
C63	C	0.781433	1.243086	0.703412
C64	C	0.117385	0.538306	-0.036377
C65	C	0.450719	0.871639	0.296956
C66	C	0.784052	1.204973	0.630289
N67	N	0.117965	0.419723	-0.095940
N68	N	0.451298	0.753056	0.237394
N69	N	0.784632	1.086390	0.570727
N70	N	0.115636	0.453760	-0.030661
N71	N	0.448970	0.787093	0.302672
N72	N	0.782303	1.120426	0.636006
C73	C	-0.036764	0.942521	-0.063677
C74	C	0.296569	1.275854	0.269656
C75	C	0.629902	1.609188	0.602989
C76	C	-0.130013	0.940952	-0.063571
C77	C	0.203320	1.274285	0.269762
C78	C	0.536653	1.607618	0.603096
C79	C	-0.345021	0.861741	-0.058231
C80	C	-0.011687	1.195075	0.275102
C81	C	0.321646	1.528408	0.608436
C82	C	-0.409108	0.895593	0.007948
C83	C	-0.075775	1.228927	0.341282
C84	C	0.257559	1.562260	0.674615
C85	C	-0.300744	0.938113	-0.063386
C86	C	0.032589	1.271446	0.269948
C87	C	0.365922	1.604780	0.603281
C88	C	-0.402812	0.901472	-0.129354
C89	C	-0.069479	1.234805	0.203979
C90	C	0.263855	1.568139	0.537313
C91	C	-0.465662	0.935365	-0.063210
C92	C	-0.132328	1.268699	0.270124
C93	C	0.201005	1.602032	0.603457
C94	C	-0.363606	0.971983	0.002849
C95	C	-0.030273	1.305317	0.336183
C96	C	0.303060	1.638650	0.669516
C97	C	-0.357301	0.977854	-0.134514
C98	C	-0.023968	1.311188	0.198819
C99	C	0.309366	1.644521	0.532153
C100	C	-0.421372	1.011761	-0.068322
C101	C	-0.088038	1.345094	0.265012
C102	C	0.245295	1.678428	0.598345
C103	C	-0.205739	0.939694	-0.063486
C104	C	0.127594	1.273027	0.269847
C105	C	0.460927	1.606360	0.603181
C106	C	-0.560666	0.933791	-0.063104
C107	C	-0.227333	1.267124	0.270230
C108	C	0.106001	1.600457	0.603563
C109	C	0.270352	0.930960	-0.062913
C110	C	0.603685	1.264293	0.270420
C111	C	0.937019	1.597626	0.603753
C112	C	0.363601	0.932529	-0.063025
C113	C	0.696935	1.265863	0.270308
C114	C	1.030268	1.599196	0.603641
C115	C	0.110947	1.081719	-0.073091
C116	C	0.444280	1.415052	0.260243
C117	C	0.777613	1.748386	0.593576
C118	C	0.112777	1.169749	-0.079044
C119	C	0.446110	1.503083	0.254290
C120	C	0.779444	1.836416	0.587623
N121	N	0.126711	0.946002	-0.280259
N122	N	0.460044	1.279336	0.053075
N123	N	0.793378	1.612669	0.386408
C124	C	0.077527	0.899884	-0.320827
C125	C	0.410860	1.233218	0.012506
C126	C	0.744194	1.566551	0.345839
C127	C	0.081506	0.903636	-0.408488
C128	C	0.414839	1.236969	-0.075155
C129	C	0.748172	1.570302	0.258178
C130	C	0.134674	0.953502	-0.455579
C131	C	0.468007	1.286835	-0.122246
C132	C	0.801340	1.620168	0.211088
C133	C	0.183859	0.999625	-0.415004
C134	C	0.517193	1.332958	-0.081671
C135	C	0.850526	1.666292	0.251662
C136	C	0.179876	0.995877	-0.327345
C137	C	0.513209	1.329210	0.005988
C138	C	0.846542	1.662544	0.339321
C139	C	0.152072	0.969860	-0.718097
C140	C	0.485405	1.303194	-0.384764
C141	C	0.818739	1.636527	-0.051430
C142	C	0.156054	0.973603	-0.805762
C143	C	0.489387	1.306936	-0.472429
C144	C	0.822721	1.640269	-0.139095
C145	C	0.053699	0.877614	-0.799240
C146	C	0.387032	1.210948	-0.465907
C147	C	0.720365	1.544281	-0.132573
C148	C	0.049723	0.873867	-0.711579
C149	C	0.383057	1.207201	-0.378246
C150	C	0.716390	1.540534	-0.044912
C151	C	0.098906	0.919994	-0.671013
C152	C	0.432239	1.253327	-0.337679
C153	C	0.765572	1.586660	-0.004346
N154	N	0.138744	0.957335	-0.545182
N155	N	0.472077	1.290669	-0.211849
N156	N	0.805411	1.624002	0.121484
N157	N	0.094830	0.916164	-0.581411
N158	N	0.428164	1.249497	-0.248078
N159	N	0.761497	1.582830	0.085256
N160	N	0.106870	0.927485	0.153669
N161	N	0.440203	1.260818	0.487003
N162	N	0.773537	1.594151	0.820336
H163	H	0.106646	0.171557	0.058166
H164	H	0.439980	0.504890	0.391499
H165	H	0.773313	0.838224	0.724833
C166	C	0.109024	0.332499	0.068913
C167	C	0.442358	0.665832	0.402246
C168	C	0.775691	0.999166	0.735580
H169	H	0.106197	0.294092	0.116589
H170	H	0.439530	0.627426	0.449922
H171	H	0.772864	0.960759	0.783255
H172	H	0.158494	0.358583	0.070285
H173	H	0.491827	0.691916	0.403619
H174	H	0.825161	1.025249	0.736952
H175	H	0.060608	0.370677	0.069493
H176	H	0.393941	0.704010	0.402826
H177	H	0.727275	1.037344	0.736159
H178	H	-0.454411	1.075207	-0.072569
H179	H	-0.121078	1.408540	0.260764
H180	H	0.212256	1.741874	0.594097
H181	H	-0.334454	1.012607	-0.194748
H182	H	-0.001120	1.345940	0.138585
H183	H	0.332213	1.679274	0.471919
H184	H	-0.420295	0.871638	-0.185226
H185	H	-0.086962	1.204971	0.148108
H186	H	0.246372	1.538305	0.481441
C187	C	-0.008784	0.819037	-0.659787
C188	C	0.324549	1.152370	-0.326454
C189	C	0.657882	1.485704	0.006880
H190	H	-0.037519	0.792118	-0.696505
H191	H	0.295815	1.125451	-0.363171
H192	H	0.629148	1.458784	-0.029838
H193	H	0.023905	0.781025	-0.623124
H194	H	0.357239	1.114358	-0.289791
H195	H	0.690572	1.447691	0.043542
H196	H	-0.048853	0.850153	-0.627789
H197	H	0.284480	1.183486	-0.294456
H198	H	0.617813	1.516819	0.038878
C199	C	0.110015	0.527367	0.123324
C200	C	0.443348	0.860700	0.456657
C201	C	0.776682	1.194033	0.789990
H202	H	0.108713	0.561912	0.166071
H203	H	0.442046	0.895246	0.499404
H204	H	0.775380	1.228579	0.832737
H205	H	0.060264	0.501004	0.128260
H206	H	0.393597	0.834338	0.461593
H207	H	0.726930	1.167671	0.794926
H208	H	0.158150	0.488926	0.129059
H209	H	0.491483	0.822259	0.462393
H210	H	0.824817	1.155593	0.795726
C211	C	0.206178	1.020591	-0.673484
C212	C	0.539511	1.353924	-0.340151
C213	C	0.872844	1.687257	-0.006817
H214	H	0.238419	1.050817	-0.714086
H215	H	0.571752	1.384150	-0.380753
H216	H	0.905085	1.717484	-0.047419
H217	H	0.170365	1.055677	-0.641745
H218	H	0.503699	1.389011	-0.308411
H219	H	0.837032	1.722344	0.024922
H220	H	0.243145	0.986570	-0.637104
H221	H	0.576479	1.319903	-0.303771
H222	H	0.909812	1.653236	0.029563
H223	H	0.013656	0.840062	-0.832279
H224	H	0.346990	1.173395	-0.498946
H225	H	0.680323	1.506728	-0.165612
C226	C	-0.300195	0.776102	-0.052367
C227	C	0.033139	1.109435	0.280966
C228	C	0.366472	1.442769	0.614300
H229	H	-0.264051	0.769979	-0.100626
H230	H	0.069282	1.103312	0.232707
H231	H	0.402616	1.436645	0.566041
H232	H	-0.267733	0.766208	-0.003519
H233	H	0.065601	1.099541	0.329814
H234	H	0.398934	1.432875	0.663147
H235	H	-0.341154	0.739284	-0.049353
H236	H	-0.007820	1.072618	0.283981
H237	H	0.325513	1.405951	0.617314
H238	H	0.123842	0.551876	-0.174626
H239	H	0.457175	0.885210	0.158707
H240	H	0.790509	1.218543	0.492040
H241	H	0.114354	0.690175	0.090694
H242	H	0.447687	1.023508	0.424027
H243	H	0.781020	1.356841	0.757360
C244	C	0.128191	0.714673	-0.207252
C245	C	0.461524	1.048006	0.126081
C246	C	0.794857	1.381340	0.459414
H247	H	0.129514	0.680127	-0.250001
H248	H	0.462848	1.013460	0.083332
H249	H	0.796181	1.346794	0.416665
H250	H	0.080064	0.753115	-0.212996
H251	H	0.413398	1.086449	0.120337
H252	H	0.746731	1.419782	0.453671
H253	H	0.177949	0.741031	-0.212176
H254	H	0.511283	1.074365	0.121157
H255	H	0.844616	1.407698	0.454491
H256	H	0.034236	0.859274	-0.282492
H257	H	0.367570	1.192607	0.050841
H258	H	0.700903	1.525941	0.384175
C259	C	0.027408	0.852901	-0.453110
C260	C	0.360741	1.186235	-0.119777
C261	C	0.694075	1.519568	0.213557
H262	H	-0.004819	0.822659	-0.412510
H263	H	0.328515	1.155992	-0.079176
H264	H	0.661848	1.489325	0.254157
H265	H	-0.009559	0.886914	-0.489491
H266	H	0.323774	1.220247	-0.156157
H267	H	0.657107	1.553580	0.177176
H268	H	0.063232	0.817817	-0.484849
H269	H	0.396565	1.151150	-0.151516
H270	H	0.729899	1.484483	0.181817
C271	C	-0.340120	1.012232	0.078413
C272	C	-0.006786	1.345565	0.411747
C273	C	0.326547	1.678899	0.745080
H274	H	-0.389975	1.028059	0.109996
H275	H	-0.056642	1.361392	0.443329
H276	H	0.276692	1.694725	0.776662
H277	H	-0.303618	0.975664	0.112888
H278	H	0.029715	1.308997	0.446221
H279	H	0.363048	1.642331	0.779554
H280	H	-0.312286	1.057815	0.058969
H281	H	0.021047	1.391149	0.392302
H282	H	0.354381	1.724482	0.725636
H283	H	0.122352	0.333373	-0.227433
H284	H	0.455685	0.666707	0.105901
H285	H	0.789018	1.000040	0.439234
H286	H	0.119240	0.183310	-0.217296
H287	H	0.452574	0.516644	0.116037
H288	H	0.785907	0.849977	0.449371
H289	H	0.199356	1.014208	-0.844101
H290	H	0.532689	1.347541	-0.510768
H291	H	0.866023	1.680874	-0.177434
C292	C	0.242345	1.054474	-0.466801
C293	C	0.575678	1.387808	-0.133468
C294	C	0.909011	1.721141	0.199865
H295	H	0.237681	1.050096	-0.524818
H296	H	0.571014	1.383429	-0.191485
H297	H	0.904348	1.716762	0.141848
H298	H	0.226333	1.108130	-0.456097
H299	H	0.559667	1.441464	-0.122764
H300	H	0.893000	1.774797	0.210570
H301	H	0.299112	1.039022	-0.451450
H302	H	0.632445	1.372355	-0.118117
H303	H	0.965779	1.705688	0.215216
H304	H	-0.431933	0.860813	0.068181
H305	H	-0.098600	1.194146	0.401514
H306	H	0.234734	1.527480	0.734848
H307	H	0.219926	1.033432	-0.294316
H308	H	0.553260	1.366765	0.039017
H309	H	0.886593	1.700099	0.372351
