data_functionalizedCrystal
_audit_creation_method	'MofGen! by Chris Wilmer'
_symmetry_space_group_name_H-M	'P1'
_symmetry_Int_Tables_number	1
_symmetry_cell_setting	triclinic
loop_
_symmetry_equiv_pos_as_xyz
  x,y,z
_cell_length_a	11.792241
_cell_length_b	8.559649
_cell_length_c	7.681481
_cell_angle_alpha	85.086760
_cell_angle_beta	84.218353
_cell_angle_gamma	103.013960
loop_
_atom_site_label
_atom_site_type_symbol
_atom_site_fract_x
_atom_site_fract_y
_atom_site_fract_z
O1	O	-0.026424	-2.104794	-0.146400
O2	O	0.032148	-1.640097	-0.146410
O3	O	-0.163342	-1.883724	-0.146392
O4	O	0.169066	-1.861167	-0.146418
O5	O	-0.187452	-1.913710	0.146467
O6	O	0.008038	-1.670083	0.146450
O7	O	-0.050534	-2.134780	0.146460
Zn8	Zn	-0.025076	-1.907192	0.192953
Zn9	Zn	0.006690	-1.867684	-0.192903
O10	O	0.144956	-1.891153	0.146442
C11	C	-0.217558	-1.897300	0.000037
C12	C	-0.343183	-1.893059	0.000035
C13	C	0.024531	-1.595598	0.000018
C14	C	0.037744	-1.418332	0.000015
N15	N	-0.046757	-1.934167	0.456289
C16	C	-0.573179	-1.885259	0.000005
C17	C	-0.445192	-1.889593	0.000022
C18	C	0.199172	-1.877577	0.000009
C19	C	0.324799	-1.881816	-0.000001
C20	C	-0.042917	-2.179278	0.000027
C21	C	-0.056128	-2.356543	0.000019
N22	N	0.028361	-1.840722	-0.456239
H23	H	-0.146604	-1.439256	0.000018
C24	C	0.158456	-1.308086	-0.000363
C25	C	0.231208	-1.322093	-0.151058
C26	C	0.342408	-1.220544	-0.151478
H27	H	0.191331	-1.338200	0.101643
H28	H	0.151662	-1.199569	-0.000463
H29	H	0.238006	-1.430585	-0.150941
H30	H	0.198370	-1.291966	-0.253087
H31	H	0.335614	-1.112027	-0.151578
H32	H	0.375271	-1.250667	-0.049466
H33	H	0.391780	-1.230022	-0.253730
H34	H	0.105035	-1.745334	0.468557
C35	C	-0.149042	-2.061516	0.556243
C36	C	-0.215087	-2.143710	0.436232
C37	C	-0.309310	-2.261043	0.528244
H38	H	-0.197194	-2.011074	0.628184
H39	H	-0.119999	-2.135820	0.628111
H40	H	-0.244130	-2.069418	0.364395
H41	H	-0.166969	-2.194187	0.364287
H42	H	-0.280267	-2.335346	0.600111
H43	H	-0.357452	-2.210587	0.600182
H44	H	-0.354127	-2.316835	0.446831
