data_functionalizedCrystal
_audit_creation_method	'MofGen! by Chris Wilmer'
_symmetry_space_group_name_H-M	'P1'
_symmetry_Int_Tables_number	1
_symmetry_cell_setting	triclinic
loop_
_symmetry_equiv_pos_as_xyz
  x,y,z
_cell_length_a	14.628931
_cell_length_b	20.875641
_cell_length_c	20.875621
_cell_angle_alpha	87.033363
_cell_angle_beta	58.315301
_cell_angle_gamma	57.590446
loop_
_atom_site_label
_atom_site_type_symbol
_atom_site_fract_x
_atom_site_fract_y
_atom_site_fract_z
Zr1	Zr	1.013179	-0.120447	0.613516
O2	O	1.214406	-0.221052	0.507401
O3	O	0.819248	-0.089606	0.646046
O4	O	1.024454	-0.228249	0.640956
O5	O	0.997762	0.026955	0.516506
O6	O	1.025049	-0.233926	0.746307
O7	O	1.009200	-0.082409	0.512491
O8	O	0.657972	0.014081	0.755412
O9	O	1.364838	-0.221052	0.507401
O10	O	0.896756	-0.080690	0.738542
O11	O	0.887776	0.005164	0.662916
O12	O	1.129380	-0.158070	0.656924
O13	O	1.120400	-0.072216	0.581298
Zr14	Zr	0.995884	0.044922	0.787942
Zr15	Zr	1.014127	-0.129502	0.781539
Zr16	Zr	0.994937	0.053976	0.619919
Zr17	Zr	1.253101	-0.120447	0.613516
Zr18	Zr	0.755963	0.044922	0.787942
O19	O	1.189816	0.014080	0.755412
O20	O	1.215754	-0.233927	0.746308
O21	O	1.188468	0.026955	0.516506
O22	O	0.794657	0.145527	0.894057
O23	O	0.820596	-0.102480	0.884952
O24	O	0.793310	0.158401	0.655151
O25	O	1.011302	-0.102481	0.884953
O26	O	0.984609	0.152724	0.760502
O27	O	0.984015	0.158401	0.655151
O28	O	0.999863	0.006883	0.888967
O29	O	1.365592	-0.228250	0.640957
O30	O	0.643472	0.152724	0.760501
O31	O	0.644225	0.145527	0.894057
O32	O	0.658726	0.006884	0.888967
O33	O	1.350338	-0.082409	0.512491
O34	O	1.351091	-0.089607	0.646047
O35	O	0.879684	0.082545	0.744534
O36	O	0.888663	-0.003309	0.820160
O37	O	1.121287	-0.080690	0.738542
O38	O	1.112308	0.005164	0.662916
C39	C	0.704427	-0.037762	0.700729
C40	C	0.602574	-0.037762	0.700729
C41	C	1.003346	-0.026437	0.490558
C42	C	1.002944	-0.022593	0.419229
C43	C	0.981713	0.180414	0.708739
C44	C	0.973969	0.254461	0.711457
C45	C	0.561619	-0.080352	0.738244
C46	C	0.456349	-0.080353	0.738245
C47	C	1.304637	-0.037763	0.700729
C48	C	1.406490	-0.037763	0.700729
C49	C	1.027351	-0.255939	0.692720
C50	C	1.035095	-0.329987	0.690001
C51	C	1.091754	0.248859	0.670132
C52	C	1.084470	0.318437	0.672682
C53	C	0.959398	0.393616	0.716564
C54	C	0.841603	0.399217	0.757890
C55	C	0.848889	0.329640	0.755334
C56	C	0.924586	0.606037	0.728772
C57	C	0.917309	0.675616	0.731327
C58	C	1.160177	0.594831	0.646117
C59	C	1.167451	0.525256	0.643569
C60	C	1.049657	0.530862	0.684892
N61	N	0.951949	0.464737	0.719174
N62	N	1.057107	0.459743	0.682277
C63	C	1.009060	-0.081038	0.383505
C64	C	1.008675	-0.077423	0.316486
C65	C	1.002183	-0.015364	0.285187
C66	C	0.996062	0.043087	0.320917
C67	C	0.996438	0.039474	0.387938
C68	C	1.000375	0.001905	0.084981
C69	C	1.000004	0.005513	0.017953
C70	C	1.012614	-0.114996	0.013527
C71	C	1.012997	-0.118607	0.080548
C72	C	1.006869	-0.060153	0.116274
N73	N	1.001793	-0.011668	0.216681
N74	N	1.007249	-0.063847	0.184782
C75	C	1.005718	-0.049089	0.910900
C76	C	1.006120	-0.052933	0.982230
C77	C	0.705612	-0.049088	0.910899
C78	C	0.604162	-0.052932	0.982229
C79	C	0.681608	0.180414	0.708738
C80	C	0.572010	0.254462	0.711457
C81	C	0.682794	0.169088	0.918909
C82	C	0.573599	0.239292	0.992957
C83	C	1.326270	-0.244614	0.482549
C84	C	1.435465	-0.314817	0.408501
C85	C	1.303451	-0.026437	0.490559
C86	C	1.404902	-0.022593	0.419229
C87	C	1.327456	-0.255940	0.692720
C88	C	1.437053	-0.329987	0.690002
C89	C	0.560744	-0.095136	0.973122
C90	C	0.465436	-0.098764	1.040137
C91	C	0.413539	-0.060182	1.116259
C92	C	0.456966	-0.017977	1.125364
C93	C	0.552280	-0.014354	1.058350
C94	C	0.516317	0.329634	0.755337
C95	C	0.413352	0.399216	0.757889
C96	C	0.366074	0.393624	0.716563
C97	C	0.421778	0.318444	0.672677
C98	C	0.524748	0.248863	0.670122
C99	C	0.527007	0.227445	1.067214
C100	C	0.424421	0.293401	1.136796
C101	C	0.368421	0.371204	1.132120
C102	C	0.415023	0.383050	1.057855
C103	C	0.517614	0.317094	0.988275
C104	C	1.482068	-0.302970	0.334244
C105	C	1.584684	-0.368927	0.264662
C106	C	1.640689	-0.446730	0.269338
C107	C	1.594081	-0.458575	0.343603
C108	C	1.491474	-0.392620	0.413184
C109	C	1.448330	0.019603	0.428336
C110	C	1.543667	0.023212	0.361320
C111	C	1.595567	-0.015372	0.285198
C112	C	1.552136	-0.057575	0.276093
C113	C	1.456808	-0.061187	0.343108
C114	C	1.484297	-0.324369	0.731336
C115	C	1.587262	-0.393939	0.728797
C116	C	1.642988	-0.469125	0.684920
C117	C	1.595734	-0.474741	0.643584
C118	C	1.492765	-0.405173	0.646128
H119	H	0.604483	-0.116811	0.770366
F120	F	0.355410	0.465860	1.052891
H121	H	1.438941	-0.263155	0.767066
F122	F	1.589868	0.068133	0.371027
H123	H	0.994718	0.056051	-0.007527
H124	H	1.269298	0.464045	0.607838
H125	H	0.828670	0.610612	0.762423
H126	H	0.995389	0.049499	0.114063
F127	F	1.442504	-0.411164	0.602124
H128	H	0.421118	-0.116819	0.770360
H129	H	1.421451	-0.095546	0.335682
F130	F	0.401717	0.023084	1.206385
F131	F	0.708492	0.479231	0.804587
F132	F	0.989922	0.101682	0.425959
F133	F	1.441879	-0.405241	0.492211
F134	F	1.224874	0.168850	0.623432
H135	H	1.406079	0.051029	0.490312
F136	F	1.019908	-0.184656	0.113856
F137	F	0.354083	0.479220	0.804602
H138	H	1.673189	-0.012424	0.230637
F139	F	1.607382	-0.098633	0.195073
F140	F	1.637540	-0.387944	0.772791
F141	F	1.752581	-0.543160	0.682218
F142	F	0.567183	0.329715	0.909247
H143	H	1.641122	-0.535967	0.607860
H144	H	0.441727	-0.001303	0.668606
H145	H	0.752975	0.334206	0.788984
H146	H	0.587617	0.020018	1.065776
H147	H	0.572587	0.164099	1.071036
F148	F	0.615964	-0.136207	0.892114
F149	F	0.419231	-0.143683	1.030430
F150	F	1.422480	-0.220172	0.329249
F151	F	0.546535	0.009902	0.658751
H152	H	0.335928	-0.063137	1.170820
F153	F	1.209834	0.312470	0.628675
H154	H	0.815455	0.736832	0.767059
F155	F	1.285533	0.588872	0.602139
F156	F	0.566610	0.335604	0.799328
F157	F	0.256481	0.467685	0.719291
F158	F	1.015979	-0.147093	0.416806
F159	F	1.015182	-0.139626	0.278467
F160	F	1.634265	-0.356303	0.185632
H161	H	1.017601	-0.162586	-0.015566
F162	F	0.371446	0.312504	0.628700
H163	H	0.570081	0.187657	0.634392
F164	F	1.749892	-0.516919	0.195277
H165	H	0.386489	0.283742	1.197259
F166	F	0.259233	0.441394	1.206181
F167	F	0.989144	0.109138	0.287609
F168	F	1.653697	-0.541385	0.348567
