data_functionalizedCrystal
_audit_creation_method	'MofGen! by Chris Wilmer'
_symmetry_space_group_name_H-M	'P1'
_symmetry_Int_Tables_number	1
_symmetry_cell_setting	triclinic
loop_
_symmetry_equiv_pos_as_xyz
  x,y,z
_cell_length_a	15.297327
_cell_length_b	13.032951
_cell_length_c	13.033429
_cell_angle_alpha	90.910449
_cell_angle_beta	91.279548
_cell_angle_gamma	86.260329
loop_
_atom_site_label
_atom_site_type_symbol
_atom_site_fract_x
_atom_site_fract_y
_atom_site_fract_z
Zn1	Zn	-0.419870	-1.405130	-0.853176
Zn2	Zn	0.080130	-0.905130	-0.353176
Zn3	Zn	-0.584859	-1.390147	-0.709580
Zn4	Zn	-0.084859	-0.890147	-0.209580
Zn5	Zn	-0.424475	-1.253946	-0.660194
Zn6	Zn	0.075525	-0.753946	-0.160194
Zn7	Zn	-0.548617	-1.204474	-0.853471
Zn8	Zn	-0.048617	-0.704474	-0.353471
O9	O	-0.494455	-1.313424	-0.769105
O10	O	0.005545	-0.813424	-0.269105
O11	O	-0.454996	-1.544119	-0.854672
O12	O	0.045004	-1.044119	-0.354672
O13	O	-0.580679	-1.386514	-0.562046
O14	O	-0.080679	-0.886514	-0.062046
O15	O	-0.302862	-1.300976	-0.665003
O16	O	0.197138	-0.800976	-0.165003
O17	O	-0.576213	-1.533111	-0.749172
O18	O	-0.076213	-1.033111	-0.249172
O19	O	-0.299479	-1.412050	-0.806786
O20	O	0.200521	-0.912050	-0.306786
O21	O	-0.462846	-1.286447	-0.525763
O22	O	0.037154	-0.786447	-0.025763
O23	O	-0.427703	-1.106408	-0.665289
O24	O	0.072297	-0.606408	-0.165289
O25	O	-0.514443	-1.216657	-0.994415
O26	O	-0.014443	-0.716657	-0.494415
O27	O	-0.518909	-1.070061	-0.807288
O28	O	-0.018909	-0.570061	-0.307288
O29	O	-0.419854	-1.364079	-0.994198
O30	O	0.080146	-0.864079	-0.494198
O31	O	-0.701054	-1.338543	-0.749458
O32	O	-0.201054	-0.838543	-0.249458
O33	O	-0.674427	-1.202129	-0.855175
O34	O	-0.174427	-0.702129	-0.355175
C35	C	-0.719115	-1.263367	-0.807734
C36	C	-0.219115	-0.763367	-0.307734
C37	C	-0.815229	-1.242041	-0.824306
C38	C	-0.315229	-0.742041	-0.324306
C39	C	-0.469873	-1.051680	-0.730962
C40	C	0.030127	-0.551680	-0.230962
C41	C	-0.459375	-0.939698	-0.714672
C42	C	0.040625	-0.439698	-0.214672
C43	C	-0.462592	-1.286521	-1.031884
C44	C	0.037408	-0.786521	-0.531884
C45	C	-0.449014	-1.275056	-1.143864
C46	C	0.050986	-0.775056	-0.643864
C47	C	-1.141489	-1.466225	-0.651064
C48	C	-0.641489	-0.966225	-0.151064
C49	C	-1.051185	-1.486262	-0.635488
C50	C	-0.551185	-0.986262	-0.135488
C51	C	-0.992192	-1.425209	-0.682691
C52	C	-0.492192	-0.925209	-0.182691
C53	C	-1.023511	-1.344115	-0.745473
C54	C	-0.523511	-0.844115	-0.245473
C55	C	-1.113824	-1.324071	-0.761044
C56	C	-0.613824	-0.824071	-0.261044
C57	C	-0.964527	-1.283054	-0.792671
C58	C	-0.464527	-0.783054	-0.292671
C59	C	-0.995846	-1.201960	-0.855453
C60	C	-0.495846	-0.701960	-0.355453
C61	C	-1.086151	-1.181921	-0.871022
C62	C	-0.586151	-0.681921	-0.371022
C63	C	-1.145144	-1.242974	-0.823818
C64	C	-0.645144	-0.742974	-0.323818
C65	C	-0.874214	-1.303098	-0.777100
C66	C	-0.374214	-0.803098	-0.277100
C67	C	-0.846549	-1.160944	-0.887080
C68	C	-0.346549	-0.660944	-0.387080
C69	C	-0.936853	-1.140907	-0.902656
C70	C	-0.436853	-0.640907	-0.402656
C71	C	-0.268919	-1.363702	-0.730352
C72	C	0.231081	-0.863702	-0.230352
C73	C	-0.172809	-1.385128	-0.713838
C74	C	0.327191	-0.885128	-0.213838
C75	C	-0.499917	-0.871807	-0.777591
C76	C	0.000083	-0.371807	-0.277591
C77	C	-0.489067	-0.756067	-0.760755
C78	C	0.010933	-0.256067	-0.260755
C79	C	-0.519125	-0.576193	-0.807390
C80	C	-0.019125	-0.076193	-0.307390
C81	C	-0.529615	-0.688177	-0.823683
C82	C	-0.029615	-0.188177	-0.323683
C83	C	-0.487241	-1.307610	-1.327478
C84	C	0.012759	-0.807610	-0.827478
C85	C	-0.501271	-1.319461	-1.211739
C86	C	-0.001271	-0.819461	-0.711739
C87	C	-0.526138	-1.340295	-0.507347
C88	C	-0.026138	-0.840295	-0.007347
C89	C	-0.539491	-1.352009	-0.395353
C90	C	-0.039491	-0.852009	0.104647
H91	H	-0.918663	-1.441527	-0.670005
H92	H	-0.418663	-0.941527	-0.170005
H93	H	-1.025688	-1.552287	-0.584371
H94	H	-0.525688	-1.052287	-0.084371
H95	H	-0.416629	-0.912136	-0.648345
H96	H	0.083371	-0.412136	-0.148345
O97	O	-0.375991	-1.213081	-1.180365
O98	O	0.124009	-0.713081	-0.680365
H99	H	-0.376430	-1.213494	-1.265541
H100	H	0.123570	-0.713494	-0.765541
O101	O	-0.414213	-1.245663	-1.363999
O102	O	0.085787	-0.745663	-0.863999
H103	H	-0.442316	-1.180902	-1.411136
H104	H	0.057684	-0.680902	-0.911136
H105	H	-0.556390	-1.366254	-1.184171
H106	H	-0.056390	-0.866254	-0.684171
H107	H	-0.962367	-1.074879	-0.953773
H108	H	-0.462367	-0.574879	-0.453773
H109	H	-0.446319	-0.728511	-0.694423
H110	H	0.053681	-0.228511	-0.194423
H111	H	-0.594607	-1.398798	-1.367780
H112	H	-0.094607	-0.898798	-0.867780
O113	O	-0.782936	-1.095073	-0.937989
O114	O	-0.282936	-0.595073	-0.437989
H115	H	-0.792260	-1.100336	-1.022564
H116	H	-0.292260	-0.600336	-0.522564
O117	O	-0.556531	-0.908309	-0.865459
O118	O	-0.056531	-0.408309	-0.365459
H119	H	-0.584573	-0.840972	-0.908993
H120	H	-0.084573	-0.340972	-0.408993
H121	H	-0.572354	-0.715733	-0.890023
H122	H	-0.072354	-0.215733	-0.390023
O123	O	-1.242547	-1.221349	-0.840610
O124	O	-0.742547	-0.721349	-0.340610
H125	H	-1.278302	-1.277425	-0.797234
H126	H	-0.778302	-0.777425	-0.297234
O127	O	-1.205111	-1.532092	-0.600184
O128	O	-0.705111	-1.032092	-0.100184
H129	H	-1.273167	-1.504540	-0.621575
H130	H	-0.773167	-1.004540	-0.121575
O131	O	-0.840433	-1.390570	-0.709408
O132	O	-0.340433	-0.890570	-0.209408
H133	H	-0.865779	-1.377609	-0.630810
H134	H	-0.365779	-0.877609	-0.130810
O135	O	-1.119937	-1.094452	-0.938728
O136	O	-0.619937	-0.594452	-0.438728
H137	H	-1.063747	-1.055370	-0.968943
H138	H	-0.563747	-0.555370	-0.468943
