data_functionalizedCrystal
_audit_creation_method	'MofGen! by Chris Wilmer'
_symmetry_space_group_name_H-M	'P1'
_symmetry_Int_Tables_number	1
_symmetry_cell_setting	triclinic
loop_
_symmetry_equiv_pos_as_xyz
  x,y,z
_cell_length_a	9.065218
_cell_length_b	9.065218
_cell_length_c	8.140239
_cell_angle_alpha	89.997972
_cell_angle_beta	90.004899
_cell_angle_gamma	94.984081
loop_
_atom_site_label
_atom_site_type_symbol
_atom_site_fract_x
_atom_site_fract_y
_atom_site_fract_z
O1	O	-1.960398	0.216356	-0.136692
O2	O	-1.627064	0.549689	0.196642
O3	O	-1.293731	0.883022	0.529975
O4	O	-1.531113	0.234102	-0.136676
O5	O	-1.197780	0.567435	0.196657
O6	O	-0.864446	0.900769	0.529991
O7	O	-1.754629	0.010586	-0.136679
O8	O	-1.421295	0.343920	0.196654
O9	O	-1.087962	0.677253	0.529987
O10	O	-1.736882	0.439871	-0.136688
O11	O	-1.403549	0.773205	0.196645
O12	O	-1.070216	1.106538	0.529978
O13	O	-1.754616	0.010584	0.136548
O14	O	-1.421283	0.343917	0.469881
O15	O	-1.087949	0.677250	0.803214
O16	O	-1.531101	0.234099	0.136551
O17	O	-1.197767	0.567433	0.469884
O18	O	-0.864434	0.900766	0.803218
O19	O	-1.960385	0.216353	0.136535
O20	O	-1.627052	0.549686	0.469869
O21	O	-1.293719	0.883020	0.803202
Zn22	Zn	-1.745741	0.225226	0.179924
Zn23	Zn	-1.412408	0.558559	0.513257
Zn24	Zn	-1.079074	0.891892	0.846591
Zn25	Zn	-1.745757	0.225229	-0.180065
Zn26	Zn	-1.412424	0.558563	0.153269
Zn27	Zn	-1.079091	0.891896	0.486602
O28	O	-1.736870	0.439869	0.136539
O29	O	-1.403536	0.773202	0.469872
O30	O	-1.070203	1.106535	0.803205
C31	C	-1.476120	0.232395	-0.000061
C32	C	-1.142787	0.565728	0.333273
C33	C	-0.809454	0.899062	0.666606
C34	C	-1.312277	0.227295	-0.000055
C35	C	-0.978944	0.560629	0.333279
C36	C	-0.645611	0.893962	0.666612
C37	C	-1.015378	0.218060	-0.000073
C38	C	-0.682045	0.551393	0.333260
C39	C	-0.348712	0.884726	0.666593
C40	C	-1.179221	0.223159	-0.000060
C41	C	-0.845888	0.556492	0.333274
C42	C	-0.512554	0.889826	0.666607
C43	C	-1.752917	-0.044402	-0.000068
C44	C	-1.419584	0.288932	0.333265
C45	C	-1.086250	0.622265	0.666599
C46	C	-1.747817	-0.208244	-0.000075
C47	C	-1.414484	0.125089	0.333259
C48	C	-1.081151	0.458422	0.666592
C49	C	-1.738581	0.494856	-0.000076
C50	C	-1.405248	0.828190	0.333257
C51	C	-1.071915	1.161523	0.666591
C52	C	-1.743681	0.658699	-0.000080
C53	C	-1.410348	0.992033	0.333253
C54	C	-1.077014	1.325366	0.666586
N55	N	-1.745740	0.225222	0.425607
N56	N	-1.412407	0.558556	0.758940
N57	N	-1.079074	0.891889	1.092273
N58	N	-1.745769	0.225221	-0.425747
N59	N	-1.412436	0.558554	-0.092414
N60	N	-1.079103	0.891888	0.240920
