data_functionalizedCrystal
_audit_creation_method	'MofGen! by Chris Wilmer'
_symmetry_space_group_name_H-M	'P1'
_symmetry_Int_Tables_number	1
_symmetry_cell_setting	triclinic
loop_
_symmetry_equiv_pos_as_xyz
  x,y,z
_cell_length_a	19.288864
_cell_length_b	17.666332
_cell_length_c	19.288865
_cell_angle_alpha	89.989547
_cell_angle_beta	96.863755
_cell_angle_gamma	90.023099
loop_
_atom_site_label
_atom_site_type_symbol
_atom_site_fract_x
_atom_site_fract_y
_atom_site_fract_z
O1	O	0.921353	0.063200	-0.086648
O2	O	1.254686	0.396533	0.246686
O3	O	1.588020	0.729866	0.580019
O4	O	0.719092	0.063149	-0.098336
O5	O	1.052426	0.396482	0.234997
O6	O	1.385759	0.729816	0.568330
O7	O	0.826067	0.063161	0.008638
O8	O	1.159400	0.396494	0.341972
O9	O	1.492734	0.729828	0.675305
O10	O	0.814378	0.063188	-0.193622
O11	O	1.147712	0.396521	0.139711
O12	O	1.481045	0.729855	0.473044
O13	O	0.826048	-0.062736	0.008641
O14	O	1.159382	0.270597	0.341975
O15	O	1.492715	0.603931	0.675308
O16	O	0.719074	-0.062748	-0.098333
O17	O	1.052407	0.270586	0.235000
O18	O	1.385740	0.603919	0.568333
O19	O	0.921334	-0.062697	-0.086644
O20	O	1.254668	0.270636	0.246689
O21	O	1.588001	0.603970	0.580022
Cu22	Cu	0.820202	-0.074218	-0.092489
Cu23	Cu	1.153536	0.259116	0.240845
Cu24	Cu	1.486869	0.592449	0.574178
Cu25	Cu	0.820224	0.074670	-0.092492
Cu26	Cu	1.153558	0.408003	0.240841
Cu27	Cu	1.486891	0.741336	0.574174
O28	O	0.814360	-0.062709	-0.193619
O29	O	1.147693	0.270625	0.139714
O30	O	1.481026	0.603958	0.473047
C31	C	0.693207	0.000194	-0.097959
C32	C	1.026540	0.333527	0.235375
C33	C	1.359873	0.666861	0.568708
C34	C	0.616103	0.000174	-0.096830
C35	C	0.949436	0.333507	0.236504
C36	C	1.282770	0.666841	0.569837
N37	N	0.820192	-0.178937	-0.092486
N38	N	1.153525	0.154396	0.240848
N39	N	1.486858	0.487729	0.574181
C40	C	0.571407	0.000194	-0.159598
C41	C	0.904740	0.333528	0.173736
C42	C	1.238073	0.666861	0.507069
C43	C	0.498960	0.000203	-0.158537
C44	C	0.832293	0.333536	0.174796
C45	C	1.165626	0.666869	0.508130
C46	C	0.471212	0.000206	-0.094705
C47	C	0.804545	0.333539	0.238629
C48	C	1.137879	0.666872	0.571962
C49	C	0.515918	0.000181	-0.031929
C50	C	0.849252	0.333514	0.301405
C51	C	1.182585	0.666848	0.634738
C52	C	0.588364	0.000165	-0.032991
C53	C	0.921697	0.333499	0.300342
C54	C	1.255030	0.666832	0.633676
C55	C	0.362957	0.044332	-0.044527
C56	C	0.696290	0.377665	0.288807
C57	C	1.029623	0.710998	0.622140
C58	C	0.290512	0.044352	-0.043467
C59	C	0.623846	0.377685	0.289867
C60	C	0.957179	0.711019	0.623200
C61	C	0.247767	0.000251	-0.091425
C62	C	0.581100	0.333584	0.241908
C63	C	0.914433	0.666918	0.575242
C64	C	0.277473	-0.043861	-0.140455
C65	C	0.610806	0.289473	0.192878
C66	C	0.944139	0.622806	0.526212
C67	C	0.349918	-0.043877	-0.141518
C68	C	0.683251	0.289457	0.191816
C69	C	1.016585	0.622790	0.525149
C70	C	0.392658	0.000222	-0.093546
C71	C	0.725991	0.333556	0.239788
C72	C	1.059325	0.666889	0.573121
C73	C	0.124514	0.000279	-0.153047
C74	C	0.457848	0.333613	0.180286
C75	C	0.791181	0.666946	0.513619
C76	C	0.052066	0.000283	-0.151984
C77	C	0.385400	0.333616	0.181349
C78	C	0.718733	0.666949	0.514683
C79	C	0.069026	0.000269	-0.025374
C80	C	0.402360	0.333602	0.307960
C81	C	0.735693	0.666936	0.641293
C82	C	0.141473	0.000258	-0.026439
C83	C	0.474806	0.333591	0.306894
C84	C	0.808140	0.666924	0.640228
C85	C	0.169212	0.000267	-0.090278
C86	C	0.502546	0.333600	0.243056
C87	C	0.835879	0.666933	0.576389
C88	C	0.862179	-0.218523	-0.134509
C89	C	1.195513	0.114810	0.198824
C90	C	1.528846	0.448143	0.532157
C91	C	0.862190	-0.297771	-0.134507
C92	C	1.195524	0.035562	0.198826
C93	C	1.528857	0.368896	0.532159
C94	C	0.820201	-0.337429	-0.092490
C95	C	1.153534	-0.004096	0.240844
C96	C	1.486868	0.329237	0.574177
C97	C	0.778211	-0.297833	-0.050457
C98	C	1.111544	0.035500	0.282876
C99	C	1.444878	0.368833	0.616209
C100	C	0.778206	-0.218587	-0.050455
C101	C	1.111540	0.114746	0.282878
C102	C	1.444873	0.448079	0.616211
N103	N	0.759369	-0.461885	-0.090783
N104	N	1.092702	-0.128551	0.242550
N105	N	1.426036	0.204782	0.575884
N106	N	0.759375	-0.537165	-0.090789
N107	N	1.092709	-0.203832	0.242545
N108	N	1.426042	0.129501	0.575878
C109	C	0.820214	-0.576193	-0.092492
C110	C	1.153547	-0.242860	0.240841
C111	C	1.486880	0.090473	0.574175
N112	N	0.881046	-0.537097	-0.094203
N113	N	1.214380	-0.203764	0.239131
N114	N	1.547713	0.129570	0.572464
N115	N	0.881039	-0.461810	-0.094200
N116	N	1.214372	-0.128476	0.239133
N117	N	1.547706	0.204857	0.572466
C118	C	0.820202	-0.423358	-0.092487
C119	C	1.153535	-0.090025	0.240847
C120	C	1.486868	0.243308	0.574180
C121	C	0.862217	-0.701709	-0.134516
C122	C	1.195550	-0.368376	0.198818
C123	C	1.528884	-0.035042	0.532151
C124	C	0.862229	-0.780958	-0.134509
C125	C	1.195563	-0.447625	0.198825
C126	C	1.528896	-0.114291	0.532158
C127	C	0.778244	-0.781019	-0.050463
C128	C	1.111577	-0.447686	0.282871
C129	C	1.444910	-0.114352	0.616204
C130	C	0.778237	-0.701771	-0.050466
C131	C	1.111571	-0.368438	0.282868
C132	C	1.444904	-0.035105	0.616201
C133	C	0.820223	-0.662121	-0.092496
C134	C	1.153556	-0.328788	0.240837
C135	C	1.486890	0.004546	0.574171
C136	C	0.947220	0.000260	-0.087022
C137	C	1.280554	0.333593	0.246311
C138	C	1.613887	0.666926	0.579645
C139	C	1.024324	0.000285	-0.088151
C140	C	1.357657	0.333618	0.245182
C141	C	1.690990	0.666951	0.578516
C142	C	0.825682	0.000210	0.034516
C143	C	1.159015	0.333543	0.367850
C144	C	1.492348	0.666877	0.701183
C145	C	0.824553	0.000203	0.111620
C146	C	1.157886	0.333537	0.444953
C147	C	1.491219	0.666870	0.778287
N148	N	0.820241	0.179389	-0.092490
N149	N	1.153574	0.512723	0.240844
N150	N	1.486907	0.846056	0.574177
C151	C	0.814745	0.000244	-0.219497
C152	C	1.148078	0.333577	0.113836
C153	C	1.481412	0.666910	0.447169
C154	C	0.815874	0.000255	-0.296601
C155	C	1.149207	0.333589	0.036733
C156	C	1.482541	0.666922	0.370066
C157	C	0.887321	0.000215	0.156316
C158	C	1.220654	0.333549	0.489650
C159	C	1.553987	0.666882	0.822983
C160	C	0.886260	0.000227	0.228763
C161	C	1.219593	0.333560	0.562097
C162	C	1.552927	0.666894	0.895430
C163	C	0.822428	0.000211	0.256511
C164	C	1.155761	0.333545	0.589844
C165	C	1.489094	0.666878	0.923178
C166	C	0.759652	0.000204	0.211805
C167	C	1.092985	0.333537	0.545138
C168	C	1.426318	0.666870	0.878471
C169	C	0.760714	0.000200	0.139359
C170	C	1.094047	0.333533	0.472693
C171	C	1.427381	0.666866	0.806026
C172	C	0.772242	-0.043900	0.364799
C173	C	1.105575	0.289433	0.698133
C174	C	1.438908	0.622767	1.031466
C175	C	0.771182	-0.043901	0.437244
C176	C	1.104515	0.289433	0.770577
C177	C	1.437848	0.622766	1.103910
C178	C	0.819148	0.000228	0.479956
C179	C	1.152481	0.333561	0.813290
C180	C	1.485815	0.666894	1.146623
C181	C	0.868186	0.044346	0.450217
C182	C	1.201519	0.377680	0.783551
C183	C	1.534853	0.711013	1.116884
C184	C	0.869249	0.044342	0.377772
C185	C	1.202582	0.377676	0.711105
C186	C	1.535915	0.711009	1.044438
C187	C	0.821269	0.000216	0.335065
C188	C	1.154602	0.333550	0.668398
C189	C	1.487935	0.666883	1.001732
C190	C	0.880770	0.000253	0.603209
C191	C	1.214104	0.333587	0.936542
C192	C	1.547437	0.666920	1.269875
C193	C	0.879707	0.000270	0.675657
C194	C	1.213040	0.333603	1.008990
C195	C	1.546374	0.666936	1.342323
C196	C	0.753097	0.000239	0.658697
C197	C	1.086430	0.333572	0.992030
C198	C	1.419763	0.666906	1.325363
C199	C	0.754162	0.000230	0.586250
C200	C	1.087495	0.333563	0.919583
C201	C	1.420829	0.666897	1.252917
C202	C	0.818001	0.000234	0.558511
C203	C	1.151334	0.333567	0.891844
C204	C	1.484667	0.666900	1.225177
H205	H	0.593987	0.000203	-0.211580
H206	H	0.927320	0.333536	0.121753
H207	H	1.260654	0.666870	0.455087
H208	H	0.707679	0.000193	0.234401
H209	H	1.041012	0.333526	0.567735
H210	H	1.374346	0.666859	0.901068
H211	H	0.709599	0.000190	0.102967
H212	H	1.042933	0.333523	0.436300
H213	H	1.376266	0.666856	0.769633
H214	H	0.397755	0.080249	-0.005472
H215	H	0.731089	0.413582	0.327862
H216	H	1.064422	0.746915	0.661195
H217	H	0.624756	0.000149	0.018124
H218	H	0.958090	0.333483	0.351457
H219	H	1.291423	0.666816	0.684790
H220	H	0.242670	-0.079773	-0.179507
H221	H	0.576004	0.253561	0.153826
H222	H	0.909337	0.586894	0.487160
H223	H	0.907245	0.080280	0.484993
H224	H	1.240578	0.413614	0.818326
H225	H	1.573911	0.746947	1.151660
H226	H	0.909176	0.080267	0.353561
H227	H	1.242509	0.413600	0.686894
H228	H	1.575842	0.746934	1.020228
H229	H	0.177866	0.000245	0.024674
H230	H	0.511199	0.333579	0.358007
H231	H	0.844533	0.666912	0.691340
H232	H	0.493322	0.000194	0.020044
H233	H	0.826655	0.333527	0.353377
H234	H	1.159988	0.666861	0.686711
H235	H	0.744014	-0.186357	-0.016234
H236	H	1.077347	0.146977	0.317100
H237	H	1.410680	0.480310	0.650433
H238	H	0.939303	0.000221	0.133736
H239	H	1.272636	0.333554	0.467069
H240	H	1.605970	0.666887	0.800403
H241	H	0.462561	0.000217	-0.209652
H242	H	0.795894	0.333550	0.123682
H243	H	1.129228	0.666884	0.457015
H244	H	0.896370	-0.186245	-0.168731
H245	H	1.229703	0.147088	0.164602
H246	H	1.563037	0.480422	0.497936
H247	H	0.374102	-0.079796	-0.181437
H248	H	0.707435	0.253537	0.151896
H249	H	1.040769	0.586870	0.485229
H250	H	0.015674	0.000295	-0.203099
H251	H	0.349008	0.333628	0.130234
H252	H	0.682341	0.666962	0.463567
H253	H	0.147101	0.000275	-0.205028
H254	H	0.480434	0.333609	0.128305
H255	H	0.813767	0.666942	0.461638
H256	H	0.744024	-0.330128	-0.016245
H257	H	1.077357	0.003205	0.317088
H258	H	1.410690	0.336538	0.650421
H259	H	0.930822	0.000284	0.712049
H260	H	1.264156	0.333617	1.045382
H261	H	1.597489	0.666950	1.378715
H262	H	0.932751	0.000260	0.580622
H263	H	1.266085	0.333593	0.913956
H264	H	1.599418	0.666926	1.247289
H265	H	0.703049	0.000216	0.549857
H266	H	1.036383	0.333549	0.883190
H267	H	1.369716	0.666883	1.216524
H268	H	0.701123	0.000230	0.681288
H269	H	1.034457	0.333563	1.014621
H270	H	1.367790	0.666897	1.347954
H271	H	0.896404	-0.669424	-0.168739
H272	H	1.229738	-0.336091	0.164594
H273	H	1.563071	-0.002757	0.497928
H274	H	0.744056	-0.813308	-0.016250
H275	H	1.077389	-0.479975	0.317083
H276	H	1.410722	-0.146641	0.650416
H277	H	0.046435	0.000318	0.026600
H278	H	0.379769	0.333652	0.359933
H279	H	0.713102	0.666985	0.693266
H280	H	0.731249	-0.079820	0.461451
H281	H	1.064582	0.253513	0.794784
H282	H	1.397916	0.586846	1.128118
H283	H	0.266331	0.080274	-0.003547
H284	H	0.599664	0.413607	0.329787
H285	H	0.932998	0.746940	0.663120
H286	H	0.733180	-0.079839	0.330028
H287	H	1.066513	0.253495	0.663361
H288	H	1.399846	0.586828	0.996694
H289	H	0.896426	-0.813188	-0.168728
H290	H	1.229759	-0.479855	0.164606
H291	H	1.563092	-0.146521	0.497939
H292	H	0.937375	0.000240	0.265162
H293	H	1.270708	0.333573	0.598495
H294	H	1.604041	0.666906	0.931829
H295	H	0.744044	-0.669540	-0.016248
H296	H	1.077377	-0.336206	0.317085
H297	H	1.410710	-0.002873	0.650418
H298	H	0.896382	-0.330009	-0.168730
H299	H	1.229715	0.003325	0.164603
H300	H	1.563049	0.336658	0.497937
