data_functionalizedCrystal
_audit_creation_method	'MofGen! by Chris Wilmer'
_symmetry_space_group_name_H-M	'P1'
_symmetry_Int_Tables_number	1
_symmetry_cell_setting	triclinic
loop_
_symmetry_equiv_pos_as_xyz
  x,y,z
_cell_length_a	6.817900
_cell_length_b	12.200863
_cell_length_c	19.453114
_cell_angle_alpha	94.895602
_cell_angle_beta	101.709288
_cell_angle_gamma	107.143441
loop_
_atom_site_label
_atom_site_type_symbol
_atom_site_fract_x
_atom_site_fract_y
_atom_site_fract_z
V1	V	-4.025501	-0.159907	-0.219071
O2	O	-3.993988	0.006455	-0.214827
O3	O	-3.995349	-0.315887	-0.217643
O4	O	-3.968192	-0.157987	-0.314583
O5	O	-4.021333	-0.152538	-0.117216
V6	V	-4.507919	-0.139945	-0.206880
O7	O	-4.289184	-0.203697	-0.245813
O8	O	-4.694434	-0.096155	-0.180137
O9	O	-4.314864	0.016035	-0.208307
O10	O	-4.656830	-0.306307	-0.211123
O11	O	-4.629484	-0.147314	-0.308734
O12	O	-4.342022	-0.141865	-0.111368
C13	C	-3.845078	-0.353895	-0.214206
C14	C	-3.901652	-0.481414	-0.213675
C15	C	-3.810434	-0.152476	-0.337861
C16	C	-3.844982	-0.151938	-0.415943
C17	C	-4.005195	-0.714885	-0.212709
C18	C	-3.947568	-0.584965	-0.213247
C19	C	-4.043668	-0.157443	-0.456203
C20	C	-4.076129	-0.156937	-0.529569
C21	C	-3.909904	-0.150950	-0.562675
C22	C	-3.711187	-0.145437	-0.522406
C23	C	-3.678726	-0.145931	-0.449040
N24	N	-3.857248	-0.211530	-0.681492
N25	N	-3.888099	-0.211063	-0.751187
C26	C	-4.007696	-0.149459	-0.783723
N27	N	-4.095315	-0.088353	-0.743933
N28	N	-4.064470	-0.088825	-0.674232
C29	C	-3.945082	-0.150413	-0.642228
C30	C	-4.241592	-0.154414	-0.903535
C31	C	-4.274043	-0.153902	-0.976902
C32	C	-3.909101	-0.142413	-0.969738
C33	C	-3.876650	-0.142914	-0.896372
C34	C	-4.042906	-0.148921	-0.863275
C35	C	-4.128479	0.054037	-0.211743
C36	C	-4.051142	0.181555	-0.212278
C37	C	-4.163122	-0.147380	-0.088086
C38	C	-4.107813	-0.147912	-0.010003
H39	H	-4.179048	-0.162329	-0.429260
H40	H	-4.237931	-0.161426	-0.562356
H41	H	-4.435836	-0.158376	-1.009680
C42	C	-4.421840	-0.160970	-0.867469
C43	C	-4.350908	-0.160263	-0.794604
C44	C	-4.516900	-0.166314	-0.761360
H45	H	-4.469266	-0.096030	-0.874437
H46	H	-4.535127	-0.230514	-0.887372
H47	H	-4.237659	-0.090727	-0.774707
H48	H	-4.303499	-0.225200	-0.787615
H49	H	-4.630186	-0.235858	-0.781264
H50	H	-4.564314	-0.101372	-0.768334
H51	H	-4.468801	-0.165846	-0.711919
H52	H	-3.575846	-0.140559	-0.549365
C53	C	-3.463203	-0.140193	-0.405273
C54	C	-3.482630	-0.239353	-0.372461
C55	C	-3.284144	-0.234123	-0.332137
H56	H	-3.368710	-0.136621	-0.435429
H57	H	-3.409890	-0.072956	-0.370011
H58	H	-3.535914	-0.306572	-0.407719
H59	H	-3.577086	-0.242945	-0.342293
H60	H	-3.230831	-0.166886	-0.296874
H61	H	-3.189665	-0.230548	-0.362298
H62	H	-3.297301	-0.301395	-0.309864
H63	H	-3.773751	-0.137528	-0.996692
H64	H	-3.714865	-0.138444	-0.863593
