data_functionalizedCrystal
_audit_creation_method	'MofGen! by Chris Wilmer'
_symmetry_space_group_name_H-M	'P1'
_symmetry_Int_Tables_number	1
_symmetry_cell_setting	triclinic
loop_
_symmetry_equiv_pos_as_xyz
  x,y,z
_cell_length_a	27.440280
_cell_length_b	20.016444
_cell_length_c	20.016444
_cell_angle_alpha	90.002879
_cell_angle_beta	60.008532
_cell_angle_gamma	60.000947
loop_
_atom_site_label
_atom_site_type_symbol
_atom_site_fract_x
_atom_site_fract_y
_atom_site_fract_z
Zr1	Zr	0.533409	-0.087663	0.643674
O2	O	0.635063	-0.194333	0.537020
O3	O	0.431750	-0.054964	0.676357
O4	O	0.533407	-0.194335	0.676375
O5	O	0.533410	0.054978	0.537002
O6	O	0.533410	-0.194335	0.786314
O7	O	0.533407	-0.054962	0.537002
O8	O	0.351565	0.054975	0.786283
O9	O	0.715256	-0.194332	0.537034
O10	O	0.473568	-0.041017	0.772358
O11	O	0.473568	0.041030	0.690311
O12	O	0.593256	-0.123062	0.690332
O13	O	0.593256	-0.041015	0.608285
Zr14	Zr	0.533421	0.087678	0.819016
Zr15	Zr	0.533415	-0.087663	0.819016
Zr16	Zr	0.533415	0.087678	0.643675
Zr17	Zr	0.661307	-0.087661	0.643697
Zr18	Zr	0.405524	0.087676	0.818994
O19	O	0.635081	0.054979	0.786333
O20	O	0.635072	-0.194334	0.786332
O21	O	0.635072	0.054979	0.537020
O22	O	0.431767	0.194349	0.925671
O23	O	0.431758	-0.054964	0.925670
O24	O	0.431758	0.194349	0.676358
O25	O	0.533420	-0.054963	0.925688
O26	O	0.533424	0.194351	0.786316
O27	O	0.533420	0.194351	0.676376
O28	O	0.533424	0.054977	0.925688
O29	O	0.715261	-0.194332	0.676407
O30	O	0.351570	0.194348	0.786284
O31	O	0.351575	0.194347	0.925657
O32	O	0.351570	0.054974	0.925656
O33	O	0.715261	-0.054959	0.537034
O34	O	0.715265	-0.054959	0.676407
O35	O	0.473574	0.123077	0.772359
O36	O	0.473574	0.041030	0.854405
O37	O	0.593262	-0.041015	0.772379
O38	O	0.593262	0.041032	0.690333
C39	C	0.373435	0.000005	0.731317
C40	C	0.319139	0.000004	0.731307
C41	C	0.533408	0.000008	0.512020
C42	C	0.533405	0.000008	0.437583
C43	C	0.533423	0.219333	0.731346
C44	C	0.533425	0.293770	0.731346
C45	C	-0.017603	-0.042813	0.774195
C46	C	-0.068627	-0.042811	0.774203
O47	O	-0.095033	-0.079209	0.810651
N48	N	-0.094143	0.000015	0.731375
C49	C	-0.068638	0.042849	0.688543
O50	O	-0.095027	0.079276	0.652116
C51	C	-0.017618	0.042851	0.688541
C52	C	0.007900	0.000015	0.731365
C53	C	0.007915	-0.085644	0.817017
C54	C	0.058936	-0.085648	0.817008
C55	C	0.084439	-0.042819	0.774178
C56	C	0.058921	0.000012	0.731356
C57	C	0.007883	0.085688	0.645715
C58	C	0.058905	0.085687	0.645717
C59	C	0.084424	0.042852	0.688541
C60	C	0.135446	0.042837	0.688517
N61	N	0.160962	0.000011	0.731345
C62	C	0.135459	-0.042817	0.774176
C63	C	-0.175783	0.042842	0.688552
C64	C	-0.226798	0.042836	0.688549
C65	C	-0.226785	-0.042822	0.774210
C66	C	-0.175765	-0.042820	0.774208
C67	C	-0.150267	0.000016	0.731380
C68	C	0.242608	-0.042822	0.774153
C69	C	0.293635	-0.042824	0.774138
C70	C	0.293615	0.042838	0.688480
C71	C	0.242594	0.042837	0.688492
C72	C	0.217090	0.000005	0.731334
O73	O	0.161883	0.079219	0.652090
O74	O	0.161848	-0.079230	0.810606
C75	C	0.693396	0.000010	0.731374
C76	C	0.747692	0.000011	0.731383
C77	C	0.533408	-0.219318	0.731344
C78	C	0.533405	-0.293755	0.731344
C79	C	0.595893	0.422211	0.688527
C80	C	0.595890	0.492156	0.688524
C81	C	0.470932	0.577803	0.774165
C82	C	0.470936	0.507859	0.774162
C83	C	0.533418	0.430063	0.731345
C84	C	0.533412	0.569952	0.731345
C85	C	0.533408	0.645790	0.731343
C86	C	0.533422	0.354220	0.731346
C87	C	0.470937	0.042836	0.309132
C88	C	0.470940	0.042838	0.239187
C89	C	0.595898	-0.042822	0.153560
C90	C	0.595894	-0.042819	0.223504
C91	C	0.533412	0.000008	0.301290
C92	C	0.533418	0.000007	0.161400
C93	C	0.533422	0.000009	0.085563
C94	C	0.533408	0.000008	0.377133
C95	C	0.533423	0.000007	0.950671
C96	C	0.533425	0.000007	1.025108
C97	C	0.373442	0.000005	0.950642
C98	C	0.319149	0.000004	1.025070
C99	C	0.373442	0.219330	0.731318
C100	C	0.319149	0.293767	0.731308
C101	C	0.373450	0.219330	0.950643
C102	C	0.319159	0.293766	1.025071
C103	C	0.693380	-0.219315	0.512047
C104	C	0.747671	-0.293751	0.437620
C105	C	0.693388	0.000011	0.512048
C106	C	0.747681	0.000011	0.437621
C107	C	0.693388	-0.219315	0.731373
C108	C	0.747681	-0.293751	0.731382
C109	C	0.293649	-0.042832	1.017194
C110	C	0.242642	-0.042849	1.087120
C111	C	0.217132	-0.000026	1.164920
C112	C	0.242637	0.042811	1.172795
C113	C	0.293647	0.042823	1.102870
C114	C	0.293655	0.371558	0.774132
C115	C	0.242648	0.441505	0.774120
C116	C	0.217132	0.433660	0.731289
C117	C	0.242631	0.355860	0.688460
C118	C	0.293641	0.285915	0.688468
C119	C	0.293664	0.285894	1.102858
C120	C	0.242659	0.355828	1.172797
C121	C	0.217147	0.433633	1.164948
C122	C	0.242648	0.441503	1.087153
C123	C	0.293655	0.371570	1.017215
C124	C	0.773173	-0.285879	0.359833
C125	C	0.824194	-0.355813	0.289893
C126	C	0.849708	-0.433618	0.297743
C127	C	0.824204	-0.441488	0.375538
C128	C	0.773188	-0.371555	0.445475
C129	C	0.773186	0.042840	0.445497
C130	C	0.824208	0.042838	0.375571
C131	C	0.849720	0.000012	0.297770
C132	C	0.824213	-0.042822	0.289896
C133	C	0.773196	-0.042824	0.359821
C134	C	0.773181	-0.285880	0.774221
C135	C	0.824189	-0.355814	0.774246
C136	C	0.849699	-0.433618	0.731426
C137	C	0.824194	-0.441488	0.688586
C138	C	0.773184	-0.371555	0.688566
H139	H	0.221847	-0.077698	0.809041
H140	H	0.752419	-0.222533	0.809090
H141	H	0.844992	-0.077689	0.226541
H142	H	0.891261	0.000020	0.240839
N143	N	0.659721	-0.086567	0.215481
N144	N	0.715503	-0.124806	0.146027
H145	H	0.760579	-0.155699	0.140361
N146	N	0.407129	0.086568	0.247184
N147	N	0.407139	0.086559	0.184731
H148	H	0.362070	0.117442	0.190379
H149	H	0.221902	0.349406	1.236135
N150	N	0.747152	-0.086577	0.351754
N151	N	0.769940	-0.124807	0.282281
H152	H	0.751551	-0.155712	0.276577
H153	H	0.420060	0.077718	0.372467
H154	H	0.646771	0.358869	0.653660
H155	H	0.891235	-0.490556	0.731448
H156	H	0.646764	0.485755	0.653655
H157	H	0.175614	0.490571	1.221902
N158	N	0.850255	-0.520981	0.644884
N159	N	0.844553	-0.569536	0.682205
H160	H	0.862964	-0.625686	0.651348
H161	H	0.314428	0.222548	1.109264
N162	N	0.407117	0.657275	0.817895
N163	N	0.407122	0.719719	0.817892
H164	H	0.362051	0.775847	0.848778
H165	H	0.752402	-0.222533	0.353426
H166	H	0.752428	-0.377976	0.653678
H167	H	0.221868	0.504861	1.080774
H168	H	0.314412	-0.077709	0.809010
N169	N	0.747139	0.086596	0.524956
N170	N	0.769928	0.124825	0.531962
H171	H	0.751537	0.155728	0.588079
N172	N	0.407109	0.515892	0.817901
N173	N	0.351327	0.585355	0.856130
H174	H	0.306251	0.591028	0.887016
H175	H	-0.012847	-0.120519	0.851898
N176	N	0.319670	0.379640	0.937768
N177	N	0.279785	0.416146	0.916931
H178	H	0.298153	0.421854	0.860823
N179	N	0.319688	-0.086575	0.937734
N180	N	0.296906	-0.124815	0.930729
H181	H	0.315293	-0.155712	0.874612
H182	H	0.844950	-0.349390	0.809131
N183	N	0.850231	-0.347748	0.210441
N184	N	0.827435	-0.278272	0.203452
H185	H	0.845822	-0.272573	0.147341
H186	H	0.891248	-0.490555	0.240788
H187	H	0.844967	0.077721	0.381998
N188	N	0.216588	-0.086602	1.079080
N189	N	0.222289	-0.143007	1.108535
H190	H	0.203888	-0.173907	1.102857
H191	H	0.175597	0.490620	0.731289
H192	H	0.079708	-0.120525	0.851882
N193	N	0.659713	-0.086561	0.074098
N194	N	0.659709	-0.086559	0.011653
H195	H	0.704779	-0.117451	-0.044468
H196	H	-0.154991	-0.077700	0.809080
N197	N	0.164973	0.000047	1.236359
N198	N	0.108048	0.027812	1.248401
H199	H	0.071191	0.027896	1.298862
N200	N	-0.252843	-0.086576	0.817950
N201	N	-0.298394	-0.086568	0.817938
H202	H	-0.316797	-0.117470	0.848824
N203	N	0.216566	0.086549	1.252275
N204	N	0.171018	0.086531	1.314694
H205	H	0.152601	0.117425	1.370830
N206	N	0.319682	0.086587	1.110936
N207	N	0.296894	0.124817	1.180410
H208	H	0.315279	0.155727	1.186113
N209	N	0.850280	-0.520972	0.383533
N210	N	0.895828	-0.583399	0.321077
H211	H	0.914245	-0.639537	0.326720
H212	H	0.314425	0.377961	0.809010
N213	N	0.216616	0.520961	0.817875
N214	N	0.239402	0.527947	0.856119
H215	H	0.221019	0.584061	0.887022
N216	N	0.216556	0.347869	0.644716
N217	N	0.171008	0.410332	0.644727
H218	H	0.152588	0.404691	0.613837
N219	N	0.319659	0.206461	0.644733
N220	N	0.279780	0.185621	0.662896
H221	H	0.298152	0.129508	0.632006
N222	N	0.747138	-0.379618	0.524925
N223	N	0.718685	-0.416124	0.545757
H224	H	0.700290	-0.421825	0.601867
N225	N	-0.252852	0.086598	0.644800
N226	N	-0.281305	0.162110	0.662957
H227	H	-0.299706	0.193025	0.632062
H228	H	-0.155020	0.077720	0.653668
H229	H	0.079664	0.120570	0.610839
N230	N	-0.018166	0.129447	0.601963
N231	N	0.004617	0.167683	0.563734
H232	H	-0.013779	0.198592	0.532832
H233	H	0.221824	0.077706	0.653610
H234	H	0.314391	0.077705	0.653606
