data_functionalizedCrystal
_audit_creation_method	'MofGen! by Chris Wilmer'
_symmetry_space_group_name_H-M	'P1'
_symmetry_Int_Tables_number	1
_symmetry_cell_setting	triclinic
loop_
_symmetry_equiv_pos_as_xyz
  x,y,z
_cell_length_a	13.032831
_cell_length_b	13.032721
_cell_length_c	18.215399
_cell_angle_alpha	97.154738
_cell_angle_beta	82.809197
_cell_angle_gamma	90.902885
loop_
_atom_site_label
_atom_site_type_symbol
_atom_site_fract_x
_atom_site_fract_y
_atom_site_fract_z
Zn1	Zn	1.520252	-0.609421	-0.606330
Zn2	Zn	2.020252	-0.109421	-0.106330
Zn3	Zn	1.498292	-0.781391	-0.496682
Zn4	Zn	1.998292	-0.281391	0.003318
Zn5	Zn	1.348268	-0.587579	-0.465971
Zn6	Zn	1.848268	-0.087579	0.034029
Zn7	Zn	1.326400	-0.759468	-0.602401
Zn8	Zn	1.826400	-0.259468	-0.102401
O9	O	1.423303	-0.684465	-0.542846
O10	O	1.923303	-0.184465	-0.042846
O11	O	1.661252	-0.650550	-0.606282
O12	O	2.161252	-0.150550	-0.106282
O13	O	1.478353	-0.755716	-0.389623
O14	O	1.978353	-0.255716	0.110377
O15	O	1.389424	-0.446570	-0.473381
O16	O	1.889424	0.053430	0.026619
O17	O	1.645119	-0.776895	-0.525724
O18	O	2.145119	-0.276895	-0.025724
O19	O	1.515780	-0.462618	-0.576503
O20	O	2.015780	0.037382	-0.076503
O21	O	1.368130	-0.613322	-0.367060
O22	O	1.868130	-0.113322	0.132940
O23	O	1.201454	-0.592064	-0.469571
O24	O	1.701454	-0.092064	0.030429
O25	O	1.352153	-0.739530	-0.705907
O26	O	1.852153	-0.239530	-0.205907
O27	O	1.185387	-0.718350	-0.569806
O28	O	1.685387	-0.218350	-0.069806
O29	O	1.494576	-0.629292	-0.708794
O30	O	1.994576	-0.129292	-0.208794
O31	O	1.457148	-0.922390	-0.521914
O32	O	1.957148	-0.422390	-0.021914
O33	O	1.330860	-0.906283	-0.599586
O34	O	1.830860	-0.406283	-0.099586
C35	C	1.156105	-0.650459	-0.515930
C36	C	1.656105	-0.150459	-0.015930
C37	C	1.041794	-0.635936	-0.504435
C38	C	1.541794	-0.135936	-0.004435
C39	C	0.982896	-0.692045	-0.548845
C40	C	1.482896	-0.192045	-0.048845
C41	C	0.864749	-0.677036	-0.536966
C42	C	1.364749	-0.177036	-0.036966
C43	C	1.389276	-0.951653	-0.563675
C44	C	1.889276	-0.451653	-0.063675
C45	C	1.374813	-1.065969	-0.572620
C46	C	1.874813	-0.565969	-0.072620
C47	C	1.430906	-1.124877	-0.538216
C48	C	1.930906	-0.624877	-0.038216
C49	C	1.415959	-1.243029	-0.547460
C50	C	1.915959	-0.743029	-0.047460
C51	C	1.691544	-0.718605	-0.569867
C52	C	2.191544	-0.218605	-0.069867
C53	C	1.805852	-0.733153	-0.581382
C54	C	2.305852	-0.233153	-0.081382
C55	C	1.423375	-0.684402	-0.734800
C56	C	1.923375	-0.184402	-0.234800
C57	C	1.423405	-0.684375	-0.816599
C58	C	1.923405	-0.184375	-0.316599
C59	C	1.457491	-0.416237	-0.521955
C60	C	1.957491	0.083763	-0.021955
C61	C	1.472060	-0.301934	-0.513052
C62	C	1.972060	0.198066	-0.013052
C63	C	1.497596	-0.626915	-1.006295
C64	C	1.997596	-0.126915	-0.506295
C65	C	1.497612	-0.626887	-1.083153
C66	C	1.997612	-0.126887	-0.583153
C67	C	1.349307	-0.741685	-1.080136
C68	C	1.849307	-0.241685	-0.580136
C69	C	1.349288	-0.741707	-1.003279
C70	C	1.849288	-0.241707	-0.503279
C71	C	1.423438	-0.684324	-0.966361
C72	C	1.923438	-0.184324	-0.466361
C73	C	1.423473	-0.684274	-1.120076
C74	C	1.923473	-0.184274	-0.620076
C75	C	1.423490	-0.684244	-1.203408
C76	C	1.923490	-0.184244	-0.703408
C77	C	1.423420	-0.684353	-0.883023
C78	C	1.923420	-0.184353	-0.383023
C79	C	1.423300	-0.684461	-0.351639
C80	C	1.923300	-0.184461	0.148361
C81	C	1.423506	-0.684223	-0.269838
C82	C	1.923506	-0.184223	0.230162
H83	H	1.019939	-0.751190	-0.595664
H84	H	1.519939	-0.251190	-0.095664
N85	N	1.550342	-1.252891	-0.464973
N86	N	2.050342	-0.752891	0.035027
H87	H	1.514171	-1.203069	-0.423179
H88	H	2.014171	-0.703069	0.076821
H89	H	1.585699	-1.308501	-0.443339
H90	H	2.085699	-0.808501	0.056661
N91	N	1.296546	-1.115017	-0.620706
N92	N	1.796546	-0.615017	-0.120706
H93	H	1.296964	-1.192469	-0.620495
H94	H	1.796964	-0.692469	-0.120495
H95	H	1.225448	-1.087026	-0.600362
H96	H	1.725448	-0.587026	-0.100362
H97	H	1.004751	-0.576782	-0.457622
H98	H	1.504751	-0.076782	0.042378
H99	H	1.557971	-0.580188	-0.976238
H100	H	2.057971	-0.080188	-0.476238
H101	H	1.288892	-0.788455	-0.970763
H102	H	1.788892	-0.288455	-0.470763
N103	N	1.577586	-0.564954	-1.126223
N104	N	2.077586	-0.064954	-0.626223
H105	H	1.624550	-0.528605	-1.091170
H106	H	2.124550	-0.028605	-0.591170
H107	H	1.619856	-0.612851	-1.166173
H108	H	2.119856	-0.112851	-0.666173
H109	H	0.827711	-0.617879	-0.490149
H110	H	1.327711	-0.117879	0.009851
H111	H	1.356871	-1.280063	-0.583764
H112	H	1.856871	-0.780063	-0.083764
N113	N	1.509186	-1.075830	-0.490140
N114	N	2.009186	-0.575830	0.009860
H115	H	1.508770	-0.998379	-0.490354
H116	H	2.008770	-0.498379	0.009646
H117	H	1.490866	-1.092583	-0.437422
H118	H	1.990866	-0.592583	0.062578
H119	H	0.842890	-0.792300	-0.628205
H120	H	1.342890	-0.292300	-0.128205
N121	N	1.269321	-0.803556	-1.119952
N122	N	1.769321	-0.303556	-0.619952
H123	H	1.280582	-0.794828	-1.174700
H124	H	1.780582	-0.294828	-0.674700
H125	H	1.275948	-0.879046	-1.113854
H126	H	1.775948	-0.379046	-0.613854
