data_functionalizedCrystal
_audit_creation_method	'MofGen! by Chris Wilmer'
_symmetry_space_group_name_H-M	'P1'
_symmetry_Int_Tables_number	1
_symmetry_cell_setting	triclinic
loop_
_symmetry_equiv_pos_as_xyz
  x,y,z
_cell_length_a	17.077404
_cell_length_b	18.050590
_cell_length_c	17.077396
_cell_angle_alpha	90.029775
_cell_angle_beta	90.019501
_cell_angle_gamma	90.018777
loop_
_atom_site_label
_atom_site_type_symbol
_atom_site_fract_x
_atom_site_fract_y
_atom_site_fract_z
Zn1	Zn	1.200078	-0.295655	0.443836
Zn2	Zn	1.199995	-0.419852	0.312567
Zn3	Zn	1.068810	-0.295681	0.312584
Zn4	Zn	1.068788	-0.419808	0.443790
O5	O	1.134418	-0.357749	0.378194
O6	O	1.309914	-0.312138	0.426434
O7	O	1.182568	-0.403410	0.202722
O8	O	1.086267	-0.191753	0.330021
O9	O	1.309853	-0.403385	0.329992
O10	O	1.182709	-0.191734	0.426451
O11	O	1.086187	-0.312182	0.202734
O12	O	0.958960	-0.312139	0.329977
O13	O	1.086229	-0.403310	0.553643
O14	O	0.958944	-0.403335	0.426374
O15	O	1.182688	-0.312095	0.553677
O16	O	1.182546	-0.523771	0.329948
O17	O	1.086149	-0.523739	0.426357
C18	C	0.930470	-0.357736	0.378172
C19	C	0.843220	-0.357748	0.378182
C20	C	0.802242	-0.405305	0.428295
C21	C	0.720262	-0.405307	0.428308
C22	C	0.679261	-0.357754	0.378202
C23	C	0.720245	-0.310192	0.328087
C24	C	0.802224	-0.310187	0.328079
C25	C	0.549375	-0.310206	0.328106
C26	C	0.467390	-0.310212	0.328112
C27	C	0.467413	-0.405326	0.428335
C28	C	0.549392	-0.405321	0.428327
C29	C	0.590370	-0.357760	0.378210
C30	C	1.134358	-0.550701	0.378163
C31	C	1.134404	-0.633247	0.378176
C32	C	1.186934	-0.832688	0.325821
C33	C	1.206108	-0.882019	0.397464
C34	C	1.134448	-0.784377	0.378207
C35	C	1.115353	-0.882128	0.306596
C36	C	1.134493	-0.930362	0.378231
C37	C	1.153660	-0.832621	0.449887
C38	C	1.062871	-0.832726	0.358971
C39	C	1.082019	-0.882034	0.430663
C40	C	1.134424	-0.700279	0.378192
C41	C	1.134516	-1.014459	0.378254
C42	C	1.339162	-0.357763	0.378216
C43	C	1.426412	-0.357769	0.378226
C44	C	1.134465	-0.357694	0.582938
C45	C	1.134486	-0.357671	0.670188
C46	C	1.134500	-0.164043	0.378243
C47	C	1.134535	-0.081498	0.378263
C48	C	1.134416	-0.357750	0.174246
C49	C	1.134548	-0.357564	0.086997
C50	C	1.184713	-0.310172	0.711197
C51	C	1.184723	-0.310147	0.793178
C52	C	1.134508	-0.357626	0.834148
C53	C	1.084275	-0.405127	0.793133
C54	C	1.084262	-0.405148	0.711154
C55	C	1.084306	-0.405083	0.964003
C56	C	1.084320	-0.405064	1.045988
C57	C	1.184767	-0.310082	1.046027
C58	C	1.184754	-0.310102	0.964048
C59	C	1.134522	-0.357605	0.923039
H60	H	0.582772	-0.444047	0.469122
N61	N	1.175179	-0.803950	0.530143
H62	H	1.135818	-0.822321	0.569768
H63	H	1.175065	-0.748002	0.529563
N64	N	0.982688	-0.804016	0.337378
H65	H	0.968293	-0.821993	0.283237
H66	H	0.983203	-0.748070	0.338082
N67	N	1.093932	-0.910919	0.226362
H68	H	1.040237	-0.892213	0.211418
H69	H	1.093653	-0.966865	0.227133
N70	N	0.676024	-0.258908	0.274039
H71	H	0.714425	-0.228779	0.242292
H72	H	0.642031	-0.224580	0.306058
H73	H	1.225625	-0.271470	0.826563
H74	H	1.225607	-0.271511	0.677845
N75	N	0.846456	-0.456598	0.482339
H76	H	0.880496	-0.426461	0.518769
H77	H	0.880398	-0.490965	0.450314
H78	H	1.231334	-0.811021	0.281566
H79	H	0.434044	-0.444050	0.469144
N80	N	1.238919	-0.258900	0.919855
H81	H	1.270743	-0.228803	0.958272
H82	H	1.206975	-0.224539	0.885844
N83	N	1.238950	-0.258847	1.090252
H84	H	1.231338	-0.266035	1.148402
H85	H	1.226758	-0.205810	1.075932
N86	N	0.423164	-0.258925	0.274072
H87	H	0.461562	-0.228789	0.242326
H88	H	0.389172	-0.224603	0.306099
N89	N	1.030162	-0.456272	1.090180
H90	H	0.998333	-0.486364	1.051764
H91	H	0.993859	-0.426026	1.124198
N92	N	0.593575	-0.258905	0.274056
H93	H	0.555163	-0.228783	0.242313
H94	H	0.627565	-0.289090	0.237670
N95	N	1.030124	-0.456313	0.919770
H96	H	0.998317	-0.486390	0.958162
H97	H	1.062058	-0.490691	0.885752
N98	N	1.023238	-0.910545	0.489416
H99	H	1.037776	-0.892432	0.543469
H100	H	1.023264	-0.966493	0.488725
H101	H	0.835587	-0.271457	0.287275
N102	N	1.030117	-0.456331	0.837332
H103	H	1.042279	-0.509400	0.823057
H104	H	0.974054	-0.444732	0.823047
N105	N	1.030080	-0.456377	0.666927
H106	H	1.042247	-0.509438	0.681180
H107	H	1.037709	-0.449123	0.608791
N108	N	0.676063	-0.456611	0.482347
H109	H	0.714476	-0.486741	0.514079
H110	H	0.642031	-0.490936	0.450319
H111	H	1.266659	-0.903674	0.413749
