data_functionalizedCrystal
_audit_creation_method	'MofGen! by Chris Wilmer'
_symmetry_space_group_name_H-M	'P1'
_symmetry_Int_Tables_number	1
_symmetry_cell_setting	triclinic
loop_
_symmetry_equiv_pos_as_xyz
  x,y,z
_cell_length_a	12.837943
_cell_length_b	12.837942
_cell_length_c	11.295483
_cell_angle_alpha	85.469583
_cell_angle_beta	85.461227
_cell_angle_gamma	85.171060
loop_
_atom_site_label
_atom_site_type_symbol
_atom_site_fract_x
_atom_site_fract_y
_atom_site_fract_z
O1	O	1.408689	-0.265788	-0.099003
O2	O	1.105556	-0.252345	-0.099010
O3	O	1.250401	-0.107500	-0.098999
O4	O	1.263845	-0.410633	-0.099013
O5	O	1.237676	-0.120201	0.099051
O6	O	1.092832	-0.265045	0.099040
O7	O	1.395965	-0.278489	0.099047
Cu8	Cu	1.243237	-0.272927	0.117127
Cu9	Cu	1.258285	-0.257907	-0.117090
O10	O	1.251121	-0.423333	0.099037
C11	C	1.060125	-0.254153	0.000014
C12	C	0.943710	-0.240609	0.000012
C13	C	0.718835	-0.403439	0.000021
C14	C	0.609453	-0.390717	0.000020
C15	C	0.615561	-0.202446	0.000016
C16	C	0.724943	-0.215167	0.000017
C17	C	0.776576	-0.315667	0.000018
C18	C	0.885961	-0.328387	0.000011
C19	C	0.892066	-0.140117	0.000016
C20	C	0.782684	-0.127396	0.000015
C21	C	1.239497	-0.074781	0.000025
C22	C	1.225953	0.041634	0.000023
C23	C	1.441396	-0.276680	0.000021
C24	C	1.557812	-0.290224	0.000015
C25	C	1.262024	-0.456052	0.000010
C26	C	1.275569	-0.572467	0.000004
N27	N	1.232661	-0.283491	0.281863
C28	C	1.388784	0.266509	0.000002
C29	C	1.376062	0.375892	-0.000000
C30	C	1.187791	0.369784	0.000008
C31	C	1.200512	0.260402	0.000010
C32	C	1.301011	0.208768	0.000009
C33	C	1.313731	0.099383	0.000020
C34	C	1.125461	0.093278	0.000019
C35	C	1.112740	0.202660	0.000017
N36	N	1.268868	-0.247335	-0.281825
C37	C	1.344996	-0.171231	0.531161
C38	C	1.337012	-0.179223	0.655824
C39	C	1.208702	-0.307459	0.655854
C40	C	1.216687	-0.299467	0.531191
C41	C	1.284837	-0.231353	0.468849
C42	C	1.292826	-0.223367	0.344183
C43	C	1.164512	-0.351597	0.344216
C44	C	1.156528	-0.359589	0.468879
H45	H	0.760876	-0.485269	0.000020
H46	H	0.928000	-0.410219	0.000014
H47	H	1.470613	0.224468	0.000013
O48	O	1.411317	0.049163	0.000225
C49	C	1.417726	-0.020517	0.102781
H50	H	1.355875	0.006117	0.174480
H51	H	1.498919	-0.021259	0.137199
H52	H	1.403568	-0.102751	0.079595
O53	O	0.732488	-0.029784	-0.000200
C54	C	0.675965	-0.010237	-0.102757
H55	H	0.711800	-0.062898	-0.174444
H56	H	0.679634	0.075369	-0.137194
H57	H	0.590757	-0.027372	-0.079563
O58	O	1.395558	-0.120779	0.716169
C59	C	1.457395	-0.058927	0.634406
H60	H	1.468512	-0.096269	0.545542
H61	H	1.537112	-0.053560	0.670407
H62	H	1.416566	0.023062	0.621155
H63	H	0.562444	-0.462191	0.000025
O64	O	1.106227	-0.410059	0.283559
C65	C	1.173298	-0.475607	0.211468
H66	H	1.252289	-0.440843	0.192770
H67	H	1.136858	-0.482225	0.123815
H68	H	1.184983	-0.556757	0.259520
O69	O	1.015049	0.252660	-0.000035
C70	C	0.940305	0.178234	0.000005
H71	H	0.979376	0.103558	-0.037486
H72	H	0.874483	0.211384	-0.057492
H73	H	0.906616	0.159578	0.095023
H74	H	0.573495	-0.120630	0.000114
O75	O	0.948313	-0.054963	0.000062
C76	C	1.055932	-0.087734	0.000025
H77	H	1.065842	-0.172772	0.037528
H78	H	1.095764	-0.036130	0.057513
H79	H	1.093213	-0.080800	-0.094994
H80	H	1.053990	0.046252	0.000034
H81	H	1.447536	0.422901	-0.000010
O82	O	1.142437	-0.373474	0.716562
C83	C	1.067688	-0.315601	0.788658
H84	H	1.100101	-0.239019	0.807304
H85	H	1.049830	-0.363255	0.876335
H86	H	0.992691	-0.297731	0.740635
H87	H	1.105969	0.411844	-0.000004
O88	O	1.411072	-0.105029	0.470449
C89	C	1.353270	-0.030235	0.398355
H90	H	1.276650	-0.062571	0.379714
H91	H	1.400949	-0.012433	0.310675
H92	H	1.335472	0.044778	0.446377
O93	O	1.090267	-0.425613	0.529578
C94	C	1.015508	-0.367757	0.601679
H95	H	1.047909	-0.291174	0.620342
H96	H	0.997651	-0.415424	0.689348
H97	H	0.940511	-0.349890	0.553654
H98	H	1.348320	-0.167908	0.293425
