data_functionalizedCrystal
_audit_creation_method	'MofGen! by Chris Wilmer'
_symmetry_space_group_name_H-M	'P1'
_symmetry_Int_Tables_number	1
_symmetry_cell_setting	triclinic
loop_
_symmetry_equiv_pos_as_xyz
  x,y,z
_cell_length_a	10.489741
_cell_length_b	10.654550
_cell_length_c	9.130313
_cell_angle_alpha	90.004369
_cell_angle_beta	90.000826
_cell_angle_gamma	84.512052
loop_
_atom_site_label
_atom_site_type_symbol
_atom_site_fract_x
_atom_site_fract_y
_atom_site_fract_z
O1	O	-1.693966	-0.177192	-0.121708
O2	O	-1.193966	0.322808	0.378292
O3	O	-1.322763	-0.193824	-0.121731
O4	O	-0.822763	0.306176	0.378269
O5	O	-1.516899	-0.002773	-0.121710
O6	O	-1.016899	0.497227	0.378290
O7	O	-1.499830	-0.368243	-0.121729
O8	O	-0.999830	0.131757	0.378271
O9	O	-1.516886	-0.002767	0.121889
O10	O	-1.016886	0.497233	0.621889
O11	O	-1.322749	-0.193819	0.121868
O12	O	-0.822749	0.306181	0.621868
O13	O	-1.693953	-0.177186	0.121890
O14	O	-1.193953	0.322814	0.621890
Cu15	Cu	-1.508350	-0.185502	0.144122
Cu16	Cu	-1.008350	0.314498	0.644122
Cu17	Cu	-1.508366	-0.185509	-0.143962
Cu18	Cu	-1.008366	0.314491	0.356038
O19	O	-1.499816	-0.368238	0.121869
O20	O	-0.999816	0.131762	0.621869
C21	C	-1.275225	-0.192565	0.000065
C22	C	-0.775225	0.307435	0.500065
C23	C	-1.133597	-0.188807	0.000057
C24	C	-0.633597	0.311193	0.500057
C25	C	-1.515639	0.044029	0.000089
C26	C	-1.015639	0.544029	0.500089
C27	C	-1.511889	0.183474	0.000086
C28	C	-1.011889	0.683474	0.500086
C29	C	-1.741491	-0.178445	0.000091
C30	C	-1.241491	0.321555	0.500091
C31	C	-1.883118	-0.182204	0.000090
C32	C	-1.383118	0.317796	0.500090
C33	C	-1.065516	-0.067246	0.000077
C34	C	-0.565516	0.432754	0.500077
C35	C	-0.973368	-0.124673	-0.120030
C36	C	-0.473368	0.375327	0.379970
C37	C	-0.973389	-0.124697	0.120140
C38	C	-0.473389	0.375303	0.620140
C39	C	-1.043315	-0.246284	-0.120149
C40	C	-0.543315	0.253716	0.379851
C41	C	-1.043345	-0.246290	0.120128
C42	C	-0.543345	0.253710	0.620128
C43	C	-0.951224	-0.303805	-0.000008
C44	C	-0.451224	0.196195	0.499992
C45	C	-1.501076	-0.415039	0.000068
C46	C	-1.001076	0.084961	0.500068
C47	C	-1.504826	-0.554484	0.000060
C48	C	-1.004826	-0.054484	0.500060
N49	N	-1.508348	-0.185497	0.346744
N50	N	-1.008348	0.314503	0.846744
C51	C	-1.626194	0.262906	0.000093
C52	C	-1.126194	0.762906	0.500093
C53	C	-1.622663	0.393928	0.000074
C54	C	-1.122663	0.893928	0.500074
C55	C	-1.390513	0.366074	0.000050
C56	C	-0.890513	0.866074	0.500050
C57	C	-1.394045	0.235054	0.000057
C58	C	-0.894045	0.735054	0.500057
N59	N	-1.508378	-0.185504	-0.346585
N60	N	-1.008378	0.314496	0.153415
C61	C	-1.594341	-0.100935	0.423405
C62	C	-1.094341	0.399065	0.923405
C63	C	-1.594353	-0.100935	0.576742
C64	C	-1.094353	0.399065	1.076742
C65	C	-1.422375	-0.270070	0.576743
C66	C	-0.922375	0.229930	1.076743
C67	C	-1.422358	-0.270062	0.423409
C68	C	-0.922358	0.229938	0.923409
H69	H	-1.115254	0.032684	-0.000068
H70	H	-0.615254	0.532684	0.499932
H71	H	-1.664375	-0.032076	0.639156
H72	H	-1.164375	0.467924	1.139156
H73	H	-0.901752	-0.403841	-0.000079
H74	H	-0.401752	0.096159	0.499921
H75	H	-1.722150	0.220914	0.000113
H76	H	-1.222150	0.720914	0.500113
H77	H	-1.352366	-0.338923	0.639179
H78	H	-0.852366	0.161077	1.139179
H79	H	-1.664357	-0.032074	0.360988
H80	H	-1.164357	0.467926	0.860988
H81	H	-1.074361	-0.297681	0.221671
H82	H	-0.574361	0.202319	0.721671
H83	H	-1.352326	-0.338923	0.360987
H84	H	-0.852326	0.161077	0.860987
H85	H	-0.942384	-0.073241	-0.221568
H86	H	-0.442384	0.426759	0.278432
H87	H	-1.715742	0.458597	0.000077
H88	H	-1.215742	0.958597	0.500077
H89	H	-1.294568	0.408087	0.000029
H90	H	-0.794568	0.908087	0.500029
H91	H	-0.942430	-0.073237	0.221681
H92	H	-0.442430	0.426763	0.721681
H93	H	-1.074123	-0.297681	-0.221805
H94	H	-0.574123	0.202319	0.278195
H95	H	-1.300959	0.170376	0.000048
H96	H	-0.800959	0.670376	0.500048
