data_functionalizedCrystal
_audit_creation_method	'MofGen! by Chris Wilmer'
_symmetry_space_group_name_H-M	'P1'
_symmetry_Int_Tables_number	1
_symmetry_cell_setting	triclinic
loop_
_symmetry_equiv_pos_as_xyz
  x,y,z
_cell_length_a	8.597226
_cell_length_b	8.559649
_cell_length_c	7.681481
_cell_angle_alpha	94.930900
_cell_angle_beta	91.834657
_cell_angle_gamma	77.626040
loop_
_atom_site_label
_atom_site_type_symbol
_atom_site_fract_x
_atom_site_fract_y
_atom_site_fract_z
O1	O	-2.002629	-0.283814	-0.450307
O2	O	-1.502629	0.216186	0.049693
O3	O	-1.551266	-0.295110	-0.381818
O4	O	-1.051266	0.204890	0.118182
O5	O	-1.816713	-0.058106	-0.422095
O6	O	-1.316713	0.441894	0.077905
O7	O	-1.737182	-0.520819	-0.410030
O8	O	-1.237182	-0.020819	0.089970
O9	O	-1.849393	-0.028866	-0.134196
O10	O	-1.349393	0.471134	0.365804
O11	O	-1.583947	-0.265871	-0.093919
O12	O	-1.083947	0.234129	0.406081
O13	O	-2.035309	-0.254575	-0.162408
O14	O	-1.535309	0.245425	0.337592
Zn15	Zn	-1.814816	-0.255580	-0.082453
Zn16	Zn	-1.314816	0.244420	0.417547
Zn17	Zn	-1.771759	-0.294104	-0.461773
Zn18	Zn	-1.271759	0.205896	0.038227
O19	O	-1.769862	-0.491579	-0.122131
O20	O	-1.269862	0.008421	0.377869
C21	C	-1.510357	-0.277646	-0.229182
C22	C	-1.010357	0.222354	0.270818
C23	C	-1.339775	-0.269150	-0.203298
C24	C	-0.839775	0.230850	0.296702
C25	C	-1.839080	0.015855	-0.279063
C26	C	-1.339080	0.515855	0.220937
C27	C	-1.857019	0.192672	-0.281795
C28	C	-1.357019	0.692672	0.218205
C29	C	-1.076220	-0.272035	-0.315040
C30	C	-0.576220	0.227965	0.184960
C31	C	-1.246807	-0.280516	-0.340910
C32	C	-0.746807	0.219484	0.159090
C33	C	-1.747495	-0.565540	-0.265167
C34	C	-1.247495	-0.065540	0.234833
C35	C	-1.729554	-0.742359	-0.262446
C36	C	-1.229554	-0.242359	0.237554
N37	N	-1.844213	-0.229288	0.176421
N38	N	-1.344213	0.270712	0.676421
N39	N	-1.742376	-0.320385	-0.720649
N40	N	-1.242376	0.179615	-0.220649
H41	H	-1.288862	-0.252939	-0.065690
H42	H	-0.788862	0.247061	0.434310
H43	H	-1.297722	-0.296748	-0.478527
H44	H	-0.797722	0.203252	0.021473
C45	C	-1.984668	-0.103672	0.256704
C46	C	-1.484668	0.396328	0.756704
N47	N	-2.090455	-0.009057	0.317176
N48	N	-1.590455	0.490943	0.817176
C49	C	-2.023004	0.300281	-0.306971
C50	C	-1.523004	0.800281	0.193029
N51	N	-2.148021	0.381333	-0.325936
N52	N	-1.648021	0.881333	0.174064
C53	C	-1.601928	-0.445993	0.199074
C54	C	-1.101928	0.054007	0.699074
N55	N	-1.496138	-0.540602	0.138598
N56	N	-0.996138	-0.040602	0.638598
H57	H	-1.606701	0.177993	-0.243799
H58	H	-1.106701	0.677993	0.256201
