data_functionalizedCrystal
_audit_creation_method	'MofGen! by Chris Wilmer'
_symmetry_space_group_name_H-M	'P1'
_symmetry_Int_Tables_number	1
_symmetry_cell_setting	triclinic
loop_
_symmetry_equiv_pos_as_xyz
  x,y,z
_cell_length_a	10.489711
_cell_length_b	10.654550
_cell_length_c	9.130313
_cell_angle_alpha	90.001310
_cell_angle_beta	89.999741
_cell_angle_gamma	95.494044
loop_
_atom_site_label
_atom_site_type_symbol
_atom_site_fract_x
_atom_site_fract_y
_atom_site_fract_z
O1	O	1.693988	-0.177006	0.121683
O2	O	1.322780	-0.193677	0.121711
O3	O	1.516919	-0.002605	0.121691
O4	O	1.499849	-0.368077	0.121703
O5	O	1.516906	-0.002616	-0.121908
O6	O	1.322766	-0.193688	-0.121888
O7	O	1.693975	-0.177017	-0.121915
Cu8	Cu	1.508370	-0.185354	-0.144144
Cu9	Cu	1.508385	-0.185340	0.143939
O10	O	1.499836	-0.368089	-0.121896
C11	C	1.275241	-0.192431	-0.000085
C12	C	1.133612	-0.188688	-0.000075
C13	C	1.515659	0.044188	-0.000107
C14	C	1.511909	0.183632	-0.000101
C15	C	1.741513	-0.178262	-0.000116
C16	C	1.883143	-0.182006	-0.000117
C17	C	2.065585	-0.067101	-0.000097
C18	C	1.973410	-0.124492	0.120006
C19	C	1.973440	-0.124534	-0.120164
C20	C	2.043303	-0.246129	0.120128
C21	C	2.043342	-0.246155	-0.120150
C22	C	1.951195	-0.303634	-0.000017
C23	C	1.501096	-0.414881	-0.000095
C24	C	1.504846	-0.554326	-0.000091
N25	N	1.508368	-0.185362	-0.346767
C26	C	1.626215	0.263076	-0.000114
C27	C	1.622684	0.394099	-0.000104
C28	C	1.390531	0.366220	-0.000074
C29	C	1.394063	0.235200	-0.000074
C30	C	1.744061	0.211509	-0.000142
C31	C	1.858376	0.290954	-0.000156
C32	C	1.854845	0.421976	-0.000146
C33	C	1.736999	0.473553	-0.000121
C34	C	1.586402	-0.262266	-0.423436
C35	C	1.586420	-0.262242	-0.576773
C36	C	1.430360	-0.108410	-0.576758
C37	C	1.430349	-0.108427	-0.423424
C38	C	1.664420	-0.339201	-0.346779
C39	C	1.742459	-0.416111	-0.423449
C40	C	1.742478	-0.416088	-0.576786
C41	C	1.664457	-0.339154	-0.653453
N42	N	1.508397	-0.185322	0.346562
H43	H	1.942446	-0.073040	0.221543
H44	H	1.806030	-0.478703	-0.639206
N45	N	1.350640	-0.029859	-0.655069
N46	N	1.231899	-0.043774	-0.637955
H47	H	1.175589	0.011698	-0.693262
H48	H	1.300985	0.170514	-0.000065
H49	H	1.746949	0.104826	-0.000155
H50	H	1.664411	-0.339231	-0.221925
H51	H	1.901681	-0.403658	0.000052
H52	H	1.954323	0.248951	-0.000140
H53	H	1.366805	-0.045808	-0.360998
H54	H	1.664491	-0.339130	-0.778310
N55	N	2.127973	0.058269	0.000057
N56	N	2.109786	0.131470	0.103342
H57	H	2.153847	0.220012	0.103458
N58	N	2.081924	-0.310637	0.247632
N59	N	2.197662	-0.323945	0.268242
H60	H	2.224942	-0.369510	0.358285
H61	H	1.947926	0.486658	-0.000142
N62	N	2.082220	-0.310641	-0.247542
N63	N	2.060198	-0.269219	-0.372168
H64	H	2.087657	-0.314755	-0.462151
H65	H	1.942508	-0.073071	-0.221706
N66	N	1.822176	-0.494663	-0.345136
N67	N	1.906067	-0.446423	-0.259558
H68	H	1.962373	-0.501897	-0.204248
N69	N	1.733412	0.607392	-0.000120
N70	N	1.783656	0.672094	-0.102804
H71	H	1.781125	0.766617	-0.102811
H72	H	1.294586	0.408224	-0.000056
