data_functionalizedCrystal
_audit_creation_method	'MofGen! by Chris Wilmer'
_symmetry_space_group_name_H-M	'P1'
_symmetry_Int_Tables_number	1
_symmetry_cell_setting	triclinic
loop_
_symmetry_equiv_pos_as_xyz
  x,y,z
_cell_length_a	15.995343
_cell_length_b	11.792241
_cell_length_c	10.868271
_cell_angle_alpha	90.005281
_cell_angle_beta	90.000003
_cell_angle_gamma	96.158700
loop_
_atom_site_label
_atom_site_type_symbol
_atom_site_fract_x
_atom_site_fract_y
_atom_site_fract_z
O1	O	1.111653	-0.146254	-0.102199
O2	O	0.867959	-0.164329	-0.102229
O3	O	0.995720	0.009929	-0.102205
O4	O	0.983892	-0.320511	-0.102223
O5	O	0.995709	0.009935	0.102440
O6	O	0.867949	-0.164322	0.102416
O7	O	1.111643	-0.146247	0.102445
Zn8	Zn	0.989794	-0.155284	0.134922
Zn9	Zn	0.989808	-0.155292	-0.134706
O10	O	0.983882	-0.320505	0.102421
C11	C	0.836756	-0.163580	0.000090
C12	C	0.743795	-0.161344	0.000079
C13	C	0.573590	-0.157286	0.000095
C14	C	0.549673	-0.031499	0.000102
C15	C	0.452985	-0.029133	0.000574
C16	C	0.406012	-0.153290	0.000110
C17	C	0.435385	-0.216534	0.116737
C18	C	0.532184	-0.218025	0.116827
C19	C	0.532115	-0.219875	-0.115900
C20	C	0.435599	-0.215231	-0.117426
C21	C	0.311303	-0.151038	0.000123
C22	C	0.668298	-0.159542	0.000091
C23	C	0.994972	0.052217	0.000117
C24	C	0.992748	0.178212	0.000116
C25	C	1.142846	-0.146996	0.000124
C26	C	1.235807	-0.149232	0.000127
C27	C	0.984630	-0.362793	0.000097
C28	C	0.986854	-0.488788	0.000090
N29	N	0.989791	-0.155277	0.318936
C30	C	0.988659	0.408890	0.000095
C31	C	0.990931	0.280524	0.000106
N32	N	0.989818	-0.155290	-0.318720
C33	C	0.989803	-0.155290	0.569943
C34	C	0.989794	-0.155286	0.430265
H35	H	0.578436	0.016466	0.083617
H36	H	0.546548	-0.312462	-0.117030
H37	H	0.434320	0.020148	0.084671
O38	O	0.393754	-0.337572	0.122067
H39	H	0.356486	-0.349915	0.208087
O40	O	0.567401	-0.160684	0.232754
H41	H	0.612348	-0.085842	0.208014
H42	H	0.416837	-0.169175	-0.203707
O43	O	0.552055	-0.340205	0.123422
H44	H	0.492546	-0.397964	0.126543
O45	O	0.427496	0.036447	-0.110142
H46	H	0.358255	0.038205	-0.109919
O47	O	0.586530	0.033119	-0.110613
H48	H	0.622287	-0.023724	-0.166834
H49	H	0.415091	-0.173135	0.203864
H50	H	0.560209	-0.180192	-0.204327
O51	O	0.392520	-0.335251	-0.127227
H52	H	0.349160	-0.352708	-0.048120
