data_functionalizedCrystal
_audit_creation_method	'MofGen! by Chris Wilmer'
_symmetry_space_group_name_H-M	'P1'
_symmetry_Int_Tables_number	1
_symmetry_cell_setting	triclinic
loop_
_symmetry_equiv_pos_as_xyz
  x,y,z
_cell_length_a	23.532407
_cell_length_b	15.944493
_cell_length_c	15.021413
_cell_angle_alpha	89.993251
_cell_angle_beta	89.999348
_cell_angle_gamma	83.161861
loop_
_atom_site_label
_atom_site_type_symbol
_atom_site_fract_x
_atom_site_fract_y
_atom_site_fract_z
O1	O	0.073285	1.113942	-0.074030
O2	O	0.082375	0.869309	-0.074035
O3	O	-0.005074	0.999002	-0.074016
O4	O	0.160734	0.984248	-0.074049
O5	O	-0.005062	0.998981	0.074048
O6	O	0.082388	0.869288	0.074029
O7	O	0.073298	1.113921	0.074035
Zn8	Zn	0.077845	0.991601	0.097540
Zn9	Zn	0.077828	0.991628	-0.097541
O10	O	0.160747	0.984228	0.074015
C11	C	0.082010	0.838007	-0.000003
C12	C	0.080896	0.744768	-0.000005
C13	C	0.132371	0.508574	-0.000016
C14	C	0.104619	0.458239	0.072997
C15	C	0.078832	0.574064	-0.000003
C16	C	0.104594	0.458264	-0.072983
C17	C	0.076843	0.409171	-0.000004
C18	C	0.051095	0.524957	0.073070
C19	C	0.051077	0.524986	-0.072975
C20	C	0.023286	0.474684	0.000056
C21	C	0.079980	0.669054	-0.000001
C22	C	0.075691	0.314184	0.000000
C23	C	-0.026285	0.998616	0.000019
C24	C	-0.089506	0.997486	0.000025
C25	C	-0.488350	1.067151	-0.000022
C26	C	-0.547754	1.066102	-0.000029
O27	O	-0.584257	1.130682	-0.000060
N28	N	-0.570668	0.988999	-0.000030
C29	C	-0.534174	0.912941	-0.000033
O30	O	-0.559119	0.847263	-0.000035
C31	C	-0.474771	0.913991	-0.000033
C32	C	-0.451861	0.991099	-0.000023
C33	C	-0.465439	1.144253	-0.000013
C34	C	-0.406038	1.145302	-0.000004
C35	C	-0.369549	1.069249	-0.000005
C36	C	-0.392460	0.992148	-0.000014
C37	C	-0.438278	0.837934	-0.000042
C38	C	-0.378872	0.838991	-0.000043
C39	C	-0.355962	0.916098	-0.000033
C40	C	-0.296571	0.917144	-0.000006
N41	N	-0.273657	0.994247	-0.000005
C42	C	-0.310146	1.070300	-0.000005
C43	C	-0.658925	0.910741	-0.000036
C44	C	-0.718327	0.909690	-0.000030
C45	C	-0.731902	1.062852	-0.000027
C46	C	-0.672499	1.063902	-0.000026
C47	C	-0.636011	0.987844	-0.000034
C48	C	-0.185401	1.072497	0.000014
C49	C	-0.125996	1.073539	0.000026
C50	C	-0.112425	0.920378	0.000019
C51	C	-0.171826	0.919335	0.000011
C52	C	-0.208313	0.995402	0.000006
O53	O	-0.260033	0.852598	0.000021
O54	O	-0.285193	1.135967	-0.000014
C55	C	0.181958	0.984614	-0.000021
C56	C	0.245179	0.985743	-0.000034
C57	C	0.073663	1.145223	0.000001
C58	C	0.074777	1.238462	-0.000003
N59	N	0.077855	0.991589	0.230678
N60	N	0.077813	0.991648	-0.230678
C61	C	0.118273	0.931610	0.470352
C62	C	0.129319	1.007419	0.529686
C63	C	0.077841	0.991610	0.412285
C64	C	0.066808	0.915822	0.529693
C65	C	0.077829	0.991625	0.587709
C66	C	0.088912	1.067458	0.470312
C67	C	0.026380	0.975811	0.470314
C68	C	0.037404	1.051675	0.529621
C69	C	0.077850	0.991601	0.311227
C70	C	0.077820	0.991643	0.688764
H71	H	0.028479	0.554131	-0.134695
H72	H	0.127209	0.429144	-0.134700
F73	F	0.101169	1.151260	0.436366
F74	F	-0.101617	1.155611	0.000036
F75	F	0.021567	0.562872	0.153833
F76	F	-0.620095	0.829785	-0.000036
H77	H	0.152492	0.880920	0.444329
H78	H	-0.022867	0.459607	0.000107
H79	H	0.127234	0.429103	0.134714
F80	F	-0.007297	1.118075	0.563426
H81	H	-0.736975	0.846902	-0.000022
F82	F	-0.224226	1.153455	0.000008
H83	H	0.178488	0.523809	0.000043
F84	F	-0.030479	0.958296	0.436198
H85	H	0.057482	0.851722	0.555779
F86	F	0.186194	1.024904	0.563774
H87	H	-0.653850	1.126690	-0.000019
F88	F	-0.381663	1.227371	-0.000013
F89	F	-0.340041	0.758037	-0.000053
F90	F	-0.196210	0.837269	0.000016
F91	F	-0.504265	1.225206	-0.000013
H92	H	-0.456921	0.775145	-0.000056
F93	F	-0.770747	1.143794	-0.000031
F94	F	-0.073581	0.839442	0.000018
