data_functionalizedCrystal
_audit_creation_method	'MofGen! by Chris Wilmer'
_symmetry_space_group_name_H-M	'P1'
_symmetry_Int_Tables_number	1
_symmetry_cell_setting	triclinic
loop_
_symmetry_equiv_pos_as_xyz
  x,y,z
_cell_length_a	29.839134
_cell_length_b	29.839131
_cell_length_c	29.839125
_cell_angle_alpha	90.025363
_cell_angle_beta	90.021980
_cell_angle_gamma	90.030088
loop_
_atom_site_label
_atom_site_type_symbol
_atom_site_fract_x
_atom_site_fract_y
_atom_site_fract_z
Zn1	Zn	0.686739	-0.178978	0.254101
Zn2	Zn	1.020072	0.154355	0.587434
Zn3	Zn	1.353406	0.487689	0.920768
Zn4	Zn	0.686679	-0.254090	0.178961
Zn5	Zn	1.020013	0.079243	0.512294
Zn6	Zn	1.353346	0.412577	0.845628
Zn7	Zn	0.611622	-0.178968	0.178971
Zn8	Zn	0.944955	0.154365	0.512304
Zn9	Zn	1.278288	0.487699	0.845637
Zn10	Zn	0.611578	-0.254075	0.254049
Zn11	Zn	0.944911	0.079258	0.587383
Zn12	Zn	1.278244	0.412592	0.920716
O13	O	0.649154	-0.216528	0.216521
O14	O	0.982488	0.116806	0.549854
O15	O	1.315821	0.450139	0.883187
O16	O	0.749598	-0.188952	0.244151
O17	O	1.082931	0.144381	0.577485
O18	O	1.416265	0.477715	0.910818
O19	O	0.676716	-0.244127	0.116095
O20	O	1.010049	0.089206	0.449429
O21	O	1.343383	0.422540	0.782762
O22	O	0.621630	-0.116102	0.188963
O23	O	0.954963	0.217231	0.522296
O24	O	1.288296	0.550564	0.855629
O25	O	0.749554	-0.244137	0.188946
O26	O	1.082888	0.089197	0.522279
O27	O	1.416221	0.422530	0.855613
O28	O	0.676818	-0.116109	0.244161
O29	O	1.010151	0.217224	0.577494
O30	O	1.343485	0.550557	0.910827
O31	O	0.621572	-0.188935	0.116102
O32	O	0.954905	0.144398	0.449436
O33	O	1.288238	0.477731	0.782769
O34	O	0.548749	-0.188921	0.188912
O35	O	0.882082	0.144413	0.522246
O36	O	1.215415	0.477746	0.855579
O37	O	0.621554	-0.244111	0.316923
O38	O	0.954888	0.089222	0.650257
O39	O	1.288221	0.422556	0.983590
O40	O	0.548716	-0.244101	0.244072
O41	O	0.882050	0.089232	0.577406
O42	O	1.215383	0.422565	0.910739
O43	O	0.676775	-0.188937	0.316961
O44	O	1.010108	0.144396	0.650295
O45	O	1.343442	0.477729	0.983628
O46	O	0.676673	-0.316955	0.188896
O47	O	1.010007	0.016378	0.522229
O48	O	1.343340	0.349712	0.855563
O49	O	0.621497	-0.316944	0.244063
O50	O	0.954830	0.016389	0.577396
O51	O	1.288163	0.349723	0.910730
C52	C	0.532432	-0.216509	0.216488
C53	C	0.865765	0.116825	0.549821
C54	C	1.199098	0.450158	0.883155
C55	C	0.482497	-0.216511	0.216485
C56	C	0.815831	0.116822	0.549818
C57	C	1.149164	0.450155	0.883152
C58	C	0.172847	-0.245303	0.245207
C59	C	0.506180	0.088031	0.578541
C60	C	0.839513	0.421364	0.911874
C61	C	-0.014827	-0.245315	0.245227
C62	C	0.318507	0.088018	0.578560
C63	C	0.651840	0.421351	0.911894
O64	O	-0.039098	-0.269774	0.269629
O65	O	0.294236	0.063560	0.602962
O66	O	0.627569	0.396893	0.936295
N67	N	-0.038288	-0.216544	0.216554
N68	N	0.295046	0.116789	0.549888
N69	N	0.628379	0.450123	0.883221
C70	C	-0.014828	-0.187766	0.187877
C71	C	0.318506	0.145568	0.521210
C72	C	0.651839	0.478901	0.854543
O73	O	-0.039089	-0.163291	0.163492
O74	O	0.294244	0.170042	0.496826
O75	O	0.627577	0.503376	0.830159
C76	C	0.172844	-0.187751	0.187859
C77	C	0.506178	0.145582	0.521193
C78	C	0.839511	0.478916	0.854526
C79	C	0.196303	-0.216527	0.216531
C80	C	0.529637	0.116806	0.549864
C81	C	0.862970	0.450139	0.883197
C82	C	0.196305	-0.274076	0.273877
C83	C	0.529639	0.059257	0.607210
C84	C	0.862972	0.392590	0.940543
C85	C	0.243221	-0.274075	0.273870
C86	C	0.576554	0.059259	0.607203
C87	C	0.909888	0.392592	0.940536
C88	C	0.266677	-0.245299	0.245193
C89	C	0.600011	0.088034	0.578526
C90	C	0.933344	0.421367	0.911860
C91	C	0.243219	-0.216526	0.216524
C92	C	0.576552	0.116808	0.549857
C93	C	0.909885	0.450141	0.883190
C94	C	0.196303	-0.158971	0.159184
C95	C	0.529637	0.174363	0.492518
C96	C	0.862970	0.507696	0.825851
C97	C	0.243224	-0.158969	0.159183
C98	C	0.576558	0.174365	0.492517
C99	C	0.909891	0.507698	0.825850
C100	C	0.266683	-0.187745	0.187855
C101	C	0.600017	0.145588	0.521188
C102	C	0.933350	0.478922	0.854521
C103	C	0.313591	-0.187749	0.187840
C104	C	0.646924	0.145585	0.521174
C105	C	0.980257	0.478918	0.854507
N106	N	0.337052	-0.216520	0.216513
N107	N	0.670385	0.116814	0.549846
N108	N	1.003719	0.450147	0.883180
C109	C	0.313595	-0.245295	0.245189
C110	C	0.646929	0.088038	0.578523
C111	C	0.980262	0.421372	0.911856
C112	C	-0.113358	-0.187776	0.187887
C113	C	0.219975	0.145557	0.521221
C114	C	0.553308	0.478891	0.854554
C115	C	-0.160276	-0.187780	0.187891
C116	C	0.173057	0.145553	0.521224
C117	C	0.506390	0.478887	0.854558
C118	C	-0.160272	-0.245329	0.245242
C119	C	0.173062	0.088004	0.578575
C120	C	0.506395	0.421337	0.911909
C121	C	-0.113353	-0.245327	0.245236
C122	C	0.219980	0.088006	0.578569
C123	C	0.553314	0.421340	0.911902
C124	C	-0.089897	-0.216547	0.216560
C125	C	0.243436	0.116786	0.549893
C126	C	0.576769	0.450119	0.883227
C127	C	0.412121	-0.245290	0.245172
C128	C	0.745454	0.088044	0.578506
C129	C	1.078788	0.421377	0.911839
C130	C	0.459041	-0.245287	0.245161
C131	C	0.792374	0.088047	0.578495
C132	C	1.125707	0.421380	0.911828
C133	C	0.459032	-0.187736	0.187812
C134	C	0.792365	0.145597	0.521145
C135	C	1.125699	0.478931	0.854479
C136	C	0.412117	-0.187740	0.187821
C137	C	0.745450	0.145593	0.521154
C138	C	1.078783	0.478926	0.854488
C139	C	0.388662	-0.216519	0.216505
C140	C	0.721996	0.116815	0.549838
C141	C	1.055329	0.450148	0.883171
O142	O	0.337891	-0.163299	0.163455
O143	O	0.671224	0.170034	0.496788
O144	O	1.004557	0.503367	0.830122
O145	O	0.337865	-0.269759	0.269577
O146	O	0.671198	0.063574	0.602910
O147	O	1.004532	0.396908	0.936244
C148	C	0.125931	-0.245304	0.245214
C149	C	0.459264	0.088029	0.578548
C150	C	0.792598	0.421362	0.911881
C151	C	0.102472	-0.216531	0.216545
C152	C	0.435806	0.116803	0.549878
C153	C	0.769139	0.450136	0.883211
C154	C	0.125929	-0.187755	0.187868
C155	C	0.459262	0.145578	0.521202
C156	C	0.792596	0.478911	0.854535
C157	C	0.055554	-0.216535	0.216548
C158	C	0.388888	0.116798	0.549882
C159	C	0.722221	0.450132	0.883215
C160	C	0.032098	-0.245310	0.245225
C161	C	0.365431	0.088023	0.578558
C162	C	0.698764	0.421356	0.911892
C163	C	0.055559	-0.274082	0.273898
C164	C	0.388892	0.059252	0.607231
C165	C	0.722226	0.392585	0.940564
C166	C	0.102474	-0.274080	0.273891
C167	C	0.435808	0.059254	0.607224
C168	C	0.769141	0.392587	0.940557
C169	C	0.102468	-0.158984	0.159196
C170	C	0.435801	0.174349	0.492529
C171	C	0.769134	0.507682	0.825862
C172	C	0.055552	-0.158989	0.159205
C173	C	0.388886	0.174345	0.492538
C174	C	0.722219	0.507678	0.825871
C175	C	0.032096	-0.187764	0.187881
C176	C	0.365429	0.145569	0.521214
C177	C	0.698762	0.478903	0.854548
C178	C	0.649086	-0.333250	0.216483
C179	C	0.982419	0.000083	0.549816
C180	C	1.315753	0.333416	0.883149
C181	C	0.649098	-0.383185	0.216482
C182	C	0.982431	-0.049851	0.549815
C183	C	1.315764	0.283482	0.883148
C184	C	0.677885	-0.692797	0.245303
C185	C	1.011218	-0.359464	0.578636
C186	C	1.344551	-0.026130	0.911970
C187	C	0.677933	-0.880470	0.245330
C188	C	1.011267	-0.547137	0.578663
C189	C	1.344600	-0.213803	0.911997
O190	O	0.702342	-0.904708	0.269807
O191	O	1.035675	-0.571375	0.603141
O192	O	1.369009	-0.238042	0.936474
N193	N	0.649231	-0.903970	0.216570
N194	N	0.982564	-0.570636	0.549904
N195	N	1.315897	-0.237303	0.883237
C196	C	0.620512	-0.880548	0.187804
C197	C	0.953845	-0.547215	0.521137
C198	C	1.287178	-0.213882	0.854471
O199	O	0.596096	-0.904843	0.163346
O200	O	0.929429	-0.571509	0.496679
O201	O	1.262763	-0.238176	0.830013
C202	C	0.620461	-0.692876	0.187780
C203	C	0.953794	-0.359543	0.521113
C204	C	1.287128	-0.026209	0.854446
C205	C	0.649169	-0.669379	0.216538
C206	C	0.982502	-0.336045	0.549871
C207	C	1.315835	-0.002712	0.883205
C208	C	0.706590	-0.669300	0.274059
C209	C	1.039923	-0.335966	0.607393
C210	C	1.373256	-0.002633	0.940726
C211	C	0.706579	-0.622384	0.274051
C212	C	1.039912	-0.289051	0.607384
C213	C	1.373246	0.044283	0.940717
C214	C	0.677863	-0.598966	0.245286
C215	C	1.011196	-0.265633	0.578619
C216	C	1.344530	0.067701	0.911952
C217	C	0.649158	-0.622463	0.216529
C218	C	0.982491	-0.289130	0.549863
C219	C	1.315825	0.044203	0.883196
C220	C	0.591740	-0.669456	0.159016
C221	C	0.925073	-0.336122	0.492349
C222	C	1.258407	-0.002789	0.825682
C223	C	0.591729	-0.622535	0.159013
C224	C	0.925062	-0.289201	0.492346
C225	C	1.258396	0.044132	0.825680
C226	C	0.620437	-0.599037	0.187771
C227	C	0.953770	-0.265704	0.521105
C228	C	1.287103	0.067629	0.854438
C229	C	0.620431	-0.552130	0.187755
C230	C	0.953765	-0.218796	0.521089
C231	C	1.287098	0.114537	0.854422
N232	N	0.649134	-0.528630	0.216515
N233	N	0.982467	-0.195297	0.549848
N234	N	1.315801	0.138037	0.883182
C235	C	0.677850	-0.552048	0.245280
C236	C	1.011183	-0.218715	0.578613
C237	C	1.344517	0.114618	0.911947
C238	C	0.620541	-0.979079	0.187818
C239	C	0.953874	-0.645746	0.521152
C240	C	1.287208	-0.312412	0.854485
C241	C	0.620554	-1.025997	0.187824
C242	C	0.953887	-0.692663	0.521157
C243	C	1.287221	-0.359330	0.854490
C244	C	0.677975	-1.025915	0.245351
C245	C	1.011309	-0.692582	0.578684
C246	C	1.344642	-0.359249	0.912017
C247	C	0.677964	-0.978996	0.245342
C248	C	1.011297	-0.645663	0.578676
C249	C	1.344631	-0.312330	0.912009
C250	C	0.649244	-0.955579	0.216578
C251	C	0.982577	-0.622246	0.549911
C252	C	1.315910	-0.288913	0.883245
C253	C	0.677826	-0.453522	0.245259
C254	C	1.011159	-0.120189	0.578593
C255	C	1.344492	0.213144	0.911926
C256	C	0.677814	-0.406603	0.245247
C257	C	1.011147	-0.073269	0.578580
C258	C	1.344480	0.260064	0.911913
C259	C	0.620391	-0.406688	0.187722
C260	C	0.953724	-0.073355	0.521055
C261	C	1.287057	0.259978	0.854388
C262	C	0.620404	-0.453604	0.187732
C263	C	0.953738	-0.120271	0.521066
C264	C	1.287071	0.213063	0.854399
C265	C	0.649123	-0.477020	0.216505
C266	C	0.982456	-0.143686	0.549838
C267	C	1.315790	0.189647	0.883172
O268	O	0.596032	-0.527863	0.163295
O269	O	0.929365	-0.194529	0.496628
O270	O	1.262699	0.138804	0.829961
O271	O	0.702255	-0.527746	0.269742
O272	O	1.035588	-0.194413	0.603075
O273	O	1.368922	0.138921	0.936408
C274	C	0.677895	-0.739712	0.245312
C275	C	1.011229	-0.406379	0.578645
C276	C	1.344562	-0.073046	0.911979
C277	C	0.649190	-0.763210	0.216556
C278	C	0.982524	-0.429876	0.549889
C279	C	1.315857	-0.096543	0.883222
C280	C	0.620474	-0.739792	0.187790
C281	C	0.953808	-0.406458	0.521124
C282	C	1.287141	-0.073125	0.854457
C283	C	0.649203	-0.810128	0.216561
C284	C	0.982537	-0.476794	0.549894
C285	C	1.315870	-0.143461	0.883228
C286	C	0.677919	-0.833546	0.245326
C287	C	1.011253	-0.500212	0.578659
C288	C	1.344586	-0.166879	0.911993
C289	C	0.706622	-0.810046	0.274086
C290	C	1.039955	-0.476713	0.607419
C291	C	1.373289	-0.143379	0.940752
C292	C	0.706611	-0.763130	0.274077
C293	C	1.039945	-0.429797	0.607410
C294	C	1.373278	-0.096464	0.940744
C295	C	0.591772	-0.763291	0.159031
C296	C	0.925105	-0.429958	0.492364
C297	C	1.258438	-0.096625	0.825697
C298	C	0.591785	-0.810207	0.159041
C299	C	0.925118	-0.476874	0.492375
C300	C	1.258452	-0.143540	0.825708
C301	C	0.620501	-0.833625	0.187807
C302	C	0.953834	-0.500292	0.521140
C303	C	1.287168	-0.166958	0.854473
C304	C	0.766333	-0.216547	0.216553
C305	C	1.099666	0.116786	0.549887
C306	C	1.432999	0.450120	0.883220
C307	C	0.816267	-0.216555	0.216567
C308	C	1.149600	0.116778	0.549901
C309	C	1.482934	0.450111	0.883234
C310	C	0.649167	-0.216524	0.333699
C311	C	0.982500	0.116810	0.667032
C312	C	1.315833	0.450143	1.000366
C313	C	0.649172	-0.216522	0.383633
C314	C	0.982505	0.116811	0.716967
C315	C	1.315838	0.450145	1.050300
C316	C	0.649235	-0.099349	0.216568
C317	C	0.982569	0.233984	0.549902
C318	C	1.315902	0.567317	0.883235
C319	C	0.649270	-0.049415	0.216589
C320	C	0.982603	0.283918	0.549922
C321	C	1.315937	0.617252	0.883255
C322	C	0.649168	-0.216499	0.099798
C323	C	0.982501	0.116834	0.433131
C324	C	1.315835	0.450167	0.766465
C325	C	0.649250	-0.216374	0.049864
C326	C	0.982583	0.116959	0.383197
C327	C	1.315917	0.450292	0.716531
C328	C	0.677955	-0.187718	0.693300
C329	C	1.011289	0.145615	1.026633
C330	C	1.344622	0.478949	1.359966
C331	C	0.677978	-0.187680	0.880973
C332	C	1.011311	0.145654	1.214306
C333	C	1.344644	0.478987	1.547640
O334	O	0.702417	-0.163232	0.905257
O335	O	1.035750	0.170101	1.238590
O336	O	1.369084	0.503435	1.571924
N337	N	0.649231	-0.216402	0.904419
N338	N	0.982565	0.116932	1.237752
N339	N	1.315898	0.450265	1.571085
C340	C	0.620475	-0.245133	0.880943
C341	C	0.953809	0.088200	1.214277
C342	C	1.287142	0.421533	1.547610
O343	O	0.596022	-0.269559	0.905192
O344	O	0.929355	0.063774	1.238525
O345	O	1.262689	0.397108	1.571859
C346	C	0.620451	-0.245169	0.693271
C347	C	0.953784	0.088164	1.026604
C348	C	1.287118	0.421498	1.359938
C349	C	0.649202	-0.216448	0.669828
C350	C	0.982536	0.116885	1.003161
C351	C	1.315869	0.450218	1.336494
C352	C	0.706704	-0.158999	0.669856
C353	C	1.040037	0.174334	1.003190
C354	C	1.373371	0.507667	1.336523
C355	C	0.706700	-0.159011	0.622941
C356	C	1.040033	0.174323	0.956274
C357	C	1.373367	0.507656	1.289607
C358	C	0.677947	-0.187741	0.599469
C359	C	1.011280	0.145592	0.932802
C360	C	1.344614	0.478926	1.266135
C361	C	0.649198	-0.216460	0.622912
C362	C	0.982532	0.116874	0.956246
C363	C	1.315865	0.450207	1.289579
C364	C	0.591693	-0.273898	0.669797
C365	C	0.925026	0.059435	1.003130
C366	C	1.258360	0.392769	1.336463
C367	C	0.591689	-0.273903	0.622876
C368	C	0.925022	0.059430	0.956209
C369	C	1.258355	0.392763	1.289542
C370	C	0.620440	-0.245183	0.599432
C371	C	0.953773	0.088151	0.932766
C372	C	1.287107	0.421484	1.266099
C373	C	0.620441	-0.245202	0.552525
C374	C	0.953775	0.088132	0.885858
C375	C	1.287108	0.421465	1.219191
N376	N	0.649188	-0.216480	0.529079
N377	N	0.982521	0.116854	0.862412
N378	N	1.315854	0.450187	1.195746
C379	C	0.677941	-0.187749	0.552551
C380	C	1.011274	0.145584	0.885884
C381	C	1.344607	0.478917	1.219218
C382	C	0.620491	-0.245113	0.979474
C383	C	0.953824	0.088220	1.312807
C384	C	1.287157	0.421554	1.646141
C385	C	0.620497	-0.245105	1.026392
C386	C	0.953830	0.088229	1.359725
C387	C	1.287164	0.421562	1.693059
C388	C	0.677999	-0.187650	1.026418
C389	C	1.011332	0.145683	1.359751
C390	C	1.344666	0.479016	1.693085
C391	C	0.677994	-0.187661	0.979499
C392	C	1.011328	0.145672	1.312833
C393	C	1.344661	0.479005	1.646166
C394	C	0.649237	-0.216391	0.956028
C395	C	0.982570	0.116942	1.289362
C396	C	1.315904	0.450276	1.622695
C397	C	0.677930	-0.187776	0.454025
C398	C	1.011263	0.145557	0.787358
C399	C	1.344597	0.478891	1.120692
C400	C	0.677925	-0.187792	0.407105
C401	C	1.011258	0.145542	0.740439
C402	C	1.344591	0.478875	1.073772
C403	C	0.620421	-0.245244	0.407083
C404	C	0.953754	0.088089	0.740417
C405	C	1.287088	0.421423	1.073750
C406	C	0.620428	-0.245230	0.453999
C407	C	0.953761	0.088103	0.787332
C408	C	1.287095	0.421436	1.120665
C409	C	0.649184	-0.216493	0.477469
C410	C	0.982517	0.116840	0.810802
C411	C	1.315851	0.450174	1.144135
O412	O	0.596011	-0.269633	0.528212
O413	O	0.929344	0.063700	0.861545
O414	O	1.262678	0.397034	1.194878
O415	O	0.702383	-0.163320	0.528294
O416	O	1.035717	0.170013	0.861628
O417	O	1.369050	0.503346	1.194961
C418	C	0.677959	-0.187706	0.740215
C419	C	1.011293	0.145627	1.073549
C420	C	1.344626	0.478960	1.406882
C421	C	0.649211	-0.216425	0.763659
C422	C	0.982544	0.116908	1.096992
C423	C	1.315877	0.450242	1.430325
C424	C	0.620458	-0.245155	0.740187
C425	C	0.953791	0.088178	1.073520
C426	C	1.287124	0.421511	1.406853
C427	C	0.649217	-0.216417	0.810577
C428	C	0.982551	0.116917	1.143910
C429	C	1.315884	0.450250	1.477243
C430	C	0.677970	-0.187686	0.834049
C431	C	1.011303	0.145647	1.167382
C432	C	1.344637	0.478980	1.500715
C433	C	0.706717	-0.158964	0.810603
C434	C	1.040050	0.174369	1.143936
C435	C	1.373383	0.507702	1.477269
C436	C	0.706712	-0.158976	0.763687
C437	C	1.040046	0.174357	1.097020
C438	C	1.373379	0.507691	1.430354
C439	C	0.591711	-0.273877	0.763633
C440	C	0.925045	0.059456	1.096966
C441	C	1.258378	0.392789	1.430299
C442	C	0.591718	-0.273864	0.810548
C443	C	0.925052	0.059470	1.143881
C444	C	1.258385	0.392803	1.477215
C445	C	0.620471	-0.245133	0.834020
C446	C	0.953805	0.088200	1.167353
C447	C	1.287138	0.421533	1.500687
H448	H	0.262320	-0.135529	0.135834
H449	H	0.595653	0.197804	0.469167
H450	H	0.928986	0.531137	0.802501
F451	F	0.387149	-0.157120	0.157299
F452	F	0.720483	0.176213	0.490633
F453	F	1.053816	0.509546	0.823966
F454	F	0.484005	-0.275917	0.275678
F455	F	0.817338	0.057417	0.609011
F456	F	1.150671	0.390750	0.942344
H457	H	0.597182	-1.045124	0.164401
H458	H	0.930515	-0.711791	0.497734
H459	H	1.263849	-0.378458	0.831068
F460	F	0.387166	-0.275919	0.275701
F461	F	0.720499	0.057415	0.609034
F462	F	1.053833	0.390748	0.942367
H463	H	0.597073	-0.268511	0.960368
H464	H	0.930406	0.064822	1.293701
H465	H	1.263740	0.398156	1.627035
F466	F	0.708537	-1.050846	0.275964
F467	F	1.041871	-0.717513	0.609298
F468	F	1.375204	-0.384180	0.942631
H469	H	0.262317	-0.297506	0.297218
H470	H	0.595650	0.035827	0.630551
H471	H	0.928984	0.369160	0.963884
F472	F	0.708528	-0.157223	0.382158
F473	F	1.041861	0.176111	0.715491
F474	F	1.375195	0.509444	1.048824
F475	F	0.589969	-0.954162	0.157202
F476	F	0.923302	-0.620829	0.490536
F477	F	1.256636	-0.287495	0.823869
F478	F	0.171348	-0.304705	0.304401
F479	F	0.504681	0.028628	0.637735
F480	F	0.838015	0.361961	0.971068
F481	F	0.561183	-0.694453	0.128408
F482	F	0.894517	-0.361120	0.461741
F483	F	1.227850	-0.027786	0.795074
H484	H	0.701344	-0.164374	0.473128
H485	H	1.034678	0.168960	0.806462
H486	H	1.368011	0.502293	1.139795
H487	H	0.597020	-0.268621	0.473087
H488	H	0.930354	0.064712	0.806421
H489	H	1.263687	0.398045	1.139754
F490	F	0.737299	-0.128440	0.597996
F491	F	1.070633	0.204894	0.931330
F492	F	1.403966	0.538227	1.264663
H493	H	0.730118	-0.135601	0.688962
H494	H	1.063452	0.197732	1.022295
H495	H	1.396785	0.531066	1.355629
H496	H	0.597090	-0.268497	1.045476
H497	H	0.930423	0.064836	1.378809
H498	H	1.263756	0.398170	1.712142
H499	H	0.478139	-0.164309	0.164463
H500	H	0.811472	0.169024	0.497796
H501	H	1.144806	0.502358	0.831130
F502	F	0.708595	-0.157093	0.954553
F503	F	1.041928	0.176241	1.287887
F504	F	1.375261	0.509574	1.621220
F505	F	0.127435	-0.304708	0.304407
F506	F	0.460769	0.028626	0.637741
F507	F	0.794102	0.361959	0.971074
H508	H	0.701411	-0.164257	1.045537
H509	H	1.034744	0.169076	1.378870
H510	H	1.368078	0.502409	1.712204
H511	H	-0.094256	-0.268759	0.268583
H512	H	0.239077	0.064575	0.601917
H513	H	0.572411	0.397908	0.935250
H514	H	0.701340	-0.959868	0.268760
H515	H	1.034674	-0.626534	0.602094
H516	H	1.368007	-0.293201	0.935427
F517	F	0.561159	-0.597615	0.128397
F518	F	0.894493	-0.264282	0.461731
F519	F	1.227826	0.069052	0.795064
H520	H	0.568280	-0.297285	0.688876
H521	H	0.901614	0.036048	1.022210
H522	H	1.234947	0.369381	1.355543
H523	H	0.568265	-0.297294	0.603768
H524	H	0.901599	0.036039	0.937101
H525	H	1.234932	0.369372	1.270435
H526	H	0.568297	-0.297274	0.744526
H527	H	0.901631	0.036059	1.077860
H528	H	1.234964	0.369393	1.411193
F529	F	0.561230	-0.835209	0.128428
F530	F	0.894563	-0.501876	0.461762
F531	F	1.227897	-0.168543	0.795095
F532	F	0.737154	-0.694216	0.304680
F533	F	1.070488	-0.360883	0.638013
F534	F	1.403821	-0.027549	0.971346
F535	F	0.589856	-0.478612	0.157119
F536	F	0.923189	-0.145279	0.490453
F537	F	1.256523	0.188054	0.823786
H538	H	0.597013	-0.268637	0.387964
H539	H	0.930346	0.064696	0.721297
H540	H	1.263679	0.398030	1.054631
F541	F	-0.185244	-0.275953	0.275764
F542	F	0.148089	0.057381	0.609097
F543	F	0.481423	0.390714	0.942430
H544	H	0.597012	-0.387614	0.164300
H545	H	0.930345	-0.054281	0.497633
H546	H	1.263679	0.279053	0.830967
H547	H	-0.179372	-0.164352	0.164539
H548	H	0.153961	0.168981	0.497873
H549	H	0.487294	0.502315	0.831206
F550	F	0.561204	-0.738374	0.128415
F551	F	0.894538	-0.405041	0.461749
F552	F	1.227871	-0.071708	0.795082
H553	H	0.036452	-0.297513	0.297246
H554	H	0.369786	0.035821	0.630579
H555	H	0.703119	0.369154	0.963912
H556	H	0.177211	-0.135539	0.135836
H557	H	0.510545	0.197794	0.469169
H558	H	0.843878	0.531128	0.802502
H559	H	0.121561	-0.135551	0.135843
H560	H	0.454895	0.197782	0.469177
H561	H	0.788228	0.531115	0.802510
F562	F	-0.088401	-0.157142	0.157365
F563	F	0.244933	0.176191	0.490698
F564	F	0.578266	0.509525	0.824031
F565	F	0.737185	-0.834977	0.304698
F566	F	1.070518	-0.501644	0.638032
F567	F	1.403852	-0.168311	0.971365
H568	H	0.036456	-0.135556	0.135853
H569	H	0.369789	0.197777	0.469186
H570	H	0.703123	0.531111	0.802519
H571	H	0.701192	-0.387473	0.268665
H572	H	1.034526	-0.054139	0.601998
H573	H	1.367859	0.279194	0.935332
F574	F	0.737314	-0.128407	0.738743
F575	F	1.070647	0.204926	1.072076
F576	F	1.403980	0.538260	1.405409
H577	H	0.701208	-0.472582	0.268692
H578	H	1.034541	-0.139249	0.602025
H579	H	1.367875	0.194085	0.935358
H580	H	0.730130	-0.135573	0.829722
H581	H	1.063463	0.197761	1.163055
H582	H	1.396796	0.531094	1.496388
H583	H	0.729988	-0.744002	0.297495
H584	H	1.063321	-0.410669	0.630828
H585	H	1.396654	-0.077336	0.964162
H586	H	0.568306	-0.297256	0.829632
H587	H	0.901639	0.036077	1.162965
H588	H	1.234973	0.369411	1.496298
H589	H	0.729954	-0.603255	0.297470
H590	H	1.063287	-0.269922	0.630803
H591	H	1.396621	0.063411	0.964136
