data_functionalizedCrystal
_audit_creation_method	'MofGen! by Chris Wilmer'
_symmetry_space_group_name_H-M	'P1'
_symmetry_Int_Tables_number	1
_symmetry_cell_setting	triclinic
loop_
_symmetry_equiv_pos_as_xyz
  x,y,z
_cell_length_a	13.897449
_cell_length_b	21.295416
_cell_length_c	13.897441
_cell_angle_alpha	89.966051
_cell_angle_beta	90.020733
_cell_angle_gamma	89.968389
loop_
_atom_site_label
_atom_site_type_symbol
_atom_site_fract_x
_atom_site_fract_y
_atom_site_fract_z
Zn1	Zn	1.474618	0.250568	0.545359
Zn2	Zn	1.974618	0.750568	1.045359
Zn3	Zn	1.474476	0.355847	0.384051
Zn4	Zn	1.974476	0.855847	0.884051
Zn5	Zn	1.313307	0.250598	0.384077
Zn6	Zn	1.813307	0.750598	0.884077
Zn7	Zn	1.313253	0.355805	0.545303
Zn8	Zn	1.813253	0.855805	1.045303
O9	O	1.393914	0.303204	0.464697
O10	O	1.893914	0.803204	0.964697
O11	O	1.609581	0.264538	0.523973
O12	O	2.109581	0.764538	1.023973
O13	O	1.453060	0.341915	0.249072
O14	O	1.953060	0.841915	0.749072
O15	O	1.334787	0.162504	0.405506
O16	O	1.834787	0.662504	0.905506
O17	O	1.609477	0.341886	0.405461
O18	O	2.109477	0.841886	0.905461
O19	O	1.453301	0.162482	0.523999
O20	O	1.953301	0.662482	1.023999
O21	O	1.334650	0.264589	0.249092
O22	O	1.834650	0.764589	0.749092
O23	O	1.178318	0.264549	0.405452
O24	O	1.678318	0.764549	0.905452
O25	O	1.334695	0.341815	0.680292
O26	O	1.834695	0.841815	1.180292
O27	O	1.178279	0.341844	0.523904
O28	O	1.678279	0.841844	1.023904
O29	O	1.453249	0.264498	0.680333
O30	O	1.953249	0.764498	1.180333
O31	O	1.453008	0.443931	0.405407
O32	O	1.953008	0.943931	0.905407
O33	O	1.334558	0.443900	0.523878
O34	O	1.834558	0.943900	1.023878
C35	C	1.143299	0.303196	0.464675
C36	C	1.643299	0.803196	0.964675
C37	C	1.036085	0.303207	0.464689
C38	C	1.536085	0.803207	0.964689
C39	C	0.839790	0.303210	0.464714
C40	C	1.339790	0.803210	0.964714
C41	C	0.949023	0.303207	0.464697
C42	C	1.449023	0.803207	0.964697
C43	C	1.393788	0.466756	0.464655
C44	C	1.893788	0.966756	0.964655
C45	C	1.393822	0.536724	0.464669
C46	C	1.893822	1.036724	0.964669
C47	C	1.455554	0.569586	0.403046
C48	C	1.955554	1.069586	0.903046
C49	C	1.455600	0.635328	0.403072
C50	C	1.955600	1.135328	0.903072
C51	C	1.393896	0.668207	0.464711
C52	C	1.893896	1.168207	0.964711
C53	C	1.332160	0.635337	0.526346
C54	C	1.832160	1.135337	1.026346
C55	C	1.332123	0.569596	0.526325
C56	C	1.832123	1.069596	1.026325
N57	N	1.309516	0.771473	0.472064
N58	N	1.809516	1.271473	0.972064
N59	N	1.309554	0.833925	0.472078
N60	N	1.809554	1.333925	0.972078
C61	C	1.394005	0.866281	0.464779
C62	C	1.894005	1.366281	0.964779
N63	N	1.478419	0.833827	0.457447
N64	N	1.978419	1.333827	0.957447
N65	N	1.478381	0.771370	0.457427
N66	N	1.978381	1.271370	0.957427
C67	C	1.393930	0.739492	0.464741
C68	C	1.893930	1.239492	0.964741
C69	C	1.455792	0.970428	0.403181
C70	C	1.955792	1.470428	0.903181
C71	C	1.455839	1.036172	0.403214
C72	C	1.955839	1.536172	0.903214
C73	C	1.332390	1.036180	0.526483
C74	C	1.832390	1.536180	1.026483
C75	C	1.332352	0.970437	0.526455
C76	C	1.832352	1.470437	1.026455
C77	C	1.394051	0.937565	0.464799
C78	C	1.894051	1.437565	0.964799
C79	C	1.645507	0.303213	0.464720
C80	C	2.145507	0.803213	0.964720
C81	C	1.752720	0.303217	0.464730
C82	C	2.252720	0.803217	0.964730
C83	C	1.393982	0.303149	0.716291
C84	C	1.893982	0.803149	1.216291
C85	C	1.394011	0.303125	0.823505
C86	C	1.894011	0.803125	1.323505
C87	C	1.394067	1.139014	0.464778
C88	C	1.894067	1.639014	0.964778
C89	C	1.394136	1.069046	0.464855
C90	C	1.894136	1.569046	0.964855
C91	C	1.393901	0.303214	0.214083
C92	C	1.893901	0.803214	0.714083
C93	C	1.394059	0.303061	0.106870
C94	C	1.894059	0.803061	0.606870
C95	C	1.394037	0.303082	1.019800
C96	C	1.894037	0.803082	1.519800
C97	C	1.394020	0.303108	0.910567
C98	C	1.894020	0.803108	1.410567
H99	H	1.505873	0.662089	0.352892
H100	H	2.005873	1.162089	0.852892
H101	H	1.282154	1.062949	0.576674
H102	H	1.782154	1.562949	1.076674
O103	O	1.265533	0.534151	0.592792
O104	O	1.765533	1.034151	1.092792
H105	H	1.275876	0.482914	0.582424
H106	H	1.775876	0.982914	1.082424
H107	H	1.281922	0.662111	0.576534
H108	H	1.781922	1.162111	1.076534
O109	O	1.522111	0.534129	0.336563
O110	O	2.022111	1.034129	0.836563
H111	H	1.565053	0.568029	0.293724
H112	H	2.065053	1.068029	0.793724
O113	O	1.522346	0.934966	0.336699
O114	O	2.022346	1.434966	0.836699
H115	H	1.565295	0.968865	0.293864
H116	H	2.065295	1.468865	0.793864
O117	O	1.522426	1.071623	0.336752
O118	O	2.022426	1.571623	0.836752
H119	H	1.505905	1.059064	0.261027
H120	H	2.005905	1.559064	0.761027
H121	H	1.282080	0.943680	0.576630
H122	H	1.782080	1.443680	1.076630
