data_functionalizedCrystal
_audit_creation_method	'MofGen! by Chris Wilmer'
_symmetry_space_group_name_H-M	'P1'
_symmetry_Int_Tables_number	1
_symmetry_cell_setting	triclinic
loop_
_symmetry_equiv_pos_as_xyz
  x,y,z
_cell_length_a	25.639239
_cell_length_b	12.759401
_cell_length_c	12.759393
_cell_angle_alpha	90.020120
_cell_angle_beta	89.962948
_cell_angle_gamma	89.965344
loop_
_atom_site_label
_atom_site_type_symbol
_atom_site_fract_x
_atom_site_fract_y
_atom_site_fract_z
Zn1	Zn	-0.208176	-1.606080	-0.593987
Zn2	Zn	-0.295623	-1.605901	-0.418290
Zn3	Zn	-0.208197	-1.430382	-0.418321
Zn4	Zn	-0.295576	-1.430297	-0.593926
O5	O	-0.251893	-1.518165	-0.506131
O6	O	-0.219787	-1.753077	-0.570692
O7	O	-0.284054	-1.582579	-0.271273
O8	O	-0.135029	-1.453799	-0.441662
O9	O	-0.284034	-1.752946	-0.441609
O10	O	-0.135014	-1.582884	-0.570722
O11	O	-0.219823	-1.453626	-0.271296
O12	O	-0.219777	-1.283350	-0.441603
O13	O	-0.283954	-1.453655	-0.740956
O14	O	-0.283974	-1.283288	-0.570620
O15	O	-0.219742	-1.582802	-0.741000
O16	O	-0.368782	-1.582496	-0.441550
O17	O	-0.368748	-1.453481	-0.570590
C18	C	-0.251874	-1.245198	-0.506109
C19	C	-0.251878	-1.128421	-0.506125
C20	C	-0.218486	-1.073621	-0.573441
C21	C	-0.218493	-0.963897	-0.573445
C22	C	-0.285288	-0.963783	-0.438812
C23	C	-0.285278	-1.073505	-0.438804
C24	C	-0.179924	-1.073685	-0.651173
C25	C	-0.179931	-0.963961	-0.651177
C26	C	-0.387736	-1.517988	-0.506083
C27	C	-0.445850	-1.518009	-0.506097
C28	C	-0.806218	-1.585519	-0.439055
C29	C	-0.860822	-1.585559	-0.439069
O30	O	-0.889064	-1.642775	-0.382014
N31	N	-0.888132	-1.518350	-0.506201
C32	C	-0.860835	-1.451103	-0.573330
O33	O	-0.889078	-1.393940	-0.630433
C34	C	-0.806232	-1.451068	-0.573321
C35	C	-0.778925	-1.518275	-0.506177
C36	C	-0.778911	-1.652721	-0.371917
C37	C	-0.724310	-1.652678	-0.371902
C38	C	-0.697017	-1.585434	-0.439024
C39	C	-0.724324	-1.518232	-0.506162
C40	C	-0.778935	-1.383827	-0.640455
C41	C	-0.724328	-1.383799	-0.640440
C42	C	-0.697021	-1.451005	-0.573297
C43	C	-0.642430	-1.450946	-0.573269
N44	N	-0.615120	-1.518155	-0.506137
C45	C	-0.642414	-1.585399	-0.439015
C46	C	-0.975505	-1.451182	-0.573347
C47	C	-1.030108	-1.451210	-0.573352
C48	C	-1.030091	-1.585669	-0.439091
C49	C	-0.975488	-1.585634	-0.439082
C50	C	-0.948196	-1.518391	-0.506215
C51	C	-0.527749	-1.585305	-0.438987
C52	C	-0.473143	-1.585253	-0.438975
C53	C	-0.473164	-1.450799	-0.573239
C54	C	-0.527765	-1.450846	-0.573248
C55	C	-0.555056	-1.518107	-0.506119
O56	O	-0.614154	-1.393762	-0.630298
O57	O	-0.614164	-1.642562	-0.381931
C58	C	-0.115520	-1.518371	-0.506202
C59	C	-0.057406	-1.518459	-0.506233
C60	C	-0.251840	-1.518239	-0.780165
C61	C	-0.251818	-1.518270	-0.896941
C62	C	-0.251906	-0.792198	-0.506147
C63	C	-0.251895	-0.908975	-0.506136
C64	C	-0.218379	-1.585526	-0.951828
C65	C	-0.218360	-1.585551	-1.061552
C66	C	-0.285223	-1.451061	-1.061493
C67	C	-0.285239	-1.451032	-0.951771
C68	C	-0.179778	-1.663176	-0.951863
C69	C	-0.179759	-1.663201	-1.061587
C70	C	-0.251908	-1.518152	-0.233164
C71	C	-0.251783	-1.518325	-0.116388
H72	H	-0.190827	-0.934207	-0.732510
F73	F	-0.444084	-1.656786	-0.367508
H74	H	-0.141285	-1.634120	-1.095642
F75	F	-0.320822	-1.379434	-0.893360
H76	H	-0.139415	-1.103486	-0.629528
F77	F	-0.320790	-1.379505	-1.119856
F78	F	-0.126854	-1.634768	-0.912974
H79	H	-0.312481	-0.919057	-0.384003
H80	H	-0.141448	-0.929952	-0.622184
F81	F	-0.198941	-1.118201	-0.752124
H82	H	-0.549962	-1.640077	-0.384327
F83	F	-0.695255	-1.724221	-0.300450
F84	F	-0.807986	-1.312304	-0.711929
H85	H	-0.194297	-1.740436	-0.917826
F86	F	-0.946431	-1.657164	-0.367619
H87	H	-0.801128	-1.707485	-0.317258
F88	F	-0.193932	-1.769547	-1.100515
F89	F	-1.059149	-1.657235	-0.367651
H90	H	-0.702109	-1.329043	-0.695112
H91	H	-0.312464	-1.118120	-0.383979
H92	H	-0.549999	-1.396125	-0.627925
H93	H	-1.052337	-1.396474	-0.628017
H94	H	-0.953286	-1.396416	-0.628011
F95	F	-0.444107	-1.379240	-0.644675
