data_functionalizedCrystal
_audit_creation_method	'MofGen! by Chris Wilmer'
_symmetry_space_group_name_H-M	'P1'
_symmetry_Int_Tables_number	1
_symmetry_cell_setting	triclinic
loop_
_symmetry_equiv_pos_as_xyz
  x,y,z
_cell_length_a	19.077105
_cell_length_b	25.639239
_cell_length_c	25.639233
_cell_angle_alpha	90.018747
_cell_angle_beta	92.310062
_cell_angle_gamma	87.734929
loop_
_atom_site_label
_atom_site_type_symbol
_atom_site_fract_x
_atom_site_fract_y
_atom_site_fract_z
Zn1	Zn	1.075857	-0.240381	0.327689
Zn2	Zn	1.075754	-0.327797	0.240250
Zn3	Zn	0.958174	-0.236862	0.236758
Zn4	Zn	0.958100	-0.324267	0.324146
O5	O	1.016971	-0.282327	0.282211
O6	O	1.174333	-0.254928	0.319033
O7	O	1.060145	-0.315739	0.166621
O8	O	0.973859	-0.164166	0.248842
O9	O	1.174257	-0.319152	0.254793
O10	O	1.060320	-0.166752	0.315648
O11	O	0.973759	-0.248929	0.164056
O12	O	0.859674	-0.245506	0.245407
O13	O	0.973733	-0.313135	0.397782
O14	O	0.859620	-0.309722	0.309610
O15	O	1.060248	-0.251505	0.400384
O16	O	1.060073	-0.400492	0.251358
O17	O	0.973633	-0.397898	0.312996
C18	C	0.834110	-0.276850	0.276745
C19	C	0.755881	-0.274519	0.274420
C20	C	0.719119	-0.306908	0.306702
C21	C	0.645615	-0.304711	0.304519
C22	C	0.608874	-0.270128	0.270051
C23	C	0.645641	-0.237735	0.237768
C24	C	0.719144	-0.239929	0.239954
C25	C	0.389045	-0.259971	0.259938
C26	C	0.315537	-0.257780	0.257754
C27	C	0.315516	-0.324756	0.324506
C28	C	0.389020	-0.326950	0.326686
C29	C	0.425781	-0.294555	0.294405
N30	N	0.533741	-0.267882	0.267818
N31	N	0.500913	-0.296798	0.296641
C32	C	1.016853	-0.418166	0.282183
C33	C	1.016867	-0.476280	0.282191
C34	C	1.062098	-0.837988	0.250176
C35	C	1.062125	-0.892593	0.250184
O36	O	1.100460	-0.921969	0.222934
N37	N	1.017095	-0.918570	0.282249
C38	C	0.972039	-0.889938	0.314312
O39	O	0.933741	-0.917047	0.341587
C40	C	0.972016	-0.835334	0.314307
C41	C	1.017044	-0.809361	0.282236
C42	C	1.107123	-0.812014	0.218108
C43	C	1.107095	-0.757413	0.218100
C44	C	1.062041	-0.728785	0.250159
C45	C	1.017016	-0.754759	0.282227
C46	C	0.926965	-0.806704	0.346372
C47	C	0.926946	-0.752096	0.346365
C48	C	0.971974	-0.726123	0.314293
C49	C	0.971934	-0.671530	0.314279
N50	N	1.016964	-0.645554	0.282214
C51	C	1.062018	-0.674181	0.250154
C52	C	0.972092	-1.004610	0.314322
C53	C	0.972112	-1.059213	0.314325
C54	C	1.062198	-1.061864	0.250197
C55	C	1.062175	-1.007260	0.250192
C56	C	1.017123	-0.978634	0.282257
C57	C	1.061954	-0.559514	0.250138
C58	C	1.061920	-0.504908	0.250131
C59	C	0.971836	-0.502262	0.314261
C60	C	0.971868	-0.556863	0.314266
C61	C	1.016932	-0.585488	0.282203
O62	O	0.933621	-0.642120	0.341516
O63	O	1.100317	-0.647066	0.222889
C64	C	1.200546	-0.287826	0.287698
C65	C	1.278775	-0.290169	0.290036
C66	C	1.016994	-0.282318	0.418584
C67	C	1.017004	-0.282315	0.476699
C68	C	1.017109	-0.145958	0.282250
C69	C	1.017168	-0.087846	0.282267
C70	C	1.016989	-0.282299	0.146369
C71	C	1.017116	-0.282159	0.088259
C72	C	1.062109	-0.250126	0.838424
C73	C	1.062118	-0.250112	0.893029
O74	O	1.100412	-0.222804	0.922423
N75	N	1.017081	-0.282195	0.918984
C76	C	0.972028	-0.314289	0.890331
O77	O	0.933720	-0.341576	0.917421
C78	C	0.972016	-0.314300	0.835727
C79	C	1.017061	-0.282220	0.809775
C80	C	1.107150	-0.218048	0.812473
C81	C	1.107142	-0.218063	0.757872
C82	C	1.062093	-0.250156	0.729223
C83	C	1.017053	-0.282235	0.755175
C84	C	0.926959	-0.346392	0.807075
C85	C	0.926951	-0.346400	0.752468
C86	C	0.971996	-0.314320	0.726516
C87	C	0.971996	-0.314343	0.671925
N88	N	1.017033	-0.282261	0.645970
C89	C	1.062082	-0.250167	0.674619
C90	C	0.972055	-0.314263	1.005002
C91	C	0.972069	-0.314255	1.059605
C92	C	1.062159	-0.250077	1.062300
C93	C	1.062148	-0.250088	1.007696
C94	C	1.017092	-0.282181	0.979048
C95	C	1.062062	-0.250202	0.559953
C96	C	1.062052	-0.250221	0.505348
C97	C	0.971960	-0.314397	0.502658
C98	C	0.971972	-0.314380	0.557259
C99	C	1.017026	-0.282278	0.585905
O100	O	0.933720	-0.341636	0.642497
O101	O	1.100376	-0.222880	0.647522
H102	H	1.098587	-0.483762	0.224013
C103	C	0.877413	-0.381683	0.835612
H104	H	0.883869	-0.377089	0.872237
H105	H	0.830132	-0.372617	0.825249
H106	H	0.887684	-0.417122	0.826962
H107	H	1.098652	-0.582815	0.224031
C108	C	1.156716	-0.182750	0.843981
H109	H	1.150280	-0.187331	0.880220
H110	H	1.203989	-0.191828	0.836435
H111	H	1.146452	-0.147312	0.834730
H112	H	0.285624	-0.229612	0.229689
C113	C	1.111599	-0.214928	0.476804
H114	H	1.138423	-0.195809	0.501690
H115	H	1.142244	-0.235849	0.456417
H116	H	1.084691	-0.191344	0.454702
C117	C	0.605177	-0.340340	0.340027
H118	H	0.556139	-0.334076	0.333795
H119	H	0.617189	-0.375816	0.332668
H120	H	0.617247	-0.333099	0.375532
C121	C	1.111755	-1.093362	0.214930
H122	H	1.105320	-1.129601	0.219532
H123	H	1.101482	-1.084130	0.179487
H124	H	1.159037	-1.085792	0.224023
C125	C	0.429430	-0.364989	0.364604
H126	H	0.397008	-0.383961	0.383522
H127	H	0.458078	-0.388595	0.345416
H128	H	0.458128	-0.345874	0.388276
C129	C	1.111714	-0.214776	1.093821
H130	H	1.105263	-0.219364	1.130056
H131	H	1.158994	-0.223846	1.086285
H132	H	1.101447	-0.179337	1.084572
H133	H	0.285578	-0.351130	0.350788
H134	H	0.418967	-0.233597	0.233648
H135	H	0.615721	-0.209574	0.209706
H136	H	0.935300	-0.340508	0.578390
H137	H	1.143762	-0.736268	0.191986
C138	C	0.922284	-0.470765	0.349526
H139	H	0.928727	-0.434525	0.344930
H140	H	0.875004	-0.478335	0.340440
H141	H	0.932567	-0.479996	0.384972
H142	H	1.143815	-0.835317	0.192001
H143	H	0.935399	-0.981305	0.340431
H144	H	0.749075	-0.213552	0.213669
H145	H	0.935397	-0.340384	1.080730
H146	H	0.935285	-0.340529	0.479322
C147	C	0.877391	-0.381703	0.720955
H148	H	0.883829	-0.377116	0.684718
H149	H	0.887653	-0.417137	0.730210
H150	H	0.830110	-0.372626	0.728493
C151	C	1.156685	-0.182769	0.729332
H152	H	1.183507	-0.163652	0.754221
H153	H	1.187332	-0.203686	0.708943
H154	H	1.129777	-0.159183	0.707232
H155	H	1.098841	-0.986116	0.224077
C156	C	0.922576	-1.087778	0.349600
H157	H	0.895746	-1.062904	0.368693
H158	H	0.891937	-1.108197	0.328671
H159	H	0.949492	-1.109850	0.373208
H160	H	0.749029	-0.335072	0.334768
C161	C	1.111689	-0.214794	0.979154
H162	H	1.138514	-0.195678	1.004041
H163	H	1.142332	-0.235711	0.958763
H164	H	1.084778	-0.191207	0.957056
H165	H	0.890295	-0.827842	0.372486
H166	H	0.890259	-0.728791	0.372478
H167	H	0.935204	-0.578012	0.340383
C168	C	1.111625	-0.214895	0.591457
H169	H	1.138450	-0.195799	0.568175
H170	H	1.084737	-0.191299	0.611957
H171	H	1.142278	-0.235812	0.613670
H172	H	0.935364	-0.340399	0.981680
