data_functionalizedCrystal
_audit_creation_method	'MofGen! by Chris Wilmer'
_symmetry_space_group_name_H-M	'P1'
_symmetry_Int_Tables_number	1
_symmetry_cell_setting	triclinic
loop_
_symmetry_equiv_pos_as_xyz
  x,y,z
_cell_length_a	12.827893
_cell_length_b	15.297327
_cell_length_c	12.827885
_cell_angle_alpha	99.642528
_cell_angle_beta	89.980728
_cell_angle_gamma	99.706564
loop_
_atom_site_label
_atom_site_type_symbol
_atom_site_fract_x
_atom_site_fract_y
_atom_site_fract_z
Zn1	Zn	1.525602	-0.359116	-0.662774
Zn2	Zn	1.495216	-0.510001	-0.518254
Zn3	Zn	1.350834	-0.359160	-0.488056
Zn4	Zn	1.320562	-0.509933	-0.692940
O5	O	1.423054	-0.434552	-0.590506
O6	O	1.667805	-0.379141	-0.643616
O7	O	1.476016	-0.490038	-0.368021
O8	O	1.399403	-0.232909	-0.485970
O9	O	1.645481	-0.489995	-0.537438
O10	O	1.527804	-0.232876	-0.614334
O11	O	1.369939	-0.379216	-0.345835
O12	O	1.200585	-0.379151	-0.515222
O13	O	1.347809	-0.489880	-0.835165
O14	O	1.178344	-0.489923	-0.665749
O15	O	1.498450	-0.379075	-0.813002
O16	O	1.446662	-0.636237	-0.566689
O17	O	1.318345	-0.636187	-0.695031
C18	C	1.151547	-0.434535	-0.590483
C19	C	1.035391	-0.434549	-0.590502
C20	C	0.972612	-0.489449	-0.664907
C21	C	0.852558	-0.489465	-0.664928
C22	C	1.375950	-0.668946	-0.637433
C23	C	1.355894	-0.769221	-0.657543
C24	C	1.566825	-1.051857	-0.447130
C25	C	1.585667	-0.957644	-0.428230
C26	C	1.528226	-0.910533	-0.485557
C27	C	1.451938	-0.957645	-0.561787
C28	C	1.433088	-1.051868	-0.580683
C29	C	1.394489	-0.910544	-0.619110
C30	C	1.318201	-0.957656	-0.695340
C31	C	1.299355	-1.051869	-0.714233
C32	C	1.356796	-1.098980	-0.656906
C33	C	1.413340	-0.816322	-0.600214
C34	C	1.279603	-0.816333	-0.733766
C35	C	1.260760	-0.910546	-0.752667
C36	C	1.695620	-0.434571	-0.590530
C37	C	1.811772	-0.434578	-0.590541
C38	C	1.423142	-0.434465	-0.863059
C39	C	1.423180	-0.434428	-0.979205
C40	C	1.470370	-0.199243	-0.543419
C41	C	1.490533	-0.098969	-0.523353
C42	C	1.475682	-0.489244	-1.041963
C43	C	1.475722	-0.489207	-1.162006
C44	C	1.423039	-0.434574	-0.319001
C45	C	1.423254	-0.434358	-0.202805
H46	H	0.865712	-0.387578	-0.526833
H47	H	1.237224	-1.090225	-0.776292
H48	H	1.520669	-0.536137	-1.215935
H49	H	1.000261	-0.387556	-0.526821
H50	H	1.613579	-1.090222	-0.400456
H51	H	1.378300	-0.387428	-1.148882
H52	H	1.007743	-0.536435	-0.728595
H53	H	1.647779	-0.919289	-0.366163
H54	H	1.198645	-0.948918	-0.814733
H55	H	1.475454	-0.777972	-0.538146
H56	H	1.341461	-1.175696	-0.672293
H57	H	0.798611	-0.536469	-0.728627
H58	H	1.543572	-0.833821	-0.470163
H59	H	1.378267	-0.387466	-1.014345
H60	H	1.232827	-0.777976	-0.780445
H61	H	1.520605	-0.536198	-1.006821
