data_functionalizedCrystal
_audit_creation_method	'MofGen! by Chris Wilmer'
_symmetry_space_group_name_H-M	'P1'
_symmetry_Int_Tables_number	1
_symmetry_cell_setting	triclinic
loop_
_symmetry_equiv_pos_as_xyz
  x,y,z
_cell_length_a	10.540539
_cell_length_b	19.288865
_cell_length_c	18.366186
_cell_angle_alpha	90.011479
_cell_angle_beta	89.994545
_cell_angle_gamma	96.169130
loop_
_atom_site_label
_atom_site_type_symbol
_atom_site_fract_x
_atom_site_fract_y
_atom_site_fract_z
O1	O	1.683714	-0.097883	-0.060499
O2	O	1.314095	-0.107106	-0.060515
O3	O	1.509585	-0.001436	-0.060492
O4	O	1.488224	-0.203554	-0.060522
O5	O	1.509552	-0.001430	0.060607
O6	O	1.314062	-0.107100	0.060585
O7	O	1.683681	-0.097878	0.060600
Zn8	Zn	1.498866	-0.102488	0.079820
Zn9	Zn	1.498910	-0.102495	-0.079734
O10	O	1.488191	-0.203548	0.060578
C11	C	1.508881	0.024448	0.000060
C12	C	1.506818	0.101566	0.000066
C13	C	1.266791	-0.106411	0.000033
C14	C	1.125889	-0.104342	0.000028
C15	C	1.730985	-0.098572	0.000051
C16	C	1.871887	-0.100641	0.000051
C17	C	2.053547	-0.179930	0.000295
C18	C	1.906975	-0.177833	0.000034
C19	C	1.934366	-0.063496	-0.069101
C20	C	2.080851	-0.066131	-0.069171
C21	C	2.081418	-0.064555	0.068541
C22	C	1.934452	-0.063844	0.069468
C23	C	1.488895	-0.229432	0.000024
C24	C	1.490958	-0.306549	0.000013
N25	N	1.498846	-0.102483	0.188711
C26	C	1.621522	0.145496	0.000075
C27	C	1.619584	0.217956	0.000063
C28	C	1.502935	0.246482	0.000058
C29	C	1.388215	0.202542	0.000045
C30	C	1.390157	0.130083	0.000049
C31	C	1.411223	0.355384	0.042472
C32	C	1.409286	0.427841	0.042472
C33	C	1.496941	0.469968	0.000041
C34	C	1.586555	0.439630	-0.042381
C35	C	1.588496	0.367172	-0.042377
C36	C	1.500816	0.325051	0.000052
C37	C	1.609552	0.592469	0.000036
C38	C	1.607609	0.664930	0.000020
C39	C	1.376237	0.649513	0.000009
C40	C	1.378183	0.577054	0.000018
C41	C	1.494844	0.548536	0.000035
N42	N	1.498941	-0.102495	-0.188625
C43	C	1.585437	-0.055716	0.226821
C44	C	1.585445	-0.055713	0.303049
C45	C	1.498874	-0.102489	0.341164
C46	C	1.412267	-0.149260	0.303044
C47	C	1.412253	-0.149257	0.226818
C48	C	1.481882	-0.165663	0.461914
C49	C	1.481905	-0.165667	0.538139
C50	C	1.498910	-0.102498	0.576271
C51	C	1.515919	-0.039322	0.538169
C52	C	1.515905	-0.039319	0.461942
C53	C	1.498879	-0.102497	0.423818
C54	C	1.585514	-0.055723	0.697036
C55	C	1.585514	-0.055719	0.773266
C56	C	1.412342	-0.149273	0.773259
C57	C	1.412336	-0.149271	0.697031
C58	C	1.498930	-0.102497	0.658925
H59	H	2.081474	-0.210421	0.049878
O60	O	2.117375	-0.102493	-0.137662
H61	H	2.184813	-0.066522	-0.169929
H62	H	1.336312	0.452536	0.077011
O63	O	1.904042	0.010704	0.075046
H64	H	1.852114	0.017760	0.126642
O65	O	1.731339	0.712312	0.000031
H66	H	1.736022	0.745676	-0.049333
H67	H	2.083071	-0.210300	-0.049027
O68	O	1.906429	0.011592	-0.072505
H69	H	1.847571	0.023259	-0.024832
O70	O	1.319007	-0.199746	0.814362
H71	H	1.258802	-0.232274	0.775051
H72	H	1.892917	-0.090988	0.120625
O73	O	1.877191	-0.097679	-0.137275
H74	H	1.804294	-0.141117	-0.122081
H75	H	1.341777	-0.187345	0.334081
H76	H	2.130057	-0.010616	-0.072315
O77	O	1.747349	0.114742	0.000087
H78	H	1.729434	0.056976	0.000094
H79	H	2.112422	-0.089535	0.120949
O80	O	1.850756	-0.216882	-0.065700
H81	H	1.928277	-0.237326	-0.097436
O82	O	1.685123	0.334445	-0.088140
H83	H	1.745745	0.375905	-0.117654
H84	H	1.529766	0.012117	0.569214
O85	O	2.145628	0.009296	0.069179
H86	H	2.208915	0.017657	0.020964
H87	H	1.468063	-0.217109	0.569156
H88	H	1.712993	0.253732	0.000067
H89	H	1.657931	0.473929	-0.076933
O90	O	1.316681	0.309948	0.088244
H91	H	1.254060	0.343216	0.117751
O92	O	1.678869	-0.005267	0.655917
H93	H	1.777777	-0.014622	0.670527
H94	H	1.656023	-0.017632	0.804296
H95	H	1.293238	0.225772	0.000039
O96	O	1.463549	-0.233800	0.420787
H97	H	1.451749	-0.277729	0.460086
O98	O	1.735370	0.561701	0.000039
H99	H	1.814809	0.604426	0.000029
O100	O	1.678852	-0.005270	0.344162
H101	H	1.664308	-0.013129	0.403569
H102	H	1.341831	-0.187356	0.666000
H103	H	1.281259	0.672738	0.000001
H104	H	1.284778	0.541284	0.000015
O105	O	1.266436	0.082693	0.000053
H106	H	1.184993	0.114699	0.000053
O107	O	1.678813	-0.005260	0.185718
H108	H	1.739017	0.027266	0.225031
H109	H	1.529751	0.012121	0.430922
O110	O	1.318865	-0.199706	0.185705
H111	H	1.258669	-0.232236	0.225011
H112	H	1.863725	-0.207064	0.049603
