data_functionalizedCrystal
_audit_creation_method	'MofGen! by Chris Wilmer'
_symmetry_space_group_name_H-M	'P1'
_symmetry_Int_Tables_number	1
_symmetry_cell_setting	triclinic
loop_
_symmetry_equiv_pos_as_xyz
  x,y,z
_cell_length_a	16.959455
_cell_length_b	18.050590
_cell_length_c	16.959447
_cell_angle_alpha	89.968225
_cell_angle_beta	89.985678
_cell_angle_gamma	90.015500
loop_
_atom_site_label
_atom_site_type_symbol
_atom_site_fract_x
_atom_site_fract_y
_atom_site_fract_z
Zn1	Zn	1.208392	-0.295705	-0.446901
Zn2	Zn	1.208318	-0.419907	-0.314719
Zn3	Zn	1.076221	-0.295729	-0.314738
Zn4	Zn	1.076189	-0.419851	-0.446857
O5	O	1.142280	-0.357798	-0.380804
O6	O	1.318993	-0.312194	-0.429376
O7	O	1.190777	-0.403467	-0.204110
O8	O	1.093798	-0.191801	-0.332296
O9	O	1.318939	-0.403445	-0.332263
O10	O	1.190904	-0.191784	-0.429395
O11	O	1.093726	-0.312234	-0.204125
O12	O	0.965605	-0.312180	-0.332254
O13	O	1.093743	-0.403350	-0.557474
O14	O	0.965582	-0.403373	-0.429321
O15	O	1.190873	-0.312141	-0.557506
O16	O	1.190747	-0.523824	-0.332221
O17	O	1.093672	-0.523783	-0.429303
C18	C	0.936914	-0.357774	-0.380786
C19	C	0.849057	-0.357781	-0.380797
C20	C	0.477569	-0.310275	-0.330366
C21	C	0.477594	-0.405382	-0.431286
C22	C	0.560140	-0.405371	-0.431282
C23	C	0.601404	-0.357813	-0.380818
C24	C	0.560123	-0.310265	-0.330358
C25	C	0.601427	-0.452924	-0.481734
C26	C	0.683978	-0.452916	-0.481731
C27	C	0.725244	-0.405353	-0.431270
C28	C	0.683958	-0.357802	-0.380809
C29	C	0.725222	-0.310243	-0.330345
C30	C	0.683937	-0.262689	-0.279888
C31	C	0.601389	-0.262702	-0.279898
C32	C	0.807793	-0.405340	-0.431261
C33	C	0.807776	-0.310233	-0.330337
C34	C	1.142219	-0.550750	-0.380772
C35	C	1.142265	-0.633296	-0.380785
C36	C	1.195165	-0.832742	-0.328066
C37	C	1.214468	-0.882071	-0.400207
C38	C	1.142310	-0.784426	-0.380817
C39	C	1.123088	-0.882178	-0.308709
C40	C	1.142355	-0.930411	-0.380841
C41	C	1.161650	-0.832669	-0.452995
C42	C	1.070237	-0.832771	-0.361449
C43	C	1.089513	-0.882079	-0.433639
C44	C	1.142287	-0.700328	-0.380802
C45	C	1.142379	-1.014508	-0.380864
C46	C	1.348448	-0.357823	-0.380822
C47	C	1.436305	-0.357834	-0.380830
C48	C	1.142313	-0.357737	-0.586972
C49	C	1.142327	-0.357710	-0.674829
C50	C	1.142362	-0.164092	-0.380853
C51	C	1.142398	-0.081547	-0.380874
C52	C	1.091850	-0.405121	-1.046290
C53	C	1.192992	-0.310143	-1.046319
C54	C	1.192971	-0.310159	-0.963773
C55	C	1.142390	-0.357657	-0.922482
C56	C	1.091830	-0.405139	-0.963737
C57	C	1.243536	-0.262683	-0.922512
C58	C	1.243518	-0.262698	-0.839961
C59	C	1.192932	-0.310192	-0.798668
C60	C	1.142369	-0.357676	-0.839928
C61	C	1.091788	-0.405174	-0.798637
C62	C	1.041220	-0.452654	-0.839896
C63	C	1.041244	-0.452634	-0.922444
C64	C	1.192908	-0.310212	-0.716120
C65	C	1.091767	-0.405193	-0.716084
C66	C	1.142293	-0.357806	-0.175438
C67	C	1.142432	-0.357623	-0.087581
H68	H	0.443951	-0.271555	-0.289287
H69	H	1.234081	-0.271557	-0.682531
H70	H	1.284692	-0.224036	-0.806375
H71	H	1.234177	-0.271477	-1.079943
H72	H	0.841367	-0.271500	-0.289248
Cl73	Cl	0.735822	-0.202908	-0.216445
Cl74	Cl	0.425718	-0.465182	-0.494707
Cl75	Cl	1.308603	-0.915492	-0.425537
H76	H	1.106811	-0.903925	-0.247718
Cl77	Cl	0.549483	-0.202925	-0.216471
Cl78	Cl	1.028170	-0.464904	-0.664182
Cl79	Cl	0.549549	-0.512731	-0.545145
H80	H	0.717585	-0.491637	-0.522817
H81	H	1.044835	-0.903605	-0.478311
H82	H	0.841403	-0.444060	-0.472340
H83	H	1.284721	-0.224017	-0.956137
Cl84	Cl	0.976127	-0.799312	-0.336103
Cl85	Cl	0.977639	-0.512367	-0.787978
H86	H	1.000077	-0.491293	-0.956045
Cl87	Cl	1.028281	-0.464805	-1.098155
Cl88	Cl	1.264193	-0.799291	-0.259262
Cl89	Cl	1.186902	-0.799240	-0.547186
