data_functionalizedCrystal
_audit_creation_method	'MofGen! by Chris Wilmer'
_symmetry_space_group_name_H-M	'P1'
_symmetry_Int_Tables_number	1
_symmetry_cell_setting	triclinic
loop_
_symmetry_equiv_pos_as_xyz
  x,y,z
_cell_length_a	12.759401
_cell_length_b	16.625539
_cell_length_c	12.759400
_cell_angle_alpha	89.974233
_cell_angle_beta	90.013799
_cell_angle_gamma	89.981415
loop_
_atom_site_label
_atom_site_type_symbol
_atom_site_fract_x
_atom_site_fract_y
_atom_site_fract_z
Zn1	Zn	1.606244	-0.455881	-0.418289
Zn2	Zn	2.106244	0.044119	0.081711
Zn3	Zn	1.606142	-0.321054	-0.593990
Zn4	Zn	2.106142	0.178946	-0.093990
Zn5	Zn	1.430549	-0.321066	-0.418323
Zn6	Zn	1.930549	0.178934	0.081677
Zn7	Zn	1.430535	-0.455849	-0.593924
Zn8	Zn	1.930535	0.044151	-0.093924
O9	O	1.518368	-0.388462	-0.506132
O10	O	2.018368	0.111538	-0.006132
O11	O	1.753252	-0.438004	-0.441610
O12	O	2.253252	0.061996	0.058390
O13	O	1.582813	-0.208223	-0.570730
O14	O	2.082813	0.291777	-0.070730
O15	O	1.453905	-0.338968	-0.271298
O16	O	1.953905	0.161032	0.228702
O17	O	1.753176	-0.338948	-0.570697
O18	O	2.253176	0.161052	-0.070697
O19	O	1.582987	-0.438016	-0.271273
O20	O	2.082987	0.061984	0.228727
O21	O	1.453806	-0.208232	-0.441668
O22	O	1.953806	0.291768	0.058332
O23	O	1.283526	-0.338937	-0.441604
O24	O	1.783526	0.161063	0.058396
O25	O	1.453880	-0.568685	-0.570584
O26	O	1.953880	-0.068685	-0.070584
O27	O	1.283516	-0.437961	-0.570617
O28	O	1.783516	0.062039	-0.070617
O29	O	1.582973	-0.568709	-0.441546
O30	O	2.082973	-0.068709	0.058454
O31	O	1.582798	-0.338916	-0.741003
O32	O	2.082798	0.161084	-0.241003
O33	O	1.453780	-0.437949	-0.740954
O34	O	1.953780	0.062051	-0.240954
C35	C	1.245400	-0.388447	-0.506107
C36	C	1.745400	0.111553	-0.006107
C37	C	1.128624	-0.388460	-0.506122
C38	C	1.628624	0.111540	-0.006122
C39	C	1.073736	-0.336993	-0.438857
C40	C	1.573736	0.163007	0.061143
C41	C	0.964012	-0.337003	-0.438882
C42	C	1.464012	0.162997	0.061118
C43	C	0.964072	-0.439954	-0.573441
C44	C	1.464072	0.060046	-0.073441
C45	C	1.073794	-0.439939	-0.573420
C46	C	1.573794	0.060061	-0.073420
C47	C	1.073701	-0.277557	-0.361167
C48	C	1.573701	0.222443	0.138833
C49	C	0.963977	-0.277567	-0.361192
C50	C	1.463977	0.222433	0.138808
C51	C	1.518436	-0.598771	-0.506053
C52	C	2.018436	-0.098771	-0.006053
C53	C	1.518465	-0.688393	-0.506020
C54	C	2.018465	-0.188393	-0.006020
C55	C	1.518513	-1.016568	-0.505902
C56	C	2.018513	-0.516568	-0.005902
C57	C	1.518497	-0.925260	-0.505939
C58	C	2.018497	-0.425260	-0.005939
C59	C	1.518490	-0.852483	-0.505962
C60	C	2.018490	-0.352483	-0.005962
C61	C	1.518472	-0.761169	-0.505997
C62	C	2.018472	-0.261169	-0.005997
C63	C	1.792401	-0.388478	-0.506157
C64	C	2.292401	0.111522	-0.006157
C65	C	1.909177	-0.388485	-0.506168
C66	C	2.409177	0.111515	-0.006168
C67	C	1.518305	-0.388446	-0.779099
C68	C	2.018305	0.111554	-0.279099
C69	C	1.518375	-0.388465	-0.895876
C70	C	2.018375	0.111535	-0.395876
C71	C	1.518360	-0.178972	-0.506134
C72	C	2.018360	0.321028	-0.006134
C73	C	1.518534	-0.089351	-0.505871
C74	C	2.018534	0.410649	-0.005871
C75	C	1.585629	-0.336956	-0.950728
C76	C	2.085629	0.163044	-0.450728
C77	C	1.585693	-0.336981	-1.060452
C78	C	2.085693	0.163019	-0.560452
C79	C	1.451241	-0.440027	-1.060462
C80	C	1.951241	0.059973	-0.560462
C81	C	1.451182	-0.440005	-0.950740
C82	C	1.951182	0.059995	-0.450740
C83	C	1.663251	-0.277461	-0.950724
C84	C	2.163251	0.222539	-0.450724
C85	C	1.663315	-0.277485	-1.060448
C86	C	2.163315	0.222515	-0.560448
C87	C	1.518459	-0.388497	-0.232098
C88	C	2.018459	0.111503	0.267902
C89	C	1.518498	-0.388512	-0.115322
C90	C	2.018498	0.111488	0.384678
H91	H	1.107752	-0.300026	-0.283906
H92	H	1.607752	0.199974	0.216094
Cl93	Cl	1.119616	-0.181094	-0.394638
Cl94	Cl	1.619616	0.318906	0.105362
H95	H	0.929907	-0.218209	-0.390241
H96	H	1.429907	0.281791	0.109759
Cl97	Cl	1.366775	-0.504817	-1.129441
Cl98	Cl	1.866775	-0.004817	-0.629441
H99	H	0.934212	-0.294402	-0.279854
H100	H	1.434212	0.205598	0.220146
H101	H	1.634127	-0.218116	-0.916768
H102	H	2.134127	0.281884	-0.416768
H103	H	1.396428	-0.481956	-0.906080
H104	H	1.896428	0.018044	-0.406080
Cl105	Cl	1.629759	-0.181061	-1.106548
Cl106	Cl	2.129759	0.318939	-0.606548
H107	H	1.118479	-0.481841	-0.628205
H108	H	1.618479	0.018159	-0.128205
H109	H	1.744594	-0.294232	-0.920870
H110	H	2.244594	0.205768	-0.420870
Cl111	Cl	1.782654	-0.312113	-1.112872
Cl112	Cl	2.282654	0.187887	-0.612872
H113	H	0.919417	-0.481867	-0.628232
H114	H	1.419417	0.018133	-0.128232
