data_functionalizedCrystal
_audit_creation_method	'MofGen! by Chris Wilmer'
_symmetry_space_group_name_H-M	'P1'
_symmetry_Int_Tables_number	1
_symmetry_cell_setting	triclinic
loop_
_symmetry_equiv_pos_as_xyz
  x,y,z
_cell_length_a	14.044220
_cell_length_b	14.044190
_cell_length_c	13.101039
_cell_angle_alpha	93.663707
_cell_angle_beta	93.659868
_cell_angle_gamma	86.809672
loop_
_atom_site_label
_atom_site_type_symbol
_atom_site_fract_x
_atom_site_fract_y
_atom_site_fract_z
O1	O	-1.281975	0.225348	-0.085126
O2	O	-0.781975	0.725348	0.414874
O3	O	-1.005305	0.217041	-0.085151
O4	O	-0.505305	0.717041	0.414849
O5	O	-1.139483	0.082859	-0.085118
O6	O	-0.639483	0.582859	0.414882
O7	O	-1.147797	0.359530	-0.085158
O8	O	-0.647797	0.859530	0.414842
O9	O	-1.129857	0.092504	0.085309
O10	O	-0.629857	0.592504	0.585309
O11	O	-0.995679	0.226686	0.085277
O12	O	-0.495679	0.726686	0.585277
O13	O	-1.272349	0.234993	0.085302
O14	O	-0.772349	0.734993	0.585302
Zn15	Zn	-1.132486	0.232371	0.112348
Zn16	Zn	-0.632486	0.732371	0.612348
Zn17	Zn	-1.145168	0.219663	-0.112197
Zn18	Zn	-0.645168	0.719663	0.387803
O19	O	-1.138172	0.369174	0.085270
O20	O	-0.638172	0.869174	0.585270
C21	C	-0.964870	0.218228	0.000060
C22	C	-0.464870	0.718228	0.500060
C23	C	-0.858728	0.207382	0.000051
C24	C	-0.358728	0.707382	0.500051
C25	C	-1.131033	0.052060	0.000098
C26	C	-0.631033	0.552060	0.500098
C27	C	-1.120185	-0.054083	0.000106
C28	C	-0.620185	0.445917	0.500106
C29	C	-1.312784	0.233806	0.000089
C30	C	-0.812784	0.733806	0.500089
C31	C	-1.418927	0.244651	0.000091
C32	C	-0.918927	0.744651	0.500091
C33	C	-0.664388	0.187557	0.000075
C34	C	-0.164388	0.687557	0.500075
C35	C	-0.613261	0.264472	0.000068
C36	C	-0.113261	0.764472	0.500068
C37	C	-0.505123	0.253441	0.000081
C38	C	-0.005123	0.753441	0.500081
C39	C	-0.772535	0.198587	0.000062
C40	C	-0.272535	0.698587	0.500062
C41	C	-1.177288	-0.299543	0.000071
C42	C	-0.677288	0.200457	0.500071
C43	C	-1.100371	-0.248418	0.000071
C44	C	-0.600371	0.251582	0.500071
C45	C	-1.111398	-0.140280	0.000091
C46	C	-0.611398	0.359720	0.500091
C47	C	-1.166262	-0.407691	0.000052
C48	C	-0.666262	0.092309	0.500052
C49	C	-1.146621	0.399974	0.000051
C50	C	-0.646621	0.899974	0.500051
C51	C	-1.157470	0.506116	0.000036
C52	C	-0.657470	1.006116	0.500036
N53	N	-1.123838	0.241043	0.265595
N54	N	-0.623838	0.741043	0.765595
N55	N	-1.153824	0.210984	-0.265444
N56	N	-0.653824	0.710984	0.234556
C57	C	-1.112072	0.252851	0.474635
C58	C	-0.612072	0.752851	0.974635
C59	C	-1.165586	0.199179	0.525523
C60	C	-0.665586	0.699179	1.025523
C61	C	-1.159040	0.205749	0.641840
C62	C	-0.659040	0.705749	1.141840
C63	C	-1.118618	0.246282	0.358307
C64	C	-0.618618	0.746282	0.858307
H65	H	-0.626948	0.113431	0.000091
H66	H	-0.126948	0.613431	0.500091
O67	O	-1.265752	-0.254933	-0.000088
O68	O	-0.765752	0.245067	0.499912
C69	C	-1.320640	-0.286650	-0.088336
C70	C	-0.820640	0.213350	0.411664
H71	H	-1.271043	-0.315275	-0.150044
H72	H	-0.771043	0.184725	0.349956
H73	H	-1.367925	-0.224482	-0.117943
H74	H	-0.867925	0.275518	0.382057
H75	H	-1.367336	-0.345836	-0.068381
H76	H	-0.867336	0.154164	0.431619
H77	H	-0.650703	0.338605	0.000052
H78	H	-0.150703	0.838605	0.500052
O79	O	-1.225878	0.138245	0.473284
O80	O	-0.725878	0.638245	0.973284
C81	C	-1.172942	0.071629	0.411400
C82	C	-0.672942	0.571629	0.911400
H83	H	-1.102497	0.102685	0.395348
H84	H	-0.602497	0.602685	0.895348
H85	H	-1.215641	0.055383	0.335945
H86	H	-0.715641	0.555383	0.835945
H87	H	-1.157883	0.002951	0.452863
H88	H	-0.657883	0.502951	0.952863
H89	H	-1.026240	-0.285862	0.000059
H90	H	-0.526240	0.214138	0.500059
O91	O	-1.051638	0.313540	0.527024
O92	O	-0.551638	0.813540	1.027024
C93	C	-1.058469	0.306661	0.633179
C94	C	-0.558469	0.806661	1.133179
H95	H	-1.130492	0.278109	0.647699
H96	H	-0.630492	0.778109	1.147699
H97	H	-1.051832	0.380343	0.674036
H98	H	-0.551832	0.880343	1.174036
H99	H	-0.998609	0.255970	0.663640
H100	H	-0.498609	0.755970	1.163640
