data_functionalizedCrystal
_audit_creation_method	'MofGen! by Chris Wilmer'
_symmetry_space_group_name_H-M	'P1'
_symmetry_Int_Tables_number	1
_symmetry_cell_setting	triclinic
loop_
_symmetry_equiv_pos_as_xyz
  x,y,z
_cell_length_a	8.559649
_cell_length_b	15.944493
_cell_length_c	7.088929
_cell_angle_alpha	83.783099
_cell_angle_beta	95.325015
_cell_angle_gamma	76.626854
loop_
_atom_site_label
_atom_site_type_symbol
_atom_site_fract_x
_atom_site_fract_y
_atom_site_fract_z
O1	O	2.103733	-0.018805	-0.158961
O2	O	1.638517	0.024576	-0.158962
O3	O	1.883876	-0.120215	-0.158977
O4	O	1.858375	0.125986	-0.158945
O5	O	1.916666	-0.139604	0.158996
O6	O	1.671307	0.005187	0.159012
O7	O	2.136523	-0.038194	0.159012
Cu8	Cu	1.906909	-0.018274	0.188045
Cu9	Cu	1.868131	0.004656	-0.187995
O10	O	1.891164	0.106597	0.159028
C11	C	1.595381	0.018169	0.000024
C12	C	1.417998	0.027955	0.000023
C13	C	1.899227	-0.161136	0.000001
C14	C	1.896100	-0.254182	-0.000023
C15	C	2.040528	-0.499265	0.000013
C16	C	1.946478	-0.535247	-0.156763
C17	C	1.890311	-0.424530	0.000000
C18	C	1.978772	-0.554336	0.156734
C19	C	1.884732	-0.589082	0.000031
C20	C	1.796289	-0.459279	-0.156905
C21	C	1.828618	-0.478375	0.156732
C22	C	1.734454	-0.514315	-0.000083
C23	C	1.893530	-0.329737	-0.000019
C24	C	1.881501	-0.683870	0.000037
C25	C	2.179659	-0.031787	0.000022
C26	C	2.357041	-0.041572	0.000011
C27	C	1.875812	0.147519	0.000045
C28	C	1.878939	0.240565	0.000057
N29	N	1.934195	-0.034402	0.452532
N30	N	1.840858	0.020777	-0.452481
H31	H	1.440555	-0.108583	-0.000007
H32	H	1.996248	-0.560205	-0.289307
Br33	Br	1.278795	0.139658	0.000010
Br34	Br	2.256160	-0.487117	-0.000235
Br35	Br	1.667811	-0.390946	-0.378061
H36	H	1.744126	0.077959	0.465879
H37	H	2.030945	-0.091583	0.534181
Br38	Br	2.107332	-0.622854	0.377632
H39	H	1.604953	-0.521418	-0.000169
Br40	Br	1.745790	-0.436736	0.377660
