data_functionalizedCrystal
_audit_creation_method	'MofGen! by Chris Wilmer'
_symmetry_space_group_name_H-M	'P1'
_symmetry_Int_Tables_number	1
_symmetry_cell_setting	triclinic
loop_
_symmetry_equiv_pos_as_xyz
  x,y,z
_cell_length_a	17.019282
_cell_length_b	15.944551
_cell_length_c	15.500361
_cell_angle_alpha	87.161625
_cell_angle_beta	83.300157
_cell_angle_gamma	96.556200
loop_
_atom_site_label
_atom_site_type_symbol
_atom_site_fract_x
_atom_site_fract_y
_atom_site_fract_z
O1	O	1.046996	-0.106623	-0.006085
O2	O	0.816457	-0.121214	0.011099
O3	O	0.938022	0.008391	0.002030
O4	O	0.925431	-0.236227	0.002984
O5	O	0.945361	0.016229	-0.142403
O6	O	0.823796	-0.113375	-0.133335
O7	O	1.054335	-0.098784	-0.150518
Cu8	Cu	0.939736	-0.105364	-0.155114
Cu9	Cu	0.931056	-0.114634	0.015695
O10	O	0.932770	-0.228389	-0.141449
C11	C	0.790625	-0.116898	-0.058919
C12	C	0.702722	-0.115707	-0.052367
C13	C	0.665430	-0.110872	-0.128022
C14	C	0.582836	-0.109739	-0.121868
C15	C	0.537536	-0.113446	-0.040059
C16	C	0.574834	-0.118279	0.035601
C17	C	0.657426	-0.119406	0.029446
C18	C	0.287960	-0.110252	-0.017538
C19	C	0.205362	-0.109127	-0.011390
C20	C	0.213371	-0.100585	-0.168860
C21	C	0.295964	-0.101717	-0.175007
C22	C	0.333255	-0.106545	-0.099347
C23	C	0.453112	-0.112291	-0.033768
C24	C	0.417678	-0.107695	-0.105639
C25	C	0.941169	0.043601	-0.070148
C26	C	0.939602	0.136839	-0.070032
C27	C	1.080167	-0.103100	-0.080498
C28	C	1.168070	-0.104292	-0.087044
C29	C	0.929623	-0.263599	-0.069269
C30	C	0.931189	-0.356837	-0.069380
N31	N	0.945846	-0.098843	-0.275252
C32	C	0.860504	0.351271	-0.064124
C33	C	0.900853	0.416350	-0.138076
C34	C	0.936767	0.307549	-0.069814
C35	C	0.893635	0.408605	0.004322
C36	C	0.934022	0.472447	-0.069599
C37	C	0.977140	0.371403	-0.143826
C38	C	0.969908	0.363648	-0.001363
C39	C	1.010313	0.428711	-0.075336
C40	C	0.938346	0.212556	-0.069938
C41	C	0.932450	0.567439	-0.069481
C42	C	0.894325	-0.153740	-0.316707
C43	C	0.898969	-0.148805	-0.407624
C44	C	0.955130	-0.088969	-0.457085
C45	C	1.006656	-0.034069	-0.415625
C46	C	1.002016	-0.039009	-0.324709
C47	C	0.971838	-0.071188	-0.731792
C48	C	0.976473	-0.066251	-0.822713
C49	C	0.868786	-0.180989	-0.814706
C50	C	0.864147	-0.185920	-0.723789
C51	C	0.915677	-0.131023	-0.682337
C52	C	0.959876	-0.083921	-0.550017
C53	C	0.910933	-0.136075	-0.589407
N54	N	0.924952	-0.121148	0.135833
H55	H	0.416219	-0.115309	0.032842
H56	H	1.073672	0.462211	-0.080099
Cl57	Cl	0.793543	-0.261142	-0.661609
H58	H	0.857017	-0.193507	-0.441376
H59	H	0.797207	0.317628	-0.059477
Cl60	Cl	1.030477	-0.008697	-0.612201
Cl61	Cl	0.855778	0.452175	-0.227318
Cl62	Cl	1.031629	0.345862	-0.240590
H63	H	1.013794	-0.026488	-0.698048
H64	H	0.182999	-0.096652	-0.230458
Cl65	Cl	1.014943	0.327786	0.087887
Cl66	Cl	0.722370	-0.106215	-0.230873
H67	H	0.848589	-0.202462	-0.276441
Cl68	Cl	0.535957	-0.103675	-0.216982
Cl69	Cl	0.352906	-0.097062	-0.277856
Cl70	Cl	0.334830	-0.116323	0.077578
Cl71	Cl	0.148413	-0.113791	0.091464
Cl72	Cl	0.517888	-0.122909	0.138447
H73	H	0.826834	-0.225684	-0.848465
H74	H	0.687788	-0.123345	0.091052
H75	H	1.052388	0.014648	-0.455902
Cl76	Cl	0.839091	0.434313	0.100982
H77	H	0.454566	-0.104672	-0.172248
H78	H	1.022209	-0.017522	-0.862981
Cl79	Cl	1.066791	0.030005	-0.272596
H80	H	0.865210	-0.184797	-0.549133
