data_functionalizedCrystal
_audit_creation_method	'MofGen! by Chris Wilmer'
_symmetry_space_group_name_H-M	'P1'
_symmetry_Int_Tables_number	1
_symmetry_cell_setting	triclinic
loop_
_symmetry_equiv_pos_as_xyz
  x,y,z
_cell_length_a	14.519709
_cell_length_b	12.811445
_cell_length_c	11.295483
_cell_angle_alpha	80.460739
_cell_angle_beta	85.891168
_cell_angle_gamma	96.135712
loop_
_atom_site_label
_atom_site_type_symbol
_atom_site_fract_x
_atom_site_fract_y
_atom_site_fract_z
O1	O	-0.108551	1.410823	-0.251354
O2	O	0.391449	1.910823	0.248646
O3	O	-0.124128	1.102894	-0.218103
O4	O	0.375872	1.602894	0.281897
O5	O	0.017935	1.265024	-0.235621
O6	O	0.517935	1.765024	0.264379
O7	O	-0.250614	1.248694	-0.233836
O8	O	0.249386	1.748694	0.266164
O9	O	0.005476	1.250784	-0.036032
O10	O	0.505476	1.750784	0.463968
O11	O	-0.136587	1.088654	-0.018514
O12	O	0.363413	1.588654	0.481486
O13	O	-0.121010	1.396583	-0.051764
O14	O	0.378990	1.896583	0.448236
Cu15	Cu	-0.129936	1.241318	-0.016915
Cu16	Cu	0.370064	1.741318	0.483085
Cu17	Cu	-0.115202	1.258159	-0.252953
Cu18	Cu	0.384798	1.758159	0.247047
O19	O	-0.263073	1.234454	-0.034247
O20	O	0.236927	1.734454	0.465753
C21	C	-0.129865	1.056366	-0.114053
C22	C	0.370135	1.556366	0.385947
C23	C	-0.128388	0.938940	-0.101374
C24	C	0.371612	1.438940	0.398626
C25	C	-0.112046	0.733806	-0.295164
C26	C	0.387954	1.233806	0.204836
C27	C	-0.110658	0.623474	-0.283256
C28	C	0.389342	1.123474	0.216744
C29	C	-0.124231	0.607942	-0.065652
C30	C	0.375769	1.107942	0.434348
C31	C	-0.125619	0.718273	-0.077560
C32	C	0.374381	1.218273	0.422440
C33	C	-0.119525	0.781202	-0.192319
C34	C	0.380475	1.281202	0.307681
C35	C	-0.120906	0.891537	-0.204226
C36	C	0.379094	1.391537	0.295774
C37	C	-0.134485	0.876002	0.013377
C38	C	0.365515	1.376002	0.513377
C39	C	-0.133098	0.765670	0.025285
C40	C	0.366902	1.265670	0.525285
C41	C	-0.291200	1.242335	-0.134121
C42	C	0.208800	1.742335	0.365879
C43	C	-0.393572	1.244614	-0.134359
C44	C	0.106428	1.744614	0.365641
C45	C	-0.768428	1.253013	-0.135313
C46	C	-0.268428	1.753013	0.364687
C47	C	-0.664131	1.250681	-0.135048
C48	C	-0.164131	1.750681	0.364952
C49	C	-0.581004	1.248814	-0.134835
C50	C	-0.081004	1.748814	0.365165
C51	C	-0.476700	1.246481	-0.134572
C52	C	0.023300	1.746481	0.365428
C53	C	0.046062	1.257143	-0.135750
C54	C	0.546062	1.757143	0.364250
C55	C	0.148435	1.254864	-0.135519
C56	C	0.648435	1.754864	0.364481
C57	C	-0.115272	1.443112	-0.155817
C58	C	0.384728	1.943112	0.344183
C59	C	-0.116749	1.560539	-0.168504
C60	C	0.383251	2.060539	0.331496
N61	N	-0.140298	1.229481	0.149100
N62	N	0.359702	1.729481	0.649100
N63	N	-0.104833	1.270005	-0.418969
N64	N	0.395167	1.770005	0.081031
C65	C	-0.030187	1.355215	0.384804
C66	C	0.469813	1.855215	0.884804
C67	C	-0.038025	1.346277	0.510434
C68	C	0.461975	1.846277	1.010434
C69	C	-0.163805	1.202663	0.525991
C70	C	0.336195	1.702663	1.025991
C71	C	-0.155968	1.211601	0.400362
C72	C	0.344032	1.711601	0.900362
C73	C	-0.089158	1.287880	0.329772
C74	C	0.410842	1.787880	0.829772
C75	C	-0.081325	1.296823	0.204140
C76	C	0.418675	1.796823	0.704140
C77	C	-0.207101	1.153205	0.219700
C78	C	0.292899	1.653205	0.719700
C79	C	-0.214938	1.144267	0.345330
C80	C	0.285062	1.644267	0.845330
H81	H	-0.129201	0.556685	0.027780
H82	H	0.370799	1.056685	0.527780
Cl83	Cl	-0.104372	0.812921	-0.439428
Cl84	Cl	0.395628	1.312921	0.060572
Cl85	Cl	-0.101259	0.563893	-0.412552
Cl86	Cl	0.398741	1.063893	0.087448
H87	H	-0.140574	0.914603	0.097120
H88	H	0.359426	1.414603	0.597120
H89	H	-0.138062	0.714418	0.118719
H90	H	0.361938	1.214418	0.618719
H91	H	-0.026928	1.358936	0.146667
H92	H	0.473072	1.858936	0.646667
H93	H	0.024206	1.417332	0.327329
H94	H	0.524206	1.917332	0.827329
Cl95	Cl	0.036115	1.430928	0.579613
Cl96	Cl	0.536115	1.930928	1.079613
H97	H	-0.115943	0.942772	-0.297670
H98	H	0.384057	1.442772	0.202330
Cl99	Cl	-0.247781	1.106764	0.614745
Cl100	Cl	0.252219	1.606764	1.114745
H101	H	-0.269332	1.082159	0.402818
H102	H	0.230668	1.582159	0.902818
H103	H	-0.255121	1.098379	0.174879
H104	H	0.244879	1.598379	0.674879
