data_functionalizedCrystal
_audit_creation_method	'MofGen! by Chris Wilmer'
_symmetry_space_group_name_H-M	'P1'
_symmetry_Int_Tables_number	1
_symmetry_cell_setting	triclinic
loop_
_symmetry_equiv_pos_as_xyz
  x,y,z
_cell_length_a	10.540495
_cell_length_b	9.016244
_cell_length_c	11.792241
_cell_angle_alpha	89.997637
_cell_angle_beta	84.350461
_cell_angle_gamma	89.991052
loop_
_atom_site_label
_atom_site_type_symbol
_atom_site_fract_x
_atom_site_fract_y
_atom_site_fract_z
O1	O	-1.685405	0.123396	-0.159714
O2	O	-1.315936	0.123387	-0.174837
O3	O	-1.509637	0.123382	-0.002127
O4	O	-1.491705	0.123402	-0.332424
O5	O	-1.509608	-0.123299	-0.002131
O6	O	-1.315907	-0.123293	-0.174841
O7	O	-1.685377	-0.123284	-0.159718
Cu8	Cu	-1.500640	-0.145813	-0.167279
Cu9	Cu	-1.500673	0.145916	-0.167275
O10	O	-1.491676	-0.123279	-0.332427
C11	C	-1.268621	0.000046	-0.173715
C12	C	-1.127682	0.000042	-0.170354
N13	N	-1.500625	-0.350999	-0.167282
C14	C	-1.056573	0.000051	-0.293870
C15	C	-0.909970	0.000615	-0.290414
C16	C	-0.935577	0.140635	-0.103191
C17	C	-1.082104	0.140749	-0.107522
C18	C	-1.082480	-0.139783	-0.105699
C19	C	-0.935504	-0.141627	-0.104516
C20	C	-1.396692	-0.586029	-0.259360
C21	C	-1.396920	-0.414137	-0.259705
C22	C	-1.633263	-0.413332	-0.194206
C23	C	-1.632695	-0.585277	-0.194858
C24	C	-1.473239	-0.585551	-0.047978
C25	C	-1.470192	-0.413597	-0.048751
C26	C	-0.732689	0.000055	-0.160854
C27	C	-0.873623	0.000052	-0.164261
C28	C	-1.508496	0.000042	0.040165
C29	C	-1.505125	0.000043	0.166187
N30	N	-1.500698	0.351102	-0.167263
C31	C	-1.492817	0.000065	-0.374719
C32	C	-1.496188	0.000073	-0.500741
C33	C	-1.498925	0.000068	0.396915
C34	C	-1.502370	0.000054	0.268521
H35	H	-0.867138	-0.100137	-0.338447
C36	C	-1.094887	-0.136125	-0.361561
N37	N	-1.123751	-0.238700	-0.412546
C38	C	-1.147362	0.148856	0.015049
N39	N	-1.196508	0.154977	0.107367
C40	C	-1.666515	-0.355149	-0.310455
N41	N	-1.691551	-0.311333	-0.398019
H42	H	-1.086652	0.100722	-0.343237
C43	C	-1.263755	-0.357204	-0.237844
N44	N	-1.163448	-0.314329	-0.221385
C45	C	-1.740473	-0.641460	-0.107788
N46	N	-1.821664	-0.683770	-0.042222
H47	H	-1.712532	-0.372430	-0.128958
C48	C	-0.905834	0.147163	0.021983
N49	N	-0.883427	0.152078	0.116263
C50	C	-0.853393	0.137575	-0.355013
N51	N	-0.810781	0.240743	-0.403666
C52	C	-1.665189	-0.639431	-0.312434
N53	N	-1.689655	-0.680212	-0.400999
C54	C	-1.338369	-0.358572	-0.021182
N55	N	-1.239078	-0.317121	-0.000421
C56	C	-1.345335	-0.644197	-0.013378
N57	N	-1.248991	-0.688369	0.012670
H58	H	-0.894351	-0.245632	-0.149146
H59	H	-1.110195	0.246243	-0.152118
H60	H	-1.540954	-0.370623	0.023074
C61	C	-0.877843	0.282521	-0.159731
N62	N	-0.834337	0.389387	-0.202306
C63	C	-0.903224	-0.153681	0.019708
N64	N	-0.878909	-0.162751	0.113277
C65	C	-1.575684	-0.640484	0.044629
N66	N	-1.652847	-0.681869	0.114373
H67	H	-1.297817	-0.627426	-0.243412
C68	C	-1.146727	-0.141628	0.017379
N69	N	-1.195122	-0.143004	0.110078
H70	H	-1.113828	-0.246372	-0.146813
H71	H	-1.414073	-0.629216	-0.347359
H72	H	-1.414532	-0.372985	-0.348205
