data_functionalizedCrystal
_audit_creation_method	'MofGen! by Chris Wilmer'
_symmetry_space_group_name_H-M	'P1'
_symmetry_Int_Tables_number	1
_symmetry_cell_setting	triclinic
loop_
_symmetry_equiv_pos_as_xyz
  x,y,z
_cell_length_a	13.339070
_cell_length_b	13.262508
_cell_length_c	16.053802
_cell_angle_alpha	108.475487
_cell_angle_beta	86.721119
_cell_angle_gamma	99.430496
loop_
_atom_site_label
_atom_site_type_symbol
_atom_site_fract_x
_atom_site_fract_y
_atom_site_fract_z
O1	O	1.341384	0.529144	0.050707
O2	O	1.047540	0.459269	0.034844
O3	O	1.203999	0.341997	0.008214
O4	O	1.184925	0.646417	0.077337
O5	O	1.195388	0.348415	0.148531
O6	O	1.038928	0.465687	0.175160
O7	O	1.332773	0.535562	0.191024
Zn8	Zn	1.184483	0.501644	0.205370
Zn9	Zn	1.195829	0.493188	0.020497
O10	O	1.176313	0.652835	0.217653
C11	C	1.005660	0.450675	0.102322
C12	C	0.893701	0.415492	0.094334
C13	C	0.526238	0.689055	0.156437
C14	C	0.631428	0.722114	0.163940
C15	C	0.697002	0.645461	0.146539
C16	C	0.657375	0.535744	0.121634
C17	C	0.552175	0.502681	0.114123
C18	C	0.722938	0.459088	0.104226
C19	C	0.683311	0.349370	0.079321
C20	C	0.578121	0.316313	0.071812
C21	C	0.512548	0.392966	0.089212
C22	C	0.828138	0.492150	0.111737
C23	C	0.854075	0.305777	0.069423
C24	C	0.748885	0.272718	0.061920
C25	C	1.199416	0.305447	0.069343
C26	C	1.198578	0.186976	0.042438
C27	C	1.177431	-0.132995	0.272550
C28	C	1.178211	-0.021687	0.297830
C29	C	1.183303	0.030485	0.233984
C30	C	1.187614	-0.028664	0.144854
C31	C	1.186826	-0.139984	0.119572
C32	C	1.192698	0.023495	0.081006
C33	C	1.197010	-0.035653	-0.008124
C34	C	1.196222	-0.146963	-0.033402
C35	C	1.191130	-0.199134	0.030444
C36	C	1.193486	0.134816	0.106288
C37	C	1.202882	0.127827	-0.046691
C38	C	1.202102	0.016518	-0.071970
C39	C	1.374653	0.544157	0.123543
C40	C	1.486611	0.579339	0.131526
C41	C	1.180896	0.689384	0.156522
C42	C	1.181735	0.807855	0.183422
N43	N	1.176747	0.507416	0.331541
N44	N	1.203573	0.487409	-0.105675
C45	C	1.243345	0.457549	0.363911
C46	C	1.237942	0.461599	0.452238
C47	C	1.165947	0.515525	0.508194
C48	C	1.099342	0.565394	0.475818
C49	C	1.104740	0.561336	0.387491
C50	C	1.142367	0.533220	0.773622
C51	C	1.136976	0.537277	0.861954
C52	C	1.275576	0.433480	0.838368
C53	C	1.280971	0.429433	0.750042
C54	C	1.214363	0.479297	0.717672
N55	N	1.160425	0.519670	0.598479
N56	N	1.219881	0.475145	0.627387
H57	H	0.545862	0.226974	0.051523
H58	H	0.782652	0.672385	0.152648
H59	H	0.426892	0.366054	0.083105
H60	H	0.860391	0.581483	0.132018
H61	H	1.040716	0.609297	0.521382
H62	H	1.329804	0.392882	0.864731
H63	H	1.205611	-0.031656	-0.144541
N64	N	1.032908	0.615128	0.352582
H65	H	1.073227	0.671873	0.329188
H66	H	0.990900	0.559570	0.303766
H67	H	1.292171	0.420992	0.478592
N68	N	0.674169	0.840441	0.190787
H69	H	0.616670	0.883984	0.200669
H70	H	0.714060	0.860610	0.246840
N71	N	1.190290	-0.319191	0.003189
H72	H	1.125683	-0.354486	0.024897
H73	H	1.193827	-0.348669	-0.062961
N74	N	1.208335	0.184076	-0.115563
H75	H	1.208173	0.263566	-0.086023
H76	H	1.272814	0.172963	-0.151162
N77	N	1.173575	0.042105	0.393956
H78	H	1.174844	0.120537	0.400284
H79	H	1.108810	0.014314	0.420699
N80	N	1.171950	-0.189264	0.341404
H81	H	1.108843	-0.245154	0.332085
H82	H	1.234038	-0.225366	0.336518
N83	N	0.455518	0.771720	0.175192
H84	H	0.382867	0.734125	0.166651
H85	H	0.465038	0.820575	0.237760
N86	N	0.924780	0.223085	0.050653
H87	H	0.972201	0.230268	0.000812
H88	H	0.965738	0.235069	0.104886
H89	H	1.339596	0.385522	0.704483
N90	N	1.200945	-0.210714	-0.129539
H91	H	1.140591	-0.202733	-0.160858
H92	H	1.265772	-0.182915	-0.156194
N93	N	0.706139	0.154383	0.035065
H94	H	0.629550	0.145076	0.032951
H95	H	0.733380	0.117080	-0.024879
N96	N	1.188844	0.198612	0.202413
H97	H	1.124080	0.170908	0.229214
H98	H	1.249275	0.190603	0.233618
N99	N	1.321004	0.399393	0.303563
H100	H	1.362371	0.368416	0.337476
H101	H	1.285090	0.339331	0.253672
N102	N	1.059329	0.595456	0.922314
H103	H	1.017953	0.626431	0.888407
H104	H	1.012900	0.543289	0.946755
N105	N	1.070524	0.586993	0.738713
H106	H	1.024099	0.621770	0.787566
H107	H	1.110908	0.643689	0.715304
H108	H	1.183936	0.121117	0.254572
