data_functionalizedCrystal
_audit_creation_method	'MofGen! by Chris Wilmer'
_symmetry_space_group_name_H-M	'P1'
_symmetry_Int_Tables_number	1
_symmetry_cell_setting	triclinic
loop_
_symmetry_equiv_pos_as_xyz
  x,y,z
_cell_length_a	11.026660
_cell_length_b	19.188928
_cell_length_c	9.482900
_cell_angle_alpha	99.272338
_cell_angle_beta	101.381977
_cell_angle_gamma	84.135677
loop_
_atom_site_label
_atom_site_type_symbol
_atom_site_fract_x
_atom_site_fract_y
_atom_site_fract_z
O1	O	1.627609	-0.283636	0.120985
O2	O	1.274480	-0.250369	0.120976
O3	O	1.461231	-0.166648	0.120944
O4	O	1.440858	-0.367357	0.121017
O5	O	1.423224	-0.183689	-0.120842
O6	O	1.236473	-0.267410	-0.120810
O7	O	1.589602	-0.300677	-0.120801
Cu8	Cu	1.409567	-0.285600	-0.142882
Cu9	Cu	1.454515	-0.265446	0.143058
O10	O	1.402851	-0.384398	-0.120769
C11	C	1.210299	-0.252752	0.000082
C12	C	1.075682	-0.234456	0.000076
C13	C	0.862476	-0.266071	0.000092
C14	C	1.001609	-0.284982	0.000096
C15	C	1.441567	-0.149074	0.000045
C16	C	1.439584	-0.071318	0.000026
C17	C	1.549164	-0.040360	0.000018
C18	C	1.547306	0.032702	0.000036
C19	C	1.435858	0.074802	0.000031
C20	C	1.326264	0.043836	0.000047
C21	C	1.328127	-0.029224	0.000044
N22	N	1.337734	0.187863	-0.082265
N23	N	1.335971	0.257266	-0.082265
C24	C	1.430238	0.294928	0.000042
N25	N	1.526351	0.260562	0.082332
N26	N	1.528116	0.191152	0.082326
C27	C	1.433825	0.154023	0.000035
C28	C	1.537813	0.405108	0.000055
C29	C	1.535952	0.478173	0.000082
C30	C	1.314904	0.489303	0.000078
C31	C	1.316770	0.416241	0.000067
C32	C	1.428227	0.374147	0.000048
C33	C	1.653784	-0.298294	0.000097
C34	C	1.788402	-0.316588	0.000112
N35	N	1.377962	-0.299775	-0.343997
C36	C	1.422516	0.598027	0.000113
C37	C	1.424502	0.520267	0.000080
C38	C	1.418907	-0.281419	-0.583617
C39	C	1.445194	-0.269618	-0.416204
N40	N	1.486130	-0.251266	0.344173
H41	H	0.827987	-0.373839	0.000123
H42	H	1.639921	-0.074628	0.000008
N43	N	0.810054	-0.190233	0.000079
H44	H	0.878603	-0.159118	0.000069
H45	H	0.744114	-0.186763	-0.089556
H46	H	1.563138	-0.216712	-0.593711
N47	N	1.665501	0.066105	0.000031
H48	H	1.736390	0.028353	0.000021
H49	H	1.655440	0.089866	-0.089604
H50	H	1.522208	-0.235062	-0.354093
N51	N	1.054021	-0.360823	0.000111
H52	H	1.145983	-0.363583	0.000109
H53	H	1.039603	-0.378488	0.089754
N54	N	1.023261	-0.158617	0.000040
H55	H	0.985515	-0.142450	0.089666
H56	H	1.091867	-0.127555	-0.000029
N57	N	1.206058	0.089238	0.000050
H58	H	1.221504	0.140219	0.000046
H59	H	1.144029	0.072588	-0.089581
N60	N	1.209924	-0.062620	0.000018
H61	H	1.228015	-0.115291	0.000007
H62	H	1.175418	-0.041115	0.089649
N63	N	1.275932	-0.345539	-0.426254
H64	H	1.312269	-0.386688	-0.489386
H65	H	1.234722	-0.363986	-0.354966
N66	N	1.198580	0.382840	0.000057
H67	H	1.164025	0.404296	0.089686
H68	H	1.135936	0.391684	-0.089634
N69	N	1.658019	0.359701	0.000042
H70	H	1.727161	0.390404	0.000052
H71	H	1.677695	0.335451	0.089669
N72	N	1.194702	0.534708	0.000063
H73	H	1.132622	0.518118	-0.089571
H74	H	1.160897	0.530723	0.089748
N75	N	1.654149	0.511568	0.000080
H76	H	1.725032	0.473812	0.000063
H77	H	1.644090	0.535331	-0.089551
N78	N	1.316883	-0.327181	-0.665880
H79	H	1.312564	-0.329122	-0.773814
H80	H	1.334822	-0.376581	-0.639334
