data_functionalizedCrystal
_audit_creation_method	'MofGen! by Chris Wilmer'
_symmetry_space_group_name_H-M	'P1'
_symmetry_Int_Tables_number	1
_symmetry_cell_setting	triclinic
loop_
_symmetry_equiv_pos_as_xyz
  x,y,z
_cell_length_a	12.759401
_cell_length_b	25.639240
_cell_length_c	12.759393
_cell_angle_alpha	90.044235
_cell_angle_beta	90.019613
_cell_angle_gamma	90.032989
loop_
_atom_site_label
_atom_site_type_symbol
_atom_site_fract_x
_atom_site_fract_y
_atom_site_fract_z
Zn1	Zn	1.606124	-0.208117	0.593920
Zn2	Zn	2.106124	0.291883	1.093920
Zn3	Zn	1.605963	-0.295563	0.418201
Zn4	Zn	2.105963	0.204437	0.918201
Zn5	Zn	1.430426	-0.208144	0.418256
Zn6	Zn	1.930426	0.291856	0.918256
Zn7	Zn	1.430359	-0.295523	0.593839
Zn8	Zn	1.930359	0.204477	1.093839
O9	O	1.518218	-0.251837	0.506054
O10	O	2.018218	0.248163	1.006054
O11	O	1.753123	-0.219722	0.570622
O12	O	2.253123	0.280278	1.070622
O13	O	1.582638	-0.283995	0.271188
O14	O	2.082638	0.216005	0.771188
O15	O	1.453828	-0.134975	0.441615
O16	O	1.953828	0.365025	0.941615
O17	O	1.753005	-0.283969	0.441522
O18	O	2.253005	0.216031	0.941522
O19	O	1.582912	-0.134955	0.570675
O20	O	2.082912	0.365045	1.070675
O21	O	1.453671	-0.219769	0.271228
O22	O	1.953671	0.280231	0.771228
O23	O	1.283396	-0.219730	0.441537
O24	O	1.783396	0.280270	0.941537
O25	O	1.453714	-0.283900	0.740871
O26	O	1.953714	0.216100	1.240871
O27	O	1.283347	-0.283927	0.570537
O28	O	1.783347	0.216073	1.070537
O29	O	1.582847	-0.219683	0.740931
O30	O	2.082847	0.280317	1.240931
O31	O	1.582573	-0.368723	0.441443
O32	O	2.082573	0.131277	0.941443
O33	O	1.453558	-0.368694	0.570484
O34	O	1.953558	0.131306	1.070484
C35	C	1.245250	-0.251827	0.506035
C36	C	1.745250	0.248173	1.006035
C37	C	1.128474	-0.251836	0.506051
C38	C	1.628474	0.248164	1.006051
C39	C	1.073554	-0.285236	0.438737
C40	C	1.573554	0.214764	0.938737
C41	C	0.963830	-0.285245	0.438755
C42	C	1.463830	0.214755	0.938755
C43	C	0.963955	-0.218450	0.573405
C44	C	1.463955	0.281550	1.073405
C45	C	1.073677	-0.218444	0.573391
C46	C	1.573677	0.281556	1.073391
C47	C	1.073480	-0.323798	0.360995
C48	C	1.573480	0.176202	0.860995
C49	C	0.963756	-0.323807	0.361014
C50	C	1.463756	0.176193	0.861014
C51	C	1.518069	-0.387680	0.505972
C52	C	2.018069	0.112320	1.005972
C53	C	1.518102	-0.445794	0.505972
C54	C	2.018102	0.054206	1.005972
C55	C	1.585465	-0.806108	0.573377
C56	C	2.085465	-0.306108	1.073377
C57	C	1.585496	-0.860712	0.573398
C58	C	2.085496	-0.360712	1.073398
O59	O	1.642595	-0.888907	0.630624
O60	O	2.142595	-0.388907	1.130624
N61	N	1.518363	-0.888076	0.506156
N62	N	2.018363	-0.388076	1.006156
C63	C	1.451188	-0.860833	0.438895
C64	C	1.951188	-0.360833	0.938895
O65	O	1.394088	-0.889122	0.381703
O66	O	1.894088	-0.389122	0.881703
C67	C	1.451152	-0.806230	0.438880
C68	C	1.951152	-0.306230	0.938880
C69	C	1.518297	-0.778868	0.506119
C70	C	2.018297	-0.278868	1.006119
C71	C	1.652604	-0.778746	0.640611
C72	C	2.152604	-0.278746	1.140611
C73	C	1.652574	-0.724146	0.640588
C74	C	2.152574	-0.224146	1.140588
C75	C	1.585406	-0.696907	0.573331
C76	C	2.085406	-0.196907	1.073331
C77	C	1.518267	-0.724268	0.506096
C78	C	2.018267	-0.224268	1.006096
C79	C	1.383972	-0.778988	0.371625
C80	C	1.883972	-0.278988	0.871625
C81	C	1.383941	-0.724381	0.371617
C82	C	1.883941	-0.224381	0.871617
C83	C	1.451086	-0.697019	0.438856
C84	C	1.951086	-0.197019	0.938856
C85	C	1.451069	-0.642428	0.438816
C86	C	1.951069	-0.142428	0.938816
N87	N	1.518202	-0.615064	0.506058
N88	N	2.018202	-0.115064	1.006058
C89	C	1.585370	-0.642303	0.573316
C90	C	2.085370	-0.142303	1.073316
C91	C	1.451266	-0.975504	0.438934
C92	C	1.951266	-0.475504	0.938934
C93	C	1.451306	-1.030106	0.438943
C94	C	1.951306	-0.530106	0.938943
C95	C	1.585614	-1.029981	0.573448
C96	C	2.085614	-0.529981	1.073448
C97	C	1.585578	-0.975378	0.573432
C98	C	2.085578	-0.475378	1.073432
C99	C	1.518399	-0.948139	0.506176
C100	C	2.018399	-0.448139	1.006176
C101	C	1.585303	-0.527638	0.573262
C102	C	2.085303	-0.027638	1.073262
C103	C	1.585270	-0.473033	0.573229
C104	C	2.085270	0.026967	1.073229
C105	C	1.450959	-0.473162	0.438729
C106	C	1.950959	0.026838	0.938729
C107	C	1.450995	-0.527763	0.438757
C108	C	1.950995	-0.027763	0.938757
C109	C	1.518171	-0.555000	0.506032
C110	C	2.018171	-0.055000	1.006032
O111	O	1.393997	-0.614198	0.381622
O112	O	1.893997	-0.114198	0.881622
O113	O	1.642450	-0.614007	0.630508
O114	O	2.142450	-0.114007	1.130508
C115	C	1.792251	-0.251847	0.506075
C116	C	2.292251	0.248153	1.006075
C117	C	1.909027	-0.251851	0.506083
C118	C	2.409027	0.248149	1.006083
C119	C	1.518291	-0.251784	0.780088
C120	C	2.018291	0.248216	1.280088
C121	C	1.518323	-0.251762	0.896865
C122	C	2.018323	0.248238	1.396865
C123	C	1.518395	-0.115464	0.506160
C124	C	2.018395	0.384536	1.006160
C125	C	1.518471	-0.057350	0.506205
C126	C	2.018471	0.442650	1.006205
C127	C	1.518205	-0.251852	0.233087
C128	C	2.018205	0.248148	0.733087
C129	C	1.518377	-0.251727	0.116311
C130	C	2.018377	0.248273	0.616311
C131	C	1.585572	-0.218321	0.951759
C132	C	2.085572	0.281679	1.451759
C133	C	1.585597	-0.218302	1.061483
C134	C	2.085597	0.281698	1.561483
C135	C	1.451120	-0.285170	1.061409
C136	C	1.951120	0.214830	1.561409
C137	C	1.451091	-0.285185	0.951686
C138	C	1.951091	0.214815	1.451686
C139	C	1.663214	-0.179717	0.951803
C140	C	2.163214	0.320283	1.451803
C141	C	1.663239	-0.179698	1.061527
C142	C	2.163239	0.320302	1.561527
H143	H	1.103228	-0.364303	0.382623
H144	H	1.603228	0.135697	0.882623
H145	H	1.396381	-0.312381	1.106058
H146	H	1.896381	0.187619	1.606058
H147	H	1.118389	-0.191252	0.628215
H148	H	1.618389	0.308748	1.128215
H149	H	1.634149	-0.141225	1.095592
H150	H	2.134149	0.358775	1.595592
H151	H	0.919327	-0.191263	0.628230
H152	H	1.419327	0.308737	1.128230
H153	H	1.641471	-0.139226	0.922065
H154	H	2.141471	0.360774	1.422065
H155	H	1.107490	-0.309245	0.283756
H156	H	1.607490	0.190755	0.783756
H157	H	0.929704	-0.362294	0.390008
H158	H	1.429704	0.137706	0.890008
H159	H	0.933949	-0.312914	0.279690
H160	H	1.433949	0.187086	0.779690
H161	H	1.740476	-0.194232	0.917762
H162	H	2.240476	0.305768	1.417762
H163	H	1.639951	-0.450757	0.627984
H164	H	2.139951	0.049243	1.127984
H165	H	1.639996	-0.549808	0.628050
H166	H	2.139996	-0.049808	1.128050
H167	H	1.707246	-0.701871	0.695343
H168	H	2.207246	-0.201871	1.195343
H169	H	1.707300	-0.800919	0.695387
H170	H	2.207300	-0.300919	1.195387
H171	H	1.640253	-0.953103	0.628185
H172	H	2.140253	-0.453103	1.128185
H173	H	1.396274	-0.450976	0.383966
H174	H	1.896274	0.049024	0.883966
H175	H	1.744603	-0.190543	1.091302
H176	H	2.244603	0.309457	1.591302
H177	H	1.396641	-1.052379	0.384179
H178	H	1.896641	-0.552379	0.884179
H179	H	1.640304	-1.052169	0.628214
H180	H	2.140304	-0.552169	1.128214
H181	H	1.396329	-0.550042	0.383997
H182	H	1.896329	-0.050042	0.883997
H183	H	1.396327	-0.312415	0.906995
H184	H	1.896327	0.187585	1.406995
H185	H	1.396564	-0.953329	0.384157
H186	H	1.896564	-0.453329	0.884157
H187	H	1.329295	-0.801256	0.316872
H188	H	1.829295	-0.301256	0.816872
H189	H	1.329233	-0.702206	0.316850
H190	H	1.829233	-0.202206	0.816850
