data_functionalizedCrystal
_audit_creation_method	'MofGen! by Chris Wilmer'
_symmetry_space_group_name_H-M	'P1'
_symmetry_Int_Tables_number	1
_symmetry_cell_setting	triclinic
loop_
_symmetry_equiv_pos_as_xyz
  x,y,z
_cell_length_a	21.395362
_cell_length_b	16.959454
_cell_length_c	21.395355
_cell_angle_alpha	89.987004
_cell_angle_beta	89.956060
_cell_angle_gamma	90.035955
loop_
_atom_site_label
_atom_site_type_symbol
_atom_site_fract_x
_atom_site_fract_y
_atom_site_fract_z
Zn1	Zn	0.957906	-0.314438	-0.354610
Zn2	Zn	0.957828	-0.446599	-0.249842
Zn3	Zn	0.853121	-0.314475	-0.249811
Zn4	Zn	0.853109	-0.446615	-0.354547
O5	O	0.905491	-0.380532	-0.302202
O6	O	1.045573	-0.331947	-0.340751
O7	O	0.943910	-0.429081	-0.162160
O8	O	0.867058	-0.203859	-0.263726
O9	O	1.045516	-0.429045	-0.263779
O10	O	0.944043	-0.203832	-0.340721
O11	O	0.866982	-0.332010	-0.162137
O12	O	0.765441	-0.332026	-0.263665
O13	O	0.867039	-0.429073	-0.442233
O14	O	0.765433	-0.429109	-0.340614
O15	O	0.944032	-0.331963	-0.442279
O16	O	0.943899	-0.557212	-0.263718
O17	O	0.866963	-0.557224	-0.340645
C18	C	0.742703	-0.380574	-0.302130
C19	C	0.673062	-0.380610	-0.302114
C20	C	0.640361	-0.431228	-0.342121
C21	C	0.574925	-0.431209	-0.342149
C22	C	0.542194	-0.380580	-0.302158
C23	C	0.574903	-0.329952	-0.262148
C24	C	0.640337	-0.329967	-0.262126
C25	C	0.438468	-0.374212	-0.245752
C26	C	0.373035	-0.374203	-0.245774
C27	C	0.340373	-0.380528	-0.302227
C28	C	0.373152	-0.386881	-0.358661
C29	C	0.438586	-0.386896	-0.358639
C30	C	0.471241	-0.380557	-0.302178
C31	C	0.236719	-0.431128	-0.342268
C32	C	0.171283	-0.431103	-0.342297
C33	C	0.171261	-0.329850	-0.262291
C34	C	0.236697	-0.329871	-0.262267
C35	C	0.269422	-0.380514	-0.302255
C36	C	0.905438	-0.585898	-0.302192
C37	C	0.905473	-0.673755	-0.302208
C38	C	0.865488	-1.045266	-0.342254
C39	C	0.945668	-1.045194	-0.262215
C40	C	0.945646	-0.962648	-0.262209
C41	C	0.905544	-0.921407	-0.302226
C42	C	0.865464	-0.962713	-0.342248
C43	C	0.985721	-0.921337	-0.222184
C44	C	0.985700	-0.838786	-0.222176
C45	C	0.945601	-0.797544	-0.262196
C46	C	0.905520	-0.838854	-0.302220
C47	C	0.865418	-0.797613	-0.342236
C48	C	0.825339	-0.838922	-0.382264
C49	C	0.825365	-0.921471	-0.382268
C50	C	0.945575	-0.714995	-0.262192
C51	C	0.865393	-0.715060	-0.342230
C52	C	1.068914	-0.380490	-0.302276
C53	C	1.138555	-0.380473	-0.302307
C54	C	0.905543	-0.380516	-0.465626
C55	C	0.905565	-0.380509	-0.535267
C56	C	0.905561	-0.174363	-0.302227
C57	C	0.905590	-0.086507	-0.302237
C58	C	0.945654	-0.329942	-0.568005
C59	C	0.945653	-0.329908	-0.633441
C60	C	0.905570	-0.380455	-0.666135
C61	C	0.865473	-0.431026	-0.633389
C62	C	0.865471	-0.431053	-0.567955
C63	C	0.900604	-0.451628	-0.769805
C64	C	0.900611	-0.451602	-0.835238
C65	C	0.905574	-0.380371	-0.867956
C66	C	0.910543	-0.309164	-0.835234
C67	C	0.910540	-0.309191	-0.769800
C68	C	0.905568	-0.380431	-0.737088
C69	C	0.945664	-0.329763	-0.971647
C70	C	0.945659	-0.329728	-1.037084
C71	C	0.865482	-0.430853	-1.037031
C72	C	0.865484	-0.430881	-0.971596
C73	C	0.905578	-0.380337	-0.938908
C74	C	0.905475	-0.380491	-0.139415
C75	C	0.905574	-0.380275	-0.069774
H76	H	0.346351	-0.369035	-0.199822
H77	H	0.914585	-0.251161	-0.861872
C78	C	0.135260	-0.274157	-0.218301
N79	N	0.108141	-0.232206	-0.185167
C80	C	0.915997	-0.230864	-0.733807
N81	N	0.920103	-0.171866	-0.706698
C82	C	0.989750	-0.274331	-0.532052
N83	N	1.022962	-0.232441	-0.504971
H84	H	0.465272	-0.392066	-0.404590
H85	H	0.978303	-0.288545	-1.063738
H86	H	0.978307	-0.288603	-0.945031
C87	C	0.821385	-0.486513	-0.935583
N88	N	0.788166	-0.528416	-0.908458
H89	H	0.346560	-0.392030	-0.404632
H90	H	1.018335	-0.805157	-0.189584
H91	H	0.263322	-0.288656	-0.229686
H92	H	1.018365	-0.954921	-0.189600
H93	H	0.832739	-0.681487	-0.374819
C94	C	0.989771	-1.090561	-0.218194
N95	N	1.022991	-1.124735	-0.185034
C96	C	0.989759	-0.274282	-0.669460
N97	N	1.022982	-0.232387	-0.696588
C98	C	0.895145	-0.529932	-0.871226
N99	N	0.891026	-0.588931	-0.898331
H100	H	0.896396	-0.509618	-0.743171
C101	C	0.821391	-0.486457	-1.072992
N102	N	0.788179	-0.528338	-1.100080
H103	H	0.465056	-0.369058	-0.199778
C104	C	0.989660	-0.669559	-0.218165
N105	N	1.022868	-0.635338	-0.185003
H106	H	0.832835	-0.472179	-0.660014
H107	H	0.548295	-0.472428	-0.374730
C108	C	0.272719	-0.486827	-0.386263
N109	N	0.299833	-0.528778	-0.419401
H110	H	0.144659	-0.472321	-0.374880
H111	H	0.832823	-0.472230	-0.541300
H112	H	0.667002	-0.472465	-0.374683
C113	C	0.538896	-0.274260	-0.218158
N114	N	0.511776	-0.232309	-0.185025
C115	C	0.781275	-0.966916	-0.426287
N116	N	0.748064	-1.001150	-0.459439
H117	H	0.666962	-0.288746	-0.229547
H118	H	0.792685	-0.805335	-0.414843
H119	H	0.832859	-1.078904	-0.374845
