data_functionalizedCrystal
_audit_creation_method	'MofGen! by Chris Wilmer'
_symmetry_space_group_name_H-M	'P1'
_symmetry_Int_Tables_number	1
_symmetry_cell_setting	triclinic
loop_
_symmetry_equiv_pos_as_xyz
  x,y,z
_cell_length_a	11.169417
_cell_length_b	16.120444
_cell_length_c	11.169409
_cell_angle_alpha	92.861568
_cell_angle_beta	89.979747
_cell_angle_gamma	92.927659
loop_
_atom_site_label
_atom_site_type_symbol
_atom_site_fract_x
_atom_site_fract_y
_atom_site_fract_z
Zn1	Zn	1.810617	-0.331812	-0.702701
Zn2	Zn	2.310617	0.168188	-0.202701
Zn3	Zn	1.800269	-0.471255	-0.512175
Zn4	Zn	2.300269	0.028745	-0.012175
Zn5	Zn	1.609896	-0.331864	-0.502040
Zn6	Zn	2.109896	0.168136	-0.002040
Zn7	Zn	1.599680	-0.471189	-0.712816
Zn8	Zn	2.099680	0.028811	-0.212816
O9	O	1.705115	-0.401530	-0.607433
O10	O	2.205115	0.098470	-0.107433
O11	O	1.977193	-0.350316	-0.677436
O12	O	2.477193	0.149684	-0.177436
O13	O	1.774960	-0.452814	-0.342884
O14	O	2.274960	0.047186	0.157116
O15	O	1.645128	-0.215191	-0.520184
O16	O	2.145128	0.284809	-0.020184
O17	O	1.969591	-0.452764	-0.537457
O18	O	2.469591	0.047236	-0.037457
O19	O	1.792597	-0.215153	-0.667609
O20	O	2.292597	0.284847	-0.167609
O21	O	1.635094	-0.350404	-0.335438
O22	O	2.135094	0.149596	0.164562
O23	O	1.440592	-0.350339	-0.529992
O24	O	1.940592	0.149661	-0.029992
O25	O	1.627717	-0.452650	-0.879420
O26	O	2.127717	0.047350	-0.379420
O27	O	1.433086	-0.452700	-0.684848
O28	O	1.933086	0.047300	-0.184848
O29	O	1.782691	-0.350251	-0.871989
O30	O	2.282691	0.149749	-0.371989
O31	O	1.765054	-0.587912	-0.547264
O32	O	2.265054	-0.087912	-0.047264
O33	O	1.617682	-0.587863	-0.694675
O34	O	2.117682	-0.087863	-0.194675
C35	C	1.393292	-0.401519	-0.607418
C36	C	1.893292	0.098481	-0.107418
C37	C	1.259890	-0.401534	-0.607442
C38	C	1.759890	0.098466	-0.107442
C39	C	1.689169	-0.618138	-0.623193
C40	C	2.189169	-0.118138	-0.123193
C41	C	1.682457	-0.710803	-0.629975
C42	C	2.182457	-0.210803	-0.129975
C43	C	1.740228	-0.921749	-0.572507
C44	C	2.240228	-0.421749	-0.072507
C45	C	1.670225	-0.880459	-0.642371
C46	C	2.170225	-0.380459	-0.142371
C47	C	1.677033	-0.786054	-0.635472
C48	C	2.177033	-0.286054	-0.135472
C49	C	1.733422	-1.016163	-0.579405
C50	C	2.233422	-0.516163	-0.079405
C51	C	2.018157	-0.401542	-0.607448
C52	C	2.518157	0.098458	-0.107448
C53	C	2.151556	-0.401547	-0.607455
C54	C	2.651556	0.098453	-0.107455
C55	C	1.705218	-0.401438	-0.920469
C56	C	2.205218	0.098562	-0.420469
C57	C	1.705262	-0.401398	-1.053866
C58	C	2.205262	0.098602	-0.553866
C59	C	1.721157	-0.184076	-0.591638
C60	C	2.221157	0.315924	-0.091638
C61	C	1.727992	-0.091411	-0.584907
C62	C	2.227992	0.408589	-0.084907
C63	C	1.705086	-0.401562	-0.295611
C64	C	2.205086	0.098438	0.204389
C65	C	1.705292	-0.401366	-0.162197
C66	C	2.205292	0.098634	0.337803
H67	H	1.605180	-0.916011	-0.707364
H68	H	2.105180	-0.416011	-0.207364
N69	N	1.826379	-0.874660	-0.486421
N70	N	2.326379	-0.374660	0.013579
H71	H	1.780171	-0.838598	-0.428185
H72	H	2.280171	-0.338598	0.071815
H73	H	1.872134	-0.915416	-0.440832
H74	H	2.372134	-0.415416	0.059168
