data_functionalizedCrystal
_audit_creation_method	'MofGen! by Chris Wilmer'
_symmetry_space_group_name_H-M	'P1'
_symmetry_Int_Tables_number	1
_symmetry_cell_setting	triclinic
loop_
_symmetry_equiv_pos_as_xyz
  x,y,z
_cell_length_a	21.295417
_cell_length_b	21.295420
_cell_length_c	21.295412
_cell_angle_alpha	89.983421
_cell_angle_beta	89.968813
_cell_angle_gamma	90.028757
loop_
_atom_site_label
_atom_site_type_symbol
_atom_site_fract_x
_atom_site_fract_y
_atom_site_fract_z
Zn1	Zn	-0.250651	0.962305	-0.355914
Zn2	Zn	0.249349	1.462305	0.144086
Zn3	Zn	-0.355920	0.962222	-0.250639
Zn4	Zn	0.144080	1.462222	0.249361
Zn5	Zn	-0.250666	0.857043	-0.250658
Zn6	Zn	0.249334	1.357043	0.249342
Zn7	Zn	-0.355883	0.856998	-0.355870
Zn8	Zn	0.144117	1.356998	0.144130
O9	O	-0.303280	0.909642	-0.303270
O10	O	0.196720	1.409642	0.196730
O11	O	-0.264625	1.050383	-0.341959
O12	O	0.235375	1.550383	0.158041
O13	O	-0.341980	0.948254	-0.162552
O14	O	0.158020	1.448254	0.337448
O15	O	-0.162574	0.871060	-0.264647
O16	O	0.337426	1.371060	0.235353
O17	O	-0.341966	1.050323	-0.264614
O18	O	0.158034	1.550323	0.235386
O19	O	-0.162564	0.948395	-0.341977
O20	O	0.337436	1.448395	0.158023
O21	O	-0.264650	0.870980	-0.162566
O22	O	0.235350	1.370980	0.337434
O23	O	-0.264614	0.768948	-0.264605
O24	O	0.235386	1.268948	0.235395
O25	O	-0.341902	0.870982	-0.443966
O26	O	0.158098	1.370982	0.056034
O27	O	-0.341916	0.768914	-0.341904
O28	O	0.158084	1.268914	0.158096
O29	O	-0.264589	0.948351	-0.443997
O30	O	0.235411	1.448351	0.056003
O31	O	-0.444005	0.948210	-0.264572
O32	O	0.055995	1.448210	0.235428
O33	O	-0.443977	0.870902	-0.341885
O34	O	0.056023	1.370902	0.158115
C35	C	-0.303263	0.746090	-0.303252
C36	C	0.196737	1.246090	0.196748
C37	C	-0.303271	0.676122	-0.303260
C38	C	0.196729	1.176122	0.196740
C39	C	-0.343606	0.176663	-0.343481
C40	C	0.156394	0.676663	0.156519
C41	C	-0.343606	0.242406	-0.343474
C42	C	0.156394	0.742406	0.156526
C43	C	-0.303294	0.275283	-0.303290
C44	C	0.196706	0.775283	0.196710
C45	C	-0.262991	0.242412	-0.263098
C46	C	0.237009	0.742412	0.236902
C47	C	-0.262996	0.176671	-0.263102
C48	C	0.237004	0.676671	0.236898
N49	N	-0.248178	0.378524	-0.298558
N50	N	0.251822	0.878524	0.201442
N51	N	-0.248174	0.440976	-0.298558
N52	N	0.251826	0.940976	0.201442
C53	C	-0.303277	0.473358	-0.303277
C54	C	0.196723	0.973358	0.196723
N55	N	-0.358384	0.440929	-0.308007
N56	N	0.141616	0.940929	0.191993
N57	N	-0.358386	0.378471	-0.308010
N58	N	0.141614	0.878471	0.191990
C59	C	-0.303284	0.346568	-0.303282
C60	C	0.196716	0.846568	0.196718
C61	C	-0.343581	0.577506	-0.343456
C62	C	0.156419	1.077506	0.156544
C63	C	-0.343582	0.643250	-0.343445
C64	C	0.156418	1.143250	0.156555
C65	C	-0.262962	0.643255	-0.263072
C66	C	0.237038	1.143255	0.236928
C67	C	-0.262966	0.577512	-0.263080
C68	C	0.237034	1.077512	0.236920
C69	C	-0.303275	0.544642	-0.303275
C70	C	0.196725	1.044642	0.196725
C71	C	-0.466832	0.909559	-0.303236
C72	C	0.033168	1.409559	0.196764
C73	C	-0.536800	0.909582	-0.303242
C74	C	-0.036800	1.409582	0.196758
C75	C	-0.569660	0.949872	-0.263026
C76	C	-0.069660	1.449872	0.236974
C77	C	-0.635402	0.949901	-0.263040
C78	C	-0.135402	1.449901	0.236960
C79	C	-0.668282	0.909629	-0.303263
C80	C	-0.168282	1.409629	0.196737
C81	C	-0.635414	0.869337	-0.343487
C82	C	-0.135414	1.369337	0.156513
C83	C	-0.569673	0.869313	-0.343476
C84	C	-0.069673	1.369313	0.156524
N85	N	-0.771546	0.854562	-0.308056
N86	N	-0.271546	1.354562	0.191944
N87	N	-0.833998	0.854586	-0.308063
N88	N	-0.333998	1.354586	0.191937
C89	C	-0.866357	0.909700	-0.303299
C90	C	-0.366357	1.409700	0.196701
N91	N	-0.833905	0.964790	-0.298517
N92	N	-0.333905	1.464790	0.201483
N93	N	-0.771448	0.964764	-0.298507
N94	N	-0.271448	1.464764	0.201493
C95	C	-0.739568	0.909651	-0.303280
C96	C	-0.239568	1.409651	0.196720
C97	C	-0.970503	0.950025	-0.263097
C98	C	-0.470503	1.450025	0.236903
C99	C	-1.036246	0.950056	-0.263116
C100	C	-0.536246	1.450056	0.236884
C101	C	-1.036257	0.869486	-0.343559
C102	C	-0.536257	1.369486	0.156441
C103	C	-0.970515	0.869461	-0.343544
C104	C	-0.470515	1.369461	0.156456
C105	C	-0.937641	0.909730	-0.303309
C106	C	-0.437641	1.409730	0.196691
C107	C	-0.139090	0.909742	-0.303319
C108	C	0.360910	1.409742	0.196681
C109	C	-0.069122	0.909785	-0.303340
C110	C	0.430878	1.409785	0.196660
C111	C	-0.303239	0.909671	-0.467461
C112	C	0.196761	1.409671	0.032539
C113	C	-0.303222	0.909683	-0.537429
C114	C	0.196778	1.409683	-0.037429
C115	C	-0.303298	1.073832	-0.303289
C116	C	0.196702	1.573832	0.196711
C117	C	-0.303305	1.143800	-0.303297
C118	C	0.196695	1.643800	0.196703
C119	C	-0.262865	0.950029	-1.036905
C120	C	0.237135	1.450029	-0.536905
C121	C	-0.262881	0.950024	-0.971162
C122	C	0.237119	1.450024	-0.471162
C123	C	-0.303139	0.909738	-0.938269
C124	C	0.196861	1.409738	-0.438269
C125	C	-0.343397	0.869465	-0.971123
C126	C	0.156603	1.369465	-0.471123
C127	C	-0.343385	0.869476	-1.036864
C128	C	0.156615	1.369476	-0.536864
N129	N	-0.307981	0.854617	-0.835040
N130	N	0.192019	1.354617	-0.335040
N131	N	-0.307989	0.854608	-0.772588
N132	N	0.192011	1.354608	-0.272588
C133	C	-0.303178	0.909705	-0.740194
C134	C	0.196822	1.409705	-0.240194
N135	N	-0.298348	0.964811	-0.772610
N136	N	0.201652	1.464811	-0.272610
N137	N	-0.298337	0.964818	-0.835067
N138	N	0.201663	1.464818	-0.335067
C139	C	-0.303157	0.909722	-0.866983
C140	C	0.196843	1.409722	-0.366983
C141	C	-0.262943	0.949973	-0.636062
C142	C	0.237057	1.449973	-0.136062
C143	C	-0.262963	0.949969	-0.570318
C144	C	0.237037	1.449969	-0.070318
C145	C	-0.343475	0.869404	-0.570280
C146	C	0.156525	1.369404	-0.070280
C147	C	-0.343459	0.869414	-0.636023
C148	C	0.156541	1.369414	-0.136023
C149	C	-0.303189	0.909697	-0.668909
C150	C	0.196811	1.409697	-0.168909
C151	C	-0.303275	0.909649	-0.139719
C152	C	0.196725	1.409649	0.360281
C153	C	-0.303115	0.909759	-0.069751
C154	C	0.196885	1.409759	0.430249
H155	H	-0.376404	0.670006	-0.376166
H156	H	0.123596	1.170006	0.123834
H157	H	-1.063027	0.836698	-0.376312
H158	H	-0.563027	1.336698	0.123688
H159	H	-0.376431	0.149904	-0.376209
H160	H	0.123569	0.649904	0.123791
H161	H	-0.230147	0.550755	-0.230360
H162	H	0.269853	1.050755	0.269640
H163	H	-0.230077	0.982834	-1.063677
H164	H	0.269923	1.482834	-0.563677
H165	H	-0.230153	0.982774	-0.662839
H166	H	0.269847	1.482774	-0.162839
H167	H	-0.230170	0.269184	-0.230379
H168	H	0.269830	0.769184	0.269621
H169	H	-0.943736	0.982817	-0.230338
H170	H	-0.443736	1.482817	0.269662
H171	H	-0.230188	0.982766	-0.543575
H172	H	0.269812	1.482766	-0.043575
H173	H	-0.376176	0.836665	-0.944337
H174	H	0.123824	1.336665	-0.444337
H175	H	-0.230141	0.670022	-0.230351
H176	H	0.269859	1.170022	0.269649
H177	H	-0.230177	0.149914	-0.230379
H178	H	0.269823	0.649914	0.269621
H179	H	-0.662162	0.982713	-0.230292
H180	H	-0.162162	1.482713	0.269708
H181	H	-0.230102	0.982817	-0.944413
H182	H	0.269898	1.482817	-0.444413
H183	H	-0.376162	0.836682	-1.063608
H184	H	0.123838	1.336682	-0.563608
H185	H	-0.376257	0.836605	-0.543499
H186	H	0.123743	1.336605	-0.043499
H187	H	-0.662189	0.836548	-0.376238
H188	H	-0.162189	1.336548	0.123762
H189	H	-0.376232	0.836619	-0.662766
H190	H	0.123768	1.336619	-0.162766
H191	H	-0.376403	0.550742	-0.376184
H192	H	0.123597	1.050742	0.123816
H193	H	-0.943758	0.836650	-0.376288
H194	H	-0.443758	1.336650	0.123712
H195	H	-0.376423	0.269168	-0.376199
H196	H	0.123577	0.769168	0.123801
H197	H	-0.542896	0.982663	-0.230266
H198	H	-0.042896	1.482663	0.269734
H199	H	-0.542918	0.836503	-0.376225
H200	H	-0.042918	1.336503	0.123775
H201	H	-1.063000	0.982869	-0.230368
H202	H	-0.563000	1.482869	0.269632
