data_functionalizedCrystal
_audit_creation_method	'MofGen! by Chris Wilmer'
_symmetry_space_group_name_H-M	'P1'
_symmetry_Int_Tables_number	1
_symmetry_cell_setting	triclinic
loop_
_symmetry_equiv_pos_as_xyz
  x,y,z
_cell_length_a	26.809956
_cell_length_b	10.540539
_cell_length_c	10.540539
_cell_angle_alpha	84.525492
_cell_angle_beta	90.009262
_cell_angle_gamma	89.990288
loop_
_atom_site_label
_atom_site_type_symbol
_atom_site_fract_x
_atom_site_fract_y
_atom_site_fract_z
O1	O	-0.041454	-1.685864	-0.178915
O2	O	-0.041459	-1.316451	-0.195771
O3	O	-0.041456	-1.509585	-0.002636
O4	O	-0.041457	-1.492729	-0.372049
O5	O	0.041504	-1.509616	-0.002601
O6	O	0.041500	-1.316481	-0.195736
O7	O	0.041506	-1.685894	-0.178880
Zn8	Zn	0.054674	-1.501193	-0.187302
Zn9	Zn	-0.054628	-1.501152	-0.187349
O10	O	0.041502	-1.492760	-0.372014
C11	C	0.000019	-1.269163	-0.194489
C12	C	0.000017	-1.128215	-0.190707
N13	N	-0.129224	-1.501125	-0.187371
C14	C	0.000023	-1.508336	0.044684
C15	C	0.000020	-1.504554	0.185632
C16	C	-0.473848	-1.586886	-0.101988
C17	C	-0.682726	-1.586906	-0.101960
O18	O	-0.709729	-1.659814	-0.029414
N19	N	-0.708851	-1.501221	-0.187296
C20	C	-0.682753	-1.415530	-0.272651
O21	O	-0.709767	-1.342658	-0.345243
C22	C	-0.473877	-1.415517	-0.272685
C23	C	-0.447754	-1.501199	-0.187334
C24	C	-0.447726	-1.672562	-0.016646
C25	C	-0.395510	-1.672552	-0.016649
C26	C	-0.369416	-1.586865	-0.101995
C27	C	-0.395538	-1.501188	-0.187338
C28	C	-0.447780	-1.329833	-0.358045
C29	C	-0.395558	-1.329839	-0.358048
C30	C	-0.369435	-1.415522	-0.272698
C31	C	-0.317228	-1.415491	-0.272687
N32	N	-0.291103	-1.501176	-0.187351
C33	C	-0.317197	-1.586863	-0.102005
C34	C	-0.792417	-1.415541	-0.272625
C35	C	-0.844636	-1.415542	-0.272616
C36	C	-0.844605	-1.586921	-0.101926
C37	C	-0.792385	-1.586912	-0.101930
C38	C	-0.766292	-1.501226	-0.187289
C39	C	-0.207539	-1.586834	-0.102018
C40	C	-0.155318	-1.586812	-0.102025
C41	C	-0.155354	-1.415439	-0.272719
C42	C	-0.207570	-1.415456	-0.272708
C43	C	-0.233661	-1.501164	-0.187352
O44	O	-0.290193	-1.342631	-0.345204
O45	O	-0.290174	-1.659743	-0.029443
C46	C	-0.526065	-1.586897	-0.101985
C47	C	-0.552187	-1.501220	-0.187328
C48	C	-0.526093	-1.415533	-0.272674
C49	C	-0.604406	-1.501222	-0.187318
C50	C	-0.630500	-1.586909	-0.101972
C51	C	-0.604375	-1.672594	-0.016636
C52	C	-0.552159	-1.672584	-0.016639
C53	C	-0.552218	-1.329848	-0.358010
C54	C	-0.604434	-1.329864	-0.357999
C55	C	-0.630528	-1.415551	-0.272653
N56	N	0.129270	-1.501229	-0.187270
C57	C	0.000026	-1.733182	-0.180161
C58	C	0.000025	-1.874130	-0.183943
C59	C	0.000211	-0.944788	-0.045790
C60	C	0.000019	-1.091406	-0.049624
C61	C	-0.047355	-1.066525	-0.258623
C62	C	-0.047390	-0.919980	-0.253808
C63	C	0.046951	-0.919526	-0.256638
C64	C	0.047571	-1.066509	-0.257937
C65	C	0.000022	-1.494008	-0.419335
C66	C	0.000022	-1.497790	-0.560283
C67	C	-0.000168	-1.359637	0.369059
C68	C	0.000019	-1.363471	0.222441
C69	C	0.047395	-1.572467	0.247310
C70	C	0.047435	-1.567652	0.393855
C71	C	-0.046905	-1.570487	0.394333
C72	C	-0.047531	-1.571786	0.247351
H73	H	-0.134051	-1.656585	-0.032518
H74	H	-0.865859	-1.656689	-0.032431
Br75	Br	-0.106410	-0.872931	-0.170196
H76	H	-0.082812	-1.524812	0.425870
Br77	Br	0.056711	-1.273816	0.152856
H78	H	-0.468967	-1.742345	0.052853
Br79	Br	0.105984	-1.134624	-0.175098
Br80	Br	-0.050974	-0.840020	-0.422918
Br81	Br	-0.360064	-1.788846	0.099181
Br82	Br	0.106456	-1.484037	0.440888
Br83	Br	-0.052302	-1.743226	0.206971
H84	H	-0.034142	-1.303893	0.397645
Br85	Br	-0.056776	-1.160926	0.039621
H86	H	-0.047222	-1.672391	0.441559
Br87	Br	-0.050308	-1.103816	-0.431299
H88	H	0.033978	-1.134032	0.003813
H89	H	0.049586	-1.669119	0.441824
H90	H	-0.771119	-1.656683	-0.032431
H91	H	-0.374315	-1.260065	-0.427562
H92	H	-0.771175	-1.345762	-0.342137
H93	H	0.082858	-0.887994	-0.210964
Br94	Br	-0.242940	-1.703154	0.013823
Br95	Br	0.047483	-0.840818	-0.426483
H96	H	0.049158	-1.676076	0.224957
H97	H	0.034185	-0.916215	0.009960
Br98	Br	-0.106118	-1.137480	-0.180042
Br99	Br	0.106155	-1.493884	0.176339
H100	H	0.033613	-1.304145	0.399281
H101	H	-0.625629	-1.742360	0.052861
Br102	Br	-0.880082	-1.299234	-0.388431
Br103	Br	-0.483221	-1.213545	-0.473884
Br104	Br	-0.056092	-0.894413	0.046704
Br105	Br	0.052339	-1.106877	-0.429381
Br106	Br	-0.056584	-1.274408	0.151401
H107	H	-0.082578	-1.522095	0.206477
Br108	Br	-0.243020	-1.299152	-0.388527
H109	H	-0.134100	-1.345670	-0.342203
Br110	Br	-0.516714	-1.788872	0.099200
H111	H	-0.625700	-1.260080	-0.427499
H112	H	-0.530976	-1.260072	-0.427511
