data_functionalizedCrystal
_audit_creation_method	'MofGen! by Chris Wilmer'
_symmetry_space_group_name_H-M	'P1'
_symmetry_Int_Tables_number	1
_symmetry_cell_setting	triclinic
loop_
_symmetry_equiv_pos_as_xyz
  x,y,z
_cell_length_a	9.065215
_cell_length_b	14.750779
_cell_length_c	9.065218
_cell_angle_alpha	102.831257
_cell_angle_beta	94.984675
_cell_angle_gamma	102.833014
loop_
_atom_site_label
_atom_site_type_symbol
_atom_site_fract_x
_atom_site_fract_y
_atom_site_fract_z
O1	O	-1.928809	0.079806	0.247916
O2	O	-1.499522	0.079811	0.265668
O3	O	-1.723039	0.079806	0.042149
O4	O	-1.705291	0.079810	0.471435
O5	O	-1.786225	-0.079846	-0.021031
O6	O	-1.562708	-0.079841	0.202489
O7	O	-1.991995	-0.079846	0.184736
Zn8	Zn	-1.787383	-0.105192	0.183582
Zn9	Zn	-1.704133	0.105156	0.266823
O10	O	-1.768477	-0.079841	0.408256
C11	C	-1.476128	-0.000014	0.232374
C12	C	-1.312284	-0.000012	0.227277
N13	N	-1.844210	-0.248748	0.126771
C14	C	-1.488608	-0.600559	0.482222
C15	C	-1.528440	-0.701059	0.442422
C16	C	-1.726407	-0.701026	0.244570
C17	C	-1.686587	-0.600524	0.284348
C18	C	-1.567688	-0.550299	0.403176
C19	C	-1.765667	-0.550263	0.205302
C20	C	-1.725855	-0.449770	0.245083
C21	C	-1.606963	-0.399538	0.363909
C22	C	-1.527876	-0.449805	0.442957
C23	C	-1.884573	-0.600491	0.086482
C24	C	-1.963652	-0.550230	0.007436
C25	C	-1.923834	-0.449735	0.047209
C26	C	-1.804942	-0.399502	0.166036
C27	C	-2.002921	-0.399467	-0.031838
C28	C	-1.963109	-0.298974	0.007943
C29	C	-1.765130	-0.299009	0.205816
C30	C	-1.015388	-0.000018	0.218032
C31	C	-1.179229	-0.000012	0.223132
C32	C	-1.752926	-0.000018	-0.044427
C33	C	-1.747825	-0.000013	-0.208268
N34	N	-1.647318	0.248713	0.323622
C35	C	-1.738590	-0.000015	0.494832
C36	C	-1.743689	-0.000013	0.658676
H37	H	-1.668300	-0.258114	0.302567
N38	N	-1.399630	-0.395621	0.571118
H39	H	-1.317044	-0.353935	0.530311
H40	H	-1.355687	-0.442768	0.615109
H41	H	-1.391778	-0.559664	0.578973
H42	H	-1.574555	-0.317710	0.396302
N43	N	-1.443152	-0.755271	0.527696
H44	H	-1.361796	-0.708201	0.609010
H45	H	-1.393687	-0.796979	0.453798
H46	H	-2.027506	-0.258051	-0.056424
H47	H	-1.823220	-0.741931	0.147822
H48	H	-1.916987	-0.682319	0.054102
N49	N	-2.091891	-0.604411	-0.120718
H50	H	-2.051154	-0.646114	-0.203339
H51	H	-2.135899	-0.557262	-0.164636
N52	N	-2.131169	-0.453650	-0.159981
H53	H	-2.090445	-0.495357	-0.242607
H54	H	-2.175182	-0.406502	-0.203900
