data_functionalizedCrystal
_audit_creation_method	'MofGen! by Chris Wilmer'
_symmetry_space_group_name_H-M	'P1'
_symmetry_Int_Tables_number	1
_symmetry_cell_setting	triclinic
loop_
_symmetry_equiv_pos_as_xyz
  x,y,z
_cell_length_a	17.077404
_cell_length_b	16.625545
_cell_length_c	17.077396
_cell_angle_alpha	90.027926
_cell_angle_beta	90.018362
_cell_angle_gamma	90.023528
loop_
_atom_site_label
_atom_site_type_symbol
_atom_site_fract_x
_atom_site_fract_y
_atom_site_fract_z
Zn1	Zn	1.200040	-0.321045	0.443822
Zn2	Zn	1.700040	0.178955	0.943822
Zn3	Zn	1.199941	-0.455888	0.312557
Zn4	Zn	1.699941	0.044112	0.812557
Zn5	Zn	1.068772	-0.321068	0.312572
Zn6	Zn	1.568772	0.178932	0.812572
Zn7	Zn	1.068734	-0.455835	0.443783
Zn8	Zn	1.568734	0.044165	0.943783
O9	O	1.134372	-0.388459	0.378184
O10	O	1.634372	0.111541	0.878184
O11	O	1.309874	-0.338945	0.426419
O12	O	1.809874	0.161055	0.926419
O13	O	1.182516	-0.438036	0.202712
O14	O	1.682516	0.061964	0.702712
O15	O	1.086242	-0.208233	0.330005
O16	O	1.586242	0.291767	0.830005
O17	O	1.309801	-0.438013	0.329979
O18	O	1.809801	0.061987	0.829979
O19	O	1.182684	-0.208216	0.426434
O20	O	1.682684	0.291784	0.926434
O21	O	1.086146	-0.338984	0.202723
O22	O	1.586146	0.161016	0.702723
O23	O	0.958920	-0.338933	0.329968
O24	O	1.458920	0.161067	0.829968
O25	O	1.086177	-0.437923	0.553635
O26	O	1.586177	0.062077	1.053635
O27	O	0.958892	-0.437945	0.426368
O28	O	1.458892	0.062055	0.926368
O29	O	1.182647	-0.338894	0.553664
O30	O	1.682647	0.161106	1.053664
O31	O	1.182479	-0.568713	0.329942
O32	O	1.682479	-0.068713	0.829942
O33	O	1.086081	-0.568674	0.426353
O34	O	1.586081	-0.068674	0.926353
C35	C	0.930424	-0.388436	0.378166
C36	C	1.430424	0.111564	0.878166
C37	C	0.843174	-0.388446	0.378177
C38	C	1.343174	0.111554	0.878177
C39	C	0.802222	-0.336953	0.428470
C40	C	1.302222	0.163047	0.928470
C41	C	0.720242	-0.336958	0.428474
C42	C	1.220242	0.163042	0.928474
C43	C	0.679215	-0.388461	0.378188
C44	C	1.179215	0.111539	0.878188
C45	C	0.720172	-0.439956	0.327889
C46	C	1.220172	0.060044	0.827889
C47	C	0.802151	-0.439947	0.327882
C48	C	1.302151	0.060053	0.827882
C49	C	0.549302	-0.439975	0.327909
C50	C	1.049302	0.060025	0.827909
C51	C	0.467317	-0.439986	0.327917
C52	C	0.967317	0.060014	0.827917
C53	C	0.467393	-0.336986	0.428500
C54	C	0.967393	0.163014	0.928500
C55	C	0.549372	-0.336976	0.428493
C56	C	1.049372	0.163024	0.928493
C57	C	0.590324	-0.388473	0.378196
C58	C	1.090324	0.111527	0.878196
C59	C	1.134286	-0.597950	0.378159
C60	C	1.634286	-0.097950	0.878159
C61	C	1.134322	-0.687571	0.378175
C62	C	1.634322	-0.187571	0.878175
C63	C	1.134352	-0.760354	0.378190
C64	C	1.634352	-0.260354	0.878190
C65	C	1.134398	-0.851662	0.378208
C66	C	1.634398	-0.351662	0.878208
C67	C	1.134439	-0.924438	0.378218
C68	C	1.634439	-0.424438	0.878218
C69	C	1.134483	-1.015753	0.378234
C70	C	1.634483	-0.515753	0.878234
C71	C	1.339116	-0.388483	0.378202
C72	C	1.839116	0.111517	0.878202
C73	C	1.426366	-0.388493	0.378210
C74	C	1.926366	0.111507	0.878210
C75	C	1.134419	-0.388400	0.582928
C76	C	1.634419	0.111600	1.082928
C77	C	1.134439	-0.388374	0.670178
C78	C	1.634439	0.111626	1.170178
C79	C	1.134479	-0.178150	0.378226
C80	C	1.634479	0.321850	0.878226
C81	C	1.134524	-0.088529	0.378244
C82	C	1.634524	0.411471	0.878244
C83	C	1.134370	-0.388460	0.174236
C84	C	1.634370	0.111540	0.674236
C85	C	1.134501	-0.388258	0.086986
C86	C	1.634501	0.111742	0.586986
C87	C	1.184673	-0.336806	0.711184
C88	C	1.684673	0.163194	1.211184
C89	C	1.184683	-0.336779	0.793165
C90	C	1.684683	0.163221	1.293165
C91	C	1.134462	-0.388325	0.834137
C92	C	1.634462	0.111675	1.334137
C93	C	1.084222	-0.439897	0.793125
C94	C	1.584222	0.060103	1.293125
C95	C	1.084209	-0.439919	0.711146
C96	C	1.584209	0.060081	1.211146
C97	C	1.084254	-0.439848	0.963996
C98	C	1.584254	0.060152	1.463996
C99	C	1.084268	-0.439827	1.045980
C100	C	1.584268	0.060173	1.545980
C101	C	1.184727	-0.336708	1.046014
C102	C	1.684727	0.163292	1.546014
C103	C	1.184714	-0.336730	0.964035
C104	C	1.684714	0.163270	1.464035
C105	C	1.134476	-0.388303	0.923028
C106	C	1.634476	0.111697	1.423028
H107	H	0.686903	-0.295029	0.469429
H108	H	1.186903	0.204971	0.969429
H109	H	0.835492	-0.481877	0.286928
H110	H	1.335492	0.018123	0.786928
Cl111	Cl	1.021123	-0.504621	1.097488
Cl112	Cl	1.521123	-0.004621	1.597488
H113	H	1.043332	-0.481831	0.930611
H114	H	1.543332	0.018169	1.430611
Cl115	Cl	1.247816	-0.272004	0.659683
Cl116	Cl	1.747816	0.227996	1.159683
H117	H	0.582642	-0.481907	0.286949
H118	H	1.082642	0.018093	0.786949
H119	H	1.225613	-0.294761	0.930677
H120	H	1.725613	0.205239	1.430677
H121	H	0.582774	-0.295043	0.469445
H122	H	1.082774	0.204957	0.969445
Cl123	Cl	0.415741	-0.504753	0.264718
Cl124	Cl	0.915741	-0.004753	0.764718
Cl125	Cl	1.021084	-0.504696	0.844634
Cl126	Cl	1.521084	-0.004696	1.344634
Cl127	Cl	1.247885	-0.271875	1.097564
Cl128	Cl	1.747885	0.228125	1.597564
H129	H	0.686761	-0.481887	0.286942
H130	H	1.186761	0.018113	0.786942
Cl131	Cl	0.415912	-0.272245	0.491729
Cl132	Cl	0.915912	0.227755	0.991729
H133	H	1.043296	-0.481903	0.677760
H134	H	1.543296	0.018097	1.177760
H135	H	1.225590	-0.294788	0.826548
H136	H	1.725590	0.205212	1.326548
H137	H	0.835621	-0.295015	0.469421
H138	H	1.335621	0.204985	0.969421
