data_functionalizedCrystal
_audit_creation_method	'MofGen! by Chris Wilmer'
_symmetry_space_group_name_H-M	'P1'
_symmetry_Int_Tables_number	1
_symmetry_cell_setting	triclinic
loop_
_symmetry_equiv_pos_as_xyz
  x,y,z
_cell_length_a	19.288864
_cell_length_b	14.519709
_cell_length_c	17.766277
_cell_angle_alpha	89.992699
_cell_angle_beta	89.976791
_cell_angle_gamma	83.408195
loop_
_atom_site_label
_atom_site_type_symbol
_atom_site_fract_x
_atom_site_fract_y
_atom_site_fract_z
O1	O	0.921767	0.115045	-0.062837
O2	O	0.719562	0.130564	-0.062786
O3	O	0.826026	-0.011468	-0.062806
O4	O	0.815304	0.257077	-0.062817
O5	O	0.826007	-0.011475	0.062382
O6	O	0.719544	0.130557	0.062402
O7	O	0.921748	0.115038	0.062351
Cu8	Cu	0.820644	0.122797	0.073808
Cu9	Cu	0.820666	0.122805	-0.074242
O10	O	0.815285	0.257070	0.062371
C11	C	0.693675	0.130061	-0.000185
C12	C	0.616566	0.128562	-0.000165
C13	C	0.572169	0.211900	-0.000181
C14	C	0.499717	0.210492	-0.000189
C15	C	0.471665	0.125741	-0.000197
C16	C	0.516071	0.042392	-0.000178
C17	C	0.588521	0.043803	-0.000162
C18	C	0.363169	0.059120	-0.044079
C19	C	0.290720	0.057713	-0.044099
C20	C	0.248203	0.121387	-0.000242
C21	C	0.278144	0.186483	0.043625
C22	C	0.350594	0.187894	0.043641
C23	C	0.393105	0.124202	-0.000214
C24	C	0.125246	0.203203	-0.000265
C25	C	0.052792	0.201792	-0.000269
C26	C	0.069148	0.033689	-0.000265
C27	C	0.141599	0.035103	-0.000254
C28	C	0.169644	0.119863	-0.000258
C29	C	0.825517	-0.045828	-0.000212
C30	C	0.824019	-0.148200	-0.000211
C31	C	0.818507	-0.523061	-0.000229
C32	C	0.820037	-0.418762	-0.000224
C33	C	0.821263	-0.335633	-0.000219
C34	C	0.822794	-0.231329	-0.000215
C35	C	0.947636	0.115541	-0.000251
C36	C	1.024745	0.117040	-0.000276
C37	C	0.815794	0.291430	-0.000225
C38	C	0.817291	0.393802	-0.000230
N39	N	0.820634	0.122790	0.177938
N40	N	0.820682	0.122805	-0.178373
C41	C	0.867791	0.059929	0.217316
C42	C	0.867795	0.059925	0.296118
C43	C	0.820648	0.122798	0.335538
C44	C	0.773482	0.185664	0.296151
C45	C	0.773475	0.185660	0.217351
C46	C	0.811652	0.206826	0.460375
C47	C	0.811664	0.206831	0.539173
C48	C	0.820667	0.122809	0.578585
C49	C	0.829672	0.038778	0.539188
C50	C	0.829665	0.038775	0.460387
C51	C	0.820651	0.122808	0.420984
C52	C	0.867831	0.059938	0.703409
C53	C	0.867830	0.059932	0.782212
C54	C	0.773521	0.185679	0.782244
C55	C	0.773518	0.185676	0.703442
C56	C	0.820677	0.122807	0.664029
H57	H	0.397781	0.007267	-0.079797
H58	H	0.804336	0.275253	0.571244
H59	H	0.243528	0.238332	0.079338
C60	C	0.004703	0.292378	-0.000322
C61	C	0.044774	0.366903	-0.000342
C62	C	0.000497	0.450366	-0.000401
H63	H	-0.023938	0.295456	0.043318
H64	H	-0.023868	0.295370	-0.044000
H65	H	0.073333	0.363913	0.043332
H66	H	0.073413	0.363856	-0.043978
H67	H	-0.028073	0.453358	-0.044079
H68	H	-0.028141	0.453435	0.043239
H69	H	0.027679	0.500941	-0.000422
H70	H	0.266348	0.004711	-0.079822
C71	C	0.485712	-0.049691	-0.000307
C72	C	0.508322	-0.100062	-0.064697
C73	C	0.480378	-0.184901	-0.064833
H74	H	0.436207	-0.038728	-0.000359
H75	H	0.500939	-0.084047	0.043331
H76	H	0.493091	-0.065714	-0.108324
H77	H	0.557823	-0.111050	-0.064658
H78	H	0.495605	-0.219256	-0.021195
H79	H	0.430874	-0.173928	-0.064884
H80	H	0.495720	-0.219091	-0.108517
H81	H	0.624670	-0.024063	-0.000150
C82	C	0.722218	0.253837	0.824993
C83	C	0.653949	0.239093	0.805876
C84	C	0.606668	0.301853	0.845253
H85	H	0.729740	0.315402	0.812099
H86	H	0.728927	0.244832	0.877572
H87	H	0.647243	0.248105	0.753310
H88	H	0.646405	0.177540	0.818773
H89	H	0.613376	0.292849	0.897831
H90	H	0.614196	0.363414	0.832356
H91	H	0.560342	0.291853	0.832293
H92	H	0.463563	0.278358	-0.000199
H93	H	0.906189	0.008735	0.185228
C94	C	0.919072	-0.008374	0.338747
C95	C	0.960377	-0.063422	0.287365
C96	C	1.007623	-0.126342	0.326604
H97	H	0.894122	-0.046765	0.369508
H98	H	0.948063	0.024682	0.369452
H99	H	0.931389	-0.096476	0.256673
H100	H	0.985341	-0.025056	0.256602
H101	H	1.036615	-0.093286	0.357309
H102	H	0.982668	-0.164727	0.357364
H103	H	1.035659	-0.163694	0.291748
H104	H	0.804309	0.275251	0.428292
H105	H	0.836996	-0.029646	0.428314
C106	C	0.722260	0.253779	0.339045
C107	C	0.679704	0.204796	0.384331
C108	C	0.632513	0.267512	0.423862
H109	H	0.694104	0.291246	0.304391
H110	H	0.747276	0.292075	0.369807
H111	H	0.654690	0.166517	0.353571
H112	H	0.707841	0.167333	0.418999
H113	H	0.657528	0.305807	0.454625
H114	H	0.604362	0.304975	0.389203
H115	H	0.603637	0.234286	0.454599
C116	C	0.722245	0.254021	0.174729
C117	C	0.680964	0.309098	0.226113
C118	C	0.633771	0.372092	0.186876
H119	H	0.693226	0.221051	0.144003
H120	H	0.747258	0.292378	0.143989
H121	H	0.655953	0.270746	0.256841
H122	H	0.709964	0.342088	0.256840
H123	H	0.658784	0.410449	0.156136
H124	H	0.604758	0.339114	0.156152
H125	H	0.605761	0.409475	0.221735
H126	H	0.046308	-0.035317	-0.000319
H127	H	0.735121	0.236867	0.671378
C128	C	0.839303	-0.052436	0.582000
C129	C	0.780715	-0.059564	0.627254
C130	C	0.789562	-0.143581	0.666696
H131	H	0.879708	-0.054533	0.612782
H132	H	0.844631	-0.102501	0.547270
H133	H	0.775396	-0.009513	0.661979
H134	H	0.740303	-0.057484	0.596491
H135	H	0.794889	-0.193646	0.631966
H136	H	0.829968	-0.145670	0.697473
H137	H	0.749809	-0.148433	0.697400
C138	C	0.602482	0.304017	-0.000137
C139	C	0.548088	0.376700	-0.000131
C140	C	0.575987	0.461571	-0.000078
H141	H	0.630421	0.308198	-0.043773
H142	H	0.630359	0.308109	0.043545
H143	H	0.520223	0.372610	-0.043808
H144	H	0.520145	0.372550	0.043502
H145	H	0.603864	0.465663	0.043603
H146	H	0.603926	0.465742	-0.043715
H147	H	0.539086	0.510896	-0.000067
H148	H	0.906229	0.008743	0.671318
C149	C	0.155741	0.295195	-0.000411
C150	C	0.196877	0.300936	-0.064819
C151	C	0.224972	0.385669	-0.064980
H152	H	0.183690	0.299321	0.043200
H153	H	0.118941	0.344658	-0.000454
H154	H	0.233672	0.251486	-0.064768
H155	H	0.168944	0.296826	-0.108439
H156	H	0.188172	0.435131	-0.065024
H157	H	0.252917	0.389787	-0.021367
H158	H	0.252880	0.389578	-0.108684
C159	C	0.382973	0.258599	0.091351
C160	C	0.330241	0.314050	0.129773
C161	C	0.360043	0.379183	0.173742
H162	H	0.407627	0.296479	0.059816
H163	H	0.414300	0.227282	0.126662
H164	H	0.298926	0.345366	0.094467
H165	H	0.305583	0.276197	0.161322
H166	H	0.391370	0.347866	0.209053
H167	H	0.384696	0.417056	0.142201
H168	H	0.324270	0.416809	0.199821
H169	H	0.906230	0.008738	0.814274
C170	C	0.189690	-0.055480	-0.000285
C171	C	0.149619	-0.130005	-0.000313
C172	C	0.193897	-0.213468	-0.000349
H173	H	0.218285	-0.058558	0.043365
H174	H	0.218307	-0.058470	-0.043953
H175	H	0.121015	-0.127016	0.043350
H176	H	0.121026	-0.126957	-0.043960
H177	H	0.222513	-0.216458	-0.044017
H178	H	0.222490	-0.216537	0.043301
H179	H	0.166715	-0.264043	-0.000375
