data_functionalizedCrystal
_audit_creation_method	'MofGen! by Chris Wilmer'
_symmetry_space_group_name_H-M	'P1'
_symmetry_Int_Tables_number	1
_symmetry_cell_setting	triclinic
loop_
_symmetry_equiv_pos_as_xyz
  x,y,z
_cell_length_a	10.654545
_cell_length_b	10.654550
_cell_length_c	9.730223
_cell_angle_alpha	89.996763
_cell_angle_beta	89.997167
_cell_angle_gamma	84.483991
loop_
_atom_site_label
_atom_site_type_symbol
_atom_site_fract_x
_atom_site_fract_y
_atom_site_fract_z
O1	O	1.667842	0.176372	-0.114272
O2	O	1.302363	0.193184	-0.114278
O3	O	1.493506	0.002038	-0.114270
O4	O	1.476700	0.367517	-0.114280
O5	O	1.493493	0.002033	0.114310
O6	O	1.302351	0.193178	0.114302
O7	O	1.667830	0.176366	0.114308
Zn8	Zn	1.485088	0.184771	0.150597
Zn9	Zn	1.485105	0.184778	-0.150567
O10	O	1.476687	0.367512	0.114300
C11	C	1.255559	0.191948	0.000011
C12	C	1.116115	0.188258	0.000009
C13	C	1.050604	0.186518	0.124609
C14	C	0.919585	0.183031	0.124609
C15	C	0.919599	0.183028	-0.124601
C16	C	1.050617	0.186507	-0.124600
C17	C	1.492266	-0.044762	0.000018
C18	C	1.488574	-0.184206	0.000014
C19	C	1.601115	-0.263693	0.000019
C20	C	1.597639	-0.394714	0.000010
C21	C	1.369069	-0.366747	-0.000006
C22	C	1.372547	-0.235729	-0.000006
C23	C	1.717142	-0.212170	0.000039
C24	C	1.829693	-0.291659	0.000046
C25	C	1.826217	-0.422680	0.000037
C26	C	1.710189	-0.474212	0.000020
C27	C	1.714634	0.177602	0.000015
C28	C	1.854078	0.181292	0.000008
C29	C	1.477927	0.414312	0.000008
C30	C	1.481619	0.553755	0.000004
N31	N	1.485086	0.184766	0.356133
N32	N	1.485117	0.184774	-0.356104
C33	C	1.569753	0.100163	0.428063
C34	C	1.569766	0.100163	0.571946
C35	C	1.400440	0.269381	0.571957
C36	C	1.400423	0.269374	0.428077
H37	H	0.866251	0.181614	0.226071
H38	H	1.274605	-0.408715	-0.000018
O39	O	1.318299	0.351740	0.358259
C40	C	1.246537	0.569434	0.314275
C41	C	1.339630	0.476305	0.393403
H42	H	1.263733	0.670164	0.342681
H43	H	1.261063	0.555002	0.199066
H44	H	1.145822	0.552068	0.342572
H45	H	1.440381	0.493614	0.365222
H46	H	1.324994	0.490759	0.508593
O47	O	1.942473	-0.241756	0.000237
C48	C	2.138858	-0.225524	0.118701
C49	C	2.011189	-0.282141	0.118645
H50	H	2.194440	-0.258132	0.214439
H51	H	2.194621	-0.258209	0.023105
H52	H	2.121986	-0.118230	0.118641
H53	H	2.027946	-0.389437	0.118755
H54	H	1.955467	-0.249357	0.214233
O55	O	1.935626	-0.499766	-0.000146
C56	C	2.129901	-0.563792	-0.118592
C57	C	2.006052	-0.476404	-0.118548
H58	H	2.186863	-0.544953	-0.214324
H59	H	2.187016	-0.544918	-0.022990
H60	H	2.107462	-0.666277	-0.118534
H61	H	2.028376	-0.373889	-0.118655
H62	H	1.948972	-0.495386	-0.214142
O63	O	1.114045	0.188145	0.245772
C64	C	1.100189	0.187839	0.492954
C65	C	1.028195	0.185970	0.355833
H66	H	1.030807	0.186108	0.581974
H67	H	1.172231	0.101708	0.499280
H68	H	1.150830	0.277185	0.499112
H69	H	0.977479	0.096682	0.349583
H70	H	0.956225	0.272161	0.349565
H71	H	1.103958	0.187920	-0.226070
O72	O	1.651961	0.017810	0.641666
C73	C	1.723630	-0.199888	0.685757
C74	C	1.630490	-0.106757	0.606691
H75	H	1.706285	-0.300621	0.657530
H76	H	1.824380	-0.182687	0.657420
H77	H	1.709119	-0.185293	0.800944
H78	H	1.644886	-0.121297	0.491486
H79	H	1.529773	-0.123981	0.635142
H80	H	1.331511	0.338269	0.630548
O81	O	0.855883	0.181562	-0.245603
C82	C	0.694623	0.286217	-0.390194
C83	C	0.766702	0.288042	-0.253124
H84	H	0.622487	0.372283	-0.396308
H85	H	0.763886	0.288136	-0.479307
H86	H	0.644076	0.196816	-0.396402
H87	H	0.817253	0.377429	-0.246782
H88	H	0.697380	0.286056	-0.164076
H89	H	1.707368	-0.580899	-0.000003
H90	H	1.280905	-0.171007	-0.000009
H91	H	1.719986	-0.105488	0.000051
H92	H	1.638690	0.031268	0.369490
