data_functionalizedCrystal
_audit_creation_method	'MofGen! by Chris Wilmer'
_symmetry_space_group_name_H-M	'P1'
_symmetry_Int_Tables_number	1
_symmetry_cell_setting	triclinic
loop_
_symmetry_equiv_pos_as_xyz
  x,y,z
_cell_length_a	12.827893
_cell_length_b	12.827892
_cell_length_c	12.827885
_cell_angle_alpha	89.970214
_cell_angle_beta	89.980728
_cell_angle_gamma	90.015553
loop_
_atom_site_label
_atom_site_type_symbol
_atom_site_fract_x
_atom_site_fract_y
_atom_site_fract_z
Zn1	Zn	1.597670	-0.415978	-0.590849
Zn2	Zn	2.097670	0.084022	-0.090849
Zn3	Zn	1.597564	-0.590755	-0.416109
Zn4	Zn	2.097564	-0.090755	0.083891
Zn5	Zn	1.422911	-0.416029	-0.416122
Zn6	Zn	1.922911	0.083971	0.083878
Zn7	Zn	1.422896	-0.590678	-0.590809
Zn8	Zn	1.922896	-0.090678	-0.090809
O9	O	1.510260	-0.503360	-0.503472
O10	O	2.010260	-0.003360	-0.003472
O11	O	1.743892	-0.439173	-0.567680
O12	O	2.243892	0.060827	-0.067680
O13	O	1.574357	-0.567631	-0.269875
O14	O	2.074357	-0.067631	0.230125
O15	O	1.446144	-0.269787	-0.439322
O16	O	1.946144	0.230213	0.060678
O17	O	1.743814	-0.567582	-0.439300
O18	O	2.243814	-0.067582	0.060700
O19	O	1.574538	-0.269749	-0.567693
O20	O	2.074538	0.230251	-0.067693
O21	O	1.446041	-0.439261	-0.269884
O22	O	1.946041	0.060739	0.230116
O23	O	1.276673	-0.439186	-0.439284
O24	O	1.776673	0.060814	0.060716
O25	O	1.446118	-0.567450	-0.737050
O26	O	1.946118	-0.067450	-0.237050
O27	O	1.276662	-0.567500	-0.567625
O28	O	1.776662	-0.067500	-0.067625
O29	O	1.574524	-0.439098	-0.737080
O30	O	2.074524	0.060902	-0.237080
O31	O	1.574343	-0.736981	-0.439261
O32	O	2.074343	-0.236981	0.060739
O33	O	1.446016	-0.736924	-0.567612
O34	O	1.946016	-0.236924	-0.067612
C35	C	1.238750	-0.503341	-0.503452
C36	C	1.738750	-0.003341	-0.003452
C37	C	1.122597	-0.503358	-0.503469
C38	C	1.622597	-0.003358	-0.003469
C39	C	1.070851	-0.439930	-0.567094
C40	C	1.570851	0.060070	-0.067094
C41	C	0.950800	-0.439946	-0.567113
C42	C	1.450800	0.060054	-0.067113
C43	C	1.510195	-0.774870	-0.503454
C44	C	2.010195	-0.274870	-0.003454
C45	C	1.510262	-0.891023	-0.503481
C46	C	2.010262	-0.391023	-0.003481
C47	C	1.573838	-0.942801	-0.440039
C48	C	2.073838	-0.442801	0.059961
C49	C	1.573910	-1.062852	-0.440066
C50	C	2.073910	-0.562852	0.059934
C51	C	1.782830	-0.503380	-0.503493
C52	C	2.282830	-0.003380	-0.003493
C53	C	1.898983	-0.503389	-0.503502
C54	C	2.398983	-0.003389	-0.003502
C55	C	1.510331	-0.503260	-0.776043
C56	C	2.010331	-0.003260	-0.276043
C57	C	1.510362	-0.503217	-0.892196
C58	C	2.010362	-0.003217	-0.392196
C59	C	1.510354	-0.230790	-0.503514
C60	C	2.010354	0.269210	-0.003514
C61	C	1.510394	-0.114637	-0.503531
C62	C	2.010394	0.385363	-0.003531
C63	C	1.573907	-0.439692	-0.943995
C64	C	2.073907	0.060308	-0.443995
C65	C	1.573940	-0.439647	-1.064045
C66	C	2.073940	0.060353	-0.564045
C67	C	1.510249	-0.503385	-0.231962
C68	C	2.010249	-0.003385	0.268038
C69	C	1.510422	-0.503133	-0.115810
C70	C	2.010422	-0.003133	0.384190
H71	H	0.943477	-0.557700	-0.449032
H72	H	1.443477	-0.057700	0.050968
H73	H	1.455975	-0.557562	-0.936725
H74	H	1.955975	-0.057562	-0.436725
C75	C	0.827999	-0.425724	-0.707609
C76	C	1.327999	0.074276	-0.207609
C77	C	0.890733	-0.366636	-0.640653
C78	C	1.390733	0.133364	-0.140653
H79	H	0.790910	-0.380462	-0.753006
H80	H	1.290910	0.119538	-0.253006
H81	H	0.870595	-0.471246	-0.747534
H82	H	1.370595	0.028754	-0.247534
H83	H	0.779933	-0.465526	-0.667691
H84	H	1.279933	0.034474	-0.167691
H85	H	0.938804	-0.326840	-0.680570
H86	H	1.438804	0.173160	-0.180570
H87	H	0.848133	-0.321096	-0.600724
H88	H	1.348133	0.178904	-0.100724
C89	C	1.238295	-0.380783	-0.626370
C90	C	1.738295	0.119217	-0.126370
C91	C	1.131014	-0.366604	-0.640618
C92	C	1.631014	0.133396	-0.140618
H93	H	1.275433	-0.335516	-0.671768
H94	H	1.775433	0.164484	-0.171768
H95	H	1.256092	-0.365416	-0.556172
H96	H	1.756092	0.134584	-0.056172
H97	H	1.256119	-0.451032	-0.641526
H98	H	1.756119	0.048968	-0.141526
H99	H	1.113190	-0.296357	-0.625455
H100	H	1.613190	0.203643	-0.125455
H101	H	1.113210	-0.381964	-0.710832
H102	H	1.613210	0.118036	-0.210832
H103	H	1.628220	-0.898256	-0.385708
H104	H	2.128220	-0.398256	0.114292
C105	C	1.624885	-0.262715	-1.097870
C106	C	2.124885	0.237285	-0.597870
C107	C	1.647390	-0.366220	-1.124167
C108	C	2.147390	0.133780	-0.624167
H109	H	1.670236	-0.217385	-1.134984
H110	H	2.170236	0.282615	-0.634984
H111	H	1.554674	-0.247434	-1.115712
H112	H	2.054674	0.252566	-0.615712
H113	H	1.634498	-0.253128	-1.025080
H114	H	2.134498	0.246872	-0.525080
H115	H	1.637769	-0.375809	-1.196956
H116	H	2.137769	0.124191	-0.696956
H117	H	1.717617	-0.381506	-1.106332
H118	H	2.217617	0.118494	-0.606332
H119	H	1.628336	-1.107380	-0.385748
H120	H	2.128336	-0.607380	0.114252
C121	C	1.495939	-0.643631	-0.992920
C122	C	1.995939	-0.143631	-0.492920
C123	C	1.436974	-0.576559	-1.055684
C124	C	1.936974	-0.076559	-0.555684
H125	H	1.450594	-0.688956	-0.955791
H126	H	1.950594	-0.188956	-0.455791
H127	H	1.541415	-0.683628	-1.035501
H128	H	2.041415	-0.183628	-0.535501
H129	H	1.535783	-0.603793	-0.944890
H130	H	2.035783	-0.103793	-0.444890
H131	H	1.397136	-0.616397	-1.103719
H132	H	1.897136	-0.116397	-0.603719
H133	H	1.391480	-0.536559	-1.013100
H134	H	1.891480	-0.036559	-0.513100
H135	H	1.078022	-0.557670	-0.449008
H136	H	1.578022	-0.057670	0.050992
H137	H	1.455890	-0.935571	-0.557819
H138	H	1.955890	-0.435571	-0.057819
C139	C	1.495838	-0.991686	-0.643952
C140	C	1.995838	-0.491686	-0.143952
C141	C	1.436911	-1.054542	-0.576865
C142	C	1.936911	-0.554542	-0.076865
H143	H	1.450471	-0.954586	-0.689228
H144	H	1.950471	-0.454586	-0.189228
H145	H	1.535665	-0.943640	-0.604129
H146	H	2.035665	-0.443640	-0.104129
H147	H	1.541331	-1.034208	-0.684008
H148	H	2.041331	-0.534208	-0.184008
H149	H	1.391423	-1.012019	-0.536803
H150	H	1.891423	-0.512019	-0.036803
H151	H	1.397066	-1.102594	-0.616692
H152	H	1.897066	-0.602594	-0.116692
H153	H	1.628283	-0.385336	-0.899465
H154	H	2.128283	0.114664	-0.399465
