data_functionalizedCrystal
_audit_creation_method	'MofGen! by Chris Wilmer'
_symmetry_space_group_name_H-M	'P1'
_symmetry_Int_Tables_number	1
_symmetry_cell_setting	triclinic
loop_
_symmetry_equiv_pos_as_xyz
  x,y,z
_cell_length_a	8.497374
_cell_length_b	19.077147
_cell_length_c	19.077105
_cell_angle_alpha	85.497212
_cell_angle_beta	92.300019
_cell_angle_gamma	87.701482
loop_
_atom_site_label
_atom_site_type_symbol
_atom_site_fract_x
_atom_site_fract_y
_atom_site_fract_z
Zn1	Zn	1.019282	-0.324157	1.089006
Zn2	Zn	0.766561	-0.442014	1.093732
Zn3	Zn	0.744470	-0.319401	0.971150
Zn4	Zn	1.019253	-0.437264	0.975864
O5	O	0.887391	-0.380709	1.032438
O6	O	0.995015	-0.343769	1.188284
O7	O	0.542869	-0.425747	1.077476
O8	O	0.771691	-0.221382	0.982833
O9	O	0.809342	-0.430359	1.191756
O10	O	0.973594	-0.224876	1.069422
O11	O	0.526638	-0.335664	0.987415
O12	O	0.771663	-0.331057	0.873124
O13	O	1.240019	-0.422262	0.990868
O14	O	0.973545	-0.417651	0.876588
O15	O	1.240040	-0.339163	1.073993
O16	O	0.809314	-0.540034	1.082047
O17	O	0.994966	-0.536544	0.995450
C18	C	0.870205	-0.373323	0.849277
C19	C	0.862892	-0.370180	0.770920
C20	C	0.904570	-0.563868	1.039792
C21	C	0.911978	-0.642227	1.043003
C22	C	0.964413	-0.413856	0.735933
C23	C	0.957548	-0.410894	0.662308
C24	C	0.849153	-0.364259	0.623673
C25	C	0.747627	-0.320578	0.658665
C26	C	0.754501	-0.323537	0.732288
C27	C	0.817347	-0.350563	0.403287
C28	C	0.810478	-0.347609	0.329659
C29	C	1.020401	-0.437924	0.333307
C30	C	1.027259	-0.440882	0.406932
C31	C	0.925739	-0.397199	0.441918
N32	N	0.842130	-0.361231	0.548417
N33	N	0.932771	-0.400223	0.517172
C34	C	1.298871	-0.380710	1.032433
C35	C	1.477516	-0.380717	1.032435
C36	C	0.904646	-0.388124	1.216314
C37	C	0.911999	-0.391284	1.294672
C38	C	0.870182	-0.196835	1.025074
C39	C	0.862848	-0.118479	1.021936
C40	C	0.964525	-0.083485	1.065539
C41	C	0.957629	-0.009861	1.062586
C42	C	0.849063	0.028767	1.016028
C43	C	0.747376	-0.006232	0.972423
C44	C	0.754265	-0.079854	0.975380
C45	C	0.817180	0.249151	1.002355
C46	C	0.810302	0.322779	0.999401
C47	C	1.020554	0.319144	1.089565
C48	C	1.027439	0.245520	1.092514
C49	C	0.925747	0.210527	1.048913
N50	N	0.842016	0.104023	1.013007
N51	N	0.932788	0.135273	1.051937
H52	H	1.040215	-0.446460	0.633825
H53	H	1.103055	-0.473487	0.304814
H54	H	0.671840	-0.287968	0.760774
O55	O	0.718342	0.215277	0.959928
C56	C	0.621025	0.265161	0.918212
H57	H	0.680512	0.317737	0.913664
H58	H	0.502901	0.271958	0.943715
C59	C	0.520869	0.174875	0.849921
C60	C	0.593938	0.239448	0.844331
H61	H	0.504153	0.159013	0.804349
H62	H	0.586428	0.141266	0.878027
H63	H	0.422440	0.180548	0.871177
H64	H	0.692373	0.233772	0.823084
H65	H	0.528395	0.273055	0.816219
H66	H	1.052945	-0.114932	1.103445
H67	H	0.721890	0.354227	0.961484
O68	O	1.119161	0.353246	1.131894
C69	C	1.089835	0.426511	1.119291
H70	H	0.964982	0.437499	1.095800
H71	H	1.177936	0.448913	1.080911
C72	C	1.260790	0.447943	1.217955
C73	C	1.107439	0.461439	1.189109
H74	H	1.271655	0.469489	1.261021
H75	H	1.280553	0.398583	1.226445
H76	H	1.334190	0.466611	1.185965
H77	H	1.034043	0.442763	1.221095
H78	H	1.087664	0.510796	1.180626
O79	O	0.705135	-0.302240	0.292233
C80	C	0.616977	-0.264330	0.338900
H81	H	0.686277	-0.264041	0.391289
H82	H	0.500208	-0.290372	0.347757
C83	C	0.499688	-0.188489	0.242795
C84	C	0.584809	-0.188128	0.307139
H85	H	0.479838	-0.141484	0.223203
H86	H	0.559076	-0.214031	0.211354
H87	H	0.402390	-0.210194	0.250185
H88	H	0.682112	-0.166431	0.299747
H89	H	0.525436	-0.162580	0.338578
O90	O	0.641782	0.031182	0.927174
C91	C	0.553547	-0.015494	0.889309
H92	H	0.555690	-0.069134	0.920295
H93	H	0.607039	-0.021177	0.836085
C94	C	0.379375	0.079537	0.839931
C95	C	0.381997	0.013656	0.877991
H96	H	0.273557	0.097519	0.832946
H97	H	0.438823	0.110984	0.865439
H98	H	0.423960	0.074792	0.795582
H99	H	0.337431	0.018403	0.922343
H100	H	0.322537	-0.017790	0.852490
O101	O	0.718660	-0.308235	0.437345
C102	C	0.624319	-0.350006	0.481521
H103	H	0.685809	-0.403911	0.494713
H104	H	0.505457	-0.356533	0.453443
C105	C	0.523244	-0.247793	0.533686
C106	C	0.598773	-0.313998	0.549892
H107	H	0.507479	-0.225581	0.575859
H108	H	0.586798	-0.219650	0.503921
H109	H	0.424200	-0.253242	0.510286
H110	H	0.697822	-0.308548	0.573284
H111	H	0.535235	-0.342139	0.579662
O112	O	1.056555	0.024022	1.104970
C113	C	1.153831	-0.025861	1.146709
H114	H	1.161501	-0.077178	1.119936
H115	H	1.101814	-0.035849	1.200564
C116	C	1.310572	0.065492	1.188599
C117	C	1.320004	0.002466	1.155714
H118	H	1.413074	0.082965	1.194157
H119	H	1.245033	0.099099	1.160481
H120	H	1.267218	0.057160	1.233475
H121	H	1.363338	0.010800	1.110835
H122	H	1.385555	-0.031140	1.183824
O123	O	1.132915	0.208104	1.137819
C124	C	1.221193	0.254779	1.175666
H125	H	1.151909	0.307168	1.175985
H126	H	1.337877	0.263633	1.149551
C127	C	1.338688	0.158689	1.251464
C128	C	1.253587	0.223033	1.251860
H129	H	1.358678	0.139106	1.298463
H130	H	1.279219	0.127242	1.225964
H131	H	1.435916	0.166076	1.229698
H132	H	1.156354	0.215643	1.273618
H133	H	1.313041	0.254477	1.277366
H134	H	1.115522	-0.478859	0.438384
H135	H	0.671469	-0.108345	0.939874
H136	H	0.659377	-0.282604	0.627202
H137	H	1.052674	-0.451834	0.767385
