data_functionalizedCrystal
_audit_creation_method	'MofGen! by Chris Wilmer'
_symmetry_space_group_name_H-M	'P1'
_symmetry_Int_Tables_number	1
_symmetry_cell_setting	triclinic
loop_
_symmetry_equiv_pos_as_xyz
  x,y,z
_cell_length_a	12.759401
_cell_length_b	16.120484
_cell_length_c	12.759393
_cell_angle_alpha	92.862621
_cell_angle_beta	89.982620
_cell_angle_gamma	92.925560
loop_
_atom_site_label
_atom_site_type_symbol
_atom_site_fract_x
_atom_site_fract_y
_atom_site_fract_z
Zn1	Zn	1.584960	-0.331851	-0.615146
Zn2	Zn	2.084960	0.168149	-0.115146
Zn3	Zn	1.575915	-0.471289	-0.448359
Zn4	Zn	2.075915	0.028711	0.051641
Zn5	Zn	1.409262	-0.331895	-0.439488
Zn6	Zn	1.909262	0.168105	0.060512
Zn7	Zn	1.400312	-0.471225	-0.623996
Zn8	Zn	1.900312	0.028775	-0.123996
O9	O	1.492612	-0.401565	-0.531747
O10	O	1.992612	0.098435	-0.031747
O11	O	1.730780	-0.350357	-0.593029
O12	O	2.230780	0.149643	-0.093029
O13	O	1.553768	-0.452844	-0.300164
O14	O	2.053768	0.047156	0.199836
O15	O	1.440101	-0.215224	-0.455373
O16	O	1.940101	0.284776	0.044627
O17	O	1.724135	-0.452801	-0.470492
O18	O	2.224135	0.047199	0.029508
O19	O	1.569185	-0.215192	-0.584428
O20	O	2.069185	0.284808	-0.084428
O21	O	1.431330	-0.350432	-0.293646
O22	O	1.931330	0.149568	0.206354
O23	O	1.261055	-0.350369	-0.463955
O24	O	1.761055	0.149631	0.036045
O25	O	1.424845	-0.452691	-0.769840
O26	O	1.924845	0.047309	-0.269840
O27	O	1.254478	-0.452734	-0.599512
O28	O	1.754478	0.047266	-0.099512
O29	O	1.560505	-0.350294	-0.763338
O30	O	2.060505	0.149706	-0.263338
O31	O	1.545089	-0.587946	-0.479074
O32	O	2.045089	-0.087946	0.020926
O33	O	1.416074	-0.587899	-0.608114
O34	O	1.916074	-0.087899	-0.108114
C35	C	1.219646	-0.401550	-0.531732
C36	C	1.719646	0.098450	-0.031732
C37	C	1.102868	-0.401563	-0.531751
C38	C	1.602868	0.098437	-0.031751
C39	C	1.044604	-0.454950	-0.602230
C40	C	1.544604	0.045050	-0.102230
C41	C	0.934879	-0.454961	-0.602242
C42	C	1.434879	0.045039	-0.102242
C43	C	0.941693	-0.348196	-0.461287
C44	C	1.441693	0.151804	0.038713
C45	C	1.051416	-0.348181	-0.461281
C46	C	1.551416	0.151819	0.038719
C47	C	1.096056	-0.508332	-0.672701
C48	C	1.596056	-0.008332	-0.172701
C49	C	1.037792	-0.561724	-0.743185
C50	C	1.537792	-0.061724	-0.243185
C51	C	0.928067	-0.561734	-0.743197
C52	C	1.428067	-0.061734	-0.243197
C53	C	0.876607	-0.508353	-0.672725
C54	C	1.376607	-0.008353	-0.172725
C55	C	1.478657	-0.618172	-0.545539
C56	C	1.978657	-0.118172	-0.045539
C57	C	1.472783	-0.710838	-0.551475
C58	C	1.972783	-0.210838	-0.051475
C59	C	1.462065	-0.880498	-0.562333
C60	C	1.962065	-0.380498	-0.062333
C61	C	1.523347	-0.921791	-0.501178
C62	C	2.023347	-0.421791	-0.001178
C63	C	1.517384	-1.016197	-0.507219
C64	C	2.017384	-0.516197	-0.007219
C65	C	1.468028	-0.786085	-0.556293
C66	C	1.968028	-0.286085	-0.056293
C67	C	1.766644	-0.401581	-0.531763
C68	C	2.266644	0.098419	-0.031763
C69	C	1.883421	-0.401588	-0.531770
C70	C	2.383421	0.098412	-0.031770
C71	C	1.492686	-0.401480	-0.805775
C72	C	1.992686	0.098520	-0.305775
C73	C	1.492717	-0.401444	-0.922549
C74	C	1.992717	0.098556	-0.422549
C75	C	1.506650	-0.184112	-0.517924
C76	C	2.006650	0.315888	-0.017924
C77	C	1.512632	-0.091447	-0.512033
C78	C	2.012632	0.408553	-0.012033
C79	C	1.428993	-0.348108	-0.974023
C80	C	1.928993	0.151892	-0.474023
C81	C	1.429026	-0.348083	-1.083746
C82	C	1.929026	0.151917	-0.583746
C83	C	1.556517	-0.454733	-1.090511
C84	C	2.056517	0.045267	-0.590511
C85	C	1.556478	-0.454761	-0.980791
C86	C	2.056478	0.045239	-0.480791
C87	C	1.365232	-0.294791	-0.915782
C88	C	1.865232	0.205209	-0.415782
C89	C	1.301503	-0.241450	-0.967256
C90	C	1.801503	0.258550	-0.467256
C91	C	1.301536	-0.241426	-1.076978
C92	C	1.801536	0.258574	-0.576978
C93	C	1.365299	-0.294742	-1.135227
C94	C	1.865299	0.205258	-0.635227
C95	C	1.492603	-0.401590	-0.258781
C96	C	1.992603	0.098410	0.241219
C97	C	1.492790	-0.401391	-0.141992
C98	C	1.992790	0.098609	0.358008
H99	H	0.787262	-0.508359	-0.672749
H100	H	1.287262	-0.008359	-0.172749
C101	C	1.626571	-0.513439	-0.924167
C102	C	2.126571	-0.013439	-0.424167
N103	N	1.679361	-0.557641	-0.881518
N104	N	2.179361	-0.057641	-0.381518
C105	C	1.385131	-0.928521	-0.639180
C106	C	1.885131	-0.428521	-0.139180
N107	N	1.327180	-0.964701	-0.697055
N108	N	1.827180	-0.464701	-0.197055
H109	H	1.580290	-0.886243	-0.444282
H110	H	2.080290	-0.386243	0.055718
H111	H	1.098856	-0.304703	-0.403898
H112	H	1.598856	0.195297	0.096102
C113	C	1.231434	-0.182751	-1.133596
C114	C	1.731434	0.317249	-0.633596
N115	N	1.178636	-0.138550	-1.176238
N116	N	1.678636	0.361450	-0.676238
H117	H	1.365200	-0.294804	-0.826440
H118	H	1.865200	0.205196	-0.326440
H119	H	1.249584	-0.198047	-0.919823
H120	H	1.749584	0.301953	-0.419823
H121	H	1.365318	-0.294719	-1.224570
H122	H	1.865318	0.205281	-0.724570
C123	C	1.626501	-0.513489	-1.154596
C124	C	2.126501	-0.013489	-0.654596
N125	N	1.679161	-0.557785	-1.202867
N126	N	2.179161	-0.057785	-0.702867
H127	H	0.880631	-0.605202	-0.800595
H128	H	1.380631	-0.105202	-0.300595
C129	C	0.885082	-0.289485	-0.383768
C130	C	1.385082	0.210515	0.116232
N131	N	0.842442	-0.245267	-0.325376
N132	N	1.342442	0.254733	0.174624
H133	H	1.185399	-0.508331	-0.672697
H134	H	1.685399	-0.008331	-0.172697
C135	C	1.094400	-0.620438	-0.820701
C136	C	1.594400	-0.120438	-0.320701
N137	N	1.137036	-0.664664	-0.879087
N138	N	1.637036	-0.164664	-0.379087
