data_functionalizedCrystal
_audit_creation_method	'MofGen! by Chris Wilmer'
_symmetry_space_group_name_H-M	'P1'
_symmetry_Int_Tables_number	1
_symmetry_cell_setting	triclinic
loop_
_symmetry_equiv_pos_as_xyz
  x,y,z
_cell_length_a	19.288874
_cell_length_b	10.654550
_cell_length_c	9.130313
_cell_angle_alpha	90.000276
_cell_angle_beta	89.994969
_cell_angle_gamma	96.187422
loop_
_atom_site_label
_atom_site_type_symbol
_atom_site_fract_x
_atom_site_fract_y
_atom_site_fract_z
O1	O	0.097554	-1.665757	-0.121692
O2	O	0.106849	-1.300081	-0.121719
O3	O	0.001141	-1.493479	-0.121693
O4	O	0.203262	-1.472359	-0.121718
O5	O	0.001138	-1.493466	0.121906
O6	O	0.106845	-1.300067	0.121880
O7	O	0.097551	-1.665744	0.121907
Cu8	Cu	0.102198	-1.482905	0.144136
Cu9	Cu	0.102202	-1.482920	-0.143948
O10	O	0.203259	-1.472346	0.121881
C11	C	0.106165	-1.253291	0.000077
C12	C	0.104123	-1.113891	0.000067
C13	C	-0.024742	-1.492791	0.000106
C14	C	-0.101858	-1.490745	0.000105
C15	C	0.098235	-1.712534	0.000108
C16	C	0.100277	-1.851934	0.000108
C17	C	-0.657525	-1.476047	0.132854
C18	C	-0.585065	-1.477955	0.132862
C19	C	-0.548826	-1.478923	0.000078
C20	C	-0.585051	-1.477949	-0.132724
C21	C	-0.657509	-1.476028	-0.132728
C22	C	-0.438992	-1.555523	-0.101643
C23	C	-0.366536	-1.557452	-0.101633
C24	C	-0.325341	-1.484844	0.000086
C25	C	-0.356613	-1.410322	0.101820
C26	C	-0.429071	-1.408401	0.101815
C27	C	-0.470257	-1.481006	0.000068
C28	C	-0.210555	-1.487878	0.132888
C29	C	-0.138093	-1.489779	0.132891
C30	C	-0.138081	-1.489786	-0.132699
C31	C	-0.210540	-1.487872	-0.132698
C32	C	-0.246774	-1.486924	0.000100
C33	C	0.229141	-1.473034	0.000079
C34	C	0.306258	-1.475080	0.000070
N35	N	0.102195	-1.482903	0.346758
C36	C	0.166362	-1.033077	0.000064
C37	C	0.164439	-0.902097	0.000089
C38	C	0.038033	-0.932758	0.000116
C39	C	0.039956	-1.063735	0.000100
N40	N	0.102199	-1.482932	-0.346571
C41	C	0.055407	-1.568568	0.423422
C42	C	0.055408	-1.568580	0.576759
C43	C	0.148989	-1.397258	0.576755
C44	C	0.148985	-1.397241	0.423421
H45	H	-0.687022	-1.475273	0.240989
C46	C	0.003943	-1.662809	0.661089
H47	H	0.010639	-1.650545	0.763390
H48	H	0.011917	-1.746570	0.635948
H49	H	-0.042486	-1.649427	0.635970
H50	H	-0.240029	-1.487094	-0.240826
C51	C	-0.311312	-1.330447	0.213721
H52	H	-0.340313	-1.285801	0.274311
H53	H	-0.279051	-1.272048	0.163352
H54	H	-0.286629	-1.384232	0.272558
H55	H	-0.240057	-1.487096	0.241020
H56	H	-0.010729	-1.129538	0.000107
H57	H	0.215121	-0.836303	0.000090
H58	H	-0.108606	-1.490563	0.241024
H59	H	0.017307	-1.638318	0.361006
C60	C	0.200455	-1.303007	0.339086
H61	H	0.228329	-1.252005	0.406702
H62	H	0.175198	-1.250874	0.279285
H63	H	0.229601	-1.348017	0.279255
H64	H	0.218610	-1.073909	0.000047
C65	C	-0.545195	-1.479016	-0.278786
H66	H	-0.577144	-1.478157	-0.357872
H67	H	-0.521873	-1.552981	-0.284306
H68	H	-0.511984	-1.406543	-0.284304
C69	C	-0.545219	-1.479026	0.278930
H70	H	-0.577176	-1.478194	0.358017
H71	H	-0.512008	-1.406565	0.284458
H72	H	-0.521901	-1.553003	0.284438
C73	C	-0.463470	-1.326423	0.213695
H74	H	-0.512522	-1.335686	0.199124
H75	H	-0.445767	-1.240426	0.200884
H76	H	-0.453351	-1.352599	0.310106
H77	H	-0.108574	-1.490559	-0.240815
C78	C	-0.032546	-0.877588	0.000135
H79	H	-0.069338	-0.944481	0.000147
H80	H	-0.035923	-0.827126	-0.084809
H81	H	-0.035924	-0.827138	0.085099
H82	H	-0.341081	-1.618138	-0.184464
C83	C	-0.484302	-1.635396	-0.213537
H84	H	-0.531933	-1.623571	-0.198981
H85	H	-0.478256	-1.722023	-0.200728
H86	H	-0.470676	-1.609845	-0.309943
H87	H	-0.686996	-1.475239	-0.240861
C88	C	0.200460	-1.303048	0.661089
H89	H	0.193767	-1.315335	0.763390
H90	H	0.192487	-1.219281	0.635980
H91	H	0.246887	-1.316429	0.635937
