data_functionalizedCrystal
_audit_creation_method	'MofGen! by Chris Wilmer'
_symmetry_space_group_name_H-M	'P1'
_symmetry_Int_Tables_number	1
_symmetry_cell_setting	triclinic
loop_
_symmetry_equiv_pos_as_xyz
  x,y,z
_cell_length_a	15.944551
_cell_length_b	17.038272
_cell_length_c	15.021413
_cell_angle_alpha	90.004029
_cell_angle_beta	89.997174
_cell_angle_gamma	87.305147
loop_
_atom_site_label
_atom_site_type_symbol
_atom_site_fract_x
_atom_site_fract_y
_atom_site_fract_z
O1	O	1.121728	0.100827	-0.073940
O2	O	1.621728	0.600827	0.426060
O3	O	0.878066	0.113259	-0.073962
O4	O	1.378066	0.613259	0.426038
O5	O	0.998449	-0.006773	-0.073944
O6	O	1.498449	0.493227	0.426056
O7	O	1.001345	0.220859	-0.073958
O8	O	1.501345	0.720859	0.426042
O9	O	0.998429	-0.006755	0.074120
O10	O	1.498429	0.493245	0.574120
O11	O	0.878046	0.113277	0.074102
O12	O	1.378046	0.613277	0.574102
O13	O	1.121708	0.100844	0.074125
O14	O	1.621708	0.600844	0.574125
Zn15	Zn	0.999874	0.107063	0.097622
Zn16	Zn	1.499874	0.607063	0.597622
Zn17	Zn	0.999900	0.107041	-0.097459
Zn18	Zn	1.499900	0.607041	0.402541
O19	O	1.001326	0.220876	0.074107
O20	O	1.501326	0.720876	0.574107
C21	C	0.846725	0.112752	0.000067
C22	C	1.346725	0.612752	0.500067
C23	C	0.753369	0.111205	0.000059
C24	C	1.253369	0.611205	0.500059
C25	C	0.532936	0.033105	0.000081
C26	C	1.032936	0.533105	0.500081
C27	C	0.474515	0.069363	-0.072924
C28	C	0.974515	0.569363	0.427076
C29	C	0.582443	0.108405	0.000070
C30	C	1.082443	0.608405	0.500070
C31	C	0.474519	0.069398	0.073055
C32	C	0.974519	0.569398	0.573055
C33	C	0.417337	0.105696	0.000084
C34	C	0.917337	0.605696	0.500084
C35	C	0.525252	0.144684	-0.072996
C36	C	1.025252	0.644684	0.427004
C37	C	0.525262	0.144709	0.073049
C38	C	1.025262	0.644709	0.573049
C39	C	0.466862	0.181022	0.000026
C40	C	0.966862	0.681022	0.500026
C41	C	0.677557	0.109964	0.000061
C42	C	1.177557	0.609964	0.500061
C43	C	0.322225	0.104143	0.000087
C44	C	0.822225	0.604143	0.500087
C45	C	0.995805	-0.035893	0.000088
C46	C	1.495805	0.464107	0.500088
C47	C	0.987945	-0.122688	0.000087
C48	C	1.487945	0.377312	0.500087
C49	C	1.060103	-0.172781	0.000094
C50	C	1.560103	0.327219	0.500094
C51	C	1.052713	-0.254334	0.000085
C52	C	1.552713	0.245666	0.500085
C53	C	0.973165	-0.285792	0.000075
C54	C	1.473165	0.214208	0.500075
C55	C	0.901002	-0.235693	0.000065
C56	C	1.401002	0.264307	0.500065
C57	C	0.908393	-0.154142	0.000068
C58	C	1.408393	0.345858	0.500068
C59	C	0.947056	-0.531558	0.000061
C60	C	1.447056	-0.031558	0.500061
C61	C	0.939671	-0.613115	0.000060
C62	C	1.439671	-0.113115	0.500060
C63	C	1.091383	-0.631751	0.000079
C64	C	1.591383	-0.131751	0.500079
C65	C	1.098766	-0.550197	0.000087
C66	C	1.598766	-0.050197	0.500087
C67	C	1.026603	-0.500105	0.000072
C68	C	1.526603	-0.000105	0.500072
C69	C	0.965610	-0.369152	0.000069
C70	C	1.465610	0.130848	0.500069
C71	C	1.034159	-0.416747	0.000073
C72	C	1.534159	0.083253	0.500073
C73	C	1.153049	0.101352	0.000093
C74	C	1.653049	0.601352	0.500093
C75	C	1.246405	0.102899	0.000096
C76	C	1.746405	0.602899	0.500096
C77	C	1.003969	0.249997	0.000073
C78	C	1.503969	0.749997	0.500073
C79	C	1.011829	0.336792	0.000068
C80	C	1.511829	0.836792	0.500068
N81	N	0.999863	0.107078	0.230759
N82	N	1.499863	0.607078	0.730759
N83	N	0.999917	0.107019	-0.230597
N84	N	1.499917	0.607019	0.269403
C85	C	0.944187	0.162555	0.470434
C86	C	1.444187	0.662555	0.970434
C87	C	1.021171	0.177734	0.529775
C88	C	1.521171	0.677734	1.029775
C89	C	0.999883	0.107059	0.412366
C90	C	1.499883	0.607059	0.912366
C91	C	0.922921	0.091897	0.529768
C92	C	1.422921	0.591897	1.029768
C93	C	0.999896	0.107041	0.587790
C94	C	1.499896	0.607041	1.087790
C95	C	1.076908	0.122273	0.470400
C96	C	1.576908	0.622273	0.970400
C97	C	0.978606	0.036405	0.470388
C98	C	1.478606	0.536405	0.970388
C99	C	1.055643	0.051554	0.529702
C100	C	1.555643	0.551554	1.029702
C101	C	0.999875	0.107070	0.311309
C102	C	1.499875	0.607070	0.811309
C103	C	0.999913	0.107029	0.688846
C104	C	1.499913	0.607029	1.188846
H105	H	0.547520	0.176503	-0.134784
H106	H	1.047520	0.676503	0.365216
C107	C	0.659552	-0.048948	0.000781
C108	C	1.159552	0.451052	0.500781
C109	C	0.571888	-0.051267	-0.000002
C110	C	1.071888	0.448733	0.499998
H111	H	0.683599	-0.101034	0.000733
H112	H	1.183599	0.398966	0.500733
H113	H	0.677651	-0.021943	-0.050555
H114	H	1.177651	0.478057	0.449445
H115	H	0.676858	-0.022303	0.052708
H116	H	1.176858	0.477697	0.552708
H117	H	0.554581	-0.077906	-0.051932
H118	H	1.054581	0.422094	0.448068
H119	H	0.553781	-0.078283	0.051339
H120	H	1.053781	0.421717	0.551339
H121	H	0.452139	0.037507	-0.134642
H122	H	0.952139	0.537507	0.365358
C123	C	0.643221	0.189276	0.155022
C124	C	1.143221	0.689276	0.655022
C125	C	0.555508	0.187679	0.156364
C126	C	1.055508	0.687679	0.656364
H127	H	0.661893	0.215804	0.206460
H128	H	1.161893	0.715804	0.706460
H129	H	0.666779	0.137029	0.154507
H130	H	1.166779	0.637029	0.654507
H131	H	0.660475	0.216091	0.103193
H132	H	1.160475	0.716091	0.603193
H133	H	0.538254	0.160859	0.208190
H134	H	1.038254	0.660859	0.708190
H135	H	0.531941	0.239935	0.156888
H136	H	1.031941	0.739935	0.656888
C137	C	0.790445	-0.586507	0.000015
C138	C	1.290445	-0.086507	0.500015
C139	C	0.852225	-0.647695	0.000035
C140	C	1.352225	-0.147695	0.500035
H141	H	0.736464	-0.607858	-0.000007
H142	H	1.236464	-0.107858	0.499993
H143	H	0.796463	-0.555085	0.051647
H144	H	1.296463	-0.055085	0.551647
H145	H	0.796503	-0.555089	-0.051620
H146	H	1.296503	-0.055089	0.448380
H147	H	0.846172	-0.679111	0.051673
H148	H	1.346172	-0.179111	0.551673
H149	H	0.846204	-0.679131	-0.051603
H150	H	1.346204	-0.179131	0.448397
H151	H	1.142018	0.135160	0.444432
H152	H	1.642018	0.635160	0.944432
H153	H	0.849634	-0.113356	0.000061
H154	H	1.349634	0.386644	0.500061
C155	C	0.836176	0.074067	0.658177
C156	C	1.336176	0.574067	1.158177
C157	C	0.835051	0.074590	0.564970
C158	C	1.335051	0.574590	1.064970
H159	H	0.781926	0.063391	0.679904
H160	H	1.281926	0.563391	1.179904
H161	H	0.875672	0.034585	0.678463
H162	H	1.375672	0.534585	1.178463
H163	H	0.851679	0.123875	0.679374
H164	H	1.351679	0.623875	1.179374
H165	H	0.819553	0.024779	0.543772
H166	H	1.319553	0.524779	1.043772
H167	H	0.795542	0.114073	0.544676
H168	H	1.295542	0.614073	1.044676
H169	H	0.438170	0.243580	-0.000019
H170	H	0.938170	0.743580	0.499981
C171	C	0.769402	-0.244902	0.076156
C172	C	1.269402	0.255098	0.576156
C173	C	0.813559	-0.270266	0.000050
C174	C	1.313559	0.229734	0.500050
H175	H	0.715415	-0.266240	0.076144
H176	H	1.215415	0.233760	0.576144
H177	H	0.799346	-0.262098	0.127784
H178	H	1.299346	0.237902	0.627784
H179	H	0.763486	-0.189163	0.076146
H180	H	1.263486	0.310837	0.576146
H181	H	0.819480	-0.326005	0.000064
H182	H	1.319480	0.173995	0.500064
H183	H	0.783607	-0.253073	-0.051591
H184	H	1.283607	0.246927	0.448409
C185	C	0.477870	-0.051039	0.156228
C186	C	0.977870	0.448961	0.656228
C187	C	0.444322	0.026400	0.156376
C188	C	0.944322	0.526400	0.656376
H189	H	0.459232	-0.077586	0.207666
H190	H	0.959232	0.422414	0.707666
H191	H	0.459700	-0.077276	0.104394
H192	H	0.959700	0.422724	0.604394
H193	H	0.537434	-0.050773	0.156538
H194	H	1.037434	0.449227	0.656538
H195	H	0.384758	0.026133	0.156059
H196	H	0.884758	0.526133	0.656059
H197	H	0.462487	0.052643	0.208224
H198	H	0.962487	0.552643	0.708224
H199	H	0.960575	-0.023318	0.444282
H200	H	1.460575	0.476682	0.944282
C201	C	1.097691	-0.085589	0.533303
C202	C	1.597691	0.414411	1.033303
C203	C	1.119304	-0.011815	0.564617
C204	C	1.619304	0.488185	1.064617
H205	H	1.136998	-0.124706	0.554855
H206	H	1.636998	0.375294	1.054855
H207	H	1.043076	-0.096472	0.553747
H208	H	1.543076	0.403528	1.053747
H209	H	1.098355	-0.085624	0.470067
H210	H	1.598355	0.414376	0.970067
H211	H	1.118634	-0.011779	0.627852
H212	H	1.618634	0.488221	1.127852
H213	H	1.173933	-0.000930	0.544177
H214	H	1.673933	0.499070	1.044177
C215	C	1.209319	-0.199401	0.000097
C216	C	1.709319	0.300599	0.500097
C217	C	1.147546	-0.138206	0.000100
C218	C	1.647546	0.361794	0.500100
H219	H	1.263303	-0.178056	0.000091
H220	H	1.763303	0.321944	0.500091
H221	H	1.203278	-0.230815	0.051727
H222	H	1.703278	0.269185	0.551727
H223	H	1.203276	-0.230825	-0.051540
H224	H	1.703276	0.269175	0.448460
H225	H	1.153584	-0.106785	0.051740
H226	H	1.653584	0.393215	0.551740
H227	H	1.153589	-0.106779	-0.051536
H228	H	1.653589	0.393221	0.448464
C229	C	1.132436	-0.356847	-0.076031
C230	C	1.632436	0.143153	0.423969
C231	C	1.132035	-0.309392	0.000090
C232	C	1.632035	0.190608	0.500090
H233	H	1.181413	-0.390832	-0.076031
H234	H	1.681413	0.109168	0.423969
H235	H	1.084013	-0.387255	-0.076033
H236	H	1.584013	0.112745	0.423967
H237	H	1.132170	-0.324636	-0.127654
H238	H	1.632170	0.175364	0.372346
H239	H	1.132295	-0.341603	0.051714
H240	H	1.632295	0.158397	0.551714
H241	H	1.180471	-0.278981	0.000101
H242	H	1.680471	0.221019	0.500101
C243	C	1.045962	0.257276	0.658209
C244	C	1.545962	0.757276	1.158209
C245	C	1.045479	0.258379	0.565002
C246	C	1.545479	0.758379	1.065002
H247	H	1.060968	0.307064	0.679953
H248	H	1.560968	0.807064	1.179953
H249	H	0.991671	0.246130	0.679399
H250	H	1.491671	0.746130	1.179399
H251	H	1.085587	0.217893	0.678485
H252	H	1.585587	0.717893	1.178485
H253	H	1.005849	0.297759	0.544726
H254	H	1.505849	0.797759	1.044726
H255	H	1.099778	0.269534	0.543804
H256	H	1.599778	0.769534	1.043804
H257	H	1.098927	-0.391130	0.000061
H258	H	1.598927	0.108870	0.500061
C259	C	1.247985	-0.576812	0.000105
C260	C	1.747985	-0.076812	0.500105
C261	C	1.186208	-0.515621	0.000100
C262	C	1.686208	-0.015621	0.500100
H263	H	1.301968	-0.555464	0.000112
H264	H	1.801968	-0.055464	0.500112
H265	H	1.241937	-0.608230	0.051731
H266	H	1.741937	-0.108230	0.551731
H267	H	1.241954	-0.608234	-0.051536
H268	H	1.741954	-0.108234	0.448464
H269	H	1.192236	-0.484202	0.051744
H270	H	1.692236	0.015798	0.551744
H271	H	1.192259	-0.484190	-0.051532
H272	H	1.692259	0.015810	0.448468
H273	H	1.150134	-0.672544	0.000090
H274	H	1.650134	-0.172544	0.500090
H275	H	0.888296	-0.490782	0.000049
H276	H	1.388296	0.009218	0.500049
C277	C	0.903177	0.299888	0.465270
C278	C	1.403177	0.799888	0.965270
C279	C	0.880679	0.225957	0.435290
C280	C	1.380679	0.725957	0.935290
H281	H	0.863976	0.339030	0.443566
H282	H	1.363976	0.839030	0.943566
H283	H	0.903098	0.300628	0.528496
H284	H	1.403098	0.800628	1.028496
H285	H	0.957713	0.310151	0.444067
H286	H	1.457713	0.810151	0.944067
H287	H	0.826146	0.215692	0.456499
H288	H	1.326146	0.715692	0.956499
H289	H	0.880750	0.225216	0.372051
H290	H	1.380750	0.725216	0.872051
H291	H	0.900842	-0.394774	0.000062
H292	H	1.400842	0.105226	0.500062
