data_functionalizedCrystal
_audit_creation_method	'MofGen! by Chris Wilmer'
_symmetry_space_group_name_H-M	'P1'
_symmetry_Int_Tables_number	1
_symmetry_cell_setting	triclinic
loop_
_symmetry_equiv_pos_as_xyz
  x,y,z
_cell_length_a	16.625547
_cell_length_b	11.169416
_cell_length_c	11.169409
_cell_angle_alpha	90.030874
_cell_angle_beta	90.027407
_cell_angle_gamma	90.010278
loop_
_atom_site_label
_atom_site_type_symbol
_atom_site_fract_x
_atom_site_fract_y
_atom_site_fract_z
Zn1	Zn	1.232769	-0.477712	0.678798
Zn2	Zn	1.566102	-0.144378	1.012131
Zn3	Zn	1.899436	0.188955	1.345464
Zn4	Zn	1.232695	-0.678452	0.478120
Zn5	Zn	1.566028	-0.345119	0.811453
Zn6	Zn	1.899361	-0.011786	1.144786
Zn7	Zn	1.097925	-0.477782	0.478106
Zn8	Zn	1.431258	-0.144448	0.811439
Zn9	Zn	1.764591	0.188885	1.144772
Zn10	Zn	1.097930	-0.678351	0.678738
Zn11	Zn	1.431263	-0.345018	1.012071
Zn12	Zn	1.764596	-0.011685	1.345405
O13	O	1.165330	-0.578074	0.578440
O14	O	1.498663	-0.244741	0.911774
O15	O	1.831996	0.088592	1.245107
O16	O	1.345592	-0.504353	0.652208
O17	O	1.678925	-0.171020	0.985542
O18	O	2.012258	0.162313	1.318875
O19	O	1.214784	-0.651904	0.310168
O20	O	1.548117	-0.318571	0.643501
O21	O	1.881451	0.014762	0.976835
O22	O	1.115841	-0.309823	0.504747
O23	O	1.449174	0.023511	0.838080
O24	O	1.782508	0.356844	1.171414
O25	O	1.345537	-0.651837	0.504771
O26	O	1.678870	-0.318503	0.838104
O27	O	2.012204	0.014830	1.171438
O28	O	1.214911	-0.309771	0.652195
O29	O	1.548244	0.023562	0.985528
O30	O	1.881577	0.356895	1.318861
O31	O	1.115769	-0.504473	0.310158
O32	O	1.449102	-0.171139	0.643491
O33	O	1.782436	0.162194	0.976824
O34	O	0.985093	-0.504375	0.504689
O35	O	1.318426	-0.171041	0.838022
O36	O	1.651760	0.162292	1.171356
O37	O	1.115850	-0.651665	0.846696
O38	O	1.449183	-0.318331	1.180029
O39	O	1.782516	0.015002	1.513363
O40	O	0.985097	-0.651732	0.652093
O41	O	1.318430	-0.318399	0.985426
O42	O	1.651763	0.014934	1.318760
O43	O	1.214916	-0.504256	0.846740
O44	O	1.548249	-0.170922	1.180073
O45	O	1.881582	0.162411	1.513406
O46	O	1.214789	-0.846389	0.504713
O47	O	1.548122	-0.513055	0.838047
O48	O	1.881456	-0.179722	1.171380
O49	O	1.115778	-0.846314	0.652107
O50	O	1.449111	-0.512981	0.985440
O51	O	1.782444	-0.179648	1.318773
C52	C	1.165298	-0.889899	0.578431
C53	C	1.498631	-0.556566	0.911765
C54	C	1.831964	-0.223232	1.245098
C55	C	1.165358	-1.023299	0.578467
C56	C	1.498691	-0.689966	0.911801
C57	C	1.832024	-0.356632	1.245134
C58	C	0.955839	-0.578051	0.578384
C59	C	1.289172	-0.244718	0.911717
C60	C	1.622505	0.088616	1.245050
C61	C	0.866218	-0.578070	0.578388
C62	C	1.199551	-0.244737	0.911721
C63	C	1.532884	0.088597	1.245054
C64	C	0.793435	-0.578072	0.578403
C65	C	1.126769	-0.244739	0.911736
C66	C	1.460102	0.088594	1.245069
C67	C	0.702127	-0.578079	0.578433
C68	C	1.035460	-0.244745	0.911766
C69	C	1.368793	0.088588	1.245099
C70	C	0.629350	-0.578090	0.578463
C71	C	0.962684	-0.244756	0.911797
C72	C	1.296017	0.088577	1.245130
C73	C	0.538036	-0.578098	0.578492
C74	C	0.871369	-0.244765	0.911825
C75	C	1.204703	0.088569	1.245159
C76	C	1.375638	-0.578099	0.578498
C77	C	1.708972	-0.244765	0.911831
C78	C	2.042305	0.088568	1.245165
C79	C	1.465260	-0.578109	0.578522
C80	C	1.798593	-0.244776	0.911856
C81	C	2.131926	0.088558	1.245189
C82	C	1.165391	-0.577941	0.891483
C83	C	1.498725	-0.244608	1.224816
C84	C	1.832058	0.088726	1.558150
C85	C	1.165418	-0.577884	1.024883
C86	C	1.498751	-0.244551	1.358216
C87	C	1.832085	0.088782	1.691550
C88	C	1.165384	-0.265032	0.578476
C89	C	1.498717	0.068301	0.911809
C90	C	1.832050	0.401635	1.245142
C91	C	1.165407	-0.131632	0.578491
C92	C	1.498740	0.201701	0.911824
C93	C	1.832073	0.535035	1.245158
C94	C	1.165314	-0.578120	0.266616
C95	C	1.498648	-0.244787	0.599949
C96	C	1.831981	0.088546	0.933282
C97	C	1.165444	-0.577839	0.133216
C98	C	1.498777	-0.244506	0.466549
C99	C	1.832111	0.088828	0.799883
