data_functionalizedCrystal
_audit_creation_method	'MofGen! by Chris Wilmer'
_symmetry_space_group_name_H-M	'P1'
_symmetry_Int_Tables_number	1
_symmetry_cell_setting	triclinic
loop_
_symmetry_equiv_pos_as_xyz
  x,y,z
_cell_length_a	17.038272
_cell_length_b	14.044220
_cell_length_c	12.503572
_cell_angle_alpha	86.156832
_cell_angle_beta	93.767800
_cell_angle_gamma	92.150217
loop_
_atom_site_label
_atom_site_type_symbol
_atom_site_fract_x
_atom_site_fract_y
_atom_site_fract_z
O1	O	-1.055991	-0.201858	-0.089189
O2	O	-0.722658	0.131475	0.244144
O3	O	-0.389325	0.464808	0.577477
O4	O	-0.828132	-0.198570	-0.089221
O5	O	-0.494799	0.134764	0.244113
O6	O	-0.161466	0.468097	0.577446
O7	O	-0.938641	-0.061954	-0.089195
O8	O	-0.605308	0.271379	0.244138
O9	O	-0.271975	0.604712	0.577472
O10	O	-0.945483	-0.338474	-0.089215
O11	O	-0.612149	-0.005141	0.244118
O12	O	-0.278816	0.328193	0.577452
O13	O	-0.930332	-0.072247	0.089445
O14	O	-0.596998	0.261086	0.422778
O15	O	-0.263665	0.594420	0.756112
O16	O	-0.819823	-0.208862	0.089419
O17	O	-0.486489	0.124471	0.422753
O18	O	-0.153156	0.457804	0.756086
O19	O	-1.047682	-0.212151	0.089451
O20	O	-0.714348	0.121182	0.422784
O21	O	-0.381015	0.454516	0.756117
Cu22	Cu	-0.932993	-0.211446	0.105746
Cu23	Cu	-0.599660	0.121887	0.439080
Cu24	Cu	-0.266327	0.455220	0.772413
Cu25	Cu	-0.942821	-0.199274	-0.105516
Cu26	Cu	-0.609487	0.134059	0.227817
Cu27	Cu	-0.276154	0.467392	0.561150
O28	O	-0.937173	-0.348766	0.089425
O29	O	-0.603840	-0.015433	0.422758
O30	O	-0.270506	0.317900	0.756091
C31	C	-0.794640	-0.200726	0.000095
C32	C	-0.461307	0.132607	0.333429
C33	C	-0.127974	0.465940	0.666762
C34	C	-0.707224	-0.191806	0.000084
C35	C	-0.373891	0.141527	0.333417
C36	C	-0.040557	0.474860	0.666750
C37	C	-0.931492	-0.031545	0.000125
C38	C	-0.598159	0.301789	0.333458
C39	C	-0.264825	0.635122	0.666792
C40	C	-0.922561	0.074401	0.000125
C41	C	-0.589227	0.407735	0.333459
C42	C	-0.255894	0.741068	0.666792
C43	C	-1.081174	-0.209994	0.000132
C44	C	-0.747841	0.123339	0.333466
C45	C	-0.414507	0.456672	0.666799
C46	C	-1.168591	-0.218914	0.000137
C47	C	-0.835257	0.114420	0.333470
C48	C	-0.501924	0.447753	0.666804
C49	C	-0.662839	-0.273694	0.000078
C50	C	-0.329505	0.059639	0.333412
C51	C	0.003828	0.392972	0.666745
C52	C	-0.580701	-0.265309	0.000094
C53	C	-0.247367	0.068024	0.333427
C54	C	0.085966	0.401357	0.666760
C55	C	-0.542950	-0.175035	0.000107
C56	C	-0.209617	0.158299	0.333440
C57	C	0.123717	0.491632	0.666773
C58	C	-0.587341	-0.093141	0.000115
C59	C	-0.254008	0.240193	0.333448
C60	C	0.079326	0.573526	0.666782
C61	C	-0.669477	-0.101527	0.000107
C62	C	-0.336144	0.231806	0.333441
C63	C	-0.002810	0.565139	0.666774
C64	C	-0.295118	-0.145406	0.000138
C65	C	0.038216	0.187927	0.333471
C66	C	0.371549	0.521260	0.666804
C67	C	-0.212976	-0.137026	0.000142
C68	C	0.120358	0.196308	0.333475
C69	C	0.453691	0.529641	0.666809
C70	C	-0.206341	-0.309195	0.000123
C71	C	0.126992	0.024138	0.333456
C72	C	0.460326	0.357471	0.666790
C73	C	-0.288479	-0.317574	0.000109
C74	C	0.044854	0.015760	0.333442
C75	C	0.378187	0.349093	0.666775
C76	C	-0.332863	-0.235680	0.000123
C77	C	0.000470	0.097653	0.333456
C78	C	0.333804	0.430987	0.666789
C79	C	-0.458992	-0.166461	0.000119
C80	C	-0.125659	0.166872	0.333452
C81	C	0.207675	0.500205	0.666786
C82	C	-0.416819	-0.244255	0.000118
C83	C	-0.083486	0.089079	0.333451
C84	C	0.249848	0.422412	0.666785
C85	C	-0.944322	-0.379176	0.000102
C86	C	-0.610989	-0.045843	0.333436
C87	C	-0.277655	0.287491	0.666769
C88	C	-0.953254	-0.485122	0.000095
C89	C	-0.619920	-0.151788	0.333429
C90	C	-0.286587	0.181545	0.666762
N91	N	-0.926087	-0.220008	0.254337
N92	N	-0.592754	0.113326	0.587670
N93	N	-0.259421	0.446659	0.921004
C94	C	-0.906233	0.268380	0.000108
C95	C	-0.572900	0.601714	0.333441
C96	C	-0.239566	0.935047	0.666774
C97	C	-0.969578	0.320905	0.000113
C98	C	-0.636245	0.654239	0.333446
C99	C	-0.302911	0.987572	0.666780
C100	C	-0.960493	0.428842	0.000103
C101	C	-0.627160	0.762175	0.333436
C102	C	-0.293826	1.095509	0.666770
C103	C	-0.915317	0.160434	0.000117
C104	C	-0.581983	0.493767	0.333451
C105	C	-0.248650	0.827101	0.666784
N106	N	-0.949733	-0.190706	-0.254107
N107	N	-0.616399	0.142627	0.079226
N108	N	-0.283066	0.475960	0.412560
C109	C	-0.915929	-0.232609	0.473450
C110	C	-0.582595	0.100724	0.806783
C111	C	-0.249262	0.434057	1.140116
C112	C	-0.959889	-0.178107	0.526787
C113	C	-0.626556	0.155226	0.860120
C114	C	-0.293222	0.488559	1.193454
C115	C	-0.954236	-0.185119	0.648709
C116	C	-0.620903	0.148214	0.982042
C117	C	-0.287570	0.481547	1.315376
C118	C	-0.921580	-0.225599	0.351517
C119	C	-0.588247	0.107735	0.684850
C120	C	-0.254913	0.441068	1.018183
H121	H	-0.693569	-0.347206	0.000067
H122	H	-0.360236	-0.013872	0.333400
H123	H	-0.026903	0.319461	0.666734
H124	H	-0.705615	-0.034845	0.000111
H125	H	-0.372281	0.298488	0.333444
H126	H	-0.038948	0.631822	0.666778
C127	C	-0.823756	0.317140	0.000110
C128	C	-0.490423	0.650474	0.333444
C129	C	-0.157089	0.983807	0.666777
N130	N	-0.761634	0.353877	0.000121
N131	N	-0.428301	0.687210	0.333454
N132	N	-0.094968	1.020543	0.666788
H133	H	-1.030636	0.284814	0.000049
H134	H	-0.697302	0.618148	0.333383
H135	H	-0.363969	0.951481	0.666716
C136	C	-1.016478	-0.107968	0.464777
C137	C	-0.683145	0.225365	0.798110
C138	C	-0.349811	0.558699	1.131444
N139	N	-1.059104	-0.055146	0.418066
N140	N	-0.725771	0.278187	0.751399
N141	N	-0.392437	0.611520	1.084733
H142	H	-0.874051	-0.284533	0.519347
H143	H	-0.540718	0.048800	0.852681
H144	H	-0.207384	0.382134	1.186014
C145	C	-0.343929	-0.055319	0.000146
C146	C	-0.010596	0.278014	0.333479
C147	C	0.322737	0.611347	0.666813
N148	N	-0.380697	0.012539	0.000151
N149	N	-0.047364	0.345872	0.333484
N150	N	0.285969	0.679206	0.666818
C151	C	-0.531880	-0.355394	0.000107
C152	C	-0.198546	-0.022061	0.333441
C153	C	0.134787	0.311272	0.666774
N154	N	-0.495107	-0.423252	0.000125
N155	N	-0.161774	-0.089918	0.333459
N156	N	0.171559	0.243415	0.666792
H157	H	-0.447559	-0.317756	0.000113
H158	H	-0.114226	0.015577	0.333447
H159	H	0.219108	0.348910	0.666780
H160	H	-0.319211	-0.391084	0.000086
H161	H	0.014123	-0.057751	0.333419
H162	H	0.347456	0.275583	0.666752
H163	H	-0.182242	-0.063510	0.000152
H164	H	0.151091	0.269824	0.333485
H165	H	0.484425	0.603157	0.666818
C166	C	-0.545812	0.006163	0.000131
C167	C	-0.212479	0.339496	0.333465
C168	C	0.120855	0.672829	0.666798
N169	N	-0.514533	0.080960	0.000139
N170	N	-0.181200	0.414294	0.333473
N171	N	0.152133	0.747627	0.666806
H172	H	-0.170195	-0.375868	0.000114
H173	H	0.163138	-0.042535	0.333447
H174	H	0.496471	0.290798	0.666780
H175	H	-0.428245	-0.092961	0.000160
H176	H	-0.094911	0.240373	0.333493
H177	H	0.238422	0.573706	0.666827
