data_functionalizedCrystal
_audit_creation_method	'MofGen! by Chris Wilmer'
_symmetry_space_group_name_H-M	'P1'
_symmetry_Int_Tables_number	1
_symmetry_cell_setting	triclinic
loop_
_symmetry_equiv_pos_as_xyz
  x,y,z
_cell_length_a	23.532355
_cell_length_b	23.532407
_cell_length_c	22.010155
_cell_angle_alpha	90.009202
_cell_angle_beta	90.009876
_cell_angle_gamma	82.838088
loop_
_atom_site_label
_atom_site_type_symbol
_atom_site_fract_x
_atom_site_fract_y
_atom_site_fract_z
O1	O	0.755288	0.068993	0.050449
O2	O	0.589420	0.079027	0.050469
O3	O	0.677356	-0.008923	0.050447
O4	O	0.667353	0.156942	0.050470
O5	O	0.677330	-0.008923	-0.050603
O6	O	0.589394	0.079027	-0.050582
O7	O	0.755262	0.068993	-0.050602
Cu8	Cu	0.672326	0.074010	-0.059818
Cu9	Cu	0.672357	0.074010	0.059685
O10	O	0.667326	0.156942	-0.050580
C11	C	0.568191	0.078776	-0.000054
C12	C	0.504972	0.078022	-0.000047
C13	C	0.677088	-0.030139	-0.000080
C14	C	0.676322	-0.093356	-0.000084
C15	C	0.112944	0.073284	-0.055155
C16	C	0.053545	0.072566	-0.055158
O17	O	0.022814	0.072176	-0.102003
N18	N	0.023850	0.072211	-0.000076
C19	C	0.053560	0.072567	0.055013
O20	O	0.022848	0.072198	0.101864
C21	C	0.112958	0.073280	0.055015
C22	C	0.142649	0.073641	-0.000071
C23	C	0.142634	0.073645	-0.110237
C24	C	0.202029	0.074363	-0.110234
C25	C	0.231734	0.074721	-0.055150
C26	C	0.202044	0.074360	-0.000069
C27	C	0.142667	0.073632	0.110102
C28	C	0.202070	0.074345	0.110099
C29	C	0.231760	0.074706	0.055014
C30	C	0.291144	0.075436	0.055018
N31	N	0.320838	0.075792	-0.000064
C32	C	0.291133	0.075434	-0.055148
C33	C	-0.071182	0.071068	0.055005
C34	C	-0.130580	0.070358	0.055004
C35	C	-0.130591	0.070357	-0.055167
C36	C	-0.071192	0.071070	-0.055165
C37	C	-0.041488	0.071423	-0.000077
C38	C	0.415867	0.076944	-0.055138
C39	C	0.475267	0.077664	-0.055131
C40	C	0.475273	0.077663	0.055040
C41	C	0.415878	0.076945	0.055032
C42	C	0.386177	0.076583	-0.000061
O43	O	0.321913	0.075825	0.101839
O44	O	0.321853	0.075796	-0.101992
C45	C	0.723557	-0.492468	-0.000057
C46	C	0.722845	-0.551868	-0.000052
O47	O	0.766632	-0.588620	-0.000035
N48	N	0.670568	-0.574484	-0.000046
C49	C	0.618998	-0.537697	-0.000039
O50	O	0.574467	-0.562388	-0.000033
C51	C	0.619710	-0.478298	-0.000039
C52	C	0.671991	-0.455685	-0.000051
C53	C	0.775834	-0.469854	-0.000068
C54	C	0.776545	-0.410458	-0.000074
C55	C	0.724979	-0.373676	-0.000068
C56	C	0.672703	-0.396289	-0.000057
C57	C	0.568141	-0.441512	-0.000027
C58	C	0.568858	-0.382110	-0.000027
C59	C	0.621139	-0.359497	-0.000039
C60	C	0.621848	-0.300110	-0.000057
N61	N	0.674126	-0.277494	-0.000063
C62	C	0.725691	-0.314277	-0.000069
C63	C	0.617507	-0.662439	-0.000037
C64	C	0.616794	-0.721837	-0.000041
C65	C	0.720642	-0.736004	-0.000053
C66	C	0.721354	-0.676605	-0.000053
C67	C	0.669784	-0.639823	-0.000043
C68	C	0.727181	-0.189540	-0.000082
C69	C	0.727888	-0.130138	-0.000090
C70	C	0.624041	-0.115977	-0.000074
C71	C	0.623334	-0.175373	-0.000069
C72	C	0.674909	-0.212154	-0.000071
O73	O	0.578084	-0.263323	-0.000072
O74	O	0.770216	-0.289577	-0.000067
C75	C	0.776491	0.069244	-0.000078
C76	C	0.839710	0.069998	-0.000081
C77	C	0.667594	0.178158	-0.000052
C78	C	0.668360	0.241375	-0.000043
N79	N	0.672308	0.074009	-0.143871
C80	C	0.706703	0.108364	-0.563650
C81	C	0.706710	0.108362	-0.627257
O82	O	0.735934	0.137568	-0.660148
N83	N	0.672368	0.074003	-0.659078
C84	C	0.638021	0.039639	-0.627288
O85	O	0.608812	0.010413	-0.660194
C86	C	0.638018	0.039638	-0.563681
C87	C	0.672358	0.074003	-0.531864
C88	C	0.741041	0.142726	-0.531832
C89	C	0.741033	0.142728	-0.468229
C90	C	0.706688	0.108368	-0.436443
C91	C	0.672350	0.074006	-0.468261
C92	C	0.603675	0.005271	-0.531892
C93	C	0.603675	0.005272	-0.468282
C94	C	0.638015	0.039638	-0.436464
C95	C	0.637997	0.039647	-0.372872
N96	N	0.672339	0.074006	-0.341051
C97	C	0.706685	0.108367	-0.372837
C98	C	0.638032	0.039643	-0.760866
C99	C	0.638031	0.039647	-0.824471
C100	C	0.706721	0.108370	-0.824436
C101	C	0.706717	0.108369	-0.760829
C102	C	0.672373	0.074003	-0.729045
C103	C	0.706665	0.108369	-0.239265
C104	C	0.706653	0.108370	-0.175657
C105	C	0.637966	0.039645	-0.175697
C106	C	0.637976	0.039646	-0.239300
C107	C	0.672330	0.074010	-0.271083
O108	O	0.608790	0.010455	-0.339940
O109	O	0.735895	0.137582	-0.339922
N110	N	0.672379	0.074006	0.143738
H111	H	0.499438	0.077961	-0.099990
H112	H	-0.047001	0.071360	0.099867
H113	H	0.582057	-0.086018	-0.000072
H114	H	0.575510	-0.632494	-0.000033
H115	H	0.118455	0.073352	-0.155095
O116	O	0.570276	-0.028029	-0.437341
C117	C	0.531201	0.006902	-0.400567
H118	H	0.548680	0.049068	-0.391022
H119	H	0.488347	0.015845	-0.425096
C120	C	0.501328	-0.075768	-0.351881
C121	C	0.522799	-0.023982	-0.340153
H122	H	0.496143	-0.094819	-0.314616
H123	H	0.527652	-0.099303	-0.376657
H124	H	0.465618	-0.068308	-0.372323
H125	H	0.558511	-0.031443	-0.319719
H126	H	0.496481	-0.000449	-0.315372
O127	O	0.387105	0.076622	-0.108710
C128	C	0.426059	0.077080	-0.157319
H129	H	0.465938	0.095623	-0.141157
H130	H	0.438616	0.031461	-0.174265
C131	C	0.348799	0.091384	-0.229210
C132	C	0.397777	0.114163	-0.209360
H133	H	0.331353	0.114256	-0.261313
H134	H	0.322555	0.091073	-0.196462
H135	H	0.359270	0.053369	-0.243328
H136	H	0.387305	0.152174	-0.195236
H137	H	0.424019	0.114481	-0.242108
H138	H	0.575712	-0.022714	-0.557787
O139	O	0.770682	-0.771821	-0.000024
C140	C	0.758837	-0.829095	-0.000033
H141	H	0.714118	-0.831108	0.019099
H142	H	0.761086	-0.846298	-0.048510
C143	C	0.858191	-0.863227	0.016100
C144	C	0.803268	-0.865701	0.039604
H145	H	0.885599	-0.885809	0.040547
H146	H	0.866172	-0.824641	0.016104
H147	H	0.860057	-0.877562	-0.024297
H148	H	0.801400	-0.851359	0.079997
H149	H	0.795288	-0.904286	0.039608
H150	H	0.118504	0.073337	0.154959
O151	O	0.604575	0.006347	-0.144746
C152	C	0.565505	0.041276	-0.107965
H153	H	0.582979	0.083446	-0.098432
H154	H	0.522643	0.050210	-0.132482
C155	C	0.535659	-0.041397	-0.059258
C156	C	0.557123	0.010396	-0.047544
H157	H	0.530486	-0.060446	-0.021988
H158	H	0.561980	-0.064929	-0.084039
H159	H	0.499943	-0.033945	-0.079690
H160	H	0.592841	0.002942	-0.027120
H161	H	0.530808	0.033926	-0.022758
O162	O	0.740110	0.141667	-0.729857
C163	C	0.779180	0.106737	-0.693075
H164	H	0.761700	0.064571	-0.683555
H165	H	0.822038	0.097794	-0.717584
C166	C	0.809046	0.189408	-0.644344
C167	C	0.787574	0.137621	-0.632646
H168	H	0.814226	0.208459	-0.607070
H169	H	0.782725	0.212942	-0.669126
H170	H	0.844759	0.181948	-0.664770
H171	H	0.751859	0.145082	-0.612228
H172	H	0.813889	0.114089	-0.607859
O173	O	0.777243	-0.225321	-0.000167
C174	C	0.779934	-0.260103	-0.052508
H175	H	0.734743	-0.262861	-0.069946
H176	H	0.805816	-0.240707	-0.089161
C177	C	0.864465	-0.317182	-0.015195
C178	C	0.808959	-0.320574	-0.036610
H179	H	0.882371	-0.354482	-0.005390
H180	H	0.862653	-0.293747	0.020067
H181	H	0.886025	-0.301017	-0.045743
H182	H	0.787398	-0.336731	-0.006059
H183	H	0.810768	-0.344012	-0.071867
H184	H	0.580762	-0.193785	-0.000076
O185	O	0.518799	-0.346323	-0.000099
C186	C	0.516077	-0.311559	-0.052444
H187	H	0.561258	-0.308811	-0.069901
H188	H	0.490170	-0.330964	-0.089084
C189	C	0.431575	-0.254460	-0.015103
C190	C	0.487068	-0.251081	-0.036542
H191	H	0.413678	-0.217155	-0.005296
H192	H	0.433407	-0.277882	0.020162
H193	H	0.409993	-0.270633	-0.045640
H194	H	0.508650	-0.234915	-0.006002
H195	H	0.485238	-0.227654	-0.071801
H196	H	0.226199	0.074654	-0.155091
H197	H	0.734616	0.136357	-0.149754
H198	H	0.610006	0.011670	-0.265207
O199	O	0.740104	0.141798	-0.855225
C200	C	0.770428	0.172117	-0.813507
H201	H	0.746833	0.175572	-0.768171
H202	H	0.815263	0.148418	-0.806735
C203	C	0.803842	0.228342	-0.894011
C204	C	0.774859	0.232589	-0.838330
H205	H	0.806578	0.265643	-0.909323
H206	H	0.783414	0.207914	-0.922118
H207	H	0.841202	0.208590	-0.888360
H208	H	0.737498	0.252335	-0.843983
H209	H	0.795282	0.253022	-0.810225
O210	O	-0.042437	0.071390	-0.108730
C211	C	-0.081403	0.070938	-0.157344
H212	H	-0.121280	0.052399	-0.141194
H213	H	-0.093958	0.116558	-0.174275
C214	C	-0.004158	0.056630	-0.229230
C215	C	-0.053135	0.033856	-0.209395
H216	H	0.013278	0.033759	-0.261339
H217	H	0.022094	0.056937	-0.196478
H218	H	-0.014628	0.094647	-0.243335
H219	H	-0.042664	-0.004157	-0.195284
H220	H	-0.079385	0.033542	-0.242146
O221	O	-0.159461	0.069900	-0.108663
C222	C	-0.187093	0.020159	-0.111951
H223	H	-0.164478	-0.014099	-0.080693
H224	H	-0.233630	0.030768	-0.097150
C225	C	-0.212740	0.039847	-0.216153
C226	C	-0.184960	-0.002231	-0.177765
H227	H	-0.211427	0.026037	-0.256750
H228	H	-0.194126	0.073360	-0.213938
H229	H	-0.251519	0.048685	-0.203811
H230	H	-0.146181	-0.011062	-0.190103
H231	H	-0.203568	-0.035746	-0.179984
O232	O	0.517370	-0.463498	-0.000117
C233	C	0.513827	-0.497453	-0.052438
H234	H	0.543493	-0.483587	-0.089030
H235	H	0.527235	-0.544373	-0.040604
C236	C	0.415337	-0.506928	-0.031203
C237	C	0.451769	-0.489893	-0.076148
H238	H	0.377057	-0.502266	-0.045828
H239	H	0.417724	-0.484053	0.004048
H240	H	0.426517	-0.546026	-0.021346
H241	H	0.440593	-0.450793	-0.085999
H242	H	0.449379	-0.512761	-0.111402
H243	H	-0.154750	0.070073	0.099860
O244	O	0.604654	0.006217	-0.855282
C245	C	0.574329	-0.024096	-0.813581
H246	H	0.597921	-0.027540	-0.768235
H247	H	0.529492	-0.000398	-0.806825
C248	C	0.540925	-0.080340	-0.894106
C249	C	0.569904	-0.084574	-0.838412
H250	H	0.538193	-0.117645	-0.909424
H251	H	0.561354	-0.059916	-0.922201
H252	H	0.503564	-0.060589	-0.888468
H253	H	0.607266	-0.104318	-0.844052
H254	H	0.549481	-0.105003	-0.810318
H255	H	0.391702	0.076660	0.099888
H256	H	0.226252	0.074632	0.154960
O257	O	0.565958	-0.743705	-0.000009
C258	C	0.520602	-0.698495	-0.000022
H259	H	0.536341	-0.658229	0.019103
H260	H	0.504701	-0.690007	-0.048499
C261	C	0.451945	-0.764425	0.016125
C262	C	0.471275	-0.714970	0.039620
H263	H	0.421516	-0.774587	0.040575
H264	H	0.482502	-0.794884	0.016132
H265	H	0.438698	-0.757345	-0.024272
H266	H	0.484528	-0.722053	0.080013
H267	H	0.440719	-0.684513	0.039621
H268	H	0.734640	0.136351	-0.265135
H269	H	0.770463	-0.111731	-0.000101
H270	H	0.819117	-0.392053	-0.000081
O271	O	0.774449	0.176121	-0.437420
C272	C	0.804751	0.206453	-0.479125
H273	H	0.808204	0.182855	-0.524468
H274	H	0.781038	0.251282	-0.485889
C275	C	0.860980	0.239888	-0.398605
C276	C	0.865225	0.210902	-0.454294
H277	H	0.898282	0.242635	-0.383287
H278	H	0.840564	0.219455	-0.370507
H279	H	0.841217	0.277243	-0.404249
H280	H	0.884981	0.173546	-0.448648
H281	H	0.885646	0.231329	-0.482391
O282	O	0.825914	-0.505602	0.000033
C283	C	0.828630	-0.540391	0.052358
H284	H	0.799387	-0.518474	0.088944
H285	H	0.814148	-0.583511	0.040528
C286	C	0.926576	-0.576670	0.031140
C287	C	0.890664	-0.549749	0.076077
H288	H	0.964842	-0.582445	0.045770
H289	H	0.924747	-0.553234	-0.004114
H290	H	0.914501	-0.612600	0.021285
H291	H	0.902734	-0.513817	0.085926
H292	H	0.892497	-0.573179	0.111334
H293	H	0.499469	0.077956	0.099888
O294	O	0.604623	0.006348	-0.729928
C295	C	0.565551	0.041284	-0.693155
H296	H	0.583038	0.083444	-0.683604
H297	H	0.522699	0.050237	-0.717688
C298	C	0.535656	-0.041382	-0.644480
C299	C	0.557137	0.010398	-0.632745
H300	H	0.530463	-0.060435	-0.607217
H301	H	0.561978	-0.064920	-0.669256
H302	H	0.499949	-0.033914	-0.664925
H303	H	0.592847	0.002928	-0.612308
H304	H	0.530820	0.033933	-0.607965
H305	H	0.763925	-0.658198	-0.000063
H306	H	0.769012	0.170707	-0.557705
