data_functionalizedCrystal
_audit_creation_method	'MofGen! by Chris Wilmer'
_symmetry_space_group_name_H-M	'P1'
_symmetry_Int_Tables_number	1
_symmetry_cell_setting	triclinic
loop_
_symmetry_equiv_pos_as_xyz
  x,y,z
_cell_length_a	11.169417
_cell_length_b	13.032721
_cell_length_c	11.169417
_cell_angle_alpha	82.831859
_cell_angle_beta	90.000863
_cell_angle_gamma	97.204996
loop_
_atom_site_label
_atom_site_type_symbol
_atom_site_fract_x
_atom_site_fract_y
_atom_site_fract_z
Zn1	Zn	1.773924	-0.416203	0.739203
Zn2	Zn	1.748350	-0.590926	0.563986
Zn3	Zn	1.573278	-0.416192	0.538536
Zn4	Zn	1.547689	-0.590916	0.764629
O5	O	1.660810	-0.503559	0.651588
O6	O	1.938480	-0.439390	0.715970
O7	O	1.725133	-0.567746	0.392660
O8	O	1.621306	-0.269949	0.543863
O9	O	1.919691	-0.567757	0.587239
O10	O	1.768720	-0.269957	0.691292
O11	O	1.596508	-0.439370	0.373962
O12	O	1.401935	-0.439360	0.568518
O13	O	1.577693	-0.567741	0.929206
O14	O	1.383135	-0.567730	0.734627
O15	O	1.743907	-0.439380	0.910526
O16	O	1.700320	-0.737169	0.611893
O17	O	1.552895	-0.737162	0.759305
C18	C	1.348988	-0.503543	0.651571
C19	C	1.215585	-0.503562	0.651595
C20	C	1.621089	-0.775085	0.691146
C21	C	1.604205	-0.891245	0.708109
C22	C	1.669686	-0.943002	0.642789
C23	C	1.652237	-1.063059	0.660320
C24	C	1.973850	-0.503576	0.651607
C25	C	2.107249	-0.503583	0.651615
C26	C	1.660799	-0.503561	0.964631
C27	C	1.660794	-0.503562	1.098031
C28	C	1.700720	-0.230973	0.611903
C29	C	1.717727	-0.114813	0.594991
C30	C	1.660805	-0.503577	1.339766
C31	C	1.660797	-0.503563	1.206364
H32	H	1.738668	-0.898433	0.573893
H33	H	1.786714	-1.070247	0.526090
H34	H	1.535233	-0.935816	0.777014
Cl35	Cl	1.545739	-1.131861	0.766712
