data_functionalizedCrystal
_audit_creation_method	'MofGen! by Chris Wilmer'
_symmetry_space_group_name_H-M	'P1'
_symmetry_Int_Tables_number	1
_symmetry_cell_setting	triclinic
loop_
_symmetry_equiv_pos_as_xyz
  x,y,z
_cell_length_a	16.625548
_cell_length_b	25.639239
_cell_length_c	25.639234
_cell_angle_alpha	90.024584
_cell_angle_beta	90.018209
_cell_angle_gamma	90.039754
loop_
_atom_site_label
_atom_site_type_symbol
_atom_site_fract_x
_atom_site_fract_y
_atom_site_fract_z
Zn1	Zn	1.232571	-0.208169	0.295620
Zn2	Zn	1.232441	-0.295597	0.208184
Zn3	Zn	1.097738	-0.208179	0.208197
Zn4	Zn	1.097665	-0.295577	0.295587
O5	O	1.165104	-0.251881	0.251897
O6	O	1.345386	-0.219771	0.284029
O7	O	1.214549	-0.284013	0.135021
O8	O	1.115709	-0.135013	0.219813
O9	O	1.345291	-0.284004	0.219791
O10	O	1.214770	-0.135005	0.284042
O11	O	1.115583	-0.219788	0.135030
O12	O	0.984896	-0.219768	0.219782
O13	O	1.115584	-0.283970	0.368757
O14	O	0.984842	-0.283979	0.283987
O15	O	1.214699	-0.219752	0.368781
O16	O	1.214478	-0.368760	0.219759
O17	O	1.115458	-0.368745	0.283974
C18	C	0.955613	-0.251873	0.251882
C19	C	0.865992	-0.251883	0.251889
C20	C	0.537816	-0.251886	0.251911
C21	C	0.629125	-0.251884	0.251903
C22	C	0.701901	-0.251885	0.251899
C23	C	0.793215	-0.251882	0.251892
C24	C	1.164968	-0.387723	0.251873
C25	C	1.164984	-0.445837	0.251880
C26	C	1.216798	-0.806195	0.218517
C27	C	1.216829	-0.860800	0.218524
O28	O	1.260743	-0.889032	0.190132
N29	N	1.165246	-0.888120	0.251932
C30	C	1.113633	-0.860833	0.285338
O31	O	1.069761	-0.889084	0.313755
C32	C	1.113606	-0.806229	0.285333
C33	C	1.165188	-0.778912	0.251920
C34	C	1.268376	-0.778878	0.185107
C35	C	1.268343	-0.724278	0.185100
C36	C	1.216733	-0.696994	0.218502
C37	C	1.165155	-0.724312	0.251912
C38	C	1.061999	-0.778943	0.318742
C39	C	1.061977	-0.724336	0.318734
C40	C	1.113558	-0.697019	0.285321
C41	C	1.113512	-0.642428	0.285307
N42	N	1.165096	-0.615108	0.251900
C43	C	1.216706	-0.642391	0.218498
C44	C	1.113694	-0.975503	0.285346
C45	C	1.113716	-1.030106	0.285349
C46	C	1.216913	-1.030069	0.218536
C47	C	1.216887	-0.975466	0.218531
C48	C	1.165277	-0.948183	0.251939
C49	C	1.216634	-0.527726	0.218484
C50	C	1.216594	-0.473121	0.218478
C51	C	1.113400	-0.473162	0.285293
C52	C	1.113436	-0.527763	0.285297
C53	C	1.165060	-0.555043	0.251891
O54	O	1.069624	-0.614161	0.313687
O55	O	1.260579	-0.614133	0.190091
C56	C	1.375413	-0.251889	0.251912
C57	C	1.465034	-0.251892	0.251918
C58	C	1.165148	-0.251858	0.388270
C59	C	1.165166	-0.251848	0.446384
C60	C	1.165262	-0.115508	0.251933
C61	C	1.165329	-0.057394	0.251948
C62	C	1.165107	-0.251866	0.116055
C63	C	1.165244	-0.251729	0.057941
C64	C	1.216719	-0.285247	0.697565
C65	C	1.216710	-0.285258	0.642961
O66	O	1.260505	-0.313713	0.614713
N67	N	1.165184	-0.251822	0.615658
C68	C	1.113656	-0.218377	0.642963
O69	O	1.069827	-0.189939	0.614726
C70	C	1.113661	-0.218370	0.697566
C71	C	1.165197	-0.251804	0.724866
C72	C	1.268250	-0.318679	0.724865
C73	C	1.268259	-0.318667	0.779466
C74	C	1.216738	-0.285224	0.806766
C75	C	1.165207	-0.251792	0.779466
C76	C	1.062130	-0.184928	0.724870
C77	C	1.062139	-0.184923	0.779477
C78	C	1.113675	-0.218357	0.806776
C79	C	1.113694	-0.218337	0.861368
N80	N	1.165221	-0.251772	0.888670
C81	C	1.216743	-0.285216	0.861370
C82	C	1.113649	-0.218397	0.528292
C83	C	1.113647	-0.218402	0.473690
C84	C	1.216700	-0.285284	0.473692
C85	C	1.216705	-0.285276	0.528295
C86	C	1.165175	-0.251833	0.555595
C87	C	1.216759	-0.285188	0.976035
C88	C	1.216766	-0.285172	1.030640
C89	C	1.113710	-0.218293	1.030633
C90	C	1.113706	-0.218307	0.976033
C91	C	1.165233	-0.251759	0.948735
O92	O	1.069920	-0.189898	0.889650
O93	O	1.260557	-0.313654	0.889613
H94	H	1.258672	-0.549931	0.191283
H95	H	1.310407	-0.801086	0.157907
N96	N	1.269334	-0.319438	0.445791
N97	N	1.269318	-0.319435	0.397038
H98	H	1.306491	-0.343552	0.377331
N99	N	1.269291	-0.445215	0.184351
N100	N	1.320638	-0.414698	0.202769
H101	H	1.357853	-0.394989	0.178668
H102	H	1.310223	-0.345894	0.801688
N103	N	1.009257	-0.696477	0.352868
N104	N	0.963213	-0.720878	0.382696
H105	H	0.925979	-0.701204	0.406803
H106	H	1.071705	-1.052343	0.312552
H107	H	1.071765	-0.191063	1.052872
N108	N	1.009491	-0.150777	0.696986
N109	N	1.037877	-0.117460	0.666529
H110	H	1.000697	-0.093340	0.646837
N111	N	1.321039	-0.696386	0.150966
N112	N	1.367113	-0.720762	0.121148
H113	H	1.404334	-0.701067	0.097040
H114	H	1.258736	-0.312398	1.052865
H115	H	1.258722	-0.312425	0.953815
N116	N	1.269578	-0.947572	0.184396
N117	N	1.315648	-0.971945	0.154574
H118	H	1.352865	-0.952249	0.130464
N119	N	1.320884	-0.352849	0.696992
N120	N	1.366883	-0.382695	0.721384
H121	H	1.404064	-0.406828	0.701702
N122	N	1.060965	-0.947645	0.319476
N123	N	1.014916	-0.972050	0.349299
H124	H	0.977677	-0.952378	0.373404
N125	N	1.269359	-0.319426	0.556170
N126	N	1.315361	-0.349278	0.531782
H127	H	1.352552	-0.373398	0.551466
N128	N	1.060730	-0.555662	0.319421
N129	N	1.014647	-0.531292	0.349238
H130	H	0.977425	-0.550992	0.373341
N131	N	1.061024	-0.184238	0.445807
N132	N	1.066435	-0.135993	0.451920
H133	H	1.029266	-0.111864	0.432229
N134	N	1.269627	-1.057952	0.184416
N135	N	1.269639	-1.106704	0.184430
H136	H	1.306864	-1.126399	0.160335
H137	H	1.019992	-0.801176	0.345948
N138	N	1.060682	-0.445279	0.319403
N139	N	1.060668	-0.396527	0.319388
H140	H	1.023437	-0.376832	0.343480
H141	H	1.071689	-0.191159	0.550516
N142	N	1.061090	-0.184142	0.948140
N143	N	1.066508	-0.135896	0.954247
H144	H	1.029347	-0.111768	0.934549
H145	H	1.020177	-0.157689	0.801701
