data_functionalizedCrystal
_audit_creation_method	'MofGen! by Chris Wilmer'
_symmetry_space_group_name_H-M	'P1'
_symmetry_Int_Tables_number	1
_symmetry_cell_setting	triclinic
loop_
_symmetry_equiv_pos_as_xyz
  x,y,z
_cell_length_a	13.596369
_cell_length_b	14.519709
_cell_length_c	14.519709
_cell_angle_alpha	83.680145
_cell_angle_beta	89.998664
_cell_angle_gamma	89.999684
loop_
_atom_site_label
_atom_site_type_symbol
_atom_site_fract_x
_atom_site_fract_y
_atom_site_fract_z
O1	O	0.081665	-1.223870	-0.120885
O2	O	0.414999	-0.890537	0.212448
O3	O	0.748332	-0.557203	0.545782
O4	O	0.081696	-0.955393	-0.135122
O5	O	0.415029	-0.622060	0.198212
O6	O	0.748362	-0.288727	0.531545
O7	O	0.081671	-1.096750	0.006235
O8	O	0.415004	-0.763417	0.339568
O9	O	0.748338	-0.430083	0.672902
O10	O	0.081690	-1.082513	-0.262242
O11	O	0.415024	-0.749180	0.071092
O12	O	0.748357	-0.415847	0.404425
O13	O	-0.081912	-1.096732	0.006227
O14	O	0.251421	-0.763399	0.339561
O15	O	0.584755	-0.430066	0.672894
O16	O	-0.081887	-0.955376	-0.135129
O17	O	0.251446	-0.622042	0.198204
O18	O	0.584780	-0.288709	0.531537
O19	O	-0.081917	-1.223853	-0.120893
O20	O	0.251416	-0.890519	0.212440
O21	O	0.584749	-0.557186	0.545774
Zn22	Zn	-0.107875	-1.089611	-0.128012
Zn23	Zn	0.225459	-0.756278	0.205321
Zn24	Zn	0.558792	-0.422945	0.538654
Zn25	Zn	0.107653	-1.089634	-0.128002
Zn26	Zn	0.440986	-0.756301	0.205331
Zn27	Zn	0.774320	-0.422968	0.538665
O28	O	-0.081893	-1.082496	-0.262250
O29	O	0.251441	-0.749163	0.071084
O30	O	0.584774	-0.415829	0.404417
C31	C	-0.000092	-0.921025	-0.134462
C32	C	0.333241	-0.587691	0.198871
C33	C	0.666575	-0.254358	0.532205
C34	C	-0.000081	-0.818643	-0.132474
C35	C	0.333253	-0.485310	0.200859
C36	C	0.666586	-0.151977	0.534193
N37	N	-0.254966	-1.089603	-0.128019
N38	N	0.078367	-0.756269	0.205314
N39	N	0.411700	-0.422936	0.538648
C40	C	-0.000121	-1.096078	0.040591
C41	C	0.333213	-0.762744	0.373924
C42	C	0.666546	-0.429411	0.707258
C43	C	-0.000121	-1.094090	0.142972
C44	C	0.333212	-0.760756	0.476306
C45	C	0.666546	-0.427423	0.809639
C46	C	-0.343964	-1.089607	-0.128021
C47	C	-0.010631	-0.756274	0.205312
C48	C	0.322702	-0.422941	0.538646
C49	C	-0.455616	-1.089616	-0.128015
C50	C	-0.122282	-0.756283	0.205319
C51	C	0.211051	-0.422949	0.538652
C52	C	-0.544606	-1.089628	-0.128004
C53	C	-0.211273	-0.756295	0.205329
C54	C	0.122060	-0.422962	0.538662
C55	C	-0.656265	-1.089639	-0.127999
C56	C	-0.322931	-0.756305	0.205335
C57	C	0.010402	-0.422972	0.538668
N58	N	0.254745	-1.089651	-0.127988
N59	N	0.588078	-0.756317	0.205345
N60	N	0.921411	-0.422984	0.538678
C61	C	-0.000128	-1.258221	-0.121553
C62	C	0.333206	-0.924888	0.211781
C63	C	0.666539	-0.591554	0.545114
C64	C	-0.000132	-1.360602	-0.123541
C65	C	0.333201	-1.027269	0.209793
C66	C	0.666534	-0.693936	0.543126
C67	C	-0.000126	-0.443748	-0.125154
C68	C	0.333207	-0.110414	0.208179
C69	C	0.666541	0.222919	0.541512
C70	C	-0.000113	-0.548056	-0.127187
C71	C	0.333220	-0.214722	0.206146
C72	C	0.666554	0.118611	0.539480
C73	C	-0.000102	-0.631192	-0.128814
C74	C	0.333231	-0.297859	0.204519
C75	C	0.666564	0.035474	0.537853
C76	C	-0.000091	-0.735507	-0.130847
C77	C	0.333242	-0.402173	0.202486
C78	C	0.666575	-0.068840	0.535820
C79	C	-0.000099	-1.083168	-0.296606
C80	C	0.333234	-0.749835	0.036728
C81	C	0.666568	-0.416501	0.370061
C82	C	-0.000092	-1.085156	-0.398987
C83	C	0.333241	-0.751823	-0.065653
C84	C	0.666575	-0.418490	0.267680
C85	C	-0.000095	-1.086770	0.517868
C86	C	0.333239	-0.753437	0.851201
C87	C	0.666572	-0.420103	1.184535
C88	C	-0.000102	-1.088803	0.413560
C89	C	0.333231	-0.755469	0.746893
C90	C	0.666564	-0.422136	1.080227
C91	C	-0.000109	-1.090430	0.330423
C92	C	0.333225	-0.757096	0.663757
C93	C	0.666558	-0.423763	0.997090
C94	C	-0.000114	-1.092463	0.226109
C95	C	0.333219	-0.759129	0.559442
C96	C	0.666552	-0.425796	0.892776
