data_functionalizedCrystal
_audit_creation_method	'MofGen! by Chris Wilmer'
_symmetry_space_group_name_H-M	'P1'
_symmetry_Int_Tables_number	1
_symmetry_cell_setting	triclinic
loop_
_symmetry_equiv_pos_as_xyz
  x,y,z
_cell_length_a	13.032831
_cell_length_b	18.101395
_cell_length_c	13.032268
_cell_angle_alpha	97.146252
_cell_angle_beta	90.886977
_cell_angle_gamma	82.835691
loop_
_atom_site_label
_atom_site_type_symbol
_atom_site_fract_x
_atom_site_fract_y
_atom_site_fract_z
Zn1	Zn	1.498320	-0.500117	-0.780796
Zn2	Zn	1.520028	-0.610451	-0.608808
Zn3	Zn	1.348189	-0.469181	-0.587040
Zn4	Zn	1.326277	-0.606447	-0.758934
O5	O	1.423203	-0.546549	-0.683894
O6	O	1.645116	-0.529375	-0.776242
O7	O	1.515487	-0.580440	-0.462005
O8	O	1.368189	-0.369663	-0.612782
O9	O	1.661064	-0.610437	-0.649882
O10	O	1.478491	-0.392391	-0.755134
O11	O	1.389238	-0.476650	-0.446012
O12	O	1.201366	-0.472767	-0.591582
O13	O	1.330844	-0.603613	-0.905750
O14	O	1.185268	-0.573616	-0.717872
O15	O	1.457244	-0.525493	-0.921812
O16	O	1.494241	-0.713541	-0.628683
O17	O	1.351893	-0.710600	-0.738979
C18	C	1.156001	-0.519401	-0.649993
C19	C	1.041687	-0.507806	-0.635514
C20	C	0.982797	-0.552600	-0.691451
C21	C	0.864648	-0.540618	-0.676488
C22	C	1.423070	-0.738943	-0.683847
C23	C	1.423102	-0.821262	-0.683873
C24	C	1.423321	-1.120381	-0.683957
C25	C	1.333919	-1.087270	-0.753573
C26	C	1.333573	-1.001594	-0.753276
C27	C	1.423212	-0.971985	-0.683916
C28	C	1.407642	-0.991648	-0.571811
C29	C	1.407070	-1.077279	-0.572223
C30	C	1.528588	-1.101951	-0.725513
C31	C	1.527646	-1.016421	-0.727809
C32	C	1.423153	-0.888117	-0.683886
C33	C	1.423378	-1.204247	-0.683979
C34	C	1.691449	-0.573804	-0.717929
C35	C	1.805759	-0.585418	-0.732432
C36	C	1.389178	-0.567557	-0.952140
C37	C	1.374679	-0.576509	-1.066450
C38	C	1.423363	-0.353408	-0.683968
C39	C	1.423431	-0.271103	-0.684000
C40	C	1.430755	-0.541848	-1.125361
C41	C	1.415770	-0.551100	-1.243507
C42	C	1.457155	-0.525575	-0.416700
C43	C	1.471854	-0.516434	-0.302416
H44	H	1.019848	-0.599818	-0.750422
H45	H	0.842804	-0.632638	-0.791410
H46	H	1.530954	-0.479903	-1.265390
C47	C	1.551398	-1.142962	-0.835047
C48	C	1.561965	-1.229258	-0.853962
C49	C	1.584761	-1.270269	-0.963499
C50	C	1.596991	-1.224984	-1.054120
C51	C	1.586424	-1.138684	-1.035208
C52	C	1.563628	-1.097673	-0.925672
H53	H	1.552911	-1.262785	-0.786876
H54	H	1.592583	-1.334155	-0.977498
H55	H	1.613866	-1.255343	-1.135206
H56	H	1.595477	-1.105157	-1.102294
H57	H	1.555806	-1.033787	-0.911672
C58	C	1.228754	-1.103509	-0.715318
C59	C	1.192352	-1.073201	-0.604488
C60	C	1.087191	-1.089445	-0.566229
C61	C	1.018432	-1.135997	-0.638800
C62	C	1.054833	-1.166308	-0.749637
C63	C	1.159994	-1.150064	-0.787896
H64	H	1.243252	-1.038738	-0.550760
H65	H	1.060244	-1.067006	-0.484180
H66	H	0.940585	-1.148021	-0.610479
H67	H	1.003933	-1.200771	-0.803365
H68	H	1.186940	-1.172503	-0.869945
C69	C	0.814611	-0.476820	-0.596819
C70	C	0.828239	-0.394796	-0.607266
C71	C	0.778200	-0.331000	-0.527599
C72	C	0.714535	-0.349228	-0.437486
C73	C	0.700904	-0.431256	-0.427035
C74	C	0.750942	-0.495052	-0.506702
H75	H	0.875371	-0.381299	-0.673976
H76	H	0.788291	-0.270277	-0.535336
H77	H	0.677493	-0.302002	-0.378512
H78	H	0.653772	-0.444753	-0.360324
H79	H	0.740851	-0.555774	-0.498965
C80	C	1.510601	-0.492504	-1.075348
C81	C	1.625663	-0.511565	-1.104851
C82	C	1.705512	-0.462219	-1.054843
C83	C	1.670300	-0.393812	-0.975332
C84	C	1.555233	-0.374747	-0.945825
C85	C	1.475384	-0.424093	-0.995833
H86	H	1.651734	-0.562208	-1.163713
H87	H	1.790692	-0.476333	-1.076686
H88	H	1.729409	-0.357283	-0.938313
H89	H	1.529162	-0.324104	-0.886963
H90	H	1.390204	-0.409979	-0.973990
C91	C	0.991646	-0.444012	-0.555850
C92	C	1.005274	-0.361988	-0.566296
C93	C	0.955235	-0.298191	-0.486629
C94	C	0.891569	-0.316419	-0.396516
C95	C	0.877939	-0.398447	-0.386066
C96	C	0.927977	-0.462244	-0.465732
H97	H	1.052405	-0.348491	-0.633007
H98	H	0.965326	-0.237469	-0.494366
H99	H	0.854528	-0.269194	-0.337542
H100	H	0.830807	-0.411944	-0.319355
H101	H	0.917886	-0.522966	-0.457996
C102	C	1.492217	-1.106340	-0.498753
C103	C	1.509061	-1.190111	-0.484140
C104	C	1.594202	-1.219167	-0.410665
C105	C	1.662497	-1.164451	-0.351803
C106	C	1.645655	-1.080674	-0.366414
C107	C	1.560515	-1.051619	-0.439889
H108	H	1.458503	-1.230620	-0.527715
H109	H	1.606669	-1.281184	-0.399850
H110	H	1.725523	-1.185960	-0.297413
H111	H	1.696214	-1.040166	-0.322839
H112	H	1.548048	-0.989601	-0.450705
H113	H	1.331997	-0.960395	-0.537896
H114	H	1.341720	-0.988702	-0.835969
H115	H	1.341850	-1.115992	-0.836504
H116	H	1.315571	-0.613028	-1.103481
C117	C	1.227792	-0.960983	-0.714617
C118	C	1.143371	-1.006503	-0.683912
C119	C	1.037585	-0.965892	-0.645249
C120	C	1.016221	-0.879762	-0.637290
C121	C	1.100645	-0.834238	-0.667996
C122	C	1.206431	-0.874848	-0.706659
H123	H	1.159184	-1.070266	-0.689803
H124	H	0.975089	-0.999593	-0.622519
H125	H	0.937912	-0.849700	-0.608669
H126	H	1.084832	-0.770474	-0.662105
H127	H	1.268927	-0.841147	-0.729389
H128	H	1.330530	-1.087401	-0.538622
H129	H	1.471316	-0.972170	-0.517925
C130	C	1.335920	-0.600447	-1.293517
C131	C	1.371133	-0.668854	-1.373029
C132	C	1.291284	-0.718199	-1.423040
C133	C	1.176223	-0.699137	-1.393540
C134	C	1.141004	-0.630727	-1.314024
C135	C	1.220852	-0.581382	-1.264012
H136	H	1.456314	-0.682967	-1.394871
H137	H	1.317356	-0.768841	-1.481903
H138	H	1.117114	-0.735666	-1.430561
H139	H	1.055823	-0.616614	-1.292182
H140	H	1.194780	-0.530740	-1.205149
H141	H	1.539638	-1.004566	-0.810379
H142	H	1.596674	-0.997101	-0.681897
H143	H	1.595027	-1.123643	-0.674977
