data_functionalizedCrystal
_audit_creation_method	'MofGen! by Chris Wilmer'
_symmetry_space_group_name_H-M	'P1'
_symmetry_Int_Tables_number	1
_symmetry_cell_setting	triclinic
loop_
_symmetry_equiv_pos_as_xyz
  x,y,z
_cell_length_a	17.699083
_cell_length_b	15.944493
_cell_length_c	16.176319
_cell_angle_alpha	89.999072
_cell_angle_beta	89.998611
_cell_angle_gamma	83.379029
loop_
_atom_site_label
_atom_site_type_symbol
_atom_site_fract_x
_atom_site_fract_y
_atom_site_fract_z
O1	O	1.004240	0.106225	-0.068620
O2	O	0.783883	0.120045	-0.068646
O3	O	0.900102	-0.009156	-0.068639
O4	O	0.888021	0.235426	-0.068627
O5	O	0.900086	-0.009164	0.068854
O6	O	0.783867	0.120037	0.068848
O7	O	1.004224	0.106217	0.068873
Cu8	Cu	0.894044	0.113126	0.081415
Cu9	Cu	0.894063	0.113136	-0.081187
O10	O	0.888005	0.235418	0.068867
C11	C	0.755677	0.119546	0.000097
C12	C	0.671657	0.118060	0.000087
C13	C	0.899600	-0.040454	0.000104
C14	C	0.898120	-0.133699	0.000093
C15	C	0.623151	0.193898	0.000091
C16	C	0.544206	0.192497	0.000102
C17	C	0.513767	0.115257	0.000102
C18	C	0.562279	0.039413	0.000101
C19	C	0.641223	0.040815	0.000096
C20	C	0.243908	0.033759	0.000121
C21	C	0.164958	0.032363	0.000123
C22	C	0.146890	0.185441	0.000127
C23	C	0.225834	0.186843	0.000122
C24	C	0.274339	0.110999	0.000125
C25	C	0.359940	0.112519	0.000115
C26	C	0.428167	0.113737	0.000107
C27	C	0.966529	-0.369603	0.000117
C28	C	0.929646	-0.420089	-0.067678
C29	C	0.895377	-0.304415	0.000103
C30	C	0.929614	-0.420074	0.067879
C31	C	0.892733	-0.469319	0.000116
C32	C	0.858514	-0.353673	-0.067748
C33	C	0.858492	-0.353654	0.067870
C34	C	0.821557	-0.404107	0.000059
C35	C	0.896902	-0.209418	0.000095
C36	C	0.891202	-0.564312	0.000119
C37	C	1.032430	0.106716	0.000128
C38	C	1.116450	0.108202	0.000133
C39	C	0.888507	0.266715	0.000122
C40	C	0.889987	0.359961	0.000127
N41	N	0.894036	0.113119	0.195780
N42	N	0.894077	0.113136	-0.195552
C43	C	0.945514	0.055932	0.239047
C44	C	0.945517	0.055931	0.325594
C45	C	0.894047	0.113122	0.368872
C46	C	0.842564	0.170311	0.325599
C47	C	0.842557	0.170307	0.239054
C48	C	0.842590	0.170327	0.674628
C49	C	0.842603	0.170328	0.761179
C50	C	0.945550	0.055950	0.761168
C51	C	0.945543	0.055947	0.674622
C52	C	0.894058	0.113133	0.631357
C53	C	0.894054	0.113132	0.537513
C54	C	0.894055	0.113127	0.462715
H55	H	0.647927	0.256796	0.000090
H56	H	0.680716	-0.020940	0.000092
H57	H	0.800638	0.216874	0.203826
C58	C	1.048419	0.037380	0.577104
C59	C	1.001988	-0.006995	0.626970
H60	H	1.083227	-0.001504	0.547667
H61	H	1.017753	0.071508	0.539018
H62	H	1.075776	0.072219	0.610812
H63	H	0.974626	-0.041830	0.593262
H64	H	1.032658	-0.041137	0.665061
C65	C	0.086664	-0.058027	-0.070553
C66	C	0.131500	-0.052547	0.000128
H67	H	0.066013	-0.110446	-0.070552
H68	H	0.046482	-0.013064	-0.070549
H69	H	0.117095	-0.054302	-0.118494
H70	H	0.101067	-0.056266	0.048069
H71	H	0.171687	-0.097522	0.000131
C72	C	0.819201	-0.226828	0.143991
C73	C	0.817951	-0.314468	0.145235
H74	H	0.794172	-0.202638	0.191755
H75	H	0.870414	-0.214421	0.143517
H76	H	0.793852	-0.203990	0.095861
H77	H	0.843305	-0.337308	0.193363
H78	H	0.766728	-0.326882	0.145717
C79	C	0.534276	0.343953	0.000092
C80	C	0.490888	0.275861	0.000102
H81	H	0.501358	0.395419	0.000089
H82	H	0.565444	0.341315	0.048033
H83	H	0.565442	0.341308	-0.047861
H84	H	0.459726	0.278503	0.048059
H85	H	0.459707	0.278500	-0.047843
C86	C	0.304115	0.277232	-0.070577
C87	C	0.259284	0.271750	0.000111
H88	H	0.324758	0.329655	-0.070585
H89	H	0.344302	0.232275	-0.070572
H90	H	0.273682	0.273497	-0.118513
H91	H	0.289719	0.275479	0.048048
H92	H	0.219092	0.316720	0.000113
H93	H	0.107387	0.247196	0.000129
C94	C	0.990026	-0.089535	0.787808
C95	C	1.002136	-0.006922	0.808728
H96	H	1.024963	-0.128346	0.817166
H97	H	0.939525	-0.098581	0.802000
H98	H	0.997391	-0.097707	0.730070
H99	H	0.994766	0.001253	0.866466
H100	H	1.052650	0.002128	0.794541
C101	C	0.869099	-0.273346	-0.191911
C102	C	0.817996	-0.314694	-0.145219
H103	H	0.844089	-0.249288	-0.239742
H104	H	0.886985	-0.229989	-0.159578
H105	H	0.910875	-0.312726	-0.208090
H106	H	0.776222	-0.275312	-0.129034
H107	H	0.800098	-0.358056	-0.177558
H108	H	0.800652	0.216874	0.360841
H109	H	0.283391	-0.027998	0.000124
H110	H	0.760221	-0.419444	0.000014
C111	C	0.449288	-0.030709	0.000099
C112	C	0.528824	-0.045491	0.000100
H113	H	0.428637	-0.083128	0.000092
H114	H	0.432643	0.000501	0.048045
H115	H	0.432646	0.000515	-0.047849
H116	H	0.545467	-0.076710	0.048052
H117	H	0.545476	-0.076715	-0.047851
C118	C	1.086345	-0.382326	-0.071071
C119	C	1.049251	-0.348630	0.000016
H120	H	1.137407	-0.369360	-0.071143
H121	H	1.085989	-0.441848	-0.071549
H122	H	1.060800	-0.358610	-0.118733
H123	H	1.074792	-0.372351	0.047678
H124	H	1.049611	-0.289097	0.000501
H125	H	0.800686	0.216901	0.796415
H126	H	0.959671	-0.449071	0.125191
C127	C	0.918949	-0.500006	-0.192088
C128	C	0.970213	-0.459247	-0.145046
H129	H	0.943997	-0.524172	-0.239852
H130	H	0.900604	-0.543224	-0.159947
H131	H	0.877486	-0.460258	-0.208379
H132	H	1.011674	-0.498996	-0.128750
H133	H	0.988570	-0.416025	-0.177193
C134	C	1.047271	-0.057134	0.247738
C135	C	1.002091	-0.006937	0.191480
H136	H	1.082196	-0.095952	0.218372
H137	H	1.074491	-0.022206	0.281485
H138	H	1.015767	-0.087300	0.281502
H139	H	1.033596	0.023234	0.157719
H140	H	0.974870	-0.041870	0.157718
H141	H	0.987434	0.009365	0.360822
C142	C	0.740836	0.283393	0.683344
C143	C	0.786005	0.233192	0.627077
H144	H	0.705905	0.322208	0.653984
H145	H	0.713624	0.248466	0.717104
H146	H	0.772348	0.313561	0.717094
H147	H	0.754493	0.203018	0.593331
H148	H	0.813218	0.268123	0.593303
