data_functionalizedCrystal
_audit_creation_method	'MofGen! by Chris Wilmer'
_symmetry_space_group_name_H-M	'P1'
_symmetry_Int_Tables_number	1
_symmetry_cell_setting	triclinic
loop_
_symmetry_equiv_pos_as_xyz
  x,y,z
_cell_length_a	18.050591
_cell_length_b	25.639240
_cell_length_c	18.050582
_cell_angle_alpha	89.967473
_cell_angle_beta	89.978183
_cell_angle_gamma	90.028762
loop_
_atom_site_label
_atom_site_type_symbol
_atom_site_fract_x
_atom_site_fract_y
_atom_site_fract_z
Zn1	Zn	1.135276	-0.208236	-0.419984
Zn2	Zn	1.385276	0.041764	-0.169984
Zn3	Zn	1.635276	0.291764	0.080016
Zn4	Zn	1.885276	0.541764	0.330016
Zn5	Zn	1.135175	-0.295665	-0.295774
Zn6	Zn	1.385175	-0.045665	-0.045774
Zn7	Zn	1.635175	0.204335	0.204226
Zn8	Zn	1.885175	0.454335	0.454226
Zn9	Zn	1.011093	-0.208239	-0.295795
Zn10	Zn	1.261093	0.041761	-0.045795
Zn11	Zn	1.511093	0.291761	0.204205
Zn12	Zn	1.761093	0.541761	0.454205
Zn13	Zn	1.011033	-0.295636	-0.419909
Zn14	Zn	1.261033	-0.045636	-0.169909
Zn15	Zn	1.511033	0.204364	0.080091
Zn16	Zn	1.761033	0.454364	0.330091
O17	O	1.073144	-0.251944	-0.357865
O18	O	1.323144	-0.001944	-0.107865
O19	O	1.573144	0.248056	0.142135
O20	O	1.823144	0.498056	0.392135
O21	O	1.239187	-0.219844	-0.403529
O22	O	1.489187	0.030156	-0.153529
O23	O	1.739187	0.280156	0.096471
O24	O	1.989187	0.530156	0.346471
O25	O	1.118698	-0.284081	-0.191852
O26	O	1.368698	-0.034081	0.058148
O27	O	1.618698	0.215919	0.308148
O28	O	1.868698	0.465919	0.558148
O29	O	1.027633	-0.135074	-0.312309
O30	O	1.277633	0.114926	-0.062309
O31	O	1.527633	0.364926	0.187691
O32	O	1.777633	0.614926	0.437691
O33	O	1.239113	-0.284078	-0.312273
O34	O	1.489113	-0.034078	-0.062273
O35	O	1.739113	0.215922	0.187727
O36	O	1.989113	0.465922	0.437727
O37	O	1.118870	-0.135071	-0.403550
O38	O	1.368870	0.114929	-0.153550
O39	O	1.618870	0.364929	0.096450
O40	O	1.868870	0.614929	0.346450
O41	O	1.027535	-0.219850	-0.191867
O42	O	1.277535	0.030150	0.058133
O43	O	1.527535	0.280150	0.308133
O44	O	1.777535	0.530150	0.558133
O45	O	0.907160	-0.219822	-0.312236
O46	O	1.157160	0.030178	-0.062236
O47	O	1.407160	0.280178	0.187764
O48	O	1.657160	0.530178	0.437764
O49	O	1.027531	-0.284029	-0.523844
O50	O	1.277531	-0.034029	-0.273844
O51	O	1.527531	0.215971	-0.023844
O52	O	1.777531	0.465971	0.226156
O53	O	0.907116	-0.284032	-0.403423
O54	O	1.157116	-0.034032	-0.153423
O55	O	1.407116	0.215968	0.096577
O56	O	1.657116	0.465968	0.346577
O57	O	1.118812	-0.219817	-0.523898
O58	O	1.368812	0.030183	-0.273898
O59	O	1.618812	0.280183	-0.023898
O60	O	1.868812	0.530183	0.226102
O61	O	1.118640	-0.368826	-0.312200
O62	O	1.368640	-0.118826	-0.062200
O63	O	1.618640	0.131174	0.187800
O64	O	1.868640	0.381174	0.437800
O65	O	1.027433	-0.368805	-0.403402
O66	O	1.277433	-0.118805	-0.153402
O67	O	1.527433	0.131195	0.096598
O68	O	1.777433	0.381195	0.346598
C69	C	0.880192	-0.251925	-0.357824
C70	C	1.130192	-0.001925	-0.107824
C71	C	1.380192	0.248075	0.142176
C72	C	1.630192	0.498075	0.392176
C73	C	0.797646	-0.251929	-0.357824
C74	C	1.047646	-0.001929	-0.107824
C75	C	1.297646	0.248071	0.142176
C76	C	1.547646	0.498071	0.392176
C77	C	1.073039	-0.387787	-0.357807
C78	C	1.323039	-0.137787	-0.107807
C79	C	1.573039	0.112213	0.142193
C80	C	1.823039	0.362213	0.392193
C81	C	1.073062	-0.445901	-0.357807
C82	C	1.323062	-0.195901	-0.107807
C83	C	1.573062	0.054099	0.142193
C84	C	1.823062	0.304099	0.392193
C85	C	0.598198	-0.216971	-0.308351
C86	C	0.848198	0.033029	-0.058351
C87	C	1.098198	0.283029	0.191649
C88	C	1.348198	0.533029	0.441649
C89	C	0.548773	-0.264659	-0.290064
C90	C	0.798773	-0.014659	-0.040064
C91	C	1.048773	0.235341	0.209936
C92	C	1.298773	0.485341	0.459936
C93	C	0.646516	-0.251945	-0.357858
C94	C	0.896516	-0.001945	-0.107858
C95	C	1.146516	0.248055	0.142142
C96	C	1.396516	0.498055	0.392142
C97	C	0.548859	-0.204274	-0.376143
C98	C	0.798859	0.045726	-0.126143
C99	C	1.048859	0.295726	0.123857
C100	C	1.298859	0.545726	0.373857
C101	C	0.500531	-0.251956	-0.357889
C102	C	0.750531	-0.001956	-0.107889
C103	C	1.000531	0.248044	0.142111
C104	C	1.250531	0.498044	0.392111
C105	C	0.598178	-0.299658	-0.339535
C106	C	0.848178	-0.049658	-0.089535
C107	C	1.098178	0.200342	0.160465
C108	C	1.348178	0.450342	0.410465
C109	C	0.598269	-0.239240	-0.425646
C110	C	0.848269	0.010760	-0.175646
C111	C	1.098269	0.260760	0.074354
C112	C	1.348269	0.510760	0.324354
C113	C	0.548866	-0.286961	-0.407384
C114	C	0.798866	-0.036961	-0.157384
C115	C	1.048866	0.213039	0.092616
C116	C	1.298866	0.463039	0.342616
C117	C	0.730614	-0.251938	-0.357838
C118	C	0.980614	-0.001938	-0.107838
C119	C	1.230614	0.248062	0.142162
C120	C	1.480614	0.498062	0.392162
C121	C	0.416434	-0.251968	-0.357909
C122	C	0.666434	-0.001968	-0.107909
C123	C	0.916434	0.248032	0.142091
C124	C	1.166434	0.498032	0.392091
C125	C	1.120674	-0.806224	-0.405460
C126	C	1.370674	-0.556224	-0.155460
C127	C	1.620674	-0.306224	0.094540
C128	C	1.870674	-0.056224	0.344540
C129	C	1.120696	-0.860828	-0.405475
C130	C	1.370696	-0.610828	-0.155475
C131	C	1.620696	-0.360828	0.094525
C132	C	1.870696	-0.110828	0.344525
O133	O	1.161053	-0.889031	-0.445932
O134	O	1.411053	-0.639031	-0.195932
O135	O	1.661053	-0.389031	0.054068
O136	O	1.911053	-0.139031	0.304068
N137	N	1.073247	-0.888183	-0.357937
N138	N	1.323247	-0.638183	-0.107937
N139	N	1.573247	-0.388183	0.142063
N140	N	1.823247	-0.138183	0.392063
C141	C	1.025767	-0.860931	-0.310386
C142	C	1.275767	-0.610931	-0.060386
C143	C	1.525767	-0.360931	0.189614
C144	C	1.775767	-0.110931	0.439614
O145	O	0.985410	-0.889212	-0.269953
O146	O	1.235410	-0.639212	-0.019953
O147	O	1.485410	-0.389212	0.230047
O148	O	1.735410	-0.139212	0.480047
C149	C	1.025742	-0.806327	-0.310375
C150	C	1.275742	-0.556327	-0.060375
C151	C	1.525742	-0.306327	0.189625
C152	C	1.775742	-0.056327	0.439625
C153	C	1.073200	-0.778976	-0.357911
C154	C	1.323200	-0.528976	-0.107911
C155	C	1.573200	-0.278976	0.142089
C156	C	1.823200	-0.028976	0.392089
C157	C	1.168128	-0.778872	-0.452993
C158	C	1.418128	-0.528872	-0.202993
C159	C	1.668128	-0.278872	0.047007
C160	C	1.918128	-0.028872	0.297007
C161	C	1.168107	-0.724272	-0.452977
C162	C	1.418107	-0.474272	-0.202977
C163	C	1.668107	-0.224272	0.047023
C164	C	1.918107	0.025728	0.297023
C165	C	1.120632	-0.697023	-0.405428
C166	C	1.370632	-0.447023	-0.155428
C167	C	1.620632	-0.197023	0.094572
C168	C	1.870632	0.052977	0.344572
C169	C	1.073179	-0.724375	-0.357895
C170	C	1.323179	-0.474375	-0.107895
C171	C	1.573179	-0.224375	0.142105
C172	C	1.823179	0.025625	0.392105
C173	C	0.978260	-0.779076	-0.262828
C174	C	1.228260	-0.529076	-0.012828
C175	C	1.478260	-0.279076	0.237172
C176	C	1.728260	-0.029076	0.487172
C177	C	0.978238	-0.724469	-0.262822
C178	C	1.228238	-0.474469	-0.012822
C179	C	1.478238	-0.224469	0.237178
C180	C	1.728238	0.025531	0.487178
C181	C	1.025696	-0.697117	-0.310358
C182	C	1.275696	-0.447117	-0.060358
C183	C	1.525696	-0.197117	0.189642
C184	C	1.775696	0.052883	0.439642
C185	C	1.025683	-0.642526	-0.310330
C186	C	1.275683	-0.392526	-0.060330
C187	C	1.525683	-0.142526	0.189670
C188	C	1.775683	0.107474	0.439670
N189	N	1.073133	-0.615171	-0.357868
N190	N	1.323133	-0.365171	-0.107868
N191	N	1.573133	-0.115171	0.142132
N192	N	1.823133	0.134829	0.392132
C193	C	1.120607	-0.642420	-0.405417
C194	C	1.370607	-0.392420	-0.155417
C195	C	1.620607	-0.142420	0.094583
C196	C	1.870607	0.107580	0.344583
C197	C	1.025823	-0.975601	-0.310413
C198	C	1.275823	-0.725601	-0.060413
C199	C	1.525823	-0.475601	0.189587
C200	C	1.775823	-0.225601	0.439587
C201	C	1.025851	-1.030204	-0.310420
C202	C	1.275851	-0.780204	-0.060420
C203	C	1.525851	-0.530204	0.189580
C204	C	1.775851	-0.280204	0.439580
C205	C	1.120779	-1.030098	-0.405510
C206	C	1.370779	-0.780098	-0.155510
C207	C	1.620779	-0.530098	0.094490
C208	C	1.870779	-0.280098	0.344490
C209	C	1.120754	-0.975494	-0.405499
C210	C	1.370754	-0.725494	-0.155499
C211	C	1.620754	-0.475494	0.094501
C212	C	1.870754	-0.225494	0.344501
C213	C	1.073272	-0.948247	-0.357951
C214	C	1.323272	-0.698247	-0.107951
C215	C	1.573272	-0.448247	0.142049
C216	C	1.823272	-0.198247	0.392049
C217	C	1.120560	-0.527755	-0.405379
C218	C	1.370560	-0.277755	-0.155379
C219	C	1.620560	-0.027755	0.094621
C220	C	1.870560	0.222245	0.344621
C221	C	1.120537	-0.473149	-0.405356
C222	C	1.370537	-0.223149	-0.155356
C223	C	1.620537	0.026851	0.094644
C224	C	1.870537	0.276851	0.344644
C225	C	1.025606	-0.473260	-0.310269
C226	C	1.275606	-0.223260	-0.060269
C227	C	1.525606	0.026740	0.189731
C228	C	1.775606	0.276740	0.439731
C229	C	1.025632	-0.527861	-0.310288
C230	C	1.275632	-0.277861	-0.060288
C231	C	1.525632	-0.027861	0.189712
C232	C	1.775632	0.222139	0.439712
C233	C	1.073111	-0.555107	-0.357849
C234	C	1.323111	-0.305107	-0.107849
C235	C	1.573111	-0.055107	0.142151
C236	C	1.823111	0.194893	0.392151
O237	O	0.985345	-0.614288	-0.269896
O238	O	1.235345	-0.364288	-0.019896
O239	O	1.485345	-0.114288	0.230104
O240	O	1.735345	0.135712	0.480104
O241	O	1.160951	-0.614132	-0.445850
O242	O	1.410951	-0.364132	-0.195850
O243	O	1.660951	-0.114132	0.054150
O244	O	1.910951	0.135868	0.304150
C245	C	1.266850	-0.251964	-0.357907
C246	C	1.516850	-0.001964	-0.107907
C247	C	1.766850	0.248036	0.142093
C248	C	2.016850	0.498036	0.392093
C249	C	1.349395	-0.251973	-0.357925
C250	C	1.599395	-0.001973	-0.107925
C251	C	1.849395	0.248027	0.142075
C252	C	2.099395	0.498027	0.392075
C253	C	1.073176	-0.251919	-0.551571
C254	C	1.323176	-0.001919	-0.301571
C255	C	1.573176	0.248081	-0.051571
C256	C	1.823176	0.498081	0.198429
C257	C	1.073190	-0.251909	-0.634117
C258	C	1.323190	-0.001909	-0.384117
C259	C	1.573190	0.248091	-0.134117
C260	C	1.823190	0.498091	0.115883
C261	C	1.073270	-0.115571	-0.357940
C262	C	1.323270	0.134429	-0.107940
C263	C	1.573270	0.384429	0.142060
C264	C	1.823270	0.634429	0.392060
C265	C	1.073323	-0.057457	-0.357972
C266	C	1.323323	0.192543	-0.107972
C267	C	1.573323	0.442543	0.142028
C268	C	1.823323	0.692543	0.392028
C269	C	1.023598	-0.286770	-0.882913
C270	C	1.273598	-0.036770	-0.632913
C271	C	1.523598	0.213230	-0.382913
C272	C	1.773598	0.463230	-0.132913
C273	C	1.005463	-0.239081	-0.833534
C274	C	1.255463	0.010919	-0.583534
C275	C	1.505463	0.260919	-0.333534
C276	C	1.755463	0.510919	-0.083534
C277	C	1.073253	-0.251832	-0.931237
C278	C	1.323253	-0.001832	-0.681237
C279	C	1.573253	0.248168	-0.431237
C280	C	1.823253	0.498168	-0.181237
C281	C	1.091321	-0.299556	-0.833534
C282	C	1.341321	-0.049556	-0.583534
C283	C	1.591321	0.200444	-0.333534
C284	C	1.841321	0.450444	-0.083534
C285	C	1.073220	-0.251872	-0.785252
C286	C	1.323220	-0.001872	-0.535252
C287	C	1.573220	0.248128	-0.285252
C288	C	1.823220	0.498128	-0.035252
C289	C	1.055083	-0.204117	-0.882946
C290	C	1.305083	0.045883	-0.632946
C291	C	1.555083	0.295883	-0.382946
C292	C	1.805083	0.545883	-0.132946
C293	C	1.140973	-0.264624	-0.882951
C294	C	1.390973	-0.014624	-0.632951
C295	C	1.640973	0.235376	-0.382951
C296	C	1.890973	0.485376	-0.132951
C297	C	1.122864	-0.216902	-0.833594
C298	C	1.372864	0.033098	-0.583594
C299	C	1.622864	0.283098	-0.333594
C300	C	1.872864	0.533098	-0.083594
C301	C	1.073270	-0.251809	-1.015336
C302	C	1.323270	-0.001809	-0.765336
C303	C	1.573270	0.248191	-0.515336
C304	C	1.823270	0.498191	-0.265336
C305	C	1.073203	-0.251889	-0.701156
C306	C	1.323203	-0.001889	-0.451156
C307	C	1.573203	0.248111	-0.201156
C308	C	1.823203	0.498111	0.048844
C309	C	1.073155	-0.251931	-0.164913
C310	C	1.323155	-0.001931	0.085087
C311	C	1.573155	0.248069	0.335087
C312	C	1.823155	0.498069	0.585087
C313	C	1.073285	-0.251794	-0.082368
C314	C	1.323285	-0.001794	0.167632
C315	C	1.573285	0.248206	0.417632
C316	C	1.823285	0.498206	0.667632
H317	H	0.619858	-0.187426	-0.266440
H318	H	0.869858	0.062574	-0.016440
H319	H	1.119858	0.312574	0.233560
H320	H	1.369858	0.562574	0.483560
F321	F	0.975084	-0.444251	-0.259665
F322	F	1.225084	-0.194251	-0.009665
F323	F	1.475084	0.055749	0.240335
F324	F	1.725084	0.305749	0.490335
H325	H	0.527342	-0.316576	-0.449263
H326	H	0.777342	-0.066576	-0.199263
H327	H	1.027342	0.183424	0.050737
H328	H	1.277342	0.433424	0.300737
F329	F	1.171093	-0.556744	-0.455998
F330	F	1.421093	-0.306744	-0.205998
F331	F	1.671093	-0.056744	0.044002
F332	F	1.921093	0.193256	0.294002
H333	H	1.198240	-0.275445	-0.904673
H334	H	1.448240	-0.025445	-0.654673
H335	H	1.698240	0.224555	-0.404673
H336	H	1.948240	0.474555	-0.154673
H337	H	1.206787	-0.801052	-0.491717
H338	H	1.456787	-0.551052	-0.241717
H339	H	1.706787	-0.301052	0.008283
H340	H	1.956787	-0.051052	0.258283
F341	F	1.111311	-0.352287	-0.805158
F342	F	1.361311	-0.102287	-0.555158
F343	F	1.611311	0.147713	-0.305158
F344	F	1.861311	0.397713	-0.055158
F345	F	1.171305	-1.059107	-0.456117
F346	F	1.421305	-0.809107	-0.206117
F347	F	1.671305	-0.559107	0.043883
F348	F	1.921305	-0.309107	0.293883
F349	F	1.177733	-0.178262	-0.805466
F350	F	1.427733	0.071738	-0.555466
F351	F	1.677733	0.321738	-0.305466
F352	F	1.927733	0.571738	-0.055466
H353	H	1.206749	-0.702005	-0.491687
H354	H	1.456749	-0.452005	-0.241687
H355	H	1.706749	-0.202005	0.008313
H356	H	1.956749	0.047995	0.258313
F357	F	1.171264	-0.946389	-0.456094
F358	F	1.421264	-0.696389	-0.206094
F359	F	1.671264	-0.446389	0.043906
F360	F	1.921264	-0.196389	0.293906
F361	F	0.975287	-0.946607	-0.259798
F362	F	1.225287	-0.696607	-0.009798
F363	F	1.475287	-0.446607	0.240202
F364	F	1.725287	-0.196607	0.490202
F365	F	0.520355	-0.278715	-0.215153
F366	F	0.770355	-0.028715	0.034847
F367	F	1.020355	0.221285	0.284847
F368	F	1.270355	0.471285	0.534847
F369	F	0.626373	-0.352374	-0.319251
F370	F	0.876373	-0.102374	-0.069251
F371	F	1.126373	0.147626	0.180749
F372	F	1.376373	0.397626	0.430749
H373	H	0.620027	-0.228472	-0.482942
H374	H	0.870027	0.021528	-0.232942
H375	H	1.120027	0.271528	0.017058
H376	H	1.370027	0.521528	0.267058
F377	F	0.975131	-0.556972	-0.259686
F378	F	1.225131	-0.306972	-0.009686
F379	F	1.475131	-0.056972	0.240314
F380	F	1.725131	0.193028	0.490314
F381	F	0.520538	-0.151574	-0.396340
F382	F	0.770538	0.098426	-0.146340
F383	F	1.020538	0.348426	0.103660
F384	F	1.270538	0.598426	0.353660
H385	H	1.159185	-0.450881	-0.444065
H386	H	1.409185	-0.200881	-0.194065
H387	H	1.659185	0.049119	0.055935
H388	H	1.909185	0.299119	0.305935
H389	H	0.939615	-0.801337	-0.224119
H390	H	1.189615	-0.551337	0.025881
H391	H	1.439615	-0.301337	0.275881
H392	H	1.689615	-0.051337	0.525881
F393	F	0.927699	-0.695473	-0.212214
F394	F	1.177699	-0.445473	0.037786
F395	F	1.427699	-0.195473	0.287786
F396	F	1.677699	0.054527	0.537786
F397	F	0.975350	-1.059308	-0.259816
F398	F	1.225350	-0.809308	-0.009816
F399	F	1.475350	-0.559308	0.240184
F400	F	1.725350	-0.309308	0.490184
F401	F	0.968691	-0.325319	-0.911222
F402	F	1.218691	-0.075319	-0.661222
F403	F	1.468691	0.174681	-0.411222
F404	F	1.718691	0.424681	-0.161222
F405	F	0.930590	-0.224955	-0.805163
F406	F	1.180590	0.025045	-0.555163
F407	F	1.430590	0.275045	-0.305163
F408	F	1.680590	0.525045	-0.055163
F409	F	1.035003	-0.151370	-0.911193
F410	F	1.285003	0.098630	-0.661193
F411	F	1.535003	0.348630	-0.411193
F412	F	1.785003	0.598630	-0.161193
