data_functionalizedCrystal
_audit_creation_method	'MofGen! by Chris Wilmer'
_symmetry_space_group_name_H-M	'P1'
_symmetry_Int_Tables_number	1
_symmetry_cell_setting	triclinic
loop_
_symmetry_equiv_pos_as_xyz
  x,y,z
_cell_length_a	12.759401
_cell_length_b	13.033855
_cell_length_c	12.759386
_cell_angle_alpha	82.757707
_cell_angle_beta	89.957659
_cell_angle_gamma	82.825852
loop_
_atom_site_label
_atom_site_type_symbol
_atom_site_fract_x
_atom_site_fract_y
_atom_site_fract_z
Zn1	Zn	1.659584	-0.415700	-0.540978
Zn2	Zn	1.681745	-0.590585	-0.342985
Zn3	Zn	1.483835	-0.415846	-0.365295
Zn4	Zn	1.506188	-0.590407	-0.518646
O5	O	1.582838	-0.503134	-0.441976
O6	O	1.809546	-0.438912	-0.514723
O7	O	1.655411	-0.567540	-0.198906
O8	O	1.488519	-0.269582	-0.407283
O9	O	1.825828	-0.567399	-0.369259
O10	O	1.617641	-0.269475	-0.536357
O11	O	1.510008	-0.439161	-0.215297
O12	O	1.339777	-0.438988	-0.385628
O13	O	1.526616	-0.567096	-0.668647
O14	O	1.356200	-0.567238	-0.498294
O15	O	1.639316	-0.438740	-0.685054
O16	O	1.677086	-0.736805	-0.347604
O17	O	1.548105	-0.736675	-0.476661
C18	C	1.309867	-0.503110	-0.441959
C19	C	1.193093	-0.503125	-0.441973
C20	C	1.129637	-0.436258	-0.383442
C21	C	1.019916	-0.436283	-0.383453
C22	C	1.037116	-0.570044	-0.500534
C23	C	1.146836	-0.570024	-0.500517
C24	C	0.865079	-0.398891	-0.264410
C25	C	0.801618	-0.332008	-0.205890
C26	C	0.824194	-0.230018	-0.202944
C27	C	0.910227	-0.194891	-0.258535
C28	C	0.973681	-0.261769	-0.317063
C29	C	0.951109	-0.363773	-0.319988
C30	C	1.301674	-0.607405	-0.619563
C31	C	1.365130	-0.674278	-0.678098
C32	C	1.342556	-0.776270	-0.681055
C33	C	1.256520	-0.811393	-0.625482
C34	C	1.193063	-0.744520	-0.566947
C35	C	1.215645	-0.642529	-0.563989
C36	C	1.617455	-0.774660	-0.407311
C37	C	1.632360	-0.890819	-0.392516
C38	C	1.575141	-0.942577	-0.449719
C39	C	1.590545	-1.062634	-0.434429
C40	C	1.856874	-0.503159	-0.441994
C41	C	1.973652	-0.503170	-0.442001
C42	C	1.582987	-0.502882	-0.716042
C43	C	1.583051	-0.502774	-0.832833
C44	C	1.548114	-0.230549	-0.476799
C45	C	1.533317	-0.114389	-0.491639
C46	C	1.582740	-0.503310	-0.168986
C47	C	1.582842	-0.503123	-0.052233
C48	C	1.506765	-0.436686	-0.005904
C49	C	1.506871	-0.436508	0.103797
C50	C	1.659136	-0.569215	0.120830
C51	C	1.659033	-0.569386	0.011130
C52	C	1.452907	-0.313295	0.237770
C53	C	1.376815	-0.246867	0.284105
C54	C	1.272202	-0.231611	0.246699
C55	C	1.243662	-0.282798	0.162962
C56	C	1.319750	-0.349234	0.116634
C57	C	1.424375	-0.364470	0.154035
C58	C	1.712987	-0.692601	-0.122844
C59	C	1.789071	-0.759043	-0.169173
C60	C	1.893687	-0.774310	-0.131768
C61	C	1.922225	-0.723141	-0.048025
C62	C	1.846141	-0.656699	-0.001696
C63	C	1.741526	-0.641431	-0.039109
H64	H	0.731571	-0.360618	-0.160627
H65	H	1.538092	-0.325700	0.268225
O66	O	1.404050	-0.841214	-0.738056
C67	C	1.411469	-0.946664	-0.880660
C68	C	1.341720	-0.873107	-0.816214
H69	H	1.361100	-0.972488	-0.943852
H70	H	1.476820	-0.904079	-0.919967
H71	H	1.448120	-1.017946	-0.825813
H72	H	1.304997	-0.801811	-0.870990
H73	H	1.276430	-0.915770	-0.776895
O74	O	1.432900	-0.372264	-0.067580
C75	C	1.399652	-0.231424	-0.209729
C76	C	1.483415	-0.304335	-0.139975
H77	H	1.440461	-0.176470	-0.268262
H78	H	1.351191	-0.279819	-0.254761
H79	H	1.345280	-0.183956	-0.157742
H80	H	1.537858	-0.351818	-0.191884
H81	H	1.531800	-0.255881	-0.094935
H82	H	1.167296	-0.381783	-0.335775
H83	H	1.238135	-0.894440	-0.627896
H84	H	1.650938	-1.107200	-0.374129
H85	H	1.472917	-1.069824	-0.551932
O86	O	1.198216	-0.167006	0.291529
C87	C	1.071537	-0.012306	0.265467
C88	C	1.155276	-0.085397	0.214554
H89	H	1.036812	0.053705	0.203261
H90	H	1.005957	-0.058074	0.299091
H91	H	1.109908	0.021601	0.331771
H92	H	1.117000	-0.119323	0.148211
H93	H	1.220847	-0.039579	0.181003
O94	O	1.323532	-0.508277	-0.616867
C95	C	1.343185	-0.342441	-0.717025
C96	C	1.318390	-0.454665	-0.720223
H97	H	1.339058	-0.299069	-0.800581
H98	H	1.283042	-0.300613	-0.665702
H99	H	1.425894	-0.344584	-0.682420
H100	H	1.235709	-0.452617	-0.754850
H101	H	1.378599	-0.496447	-0.771514
O102	O	0.843305	-0.498035	-0.267157
C103	C	0.905742	-0.681304	-0.229666
C104	C	0.930536	-0.569080	-0.226463
H105	H	0.976260	-0.738774	-0.196790
H106	H	0.833391	-0.694998	-0.179854
H107	H	0.889237	-0.693216	-0.314808
H108	H	0.947090	-0.557089	-0.141359
H109	H	1.002858	-0.555439	-0.276335
H110	H	1.514744	-0.898009	-0.510008
O111	O	1.704556	-0.944010	-0.320749
C112	C	1.862116	-1.067274	-0.291210
C113	C	1.780423	-1.007097	-0.372589
H114	H	1.923462	-1.118310	-0.333088
H115	H	1.902882	-1.009660	-0.250556
H116	H	1.820430	-1.118458	-0.229715
H117	H	1.822027	-0.955911	-0.434147
H118	H	1.739660	-1.064767	-0.413162
H119	H	1.435168	-0.645663	-0.723371
O120	O	0.932028	-0.095794	-0.255532
C121	C	0.882359	0.068024	-0.188753
C122	C	0.857561	-0.044186	-0.192045
H123	H	0.822154	0.109788	-0.137446
H124	H	0.965053	0.065975	-0.154145
H125	H	0.878189	0.111403	-0.272306
H126	H	0.861672	-0.087631	-0.108526
H127	H	0.774880	-0.042062	-0.226712
O128	O	1.291872	-0.398837	0.035274
C129	C	1.151764	-0.427512	-0.079957
C130	C	1.183200	-0.371262	0.012181
H131	H	1.063897	-0.405256	-0.098641
H132	H	1.199344	-0.403589	-0.152653
H133	H	1.168774	-0.515404	-0.056734
H134	H	1.166189	-0.283360	-0.010940
H135	H	1.135624	-0.395270	0.084854
O136	O	0.762472	-0.165197	-0.146009
C137	C	0.611776	-0.144441	-0.033193
C138	C	0.681605	-0.217958	-0.097614
H139	H	0.546366	-0.187063	0.005933
H140	H	0.662019	-0.118679	0.030141
H141	H	0.575204	-0.073117	-0.088030
H142	H	0.718191	-0.289331	-0.042860
H143	H	0.631312	-0.243636	-0.160959
O144	O	1.404448	-0.197260	0.365564
C145	C	1.376772	-0.170553	0.547500
C146	C	1.345404	-0.226812	0.455342
H147	H	1.329035	-0.194408	0.620101
H148	H	1.464600	-0.192872	0.566360
H149	H	1.359852	-0.082661	0.524233
H150	H	1.362256	-0.314714	0.478534
H151	H	1.257583	-0.204408	0.436501
O152	O	1.967600	-0.838721	-0.176927
C153	C	2.059229	-0.874759	-0.335995
C154	C	1.975515	-0.801723	-0.284986
H155	H	2.065640	-0.844885	-0.423373
H156	H	2.138944	-0.876858	-0.294955
H157	H	2.035024	-0.956657	-0.327427
H158	H	1.999621	-0.719790	-0.293540
H159	H	1.895821	-0.799714	-0.326035
H160	H	1.765827	-0.800707	-0.237362
O161	O	1.733035	-0.633552	0.182543
C162	C	1.800711	-0.692063	0.359084
C163	C	1.716946	-0.619162	0.289325
H164	H	1.787746	-0.680438	0.445429
H165	H	1.793611	-0.776518	0.348622
H166	H	1.882846	-0.673152	0.334828
H167	H	1.634774	-0.637979	0.313536
H168	H	1.724140	-0.534728	0.299795
H169	H	1.158472	-0.270380	0.132521
H170	H	1.869385	-0.615034	0.066492
H171	H	2.007412	-0.735574	-0.017567
H172	H	1.627802	-0.680167	-0.153315
H173	H	0.999440	-0.624509	-0.548200
O174	O	1.057351	-0.227672	-0.370890
C175	C	1.223373	-0.159072	-0.360691
C176	C	1.128684	-0.197683	-0.299609
H177	H	1.281059	-0.134796	-0.303091
H178	H	1.264934	-0.224381	-0.402988
H179	H	1.194180	-0.089381	-0.421239
H180	H	1.157788	-0.267354	-0.239011
H181	H	1.087140	-0.132313	-0.257386
O182	O	1.109429	-0.778705	-0.513119
C183	C	0.943333	-0.847161	-0.523346
C184	C	1.038001	-0.808503	-0.584429
H185	H	0.885548	-0.871242	-0.580977
H186	H	0.972422	-0.916941	-0.462861
H187	H	0.901911	-0.781841	-0.480978
H188	H	1.079464	-0.873751	-0.626861
H189	H	1.008847	-0.738695	-0.644854
