data_functionalizedCrystal
_audit_creation_method	'MofGen! by Chris Wilmer'
_symmetry_space_group_name_H-M	'P1'
_symmetry_Int_Tables_number	1
_symmetry_cell_setting	triclinic
loop_
_symmetry_equiv_pos_as_xyz
  x,y,z
_cell_length_a	17.699083
_cell_length_b	17.699083
_cell_length_c	16.176319
_cell_angle_alpha	90.007696
_cell_angle_beta	90.001389
_cell_angle_gamma	83.283015
loop_
_atom_site_label
_atom_site_type_symbol
_atom_site_fract_x
_atom_site_fract_y
_atom_site_fract_z
O1	O	-1.004079	-0.095713	-0.068632
O2	O	-0.670745	0.237620	0.264701
O3	O	-0.337412	0.570954	0.598034
O4	O	-0.783700	-0.108166	-0.068660
O5	O	-0.450367	0.225168	0.264674
O6	O	-0.117034	0.558501	0.598007
O7	O	-0.900116	0.008250	-0.068638
O8	O	-0.566782	0.341583	0.264695
O9	O	-0.233449	0.674917	0.598029
O10	O	-0.887663	-0.212129	-0.068654
O11	O	-0.554330	0.121205	0.264679
O12	O	-0.220997	0.454538	0.598013
O13	O	-0.900100	0.008257	0.068855
O14	O	-0.566766	0.341591	0.402189
O15	O	-0.233433	0.674924	0.735522
O16	O	-0.783684	-0.108158	0.068834
O17	O	-0.450351	0.225175	0.402167
O18	O	-0.117018	0.558508	0.735500
O19	O	-1.004063	-0.095706	0.068861
O20	O	-0.670729	0.237628	0.402194
O21	O	-0.337396	0.570961	0.735528
Cu22	Cu	-0.893872	-0.101931	0.081401
Cu23	Cu	-0.560539	0.231402	0.414735
Cu24	Cu	-0.227205	0.564735	0.748068
Cu25	Cu	-0.893891	-0.101940	-0.081200
Cu26	Cu	-0.560558	0.231393	0.252133
Cu27	Cu	-0.227224	0.564727	0.585467
O28	O	-0.887647	-0.212121	0.068839
O29	O	-0.554314	0.121212	0.402173
O30	O	-0.220981	0.454546	0.735506
C31	C	-0.899662	0.036451	0.000109
C32	C	-0.566328	0.369784	0.333442
C33	C	-0.232995	0.703117	0.666775
C34	C	-0.898323	0.120469	0.000109
C35	C	-0.564990	0.453802	0.333442
C36	C	-0.231656	0.787135	0.666776
C37	C	-0.755495	-0.107716	0.000084
C38	C	-0.422162	0.225618	0.333417
C39	C	-0.088829	0.558951	0.666750
C40	C	-0.671477	-0.106377	0.000073
C41	C	-0.338144	0.226956	0.333407
C42	C	-0.004811	0.560290	0.666740
C43	C	-1.032268	-0.096156	0.000116
C44	C	-0.698934	0.237178	0.333449
C45	C	-0.365601	0.570511	0.666783
C46	C	-1.116286	-0.097494	0.000121
C47	C	-0.782953	0.235839	0.333454
C48	C	-0.449619	0.569172	0.666787
C49	C	-0.622856	-0.174710	0.000069
C50	C	-0.289523	0.158623	0.333402
C51	C	0.043810	0.491956	0.666735
C52	C	-0.543913	-0.173448	0.000079
C53	C	-0.210580	0.159885	0.333413
C54	C	0.122754	0.493218	0.666746
C55	C	-0.513592	-0.103852	0.000089
C56	C	-0.180259	0.229482	0.333422
C57	C	0.153074	0.562815	0.666756
C58	C	-0.562219	-0.035513	0.000096
C59	C	-0.228886	0.297820	0.333430
C60	C	0.104447	0.631154	0.666763
C61	C	-0.641161	-0.036776	0.000091
C62	C	-0.307828	0.296557	0.333425
C63	C	0.025505	0.629891	0.666758
C64	C	-0.243856	-0.030418	0.000117
C65	C	0.089477	0.302915	0.333450
C66	C	0.422810	0.636249	0.666784
C67	C	-0.164908	-0.029160	0.000120
C68	C	0.168425	0.304173	0.333453
C69	C	0.501758	0.637507	0.666786
C70	C	-0.146608	-0.167090	0.000105
C71	C	0.186725	0.166243	0.333438
C72	C	0.520058	0.499577	0.666772
C73	C	-0.225550	-0.168353	0.000100
C74	C	0.107783	0.164980	0.333434
C75	C	0.441117	0.498314	0.666767
C76	C	-0.274170	-0.100015	0.000112
C77	C	0.059163	0.233319	0.333445
C78	C	0.392496	0.566652	0.666778
C79	C	-0.359769	-0.101384	0.000102
C80	C	-0.026436	0.231949	0.333435
C81	C	0.306897	0.565282	0.666768
C82	C	-0.427995	-0.102481	0.000093
C83	C	-0.094661	0.230852	0.333427
C84	C	0.238672	0.564185	0.666760
C85	C	-0.888102	-0.240322	0.000091
C86	C	-0.554768	0.093011	0.333424
C87	C	-0.221435	0.426345	0.666757
C88	C	-0.889440	-0.324340	0.000085
C89	C	-0.556107	0.008993	0.333418
C90	C	-0.222773	0.342327	0.666752
N91	N	-0.893864	-0.101925	0.195767
N92	N	-0.560531	0.231409	0.529100
N93	N	-0.227198	0.564742	0.862433
C94	C	-0.966656	0.169090	0.000119
C95	C	-0.633323	0.502423	0.333452
C96	C	-0.299990	0.835756	0.666785
C97	C	-0.965394	0.248033	0.000111
C98	C	-0.632061	0.581366	0.333444
C99	C	-0.298727	0.914700	0.666778
C100	C	-0.895798	0.278354	0.000100
C101	C	-0.562464	0.611687	0.333433
C102	C	-0.229131	0.945020	0.666767
C103	C	-0.827459	0.229727	0.000088
C104	C	-0.494126	0.563060	0.333421
C105	C	-0.160792	0.896393	0.666754
C106	C	-0.828722	0.150785	0.000089
C107	C	-0.495389	0.484118	0.333423
C108	C	-0.162055	0.817451	0.666756
C109	C	-0.822364	0.548090	0.000080
C110	C	-0.489030	0.881423	0.333414
C111	C	-0.155697	1.214756	0.666747
C112	C	-0.821106	0.627038	0.000081
C113	C	-0.487773	0.960371	0.333415
C114	C	-0.154439	1.293704	0.666748
C115	C	-0.959036	0.645338	0.000102
C116	C	-0.625703	0.978671	0.333436
C117	C	-0.292369	1.312004	0.666769
C118	C	-0.960299	0.566396	0.000104
C119	C	-0.626966	0.899729	0.333437
C120	C	-0.293632	1.233063	0.666770
C121	C	-0.891961	0.517776	0.000087
C122	C	-0.558627	0.851109	0.333421
C123	C	-0.225294	1.184442	0.666754
C124	C	-0.893330	0.432177	0.000094
C125	C	-0.559997	0.765510	0.333427
C126	C	-0.226664	1.098843	0.666760
C127	C	-0.894427	0.363951	0.000099
C128	C	-0.561094	0.697285	0.333433
C129	C	-0.227761	1.030618	0.666766
N130	N	-0.893905	-0.101941	-0.195565
N131	N	-0.560571	0.231393	0.137768
N132	N	-0.227238	0.564726	0.471101
C133	C	-0.945429	-0.050397	0.239040
C134	C	-0.612095	0.282936	0.572374
C135	C	-0.278762	0.616270	0.905707
C136	C	-0.945432	-0.050396	0.325588
C137	C	-0.612099	0.282937	0.658921
C138	C	-0.278766	0.616271	0.992254
C139	C	-0.893875	-0.101927	0.368859
C140	C	-0.560542	0.231406	0.702193
C141	C	-0.227208	0.564739	1.035526
C142	C	-0.842305	-0.153457	0.325579
C143	C	-0.508972	0.179876	0.658913
C144	C	-0.175639	0.513209	0.992246
C145	C	-0.842299	-0.153454	0.239034
C146	C	-0.508965	0.179879	0.572367
C147	C	-0.175632	0.513213	0.905701
C148	C	-0.842331	-0.153472	0.674608
C149	C	-0.508998	0.179862	1.007941
C150	C	-0.175665	0.513195	1.341274
C151	C	-0.842344	-0.153473	0.761159
C152	C	-0.509010	0.179861	1.094493
C153	C	-0.175677	0.513194	1.427826
C154	C	-0.945465	-0.050414	0.761161
C155	C	-0.612132	0.282920	1.094495
C156	C	-0.278799	0.616253	1.427828
C157	C	-0.945458	-0.050410	0.674616
C158	C	-0.612125	0.282923	1.007949
C159	C	-0.278792	0.616256	1.341283
C160	C	-0.893886	-0.101937	0.631344
C161	C	-0.560553	0.231396	0.964677
C162	C	-0.227220	0.564729	1.298010
C163	C	-0.893882	-0.101937	0.537499
C164	C	-0.560548	0.231397	0.870833
C165	C	-0.227215	0.564730	1.204166
C166	C	-0.893883	-0.101932	0.462702
C167	C	-0.560549	0.231401	0.796035
C168	C	-0.227216	0.564735	1.129369
H169	H	-0.647537	-0.231384	0.000060
H170	H	-0.314204	0.101949	0.333394
H171	H	0.019130	0.435283	0.666727
F172	F	-0.692907	0.035954	0.000099
F173	F	-0.359574	0.369287	0.333433
F174	F	-0.026241	0.702620	0.666766
F175	F	-0.755992	0.099039	0.000077
F176	F	-0.422659	0.432372	0.333410
F177	F	-0.089326	0.765705	0.666743
H178	H	-0.800309	-0.195412	0.203801
H179	H	-0.466975	0.137921	0.537134
H180	H	-0.133642	0.471254	0.870468
F181	F	-0.787430	-0.208298	0.371633
F182	F	-0.454096	0.125035	0.704966
F183	F	-0.120763	0.458369	1.038300
H184	H	-1.016971	0.541714	0.000117
H185	H	-0.683638	0.875047	0.333450
H186	H	-0.350305	1.208380	0.666784
H187	H	-0.764429	0.651721	0.000074
H188	H	-0.431096	0.985054	0.333407
H189	H	-0.097762	1.318388	0.666741
F190	F	-0.492170	-0.246178	0.000071
F191	F	-0.158837	0.087155	0.333404
F192	F	0.174497	0.420488	0.666737
F193	F	-0.753389	0.261998	0.000067
F194	F	-0.420056	0.595332	0.333400
F195	F	-0.086722	0.928665	0.666733
H196	H	-0.800357	-0.195437	0.796390
H197	H	-0.467023	0.137896	1.129723
H198	H	-0.133690	0.471230	1.463056
H199	H	-0.250232	-0.225025	0.000089
H200	H	0.083101	0.108308	0.333422
H201	H	0.416434	0.441641	0.666755
H202	H	-0.107012	-0.222734	0.000100
H203	H	0.226322	0.110599	0.333433
H204	H	0.559655	0.443933	0.666767
H205	H	-0.283434	0.025228	0.000127
H206	H	0.049899	0.358561	0.333461
H207	H	0.383233	0.691894	0.666794
F208	F	-0.132641	0.044918	0.000130
F209	F	0.200692	0.378251	0.333463
F210	F	0.534025	0.711584	0.666797
F211	F	-1.031768	0.697089	0.000117
F212	F	-0.698435	1.030423	0.333450
F213	F	-0.365102	1.363756	0.666784
F214	F	-0.529948	0.038557	0.000112
F215	F	-0.196614	0.371890	0.333445
F216	F	0.136719	0.705224	0.666779
F217	F	-1.040732	0.136828	0.000138
F218	F	-0.707398	0.470161	0.333472
F219	F	-0.374065	0.803494	0.666805
H220	H	-1.021038	0.287618	0.000121
H221	H	-0.687705	0.620951	0.333454
H222	H	-0.354372	0.954284	0.666787
H223	H	-0.766718	0.508512	0.000067
H224	H	-0.433385	0.841845	0.333401
H225	H	-0.100052	1.175179	0.666734
F226	F	-1.000312	0.004446	0.371643
F227	F	-0.666978	0.337779	0.704976
F228	F	-0.333645	0.671113	1.038310
F229	F	-1.000308	0.004447	0.192996
F230	F	-0.666974	0.337781	0.526329
F231	F	-0.333641	0.671114	0.859662
F232	F	-1.000335	0.004433	0.628566
F233	F	-0.667001	0.337766	0.961900
F234	F	-0.333668	0.671100	1.295233
H235	H	-0.987456	-0.008455	0.796403
H236	H	-0.654122	0.324878	1.129736
H237	H	-0.320789	0.658212	1.463070
F238	F	-0.787447	-0.208312	0.628561
F239	F	-0.454114	0.125022	0.961894
F240	F	-0.120781	0.458355	1.295227
