data_functionalizedCrystal
_audit_creation_method	'MofGen! by Chris Wilmer'
_symmetry_space_group_name_H-M	'P1'
_symmetry_Int_Tables_number	1
_symmetry_cell_setting	triclinic
loop_
_symmetry_equiv_pos_as_xyz
  x,y,z
_cell_length_a	25.639242
_cell_length_b	25.639234
_cell_length_c	18.215405
_cell_angle_alpha	89.975709
_cell_angle_beta	90.019347
_cell_angle_gamma	89.970648
loop_
_atom_site_label
_atom_site_type_symbol
_atom_site_fract_x
_atom_site_fract_y
_atom_site_fract_z
Zn1	Zn	0.799316	-0.295745	-0.293117
Zn2	Zn	1.299316	0.204255	0.206883
Zn3	Zn	0.799251	-0.208310	-0.416177
Zn4	Zn	1.299251	0.291690	0.083823
Zn5	Zn	0.711882	-0.208309	-0.293119
Zn6	Zn	1.211882	0.291691	0.206881
Zn7	Zn	0.711860	-0.295700	-0.416137
Zn8	Zn	1.211860	0.204300	0.083863
O9	O	0.755577	-0.252016	-0.354637
O10	O	1.255577	0.247984	0.145363
O11	O	0.872473	-0.284165	-0.309457
O12	O	1.372473	0.215835	0.190543
O13	O	0.787643	-0.135144	-0.399871
O14	O	1.287643	0.364856	0.100129
O15	O	0.723516	-0.219925	-0.190135
O16	O	1.223516	0.280075	0.309865
O17	O	0.872425	-0.219927	-0.399869
O18	O	1.372425	0.280073	0.100131
O19	O	0.787754	-0.284164	-0.190133
O20	O	1.287754	0.215836	0.309867
O21	O	0.723453	-0.135144	-0.309461
O22	O	1.223453	0.364856	0.190539
O23	O	0.638714	-0.219882	-0.309422
O24	O	1.138714	0.280118	0.190578
O25	O	0.723480	-0.368871	-0.399800
O26	O	1.223480	0.131129	0.100200
O27	O	0.638698	-0.284088	-0.399802
O28	O	1.138698	0.215912	0.100198
O29	O	0.787733	-0.368904	-0.309418
O30	O	1.287733	0.131096	0.190582
O31	O	0.787623	-0.219884	-0.519156
O32	O	1.287623	0.280116	-0.019156
O33	O	0.723417	-0.284089	-0.519126
O34	O	1.223417	0.215911	-0.019126
C35	C	0.619735	-0.251980	-0.354608
C36	C	1.119735	0.248020	0.145392
C37	C	0.561621	-0.251977	-0.354614
C38	C	1.061621	0.248023	0.145386
C39	C	0.201258	-0.285416	-0.401777
C40	C	0.701258	0.214584	0.098223
C41	C	0.146654	-0.285424	-0.401782
C42	C	0.646654	0.214576	0.098218
O43	O	0.118418	-0.313825	-0.441846
O44	O	0.618418	0.186175	0.058154
N45	N	0.119338	-0.252050	-0.354658
N46	N	0.619338	0.247950	0.145342
C47	C	0.146630	-0.218669	-0.307521
C48	C	0.646630	0.281331	0.192479
O49	O	0.118381	-0.190282	-0.267438
O50	O	0.618381	0.309718	0.232562
C51	C	0.201233	-0.218663	-0.307513
C52	C	0.701233	0.281337	0.192487
C53	C	0.228546	-0.252036	-0.354646
C54	C	0.728546	0.247964	0.145354
C55	C	0.228572	-0.318787	-0.448905
C56	C	0.728572	0.181213	0.051095
C57	C	0.283172	-0.318777	-0.448901
C58	C	0.783172	0.181223	0.051099
C59	C	0.310460	-0.285398	-0.401770
C60	C	0.810460	0.214602	0.098230
C61	C	0.283146	-0.252027	-0.354642
C62	C	0.783146	0.247973	0.145358
C63	C	0.228523	-0.185285	-0.260373
C64	C	0.728523	0.314715	0.239627
C65	C	0.283130	-0.185283	-0.260369
C66	C	0.783130	0.314717	0.239631
C67	C	0.310443	-0.218656	-0.307502
C68	C	0.810443	0.281344	0.192498
C69	C	0.365034	-0.218638	-0.307507
C70	C	0.865034	0.281362	0.192493
N71	N	0.392350	-0.252013	-0.354630
N72	N	0.892350	0.247987	0.145370
C73	C	0.365063	-0.285393	-0.401762
C74	C	0.865063	0.214607	0.098238
C75	C	0.031959	-0.218683	-0.307540
C76	C	0.531959	0.281317	0.192460
C77	C	-0.022643	-0.218685	-0.307551
C78	C	0.477357	0.281315	0.192449
C79	C	-0.022615	-0.285441	-0.401810
C80	C	0.477385	0.214559	0.098190
C81	C	0.031988	-0.285436	-0.401803
C82	C	0.531988	0.214564	0.098197
C83	C	0.059275	-0.252057	-0.354664
C84	C	0.559275	0.247943	0.145336
C85	C	0.479728	-0.285371	-0.401751
C86	C	0.979728	0.214629	0.098249
C87	C	0.534333	-0.285357	-0.401745
C88	C	1.034333	0.214643	0.098255
C89	C	0.534300	-0.218603	-0.307483
C90	C	1.034300	0.281397	0.192517
C91	C	0.479700	-0.218614	-0.307491
C92	C	0.979700	0.281386	0.192509
C93	C	0.452415	-0.252002	-0.354628
C94	C	0.952415	0.247998	0.145372
O95	O	0.393305	-0.190254	-0.267461
O96	O	0.893305	0.309746	0.232539
O97	O	0.393318	-0.313779	-0.441831
O98	O	0.893318	0.186221	0.058169
C99	C	0.755611	-0.388389	-0.354604
C100	C	1.255611	0.111611	0.145396
C101	C	0.755626	-0.446503	-0.354590
C102	C	1.255626	0.053497	0.145410
C103	C	0.722217	-0.806871	-0.307425
C104	C	1.222217	-0.306871	0.192575
C105	C	0.722219	-0.861475	-0.307412
C106	C	1.222219	-0.361475	0.192588
O107	O	0.693787	-0.889716	-0.267393
O108	O	1.193787	-0.389716	0.232607
N109	N	0.755643	-0.888785	-0.354474
N110	N	1.255643	-0.388785	0.145526
C111	C	0.789063	-0.861488	-0.401558
C112	C	1.289063	-0.361488	0.098442
O113	O	0.817492	-0.889732	-0.441587
O114	O	1.317492	-0.389732	0.058413
C115	C	0.789057	-0.806885	-0.401574
C116	C	1.289057	-0.306885	0.098426
C117	C	0.755634	-0.779578	-0.354504
C118	C	1.255634	-0.279578	0.145496
C119	C	0.688797	-0.779564	-0.260359
C120	C	1.188797	-0.279564	0.239641
C121	C	0.688795	-0.724963	-0.260372
C122	C	1.188795	-0.224963	0.239628
C123	C	0.722213	-0.697670	-0.307451
C124	C	1.222213	-0.197670	0.192549
C125	C	0.755632	-0.724977	-0.354517
C126	C	1.255632	-0.224977	0.145483
C127	C	0.822473	-0.779589	-0.448661
C128	C	1.322473	-0.279589	0.051339
C129	C	0.822464	-0.724982	-0.448674
C130	C	1.322464	-0.224982	0.051326
C131	C	0.789042	-0.697675	-0.401604
C132	C	1.289042	-0.197675	0.098396
C133	C	0.789048	-0.643083	-0.401608
C134	C	1.289048	-0.143083	0.098392
N135	N	0.755625	-0.615773	-0.354546
N136	N	1.255625	-0.115773	0.145454
C137	C	0.722207	-0.643067	-0.307467
C138	C	1.222207	-0.143067	0.192533
C139	C	0.789072	-0.976159	-0.401521
C140	C	1.289072	-0.476159	0.098479
C141	C	0.789080	-1.030761	-0.401501
C142	C	1.289080	-0.530761	0.098499
C143	C	0.722237	-1.030745	-0.307356
C144	C	1.222237	-0.530745	0.192644
C145	C	0.722231	-0.976141	-0.307372
C146	C	1.222231	-0.476141	0.192628
C147	C	0.755648	-0.948849	-0.354459
C148	C	1.255648	-0.448849	0.145541
C149	C	0.722205	-0.528401	-0.307496
C150	C	1.222205	-0.028401	0.192504
C151	C	0.722208	-0.473796	-0.307511
C152	C	1.222208	0.026204	0.192489
C153	C	0.789050	-0.473818	-0.401658
C154	C	1.289050	0.026182	0.098342
C155	C	0.789049	-0.528418	-0.401641
C156	C	1.289049	-0.028418	0.098359
C157	C	0.755623	-0.555709	-0.354558
C158	C	1.255623	-0.055709	0.145442
O159	O	0.817464	-0.614808	-0.441609
O160	O	1.317464	-0.114808	0.058391
O161	O	0.693777	-0.614817	-0.267451
O162	O	1.193777	-0.114817	0.232549
C163	C	0.891950	-0.252052	-0.354667
C164	C	1.391950	0.247948	0.145333
C165	C	0.950064	-0.252067	-0.354680
C166	C	1.450064	0.247933	0.145320
C167	C	0.755525	-0.251993	-0.545844
C168	C	1.255525	0.248007	-0.045844
C169	C	0.755550	-0.252001	-0.627643
C170	C	1.255550	0.247999	-0.127643
C171	C	0.755574	-0.116173	-0.354618
C172	C	1.255574	0.383827	0.145382
C173	C	0.755660	-0.058059	-0.354425
C174	C	1.255660	0.441941	0.145575
C175	C	0.789080	-0.218640	-0.892691
C176	C	1.289080	0.281360	-0.392691
C177	C	0.789058	-0.218628	-0.815832
C178	C	1.289058	0.281372	-0.315832
C179	C	0.722139	-0.285427	-0.815842
C180	C	1.222139	0.214573	-0.315842
C181	C	0.722159	-0.285436	-0.892700
C182	C	1.222159	0.214564	-0.392700
C183	C	0.755632	-0.252043	-0.931122
C184	C	1.255632	0.247957	-0.431122
C185	C	0.755591	-0.252022	-0.777406
C186	C	1.255591	0.247978	-0.277406
C187	C	0.755568	-0.252009	-0.694072
C188	C	1.255568	0.247991	-0.194072
C189	C	0.755655	-0.252055	-1.014461
C190	C	1.255655	0.247945	-0.514461
C191	C	0.755644	-0.252050	-0.162685
C192	C	1.255644	0.247950	0.337315
C193	C	0.755673	-0.252064	-0.080886
C194	C	1.255673	0.247936	0.419114
H195	H	0.054223	-0.312612	-0.440181
H196	H	0.554223	0.187388	0.059819
C197	C	0.313145	-0.148566	-0.208517
C198	C	0.813145	0.351434	0.291483
H199	H	0.349577	-0.153341	-0.215257
H200	H	0.849577	0.346659	0.284743
H201	H	0.304169	-0.113424	-0.219216
H202	H	0.804169	0.386576	0.280784
H203	H	0.304209	-0.156289	-0.159085
H204	H	0.804209	0.343711	0.340915
H205	H	0.556569	-0.312534	-0.440129
H206	H	1.056569	0.187466	0.059871
C207	C	0.198564	-0.355507	-0.500755
C208	C	0.698564	0.144493	-0.000755
H209	H	0.222658	-0.375375	-0.528820
H210	H	0.722658	0.124625	-0.028820
H211	H	0.177280	-0.378329	-0.472659
H212	H	0.677280	0.121671	0.027341
H213	H	0.177248	-0.335465	-0.532792
H214	H	0.677248	0.164535	-0.032792
H215	H	0.206294	-0.158108	-0.221995
H216	H	0.706294	0.341892	0.278005
H217	H	0.849680	-0.702763	-0.487014
H218	H	1.349680	-0.202763	0.012986
C219	C	-0.052684	-0.181975	-0.255707
C220	C	0.447316	0.318025	0.244293
H221	H	-0.089113	-0.186756	-0.262457
H222	H	0.410887	0.313244	0.237543
H223	H	-0.043716	-0.189692	-0.206278
H224	H	0.456284	0.310308	0.293722
H225	H	-0.043761	-0.146828	-0.266411
H226	H	0.456239	0.353172	0.233589
C227	C	-0.052638	-0.322163	-0.453648
C228	C	0.447362	0.177837	0.046352
H229	H	-0.089069	-0.317388	-0.446893
H230	H	0.410931	0.182612	0.053107
H231	H	-0.043708	-0.314452	-0.503082
H232	H	0.456292	0.185548	-0.003082
H233	H	-0.043666	-0.357307	-0.442937
H234	H	0.456334	0.142693	0.057063
C235	C	0.685327	-0.322160	-0.773575
C236	C	1.185327	0.177840	-0.273575
H237	H	0.690110	-0.317375	-0.722298
H238	H	1.190110	0.182625	-0.222298
H239	H	0.650205	-0.314472	-0.786210
H240	H	1.150205	0.185528	-0.286210
H241	H	0.692965	-0.357301	-0.786137
H242	H	1.192965	0.142699	-0.286137
H243	H	0.816290	-0.953941	-0.439859
H244	H	1.316290	-0.453941	0.060141
H245	H	0.054172	-0.191498	-0.269154
H246	H	0.554172	0.308502	0.230846
C247	C	0.685473	-1.060772	-0.255572
C248	C	1.185473	-0.560772	0.244428
H249	H	0.665567	-1.036691	-0.227538
H250	H	1.165567	-0.536691	0.272462
H251	H	0.662687	-1.082058	-0.283717
H252	H	1.162687	-0.582058	0.216283
H253	H	0.705491	-1.082086	-0.223504
H254	H	1.205491	-0.582086	0.276496
C255	C	0.449654	-0.181904	-0.255650
C256	C	0.949654	0.318096	0.244350
H257	H	0.473728	-0.162025	-0.227578
H258	H	0.973728	0.337975	0.272422
H259	H	0.428328	-0.159091	-0.283753
H260	H	0.928328	0.340909	0.216247
H261	H	0.428378	-0.201955	-0.223620
H262	H	0.928378	0.298045	0.276380
C263	C	0.564323	-0.181891	-0.255639
C264	C	1.064323	0.318109	0.244361
H265	H	0.600754	-0.186673	-0.262385
H266	H	1.100754	0.313327	0.237615
H267	H	0.555354	-0.146746	-0.266333
H268	H	1.055354	0.353254	0.233667
H269	H	0.555390	-0.189615	-0.206206
H270	H	1.055390	0.310385	0.293794
C271	C	0.685438	-0.443761	-0.255737
C272	C	1.185438	0.056239	0.244263
H273	H	0.665533	-0.467839	-0.227705
H274	H	1.165533	0.032161	0.272295
H275	H	0.705445	-0.422474	-0.223678
H276	H	1.205445	0.077526	0.276322
H277	H	0.662645	-0.422447	-0.283896
H278	H	1.162645	0.077553	0.216104
H279	H	0.694987	-0.550615	-0.269156
H280	H	1.194987	-0.050615	0.230844
H281	H	0.661577	-0.702734	-0.222045
H282	H	1.161577	-0.202734	0.277955
C283	C	0.685366	-0.322182	-0.934977
C284	C	1.185366	0.177818	-0.434977
H285	H	0.665433	-0.342073	-0.901087
H286	H	1.165433	0.157927	-0.401087
H287	H	0.662606	-0.302159	-0.964998
H288	H	1.162606	0.197841	-0.464998
H289	H	0.705364	-0.344990	-0.964919
H290	H	1.205364	0.155010	-0.464919
C291	C	0.652037	-0.809578	-0.208564
C292	C	1.152037	-0.309578	0.291436
H293	H	0.632139	-0.785487	-0.180537
H294	H	1.132139	-0.285487	0.319463
H295	H	0.629244	-0.830868	-0.236693
H296	H	1.129244	-0.330868	0.263307
H297	H	0.672055	-0.830888	-0.176491
H298	H	1.172055	-0.330888	0.323509
H299	H	0.695016	-0.953911	-0.269043
H300	H	1.195016	-0.453911	0.230957
H301	H	0.816294	-0.191428	-0.784544
H302	H	1.316294	0.308572	-0.284544
C303	C	0.449722	-0.322113	-0.453577
C304	C	0.949722	0.177887	0.046423
H305	H	0.473816	-0.341985	-0.481637
H306	H	0.973816	0.158015	0.018363
H307	H	0.428451	-0.344930	-0.425454
H308	H	0.928451	0.155070	0.074546
H309	H	0.428394	-0.302089	-0.485620
H310	H	0.928394	0.197911	0.014380
H311	H	0.816302	-1.052990	-0.439822
H312	H	1.316302	-0.552990	0.060178
H313	H	0.816259	-0.451586	-0.439986
H314	H	1.316259	0.048414	0.060014
C315	C	0.859235	-0.809618	-0.500441
C316	C	1.359235	-0.309618	-0.000441
H317	H	0.854460	-0.846048	-0.493694
H318	H	1.354460	-0.346048	0.006306
H319	H	0.851561	-0.800652	-0.549885
H320	H	1.351561	-0.300652	-0.049885
H321	H	0.894369	-0.800683	-0.489678
H322	H	1.394369	-0.300683	0.010322
C323	C	0.313210	-0.355494	-0.500738
C324	C	0.813210	0.144506	-0.000738
H325	H	0.289131	-0.375377	-0.528799
H326	H	0.789131	0.124623	-0.028799
H327	H	0.334494	-0.335458	-0.532768
H328	H	0.834494	0.164542	-0.032768
H329	H	0.334527	-0.378312	-0.472621
H330	H	0.834527	0.121688	0.027379
C331	C	0.825821	-0.558457	-0.453406
C332	C	1.325821	-0.058457	0.046594
H333	H	0.845723	-0.534380	-0.481445
H334	H	1.345723	-0.034380	0.018555
H335	H	0.848610	-0.579775	-0.425252
H336	H	1.348610	-0.079775	0.074748
H337	H	0.805810	-0.579741	-0.485470
H338	H	1.305810	-0.079741	0.014530
C339	C	0.825893	-0.181905	-0.934954
C340	C	1.325893	0.318095	-0.434954
H341	H	0.845806	-0.162006	-0.901055
H342	H	1.345806	0.337994	-0.401055
H343	H	0.848670	-0.201932	-0.964899
H344	H	1.348670	0.298068	-0.464899
H345	H	0.805910	-0.159103	-0.964972
H346	H	1.305910	0.340897	-0.464972
