data_functionalizedCrystal
_audit_creation_method	'MofGen! by Chris Wilmer'
_symmetry_space_group_name_H-M	'P1'
_symmetry_Int_Tables_number	1
_symmetry_cell_setting	triclinic
loop_
_symmetry_equiv_pos_as_xyz
  x,y,z
_cell_length_a	23.532361
_cell_length_b	23.532407
_cell_length_c	15.072220
_cell_angle_alpha	89.994175
_cell_angle_beta	89.991810
_cell_angle_gamma	82.839173
loop_
_atom_site_label
_atom_site_type_symbol
_atom_site_fract_x
_atom_site_fract_y
_atom_site_fract_z
O1	O	0.755284	0.069005	-0.073702
O2	O	1.255284	0.569005	0.426298
O3	O	0.589417	0.079036	-0.073725
O4	O	1.089417	0.579036	0.426275
O5	O	0.677352	-0.008912	-0.073697
O6	O	1.177352	0.491088	0.426303
O7	O	0.667348	0.156953	-0.073731
O8	O	1.167348	0.656953	0.426269
O9	O	0.677330	-0.008907	0.073868
O10	O	1.177330	0.491093	0.573868
O11	O	0.589395	0.079041	0.073840
O12	O	1.089395	0.579041	0.573840
O13	O	0.755262	0.069010	0.073863
O14	O	1.255262	0.569010	0.573863
Zn15	Zn	0.672325	0.074026	0.097281
Zn16	Zn	1.172325	0.574026	0.597281
Zn17	Zn	0.672354	0.074019	-0.097143
Zn18	Zn	1.172354	0.574019	0.402857
O19	O	0.667327	0.156958	0.073834
O20	O	1.167327	0.656958	0.573834
C21	C	0.568189	0.078787	0.000055
C22	C	1.068189	0.578787	0.500055
C23	C	0.504971	0.078032	0.000047
C24	C	1.004971	0.578032	0.500047
C25	C	0.231739	0.074726	-0.080385
C26	C	0.731739	0.574726	0.419615
C27	C	0.291139	0.075440	-0.080387
C28	C	0.791139	0.575440	0.419613
O29	O	0.321875	0.075788	-0.148795
O30	O	0.821875	0.575788	0.351205
N31	N	0.320832	0.075804	0.000051
N32	N	0.820832	0.575804	0.500051
C33	C	0.291124	0.075447	0.080497
C34	C	0.791124	0.575447	0.580497
O35	O	0.321836	0.075822	0.148915
O36	O	0.821836	0.575822	0.648915
C37	C	0.231726	0.074728	0.080498
C38	C	0.731726	0.574728	0.580498
C39	C	0.202035	0.074370	0.000055
C40	C	0.702035	0.574370	0.500055
C41	C	0.202047	0.074367	-0.160821
C42	C	0.702047	0.574367	0.339179
C43	C	0.142651	0.073653	-0.160819
C44	C	0.642651	0.573653	0.339181
C45	C	0.112947	0.073298	-0.080379
C46	C	0.612947	0.573298	0.419621
C47	C	0.142639	0.073657	0.000057
C48	C	0.642639	0.573657	0.500057
C49	C	0.202020	0.074367	0.160943
C50	C	0.702020	0.574367	0.660943
C51	C	0.142618	0.073648	0.160937
C52	C	0.642618	0.573648	0.660937
C53	C	0.112926	0.073290	0.080494
C54	C	0.612926	0.573290	0.580494
C55	C	0.053539	0.072588	0.080499
C56	C	0.553539	0.572588	0.580499
N57	N	0.023845	0.072224	0.000061
N58	N	0.523845	0.572224	0.500061
C59	C	0.053549	0.072579	-0.080378
C60	C	0.553549	0.572579	0.419622
C61	C	0.415864	0.076956	0.080487
C62	C	0.915864	0.576956	0.580487
C63	C	0.475261	0.077679	0.080487
C64	C	0.975261	0.577679	0.580487
C65	C	0.475271	0.077671	-0.080397
C66	C	0.975271	0.577671	0.419603
C67	C	0.415873	0.076952	-0.080396
C68	C	0.915873	0.576952	0.419604
C69	C	0.386171	0.076593	0.000049
C70	C	0.886171	0.576593	0.500049
C71	C	-0.071186	0.071080	-0.080366
C72	C	0.428814	0.571080	0.419634
C73	C	-0.130588	0.070369	-0.080357
C74	C	0.369412	0.570369	0.419643
C75	C	-0.130593	0.070374	0.080527
C76	C	0.369407	0.570374	0.580527
C77	C	-0.071197	0.071088	0.080518
C78	C	0.428803	0.571088	0.580518
C79	C	-0.041495	0.071440	0.000064
C80	C	0.458505	0.571440	0.500064
O81	O	0.022765	0.072237	0.148872
O82	O	0.522765	0.572237	0.648872
O83	O	0.022832	0.072197	-0.148785
O84	O	0.522832	0.572197	0.351215
C85	C	0.677086	-0.030126	0.000088
C86	C	1.177086	0.469874	0.500088
C87	C	0.676320	-0.093343	0.000095
C88	C	1.176320	0.406657	0.500095
C89	C	0.723555	-0.492454	0.000052
C90	C	1.223555	0.007546	0.500052
C91	C	0.722844	-0.551854	0.000046
C92	C	1.222844	-0.051854	0.500046
O93	O	0.766630	-0.588606	0.000019
O94	O	1.266630	-0.088606	0.500019
N95	N	0.670566	-0.574471	0.000039
N96	N	1.170566	-0.074471	0.500039
C97	C	0.618997	-0.537685	0.000031
C98	C	1.118997	-0.037685	0.500031
O99	O	0.574465	-0.562377	0.000024
O100	O	1.074465	-0.062377	0.500024
C101	C	0.619709	-0.478286	0.000031
C102	C	1.119709	0.021714	0.500031
C103	C	0.671990	-0.455672	0.000046
C104	C	1.171990	0.044328	0.500046
C105	C	0.775832	-0.469839	0.000067
C106	C	1.275832	0.030161	0.500067
C107	C	0.776543	-0.410443	0.000075
C108	C	1.276543	0.089557	0.500075
C109	C	0.724977	-0.373662	0.000069
C110	C	1.224977	0.126338	0.500069
C111	C	0.672701	-0.396276	0.000055
C112	C	1.172701	0.103724	0.500055
C113	C	0.568140	-0.441501	0.000016
C114	C	1.068140	0.058499	0.500016
C115	C	0.568857	-0.382099	0.000016
C116	C	1.068857	0.117901	0.500016
C117	C	0.621137	-0.359485	0.000031
C118	C	1.121137	0.140515	0.500031
C119	C	0.621847	-0.300099	0.000057
C120	C	1.121847	0.199901	0.500057
N121	N	0.674124	-0.277481	0.000064
N122	N	1.174124	0.222519	0.500064
C123	C	0.725690	-0.314263	0.000070
C124	C	1.225690	0.185737	0.500070
C125	C	0.617505	-0.662427	0.000028
C126	C	1.117505	-0.162427	0.500028
C127	C	0.616793	-0.721825	0.000034
C128	C	1.116793	-0.221825	0.500034
C129	C	0.720640	-0.735990	0.000047
C130	C	1.220640	-0.235990	0.500047
C131	C	0.721352	-0.676591	0.000048
C132	C	1.221352	-0.176591	0.500048
C133	C	0.669783	-0.639810	0.000034
C134	C	1.169783	-0.139810	0.500034
C135	C	0.727179	-0.189526	0.000089
C136	C	1.227179	0.310474	0.500089
C137	C	0.727886	-0.130124	0.000101
C138	C	1.227886	0.369876	0.500101
C139	C	0.624039	-0.115965	0.000083
C140	C	1.124039	0.384035	0.500083
C141	C	0.623332	-0.175361	0.000075
C142	C	1.123332	0.324639	0.500075
C143	C	0.674907	-0.212141	0.000075
C144	C	1.174907	0.287859	0.500075
O145	O	0.578083	-0.263312	0.000081
O146	O	1.078083	0.236688	0.500081
O147	O	0.770214	-0.289562	0.000065
O148	O	1.270214	0.210438	0.500065
C149	C	0.776489	0.069258	0.000081
C150	C	1.276489	0.569258	0.500081
C151	C	0.839708	0.070014	0.000083
C152	C	1.339708	0.570014	0.500083
C153	C	0.667592	0.178171	0.000048
C154	C	1.167592	0.678171	0.500048
C155	C	0.668358	0.241388	0.000035
C156	C	1.168358	0.741388	0.500035
N157	N	0.672310	0.074030	0.229969
N158	N	1.172310	0.574030	0.729969
N159	N	0.672373	0.074011	-0.229832
N160	N	1.172373	0.574011	0.270168
C161	C	0.672352	0.074017	0.589171
C162	C	1.172352	0.574017	1.089171
C163	C	0.625144	0.120920	0.551549
C164	C	1.125144	0.620920	1.051549
C165	C	0.625250	0.121090	0.448723
C166	C	1.125250	0.621090	0.948723
C167	C	0.672331	0.074024	0.410967
C168	C	1.172331	0.574024	0.910967
C169	C	0.731683	0.086657	0.448263
C170	C	1.231683	0.586657	0.948263
C171	C	0.731418	0.086989	0.551121
C172	C	1.231418	0.586989	1.051121
C173	C	0.660740	0.014340	0.551281
C174	C	1.160740	0.514340	1.051281
C175	C	0.659374	0.014746	0.448418
C176	C	1.159374	0.514746	0.948418
C177	C	0.672322	0.074026	0.310253
C178	C	1.172322	0.574026	0.810253
C179	C	0.672365	0.074016	0.689884
C180	C	1.172365	0.574016	1.189884
H181	H	0.118482	0.073359	-0.226324
H182	H	0.618482	0.573359	0.273676
Cl183	Cl	0.557109	0.109586	0.409789
Cl184	Cl	1.057109	0.609586	0.909789
H185	H	0.580872	0.113573	0.576306
H186	H	1.080872	0.613573	1.076306
H187	H	-0.047010	0.071367	-0.145879
H188	H	0.452990	0.571367	0.354121
Cl189	Cl	0.512625	0.078119	-0.181522
Cl190	Cl	1.012625	0.578119	0.318478
H191	H	0.391702	0.076661	-0.145900
H192	H	0.891702	0.576661	0.354100
Cl193	Cl	0.785465	-0.782241	0.000049
Cl194	Cl	1.285465	-0.282241	0.500049
Cl195	Cl	0.842271	-0.382024	0.000070
Cl196	Cl	1.342271	0.117976	0.500070
Cl197	Cl	0.787206	0.036169	0.589547
Cl198	Cl	1.287206	0.536169	1.089547
H199	H	0.525567	-0.459902	-0.000002
H200	H	1.025567	0.040098	0.499998
H201	H	0.226226	0.074654	-0.226329
H202	H	0.726226	0.574654	0.273671
H203	H	0.770461	-0.111716	0.000116
H204	H	1.270461	0.388284	0.500116
Cl205	Cl	0.636384	0.188924	0.591408
Cl206	Cl	1.136384	0.688924	1.091408
Cl207	Cl	0.636623	0.189482	0.410702
Cl208	Cl	1.136623	0.689482	0.910702
H209	H	0.615716	0.005151	0.424042
H210	H	1.115716	0.505151	0.924042
H211	H	0.499430	0.077980	0.145992
H212	H	0.999430	0.577980	0.645992
H213	H	0.741703	0.130501	0.575095
H214	H	1.241703	0.630501	1.075095
Cl215	Cl	0.551065	-0.750246	0.000031
Cl216	Cl	1.051065	-0.250246	0.500031
H217	H	0.695171	-0.020560	0.575611
H218	H	1.195171	0.479440	1.075611
H219	H	0.391683	0.076671	0.145999
H220	H	0.891683	0.576671	0.645999
H221	H	0.226185	0.074657	0.226448
H222	H	0.726185	0.574657	0.726448
H223	H	0.691551	-0.021766	0.422721
H224	H	1.191551	0.478234	0.922721
H225	H	0.526862	-0.352154	0.000004
H226	H	1.026862	0.147846	0.500004
H227	H	-0.047022	0.071391	0.146021
H228	H	0.452978	0.571391	0.646021
H229	H	-0.154760	0.070079	-0.145866
H230	H	0.345240	0.570079	0.354134
H231	H	0.769176	-0.219466	0.000085
H232	H	1.269176	0.280534	0.500085
Cl233	Cl	0.105281	0.073192	0.262075
Cl234	Cl	0.605281	0.573192	0.762075
H235	H	-0.154789	0.070087	0.146018
H236	H	0.345211	0.570087	0.646018
Cl237	Cl	0.840666	-0.516069	0.000076
Cl238	Cl	1.340666	-0.016069	0.500076
H239	H	0.580761	-0.193774	0.000087
H240	H	1.080761	0.306226	0.500087
Cl241	Cl	0.787078	-0.648169	0.000066
Cl242	Cl	1.287078	-0.148169	0.500066
H243	H	0.767638	0.053389	0.423805
H244	H	1.267638	0.553389	0.923805
H245	H	0.575509	-0.632483	0.000025
H246	H	1.075509	-0.132483	0.500025
H247	H	0.582056	-0.086007	0.000081
H248	H	1.082056	0.413993	0.500081
H249	H	0.742222	0.129670	0.422487
H250	H	1.242222	0.629670	0.922487
H251	H	0.618418	0.002106	0.577269
H252	H	1.118418	0.502106	1.077269
