data_functionalizedCrystal
_audit_creation_method	'MofGen! by Chris Wilmer'
_symmetry_space_group_name_H-M	'P1'
_symmetry_Int_Tables_number	1
_symmetry_cell_setting	triclinic
loop_
_symmetry_equiv_pos_as_xyz
  x,y,z
_cell_length_a	16.109301
_cell_length_b	17.038272
_cell_length_c	15.186229
_cell_angle_alpha	89.995962
_cell_angle_beta	89.999362
_cell_angle_gamma	87.286518
loop_
_atom_site_label
_atom_site_type_symbol
_atom_site_fract_x
_atom_site_fract_y
_atom_site_fract_z
O1	O	1.110268	0.100495	-0.073174
O2	O	0.869094	0.113001	-0.073188
O3	O	0.988247	-0.007067	-0.073174
O4	O	0.991114	0.220563	-0.073187
O5	O	0.988239	-0.007069	0.073284
O6	O	0.869085	0.113000	0.073270
O7	O	1.110259	0.100493	0.073284
Zn8	Zn	0.989671	0.106746	0.096530
Zn9	Zn	0.989682	0.106748	-0.096434
O10	O	0.991105	0.220562	0.073270
C11	C	0.838079	0.112494	0.000039
C12	C	0.745676	0.110975	0.000034
C13	C	0.528212	0.178690	0.000040
C14	C	0.441390	0.177257	0.000046
C15	C	0.451147	0.034799	0.000051
C16	C	0.537968	0.036233	0.000051
C17	C	0.576498	0.108181	0.000042
C18	C	0.402855	0.105314	0.000047
C19	C	0.308719	0.103759	0.000053
C20	C	0.670640	0.109736	0.000037
C21	C	0.985636	-0.036196	0.000055
C22	C	0.977857	-0.122989	0.000054
C23	C	1.049277	-0.173104	0.000059
C24	C	1.041963	-0.254654	0.000050
C25	C	0.963228	-0.286089	0.000043
C26	C	0.891802	-0.235967	0.000035
C27	C	0.899116	-0.154418	0.000038
C28	C	0.937385	-0.531846	0.000029
C29	C	0.930076	-0.613402	0.000029
C30	C	1.080238	-0.632083	0.000043
C31	C	1.087546	-0.550532	0.000051
C32	C	1.016120	-0.500418	0.000038
C33	C	0.955749	-0.369446	0.000037
C34	C	1.023599	-0.417062	0.000038
C35	C	1.141274	0.101001	0.000055
C36	C	1.233677	0.102519	0.000054
C37	C	0.993717	0.249691	0.000039
C38	C	1.001496	0.336484	0.000034
N39	N	0.989669	0.106744	0.228223
N40	N	0.989690	0.106744	-0.228126
C41	C	1.042451	0.053596	0.453952
C42	C	1.042453	0.053594	0.546141
C43	C	0.936902	0.159895	0.546138
C44	C	0.936896	0.159893	0.453950
C45	C	0.989675	0.106744	0.407859
C46	C	0.989684	0.106745	0.592237
C47	C	0.989686	0.106743	0.692193
C48	C	0.989672	0.106744	0.307897
H49	H	1.113392	-0.147517	0.000071
C50	C	0.641264	-0.044803	0.075343
C51	C	0.591050	-0.041276	0.000052
H52	H	0.674030	-0.092655	0.075346
H53	H	0.676631	-0.001755	0.075336
H54	H	0.607180	-0.042406	0.126408
H55	H	0.625134	-0.043668	-0.051014
H56	H	0.555679	-0.084337	0.000051
C57	C	0.926374	0.266291	0.350259
C58	C	0.878884	0.218320	0.403277
H59	H	0.890558	0.302355	0.318973
H60	H	0.962962	0.294424	0.386217
H61	H	0.957797	0.234625	0.309620
H62	H	0.847465	0.249985	0.443921
H63	H	0.842281	0.190185	0.367316
H64	H	1.100122	-0.295455	0.000056
H65	H	1.085425	0.010318	0.416427
C66	C	0.620195	0.262940	0.075320
C67	C	0.570569	0.257771	0.000036
H68	H	0.646346	0.311761	0.075314
H69	H	0.586528	0.259422	0.126384
H70	H	0.661376	0.221149	0.075311
H71	H	0.529384	0.299560	0.000049
H72	H	0.604239	0.261297	-0.051042
C73	C	0.834753	-0.694282	-0.075267
C74	C	0.843526	-0.647961	0.000017
H75	H	0.781326	-0.715623	-0.075268
H76	H	0.840724	-0.662855	-0.126331
H77	H	0.876253	-0.735793	-0.075250
H78	H	0.802029	-0.606447	-0.000003
H79	H	0.837546	-0.679391	0.051095
H80	H	0.402079	0.234672	0.000047
H81	H	1.151661	-0.524945	0.000057
H82	H	1.138389	-0.672894	0.000051
C83	C	0.432738	-0.087060	-0.075236
C84	C	0.408793	-0.044283	0.000050
H85	H	0.406595	-0.135885	-0.075234
H86	H	0.416504	-0.058026	-0.126299
H87	H	0.491357	-0.096291	-0.075223
H88	H	0.350174	-0.035047	0.000034
H89	H	0.425022	-0.073324	0.051127
H90	H	0.827693	-0.261567	0.000023
H91	H	0.840958	-0.113615	0.000033
H92	H	0.879224	-0.491053	0.000019
C93	C	1.118936	-0.336182	-0.075237
C94	C	1.110143	-0.382509	0.000048
H95	H	1.172363	-0.314842	-0.075224
H96	H	1.112978	-0.367606	-0.126301
H97	H	1.077436	-0.294672	-0.075234
H98	H	1.151639	-0.424023	0.000041
H99	H	1.116109	-0.351083	0.051125
C100	C	0.860424	-0.450320	-0.075251
C101	C	0.869205	-0.404006	0.000037
H102	H	0.806998	-0.471662	-0.075247
H103	H	0.866388	-0.418888	-0.126313
H104	H	0.901925	-0.491830	-0.075244
H105	H	0.827708	-0.362492	0.000027
H106	H	0.863233	-0.435440	0.051112
C107	C	1.146792	-0.051472	0.536878
C108	C	1.100470	-0.004825	0.596806
H109	H	1.182612	-0.087535	0.568158
H110	H	1.110196	-0.079605	0.500929
H111	H	1.178992	-0.018908	0.500915
H112	H	1.068264	-0.037389	0.632765
H113	H	1.137070	0.023310	0.632771
C114	C	0.890052	0.207106	0.687455
C115	C	0.878899	0.218322	0.596804
H116	H	0.854246	0.243183	0.718731
H117	H	0.877330	0.154931	0.702568
H118	H	0.946143	0.215612	0.702546
H119	H	0.822809	0.209811	0.581713
H120	H	0.891615	0.270509	0.581686
