data_functionalizedCrystal
_audit_creation_method	'MofGen! by Chris Wilmer'
_symmetry_space_group_name_H-M	'P1'
_symmetry_Int_Tables_number	1
_symmetry_cell_setting	triclinic
loop_
_symmetry_equiv_pos_as_xyz
  x,y,z
_cell_length_a	10.908937
_cell_length_b	16.109301
_cell_length_c	14.586319
_cell_angle_alpha	90.005214
_cell_angle_beta	89.994711
_cell_angle_gamma	108.226282
loop_
_atom_site_label
_atom_site_type_symbol
_atom_site_fract_x
_atom_site_fract_y
_atom_site_fract_z
O1	O	1.703891	0.128408	-0.076263
O2	O	1.330003	0.063482	-0.076261
O3	O	1.527218	0.218394	-0.076252
O4	O	1.506676	-0.026504	-0.076271
O5	O	1.527205	0.218394	0.076229
O6	O	1.329990	0.063482	0.076220
O7	O	1.703878	0.128408	0.076218
Cu8	Cu	1.516932	0.095945	0.090142
Cu9	Cu	1.516949	0.095945	-0.090184
O10	O	1.506663	-0.026504	0.076210
C11	C	1.282153	0.057415	-0.000020
C12	C	1.139594	0.039345	-0.000019
C13	C	0.943272	0.086611	-0.000032
C14	C	1.090614	0.105288	-0.000019
C15	C	1.526380	0.249254	-0.000011
C16	C	1.523885	0.341205	-0.000010
C17	C	1.751728	0.134476	-0.000025
C18	C	1.894287	0.152545	-0.000032
C19	C	1.507502	-0.057364	-0.000033
C20	C	1.509996	-0.149315	-0.000040
N21	N	1.516930	0.095947	0.216974
C22	C	1.635108	0.578835	-0.000025
C23	C	1.632754	0.665231	-0.000033
C24	C	1.398765	0.613047	-0.000028
C25	C	1.401120	0.526653	-0.000027
C26	C	1.519295	0.509551	-0.000021
C27	C	1.514586	0.682340	-0.000029
C28	C	1.512033	0.776013	-0.000038
C29	C	1.521849	0.415871	-0.000014
N30	N	1.516961	0.095951	-0.217016
C31	C	1.604286	0.164527	0.451984
C32	C	1.604290	0.164530	0.547965
C33	C	1.429596	0.027367	0.547967
C34	C	1.429587	0.027369	0.451988
C35	C	1.516939	0.095949	0.403998
C36	C	1.516952	0.095950	0.595959
C37	C	1.516955	0.095952	0.700026
C38	C	1.516935	0.095947	0.299925
H39	H	1.157755	0.175569	-0.000015
H40	H	1.731333	0.564914	-0.000022
H41	H	1.072455	-0.030936	-0.000030
H42	H	1.727060	0.721641	-0.000038
H43	H	0.961431	0.222821	-0.000028
H44	H	1.302550	0.626983	-0.000031
F45	F	1.697251	0.237518	0.400914
H46	H	1.358453	-0.028478	0.412915
H47	H	1.306806	0.470237	-0.000026
F48	F	1.336637	-0.045619	0.599047
F49	F	0.855516	-0.005247	-0.000053
F50	F	1.697253	0.237521	0.599032
