data_functionalizedCrystal
_audit_creation_method	'MofGen! by Chris Wilmer'
_symmetry_space_group_name_H-M	'P1'
_symmetry_Int_Tables_number	1
_symmetry_cell_setting	triclinic
loop_
_symmetry_equiv_pos_as_xyz
  x,y,z
_cell_length_a	20.919309
_cell_length_b	14.628931
_cell_length_c	14.628931
_cell_angle_alpha	59.999836
_cell_angle_beta	57.441150
_cell_angle_gamma	89.998982
loop_
_atom_site_label
_atom_site_type_symbol
_atom_site_fract_x
_atom_site_fract_y
_atom_site_fract_z
Zr1	Zr	0.641763	-0.084267	0.929157
O2	O	0.535391	-0.236145	1.131702
O3	O	0.674372	-0.037708	0.734822
O4	O	0.674371	-0.228415	0.925529
O5	O	0.535392	0.104993	0.940995
O6	O	0.784001	-0.222317	0.913328
O7	O	0.535392	-0.045439	0.940996
O8	O	0.784002	0.118822	0.572188
O9	O	0.535391	-0.236146	1.282134
O10	O	0.770094	-0.013301	0.802609
O11	O	0.688279	0.094414	0.811714
O12	O	0.688278	-0.130118	1.036247
O13	O	0.606463	-0.022403	1.045352
Zr14	Zr	0.816610	0.165380	0.909697
Zr15	Zr	0.816609	-0.074542	0.909698
Zr16	Zr	0.641763	0.155655	0.929157
Zr17	Zr	0.641762	-0.084268	1.169079
Zr18	Zr	0.816610	0.165380	0.669775
O19	O	0.784001	0.118821	1.104033
O20	O	0.784001	-0.222317	1.104034
O21	O	0.535391	0.104993	1.131701
O22	O	0.922981	0.317258	0.707153
O23	O	0.922981	-0.023880	0.707154
O24	O	0.674372	0.303430	0.734821
O25	O	0.922981	-0.023881	0.897860
O26	O	0.784001	0.309527	0.913326
O27	O	0.674372	0.303429	0.925527
O28	O	0.922981	0.126551	0.897859
O29	O	0.674371	-0.228415	1.266667
O30	O	0.784002	0.309528	0.572188
O31	O	0.922982	0.317258	0.556720
O32	O	0.922981	0.126552	0.556721
O33	O	0.535391	-0.045440	1.282134
O34	O	0.674371	-0.037709	1.266666
O35	O	0.770094	0.211230	0.802608
O36	O	0.851910	0.103515	0.793503
O37	O	0.770094	-0.013302	1.027141
O38	O	0.688278	0.094414	1.036246
C39	C	0.510480	0.028391	0.943768
C40	C	0.436253	0.024263	0.952029
C41	C	0.729187	0.040557	0.619321
C42	C	0.729187	0.040557	0.517468
C43	C	0.729187	0.340662	0.919426
C44	C	0.729187	0.442515	0.919426
C45	C	0.444086	0.083295	0.833957
C46	C	0.374339	0.079413	0.841727
C47	C	0.296760	0.016492	0.967570
C48	C	0.288928	-0.042541	1.085651
C49	C	0.358674	-0.038652	1.077880
C50	C	0.084035	0.001705	0.997136
C51	C	0.014287	-0.002182	1.004898
C52	C	0.099702	0.119774	0.760973
C53	C	0.169446	0.123652	0.753212
C54	C	0.161609	0.064624	0.871293
C55	C	0.225466	0.012520	0.975515
C56	C	0.232902	0.068603	0.863347
C57	C	0.947893	0.052721	0.895087
C58	C	1.022120	0.056850	0.886826
C59	C	0.729186	-0.259549	0.919428
C60	C	0.729186	-0.361403	0.919429
C61	C	0.688601	0.429975	1.035326
C62	C	0.688600	0.535244	1.035328
C63	C	0.671789	-0.041395	0.557207
C64	C	0.671788	-0.041397	0.451938
C65	C	0.729186	0.040556	1.219533
C66	C	0.729186	0.040555	1.321386
C67	C	0.947893	0.052722	0.594981
C68	C	1.022120	0.056850	0.484867
C69	C	0.729187	0.340663	0.619321
C70	C	0.729187	0.442516	0.517467
C71	C	0.947894	0.352827	0.594980
C72	C	1.022121	0.458809	0.484866
C73	C	0.510479	-0.271715	1.243875
C74	C	0.436252	-0.377697	1.353989
C75	C	0.510479	0.028391	1.243874
C76	C	0.436252	0.024262	1.353988
C77	C	0.729185	-0.259550	1.219534
C78	C	0.729185	-0.361403	1.321388
C79	C	1.014271	-0.002198	0.437909
C80	C	1.084009	0.001659	0.334459
C81	C	1.161595	0.064571	0.277962
C82	C	1.169442	0.123621	0.324930
C83	C	1.099705	0.119757	0.428384
C84	C	1.099693	0.452354	0.428401
C85	C	1.169444	0.551926	0.324950
C86	C	1.161621	0.657953	0.277958
C87	C	1.084041	0.664406	0.334433
C88	C	1.014292	0.564835	0.437889
C89	C	0.358680	-0.371241	1.410465
C90	C	0.288929	-0.470814	1.513947
C91	C	0.296751	-0.576841	1.560943
C92	C	0.374331	-0.583294	1.504462
C93	C	0.444081	-0.483722	1.400989
C94	C	0.444101	0.083300	1.400956
C95	C	0.374363	0.079417	1.504432
C96	C	0.296778	0.016502	1.560932
C97	C	0.288930	-0.042544	1.513960
C98	C	0.358667	-0.038666	1.410492
C99	C	0.769773	0.545874	0.467541
C100	C	0.769775	0.651146	0.362269
H101	H	0.507250	0.134536	0.731481
H102	H	0.653855	0.524683	1.134554
F103	F	1.235863	0.763918	0.167847
H104	H	0.507241	-0.488992	1.355007
F105	F	0.607561	-0.133107	0.703539
H106	H	0.804523	0.739809	0.319350
F107	F	0.382644	-0.696145	1.554492
F108	F	0.683765	0.428715	0.471482
F109	F	1.252022	0.190576	0.264784
H110	H	0.622647	-0.111557	0.485785
H111	H	1.232607	0.546652	0.278978
H112	H	0.077643	-0.046380	1.093286
F113	F	0.815186	0.559675	0.513541
H114	H	1.077684	0.750746	0.296157
F115	F	0.142896	-0.054444	1.109444
H116	H	0.352265	-0.086740	1.372255
F117	F	0.222510	-0.682805	1.671070
H118	H	0.225766	-0.465538	1.559917
H119	H	0.763937	0.649167	0.820197
H120	H	0.763929	0.531184	0.820202
F121	F	0.793417	0.132274	0.277129
H122	H	0.778327	0.110717	0.405513
F123	F	0.683773	0.522717	0.377464
H124	H	0.225751	-0.093768	1.559979
H125	H	0.380724	0.127485	0.745580
F126	F	0.931705	-0.069164	0.498023
H127	H	0.653851	0.341305	1.134551
H128	H	1.077604	-0.046427	0.296232
F129	F	1.235809	0.068674	0.167855
F130	F	0.526667	0.150264	1.340845
H131	H	0.951132	0.570106	0.483850
H132	H	1.106108	0.167848	0.466604
H133	H	1.106078	0.366031	0.466646
H134	H	0.232611	0.174867	0.650737
F135	F	0.222564	0.012387	1.671051
F136	F	0.108035	0.182596	0.635311
H137	H	0.352292	-0.086709	1.174027
H138	H	0.380769	0.127504	1.542658
F139	F	-0.068282	-0.069164	1.138844
F140	F	0.315467	0.135575	0.729419
F141	F	0.206361	-0.109499	1.219584
H142	H	0.352295	-0.284918	1.372207
