data_functionalizedCrystal
_audit_creation_method	'MofGen! by Chris Wilmer'
_symmetry_space_group_name_H-M	'P1'
_symmetry_Int_Tables_number	1
_symmetry_cell_setting	triclinic
loop_
_symmetry_equiv_pos_as_xyz
  x,y,z
_cell_length_a	24.447405
_cell_length_b	24.446649
_cell_length_c	24.443239
_cell_angle_alpha	60.006064
_cell_angle_beta	60.011844
_cell_angle_gamma	59.992812
loop_
_atom_site_label
_atom_site_type_symbol
_atom_site_fract_x
_atom_site_fract_y
_atom_site_fract_z
O1	O	0.075907	-0.799232	0.668277
O2	O	0.575907	-0.299232	1.168277
O3	O	0.028634	-0.622262	0.538455
O4	O	0.528634	-0.122262	1.038455
O5	O	0.140702	-0.734230	0.538349
O6	O	0.640702	-0.234230	1.038349
O7	O	-0.036160	-0.687265	0.668384
O8	O	0.463840	-0.187265	1.168384
O9	O	0.177886	-0.697056	0.575424
O10	O	0.677886	-0.197056	1.075424
O11	O	0.065818	-0.585088	0.575530
O12	O	0.565818	-0.085088	1.075530
O13	O	0.113091	-0.762059	0.705353
O14	O	0.613091	-0.262059	1.205353
Cu15	Cu	0.092850	-0.670179	0.643827
Cu16	Cu	0.592850	-0.170179	1.143827
Cu17	Cu	0.048876	-0.714142	0.599981
Cu18	Cu	0.548876	-0.214142	1.099981
O19	O	0.001024	-0.650091	0.705459
O20	O	0.501024	-0.150091	1.205459
N21	N	0.123780	-0.639263	0.674669
N22	N	0.623780	-0.139263	1.174669
N23	N	0.017951	-0.745064	0.569139
N24	N	0.517951	-0.245064	1.069139
C25	C	0.170236	-0.489965	0.721065
C26	C	0.670236	0.010035	1.221065
C27	C	0.170249	-0.592837	0.721058
C28	C	0.670249	-0.092837	1.221058
C29	C	0.195989	-0.567121	0.746758
C30	C	0.695989	-0.067121	1.246758
C31	C	0.308182	-0.547773	0.687664
C32	C	0.808182	-0.047773	1.187664
C33	C	0.378316	-0.571143	0.664253
C34	C	0.878316	-0.071143	1.164253
C35	C	0.378353	-0.684626	0.707525
C36	C	0.878353	-0.184626	1.207525
C37	C	0.308220	-0.661254	0.730938
C38	C	0.808220	-0.161254	1.230938
C39	C	0.187125	-0.454882	0.652117
C40	C	0.687125	0.045118	1.152117
C41	C	0.163710	-0.384741	0.628763
C42	C	0.663710	0.115259	1.128763
C43	C	0.106523	-0.384772	0.743308
C44	C	0.606523	0.115228	1.243308
C45	C	0.129938	-0.454913	0.766662
C46	C	0.629938	0.045087	1.266662
C47	C	0.101291	-0.575906	0.738041
C48	C	0.601291	-0.075906	1.238041
C49	C	0.077897	-0.599283	0.714670
C50	C	0.577897	-0.099283	1.214670
C51	C	0.192412	-0.656523	0.657348
C52	C	0.692412	-0.156523	1.157348
C53	C	0.215809	-0.633146	0.680711
C54	C	0.715809	-0.133146	1.180711
C55	C	0.101393	-0.575928	0.859014
C56	C	0.601393	-0.075928	1.359014
C57	C	0.078071	-0.599328	0.929152
C58	C	0.578071	-0.099328	1.429152
C59	C	0.192636	-0.656582	0.929078
C60	C	0.692636	-0.156582	1.429078
C61	C	0.215955	-0.633184	0.858938
C62	C	0.715955	-0.133184	1.358938
C63	C	0.170332	-0.592855	0.823908
C64	C	0.670332	-0.092855	1.323908
C65	C	0.273137	-0.592827	0.721004
C66	C	0.773137	-0.092827	1.221004
C67	C	-0.131205	-0.791294	0.522327
C68	C	0.368795	-0.291294	1.022327
C69	C	-0.028388	-0.791420	0.522551
C70	C	0.471612	-0.291420	1.022551
C71	C	-0.054056	-0.817099	0.496741
C72	C	0.445944	-0.317099	0.996741
C73	C	-0.073479	-0.929255	0.555734
C74	C	0.426521	-0.429255	1.055734
C75	C	-0.050156	-0.999396	0.579142
C76	C	0.449844	-0.499396	1.079142
C77	C	0.063326	-0.999525	0.536064
C78	C	0.563326	-0.499525	1.036064
C79	C	0.040001	-0.929386	0.512654
C80	C	0.540001	-0.429386	1.012654
C81	C	-0.166365	-0.808188	0.591256
C82	C	0.333635	-0.308188	1.091256
C83	C	-0.236499	-0.784726	0.614512
C84	C	0.263501	-0.284726	1.114512
C85	C	-0.236309	-0.727482	0.499907
C86	C	0.263691	-0.227482	0.999907
C87	C	-0.166175	-0.750944	0.476651
C88	C	0.333825	-0.250944	0.976651
C89	C	-0.045285	-0.722468	0.505590
C90	C	0.454715	-0.222468	1.005590
C91	C	-0.021951	-0.699130	0.529061
C92	C	0.478049	-0.199130	1.029061
C93	C	0.035176	-0.813691	0.586439
C94	C	0.535176	-0.313691	1.086439
C95	C	0.011842	-0.837031	0.562976
C96	C	0.511842	-0.337031	1.062976
C97	C	-0.045097	-0.722476	0.384488
C98	C	0.454903	-0.222476	0.884488
C99	C	-0.021613	-0.699140	0.314350
C100	C	0.478387	-0.199140	0.814350
C101	C	0.035607	-0.813706	0.314419
C102	C	0.535607	-0.313706	0.814419
C103	C	0.012124	-0.837041	0.384558
C104	C	0.512124	-0.337041	0.884558
C105	C	-0.028229	-0.791425	0.419591
C106	C	0.471771	-0.291425	0.919591
C107	C	-0.028402	-0.894253	0.522492
C108	C	0.471598	-0.394253	1.022492
N109	N	0.412405	-0.639229	0.674505
N110	N	0.912405	-0.139229	1.174505
O111	O	0.626552	-0.645384	0.514503
O112	O	1.126552	-0.145384	1.014503
O113	O	0.626802	-0.775625	0.691288
O114	O	1.126802	-0.275625	1.191288
O115	O	0.626698	-0.775326	0.579168
O116	O	1.126698	-0.275326	1.079168
O117	O	0.626656	-0.645683	0.626623
O118	O	1.126656	-0.145683	1.126623
O119	O	0.515277	-0.738265	0.616407
O120	O	1.015277	-0.238265	1.116407
O121	O	0.515382	-0.738564	0.728527
O122	O	1.015382	-0.238564	1.228527
O123	O	0.515131	-0.608323	0.551742
O124	O	1.015131	-0.108323	1.051742
Cu125	Cu	0.505083	-0.670059	0.643535
Cu126	Cu	1.005083	-0.170059	1.143535
Cu127	Cu	0.636850	-0.713889	0.599495
Cu128	Cu	1.136850	-0.213889	1.099495
O129	O	0.515236	-0.608622	0.663862
O130	O	1.015236	-0.108622	1.163862
N131	N	0.729529	-0.744719	0.568518
N132	N	1.229529	-0.244719	1.068518
N133	N	0.123755	-0.350686	0.674680
N134	N	0.623755	0.149314	1.174680
O135	O	-0.036153	-0.136410	0.668391
O136	O	0.463847	0.363590	1.168391
O137	O	0.140633	-0.136380	0.538141
O138	O	0.640633	0.363620	1.038141
O139	O	0.028472	-0.136412	0.538488
O140	O	0.528472	0.363588	1.038488
O141	O	0.076007	-0.136377	0.668044
O142	O	0.576007	0.363623	1.168044
O143	O	0.065663	-0.247842	0.575621
O144	O	0.565663	0.252158	1.075621
O145	O	0.177823	-0.247810	0.575274
O146	O	0.677823	0.252190	1.075274
O147	O	0.001037	-0.247840	0.705524
O148	O	0.501037	0.252160	1.205524
Cu149	Cu	0.092826	-0.258000	0.643789
Cu150	Cu	0.592826	0.242000	1.143789
Cu151	Cu	0.048844	-0.126220	0.599875
Cu152	Cu	0.548844	0.373780	1.099875
O153	O	0.113198	-0.247808	0.705177
O154	O	0.613198	0.252192	1.205177
N155	N	0.017907	-0.033534	0.568986
N156	N	0.517907	0.466466	1.068986
N157	N	0.124013	-0.639306	0.963182
N158	N	0.624013	-0.139306	1.463182
O159	O	0.117754	-0.799195	1.177439
O160	O	0.617754	-0.299195	1.677439
O161	O	-0.012458	-0.622342	1.177485
O162	O	0.487542	-0.122342	1.677485
O163	O	-0.012155	-0.734480	1.177444
O164	O	0.487845	-0.234480	1.677444
O165	O	0.117450	-0.687057	1.177480
O166	O	0.617450	-0.187057	1.677480
O167	O	0.024954	-0.697317	1.066020
O168	O	0.524954	-0.197317	1.566020
O169	O	0.024650	-0.585179	1.066061
O170	O	0.524650	-0.085179	1.566061
O171	O	0.154862	-0.762032	1.066014
O172	O	0.654862	-0.262032	1.566014
Cu173	Cu	0.093145	-0.670212	1.055863
Cu174	Cu	0.593145	-0.170212	1.555863
Cu175	Cu	0.049259	-0.714162	1.187636
Cu176	Cu	0.549259	-0.214162	1.687636
O177	O	0.154559	-0.649894	1.066055
O178	O	0.654559	-0.149894	1.566055
N179	N	0.018389	-0.745075	1.280318
N180	N	0.518389	-0.245075	1.780318
C181	C	0.042795	-0.581375	0.539107
C182	C	0.542795	-0.081375	1.039107
C183	C	0.181576	-0.720034	0.538975
C184	C	0.681576	-0.220034	1.038975
C185	C	0.098930	-0.802946	0.704700
C186	C	0.598930	-0.302946	1.204700
C187	C	-0.039851	-0.664287	0.704832
C188	C	0.460149	-0.164287	1.204832
C189	C	0.571122	-0.775030	0.732180
C190	C	1.071122	-0.275030	1.232180
C191	C	0.570995	-0.774660	0.593332
C192	C	1.070995	-0.274660	1.093332
C193	C	0.570808	-0.608917	0.510851
C194	C	1.070808	-0.108917	1.010851
C195	C	0.570939	-0.609288	0.649698
C196	C	1.070939	-0.109288	1.149698
C197	C	0.181453	-0.191954	0.538725
C198	C	0.681453	0.308046	1.038725
C199	C	0.042602	-0.192131	0.539201
C200	C	0.542602	0.307869	1.039201
C201	C	-0.039829	-0.192128	0.704893
C202	C	0.460171	0.307872	1.204893
C203	C	0.099069	-0.192090	0.704464
C204	C	0.599069	0.307910	1.204464
C205	C	-0.011836	-0.581480	1.121779
C206	C	0.488164	-0.081480	1.621779
C207	C	-0.011453	-0.720342	1.121706
C208	C	0.488547	-0.220342	1.621706
C209	C	0.154240	-0.802894	1.121720
C210	C	0.654240	-0.302894	1.621720
C211	C	0.153865	-0.664024	1.121769
C212	C	0.653865	-0.164024	1.621769
H213	H	0.021932	-0.585534	0.957726
H214	H	0.521932	-0.085534	1.457726
H215	H	0.032420	-0.192135	0.498498
H216	H	0.532420	0.307865	0.998498
O217	O	0.056943	-0.536731	0.777198
O218	O	0.556943	-0.036731	1.277198
C219	C	-0.059112	-0.482453	0.831620
C220	C	0.440888	0.017547	1.331620
C221	C	-0.008961	-0.526810	0.787253
C222	C	0.491039	-0.026810	1.287253
H223	H	-0.112407	-0.474430	0.839774
H224	H	0.387593	0.025570	1.339774
H225	H	-0.051104	-0.431971	0.805936
H226	H	0.448896	0.068029	1.305936
H227	H	-0.050947	-0.508164	0.882038
H228	H	0.449053	-0.008164	1.382038
H229	H	-0.017096	-0.501158	0.736827
H230	H	0.482904	-0.001158	1.236827
H231	H	-0.016981	-0.577290	0.812989
H232	H	0.483019	-0.077290	1.312989
H233	H	-0.052716	-0.530687	1.121793
H234	H	0.447284	-0.030687	1.621793
O235	O	0.570597	-0.560070	0.450335
O236	O	1.070597	-0.060070	0.950335
C237	C	0.512754	-0.448328	0.390594
C238	C	1.012754	0.051672	0.890594
C239	C	0.512902	-0.503595	0.459168
C240	C	1.012902	-0.003595	0.959168
H241	H	0.466120	-0.402649	0.397713
H242	H	0.966120	0.097351	0.897713
H243	H	0.512691	-0.467693	0.356796
H244	H	1.012691	0.032307	0.856796
H245	H	0.559376	-0.433711	0.366507
H246	H	1.059376	0.066289	0.866507
H247	H	0.466288	-0.518236	0.483313
H248	H	0.966288	-0.018236	0.983313
H249	H	0.513001	-0.484199	0.492919
H250	H	1.013001	0.015801	0.992919
H251	H	0.279622	-0.492055	0.679573
H252	H	0.779622	0.007945	1.179573
O253	O	0.203075	-0.863436	1.121585
O254	O	0.703075	-0.363436	1.621585
C255	C	0.314819	-0.923261	1.063862
C256	C	0.814819	-0.423261	1.563862
C257	C	0.259566	-0.854658	1.063925
C258	C	0.759566	-0.354658	1.563925
H259	H	0.360511	-0.916186	1.017256
H260	H	0.860511	-0.416186	1.517256
H261	H	0.295460	-0.957059	1.063803
H262	H	0.795460	-0.457059	1.563803
H263	H	0.329407	-0.947325	1.110516
H264	H	0.829407	-0.447325	1.610516
H265	H	0.244954	-0.830535	1.017279
H266	H	0.744954	-0.330535	1.517279
H267	H	0.278955	-0.820907	1.064019
H268	H	0.778955	-0.320907	1.564019
H269	H	-0.090599	-0.192138	0.745784
H270	H	0.409401	0.307862	1.245784
O271	O	0.202462	-0.651852	1.121652
O272	O	0.702462	-0.151852	1.621652
C273	C	0.272854	-0.583837	1.063959
C274	C	0.772854	-0.083837	1.563959
C275	C	0.217828	-0.597560	1.064000
C276	C	0.717828	-0.097560	1.564000
H277	H	0.285284	-0.539933	1.017360
H278	H	0.785284	-0.039933	1.517360
H279	H	0.319686	-0.630279	1.063902
H280	H	0.819686	-0.130279	1.563902
H281	H	0.254291	-0.571112	1.110619
H282	H	0.754291	-0.071112	1.610619
H283	H	0.236327	-0.610268	1.017348
H284	H	0.736327	-0.110268	1.517348
H285	H	0.171007	-0.551107	1.064092
H286	H	0.671007	-0.051107	1.564092
O287	O	0.237046	-0.695762	0.962997
O288	O	0.737046	-0.195762	1.462997
C289	C	0.353143	-0.750028	0.955512
C290	C	0.853143	-0.250028	1.455512
C291	C	0.302919	-0.705665	0.917015
C292	C	0.802919	-0.205665	1.417015
H293	H	0.406412	-0.758037	0.918352
H294	H	0.906412	-0.258037	1.418352
H295	H	0.345151	-0.800517	0.988326
H296	H	0.845151	-0.300517	1.488326
H297	H	0.345040	-0.724332	0.988365
H298	H	0.845040	-0.224332	1.488365
H299	H	0.310991	-0.731302	0.884125
H300	H	0.810991	-0.231302	1.384125
H301	H	0.310924	-0.655178	0.884243
H302	H	0.810924	-0.155178	1.384243
O303	O	0.111156	-0.192174	0.753111
O304	O	0.611156	0.307826	1.253111
C305	C	0.117541	-0.249924	0.864643
C306	C	0.617541	0.250076	1.364643
C307	C	0.103822	-0.249903	0.809613
C308	C	0.603822	0.250097	1.309613
H309	H	0.111630	-0.296599	0.910332
H310	H	0.611630	0.203401	1.410332
H311	H	0.080436	-0.203326	0.879352
H312	H	0.580436	0.296674	1.379352
H313	H	0.170765	-0.249880	0.844960
H314	H	0.670765	0.250120	1.344960
H315	H	0.050616	-0.249970	0.829248
H316	H	0.550616	0.250030	1.329248
H317	H	0.140968	-0.296496	0.794911
H318	H	0.640968	0.203504	1.294911
O319	O	-0.059925	-0.732521	1.121607
O320	O	0.440075	-0.232521	1.621607
C321	C	-0.090548	-0.812096	1.121530
C322	C	0.409452	-0.312096	1.621530
C323	C	-0.035588	-0.798387	1.121626
C324	C	0.464412	-0.298387	1.621626
H325	H	-0.070896	-0.865353	1.121560
H326	H	0.429104	-0.365353	1.621560
H327	H	-0.105167	-0.775027	1.074875
H328	H	0.394833	-0.275027	1.574875
H329	H	-0.136291	-0.806067	1.168137
H330	H	0.363709	-0.306067	1.668137
H331	H	0.010191	-0.804425	1.075051
H332	H	0.510191	-0.304425	1.575051
H333	H	-0.021026	-0.835454	1.168312
H334	H	0.478974	-0.335454	1.668312
O335	O	0.030871	-0.520758	0.490395
O336	O	0.530871	-0.020758	0.990395
C337	C	0.074779	-0.451884	0.377454
C338	C	0.574779	0.048116	0.877454
C339	C	0.088378	-0.520556	0.432565
C340	C	0.588378	-0.020556	0.932565
H341	H	0.121259	-0.451703	0.330681
H342	H	0.621259	0.048297	0.830681
H343	H	0.062084	-0.410991	0.395907
H344	H	0.562084	0.089009	0.895907
H345	H	0.030901	-0.442132	0.364961
H346	H	0.530901	0.057868	0.864961
H347	H	0.132264	-0.530372	0.445082
H348	H	0.632264	-0.030372	0.945082
H349	H	0.101034	-0.561412	0.414083
H350	H	0.601034	-0.061412	0.914083
H351	H	0.232119	-0.191636	0.497733
H352	H	0.732119	0.308364	0.997733
O353	O	-0.084190	-0.678141	0.418494
O354	O	0.415810	-0.178141	0.918494
C355	C	-0.093168	-0.587405	0.439976
C356	C	0.406832	-0.087405	0.939976
C357	C	-0.048826	-0.637581	0.401430
C358	C	0.451174	-0.137581	0.901430
H359	H	-0.064599	-0.554590	0.426183
H360	H	0.435401	-0.054590	0.926183
H361	H	-0.107030	-0.615900	0.496140
H362	H	0.392970	-0.115900	0.996140
H363	H	-0.140726	-0.554548	0.426105
H364	H	0.359274	-0.054548	0.926105
H365	H	-0.001240	-0.670451	0.415245
H366	H	0.498760	-0.170451	0.915245
H367	H	-0.035018	-0.609044	0.345275
H368	H	0.464982	-0.109044	0.845275
H369	H	0.064236	-0.543084	0.830495
H370	H	0.564236	-0.043084	1.330495
H371	H	0.571013	-0.815386	0.583175
H372	H	1.071013	-0.315386	1.083175
O373	O	-0.100477	-0.652230	0.753486
O374	O	0.399523	-0.152230	1.253486
C375	C	-0.210817	-0.572864	0.784464
C376	C	0.289183	-0.072864	1.284464
C377	C	-0.142185	-0.586424	0.729309
C378	C	0.357815	-0.086424	1.229309
H379	H	-0.244561	-0.519666	0.764933
H380	H	0.255439	-0.019666	1.264933
H381	H	-0.203827	-0.578860	0.830149
H382	H	0.296173	-0.078860	1.330149
H383	H	-0.234886	-0.610053	0.799131
H384	H	0.265114	-0.110053	1.299131
H385	H	-0.118078	-0.549248	0.714586
H386	H	0.381922	-0.049248	1.214586
H387	H	-0.149218	-0.580452	0.683661
H388	H	0.350782	-0.080452	1.183661
H389	H	0.021747	-0.585481	0.728482
H390	H	0.521747	-0.085481	1.228482
O391	O	0.236762	-0.695651	0.618144
O392	O	0.736762	-0.195651	1.118144
C393	C	0.352819	-0.749995	0.563794
C394	C	0.852819	-0.249995	1.063794
C395	C	0.302665	-0.705665	0.608187
C396	C	0.802665	-0.205665	1.108187
H397	H	0.406112	-0.758116	0.555741
H398	H	0.906112	-0.258116	1.055741
H399	H	0.344747	-0.724296	0.513330
H400	H	0.844747	-0.224296	1.013330
H401	H	0.344722	-0.800433	0.589488
H402	H	0.844722	-0.300433	1.089488
H403	H	0.310732	-0.655219	0.582552
H404	H	0.810732	-0.155219	1.082552
H405	H	0.310749	-0.731416	0.658649
H406	H	0.810749	-0.231416	1.158649
H407	H	0.025866	-0.893188	0.413136
H408	H	0.525866	-0.393188	0.913136
H409	H	0.271959	-0.646925	0.666876
H410	H	0.771959	-0.146925	1.166876
O411	O	0.274280	-0.705109	0.763283
O412	O	0.774280	-0.205109	1.263283
C413	C	0.281721	-0.820141	0.803763
C414	C	0.781721	-0.320141	1.303763
C415	C	0.320241	-0.770547	0.767106
C416	C	0.820241	-0.270547	1.267106
H417	H	0.318864	-0.873060	0.806878
H418	H	0.818864	-0.373060	1.306878
H419	H	0.248873	-0.806112	0.775110
H420	H	0.748873	-0.306112	1.275110
H421	H	0.248902	-0.817966	0.856487
H422	H	0.748902	-0.317966	1.356487
H423	H	0.353097	-0.772695	0.714381
H424	H	0.853097	-0.272695	1.214381
H425	H	0.353048	-0.784592	0.795810
H426	H	0.853048	-0.284592	1.295810
O427	O	0.571012	-0.560783	0.661857
O428	O	1.071012	-0.060783	1.161857
C429	C	0.628776	-0.528761	0.691262
C430	C	1.128776	-0.028761	1.191262
C431	C	0.628768	-0.583755	0.677523
C432	C	1.128768	-0.083755	1.177523
H433	H	0.675473	-0.547308	0.703917
H434	H	1.175473	-0.047308	1.203917
H435	H	0.582208	-0.516288	0.735176
H436	H	1.082208	-0.016288	1.235176
H437	H	0.628670	-0.481949	0.644811
H438	H	1.128670	0.018051	1.144811
H439	H	0.628898	-0.630601	0.723934
H440	H	1.128898	-0.130601	1.223934
H441	H	0.675331	-0.596171	0.633583
H442	H	1.175331	-0.096171	1.133583
O443	O	0.226234	-0.488829	0.607736
O444	O	0.726234	0.011171	1.107736
C445	C	0.280503	-0.481395	0.491655
C446	C	0.780503	0.018605	0.991655
C447	C	0.236195	-0.442867	0.541846
C448	C	0.736195	0.057133	1.041846
H449	H	0.288582	-0.444252	0.438372
H450	H	0.788582	0.055748	0.938372
H451	H	0.254816	-0.514220	0.499703
H452	H	0.754816	-0.014220	0.999703
H453	H	0.330957	-0.514245	0.499740
H454	H	0.830957	-0.014245	0.999740
H455	H	0.185733	-0.409982	0.533791
H456	H	0.685733	0.090018	1.033791
H457	H	0.261934	-0.410085	0.533785
H458	H	0.761934	0.089915	1.033785
O459	O	0.412257	-0.527284	0.631852
O460	O	0.912257	-0.027284	1.131852
C461	C	0.404821	-0.412262	0.591433
C462	C	0.904821	0.087738	1.091433
C463	C	0.366298	-0.461858	0.628124
C464	C	0.866298	0.038142	1.128124
H465	H	0.367680	-0.359357	0.588420
H466	H	0.867680	0.140643	1.088420
H467	H	0.437606	-0.414350	0.538675
H468	H	0.937606	0.085650	1.038675
H469	H	0.437704	-0.426376	0.620086
H470	H	0.937704	0.073624	1.120086
H471	H	0.333378	-0.447778	0.599527
H472	H	0.833378	0.052222	1.099527
H473	H	0.333556	-0.459763	0.680886
H474	H	0.833556	0.040237	1.180886
H475	H	0.406920	-0.740344	0.715602
H476	H	0.906920	-0.240344	1.215602
O477	O	0.067368	-0.350821	0.787690
O478	O	0.567368	0.149179	1.287690
C479	C	0.013170	-0.358251	0.903769
C480	C	0.513170	0.141749	1.403769
C481	C	0.057506	-0.396781	0.853581
C482	C	0.557506	0.103219	1.353581
H483	H	0.005195	-0.395393	0.957053
H484	H	0.505195	0.104607	1.457053
H485	H	-0.037330	-0.325442	0.895778
H486	H	0.462670	0.174558	1.395778
H487	H	0.038864	-0.325386	0.895626
H488	H	0.538864	0.174614	1.395626
H489	H	0.031871	-0.429683	0.861695
H490	H	0.531871	0.070317	1.361695
H491	H	0.108005	-0.429548	0.861585
H492	H	0.608005	0.070452	1.361585
O493	O	0.242221	-0.732072	0.490340
O494	O	0.742221	-0.232072	0.990340
C495	C	0.352533	-0.811466	0.459335
C496	C	0.852533	-0.311466	0.959335
C497	C	0.283889	-0.797917	0.514477
C498	C	0.783889	-0.297917	1.014477
H499	H	0.386236	-0.864705	0.478824
H500	H	0.886236	-0.364705	0.978824
H501	H	0.376681	-0.774349	0.444684
H502	H	0.876681	-0.274349	0.944684
H503	H	0.345480	-0.805383	0.413649
H504	H	0.845480	-0.305383	0.913649
H505	H	0.290883	-0.804009	0.560198
H506	H	0.790883	-0.304009	1.060198
H507	H	0.259764	-0.835032	0.529071
H508	H	0.759764	-0.335032	1.029071
O509	O	-0.038127	-0.632152	0.280289
O510	O	0.461873	-0.132152	0.780289
C511	C	-0.126973	-0.527041	0.258711
C512	C	0.373027	-0.027041	0.758711
C513	C	-0.108363	-0.602895	0.297316
C514	C	0.391637	-0.102895	0.797316
H515	H	-0.183760	-0.503362	0.272474
H516	H	0.316240	-0.003362	0.772474
H517	H	-0.103314	-0.518151	0.202556
H518	H	0.396686	-0.018151	0.702556
H519	H	-0.107616	-0.503445	0.272560
H520	H	0.392384	-0.003445	0.772560
H521	H	-0.127717	-0.626541	0.283523
H522	H	0.372283	-0.126541	0.783523
H523	H	-0.132013	-0.611738	0.353462
H524	H	0.367987	-0.111738	0.853462
H525	H	0.571186	-0.815915	0.782955
H526	H	1.071186	-0.315915	1.282955
H527	H	0.272095	-0.646975	0.830359
H528	H	0.772095	-0.146975	1.330359
H529	H	0.116177	-0.483478	0.822809
H530	H	0.616177	0.016522	1.322809
O531	O	0.074812	-0.858110	0.280497
O532	O	0.574812	-0.358110	0.780497
C533	C	0.129040	-0.974210	0.287978
C534	C	0.629040	-0.474210	0.787978
C535	C	0.084646	-0.923994	0.326477
C536	C	0.584646	-0.423994	0.826477
H537	H	0.136992	-1.027488	0.325136
H538	H	0.636992	-0.527488	0.825136
H539	H	0.179546	-0.966251	0.255245
H540	H	0.679546	-0.466251	0.755245
H541	H	0.103404	-0.966060	0.255043
H542	H	0.603404	-0.466060	0.755043
H543	H	0.110222	-0.932114	0.359449
H544	H	0.610222	-0.432114	0.859449
H545	H	0.034142	-0.931965	0.359168
H546	H	0.534142	-0.431965	0.859168
H547	H	-0.078038	-0.685325	0.472673
H548	H	0.421962	-0.185325	0.972673
O549	O	-0.038265	-0.632146	0.512467
O550	O	0.461735	-0.132146	1.012467
C551	C	-0.032755	-0.527158	0.423517
C552	C	0.467245	-0.027158	0.923517
C553	C	-0.014233	-0.603008	0.442222
C554	C	0.485767	-0.103008	0.942222
H555	H	-0.013345	-0.503575	0.366723
H556	H	0.486655	-0.003575	0.866723
H557	H	-0.009138	-0.518284	0.447184
H558	H	0.490862	-0.018284	0.947184
H559	H	-0.089542	-0.503453	0.442802
H560	H	0.410458	-0.003453	0.942802
H561	H	0.042545	-0.626764	0.422940
H562	H	0.542545	-0.126764	0.922940
H563	H	-0.037897	-0.611834	0.418564
H564	H	0.462103	-0.111834	0.918564
O565	O	0.111074	-0.863640	0.753262
O566	O	0.611074	-0.363640	1.253262
C567	C	0.190596	-0.973922	0.784082
C568	C	0.690596	-0.473922	1.284082
C569	C	0.176927	-0.905222	0.729022
C570	C	0.676927	-0.405222	1.229022
H571	H	0.243841	-1.007556	0.764509
H572	H	0.743841	-0.507556	1.264509
H573	H	0.153515	-0.998115	0.798739
H574	H	0.653515	-0.498115	1.298739
H575	H	0.184559	-0.966936	0.829784
H576	H	0.684559	-0.466936	1.329784
H577	H	0.182972	-0.912150	0.683284
H578	H	0.682972	-0.412150	1.183284
H579	H	0.214005	-0.881053	0.714422
H580	H	0.714005	-0.381053	1.214422
H581	H	0.177459	-0.356175	0.572617
H582	H	0.677459	0.143825	1.072617
H583	H	0.067938	-0.850836	0.619346
H584	H	0.567938	-0.350836	1.119346
H585	H	0.025599	-0.893178	0.576787
H586	H	0.525599	-0.393178	1.076787
H587	H	0.076712	-0.900889	0.485585
H588	H	0.576712	-0.400889	0.985585
H589	H	-0.086862	-1.027893	0.606199
H590	H	0.413138	-0.527893	1.106199
O591	O	0.129795	-1.033630	0.526392
O592	O	0.629795	-0.533630	1.026392
C593	C	0.241384	-1.055187	0.446319
C594	C	0.741384	-0.555187	0.946319
C595	C	0.166128	-1.016535	0.457178
C596	C	0.666128	-0.516535	0.957178
H597	H	0.270782	-1.041370	0.390363
H598	H	0.770782	-0.541370	0.890363
H599	H	0.250353	-1.111338	0.468712
H600	H	0.750353	-0.611338	0.968712
H601	H	0.258732	-1.041432	0.471854
H602	H	0.758732	-0.541432	0.971854
H603	H	0.148729	-1.030234	0.431643
H604	H	0.648729	-0.530234	0.931643
H605	H	0.157201	-0.960394	0.434802
H606	H	0.657201	-0.460394	0.934802
O607	O	-0.139911	-0.895151	0.565181
O608	O	0.360089	-0.395151	1.065181
C609	C	-0.236569	-0.873611	0.544407
C610	C	0.263431	-0.373611	1.044407
C611	C	-0.161330	-0.912271	0.533658
C612	C	0.338670	-0.412271	1.033658
H613	H	-0.253912	-0.887449	0.518939
H614	H	0.246088	-0.387449	1.018939
H615	H	-0.245520	-0.817461	0.521930
H616	H	0.254480	-0.317461	1.021930
H617	H	-0.265987	-0.887339	0.600361
H618	H	0.234013	-0.387339	1.100361
H619	H	-0.131863	-0.898600	0.477718
H620	H	0.368137	-0.398600	0.977718
H621	H	-0.152431	-0.968411	0.556179
H622	H	0.347569	-0.468411	1.056179
O623	O	-0.132466	-0.847449	0.635685
O624	O	0.367534	-0.347449	1.135685
C625	C	-0.111145	-0.950683	0.726473
C626	C	0.388855	-0.450683	1.226473
C627	C	-0.149589	-0.906278	0.676202
C628	C	0.350411	-0.406278	1.176202
H629	H	-0.124964	-0.998262	0.759235
H630	H	0.375036	-0.498262	1.259235
H631	H	-0.124985	-0.922164	0.759369
H632	H	0.375015	-0.422164	1.259369
H633	H	-0.054983	-0.964515	0.697995
H634	H	0.445017	-0.464515	1.197995
H635	H	-0.205760	-0.892433	0.704627
H636	H	0.294240	-0.392433	1.204627
H637	H	-0.135693	-0.934822	0.643307
H638	H	0.364307	-0.434822	1.143307
O639	O	-0.270179	-0.688277	0.455450
O640	O	0.229821	-0.188277	0.955450
C641	C	-0.262593	-0.634028	0.339322
C642	C	0.237407	-0.134028	0.839322
C643	C	-0.224153	-0.678421	0.389596
C644	C	0.275847	-0.178421	0.889596
H645	H	-0.225398	-0.626058	0.286068
H646	H	0.274602	-0.126058	0.786068
H647	H	-0.295394	-0.583525	0.347307
H648	H	0.204606	-0.083525	0.847307
H649	H	-0.295452	-0.659680	0.347377
H650	H	0.204548	-0.159680	0.847377
H651	H	-0.191258	-0.652829	0.381571
H652	H	0.308742	-0.152829	0.881571
H653	H	-0.191395	-0.728923	0.381598
H654	H	0.308605	-0.228923	0.881598
H655	H	-0.265127	-0.798479	0.670643
H656	H	0.234873	-0.298479	1.170643
H657	H	-0.137547	-0.737181	0.420520
H658	H	0.362453	-0.237181	0.920520
