data_functionalizedCrystal
_audit_creation_method	'MofGen! by Chris Wilmer'
_symmetry_space_group_name_H-M	'P1'
_symmetry_Int_Tables_number	1
_symmetry_cell_setting	triclinic
loop_
_symmetry_equiv_pos_as_xyz
  x,y,z
_cell_length_a	25.639240
_cell_length_b	25.639242
_cell_length_c	25.639243
_cell_angle_alpha	89.984842
_cell_angle_beta	90.001726
_cell_angle_gamma	89.972413
loop_
_atom_site_label
_atom_site_type_symbol
_atom_site_fract_x
_atom_site_fract_y
_atom_site_fract_z
Zn1	Zn	-0.208339	-0.799213	0.295760
Zn2	Zn	0.124995	-0.465880	0.629094
Zn3	Zn	0.458328	-0.132546	0.962427
Zn4	Zn	-0.295739	-0.799157	0.208332
Zn5	Zn	0.037594	-0.465824	0.541666
Zn6	Zn	0.370927	-0.132491	0.874999
Zn7	Zn	-0.208313	-0.711800	0.208324
Zn8	Zn	0.125021	-0.378467	0.541658
Zn9	Zn	0.458354	-0.045133	0.874991
Zn10	Zn	-0.295738	-0.711744	0.295722
Zn11	Zn	0.037595	-0.378411	0.629056
Zn12	Zn	0.370929	-0.045078	0.962389
O13	O	-0.252032	-0.755479	0.252035
O14	O	0.081301	-0.422145	0.585368
O15	O	0.414634	-0.088812	0.918702
O16	O	-0.219944	-0.872371	0.284182
O17	O	0.113389	-0.539037	0.617515
O18	O	0.446723	-0.205704	0.950849
O19	O	-0.284131	-0.787569	0.135166
O20	O	0.049202	-0.454236	0.468499
O21	O	0.382535	-0.120902	0.801833
O22	O	-0.135151	-0.723442	0.219936
O23	O	0.198182	-0.390109	0.553269
O24	O	0.531516	-0.056775	0.886602
O25	O	-0.284157	-0.872330	0.219949
O26	O	0.049177	-0.538996	0.553282
O27	O	0.382510	-0.205663	0.886616
O28	O	-0.135170	-0.787664	0.284174
O29	O	0.198163	-0.454331	0.617508
O30	O	0.531497	-0.120997	0.950841
O31	O	-0.219900	-0.723388	0.135160
O32	O	0.113434	-0.390055	0.468494
O33	O	0.446767	-0.056721	0.801827
O34	O	-0.219899	-0.638627	0.219899
O35	O	0.113435	-0.305294	0.553232
O36	O	0.446768	0.028039	0.886565
O37	O	-0.284155	-0.723347	0.368892
O38	O	0.049179	-0.390014	0.702226
O39	O	0.382512	-0.056681	1.035559
O40	O	-0.284130	-0.638587	0.284110
O41	O	0.049204	-0.305253	0.617443
O42	O	0.382537	0.028080	0.950776
O43	O	-0.219943	-0.787610	0.368920
O44	O	0.113390	-0.454277	0.702254
O45	O	0.446724	-0.120943	1.035587
O46	O	-0.368904	-0.787515	0.219912
O47	O	-0.035571	-0.454182	0.553246
O48	O	0.297762	-0.120849	0.886579
O49	O	-0.368903	-0.723293	0.284117
O50	O	-0.035570	-0.389960	0.617451
O51	O	0.297763	-0.056627	0.950784
C52	C	-0.252012	-0.619636	0.251999
C53	C	0.081322	-0.286303	0.585333
C54	C	0.414655	0.047031	0.918666
C55	C	-0.252015	-0.561522	0.251997
C56	C	0.081318	-0.228189	0.585330
C57	C	0.414651	0.105145	0.918663
C58	C	-0.387875	-0.755406	0.252023
C59	C	-0.054541	-0.422073	0.585356
C60	C	0.278792	-0.088740	0.918689
C61	C	-0.445989	-0.755423	0.252035
C62	C	-0.112655	-0.422090	0.585368
C63	C	0.220678	-0.088757	0.918702
C64	C	-0.252052	-0.755479	0.388408
C65	C	0.081282	-0.422145	0.721741
C66	C	0.414615	-0.088812	1.055075
C67	C	-0.252060	-0.755479	0.446522
C68	C	0.081273	-0.422146	0.779855
C69	C	0.414607	-0.088812	1.113189
C70	C	-0.697141	-0.788916	0.285518
C71	C	-0.363808	-0.455583	0.618852
C72	C	-0.030474	-0.122249	0.952185
C73	C	-0.642537	-0.788900	0.285514
C74	C	-0.309203	-0.455567	0.618848
C75	C	0.024130	-0.122234	0.952181
O76	O	-0.614265	-0.817317	0.313965
O77	O	-0.280931	-0.483984	0.647299
O78	O	0.052402	-0.150650	0.980632
N79	N	-0.615263	-0.755481	0.252042
N80	N	-0.281929	-0.422147	0.585375
N81	N	0.051404	-0.088814	0.918708
C82	C	-0.642596	-0.722078	0.218567
C83	C	-0.309263	-0.388745	0.551901
C84	C	0.024071	-0.055411	0.885234
O85	O	-0.614383	-0.693651	0.190096
O86	O	-0.281050	-0.360318	0.523429
O87	O	0.052283	-0.026984	0.856762
C88	C	-0.697199	-0.722097	0.218569
C89	C	-0.363866	-0.388764	0.551902
C90	C	-0.030533	-0.055430	0.885236
C91	C	-0.724470	-0.755515	0.252047
C92	C	-0.391137	-0.422182	0.585381
C93	C	-0.057804	-0.088848	0.918714
C94	C	-0.724412	-0.822332	0.318993
C95	C	-0.391079	-0.488999	0.652327
C96	C	-0.057745	-0.155665	0.985660
C97	C	-0.779013	-0.822347	0.318998
C98	C	-0.445679	-0.489013	0.652331
C99	C	-0.112346	-0.155680	0.985665
C100	C	-0.806342	-0.788946	0.285527
C101	C	-0.473009	-0.455612	0.618861
C102	C	-0.139675	-0.122279	0.952194
C103	C	-0.779071	-0.755530	0.252052
C104	C	-0.445737	-0.422197	0.585385
C105	C	-0.112404	-0.088863	0.918719
C106	C	-0.724531	-0.688697	0.185092
C107	C	-0.391198	-0.355364	0.518426
C108	C	-0.057865	-0.022031	0.851759
C109	C	-0.779138	-0.688719	0.185097
C110	C	-0.445805	-0.355386	0.518430
C111	C	-0.112472	-0.022053	0.851763
C112	C	-0.806410	-0.722138	0.218575
C113	C	-0.473076	-0.388804	0.551908
C114	C	-0.139743	-0.055471	0.885242
C115	C	-0.861001	-0.722144	0.218586
C116	C	-0.527667	-0.388810	0.551919
C117	C	-0.194334	-0.055477	0.885252
N118	N	-0.888275	-0.755564	0.252058
N119	N	-0.554941	-0.422230	0.585391
N120	N	-0.221608	-0.088897	0.918725
C121	C	-0.860945	-0.788965	0.285529
C122	C	-0.527612	-0.455631	0.618862
C123	C	-0.194279	-0.122298	0.952196
C124	C	-0.527925	-0.722042	0.218566
C125	C	-0.194592	-0.388709	0.551899
C126	C	0.138741	-0.055375	0.885232
C127	C	-0.473323	-0.722020	0.218566
C128	C	-0.139990	-0.388687	0.551899
C129	C	0.193344	-0.055354	0.885233
C130	C	-0.473267	-0.788843	0.285513
C131	C	-0.139934	-0.455510	0.618846
C132	C	0.193399	-0.122177	0.952179
C133	C	-0.527871	-0.788862	0.285514
C134	C	-0.194537	-0.455529	0.618848
C135	C	0.138796	-0.122195	0.952181
C136	C	-0.555199	-0.755462	0.252038
C137	C	-0.221866	-0.422128	0.585371
C138	C	0.111467	-0.088795	0.918705
C139	C	-0.975610	-0.788993	0.285536
C140	C	-0.642277	-0.455660	0.618870
C141	C	-0.308944	-0.122326	0.952203
C142	C	-1.030216	-0.789003	0.285539
C143	C	-0.696882	-0.455670	0.618873
C144	C	-0.363549	-0.122337	0.952206
C145	C	-1.030266	-0.722183	0.218591
C146	C	-0.696933	-0.388849	0.551924
C147	C	-0.363600	-0.055516	0.885258
C148	C	-0.975666	-0.722170	0.218590
C149	C	-0.642333	-0.388837	0.551923
C150	C	-0.308999	-0.055503	0.885256
C151	C	-0.948339	-0.755579	0.252064
C152	C	-0.615006	-0.422246	0.585397
C153	C	-0.281673	-0.088913	0.918731
O154	O	-0.889307	-0.693743	0.190148
O155	O	-0.555974	-0.360410	0.523481
O156	O	-0.222641	-0.027077	0.856814
O157	O	-0.889165	-0.817392	0.313991
O158	O	-0.555831	-0.484058	0.647324
O159	O	-0.222498	-0.150725	0.980658
C160	C	-0.115659	-0.755565	0.252058
C161	C	0.217674	-0.422232	0.585392
C162	C	0.551007	-0.088899	0.918725
C163	C	-0.057545	-0.755602	0.252068
C164	C	0.275788	-0.422269	0.585402
C165	C	0.609122	-0.088936	0.918735
C166	C	-0.252053	-0.891852	0.252071
C167	C	0.081280	-0.558518	0.585404
C168	C	0.414613	-0.225185	0.918737
C169	C	-0.252062	-0.949966	0.252086
C170	C	0.081271	-0.616632	0.585419
C171	C	0.414604	-0.283299	0.918753
C172	C	-0.285533	-0.201147	0.285438
C173	C	0.047800	0.132187	0.618771
C174	C	0.381134	0.465520	0.952104
C175	C	-0.285536	-0.146542	0.285446
C176	C	0.047797	0.186791	0.618779
C177	C	0.381130	0.520124	0.952113
O178	O	-0.314009	-0.118295	0.313849
O179	O	0.019325	0.215038	0.647182
O180	O	0.352658	0.548372	0.980515
N181	N	-0.252047	-0.119240	0.252069
N182	N	0.081287	0.214094	0.585402
N183	N	0.414620	0.547427	0.918736
C184	C	-0.218548	-0.146544	0.218685
C185	C	0.114786	0.186789	0.552019
C186	C	0.448119	0.520123	0.885352
O187	O	-0.190062	-0.118307	0.190297
O188	O	0.143271	0.215027	0.523630
O189	O	0.476605	0.548360	0.856963
C190	C	-0.218542	-0.201147	0.218680
C191	C	0.114791	0.132186	0.552013
C192	C	0.448124	0.465519	0.885347
C193	C	-0.252038	-0.228447	0.252056
C194	C	0.081295	0.104886	0.585389
C195	C	0.414629	0.438219	0.918722
C196	C	-0.319026	-0.228447	0.318811
C197	C	0.014308	0.104887	0.652144
C198	C	0.347641	0.438220	0.985478
C199	C	-0.319023	-0.283047	0.318802
C200	C	0.014310	0.050286	0.652135
C201	C	0.347644	0.383619	0.985468
C202	C	-0.285528	-0.310348	0.285420
C203	C	0.047805	0.022986	0.618753
C204	C	0.381139	0.356319	0.952086
C205	C	-0.252035	-0.283048	0.252046
C206	C	0.081298	0.050286	0.585380
C207	C	0.414631	0.383619	0.918713
C208	C	-0.185041	-0.228451	0.185299
C209	C	0.148292	0.104883	0.518633
C210	C	0.481626	0.438216	0.851966
C211	C	-0.185038	-0.283058	0.185297
C212	C	0.148295	0.050276	0.518631
C213	C	0.481628	0.383609	0.851964
C214	C	-0.218534	-0.310358	0.218673
C215	C	0.114799	0.022976	0.552006
C216	C	0.448133	0.356309	0.885339
C217	C	-0.218537	-0.364949	0.218655
C218	C	0.114796	-0.031616	0.551988
C219	C	0.448129	0.301718	0.885322
N220	N	-0.252027	-0.392252	0.252032
N221	N	0.081306	-0.058918	0.585365
N222	N	0.414639	0.274415	0.918699
C223	C	-0.285522	-0.364951	0.285414
C224	C	0.047811	-0.031618	0.618748
C225	C	0.381144	0.301716	0.952081
C226	C	-0.218561	-0.031873	0.218699
C227	C	0.114772	0.301460	0.552033
C228	C	0.448106	0.634793	0.885366
C229	C	-0.218569	0.022729	0.218702
C230	C	0.114765	0.356062	0.552035
C231	C	0.448098	0.689396	0.885368
C232	C	-0.285557	0.022727	0.285463
C233	C	0.047776	0.356060	0.618796
C234	C	0.381110	0.689394	0.952130
C235	C	-0.285551	-0.031876	0.285458
C236	C	0.047782	0.301457	0.618791
C237	C	0.381115	0.634790	0.952125
C238	C	-0.252051	-0.059176	0.252076
C239	C	0.081283	0.274157	0.585410
C240	C	0.414616	0.607491	0.918743
C241	C	-0.285515	-0.479616	0.285392
C242	C	0.047819	-0.146283	0.618726
C243	C	0.381152	0.187051	0.952059
C244	C	-0.285511	-0.534222	0.285379
C245	C	0.047823	-0.200888	0.618712
C246	C	0.381156	0.132445	0.952046
C247	C	-0.218521	-0.534215	0.218620
C248	C	0.114813	-0.200881	0.551953
C249	C	0.448146	0.132452	0.885286
C250	C	-0.218527	-0.479614	0.218631
C251	C	0.114807	-0.146281	0.551964
C252	C	0.448140	0.187053	0.885298
C253	C	-0.252025	-0.452316	0.252022
C254	C	0.081308	-0.118983	0.585355
C255	C	0.414641	0.214351	0.918688
O256	O	-0.190078	-0.393231	0.190268
O257	O	0.143255	-0.059897	0.523602
O258	O	0.476589	0.273436	0.856935
O259	O	-0.313998	-0.393195	0.313803
O260	O	0.019335	-0.059861	0.647136
O261	O	0.352668	0.273472	0.980470
C262	C	-0.218601	-0.788939	0.806905
C263	C	0.114732	-0.455605	1.140239
C264	C	0.448066	-0.122272	1.473572
C265	C	-0.218598	-0.788939	0.861509
C266	C	0.114735	-0.455605	1.194843
C267	C	0.448069	-0.122272	1.528176
O268	O	-0.190153	-0.817379	0.889763
O269	O	0.143180	-0.484046	1.223097
O270	O	0.476514	-0.150713	1.556430
N271	N	-0.252030	-0.755482	0.888804
N272	N	0.081303	-0.422149	1.222138
N273	N	0.414637	-0.088816	1.555471
C274	C	-0.285464	-0.722020	0.861492
C275	C	0.047870	-0.388687	1.194825
C276	C	0.381203	-0.055354	1.528159
O277	O	-0.313900	-0.693563	0.889723
O278	O	0.019434	-0.360230	1.223056
O279	O	0.352767	-0.026896	1.556389
C280	C	-0.285464	-0.722018	0.806889
C281	C	0.047870	-0.388685	1.140222
C282	C	0.381203	-0.055352	1.473555
C283	C	-0.252033	-0.755481	0.779597
C284	C	0.081300	-0.422147	1.112930
C285	C	0.414634	-0.088814	1.446263
C286	C	-0.185173	-0.822398	0.779613
C287	C	0.148161	-0.489064	1.112946
C288	C	0.481494	-0.155731	1.446280
C289	C	-0.185176	-0.822399	0.725012
C290	C	0.148157	-0.489065	1.058346
C291	C	0.481490	-0.155732	1.391679
C292	C	-0.218609	-0.788940	0.697704
C293	C	0.114725	-0.455607	1.031037
C294	C	0.448058	-0.122274	1.364371
C295	C	-0.252037	-0.755481	0.724996
C296	C	0.081297	-0.422148	1.058330
C297	C	0.414630	-0.088815	1.391663
C298	C	-0.318894	-0.688554	0.779578
C299	C	0.014439	-0.355221	1.112911
C300	C	0.347773	-0.021888	1.446244
C301	C	-0.318891	-0.688555	0.724971
C302	C	0.014442	-0.355222	1.058304
C303	C	0.347776	-0.021888	1.391637
C304	C	-0.285460	-0.722017	0.697678
C305	C	0.047873	-0.388684	1.031012
C306	C	0.381206	-0.055350	1.364345
C307	C	-0.285473	-0.722024	0.643087
C308	C	0.047861	-0.388691	0.976421
C309	C	0.381194	-0.055357	1.309754
N310	N	-0.252041	-0.755480	0.615792
N311	N	0.081293	-0.422147	0.949126
N312	N	0.414626	-0.088813	1.282459
C313	C	-0.218609	-0.788938	0.643101
C314	C	0.114725	-0.455605	0.976434
C315	C	0.448058	-0.122272	1.309767
C316	C	-0.285460	-0.722027	0.976163
C317	C	0.047873	-0.388693	1.309496
C318	C	0.381206	-0.055360	1.642829
C319	C	-0.285463	-0.722031	1.030765
C320	C	0.047870	-0.388698	1.364098
C321	C	0.381203	-0.055364	1.697432
C322	C	-0.218597	-0.788948	1.030779
C323	C	0.114736	-0.455615	1.364112
C324	C	0.448070	-0.122282	1.697445
C325	C	-0.218597	-0.788946	0.976175
C326	C	0.114736	-0.455613	1.309509
C327	C	0.448070	-0.122280	1.642842
C328	C	-0.252028	-0.755483	0.948868
C329	C	0.081305	-0.422149	1.282201
C330	C	0.414638	-0.088816	1.615535
C331	C	-0.218619	-0.788938	0.528436
C332	C	0.114714	-0.455604	0.861769
C333	C	0.448047	-0.122271	1.195102
C334	C	-0.218628	-0.788937	0.473830
C335	C	0.114706	-0.455604	0.807164
C336	C	0.448039	-0.122270	1.140497
C337	C	-0.285492	-0.722018	0.473822
C338	C	0.047841	-0.388685	0.807155
C339	C	0.381175	-0.055351	1.140488
C340	C	-0.285486	-0.722020	0.528422
C341	C	0.047847	-0.388687	0.861755
C342	C	0.381181	-0.055354	1.195089
C343	C	-0.252045	-0.755482	0.555728
C344	C	0.081288	-0.422149	0.889061
C345	C	0.414621	-0.088815	1.222395
O346	O	-0.313901	-0.693596	0.614799
O347	O	0.019432	-0.360263	0.948132
O348	O	0.352765	-0.026930	1.281465
O349	O	-0.190172	-0.817386	0.614864
O350	O	0.143161	-0.484053	0.948197
O351	O	0.476494	-0.150719	1.281530
C352	C	-0.252028	-0.755478	1.116192
C353	C	0.081306	-0.422144	1.449526
C354	C	0.414639	-0.088811	1.782859
C355	C	-0.252029	-0.755487	1.058078
C356	C	0.081304	-0.422154	1.391412
C357	C	0.414638	-0.088821	1.724745
H358	H	-1.052417	-0.816216	0.312805
H359	H	-0.719084	-0.482882	0.646138
H360	H	-0.385751	-0.149549	0.979471
H361	H	-0.451123	-0.694802	0.191311
H362	H	-0.117789	-0.361469	0.524644
H363	H	0.215544	-0.028136	0.857977
H364	H	-0.953461	-0.694953	0.191334
H365	H	-0.620128	-0.361619	0.524667
H366	H	-0.286795	-0.028286	0.858001
N367	N	-0.321545	-0.685929	0.444360
N368	N	0.011788	-0.352595	0.777694
N369	N	0.345122	-0.019262	1.111027
H370	H	-0.342724	-0.664729	0.469932
H371	H	-0.009390	-0.331396	0.803266
H372	H	0.323943	0.001937	1.136599
H373	H	-0.345745	-0.707195	0.421709
H374	H	-0.012411	-0.373861	0.755042
H375	H	0.320922	-0.040528	1.088376
N376	N	-0.182542	-0.825039	0.946741
N377	N	0.150791	-0.491706	1.280075
N378	N	0.484124	-0.158373	1.613408
H379	H	-0.158307	-0.803812	0.924080
H380	H	0.175026	-0.470479	1.257413
H381	H	0.508360	-0.137145	1.590746
H382	H	-0.203836	-0.849245	0.924124
H383	H	0.129497	-0.515912	1.257457
H384	H	0.462831	-0.182579	1.590790
H385	H	-0.953367	-0.816199	0.312793
H386	H	-0.620034	-0.482865	0.646127
H387	H	-0.286700	-0.149532	0.979460
H388	H	-0.346298	-0.305270	0.345981
H389	H	-0.012964	0.028063	0.679314
H390	H	0.320369	0.361397	1.012647
H391	H	-0.550173	-0.694839	0.191307
H392	H	-0.216839	-0.361505	0.524640
H393	H	0.116494	-0.028172	0.857973
N394	N	-0.182558	-0.825031	0.557885
N395	N	0.150775	-0.491697	0.891218
N396	N	0.484109	-0.158364	1.224552
H397	H	-0.158321	-0.803802	0.580534
H398	H	0.175013	-0.470469	0.913867
H399	H	0.508346	-0.137136	1.247200
H400	H	-0.161420	-0.846219	0.532273
H401	H	0.171914	-0.512886	0.865606
H402	H	0.505247	-0.179553	1.198940
N403	N	-0.354954	-0.652460	0.695524
N404	N	-0.021621	-0.319127	1.028858
N405	N	0.311713	0.014206	1.362191
H406	H	-0.379191	-0.673689	0.672875
H407	H	-0.045858	-0.340356	1.006209
H408	H	0.287476	-0.007022	1.339542
H409	H	-0.333668	-0.628250	0.672893
H410	H	-0.000335	-0.294916	1.006226
H411	H	0.332999	0.038417	1.339560
N412	N	-0.182419	-0.450160	0.182620
N413	N	0.150915	-0.116827	0.515954
N414	N	0.484248	0.216506	0.849287
H415	H	-0.158224	-0.427519	0.203905
H416	H	0.175109	-0.094186	0.537238
H417	H	0.508442	0.239148	0.870572
H418	H	-0.203679	-0.427521	0.158374
H419	H	0.129654	-0.094187	0.491707
H420	H	0.462988	0.239146	0.825041
H421	H	-0.312791	-0.457397	0.312584
H422	H	0.020542	-0.124063	0.645917
H423	H	0.353875	0.209270	0.979250
N424	N	-0.148908	-0.199022	0.149300
N425	N	0.184425	0.134312	0.482634
N426	N	0.517758	0.467645	0.815967
H427	H	-0.111569	-0.208551	0.157493
H428	H	0.221765	0.124782	0.490826
H429	H	0.555098	0.458116	0.824160
H430	H	-0.154027	-0.160295	0.154377
H431	H	0.179306	0.173039	0.487710
H432	H	0.512639	0.506372	0.821044
H433	H	-1.052528	-0.694987	0.191341
H434	H	-0.719195	-0.361654	0.524675
H435	H	-0.385861	-0.028320	0.858008
H436	H	-0.312789	-0.556447	0.312558
H437	H	0.020545	-0.223113	0.645891
H438	H	0.353878	0.110220	0.979224
H439	H	-0.702165	-0.849533	0.346249
H440	H	-0.368832	-0.516200	0.679583
H441	H	-0.035499	-0.182867	1.012916
N442	N	-0.808423	-0.858373	0.355125
N443	N	-0.475089	-0.525040	0.688458
N444	N	-0.141756	-0.191706	1.021791
H445	H	-0.782817	-0.879522	0.376330
H446	H	-0.449484	-0.546188	0.709663
H447	H	-0.116151	-0.212855	1.042997
H448	H	-0.831070	-0.882602	0.333890
H449	H	-0.497737	-0.549269	0.667223
H450	H	-0.164404	-0.215936	1.000557
H451	H	-0.550071	-0.816072	0.312778
H452	H	-0.216738	-0.482738	0.646111
H453	H	0.116595	-0.149405	0.979444
N454	N	-0.355159	-0.199006	0.354816
N455	N	-0.021825	0.134327	0.688149
N456	N	0.311508	0.467660	1.021483
H457	H	-0.376373	-0.224594	0.375952
H458	H	-0.043039	0.108739	0.709286
H459	H	0.290294	0.442073	1.042619
H460	H	-0.379322	-0.176338	0.333491
H461	H	-0.045989	0.156995	0.666824
H462	H	0.287345	0.490329	1.000157
H463	H	-0.451006	-0.816041	0.312766
H464	H	-0.117673	-0.482708	0.646099
H465	H	0.215661	-0.149374	0.979432
H466	H	-0.702335	-0.661486	0.157831
H467	H	-0.369002	-0.328152	0.491164
H468	H	-0.035668	0.005181	0.824498
N469	N	-0.808614	-0.652696	0.148987
N470	N	-0.475281	-0.319363	0.482320
N471	N	-0.141947	0.013971	0.815654
H472	H	-0.783049	-0.631526	0.127781
H473	H	-0.449715	-0.298193	0.461114
H474	H	-0.116382	0.035141	0.794447
H475	H	-0.831286	-0.628487	0.170242
H476	H	-0.497953	-0.295153	0.503576
H477	H	-0.164619	0.038180	0.836909
H478	H	-0.312826	-0.054100	0.312636
H479	H	0.020508	0.279233	0.645969
H480	H	0.353841	0.612566	0.979303
H481	H	-0.157953	-0.849646	0.702796
H482	H	0.175380	-0.516313	1.036129
H483	H	0.508714	-0.182979	1.369463
N484	N	-0.182536	-0.825037	1.060238
N485	N	0.150797	-0.491703	1.393571
N486	N	0.484130	-0.158370	1.726905
H487	H	-0.187611	-0.819956	1.098969
H488	H	0.145723	-0.486623	1.432303
H489	H	0.479056	-0.153290	1.765636
H490	H	-0.145194	-0.816922	1.050694
H491	H	0.188139	-0.483589	1.384027
H492	H	0.521473	-0.150255	1.717360
H493	H	-0.312829	0.044965	0.312647
H494	H	0.020504	0.378298	0.645980
H495	H	0.353838	0.711632	0.979313
H496	H	-0.191281	-0.054097	0.191512
H497	H	0.142052	0.279236	0.524846
H498	H	0.475385	0.612569	0.858179
N499	N	-0.182449	0.052171	0.182696
N500	N	0.150884	0.385504	0.516030
N501	N	0.484217	0.718838	0.849363
H502	H	-0.161232	0.026586	0.161549
H503	H	0.172101	0.359919	0.494882
H504	H	0.505434	0.693252	0.828216
H505	H	-0.158288	0.074807	0.204021
H506	H	0.175045	0.408141	0.537354
H507	H	0.508379	0.741474	0.870688
N508	N	-0.149115	-0.858494	0.809060
N509	N	0.184218	-0.525161	1.142393
N510	N	0.517551	-0.191827	1.475727
H511	H	-0.154182	-0.853426	0.847794
H512	H	0.179151	-0.520093	1.181127
H513	H	0.512484	-0.186760	1.514461
H514	H	-0.111773	-0.850383	0.799512
H515	H	0.221560	-0.517049	1.132846
H516	H	0.554893	-0.183716	1.466179
N517	N	-0.148901	-0.312502	0.149296
N518	N	0.184432	0.020831	0.482629
N519	N	0.517765	0.354165	0.815962
H520	H	-0.127685	-0.286919	0.128157
H521	H	0.205649	0.046415	0.461490
H522	H	0.538982	0.379748	0.794823
H523	H	-0.170137	-0.335139	0.125056
H524	H	0.163196	-0.001806	0.458390
H525	H	0.496529	0.331527	0.791723
N526	N	-0.182396	-0.563665	0.182615
N527	N	0.150937	-0.230332	0.515948
N528	N	0.484271	0.103001	0.849281
H529	H	-0.187478	-0.602398	0.187678
H530	H	0.145855	-0.269065	0.521012
H531	H	0.479188	0.064269	0.854345
H532	H	-0.145070	-0.554141	0.190821
H533	H	0.188263	-0.220808	0.524154
H534	H	0.521597	0.112525	0.857488
N535	N	-0.182571	-0.825032	0.444394
N536	N	0.150762	-0.491698	0.777727
N537	N	0.484095	-0.158365	1.111061
H538	H	-0.161391	-0.846225	0.469983
H539	H	0.171942	-0.512892	0.803316
H540	H	0.505275	-0.179558	1.136649
H541	H	-0.158372	-0.803766	0.421731
H542	H	0.174961	-0.470433	0.755065
H543	H	0.508294	-0.137100	1.088398
N544	N	-0.321528	-0.685947	1.060199
N545	N	0.011806	-0.352614	1.393532
N546	N	0.345139	-0.019281	1.726865
H547	H	-0.342706	-0.664754	1.034608
H548	H	-0.009372	-0.331421	1.367942
H549	H	0.323961	0.001913	1.701275
H550	H	-0.300243	-0.661762	1.082847
H551	H	0.033091	-0.328429	1.416180
H552	H	0.366424	0.004904	1.749513
H553	H	-0.312687	-0.694776	0.953932
H554	H	0.020646	-0.361443	1.287266
H555	H	0.353980	-0.028109	1.620599
N556	N	-0.354951	-0.652462	0.809005
N557	N	-0.021618	-0.319129	1.142339
N558	N	0.311715	0.014205	1.475672
H559	H	-0.376124	-0.631267	0.783412
H560	H	-0.042791	-0.297934	1.116745
H561	H	0.290542	0.035399	1.450079
H562	H	-0.333663	-0.628279	0.831652
H563	H	-0.000330	-0.294946	1.164986
H564	H	0.333004	0.038388	1.498319
N565	N	-0.321548	-0.685937	0.557863
N566	N	0.011785	-0.352604	0.891196
N567	N	0.345118	-0.019270	1.224529
H568	H	-0.342730	-0.664744	0.532275
H569	H	-0.009396	-0.331410	0.865608
H570	H	0.323937	0.001923	1.198942
H571	H	-0.300260	-0.661752	0.580508
H572	H	0.033073	-0.328419	0.913841
H573	H	0.366406	0.004914	1.247175
