data_functionalizedCrystal
_audit_creation_method	'MofGen! by Chris Wilmer'
_symmetry_space_group_name_H-M	'P1'
_symmetry_Int_Tables_number	1
_symmetry_cell_setting	triclinic
loop_
_symmetry_equiv_pos_as_xyz
  x,y,z
_cell_length_a	16.956995
_cell_length_b	16.974813
_cell_length_c	13.448316
_cell_angle_alpha	86.338833
_cell_angle_beta	89.989933
_cell_angle_gamma	79.732302
loop_
_atom_site_label
_atom_site_type_symbol
_atom_site_fract_x
_atom_site_fract_y
_atom_site_fract_z
O1	O	1.058004	0.032775	-0.085397
O2	O	0.825816	0.060535	-0.087618
O3	O	0.948382	-0.068872	-0.077206
O4	O	0.935437	0.162182	-0.095808
O5	O	0.948367	-0.068878	0.088178
O6	O	0.825801	0.060529	0.077767
O7	O	1.057988	0.032768	0.079987
Cu8	Cu	0.941893	0.046648	0.093978
Cu9	Cu	0.941911	0.046656	-0.101608
O10	O	0.935422	0.162175	0.069576
C11	C	0.796099	0.061953	-0.005038
C12	C	0.707574	0.066179	-0.005373
C13	C	0.208239	0.097793	-0.007955
C14	C	0.291418	0.093816	-0.007634
C15	C	0.342588	0.019170	-0.001617
C16	C	0.310575	-0.051503	0.004069
C17	C	0.227397	-0.047526	0.003741
C18	C	0.592382	-0.000517	-0.000015
C19	C	0.675565	-0.004489	0.000316
C20	C	0.656403	0.140831	-0.011389
C21	C	0.573224	0.144802	-0.011711
C22	C	0.541218	0.074128	-0.006030
N23	N	0.427611	0.015103	-0.001286
N24	N	0.456196	0.078196	-0.006368
C25	C	0.947882	-0.098301	0.007853
C26	C	0.946405	-0.185982	0.014906
C27	C	0.945721	-0.227166	-0.071931
C28	C	0.944328	-0.309550	-0.065301
C29	C	0.943624	-0.350750	0.028167
C30	C	0.944306	-0.309559	0.115011
C31	C	0.945693	-0.227175	0.108379
C32	C	0.939468	-0.597140	0.057667
C33	C	0.938083	-0.679530	0.064292
C34	C	0.938104	-0.679516	-0.116020
C35	C	0.939496	-0.597131	-0.122643
C36	C	0.940173	-0.555947	-0.035800
N37	N	0.942203	-0.434960	0.034947
N38	N	0.941589	-0.471737	-0.042581
C39	C	1.087705	0.031350	-0.002594
C40	C	1.176231	0.027124	-0.002266
C41	C	0.935922	0.191605	-0.015485
C42	C	0.937399	0.279285	-0.022545
N43	N	0.941886	0.046642	0.231543
N44	N	0.941924	0.046655	-0.239172
C45	C	0.996175	-0.010639	0.288191
C46	C	0.996180	-0.010640	0.392295
C47	C	0.941899	0.046644	0.439747
C48	C	0.887604	0.103927	0.383091
C49	C	0.887596	0.103924	0.278990
C50	C	0.887626	0.103931	0.600071
C51	C	0.887635	0.103936	0.704179
C52	C	0.996210	-0.010633	0.713376
C53	C	0.996202	-0.010636	0.609275
C54	C	0.941908	0.046649	0.552625
H55	H	0.166581	0.158577	-0.012847
Br56	Br	0.813936	0.181673	0.523193
H57	H	0.946298	-0.193629	-0.148042
H58	H	0.843404	0.150566	0.421733
Br59	Br	0.937186	-0.735413	-0.233872
H60	H	1.040406	-0.057277	0.570639
H61	H	0.352244	-0.112282	0.008963
Br62	Br	0.813965	0.181681	0.768571
H63	H	0.682472	0.198369	-0.016016
H64	H	0.531566	0.205586	-0.016614
H65	H	0.943774	-0.343080	-0.136012
Br66	Br	1.069852	-0.088380	0.223803
Br67	Br	0.334855	0.189727	-0.015365
Br68	Br	0.745011	-0.105801	0.008485
Br69	Br	0.940371	-0.541254	0.175526
H70	H	0.566333	-0.058064	0.004614
Br71	Br	0.943338	-0.365468	0.241862
H72	H	0.843388	0.150567	0.232867
Br73	Br	0.183956	-0.143437	0.011459
Br74	Br	0.940457	-0.541225	-0.249497
H75	H	0.946239	-0.193641	0.179091
H76	H	0.937506	-0.713071	0.140408
Br77	Br	1.069856	-0.088381	0.469179
Br78	Br	1.069897	-0.088371	0.790259
