data_functionalizedCrystal
_audit_creation_method	'MofGen! by Chris Wilmer'
_symmetry_space_group_name_H-M	'P1'
_symmetry_Int_Tables_number	1
_symmetry_cell_setting	triclinic
loop_
_symmetry_equiv_pos_as_xyz
  x,y,z
_cell_length_a	17.077404
_cell_length_b	17.638516
_cell_length_c	17.077396
_cell_angle_alpha	78.825117
_cell_angle_beta	90.021444
_cell_angle_gamma	101.242040
loop_
_atom_site_label
_atom_site_type_symbol
_atom_site_fract_x
_atom_site_fract_y
_atom_site_fract_z
Zn1	Zn	1.136821	-0.314722	0.507014
Zn2	Zn	1.470154	0.018611	0.840347
Zn3	Zn	1.803488	0.351944	1.173680
Zn4	Zn	1.110169	-0.446912	0.402264
Zn5	Zn	1.443502	-0.113579	0.735597
Zn6	Zn	1.776836	0.219755	1.068930
Zn7	Zn	1.005548	-0.314746	0.375762
Zn8	Zn	1.338882	0.018588	0.709095
Zn9	Zn	1.672215	0.351921	1.042429
Zn10	Zn	0.978972	-0.446860	0.533473
Zn11	Zn	1.312305	-0.113527	0.866806
Zn12	Zn	1.645639	0.219806	1.200139
O13	O	1.057878	-0.380810	0.454628
O14	O	1.391211	-0.047477	0.787961
O15	O	1.724544	0.285857	1.121295
O16	O	1.243130	-0.332269	0.493136
O17	O	1.576464	0.001064	0.826470
O18	O	1.909797	0.334397	1.159803
O19	O	1.096259	-0.429411	0.288908
O20	O	1.429592	-0.096078	0.622241
O21	O	1.762926	0.237256	0.955574
O22	O	1.045238	-0.204130	0.371009
O23	O	1.378572	0.129203	0.704342
O24	O	1.711905	0.462536	1.037675
O25	O	1.223549	-0.429389	0.416177
O26	O	1.556882	-0.096055	0.749510
O27	O	1.890216	0.237278	1.082844
O28	O	1.141684	-0.204113	0.467439
O29	O	1.475017	0.129220	0.800772
O30	O	1.808350	0.462553	1.134105
O31	O	1.019395	-0.332309	0.269437
O32	O	1.352728	0.001024	0.602770
O33	O	1.686061	0.334358	0.936103
O34	O	0.892178	-0.332259	0.396665
O35	O	1.225512	0.001074	0.729998
O36	O	1.558845	0.334408	1.063331
O37	O	0.999943	-0.429301	0.639803
O38	O	1.333276	-0.095967	0.973137
O39	O	1.666609	0.237366	1.306470
O40	O	0.872653	-0.429323	0.512534
O41	O	1.205986	-0.095990	0.845867
O42	O	1.539320	0.237343	1.179201
O43	O	1.115914	-0.332220	0.620364
O44	O	1.449247	0.001114	0.953698
O45	O	1.782581	0.334447	1.287031
O46	O	1.070489	-0.557517	0.441833
O47	O	1.403822	-0.224184	0.775166
O48	O	1.737156	0.109149	1.108500
O49	O	0.974099	-0.557480	0.538232
O50	O	1.307433	-0.224146	0.871565
O51	O	1.640766	0.109187	1.204898
C52	C	0.853934	-0.380789	0.454595
C53	C	1.187267	-0.047455	0.787928
C54	C	1.520601	0.285878	1.121262
C55	C	0.766682	-0.380799	0.454603
C56	C	1.100016	-0.047465	0.787937
C57	C	1.433349	0.285868	1.121270
C58	C	0.401036	-0.330353	0.494832
C59	C	0.734369	0.002980	0.828165
C60	C	1.067703	0.336314	1.161499
C61	C	0.483018	-0.330347	0.494822
C62	C	0.816351	0.002986	0.828156
C63	C	1.149684	0.336319	1.161489
C64	C	0.513828	-0.380827	0.454651
C65	C	0.847161	-0.047493	0.787984
C66	C	1.180494	0.285840	1.121318
C67	C	0.462650	-0.431321	0.414494
C68	C	0.795984	-0.097988	0.747827
C69	C	1.129317	0.235346	1.081160
C70	C	0.380669	-0.431330	0.414509
C71	C	0.714003	-0.097997	0.747842
C72	C	1.047336	0.235337	1.081175
C73	C	0.633525	-0.431297	0.414464
C74	C	0.966858	-0.097964	0.747797
C75	C	1.300192	0.235370	1.081130
C76	C	0.715512	-0.431287	0.414447
C77	C	1.048845	-0.097954	0.747781
C78	C	1.382178	0.235379	1.081114
C79	C	0.735873	-0.330314	0.494777
C80	C	1.069206	0.003019	0.828111
C81	C	1.402540	0.336352	1.161444
C82	C	0.653892	-0.330323	0.494792
C83	C	0.987226	0.003010	0.828126
C84	C	1.320559	0.336343	1.161459
C85	C	0.602721	-0.380817	0.454634
C86	C	0.936054	-0.047483	0.787967
C87	C	1.269387	0.285850	1.121300
C88	C	1.016539	-0.586179	0.495796
C89	C	1.349873	-0.252846	0.829130
C90	C	1.683206	0.080488	1.162463
C91	C	0.998927	-0.674037	0.513435
C92	C	1.332260	-0.340703	0.846768
C93	C	1.665593	-0.007370	1.180101
C94	C	1.192152	-0.962950	0.320691
C95	C	1.525485	-0.629617	0.654025
C96	C	1.858819	-0.296284	0.987358
C97	C	1.175588	-1.045506	0.337278
C98	C	1.508922	-0.712173	0.670611
C99	C	1.842255	-0.378839	1.003945
C100	C	1.075133	-1.045511	0.437578
C101	C	1.408467	-0.712178	0.770912
C102	C	1.741800	-0.378844	1.104245
C103	C	1.091686	-0.962954	0.420997
C104	C	1.425019	-0.629620	0.754331
C105	C	1.758352	-0.296287	1.087664
C106	C	1.150197	-0.921680	0.362554
C107	C	1.483530	-0.588347	0.695887
C108	C	1.816863	-0.255013	1.029220
C109	C	1.049730	-0.921683	0.462860
C110	C	1.383064	-0.588350	0.796193
C111	C	1.716397	-0.255017	1.129526
C112	C	1.066284	-0.839133	0.446283
C113	C	1.399618	-0.505800	0.779616
C114	C	1.732951	-0.172467	1.112949
C115	C	1.124794	-0.797854	0.387843
C116	C	1.458128	-0.464520	0.721177
C117	C	1.791461	-0.131187	1.054510
C118	C	1.166751	-0.839130	0.345977
C119	C	1.500084	-0.505796	0.679310
C120	C	1.833417	-0.172463	1.012643
C121	C	0.991224	-0.962959	0.521307
C122	C	1.324557	-0.629625	0.854640
C123	C	1.657890	-0.296292	1.187974
C124	C	0.949268	-0.921688	0.563169
C125	C	1.282601	-0.588355	0.896503
C126	C	1.615935	-0.255022	1.229836
C127	C	0.965818	-0.839137	0.546589
C128	C	1.299151	-0.505803	0.879922
C129	C	1.632485	-0.172470	1.213255
C130	C	1.024328	-0.797857	0.488149
C131	C	1.357661	-0.464524	0.821483
C132	C	1.690995	-0.131190	1.154816
C133	C	0.923862	-0.797861	0.588455
C134	C	1.257195	-0.464527	0.921789
C135	C	1.590528	-0.131194	1.255122
C136	C	0.940416	-0.715311	0.571878
C137	C	1.273749	-0.381977	0.905212
C138	C	1.607082	-0.048644	1.238545
C139	C	1.040882	-0.715307	0.471572
C140	C	1.374215	-0.381974	0.804906
C141	C	1.707549	-0.048640	1.138239
C142	C	1.262617	-0.380832	0.454662
C143	C	1.595951	-0.047499	0.787995
C144	C	1.929284	0.285835	1.121328
C145	C	1.349865	-0.380842	0.454676
C146	C	1.683199	-0.047508	0.788009
C147	C	2.016532	0.285825	1.121343
C148	C	1.057937	-0.380752	0.659361
C149	C	1.391270	-0.047419	0.992694
C150	C	1.724603	0.285915	1.326027
C151	C	1.057962	-0.380727	0.746606
C152	C	1.391295	-0.047394	1.079939
C153	C	1.724629	0.285940	1.413272
C154	C	1.099399	-0.174639	0.413316
C155	C	1.432732	0.158694	0.746649
C156	C	1.766065	0.492027	1.079983
C157	C	1.117092	-0.086782	0.395711
C158	C	1.450426	0.246552	0.729045
C159	C	1.783759	0.579885	1.062378
C160	C	1.057875	-0.380811	0.250680
C161	C	1.391209	-0.047478	0.584014
C162	C	1.724542	0.285856	0.917347
C163	C	1.058047	-0.380613	0.163391
C164	C	1.391380	-0.047280	0.496725
C165	C	1.724714	0.286053	0.830058
C166	C	1.118351	-0.330173	0.777474
C167	C	1.451684	0.003161	1.110808
C168	C	1.785017	0.336494	1.444141
C169	C	1.118366	-0.330146	0.859449
C170	C	1.451699	0.003187	1.192783
C171	C	1.785032	0.336520	1.526116
C172	C	1.057994	-0.380679	0.910555
C173	C	1.391327	-0.047346	1.243889
C174	C	1.724661	0.285988	1.577222
C175	C	0.997599	-0.431236	0.879682
C176	C	1.330932	-0.097902	1.213015
C177	C	1.664266	0.235431	1.546348
C178	C	0.997582	-0.431257	0.797707
C179	C	1.330915	-0.097924	1.131040
C180	C	1.664249	0.235409	1.464374
C181	C	0.997640	-0.431188	1.050542
C182	C	1.330974	-0.097855	1.383875
C183	C	1.664307	0.235479	1.717209
C184	C	0.997658	-0.431168	1.132523
C185	C	1.330991	-0.097834	1.465856
C186	C	1.664325	0.235499	1.799189
C187	C	1.118424	-0.330077	1.112285
C188	C	1.451757	0.003256	1.445618
C189	C	1.785091	0.336590	1.778951
C190	C	1.118407	-0.330099	1.030310
C191	C	1.451740	0.003235	1.363643
C192	C	1.785073	0.336568	1.696977
C193	C	1.058012	-0.380657	0.999442
C194	C	1.391346	-0.047323	1.332775
C195	C	1.724679	0.286010	1.666109
H196	H	0.777542	-0.289199	0.527475
H197	H	1.110875	0.044134	0.860808
H198	H	1.444208	0.377467	1.194141
F199	F	0.748297	-0.485031	0.371713
F200	F	1.081630	-0.151697	0.705047
F201	F	1.414963	0.181636	1.038380
H202	H	0.948451	-0.472345	1.025411
H203	H	1.281784	-0.139012	1.358744
H204	H	1.615118	0.194321	1.692077
F205	F	0.933399	-0.484943	1.186911
F206	F	1.266732	-0.151610	1.520244
F207	F	1.600065	0.181723	1.853578
H208	H	1.209761	-1.079105	0.303187
H209	H	1.543094	-0.745772	0.636520
H210	H	1.876427	-0.412439	0.969853
F211	F	0.933344	-0.485013	0.934074
F212	F	1.266678	-0.151680	1.267407
F213	F	1.600011	0.181653	1.600741
H214	H	0.375958	-0.289242	0.527539
H215	H	0.709292	0.044092	0.860872
H216	H	1.042625	0.377425	1.194205
F217	F	1.182701	-0.276270	1.145137
F218	F	1.516034	0.057064	1.478471
F219	F	1.849368	0.390397	1.811804
H220	H	1.214390	-0.805523	0.298380
H221	H	1.547724	-0.472190	0.631713
H222	H	1.881057	-0.138856	0.965047
F223	F	0.495442	-0.485049	0.371745
F224	F	0.828775	-0.151716	0.705078
F225	F	1.162109	0.181618	1.038411
H226	H	0.591862	-0.472418	0.381766
H227	H	0.925195	-0.139084	0.715099
H228	H	1.258528	0.194249	1.048433
F229	F	1.103144	-0.671376	0.409357
F230	F	1.436477	-0.338042	0.742690
F231	F	1.769811	-0.004709	1.076024
F232	F	0.933306	-0.485062	0.764855
F233	F	1.266640	-0.151729	1.098188
F234	F	1.599973	0.181604	1.431521
F235	F	0.326209	-0.485072	0.371775
F236	F	0.659542	-0.151739	0.705109
F237	F	0.992875	0.181594	1.038442
H238	H	0.524678	-0.289237	0.527525
H239	H	0.858011	0.044096	0.860858
H240	H	1.191344	0.377430	1.194191
H241	H	1.239792	-0.929343	0.273095
H242	H	1.573125	-0.596010	0.606428
H243	H	1.906458	-0.262677	0.939761
H244	H	1.138274	-0.730636	0.374350
H245	H	1.471607	-0.397303	0.707683
H246	H	1.804940	-0.063969	1.041016
F247	F	1.182611	-0.276392	0.723091
F248	F	1.515944	0.056941	1.056424
F249	F	1.849278	0.390275	1.389757
H250	H	1.027496	-1.079128	0.485165
H251	H	1.360829	-0.745794	0.818499
H252	H	1.694163	-0.412461	1.151832
F253	F	0.973350	-1.050816	0.538692
F254	F	1.306683	-0.717483	0.872025
F255	F	1.640017	-0.384150	1.205358
F256	F	0.887001	-0.965624	0.625370
F257	F	1.220335	-0.632290	0.958703
F258	F	1.553668	-0.298957	1.292037
F259	F	0.861600	-0.841798	0.650661
F260	F	1.194934	-0.508464	0.983994
F261	F	1.528267	-0.175131	1.317328
F262	F	0.621104	-0.276594	0.537543
F263	F	0.954438	0.056739	0.870876
F264	F	1.287771	0.390073	1.204210
F265	F	1.182665	-0.276321	0.975921
F266	F	1.515998	0.057012	1.309255
F267	F	1.849331	0.390346	1.642588
H268	H	0.906252	-0.681708	0.605968
H269	H	1.239585	-0.348375	0.939301
H270	H	1.572918	-0.015041	1.272635
H271	H	1.167542	-0.288982	0.884578
H272	H	1.500875	0.044352	1.217912
H273	H	1.834208	0.377685	1.551245
