data_functionalizedCrystal
_audit_creation_method	'MofGen! by Chris Wilmer'
_symmetry_space_group_name_H-M	'P1'
_symmetry_Int_Tables_number	1
_symmetry_cell_setting	triclinic
loop_
_symmetry_equiv_pos_as_xyz
  x,y,z
_cell_length_a	20.919320
_cell_length_b	14.560438
_cell_length_c	14.560438
_cell_angle_alpha	60.000069
_cell_angle_beta	90.000187
_cell_angle_gamma	62.591461
loop_
_atom_site_label
_atom_site_type_symbol
_atom_site_fract_x
_atom_site_fract_y
_atom_site_fract_z
Zr1	Zr	0.593622	1.071644	-0.153681
O2	O	0.495230	1.252247	-0.294828
O3	O	0.623784	0.883415	-0.110415
O4	O	0.623784	1.075019	-0.302016
O5	O	0.495231	1.060641	0.047914
O6	O	0.725190	1.086356	-0.307683
O7	O	0.495230	1.060643	-0.103227
O8	O	0.725189	0.743611	0.035056
O9	O	0.495231	1.403385	-0.294825
O10	O	0.712326	0.972122	-0.096189
O11	O	0.636648	0.963659	0.020835
O12	O	0.636648	1.189248	-0.204750
O13	O	0.560970	1.180785	-0.087726
Zr14	Zr	0.755352	1.089721	0.078333
Zr15	Zr	0.755352	1.089726	-0.162720
Zr16	Zr	0.593622	1.071640	0.087371
Zr17	Zr	0.593622	1.312692	-0.153677
Zr18	Zr	0.755352	0.848674	0.078328
O19	O	0.725190	1.277951	0.035066
O20	O	0.725190	1.277957	-0.307679
O21	O	0.495231	1.252241	0.047917
O22	O	0.853744	0.909118	0.219479
O23	O	0.853743	0.909124	-0.123266
O24	O	0.623784	0.883409	0.232330
O25	O	0.853744	1.100725	-0.123263
O26	O	0.725190	1.086347	0.226667
O27	O	0.623785	1.075010	0.232334
O28	O	0.853744	1.100722	0.027878
O29	O	0.623785	1.417758	-0.302009
O30	O	0.725190	0.743608	0.226660
O31	O	0.853744	0.757980	0.219476
O32	O	0.853743	0.757984	0.027872
O33	O	0.495231	1.403382	-0.103221
O34	O	0.623785	1.417754	-0.110405
O35	O	0.712326	0.972118	0.129401
O36	O	0.788004	0.980580	0.012377
O37	O	0.712326	1.197707	-0.096184
O38	O	0.636648	1.189244	0.020840
C39	C	0.674487	0.779169	-0.037680
C40	C	0.674487	0.676838	-0.037682
C41	C	0.713988	0.633179	-0.098767
C42	C	0.713991	0.537020	-0.098757
C43	C	0.634985	0.528190	0.023426
C44	C	0.634987	0.624342	0.023421
C45	C	0.472187	1.058066	-0.026369
C46	C	0.403529	1.050390	-0.022532
C47	C	0.017205	1.001249	0.002043
C48	C	0.081714	1.008471	-0.001574
C49	C	0.074461	1.125422	-0.060044
C50	C	0.002694	1.235157	-0.114911
C51	C	-0.061813	1.227934	-0.111300
C52	C	0.267255	1.152902	-0.073788
C53	C	0.331769	1.160117	-0.077392
C54	C	0.410784	0.933430	0.035944
C55	C	0.346272	0.926217	0.039555
C56	C	0.274511	1.035952	-0.015316
C57	C	0.140399	1.132807	-0.063740
C58	C	0.208576	1.028566	-0.011627
C59	C	0.876787	1.103300	-0.048980
C60	C	0.945445	1.110976	-0.052817
C61	C	0.674487	1.080688	-0.339194
C62	C	0.674487	1.080690	-0.441527
C63	C	0.674487	1.382197	-0.037669
C64	C	0.674488	1.484528	-0.037667
C65	C	0.730352	1.086937	-0.492725
C66	C	0.730354	1.086925	-0.588871
C67	C	0.618620	1.074425	-0.582615
C68	C	0.618621	1.074427	-0.486466
C69	C	0.674487	1.080678	0.263845
C70	C	0.674487	1.080676	0.366178
C71	C	0.876786	0.801786	-0.048985
C72	C	0.945445	0.707131	-0.052824
C73	C	0.674487	0.779164	0.263839
C74	C	0.674487	0.676831	0.366171
C75	C	0.876787	0.801781	0.252534
C76	C	0.945445	0.707124	0.351028
C77	C	0.472188	1.359585	-0.327883
C78	C	0.403529	1.454242	-0.426377
C79	C	0.472188	1.359579	-0.026363
C80	C	0.403529	1.454234	-0.022525
C81	C	0.674487	1.382202	-0.339188
C82	C	0.674487	1.484535	-0.441519
C83	C	0.938185	0.658265	-0.111307
C84	C	1.002690	0.569339	-0.114936
C85	C	1.074456	0.529275	-0.060075
C86	C	1.081715	0.578151	-0.001591
C87	C	1.017210	0.667081	0.002031
C88	C	1.017198	0.667091	0.336196
C89	C	1.081716	0.578165	0.428733
C90	C	1.074480	0.529267	0.536099
C91	C	1.002720	0.569309	0.550930
C92	C	0.938203	0.658240	0.458394
C93	C	0.331776	1.494287	-0.411545
C94	C	0.267258	1.583243	-0.504081
C95	C	0.274494	1.632145	-0.611448
C96	C	0.346254	1.592097	-0.626278
C97	C	0.410771	1.503149	-0.533743
C98	C	0.410790	1.503111	0.035948
C99	C	0.346284	1.592063	0.039551
C100	C	0.274518	1.632131	-0.015313
C101	C	0.267260	1.583251	-0.073794
C102	C	0.331765	1.494306	-0.077402
C103	C	0.713989	0.633168	0.470916
C104	C	0.713981	0.537024	0.567064
C105	C	0.634966	0.528209	0.453706
C106	C	0.634971	0.624358	0.357562
H107	H	0.602820	0.659887	0.073169
H108	H	0.134501	1.228028	-0.111344
H109	H	0.746163	0.675893	0.477932
H110	H	0.746146	0.501480	0.652349
H111	H	0.602795	0.485473	0.446711
C112	C	0.323773	1.440533	-0.141710
H113	H	0.372464	1.381825	-0.136013
H114	H	0.296962	1.400041	-0.111128
H115	H	0.296968	1.506570	-0.217677
H116	H	0.746158	0.501475	-0.148497
C117	C	0.188332	1.627268	-0.487749
H118	H	0.193269	1.585383	-0.410551
H119	H	0.161519	1.715043	-0.521290
H120	H	0.161522	1.608511	-0.521315
C121	C	0.591531	0.470454	0.090621
H122	H	0.597179	0.406945	0.081867
H123	H	0.611037	0.435125	0.166992
H124	H	0.539556	0.533680	0.064440
H125	H	0.879755	0.690884	-0.155996
C126	C	0.859278	0.702262	0.474717
H127	H	0.821884	0.762236	0.404236
H128	H	0.853632	0.632590	0.514992
H129	H	0.853622	0.739143	0.514986
H130	H	0.469219	1.470495	0.080634
H131	H	0.602800	0.659911	0.272267
H132	H	0.746152	0.675918	-0.148519
H133	H	0.469193	1.470545	-0.545833
C134	C	0.557164	1.067569	-0.430147
H135	H	0.565171	1.068457	-0.366444
H136	H	0.508937	1.137509	-0.480875
H137	H	0.559482	0.992487	-0.408357
C138	C	1.025172	0.720866	0.218105
H139	H	1.077150	0.684287	0.222540
H140	H	1.001654	0.702476	0.179458
H141	H	1.001646	0.809018	0.179468
H142	H	0.996840	0.529484	0.638360
C143	C	0.025185	0.872605	0.066362
H144	H	-0.023510	0.884014	0.060667
H145	H	0.051989	0.827221	0.035785
H146	H	0.051992	0.827219	0.142329
C147	C	1.160642	0.534122	0.412400
H148	H	1.155706	0.575967	0.335202
H149	H	1.187457	0.552883	0.445945
H150	H	1.187450	0.446337	0.445963
C151	C	0.323802	1.440523	-0.293454
H152	H	0.271824	1.477137	-0.297889
H153	H	0.347318	1.352378	-0.254803
H154	H	0.347330	1.458922	-0.254821
C155	C	1.145407	0.431443	-0.064055
H156	H	1.189191	0.414579	-0.023011
H157	H	1.145400	0.356434	-0.032539
H158	H	1.145404	0.462975	-0.139078
C159	C	0.160647	0.887771	0.058773
H160	H	0.155727	0.817086	0.094124
H161	H	0.187452	0.885876	0.006452
H162	H	0.187454	0.885875	0.112995
C163	C	0.354204	1.645887	-0.744384
H164	H	0.305500	1.704582	-0.797361
H165	H	0.381008	1.686397	-0.754337
H166	H	0.380998	1.579855	-0.754324
C167	C	1.145453	0.431436	0.637878
H168	H	1.189220	0.414593	0.613657
H169	H	1.145468	0.462936	0.681385
H170	H	1.145463	0.356405	0.681370
H171	H	0.214477	0.933345	0.035973
H172	H	0.352186	0.830983	0.087169
H173	H	0.469217	0.844089	0.080615
C174	C	0.188327	1.273606	-0.134134
H175	H	0.193250	1.344288	-0.169462
H176	H	0.161517	1.275512	-0.188356
H177	H	0.161522	1.275496	-0.081805
C178	C	1.160657	0.534055	0.058773
H179	H	1.155750	0.575890	0.094127
H180	H	1.187450	0.446273	0.112976
H181	H	1.187469	0.552811	0.006454
C182	C	-0.005284	1.363800	-0.179256
H183	H	0.043411	1.352389	-0.173550
H184	H	-0.032089	1.409167	-0.255214
H185	H	-0.032090	1.409204	-0.148690
C186	C	0.354282	1.645803	0.103893
H187	H	0.406262	1.609179	0.136065
H188	H	0.330770	1.733948	0.054401
H189	H	0.330757	1.627408	0.160929
H190	H	0.775842	1.092034	-0.456136
C191	C	-0.140748	1.348633	-0.171638
H192	H	-0.135830	1.419320	-0.206969
H193	H	-0.167559	1.350536	-0.225856
H194	H	-0.167550	1.350518	-0.119304
H195	H	0.221954	1.704571	-0.686787
H196	H	0.222000	1.704555	-0.012366
H197	H	0.208820	1.615887	-0.118462
H198	H	0.775845	1.092010	-0.630553
C199	C	0.557167	1.067553	-0.632060
H200	H	0.565161	1.068460	-0.696663
H201	H	0.559481	0.992482	-0.578767
H202	H	0.508939	1.137505	-0.651275
H203	H	0.325856	1.255357	-0.124977
H204	H	0.996765	0.529554	-0.162561
H205	H	1.023132	0.706857	0.049661
