data_functionalizedCrystal
_audit_creation_method	'MofGen! by Chris Wilmer'
_symmetry_space_group_name_H-M	'P1'
_symmetry_Int_Tables_number	1
_symmetry_cell_setting	triclinic
loop_
_symmetry_equiv_pos_as_xyz
  x,y,z
_cell_length_a	12.759400
_cell_length_b	29.839134
_cell_length_c	12.759393
_cell_angle_alpha	90.033122
_cell_angle_beta	89.968436
_cell_angle_gamma	89.989968
loop_
_atom_site_label
_atom_site_type_symbol
_atom_site_fract_x
_atom_site_fract_y
_atom_site_fract_z
Zn1	Zn	-0.418335	-0.686845	-0.594391
Zn2	Zn	0.081665	-0.186845	-0.094391
Zn3	Zn	-0.594053	-0.686800	-0.418711
Zn4	Zn	-0.094053	-0.186800	0.081289
Zn5	Zn	-0.418375	-0.611715	-0.418686
Zn6	Zn	0.081625	-0.111715	0.081314
Zn7	Zn	-0.593958	-0.611711	-0.594308
Zn8	Zn	-0.093958	-0.111711	-0.094308
O9	O	-0.506180	-0.649268	-0.506524
O10	O	-0.006180	-0.149268	-0.006524
O11	O	-0.441667	-0.749706	-0.571133
O12	O	0.058333	-0.249706	-0.071133
O13	O	-0.570806	-0.676823	-0.271687
O14	O	-0.070806	-0.176823	0.228313
O15	O	-0.271348	-0.621702	-0.442018
O16	O	0.228652	-0.121702	0.057982
O17	O	-0.570767	-0.749673	-0.442061
O18	O	-0.070767	-0.249673	0.057939
O19	O	-0.271319	-0.676900	-0.571108
O20	O	0.228681	-0.176900	-0.071108
O21	O	-0.441736	-0.621659	-0.271668
O22	O	0.058264	-0.121659	0.228332
O23	O	-0.441643	-0.548848	-0.441937
O24	O	0.058357	-0.048848	0.058063
O25	O	-0.570604	-0.621694	-0.741340
O26	O	-0.070604	-0.121694	-0.241340
O27	O	-0.570643	-0.548844	-0.570966
O28	O	-0.070643	-0.048844	-0.070966
O29	O	-0.441574	-0.676895	-0.741401
O30	O	0.058426	-0.176895	-0.241401
O31	O	-0.741062	-0.676818	-0.441981
O32	O	-0.241062	-0.176818	0.058019
O33	O	-0.740992	-0.621650	-0.570991
O34	O	-0.240992	-0.121650	-0.070991
C35	C	-0.506138	-0.532545	-0.506440
C36	C	-0.006138	-0.032545	-0.006440
C37	C	-0.506145	-0.482611	-0.506429
C38	C	-0.006145	0.017389	-0.006429
C39	C	-0.779148	-0.649241	-0.506502
C40	C	-0.279148	-0.149241	-0.006502
C41	C	-0.895924	-0.649271	-0.506528
C42	C	-0.395924	-0.149271	-0.006528
C43	C	-0.573459	-0.172975	-0.573594
C44	C	-0.073459	0.327025	-0.073594
C45	C	-0.573493	0.014698	-0.573628
C46	C	-0.073493	0.514698	-0.073628
O47	O	-0.630671	0.038956	-0.630705
O48	O	-0.130671	0.538956	-0.130705
N49	N	-0.506232	0.038174	-0.506555
N50	N	-0.006232	0.538174	-0.006555
C51	C	-0.438954	0.014730	-0.439475
C52	C	0.061046	0.514730	0.060525
O53	O	-0.381738	0.039004	-0.382434
O54	O	0.118262	0.539004	0.117566
C55	C	-0.438916	-0.172943	-0.439447
C56	C	0.061084	0.327057	0.060553
C57	C	-0.506188	-0.196417	-0.506516
C58	C	-0.006188	0.303583	-0.006516
C59	C	-0.640725	-0.196449	-0.640658
C60	C	-0.140725	0.303551	-0.140658
C61	C	-0.640720	-0.243364	-0.640645
C62	C	-0.140720	0.256636	-0.140645
C63	C	-0.573449	-0.266806	-0.573568
C64	C	-0.073449	0.233194	-0.073568
C65	C	-0.506183	-0.243332	-0.506503
C66	C	-0.006183	0.256668	-0.006503
C67	C	-0.371633	-0.196387	-0.372373
C68	C	0.128367	0.303613	0.127627
C69	C	-0.371628	-0.243308	-0.372374
C70	C	0.128372	0.256692	0.127626
C71	C	-0.438900	-0.266782	-0.439443
C72	C	0.061100	0.233218	0.060557
C73	C	-0.438908	-0.313689	-0.439412
C74	C	0.061092	0.186311	0.060588
N75	N	-0.506168	-0.337165	-0.506485
N76	N	-0.006168	0.162835	-0.006485
C77	C	-0.573439	-0.313724	-0.573562
C78	C	-0.073439	0.186276	-0.073562
C79	C	-0.438980	0.113260	-0.439493
C80	C	0.061020	0.613260	0.060507
C81	C	-0.438991	0.160178	-0.439498
C82	C	0.061009	0.660178	0.060502
C83	C	-0.573528	0.160143	-0.573652
C84	C	-0.073528	0.660143	-0.073652
C85	C	-0.573522	0.113225	-0.573641
C86	C	-0.073522	0.613225	-0.073641
C87	C	-0.506240	0.089784	-0.506565
C88	C	-0.006240	0.589784	-0.006565
C89	C	-0.573424	-0.412250	-0.573529
C90	C	-0.073424	0.087750	-0.073529
C91	C	-0.573416	-0.459169	-0.573507
C92	C	-0.073416	0.040831	-0.073507
C93	C	-0.438875	-0.459130	-0.439357
C94	C	0.061125	0.040870	0.060643
C95	C	-0.438886	-0.412215	-0.439375
C96	C	0.061114	0.087785	0.060625
C97	C	-0.506164	-0.388776	-0.506469
C98	C	-0.006164	0.111224	-0.006469
O99	O	-0.381751	-0.337976	-0.382373
O100	O	0.118249	0.162024	0.117627
O101	O	-0.630630	-0.338006	-0.630611
O102	O	-0.130630	0.161994	-0.130611
C103	C	-0.573464	-0.126059	-0.573607
C104	C	-0.073464	0.373941	-0.073607
C105	C	-0.506198	-0.102586	-0.506543
C106	C	-0.006198	0.397414	-0.006543
C107	C	-0.438927	-0.126027	-0.439465
C108	C	0.061073	0.373973	0.060535
C109	C	-0.506209	-0.055668	-0.506548
C110	C	-0.006209	0.444332	-0.006548
C111	C	-0.573480	-0.032226	-0.573626
C112	C	-0.073480	0.467774	-0.073626
C113	C	-0.640740	-0.055702	-0.640698
C114	C	-0.140740	0.444298	-0.140698
C115	C	-0.640735	-0.102618	-0.640685
C116	C	-0.140735	0.397382	-0.140685
C117	C	-0.371667	-0.102551	-0.372393
C118	C	0.128333	0.397449	0.127607
C119	C	-0.371678	-0.055635	-0.372411
C120	C	0.128322	0.444365	0.127589
C121	C	-0.438949	-0.032194	-0.439488
C122	C	0.061051	0.467806	0.060512
C123	C	-0.950788	-0.678028	-0.439427
C124	C	-0.450788	-0.178028	0.060573
C125	C	-1.060512	-0.678056	-0.439459
C126	C	-0.560512	-0.178056	0.060541
C127	C	-1.060499	-0.620564	-0.573697
C128	C	-0.560499	-0.120564	-0.073697
C129	C	-0.950777	-0.620539	-0.573669
C130	C	-0.450777	-0.120539	-0.073669
C131	C	-0.895935	-0.706760	-0.372286
C132	C	-0.395935	-0.206760	0.127714
C133	C	-0.950799	-0.735520	-0.305178
C134	C	-0.450799	-0.235520	0.194822
C135	C	-1.060523	-0.735547	-0.305210
C136	C	-0.560523	-0.235547	0.194790
C137	C	-1.115383	-0.706815	-0.372351
C138	C	-0.615383	-0.206815	0.127649
C139	C	-0.232147	-0.649307	-0.506569
C140	C	0.267853	-0.149307	-0.006569
C141	C	-0.115370	-0.649323	-0.506588
C142	C	0.384630	-0.149323	-0.006588
C143	C	-0.506074	-0.649299	-0.780558
C144	C	-0.006074	-0.149299	-0.280558
C145	C	-0.506029	-0.649313	-0.897334
C146	C	-0.006029	-0.149313	-0.397334
C147	C	-0.506228	0.233554	-0.506592
C148	C	-0.006228	0.733554	-0.006592
C149	C	-0.506262	0.183620	-0.506576
C150	C	-0.006262	0.683620	-0.006576
C151	C	-0.438837	-0.678060	-0.952230
C152	C	0.061163	-0.178060	-0.452230
C153	C	-0.438799	-0.678070	-1.061954
C154	C	0.061201	-0.178070	-0.561954
C155	C	-0.573154	-0.620586	-1.061877
C156	C	-0.073154	-0.120586	-0.561877
C157	C	-0.573186	-0.620573	-0.952155
C158	C	-0.073186	-0.120573	-0.452155
C159	C	-0.371680	-0.706799	-0.897409
C160	C	0.128320	-0.206799	-0.397409
C161	C	-0.304483	-0.735549	-0.952305
C162	C	0.195517	-0.235549	-0.452305
C163	C	-0.304445	-0.735560	-1.062029
C164	C	0.195555	-0.235560	-0.562029
C165	C	-0.371604	-0.706821	-1.116857
C166	C	0.128396	-0.206821	-0.616857
C167	C	-0.506210	-0.649262	-0.233557
C168	C	-0.006210	-0.149262	0.266443
C169	C	-0.505959	-0.649336	-0.116781
C170	C	-0.005959	-0.149336	0.383219
H171	H	-0.628201	-0.478279	-0.628123
H172	H	-0.128201	0.021721	-0.128123
F173	F	-0.371718	-0.706792	-0.780632
F174	F	0.128282	-0.206792	-0.280632
H175	H	-0.249723	-0.758966	-1.106722
H176	H	0.250277	-0.258966	-0.606722
F177	F	-0.232998	-0.766127	-0.893951
F178	F	0.267002	-0.266127	-0.393951
H179	H	-0.384108	-0.478225	-0.384741
H180	H	0.115892	0.021775	0.115259
H181	H	-0.906106	-0.597123	-0.628310
H182	H	-0.406106	-0.097123	-0.128310
H183	H	-0.628303	0.179237	-0.628270
H184	H	-0.128303	0.679237	-0.128270
H185	H	-0.384190	0.094179	-0.384866
H186	H	0.115810	0.594179	0.115134
F187	F	-1.232162	-0.706701	-0.372042
F188	F	-0.732162	-0.206701	0.127958
H189	H	-0.316856	-0.177282	-0.317755
H190	H	0.183144	0.322718	0.182245
F191	F	-0.371547	-0.706828	-1.233637
F192	F	0.128453	-0.206828	-0.733637
F193	F	-0.644627	-0.590003	-1.120233
F194	F	-0.144627	-0.090003	-0.620233
F195	F	-0.367403	0.185156	-0.368101
F196	F	0.132597	0.685156	0.131899
H197	H	-0.627884	-0.597158	-0.907458
H198	H	-0.127884	-0.097158	-0.407458
H199	H	-1.105175	-0.597172	-0.628358
H200	H	-0.605175	-0.097172	-0.128358
H201	H	-0.628206	-0.393171	-0.628166
H202	H	-0.128206	0.106829	-0.128166
H203	H	-0.806592	-0.706739	-0.372249
H204	H	-0.306592	-0.206739	0.127751
F205	F	-0.300014	-0.268252	-0.300981
F206	F	0.199986	0.231748	0.199019
H207	H	-0.695506	-0.177368	-0.695287
H208	H	-0.195506	0.322632	-0.195287
F209	F	-0.645120	0.088246	-0.645026
F210	F	-0.145120	0.588246	-0.145026
F211	F	-0.367304	-0.387231	-0.367977
F212	F	0.132696	0.112769	0.132023
F213	F	-0.712336	-0.127595	-0.712070
F214	F	-0.212336	0.372405	-0.212070
F215	F	-0.712340	-0.030746	-0.712082
F216	F	-0.212340	0.469254	-0.212082
F217	F	-0.712317	-0.268341	-0.712035
F218	F	-0.212317	0.231659	-0.212035
F219	F	-0.300077	-0.030658	-0.301017
F220	F	0.199923	0.469342	0.198983
F221	F	-0.892412	-0.766100	-0.233736
F222	F	-0.392412	-0.266100	0.266264
H223	H	-1.105190	-0.758968	-0.250576
H224	H	-0.605190	-0.258968	0.249424
H225	H	-0.316886	-0.121632	-0.317769
H226	H	0.183114	0.378368	0.182231
