data_functionalizedCrystal
_audit_creation_method	'MofGen! by Chris Wilmer'
_symmetry_space_group_name_H-M	'P1'
_symmetry_Int_Tables_number	1
_symmetry_cell_setting	triclinic
loop_
_symmetry_equiv_pos_as_xyz
  x,y,z
_cell_length_a	12.759401
_cell_length_b	12.759400
_cell_length_c	12.759393
_cell_angle_alpha	89.976116
_cell_angle_beta	89.980404
_cell_angle_gamma	90.003722
loop_
_atom_site_label
_atom_site_type_symbol
_atom_site_fract_x
_atom_site_fract_y
_atom_site_fract_z
Zn1	Zn	1.606349	-0.418208	-0.594031
Zn2	Zn	1.606274	-0.593923	-0.418371
Zn3	Zn	1.430647	-0.418260	-0.418370
Zn4	Zn	1.430674	-0.593846	-0.594013
O5	O	1.518486	-0.506059	-0.506196
O6	O	1.753360	-0.441527	-0.570737
O7	O	1.582935	-0.570675	-0.271350
O8	O	1.453974	-0.271232	-0.441679
O9	O	1.753305	-0.570625	-0.441681
O10	O	1.583061	-0.271194	-0.570736
O11	O	1.453902	-0.441616	-0.271349
O12	O	1.283630	-0.441541	-0.441661
O13	O	1.454019	-0.570493	-0.741036
O14	O	1.283649	-0.570544	-0.570705
O15	O	1.583087	-0.441452	-0.741049
O16	O	1.582960	-0.740934	-0.441663
O17	O	1.453947	-0.740877	-0.570706
C18	C	1.245519	-0.506040	-0.506182
C19	C	1.128742	-0.506058	-0.506200
C20	C	0.964186	-0.573347	-0.573295
C21	C	1.073910	-0.573336	-0.573284
C22	C	1.073844	-0.438794	-0.439116
C23	C	0.964121	-0.438812	-0.439122
C24	C	1.518477	-0.779026	-0.506206
C25	C	1.518569	-0.895803	-0.506245
C26	C	1.518564	-0.505958	-0.780230
C27	C	1.518598	-0.505915	-0.897006
C28	C	1.792519	-0.506079	-0.506211
C29	C	1.909296	-0.506087	-0.506218
C30	C	1.518523	-0.232026	-0.506210
C31	C	1.518539	-0.115249	-0.506215
C32	C	1.451342	-0.060406	-0.439028
C33	C	1.451354	0.049319	-0.439045
C34	C	1.585770	0.049346	-0.573440
C35	C	1.585752	-0.060377	-0.573427
C36	C	1.585808	-0.438713	-0.951877
C37	C	1.585826	-0.438668	-1.061601
C38	C	1.451420	-0.573036	-1.061574
C39	C	1.451398	-0.573075	-0.951852
C40	C	1.518468	-0.506084	-0.233229
C41	C	1.518638	-0.505831	-0.116453
H42	H	0.919428	-0.384039	-0.384495
H43	H	0.919551	-0.628127	-0.627928
H44	H	1.396634	0.093969	-0.384336
O45	O	1.385995	-0.638211	-0.898497
C46	C	1.244167	-0.652372	-0.774545
C47	C	1.318152	-0.578495	-0.834922
H48	H	1.189312	-0.604122	-0.723113
H49	H	1.196071	-0.700354	-0.832543
H50	H	1.292407	-0.707349	-0.723224
H51	H	1.269993	-0.523454	-0.886244
H52	H	1.366251	-0.530586	-0.776867
H53	H	1.396610	-0.105080	-0.384302
H54	H	1.640472	-0.105031	-0.628147
O55	O	1.651013	-0.373419	-1.115064
C56	C	1.710649	-0.313834	-1.284106
C57	C	1.636756	-0.387772	-1.223691
H58	H	1.699163	-0.325428	-1.371942
H59	H	1.692204	-0.229103	-1.262606
H60	H	1.795348	-0.332286	-1.262486
H61	H	1.552032	-0.369415	-1.245279
H62	H	1.655291	-0.472481	-1.245197
H63	H	1.640524	-0.384024	-0.907225
O64	O	1.127266	-0.373474	-0.374049
C65	C	1.296268	-0.313857	-0.314537
C66	C	1.235902	-0.387873	-0.388294
H67	H	1.384111	-0.325488	-0.326013
H68	H	1.274770	-0.229144	-0.333127
H69	H	1.274602	-0.332196	-0.229803
H70	H	1.257536	-0.369628	-0.473052
H71	H	1.257406	-0.472563	-0.369614
O72	O	1.651030	0.102813	-0.638620
C73	C	1.710593	0.271858	-0.698242
C74	C	1.636645	0.211440	-0.624357
H75	H	1.698972	0.359692	-0.686751
H76	H	1.795323	0.250346	-0.679794
H77	H	1.692174	0.250251	-0.782944
H78	H	1.654969	0.233014	-0.539630
H79	H	1.551937	0.232957	-0.642895
H80	H	1.396710	-0.627718	-1.106243
H81	H	1.118598	-0.628107	-0.627904
