data_functionalizedCrystal
_audit_creation_method	'MofGen! by Chris Wilmer'
_symmetry_space_group_name_H-M	'P1'
_symmetry_Int_Tables_number	1
_symmetry_cell_setting	triclinic
loop_
_symmetry_equiv_pos_as_xyz
  x,y,z
_cell_length_a	16.109302
_cell_length_b	10.489716
_cell_length_c	15.186229
_cell_angle_alpha	90.000291
_cell_angle_beta	89.994701
_cell_angle_gamma	83.995458
loop_
_atom_site_label
_atom_site_type_symbol
_atom_site_fract_x
_atom_site_fract_y
_atom_site_fract_z
O1	O	1.104131	0.163953	-0.073260
O2	O	1.604131	0.663953	0.426740
O3	O	0.862194	0.184355	-0.073252
O4	O	1.362194	0.684355	0.426748
O5	O	0.988679	-0.011526	-0.073260
O6	O	1.488679	0.488474	0.426740
O7	O	0.977647	0.359834	-0.073253
O8	O	1.477647	0.859834	0.426747
O9	O	0.988670	-0.011528	0.073198
O10	O	1.488670	0.488472	0.573198
O11	O	0.862186	0.184353	0.073205
O12	O	1.362186	0.684353	0.573205
O13	O	1.104123	0.163950	0.073197
O14	O	1.604123	0.663950	0.573197
Zn15	Zn	0.983153	0.174151	0.096454
Zn16	Zn	1.483153	0.674151	0.596454
Zn17	Zn	0.983164	0.174155	-0.096510
Zn18	Zn	1.483164	0.674155	0.403490
O19	O	0.977638	0.359831	0.073204
O20	O	1.477638	0.859831	0.573204
C21	C	0.831210	0.183527	-0.000023
C22	C	1.331210	0.683527	0.499977
C23	C	0.738900	0.181049	-0.000020
C24	C	1.238900	0.681049	0.499980
C25	C	0.526519	0.175317	0.079805
C26	C	1.026519	0.675317	0.579805
C27	C	0.439785	0.172975	0.079802
C28	C	0.939785	0.672975	0.579802
C29	C	0.439804	0.172985	-0.079874
C30	C	0.939804	0.672985	0.420126
C31	C	0.526538	0.175318	-0.079870
C32	C	1.026538	0.675318	0.420130
C33	C	0.569892	0.176491	-0.000028
C34	C	1.069892	0.676491	0.499972
C35	C	0.396425	0.171815	-0.000035
C36	C	0.896425	0.671815	0.499965
C37	C	0.302383	0.169276	-0.000039
C38	C	0.802383	0.669276	0.499961
C39	C	0.663940	0.179028	-0.000024
C40	C	1.163940	0.679028	0.499976
C41	C	0.987845	-0.059047	-0.000034
C42	C	1.487845	0.440953	0.499966
C43	C	0.985366	-0.200642	-0.000042
C44	C	1.485366	0.299358	0.499958
C45	C	1.062930	-0.299441	-0.000036
C46	C	1.562930	0.200559	0.499964
C47	C	1.021947	-0.376206	-0.072244
C48	C	1.521947	0.123794	0.427756
C49	C	1.021921	-0.376172	0.072152
C50	C	1.521921	0.123828	0.572152
C51	C	0.944416	-0.275542	-0.072309
C52	C	1.444416	0.224458	0.427691
C53	C	0.944401	-0.275503	0.072152
C54	C	1.444401	0.224497	0.572152
C55	C	0.903361	-0.352218	-0.000073
C56	C	1.403361	0.147782	0.499927
C57	C	1.135107	0.164778	-0.000034
C58	C	1.635107	0.664778	0.499966
C59	C	1.227417	0.167257	-0.000043
C60	C	1.727417	0.667257	0.499957
C61	C	0.978472	0.407353	-0.000024
C62	C	1.478472	0.907353	0.499976
C63	C	0.980951	0.548948	-0.000021
C64	C	1.480951	1.048948	0.499979
N65	N	0.983151	0.174148	0.228147
N66	N	1.483151	0.674148	0.728147
N67	N	0.983172	0.174148	-0.228202
N68	N	1.483172	0.674148	0.271798
C69	C	1.039178	0.087441	0.453867
C70	C	1.539178	0.587441	0.953867
C71	C	1.039181	0.087438	0.546056
C72	C	1.539181	0.587438	1.046056
C73	C	0.927140	0.260859	0.546072
C74	C	1.427140	0.760859	1.046072
C75	C	0.927134	0.260855	0.453884
C76	C	1.427134	0.760855	0.953884
C77	C	0.983157	0.174147	0.407784
C78	C	1.483157	0.674147	0.907784
C79	C	0.983166	0.174148	0.592161
C80	C	1.483166	0.674148	1.092161
C81	C	0.983168	0.174146	0.692117
C82	C	1.483168	0.674146	1.192117
C83	C	0.983154	0.174148	0.307821
C84	C	1.483154	0.674148	0.807821
H85	H	0.404494	0.172031	-0.144879
H86	H	0.904494	0.672031	0.355121
C87	C	0.865541	0.356301	0.403189
C88	C	1.365541	0.856301	0.903189
N89	N	0.819165	0.428208	0.365006
N90	N	1.319165	0.928208	0.865006
H91	H	1.130397	-0.275743	-0.000112
H92	H	1.630397	0.224257	0.499888
H93	H	0.881527	0.331456	0.583616
H94	H	1.381527	0.831456	1.083616
C95	C	1.066169	-0.435531	0.154626
C96	C	1.566169	0.064469	0.654626
N97	N	1.099502	-0.480235	0.216743
N98	N	1.599502	0.019765	0.716743
H99	H	1.054694	-0.420175	-0.133293
H100	H	1.554694	0.079825	0.366707
H101	H	0.561854	0.176270	-0.144883
H102	H	1.061854	0.676270	0.355117
H103	H	0.911694	-0.231762	-0.133422
H104	H	1.411694	0.268238	0.366578
H105	H	0.835843	-0.375669	-0.000110
H106	H	1.335843	0.124331	0.499890
H107	H	0.561816	0.176272	0.144817
H108	H	1.061816	0.676272	0.644817
H109	H	1.084795	0.016837	0.416334
H110	H	1.584795	0.516837	0.916334
C111	C	0.900196	-0.216080	0.154632
C112	C	1.400196	0.283920	0.654632
N113	N	0.866906	-0.171325	0.216764
N114	N	1.366906	0.328675	0.716764
C115	C	1.100801	-0.007956	0.596743
C116	C	1.600801	0.492044	1.096743
N117	N	1.147213	-0.079816	0.634920
N118	N	1.647213	0.420184	1.134920
H119	H	0.404474	0.172020	0.144810
H120	H	0.904474	0.672020	0.644810
