data_functionalizedCrystal
_audit_creation_method	'MofGen! by Chris Wilmer'
_symmetry_space_group_name_H-M	'P1'
_symmetry_Int_Tables_number	1
_symmetry_cell_setting	triclinic
loop_
_symmetry_equiv_pos_as_xyz
  x,y,z
_cell_length_a	13.897449
_cell_length_b	21.295417
_cell_length_c	21.295411
_cell_angle_alpha	89.971282
_cell_angle_beta	89.984730
_cell_angle_gamma	90.031786
loop_
_atom_site_label
_atom_site_type_symbol
_atom_site_fract_x
_atom_site_fract_y
_atom_site_fract_z
Zn1	Zn	1.474565	-0.250616	-0.355892
Zn2	Zn	1.474438	-0.355880	-0.250617
Zn3	Zn	1.313269	-0.250631	-0.250639
Zn4	Zn	1.313199	-0.355853	-0.355851
O5	O	1.393868	-0.303245	-0.303250
O6	O	1.609529	-0.264584	-0.341935
O7	O	1.453035	-0.341937	-0.162531
O8	O	1.334748	-0.162540	-0.264627
O9	O	1.609436	-0.341922	-0.264590
O10	O	1.453251	-0.162528	-0.341956
O11	O	1.334625	-0.264611	-0.162547
O12	O	1.178278	-0.264584	-0.264588
O13	O	1.334629	-0.341875	-0.443946
O14	O	1.178227	-0.341890	-0.341886
O15	O	1.453183	-0.264558	-0.443976
O16	O	1.452967	-0.443966	-0.264550
O17	O	1.334506	-0.443946	-0.341865
C18	C	1.143254	-0.303237	-0.303235
C19	C	1.036040	-0.303248	-0.303244
C20	C	0.839744	-0.303250	-0.303261
C21	C	0.948977	-0.303247	-0.303250
C22	C	1.393741	-0.466797	-0.303215
C23	C	1.393776	-0.536765	-0.303221
C24	C	1.455513	-0.569621	-0.263004
C25	C	1.455558	-0.635363	-0.263018
C26	C	1.393849	-0.668247	-0.303243
C27	C	1.332107	-0.635383	-0.343467
C28	C	1.332070	-0.569642	-0.343456
N29	N	1.309467	-0.771515	-0.308037
N30	N	1.309505	-0.833966	-0.308043
C31	C	1.393957	-0.866322	-0.303279
N32	N	1.478372	-0.833867	-0.298495
N33	N	1.478333	-0.771410	-0.298485
C34	C	1.393882	-0.739533	-0.303259
C35	C	1.455749	-0.970464	-0.263075
C36	C	1.455795	-1.036207	-0.263094
C37	C	1.332335	-1.036226	-0.343539
C38	C	1.332297	-0.970483	-0.343524
C39	C	1.394002	-0.937606	-0.303289
C40	C	1.645461	-0.303254	-0.303264
C41	C	1.752675	-0.303258	-0.303271
C42	C	1.393912	-0.303212	-0.467440
C43	C	1.393931	-0.303197	-0.537408
C44	C	1.394021	-0.139055	-0.303298
C45	C	1.394086	-0.069087	-0.303319
C46	C	1.455695	-0.343330	-1.036859
C47	C	1.455678	-0.343351	-0.971116
C48	C	1.394022	-0.303099	-0.938248
C49	C	1.332363	-0.262836	-0.971128
C50	C	1.332375	-0.262821	-1.036869
N51	N	1.386655	-0.248020	-0.835043
N52	N	1.386648	-0.248035	-0.772591
C53	C	1.393980	-0.303142	-0.740173
N54	N	1.401337	-0.358233	-0.772566
N55	N	1.401348	-0.358216	-0.835023
C56	C	1.394002	-0.303111	-0.866962
C57	C	1.455612	-0.343427	-0.636016
C58	C	1.455588	-0.343448	-0.570272
C59	C	1.332278	-0.262928	-0.570285
C60	C	1.332297	-0.262913	-0.636027
C61	C	1.393969	-0.303161	-0.668889
C62	C	1.393879	-0.303233	-0.139698
C63	C	1.394047	-0.303070	-0.069730
H64	H	1.505759	-0.542854	-0.230244
Cl65	Cl	1.254763	-1.077559	-0.394112
Cl66	Cl	1.533215	-0.393936	-1.078167
Cl67	Cl	1.254743	-0.212342	-0.528971
Cl68	Cl	1.254856	-0.212233	-0.929808
Cl69	Cl	1.533423	-1.077513	-0.212536
Cl70	Cl	1.533183	-0.393968	-0.929783
H71	H	1.282020	-0.943730	-0.376269
H72	H	1.282173	-0.230035	-1.063633
H73	H	1.505827	-0.376201	-0.662773
Cl74	Cl	1.533091	-0.394069	-0.528946
H75	H	1.505836	-0.662120	-0.230269
Cl76	Cl	1.254533	-0.676722	-0.394038
Cl77	Cl	1.254779	-0.212305	-0.677354
H78	H	1.281795	-0.542890	-0.376206
H79	H	1.505996	-0.943694	-0.230315
