data_functionalizedCrystal
_audit_creation_method	'MofGen! by Chris Wilmer'
_symmetry_space_group_name_H-M	'P1'
_symmetry_Int_Tables_number	1
_symmetry_cell_setting	triclinic
loop_
_symmetry_equiv_pos_as_xyz
  x,y,z
_cell_length_a	14.044220
_cell_length_b	10.654550
_cell_length_c	9.130313
_cell_angle_alpha	89.997153
_cell_angle_beta	90.001107
_cell_angle_gamma	88.836904
loop_
_atom_site_label
_atom_site_type_symbol
_atom_site_fract_x
_atom_site_fract_y
_atom_site_fract_z
O1	O	-1.259698	-0.302983	0.121643
O2	O	-0.759698	0.197017	0.621643
O3	O	-0.983657	-0.292050	0.121680
O4	O	-0.483657	0.207950	0.621680
O5	O	-1.128024	-0.115415	0.121651
O6	O	-0.628024	0.384585	0.621651
O7	O	-1.115330	-0.479618	0.121672
O8	O	-0.615330	0.020382	0.621672
O9	O	-1.128013	-0.115414	-0.121947
O10	O	-0.628013	0.384586	0.378053
O11	O	-0.983646	-0.292049	-0.121919
O12	O	-0.483646	0.207951	0.378081
O13	O	-1.259687	-0.302982	-0.121956
O14	O	-0.759687	0.197018	0.378044
Cu15	Cu	-1.121665	-0.297515	-0.144180
Cu16	Cu	-0.621665	0.202485	0.355820
Cu17	Cu	-1.121678	-0.297517	0.143904
Cu18	Cu	-0.621678	0.202483	0.643904
O19	O	-1.115319	-0.479617	-0.121927
O20	O	-0.615319	0.020383	0.378073
C21	C	-1.127086	-0.068523	-0.000147
C22	C	-0.627086	0.431477	0.499853
C23	C	-1.124298	0.071201	-0.000144
C24	C	-0.624298	0.571201	0.499856
C25	C	-0.948305	-0.287263	-0.000115
C26	C	-0.448305	0.212737	0.499885
C27	C	-0.842986	-0.272988	-0.000101
C28	C	-0.342986	0.227012	0.499899
C29	C	-1.295038	-0.307769	-0.000158
C30	C	-0.795038	0.192231	0.499842
C31	C	-1.400358	-0.322044	-0.000162
C32	C	-0.900358	0.177956	0.499838
C33	C	-0.650153	-0.246889	-0.000131
C34	C	-0.150153	0.253111	0.499869
C35	C	-0.593185	-0.348137	-0.000132
C36	C	-0.093185	0.151863	0.499868
C37	C	-0.485886	-0.333615	-0.000149
C38	C	0.014114	0.166385	0.499851
C39	C	-0.757462	-0.261409	-0.000114
C40	C	-0.257462	0.238591	0.499886
C41	C	-1.116257	-0.526509	-0.000126
C42	C	-0.616257	-0.026509	0.499874
C43	C	-1.119045	-0.666233	-0.000119
C44	C	-0.619045	-0.166233	0.499881
N45	N	-1.121663	-0.297514	-0.346803
N46	N	-0.621663	0.202486	0.153197
C47	C	-1.209299	0.142144	-0.000155
C48	C	-0.709299	0.642144	0.499845
C49	C	-1.206673	0.273429	-0.000137
C50	C	-0.706673	0.773429	0.499863
C51	C	-1.034038	0.262814	-0.000103
C52	C	-0.534038	0.762814	0.499897
C53	C	-1.036665	0.131532	-0.000111
C54	C	-0.536665	0.631532	0.499889
C55	C	-1.179693	-0.380228	-0.423453
C56	C	-0.679693	0.119772	0.076547
C57	C	-1.179708	-0.380222	-0.576790
C58	C	-0.679708	0.119778	-0.076790
C59	C	-1.063656	-0.214786	-0.576812
C60	C	-0.563656	0.285214	-0.076812
C61	C	-1.063646	-0.214786	-0.423478
C62	C	-0.563646	0.285214	0.076522
N63	N	-1.121688	-0.297508	0.346527
N64	N	-0.621688	0.202492	0.846527
H65	H	-0.624998	-0.445725	-0.000119
H66	H	-0.124998	0.054275	0.499881
O67	O	-1.298355	0.349946	-0.000170
O68	O	-0.798355	0.849946	0.499830
H69	H	-1.340266	0.327275	0.099094
H70	H	-0.840266	0.827275	0.599094
H71	H	-1.226962	-0.447575	-0.639191
H72	H	-0.726962	0.052425	-0.139191
H73	H	-0.967442	0.073767	-0.000098
H74	H	-0.467442	0.573767	0.499902
H75	H	-0.618342	-0.149310	-0.000145
H76	H	-0.118342	0.350690	0.499855
H77	H	-1.226934	-0.447590	-0.361028
H78	H	-0.726934	0.052410	0.138972
O79	O	-1.001071	-0.125572	-0.659510
O80	O	-0.501071	0.374428	-0.159510
H81	H	-1.010817	-0.139477	-0.779011
H82	H	-0.510817	0.360523	-0.279011
H83	H	-1.280656	0.093027	-0.000179
H84	H	-0.780656	0.593027	0.499821
O85	O	-1.001051	-0.125575	-0.340788
O86	O	-0.501051	0.374425	0.159212
H87	H	-0.960698	-0.068064	-0.419863
H88	H	-0.460698	0.431936	0.080137
H89	H	-0.962690	0.311952	-0.000079
H90	H	-0.462690	0.811952	0.499921
