data_functionalizedCrystal
_audit_creation_method	'MofGen! by Chris Wilmer'
_symmetry_space_group_name_H-M	'P1'
_symmetry_Int_Tables_number	1
_symmetry_cell_setting	triclinic
loop_
_symmetry_equiv_pos_as_xyz
  x,y,z
_cell_length_a	12.827893
_cell_length_b	18.101395
_cell_length_c	18.101389
_cell_angle_alpha	90.020787
_cell_angle_beta	90.015068
_cell_angle_gamma	90.031075
loop_
_atom_site_label
_atom_site_type_symbol
_atom_site_fract_x
_atom_site_fract_y
_atom_site_fract_z
Zn1	Zn	1.597512	-0.294879	0.418702
Zn2	Zn	1.597371	-0.418713	0.294864
Zn3	Zn	1.422766	-0.294890	0.294879
Zn4	Zn	1.422691	-0.418683	0.418669
O5	O	1.510085	-0.356791	0.356779
O6	O	1.743729	-0.311314	0.402283
O7	O	1.574182	-0.402305	0.191233
O8	O	1.446037	-0.191256	0.311325
O9	O	1.743626	-0.402294	0.311300
O10	O	1.574422	-0.191248	0.402297
O11	O	1.445901	-0.311333	0.191244
O12	O	1.276520	-0.311303	0.311292
O13	O	1.445909	-0.402243	0.522306
O14	O	1.276465	-0.402254	0.402240
O15	O	1.574349	-0.311285	0.522331
O16	O	1.574109	-0.522342	0.311267
O17	O	1.445772	-0.522320	0.402225
C18	C	1.238575	-0.356777	0.356765
C19	C	1.122422	-0.356789	0.356776
C20	C	1.070638	-0.401864	0.401710
C21	C	0.950587	-0.401877	0.401723
C22	C	1.509945	-0.549202	0.356757
C23	C	1.509981	-0.631516	0.356772
C24	C	1.510210	-0.930607	0.356812
C25	C	1.429652	-0.899299	0.414183
C26	C	1.429269	-0.813681	0.414004
C27	C	1.510097	-0.782224	0.356793
C28	C	1.480285	-0.813367	0.278744
C29	C	1.479766	-0.899012	0.279088
C30	C	1.620757	-0.898953	0.376803
C31	C	1.620107	-0.813302	0.378515
C32	C	1.510034	-0.698365	0.356778
C33	C	1.510270	-1.014466	0.356823
C34	C	1.782655	-0.356806	0.356793
C35	C	1.898808	-0.356813	0.356800
C36	C	1.510136	-0.356759	0.549941
C37	C	1.510158	-0.356746	0.632255
C38	C	1.510254	-0.163629	0.356817
C39	C	1.510326	-0.081315	0.356833
C40	C	1.510094	-0.356770	0.164368
C41	C	1.510275	-0.356575	0.082055
C42	C	1.510197	-0.356688	0.782963
C43	C	1.429399	-0.413905	0.814301
C44	C	1.429105	-0.413704	0.899920
C45	C	1.510236	-0.356633	0.931346
C46	C	1.480762	-0.278538	0.900262
C47	C	1.480154	-0.278901	0.814617
C48	C	1.620681	-0.376871	0.814529
C49	C	1.620111	-0.378561	0.900179
C50	C	1.510259	-0.356596	1.015206
C51	C	1.510171	-0.356719	0.699104
H52	H	1.447920	-0.792623	0.471876
H53	H	1.348210	-0.920884	0.401108
C54	C	1.657477	-0.928065	0.452381
C55	C	1.681216	-0.873533	0.515506
C56	C	1.717921	-0.902646	0.591087
C57	C	1.730887	-0.986289	0.603543
C58	C	1.707148	-1.040825	0.540416
C59	C	1.670443	-1.011713	0.464835
H60	H	1.671618	-0.811611	0.506287
H61	H	1.735494	-0.862274	0.637817
H62	H	1.758059	-1.007840	0.659492
H63	H	1.716746	-1.102748	0.549635
H64	H	1.652870	-1.052085	0.418105
C65	C	1.705447	-0.784401	0.326133
C66	C	1.725531	-0.700780	0.319573
C67	C	1.810849	-0.671892	0.267161
C68	C	1.876082	-0.726626	0.221310
C69	C	1.856000	-0.810253	0.227869
C70	C	1.770682	-0.839141	0.280280
H71	H	1.677240	-0.660257	0.353516
H72	H	1.825715	-0.609986	0.262306
H73	H	1.939239	-0.705242	0.182512
H74	H	1.904291	-0.850775	0.193926
H75	H	1.755816	-0.901047	0.285135
C76	C	1.702003	-0.320581	0.787142
C77	C	1.763975	-0.273920	0.843149
C78	C	1.845284	-0.217627	0.815754
C79	C	1.864621	-0.207995	0.732353
C80	C	1.802648	-0.254657	0.676341
C81	C	1.721339	-0.310950	0.703736
H82	H	1.749661	-0.281049	0.904892
H83	H	1.891160	-0.183084	0.857219
H84	H	1.924811	-0.166323	0.712074
H85	H	1.816961	-0.247529	0.614598
H86	H	1.675463	-0.345493	0.662271
H87	H	1.683513	-0.339934	0.921574
C88	C	1.701846	-0.926302	0.320360
C89	C	1.689140	-0.907389	0.237913
C90	C	1.770219	-0.934742	0.181467
C91	C	1.864005	-0.981007	0.207470
C92	C	1.876716	-0.999923	0.289922
C93	C	1.795637	-0.972570	0.346367
H94	H	1.619710	-0.873138	0.218660
H95	H	1.760809	-0.920739	0.120431
H96	H	1.924025	-1.001255	0.165686
H97	H	1.946146	-1.034174	0.309174
H98	H	1.805047	-0.986573	0.407403
C99	C	1.454038	-0.491944	0.928225
C100	C	1.374822	-0.533282	0.976976
C101	C	1.399792	-0.611536	1.005232
C102	C	1.503978	-0.648451	0.984737
C103	C	1.583201	-0.607112	0.935983
C104	C	1.558231	-0.528859	0.907727
H105	H	1.297691	-0.505956	0.992150
H106	H	1.341146	-0.642137	1.041322
H107	H	1.522463	-0.706379	1.005653
H108	H	1.660332	-0.634439	0.920809
H109	H	1.616878	-0.498257	0.871637
C110	C	1.130801	-0.453987	0.453672
C111	C	1.205814	-0.512027	0.421425
C112	C	1.265976	-0.564150	0.473388
C113	C	1.251125	-0.558234	0.557599
C114	C	1.176108	-0.500191	0.589850
C115	C	1.115947	-0.448068	0.537887
H116	H	1.216811	-0.516409	0.359083
H117	H	1.321508	-0.607117	0.449513
H118	H	1.295660	-0.596818	0.596065
H119	H	1.165111	-0.495809	0.652192
H120	H	1.060414	-0.405101	0.561762
C121	C	1.062260	-0.304665	0.304815
C122	C	1.077215	-0.220473	0.310994
C123	C	1.017056	-0.168348	0.259031
C124	C	0.941943	-0.200413	0.200890
C125	C	0.926985	-0.284609	0.194708
C126	C	0.987143	-0.336735	0.246671
H127	H	1.132822	-0.196732	0.354036
H128	H	1.028130	-0.106020	0.263607
H129	H	0.897410	-0.161827	0.162424
H130	H	0.871378	-0.308350	0.151666
H131	H	0.976070	-0.399063	0.242095
H132	H	1.347249	-0.400310	0.920409
H133	H	1.448117	-0.919853	0.472243
C134	C	1.318576	-0.786080	0.396112
C135	C	1.230254	-0.841970	0.381938
C136	C	1.119557	-0.814370	0.364044
C137	C	1.097181	-0.730881	0.360323
C138	C	1.185506	-0.674986	0.374498
C139	C	1.296204	-0.702586	0.392392
H140	H	1.246815	-0.903778	0.384692
H141	H	1.054173	-0.855747	0.353551
H142	H	1.015237	-0.710450	0.347077
H143	H	1.168945	-0.613178	0.371744
H144	H	1.361587	-0.661209	0.402884
C145	C	1.650494	-0.785795	0.456107
C146	C	1.575800	-0.735351	0.499562
C147	C	1.606186	-0.707837	0.577153
C148	C	1.711265	-0.730766	0.611289
C149	C	1.785965	-0.781213	0.567833
C150	C	1.755580	-0.808727	0.490242
H151	H	1.498009	-0.718374	0.474292
H152	H	1.550887	-0.670493	0.609321
H153	H	1.733758	-0.710399	0.668726
H154	H	1.863757	-0.798189	0.593103
H155	H	1.810879	-0.846071	0.458074
H156	H	1.647574	-0.432869	0.792928
C157	C	0.890435	-0.454015	0.453697
C158	C	0.770390	-0.453953	0.453636
C159	C	0.710235	-0.506092	0.505612
C160	C	0.770126	-0.558293	0.557649
C161	C	0.890178	-0.558356	0.557712
C162	C	0.950333	-0.506217	0.505736
H163	H	0.726049	-0.415310	0.415114
H164	H	0.621364	-0.506045	0.505565
H165	H	0.725596	-0.596889	0.596125
H166	H	0.934519	-0.596999	0.596235
H167	H	1.039204	-0.506264	0.505784
H168	H	1.642341	-0.436036	0.920493
C169	C	1.370598	-0.926093	0.256217
C170	C	1.284499	-0.869789	0.237767
C171	C	1.175328	-0.896865	0.214898
C172	C	1.152256	-0.980245	0.210478
C173	C	1.238358	-1.036554	0.228928
C174	C	1.347529	-1.009478	0.251798
H175	H	1.301576	-0.808061	0.241038
H176	H	1.111590	-0.855181	0.201239
H177	H	1.071441	-1.000289	0.193549
H178	H	1.221281	-1.098282	0.225657
H179	H	1.411266	-1.051162	0.265456
C180	C	1.555568	-0.927005	0.219363
C181	C	1.537981	-0.906219	0.137822
C182	C	1.613770	-0.934211	0.078092
C183	C	1.707146	-0.982988	0.099903
C184	C	1.724737	-1.003777	0.181448
C185	C	1.648948	-0.975786	0.241178
H186	H	1.468855	-0.870108	0.121672
H187	H	1.600748	-0.918821	0.017727
H188	H	1.763250	-1.003710	0.055688
H189	H	1.793863	-1.039888	0.197598
H190	H	1.661971	-0.991175	0.301543
H191	H	1.447568	-0.472003	0.793706
H192	H	0.943335	-0.318223	0.318325
C193	C	1.319423	-0.396045	0.785246
C194	C	1.302737	-0.329791	0.733238
C195	C	1.192761	-0.311925	0.704187
C196	C	1.099471	-0.360313	0.727144
C197	C	1.116154	-0.426571	0.779155
C198	C	1.226130	-0.444437	0.808206
H199	H	1.371799	-0.293967	0.716241
H200	H	1.180412	-0.262876	0.665684
H201	H	1.018060	-0.347087	0.705638
H202	H	1.047092	-0.462395	0.796152
H203	H	1.238479	-0.493486	0.846709
H204	H	1.536466	-0.234801	0.793886
C205	C	1.371068	-0.255835	0.787627
C206	C	1.358169	-0.186741	0.738874
C207	C	1.249081	-0.163676	0.711889
C208	C	1.152891	-0.209705	0.733656
C209	C	1.165787	-0.278804	0.782412
C210	C	1.274875	-0.301869	0.809397
H211	H	1.429378	-0.152663	0.722758
H212	H	1.239535	-0.112524	0.675797
H213	H	1.072137	-0.192631	0.713680
H214	H	1.094578	-0.312882	0.798528
H215	H	1.284421	-0.353021	0.845489
C216	C	1.557836	-0.219344	0.927762
C217	C	1.622341	-0.174386	0.871856
C218	C	1.699416	-0.115193	0.899357
C219	C	1.711986	-0.100959	0.982764
C220	C	1.647479	-0.145919	1.038676
C221	C	1.570404	-0.205111	1.011174
H222	H	1.613038	-0.184921	0.810108
H223	H	1.747169	-0.081911	0.857967
H224	H	1.769042	-0.057141	1.003122
H225	H	1.656782	-0.135383	1.100423
H226	H	1.522651	-0.238393	1.052564
H227	H	1.400332	-0.791980	0.261506
C228	C	1.372887	-0.255045	0.929232
C229	C	1.311451	-0.306580	0.981051
C230	C	1.203573	-0.283092	1.010018
C231	C	1.157131	-0.208070	0.987167
C232	C	1.218568	-0.156530	0.935345
C233	C	1.326446	-0.180018	0.906377
H234	H	1.345829	-0.362121	0.997969
H235	H	1.158093	-0.321246	1.048380
H236	H	1.077273	-0.190683	1.008610
H237	H	1.184189	-0.100989	0.918426
H238	H	1.371925	-0.141864	0.868015
H239	H	1.537115	-0.792992	0.234833
