data_functionalizedCrystal
_audit_creation_method	'MofGen! by Chris Wilmer'
_symmetry_space_group_name_H-M	'P1'
_symmetry_Int_Tables_number	1
_symmetry_cell_setting	triclinic
loop_
_symmetry_equiv_pos_as_xyz
  x,y,z
_cell_length_a	18.215407
_cell_length_b	12.594516
_cell_length_c	18.215399
_cell_angle_alpha	90.023782
_cell_angle_beta	90.017368
_cell_angle_gamma	90.009259
loop_
_atom_site_label
_atom_site_type_symbol
_atom_site_fract_x
_atom_site_fract_y
_atom_site_fract_z
Zn1	Zn	1.125139	-0.423826	0.416089
Zn2	Zn	1.625139	0.076174	0.916089
Zn3	Zn	1.125075	-0.601823	0.293031
Zn4	Zn	1.625075	-0.101823	0.793031
Zn5	Zn	1.002071	-0.423851	0.293041
Zn6	Zn	1.502071	0.076149	0.793041
Zn7	Zn	1.002065	-0.601755	0.416062
Zn8	Zn	1.502065	-0.101755	0.916062
O9	O	1.063588	-0.512814	0.354556
O10	O	1.563588	-0.012814	0.854556
O11	O	1.228115	-0.447455	0.399772
O12	O	1.728115	0.052545	0.899772
O13	O	1.108734	-0.578254	0.190048
O14	O	1.608734	-0.078254	0.690048
O15	O	1.018426	-0.274902	0.309379
O16	O	1.518426	0.225098	0.809379
O17	O	1.228068	-0.578229	0.309362
O18	O	1.728068	-0.078229	0.809362
O19	O	1.108843	-0.274883	0.399782
O20	O	1.608843	0.225117	0.899782
O21	O	1.018364	-0.447499	0.190056
O22	O	1.518364	0.052501	0.690056
O23	O	0.899086	-0.447432	0.309353
O24	O	1.399086	0.052568	0.809353
O25	O	1.018415	-0.578113	0.519050
O26	O	1.518415	-0.078113	1.019050
O27	O	0.899082	-0.578137	0.399736
O28	O	1.399082	-0.078137	0.899736
O29	O	1.108837	-0.447389	0.519069
O30	O	1.608837	0.052611	1.019069
O31	O	1.108729	-0.750760	0.309336
O32	O	1.608729	-0.250760	0.809336
O33	O	1.018354	-0.750709	0.399726
O34	O	1.518354	-0.250709	0.899726
C35	C	0.872381	-0.512781	0.354543
C36	C	1.372381	-0.012781	0.854543
C37	C	0.790583	-0.512793	0.354555
C38	C	1.290583	-0.012793	0.854555
C39	C	0.602412	-0.444839	0.401706
C40	C	1.102412	0.055161	0.901706
C41	C	0.525553	-0.444848	0.401708
C42	C	1.025553	0.055152	0.901708
C43	C	0.525515	-0.580818	0.307419
C44	C	1.025515	-0.080818	0.807419
C45	C	0.602373	-0.580803	0.307413
C46	C	1.102373	-0.080803	0.807413
C47	C	0.640819	-0.512815	0.354561
C48	C	1.140819	-0.012815	0.854561
C49	C	0.487103	-0.512839	0.354569
C50	C	0.987103	-0.012839	0.854569
C51	C	0.403769	-0.512850	0.354571
C52	C	0.903769	-0.012850	0.854571
C53	C	0.724158	-0.512803	0.354558
C54	C	1.224158	-0.012803	0.854558
C55	C	1.063554	-0.789355	0.354543
C56	C	1.563554	-0.289355	0.854543
C57	C	1.063606	-0.907660	0.354562
C58	C	1.563606	-0.407660	0.854562
C59	C	1.112818	-0.976902	0.305452
C60	C	1.612818	-0.476902	0.805452
C61	C	1.130801	-1.047606	0.372622
C62	C	1.630801	-0.547606	0.872622
C63	C	1.045716	-1.047754	0.287435
C64	C	1.545716	-0.547754	0.787435
C65	C	1.081623	-0.976806	0.421768
C66	C	1.581623	-0.476806	0.921768
C67	C	0.996507	-0.976948	0.336535
C68	C	1.496507	-0.476948	0.836535
C69	C	1.014464	-1.047621	0.403752
C70	C	1.514464	-0.547621	0.903752
C71	C	1.255541	-0.512847	0.354569
C72	C	1.755541	-0.012847	0.854569
C73	C	1.337339	-0.512862	0.354575
C74	C	1.837339	-0.012862	0.854575
C75	C	1.063632	-0.512740	0.546509
C76	C	1.563632	-0.012740	1.046509
C77	C	1.063652	-0.512709	0.628308
C78	C	1.563652	-0.012709	1.128308
C79	C	1.063642	-0.235193	0.354585
C80	C	1.563642	0.264807	0.854585
C81	C	1.063665	-0.116887	0.354597
C82	C	1.563665	0.383113	0.854597
C83	C	1.063585	-0.512810	0.163350
C84	C	1.563585	-0.012810	0.663350
C85	C	1.063709	-0.512541	0.081551
C86	C	1.563709	-0.012541	0.581551
C87	C	1.110751	-0.444578	0.816513
C88	C	1.610751	0.055422	1.316513
C89	C	1.110760	-0.444546	0.893372
C90	C	1.610760	0.055454	1.393372
C91	C	1.016604	-0.580676	0.893340
C92	C	1.516604	-0.080676	1.393340
C93	C	1.016592	-0.580701	0.816483
C94	C	1.516592	-0.080701	1.316483
C95	C	1.063670	-0.512653	0.778071
C96	C	1.563670	-0.012653	1.278071
C97	C	1.063691	-0.512597	0.931788
C98	C	1.563691	-0.012597	1.431788
C99	C	1.063700	-0.512564	1.015121
C100	C	1.563700	-0.012564	1.515121
C101	C	1.063660	-0.512685	0.694732
C102	C	1.563660	-0.012685	1.194732
H103	H	1.154442	-0.945849	0.263958
H104	H	1.654442	-0.445849	0.763958
H105	H	1.096723	-0.945775	0.478600
H106	H	1.596723	-0.445775	0.978600
O107	O	1.156448	-0.378568	0.779086
O108	O	1.656448	0.121432	1.279086
C109	C	1.198121	-0.318213	0.660699
C110	C	1.698121	0.181787	1.160699
C111	C	1.146346	-0.393047	0.702990
C112	C	1.646346	0.106953	1.202990
H113	H	1.189960	-0.329877	0.599168
H114	H	1.689960	0.170123	1.099168
H115	H	1.257479	-0.336898	0.675761
H116	H	1.757479	0.163102	1.175761
H117	H	1.185215	-0.232396	0.675867
H118	H	1.685215	0.267604	1.175867
H119	H	1.159186	-0.478889	0.687845
H120	H	1.659186	0.021111	1.187845
H121	H	1.087003	-0.374271	0.687925
H122	H	1.587003	0.125729	1.187925
H123	H	0.939753	-0.945885	0.321248
H124	H	1.439753	-0.445885	0.821248
H125	H	1.030559	-1.078918	0.230651
H126	H	1.530559	-0.578918	0.730651
O127	O	1.198569	-1.084596	0.390716
O128	O	1.698569	-0.584596	0.890716
C129	C	1.327030	-1.090479	0.359431
C130	C	1.827030	-0.590479	0.859431
C131	C	1.250321	-1.048544	0.338853
C132	C	1.750321	-0.548544	0.838853
H133	H	1.368895	-1.061329	0.317519
H134	H	1.868895	-0.561329	0.817519
H135	H	1.326310	-1.180991	0.359761
H136	H	1.826310	-0.680991	0.859761
H137	H	1.342681	-1.060101	0.416285
H138	H	1.842681	-0.560101	0.916285
H139	H	1.234623	-1.078844	0.281994
H140	H	1.734623	-0.578844	0.781994
H141	H	1.251083	-0.958034	0.338572
H142	H	1.751083	-0.458034	0.838572
O143	O	0.964854	-1.084620	0.453314
O144	O	1.464854	-0.584620	0.953314
C145	C	0.908813	-1.238326	0.508632
C146	C	1.408813	-0.738326	1.008632
C147	C	0.965003	-1.196566	0.452463
C148	C	1.465003	-0.696566	0.952463
H149	H	0.908927	-1.328838	0.507974
H150	H	1.408927	-0.828838	1.007974
H151	H	0.851733	-1.208089	0.493744
H152	H	1.351733	-0.708089	0.993744
H153	H	0.924221	-1.208955	0.565805
H154	H	1.424221	-0.708955	1.065805
H155	H	0.949665	-1.225919	0.395271
H156	H	1.449665	-0.725919	0.895271
H157	H	1.022069	-1.226794	0.467415
H158	H	1.522069	-0.726794	0.967415
H159	H	0.978248	-0.636135	0.785182
H160	H	1.478248	-0.136135	1.285182
O161	O	0.639793	-0.378944	0.447576
O162	O	1.139793	0.121056	0.947576
C163	C	0.726637	-0.364779	0.546917
C164	C	1.226637	0.135221	1.046917
C165	C	0.684339	-0.439530	0.495027
C166	C	1.184339	0.060470	0.995027
H167	H	0.762674	-0.413732	0.585283
H168	H	1.262674	0.086268	1.085283
H169	H	0.686015	-0.316213	0.580666
H170	H	1.186015	0.183787	1.080666
H171	H	0.762576	-0.309037	0.513174
H172	H	1.262576	0.190963	1.013174
H173	H	0.648399	-0.495337	0.528712
H174	H	1.148399	0.004663	1.028712
H175	H	0.725001	-0.488022	0.461275
H176	H	1.225001	0.011978	0.961275
H177	H	1.149097	-0.389111	0.924668
H178	H	1.649097	0.110889	1.424668
H179	H	0.494285	-0.389493	0.440097
H180	H	0.994285	0.110507	0.940097
O181	O	0.970948	-0.646745	0.930768
O182	O	1.470948	-0.146745	1.430768
C183	C	0.929207	-0.706994	1.049157
C184	C	1.429207	-0.206994	1.549157
C185	C	0.980961	-0.632132	1.006864
C186	C	1.480961	-0.132132	1.506864
H187	H	0.937273	-0.695190	1.110687
H188	H	1.437273	-0.195190	1.610687
H189	H	0.942114	-0.792850	1.034090
H190	H	1.442114	-0.292850	1.534090
H191	H	0.869874	-0.688311	1.033995
H192	H	1.369874	-0.188311	1.533995
H193	H	1.040311	-0.650719	1.022002
H194	H	1.540311	-0.150719	1.522002
H195	H	0.967991	-0.546299	1.021934
H196	H	1.467991	-0.046299	1.521934
H197	H	0.494203	-0.636173	0.269034
H198	H	0.994203	-0.136173	0.769034
H199	H	0.633645	-0.636159	0.269019
H200	H	1.133645	-0.136159	0.769019
