data_functionalizedCrystal
_audit_creation_method	'MofGen! by Chris Wilmer'
_symmetry_space_group_name_H-M	'P1'
_symmetry_Int_Tables_number	1
_symmetry_cell_setting	triclinic
loop_
_symmetry_equiv_pos_as_xyz
  x,y,z
_cell_length_a	17.077404
_cell_length_b	12.759400
_cell_length_c	12.759393
_cell_angle_alpha	89.969553
_cell_angle_beta	89.979548
_cell_angle_gamma	90.011136
loop_
_atom_site_label
_atom_site_type_symbol
_atom_site_fract_x
_atom_site_fract_y
_atom_site_fract_z
Zn1	Zn	1.200124	-0.418261	-0.594044
Zn2	Zn	1.200048	-0.593980	-0.418368
Zn3	Zn	1.068851	-0.418309	-0.418378
Zn4	Zn	1.068846	-0.593892	-0.594003
O5	O	1.134467	-0.506111	-0.506198
O6	O	1.309961	-0.441587	-0.570753
O7	O	1.182615	-0.570734	-0.271348
O8	O	1.086298	-0.271282	-0.441702
O9	O	1.309905	-0.570687	-0.441685
O10	O	1.182744	-0.271247	-0.570763
O11	O	1.086225	-0.441669	-0.271355
O12	O	0.959003	-0.441585	-0.441662
O13	O	1.086290	-0.570538	-0.741030
O14	O	0.959000	-0.570585	-0.570693
O15	O	1.182739	-0.441502	-0.741060
O16	O	1.182610	-0.740989	-0.441645
O17	O	1.086217	-0.740925	-0.570684
C18	C	0.930519	-0.506081	-0.506175
C19	C	0.843270	-0.506094	-0.506190
C20	C	0.802309	-0.438991	-0.573498
C21	C	0.720329	-0.438998	-0.573503
C22	C	0.679310	-0.506113	-0.506204
C23	C	0.720276	-0.573219	-0.438888
C24	C	0.802255	-0.573206	-0.438878
C25	C	0.549406	-0.573243	-0.438914
C26	C	0.467422	-0.573257	-0.438924
C27	C	0.467480	-0.439034	-0.573539
C28	C	0.549459	-0.439021	-0.573529
C29	C	0.590419	-0.506129	-0.506214
C30	C	1.134426	-0.779078	-0.506182
C31	C	1.134480	-0.895855	-0.506210
C32	C	1.184674	-0.950619	-0.573467
C33	C	1.184711	-1.060343	-0.573493
C34	C	1.084357	-1.060529	-0.438995
C35	C	1.084317	-0.950807	-0.438975
C36	C	1.234838	-0.895666	-0.640702
C37	C	1.285036	-0.950430	-0.707964
C38	C	1.285073	-1.060154	-0.707989
C39	C	1.234911	-1.115114	-0.640753
C40	C	1.339211	-0.506141	-0.506223
C41	C	1.426461	-0.506155	-0.506233
C42	C	1.134522	-0.506005	-0.780232
C43	C	1.134546	-0.505960	-0.897008
C44	C	1.134530	-0.232078	-0.506238
C45	C	1.134557	-0.115301	-0.506255
C46	C	1.184774	-0.438764	-0.951888
C47	C	1.184792	-0.438726	-1.061612
C48	C	1.084353	-0.573088	-1.061568
C49	C	1.084331	-0.573120	-0.951846
C50	C	1.234989	-0.371604	-0.897051
C51	C	1.285222	-0.304404	-0.951930
C52	C	1.285240	-0.304366	-1.061655
C53	C	1.235026	-0.371528	-1.116499
C54	C	1.134458	-0.506141	-0.233231
C55	C	1.134586	-0.505890	-0.116455
H56	H	0.582854	-0.384376	-0.628336
Cl57	Cl	1.348391	-0.219892	-1.130643
Cl58	Cl	1.021234	-0.657518	-1.130516
Cl59	Cl	1.021302	-1.129623	-0.354474
Cl60	Cl	1.348085	-0.881339	-0.792496
H61	H	1.043444	-0.906218	-0.384209
H62	H	1.234935	-1.204459	-0.640791
H63	H	1.043418	-0.627820	-0.907162
H64	H	0.582754	-0.627886	-0.384096
Cl65	Cl	0.668710	-0.657588	-0.354277
Cl66	Cl	0.668839	-0.354639	-0.658127
H67	H	1.325941	-1.104740	-0.762765
H68	H	0.835604	-0.627847	-0.384068
H69	H	1.235036	-0.371480	-1.205844
H70	H	0.434126	-0.384391	-0.628347
Cl71	Cl	1.234775	-0.757728	-0.640701
H72	H	0.434027	-0.627910	-0.384124
Cl73	Cl	1.234971	-0.371651	-0.759112
H74	H	0.835700	-0.384340	-0.628304
Cl75	Cl	1.348332	-0.219961	-0.882985
