data_functionalizedCrystal
_audit_creation_method	'MofGen! by Chris Wilmer'
_symmetry_space_group_name_H-M	'P1'
_symmetry_Int_Tables_number	1
_symmetry_cell_setting	triclinic
loop_
_symmetry_equiv_pos_as_xyz
  x,y,z
_cell_length_a	10.489741
_cell_length_b	15.944551
_cell_length_c	9.565339
_cell_angle_alpha	89.999279
_cell_angle_beta	89.999100
_cell_angle_gamma	84.018956
loop_
_atom_site_label
_atom_site_type_symbol
_atom_site_fract_x
_atom_site_fract_y
_atom_site_fract_z
O1	O	1.692410	0.118501	-0.116177
O2	O	1.321060	0.129624	-0.116199
O3	O	1.516876	0.001849	-0.116175
O4	O	1.496594	0.246276	-0.116201
O5	O	1.516860	0.001857	0.116345
O6	O	1.321045	0.129632	0.116321
O7	O	1.692395	0.118509	0.116343
Zn8	Zn	1.506717	0.124072	0.153250
Zn9	Zn	1.506738	0.124061	-0.153106
O10	O	1.496579	0.246284	0.116319
C11	C	1.273532	0.128788	0.000058
C12	C	1.131938	0.126275	0.000050
C13	C	1.064925	0.044975	0.000072
C14	C	0.972273	0.083376	-0.114573
C15	C	0.972292	0.083403	0.114673
C16	C	1.041151	0.164709	-0.114690
C17	C	1.041179	0.164725	0.114659
C18	C	0.948554	0.203186	-0.000014
C19	C	1.516026	-0.029446	0.000085
C20	C	1.513502	-0.122708	0.000086
C21	C	1.386093	-0.338330	0.000059
C22	C	1.445250	-0.398988	0.114709
C23	C	1.508935	-0.293461	0.000075
C24	C	1.445294	-0.398979	-0.114537
C25	C	1.504515	-0.458400	0.000058
C26	C	1.568126	-0.352890	0.114820
C27	C	1.568153	-0.352875	-0.114530
C28	C	1.627399	-0.413515	0.000148
C29	C	1.511478	-0.198443	0.000086
C30	C	1.501982	-0.553417	0.000058
C31	C	1.739922	0.119345	0.000083
C32	C	1.881517	0.121858	0.000082
C33	C	1.497429	0.277579	0.000056
C34	C	1.499953	0.370841	0.000046
N35	N	1.506713	0.124078	0.362329
N36	N	1.506752	0.124048	-0.362185
C37	C	1.416127	0.183150	0.453521
C38	C	1.531388	0.200146	0.546705
C39	C	1.391501	0.107089	0.546701
C40	C	1.622032	0.141112	0.453461
C41	C	1.482069	0.048022	0.453449
C42	C	1.597414	0.064986	0.546591
H43	H	1.071742	0.199100	0.211583
H44	H	1.393286	-0.419405	0.211631
H45	H	1.620033	-0.332584	0.211854
H46	H	1.674119	0.015015	0.587199
C47	C	1.333064	-0.056408	0.445072
C48	C	1.453846	-0.038759	0.398089
H49	H	1.315630	-0.109980	0.410884
H50	H	1.332097	-0.056904	0.544360
H51	H	1.269549	-0.014313	0.411812
H52	H	1.517363	-0.080850	0.431358
H53	H	1.454824	-0.038270	0.298781
H54	H	1.620072	-0.332436	-0.211456
C55	C	1.261725	0.087144	0.748359
C56	C	1.259951	0.087702	0.601987
H57	H	1.180505	0.075186	0.782483
H58	H	1.325982	0.045114	0.780215
H59	H	1.279869	0.140762	0.781645
H60	H	1.241815	0.034082	0.568700
H61	H	1.195673	0.129735	0.570118
H62	H	1.729454	-0.446060	0.000219
H63	H	1.115541	-0.021859	-0.000064
C64	C	0.990364	-0.045906	-0.245193
C65	C	0.931041	0.036936	-0.245406
H66	H	0.964905	-0.074579	-0.325956
H67	H	1.080772	-0.045087	-0.245716
H68	H	0.965627	-0.074238	-0.163771
H69	H	0.955786	0.065270	-0.326824
H70	H	0.840613	0.036121	-0.244896
H71	H	1.393327	-0.419372	-0.211472
H72	H	1.071509	0.199079	-0.211724
C73	C	0.869650	-0.032998	0.204881
C74	C	0.931106	0.036956	0.245522
H75	H	0.844234	-0.061679	0.285658
H76	H	0.796189	-0.014694	0.150555
H77	H	0.926859	-0.070072	0.150885
H78	H	0.873893	0.074033	0.299510
H79	H	1.004577	0.018652	0.299871
H80	H	0.898203	0.270090	-0.000084
C81	C	1.338963	0.330227	0.445411
C82	C	1.312813	0.250646	0.398332
H83	H	1.275190	0.371896	0.411328
H84	H	1.338770	0.331016	0.544700
H85	H	1.420660	0.341745	0.412110
H86	H	1.231119	0.239126	0.431642
H87	H	1.312993	0.249856	0.299022
H88	H	1.284128	-0.305636	0.000168
C89	C	1.671634	0.277807	0.682535
C90	C	1.559562	0.286952	0.602026
H91	H	1.689020	0.331399	0.716679
H92	H	1.660621	0.241287	0.759056
H93	H	1.741271	0.254544	0.626460
H94	H	1.489923	0.310208	0.658104
H95	H	1.570567	0.323485	0.525494
C96	C	1.752333	0.160576	0.252037
C97	C	1.753581	0.160670	0.398417
H98	H	1.833532	0.172677	0.218058
H99	H	1.734749	0.106729	0.219312
H100	H	1.687883	0.202271	0.219471
H101	H	1.818025	0.118971	0.430984
H102	H	1.771180	0.214524	0.431156
