data_functionalizedCrystal
_audit_creation_method	'MofGen! by Chris Wilmer'
_symmetry_space_group_name_H-M	'P1'
_symmetry_Int_Tables_number	1
_symmetry_cell_setting	triclinic
loop_
_symmetry_equiv_pos_as_xyz
  x,y,z
_cell_length_a	12.837943
_cell_length_b	10.654550
_cell_length_c	9.130313
_cell_angle_alpha	90.004369
_cell_angle_beta	89.997453
_cell_angle_gamma	90.343065
loop_
_atom_site_label
_atom_site_type_symbol
_atom_site_fract_x
_atom_site_fract_y
_atom_site_fract_z
O1	O	1.377802	-0.326751	-0.121780
O2	O	1.075880	-0.310610	-0.121787
O3	O	1.233782	-0.136698	-0.121774
O4	O	1.219899	-0.500662	-0.121793
O5	O	1.233772	-0.136691	0.121825
O6	O	1.075869	-0.310603	0.121812
O7	O	1.377791	-0.326744	0.121819
Cu8	Cu	1.226829	-0.318673	0.144058
Cu9	Cu	1.226842	-0.318681	-0.144026
O10	O	1.219888	-0.500655	0.121806
C11	C	1.037215	-0.305153	0.000012
C12	C	0.922021	-0.288891	0.000009
C13	C	1.232758	-0.089786	0.000025
C14	C	1.229708	0.049990	0.000022
C15	C	1.416456	-0.332200	0.000017
C16	C	1.531650	-0.348462	0.000010
C17	C	1.771203	-0.152958	0.000035
C18	C	1.879438	-0.168232	0.000029
C19	C	1.856359	-0.394284	0.000001
C20	C	1.748123	-0.379009	0.000007
C21	C	1.705549	-0.258343	0.000023
C22	C	1.597312	-0.243070	0.000019
C23	C	1.574234	-0.469120	0.000001
C24	C	1.682470	-0.484394	-0.000006
C25	C	1.220913	-0.547568	0.000004
C26	C	1.223963	-0.687344	-0.000003
N27	N	1.226827	-0.318667	0.346681
C28	C	1.322678	0.119331	0.000024
C29	C	1.319806	0.250665	0.000006
C30	C	1.130985	0.243307	-0.000009
C31	C	1.133858	0.111975	-0.000002
N32	N	1.226851	-0.318677	-0.346648
C33	C	1.296770	-0.241698	0.423338
C34	C	1.296780	-0.241699	0.576675
C35	C	1.156901	-0.395650	0.576683
C36	C	1.156887	-0.395641	0.423349
H37	H	1.562650	-0.144817	0.000025
F38	F	1.727792	-0.612810	-0.000022
F39	F	1.082436	-0.477561	0.341758
H40	H	1.395513	0.307116	0.000004
H41	H	1.520767	-0.554932	-0.000010
H42	H	1.400725	0.068867	0.000040
F43	F	1.371205	-0.159772	0.341748
H44	H	1.052948	0.293791	-0.000026
F45	F	1.725890	-0.024538	0.000043
F46	F	1.949308	-0.056067	0.000047
F47	F	1.082471	-0.477571	0.658289
H48	H	1.891042	-0.492525	0.000002
F49	F	1.034901	0.038173	-0.000014
F50	F	1.371221	-0.159775	0.658255
