data_functionalizedCrystal
_audit_creation_method	'MofGen! by Chris Wilmer'
_symmetry_space_group_name_H-M	'P1'
_symmetry_Int_Tables_number	1
_symmetry_cell_setting	triclinic
loop_
_symmetry_equiv_pos_as_xyz
  x,y,z
_cell_length_a	31.640172
_cell_length_b	31.640172
_cell_length_c	14.809374
_cell_angle_alpha	67.418065
_cell_angle_beta	89.995465
_cell_angle_gamma	59.994337
loop_
_atom_site_label
_atom_site_type_symbol
_atom_site_fract_x
_atom_site_fract_y
_atom_site_fract_z
Zr1	Zr	0.412727	0.451489	-0.108120
O2	O	0.352000	0.526147	-0.239472
O3	O	0.431345	0.367455	-0.067833
O4	O	0.440181	0.437958	-0.239449
O5	O	0.336192	0.469588	0.067494
O6	O	0.509737	0.437950	-0.239455
O7	O	0.343164	0.455644	-0.067856
O8	O	0.493931	0.311833	0.067535
O9	O	0.351999	0.595705	-0.239495
O10	O	0.491192	0.405487	-0.050680
O11	O	0.434080	0.415898	0.050334
O12	O	0.444483	0.498907	-0.151721
O13	O	0.387371	0.509318	-0.050707
Zr14	Zr	0.512543	0.473716	0.107739
Zr15	Zr	0.523662	0.451477	-0.108129
Zr16	Zr	0.401608	0.473728	0.107748
Zr17	Zr	0.412724	0.562426	-0.108157
Zr18	Zr	0.512545	0.362779	0.107776
O19	O	0.493925	0.557750	0.067452
O20	O	0.509735	0.526130	-0.239484
O21	O	0.336190	0.557768	0.067465
O22	O	0.573269	0.399058	0.239091
O23	O	0.589079	0.367437	-0.067846
O24	O	0.415535	0.399076	0.239103
O25	O	0.589077	0.455617	-0.067875
O26	O	0.485089	0.487247	0.239068
O27	O	0.415533	0.487255	0.239074
O28	O	0.582105	0.469561	0.067475
O29	O	0.440177	0.595695	-0.239502
O30	O	0.485093	0.329510	0.239121
O31	O	0.573271	0.329500	0.239114
O32	O	0.582109	0.311824	0.067528
O33	O	0.343160	0.613382	-0.067909
O34	O	0.431339	0.613372	-0.067915
O35	O	0.480786	0.426299	0.151340
O36	O	0.537898	0.415887	0.050326
O37	O	0.491190	0.509307	-0.050715
O38	O	0.434077	0.519719	0.050299
C39	C	0.462638	0.323838	-0.000144
C40	C	0.462639	0.276743	-0.000128
C41	C	0.323873	0.462618	-0.000180
C42	C	0.276778	0.462623	-0.000176
C43	C	0.428157	0.015381	-0.074784
C44	C	0.428155	-0.161603	-0.074812
O45	O	0.398845	-0.158430	-0.138263
N46	N	0.462634	-0.214376	-0.000236
C47	C	0.497118	-0.222903	0.074348
O48	O	0.526447	-0.271851	0.137773
C49	C	0.497122	-0.045920	0.074371
C50	C	0.462638	0.006854	-0.000204
C51	C	0.393676	0.068152	-0.149354
C52	C	0.393675	0.112396	-0.149343
C53	C	0.428156	0.103868	-0.074762
C54	C	0.462637	0.051097	-0.000193
C55	C	0.531608	-0.054448	0.148951
C56	C	0.531607	-0.010197	0.148948
C57	C	0.497123	0.042577	0.074373
C58	C	0.497117	0.086813	0.074399
N59	N	0.462638	0.139586	-0.000177
C60	C	0.428157	0.148114	-0.074758
C61	C	0.497112	-0.315819	0.074332
C62	C	0.497111	-0.360065	0.074328
C63	C	0.428148	-0.298762	-0.074834
C64	C	0.428148	-0.254515	-0.074824
C65	C	0.462633	-0.263046	-0.000244
C66	C	0.428158	0.241026	-0.074729
C67	C	0.428159	0.285270	-0.074709
C68	C	0.497123	0.223963	0.074449
C69	C	0.497120	0.179722	0.074433
C70	C	0.462636	0.188257	-0.000165
O71	O	0.526414	0.083680	0.137810
O72	O	0.398839	0.197064	-0.138186
C73	C	0.428158	-0.028862	-0.074795
C74	C	0.462639	-0.081633	-0.000225
C75	C	0.497120	-0.090161	0.074355
C76	C	0.462638	-0.125879	-0.000230
C77	C	0.428157	-0.117351	-0.074810
C78	C	0.393679	-0.064578	-0.149386
C79	C	0.393678	-0.020334	-0.149375
C80	C	0.531599	-0.142934	0.148931
C81	C	0.531596	-0.187175	0.148915
C82	C	0.497116	-0.178647	0.074334
C83	C	-0.011386	0.454910	-0.074754
C84	C	-0.188372	0.454902	-0.074761
O85	O	-0.207980	0.448345	-0.138152
N86	N	-0.214344	0.462585	-0.000197
C87	C	-0.196064	0.470267	0.074379
O88	O	-0.222213	0.476796	0.137806
C89	C	-0.019077	0.470271	0.074389
C90	C	0.006890	0.462593	-0.000186
C91	C	0.014581	0.447233	-0.149323
C92	C	0.058823	0.447238	-0.149323
C93	C	0.077099	0.454921	-0.074755
C94	C	0.051132	0.462598	-0.000187
C95	C	-0.000797	0.477949	0.148968
C96	C	0.043454	0.477948	0.148966
C97	C	0.069421	0.470270	0.074390
C98	C	0.113650	0.470286	0.074381
N99	N	0.139621	0.462604	-0.000184
C100	C	0.121346	0.454921	-0.074752
C101	C	-0.288985	0.470265	0.074367
C102	C	-0.333233	0.470265	0.074363
C103	C	-0.325537	0.454899	-0.074776
C104	C	-0.281291	0.454903	-0.074776
C105	C	-0.263014	0.462582	-0.000198
C106	C	0.214257	0.454932	-0.074748
C107	C	0.258502	0.454940	-0.074744
C108	C	0.250804	0.470303	0.074398
C109	C	0.206562	0.470298	0.074392
C110	C	0.188291	0.462610	-0.000186
O111	O	0.133290	0.476834	0.137745
O112	O	0.147507	0.448381	-0.138157
C113	C	-0.055629	0.454905	-0.074753
C114	C	-0.081595	0.462583	-0.000185
C115	C	-0.063319	0.470266	0.074383
C116	C	-0.125842	0.462583	-0.000188
C117	C	-0.144118	0.454900	-0.074756
C118	C	-0.118147	0.447217	-0.149321
C119	C	-0.073904	0.447222	-0.149321
C120	C	-0.089291	0.477949	0.148948
C121	C	-0.133533	0.477944	0.148942
C122	C	-0.151809	0.470261	0.074373
C123	C	0.601397	0.462587	-0.000201
C124	C	0.648492	0.462582	-0.000205
C125	C	0.476543	0.434785	-0.270208
C126	C	0.481263	0.425345	-0.361850
C127	C	0.462631	0.601367	-0.000237
C128	C	0.462630	0.648463	-0.000252
C129	C	0.460197	0.467478	-0.452830
C130	C	0.465075	0.457721	-0.547547
C131	C	0.448727	0.490420	0.269827
C132	C	0.444006	0.499861	0.361469
C133	C	0.601400	0.323823	-0.000155
C134	C	0.648496	0.276722	-0.000143
C135	C	0.448730	0.351655	0.269874
C136	C	0.444011	0.314001	0.361531
C137	C	0.587492	0.351640	0.269863
C138	C	0.629868	0.313980	0.361516
C139	C	0.337777	0.573565	-0.270244
C140	C	0.295402	0.611225	-0.361897
C141	C	0.323869	0.601383	-0.000226
C142	C	0.276773	0.648483	-0.000238
C143	C	0.476540	0.573550	-0.270255
C144	C	0.481259	0.611205	-0.361912
C145	C	0.646233	0.249173	-0.052871
C146	C	0.690482	0.204921	-0.052880
C147	C	0.736992	0.188216	-0.000154
C148	C	0.739254	0.215770	0.052575
C149	C	0.695007	0.260023	0.052577
C150	C	0.466174	0.301748	0.457308
C151	C	0.461738	0.266374	0.543438
C152	C	0.435140	0.243252	0.533789
C153	C	0.412974	0.255508	0.438002
C154	C	0.417408	0.290884	0.351874
C155	C	0.679584	0.290860	0.351830
C156	C	0.719405	0.255480	0.437940
C157	C	0.709508	0.243218	0.533736
C158	C	0.659787	0.266342	0.543421
C159	C	0.619967	0.301725	0.457312
C160	C	0.245685	0.634351	-0.352210
C161	C	0.205864	0.669745	-0.438321
C162	C	0.215761	0.682009	-0.534117
C163	C	0.265483	0.658882	-0.543802
C164	C	0.305303	0.623492	-0.457692
C165	C	0.279037	0.676036	0.052481
C166	C	0.234790	0.720298	0.052466
C167	C	0.188279	0.737004	-0.000262
C168	C	0.186017	0.709449	-0.052988
C169	C	0.230264	0.665190	-0.052978
C170	C	0.507860	0.634317	-0.352231
C171	C	0.512304	0.669692	-0.438344
C172	C	0.490143	0.681958	-0.534138
C173	C	0.463541	0.658842	-0.543817
C174	C	0.459101	0.623464	-0.457705
H175	H	0.400074	0.328242	-0.135435
F176	F	0.430426	0.205602	0.625464
F177	F	0.784081	0.141116	-0.000165
H178	H	0.486725	0.414423	-0.539771
F179	F	0.509562	0.368753	-0.351689
F180	F	0.688063	0.175603	-0.109000
H181	H	0.525906	0.624336	-0.274239
F182	F	0.415713	0.556456	-0.648701
F183	F	0.430783	0.598874	-0.468023
H184	H	0.265690	0.476561	0.135108
H185	H	0.533964	0.688510	-0.430444
F186	F	0.276008	0.671938	-0.645763
F187	F	0.391456	0.250116	-0.154124
H188	H	0.493763	0.710766	-0.604248
F189	F	0.567055	0.326325	0.467637
H190	H	0.365599	0.155362	-0.210077
H191	H	0.345784	0.604662	-0.465592
H192	H	0.438553	0.510773	-0.460599
H193	H	0.525195	0.217029	0.135173
F194	F	0.439955	0.671905	-0.645776
H195	H	0.316903	0.662438	0.095425
F196	F	0.152951	0.694351	-0.427992
F197	F	-0.028424	0.486120	0.228342
H198	H	0.759888	0.236655	0.430036
H199	H	0.741937	0.214406	0.603843
H200	H	0.236641	0.742726	0.095405
H201	H	0.777129	0.202162	0.095502
H202	H	0.608367	0.262772	-0.095818
F203	F	0.235141	0.621304	-0.250265
F204	F	0.356974	0.077239	-0.228739
F205	F	0.391446	-0.198352	-0.154197
F206	F	0.568299	-0.152019	0.228316
F207	F	0.697422	0.289336	0.108707
H208	H	0.183333	0.710826	-0.604224
F209	F	0.391452	-0.289693	-0.154209
H210	H	0.152255	0.773043	-0.000262
F211	F	0.494486	0.326349	0.467599
F212	F	0.393819	0.303918	0.249944
H213	H	0.525186	-0.403032	0.135064
F214	F	0.649261	0.253287	0.645382
H215	H	0.479791	0.256400	0.621423
H216	H	0.148142	0.723058	-0.095918
F217	F	0.227847	0.635868	-0.109086
F218	F	0.690128	0.303906	0.249884
H219	H	-0.354376	0.476525	0.135080
F220	F	0.384669	0.230894	0.427749
F221	F	-0.069846	0.486126	0.228317
H222	H	0.559690	-0.097412	0.209677
F223	F	0.533817	-0.324908	0.153720
H224	H	0.559691	-0.017149	0.209682
H225	H	0.365596	0.022633	-0.210101
F226	F	0.533819	0.123556	0.153810
H227	H	0.559677	-0.230144	0.209652
F228	F	0.356980	-0.055509	-0.228757
H229	H	0.199387	0.448671	-0.135474
F230	F	0.286135	0.446770	-0.154122
H231	H	0.079964	0.440983	-0.210046
H232	H	-0.154675	0.484201	0.209669
H233	H	-0.000294	0.440974	-0.210045
H234	H	-0.340425	0.448645	-0.135494
F235	F	-0.253659	0.446731	-0.154148
H236	H	0.058333	0.484200	0.209699
F237	F	-0.269539	0.478440	0.153745
H238	H	0.185415	0.476558	0.135109
H239	H	-0.133035	0.440964	-0.210041
F240	F	-0.046273	0.439050	-0.228694
