data_functionalizedCrystal
_audit_creation_method	'MofGen! by Chris Wilmer'
_symmetry_space_group_name_H-M	'P1'
_symmetry_Int_Tables_number	1
_symmetry_cell_setting	triclinic
loop_
_symmetry_equiv_pos_as_xyz
  x,y,z
_cell_length_a	17.077402
_cell_length_b	12.759401
_cell_length_c	12.759386
_cell_angle_alpha	90.041215
_cell_angle_beta	89.934127
_cell_angle_gamma	89.978594
loop_
_atom_site_label
_atom_site_type_symbol
_atom_site_fract_x
_atom_site_fract_y
_atom_site_fract_z
Zn1	Zn	-0.312255	-1.606418	-0.593991
Zn2	Zn	0.187745	-1.106418	-0.093991
Zn3	Zn	-0.443617	-1.606218	-0.418305
Zn4	Zn	0.056383	-1.106218	0.081695
Zn5	Zn	-0.312365	-1.430653	-0.418328
Zn6	Zn	0.187635	-0.930653	0.081672
Zn7	Zn	-0.443478	-1.430682	-0.593944
Zn8	Zn	0.056522	-0.930682	-0.093944
O9	O	-0.377929	-1.518493	-0.506142
O10	O	0.122071	-1.018493	-0.006142
O11	O	-0.329693	-1.753413	-0.570696
O12	O	0.170307	-1.253413	-0.070696
O13	O	-0.426311	-1.582834	-0.271287
O14	O	0.073689	-1.082834	0.228713
O15	O	-0.202503	-1.454040	-0.441659
O16	O	0.297497	-0.954040	0.058341
O17	O	-0.426204	-1.753266	-0.441620
O18	O	0.073796	-1.253266	0.058380
O19	O	-0.202422	-1.583174	-0.570718
O20	O	0.297578	-1.083174	-0.070718
O21	O	-0.329880	-1.453847	-0.271303
O22	O	0.170120	-0.953847	0.228697
O23	O	-0.329745	-1.283636	-0.441613
O24	O	0.170255	-0.783636	0.058387
O25	O	-0.425966	-1.454089	-0.740972
O26	O	0.074034	-0.954089	-0.240972
O27	O	-0.426073	-1.283657	-0.570638
O28	O	0.073927	-0.783657	-0.070638
O29	O	-0.329557	-1.583202	-0.741006
O30	O	0.170443	-1.083202	-0.241006
O31	O	-0.553446	-1.582862	-0.441575
O32	O	-0.053446	-1.082862	0.058425
O33	O	-0.553343	-1.453896	-0.570616
O34	O	-0.053343	-0.953896	-0.070616
C35	C	-0.377906	-1.245526	-0.506124
C36	C	0.122094	-0.745526	-0.006124
C37	C	-0.377916	-1.128749	-0.506141
C38	C	0.122084	-0.628749	-0.006141
C39	C	-0.428152	-1.073925	-0.573212
C40	C	0.071848	-0.573925	-0.073212
C41	C	-0.428159	-0.964201	-0.573222
C42	C	0.071841	-0.464201	-0.073222
C43	C	-0.327690	-0.964134	-0.439080
C44	C	0.172310	-0.464134	0.060920
C45	C	-0.327680	-1.073856	-0.439077
C46	C	0.172320	-0.573856	0.060923
C47	C	-0.478388	-1.128818	-0.640276
C48	C	0.021612	-0.628818	-0.140276
C49	C	-0.528630	-1.073995	-0.707352
C50	C	-0.028630	-0.573995	-0.207352
C51	C	-0.528636	-0.964271	-0.707362
C52	C	-0.028636	-0.464271	-0.207362
C53	C	-0.478401	-0.909370	-0.640296
C54	C	0.021599	-0.409370	-0.140296
C55	C	-0.581877	-1.518389	-0.506111
C56	C	-0.081877	-1.018389	-0.006111
C57	C	-0.669126	-1.518440	-0.506133
C58	C	-0.169126	-1.018440	-0.006133
C59	C	-0.710007	-1.585644	-0.573388
C60	C	-0.210007	-1.085644	-0.073388
C61	C	-0.791987	-1.585688	-0.573410
C62	C	-0.291987	-1.085688	-0.073410
C63	C	-0.833086	-1.518533	-0.506171
C64	C	-0.333086	-1.018533	-0.006171
C65	C	-0.792200	-1.451322	-0.438913
C66	C	-0.292200	-0.951322	0.061087
C67	C	-0.710221	-1.451273	-0.438897
C68	C	-0.210221	-0.951273	0.061103
C69	C	-0.963070	-1.451430	-0.438950
C70	C	-0.463070	-0.951430	0.061050
C71	C	-1.045054	-1.451480	-0.438964
C72	C	-0.545054	-0.951480	0.061036
C73	C	-1.044836	-1.585844	-0.573463
C74	C	-0.544836	-1.085844	-0.073463
C75	C	-0.962857	-1.585796	-0.573447
C76	C	-0.462857	-1.085796	-0.073447
C77	C	-0.921977	-1.518586	-0.506187
C78	C	-0.421977	-1.018586	-0.006187
C79	C	-0.173184	-1.518626	-0.506196
C80	C	0.326816	-1.018626	-0.006196
C81	C	-0.085935	-1.518683	-0.506219
C82	C	0.414065	-1.018683	-0.006219
C83	C	-0.377734	-1.518671	-0.780176
C84	C	0.122266	-1.018671	-0.280176
C85	C	-0.377651	-1.518747	-0.896953
C86	C	0.122349	-1.018747	-0.396953
C87	C	-0.377944	-0.792526	-0.506157
C88	C	0.122056	-0.292526	-0.006157
C89	C	-0.377932	-0.909303	-0.506154
C90	C	0.122068	-0.409303	-0.006154
C91	C	-0.378066	-1.518376	-0.233174
C92	C	0.121934	-1.018376	0.266826
C93	C	-0.377928	-1.518503	-0.116398
C94	C	0.122072	-1.018503	0.383602
C95	C	-0.427696	-1.586210	-0.061475
C96	C	0.072304	-1.086210	0.438525
C97	C	-0.427560	-1.586330	0.048249
C98	C	0.072440	-1.086330	0.548249
C99	C	-0.327881	-1.451033	0.048116
C100	C	0.172119	-0.951033	0.548116
C101	C	-0.328022	-1.450909	-0.061605
C102	C	0.171978	-0.950909	0.438395
C103	C	-0.477603	-1.653804	-0.116268
C104	C	0.022397	-1.153804	0.383732
C105	C	-0.527374	-1.721517	-0.061344
C106	C	-0.027374	-1.221517	0.438656
C107	C	-0.527238	-1.721637	0.048379
C108	C	-0.027238	-1.221637	0.548379
C109	C	-0.477330	-1.654044	0.103180
C110	C	0.022670	-1.154044	0.603180
H111	H	-0.569524	-1.118702	-0.761961
H112	H	-0.069524	-0.618702	-0.261961
Br113	Br	-0.477160	-1.654190	0.252092
Br114	Br	0.022840	-1.154190	0.752092
Br115	Br	-0.259498	-1.148267	-0.348053
Br116	Br	0.240502	-0.648267	0.151947
H117	H	-0.568011	-1.776544	-0.105970
H118	H	-0.068011	-1.276544	0.394030
Br119	Br	-0.260146	-1.359316	0.122488
Br120	Br	0.239854	-0.859316	0.622488
Br121	Br	-0.907589	-1.360216	-0.347667
Br122	Br	-0.407589	-0.860216	0.152333
H123	H	-0.825269	-1.640420	-0.628168
H124	H	-0.325269	-1.140420	-0.128168
H125	H	-0.825668	-1.396639	-0.384170
H126	H	-0.325668	-0.896639	0.115830
H127	H	-0.569540	-0.919636	-0.761986
H128	H	-0.069540	-0.419636	-0.261986
H129	H	-0.567769	-1.776766	0.093095
H130	H	-0.067769	-1.276766	0.593095
Br131	Br	-0.478403	-0.760457	-0.640323
Br132	Br	0.021597	-0.260457	-0.140323
Br133	Br	-0.260462	-1.359042	-0.136151
Br134	Br	0.239538	-0.859042	0.363849
H135	H	-0.286792	-0.919425	-0.384478
H136	H	0.213208	-0.419425	0.115522
Br137	Br	-0.907081	-1.676943	-0.664692
Br138	Br	-0.407081	-1.176943	-0.164692
Br139	Br	-0.478387	-1.277729	-0.640260
Br140	Br	0.021613	-0.777729	-0.140260
H141	H	-0.676936	-1.396548	-0.384132
H142	H	-0.176936	-0.896548	0.115868
Br143	Br	-0.654238	-1.676796	-0.664637
Br144	Br	-0.154238	-1.176796	-0.164637
H145	H	-1.078125	-1.640568	-0.628229
H146	H	-0.578125	-1.140568	-0.128229
H147	H	-1.078514	-1.396792	-0.384217
H148	H	-0.578514	-0.896792	0.115783
H149	H	-0.477718	-1.653716	-0.205610
H150	H	0.022282	-1.153716	0.294390
