data_functionalizedCrystal
_audit_creation_method	'MofGen! by Chris Wilmer'
_symmetry_space_group_name_H-M	'P1'
_symmetry_Int_Tables_number	1
_symmetry_cell_setting	triclinic
loop_
_symmetry_equiv_pos_as_xyz
  x,y,z
_cell_length_a	17.077404
_cell_length_b	18.101395
_cell_length_c	18.101398
_cell_angle_alpha	90.017121
_cell_angle_beta	90.007689
_cell_angle_gamma	90.031329
loop_
_atom_site_label
_atom_site_type_symbol
_atom_site_fract_x
_atom_site_fract_y
_atom_site_fract_z
Zn1	Zn	1.199918	-0.294901	0.418740
Zn2	Zn	1.449918	-0.044901	0.668740
Zn3	Zn	1.699918	0.205099	0.918740
Zn4	Zn	1.949918	0.455099	1.168740
Zn5	Zn	1.199834	-0.418727	0.294901
Zn6	Zn	1.449834	-0.168727	0.544901
Zn7	Zn	1.699834	0.081273	0.794901
Zn8	Zn	1.949834	0.331273	1.044901
Zn9	Zn	1.068677	-0.294904	0.294912
Zn10	Zn	1.318677	-0.044904	0.544912
Zn11	Zn	1.568677	0.205096	0.794912
Zn12	Zn	1.818677	0.455096	1.044912
Zn13	Zn	1.068599	-0.418706	0.418702
Zn14	Zn	1.318599	-0.168706	0.668702
Zn15	Zn	1.568599	0.081294	0.918702
Zn16	Zn	1.818599	0.331294	1.168702
O17	O	1.134257	-0.356809	0.356814
O18	O	1.384257	-0.106809	0.606814
O19	O	1.634257	0.143191	0.856814
O20	O	1.884257	0.393191	1.106814
O21	O	1.309754	-0.311334	0.402323
O22	O	1.559754	-0.061334	0.652323
O23	O	1.809754	0.188666	0.902323
O24	O	2.059754	0.438666	1.152323
O25	O	1.182433	-0.402312	0.191270
O26	O	1.432433	-0.152312	0.441270
O27	O	1.682433	0.097688	0.691270
O28	O	1.932433	0.347688	0.941270
O29	O	1.086155	-0.191271	0.311359
O30	O	1.336155	0.058729	0.561359
O31	O	1.586155	0.308729	0.811359
O32	O	1.836155	0.558729	1.061359
O33	O	1.309692	-0.402309	0.311340
O34	O	1.559692	-0.152309	0.561340
O35	O	1.809692	0.097691	0.811340
O36	O	2.059692	0.347691	1.061340
O37	O	1.182577	-0.191268	0.402334
O38	O	1.432577	0.058732	0.652334
O39	O	1.682577	0.308732	0.902334
O40	O	1.932577	0.558732	1.152334
O41	O	1.086072	-0.311340	0.191278
O42	O	1.336072	-0.061340	0.441278
O43	O	1.586072	0.188660	0.691278
O44	O	1.836072	0.438660	0.941278
O45	O	0.958820	-0.311319	0.311322
O46	O	1.208820	-0.061319	0.561322
O47	O	1.458820	0.188681	0.811322
O48	O	1.708820	0.438681	1.061322
O49	O	1.086022	-0.402272	0.522340
O50	O	1.336022	-0.152272	0.772340
O51	O	1.586022	0.097728	1.022340
O52	O	1.836022	0.347728	1.272340
O53	O	0.958763	-0.402276	0.402270
O54	O	1.208763	-0.152276	0.652270
O55	O	1.458763	0.097724	0.902270
O56	O	1.708763	0.347724	1.152270
O57	O	1.182501	-0.311313	0.522367
O58	O	1.432501	-0.061313	0.772367
O59	O	1.682501	0.188687	1.022367
O60	O	1.932501	0.438687	1.272367
O61	O	1.182357	-0.522357	0.311303
O62	O	1.432357	-0.272357	0.561303
O63	O	1.682357	-0.022357	0.811303
O64	O	1.932357	0.227643	1.061303
O65	O	1.085940	-0.522341	0.402259
O66	O	1.335940	-0.272341	0.652259
O67	O	1.585940	-0.022341	0.902259
O68	O	1.835940	0.227659	1.152259
C69	C	0.930309	-0.356796	0.356793
C70	C	1.180309	-0.106796	0.606793
C71	C	1.430309	0.143204	0.856793
C72	C	1.680309	0.393204	1.106793
C73	C	0.843059	-0.356808	0.356802
C74	C	1.093059	-0.106808	0.606802
C75	C	1.343059	0.143192	0.856802
C76	C	1.593059	0.393192	1.106802
C77	C	0.802060	-0.404240	0.404083
C78	C	1.052060	-0.154240	0.654083
C79	C	1.302060	0.095760	0.904083
C80	C	1.552060	0.345760	1.154083
C81	C	0.720080	-0.404242	0.404094
C82	C	0.970080	-0.154242	0.654094
C83	C	1.220080	0.095758	0.904094
C84	C	1.470080	0.345758	1.154094
C85	C	0.679100	-0.356815	0.356822
C86	C	0.929100	-0.106815	0.606822
C87	C	1.179100	0.143185	0.856822
C88	C	1.429100	0.393185	1.106822
C89	C	0.720105	-0.309377	0.309539
C90	C	0.970105	-0.059377	0.559539
C91	C	1.220105	0.190623	0.809539
C92	C	1.470105	0.440623	1.059539
C93	C	0.802084	-0.309372	0.309532
C94	C	1.052084	-0.059372	0.559532
C95	C	1.302084	0.190628	0.809532
C96	C	1.552084	0.440628	1.059532
C97	C	0.549235	-0.309392	0.309557
C98	C	0.799235	-0.059392	0.559557
C99	C	1.049235	0.190608	0.809557
C100	C	1.299235	0.440608	1.059557
C101	C	0.467250	-0.309397	0.309563
C102	C	0.717250	-0.059397	0.559563
C103	C	0.967250	0.190603	0.809563
C104	C	1.217250	0.440603	1.059563
C105	C	0.467231	-0.404261	0.404120
C106	C	0.717231	-0.154261	0.654120
C107	C	0.967231	0.095739	0.904120
C108	C	1.217231	0.345739	1.154120
C109	C	0.549209	-0.404257	0.404112
C110	C	0.799209	-0.154257	0.654112
C111	C	1.049209	0.095743	0.904112
C112	C	1.299209	0.345743	1.154112
C113	C	0.590209	-0.356820	0.356829
C114	C	0.840209	-0.106820	0.606829
C115	C	1.090209	0.143180	0.856829
C116	C	1.340209	0.393180	1.106829
C117	C	1.134152	-0.549220	0.356792
C118	C	1.384152	-0.299220	0.606792
C119	C	1.634152	-0.049220	0.856792
C120	C	1.884152	0.200780	1.106792
C121	C	1.134179	-0.631534	0.356807
C122	C	1.384179	-0.381534	0.606807
C123	C	1.634179	-0.131534	0.856807
C124	C	1.884179	0.118466	1.106807
C125	C	1.134351	-0.930625	0.356847
C126	C	1.384351	-0.680625	0.606847
C127	C	1.634351	-0.430625	0.856847
C128	C	1.884351	-0.180625	1.106847
C129	C	1.073829	-0.899321	0.414216
C130	C	1.323829	-0.649321	0.664216
C131	C	1.573829	-0.399321	0.914216
C132	C	1.823829	-0.149321	1.164216
C133	C	1.073541	-0.813703	0.414037
C134	C	1.323541	-0.563703	0.664037
C135	C	1.573541	-0.313703	0.914037
C136	C	1.823541	-0.063703	1.164037
C137	C	1.134266	-0.782243	0.356828
C138	C	1.384266	-0.532243	0.606828
C139	C	1.634266	-0.282243	0.856828
C140	C	1.884266	-0.032243	1.106828
C141	C	1.111886	-0.813380	0.278779
C142	C	1.361886	-0.563380	0.528779
C143	C	1.611886	-0.313380	0.778779
C144	C	1.861886	-0.063380	1.028779
C145	C	1.111496	-0.899025	0.279122
C146	C	1.361496	-0.649025	0.529122
C147	C	1.611496	-0.399025	0.779122
C148	C	1.861496	-0.149025	1.029122
C149	C	1.217386	-0.898972	0.376841
C150	C	1.467386	-0.648972	0.626841
C151	C	1.717386	-0.398972	0.876841
C152	C	1.967386	-0.148972	1.126841
C153	C	1.216898	-0.813321	0.378553
C154	C	1.466898	-0.563321	0.628553
C155	C	1.716898	-0.313321	0.878553
C156	C	1.966898	-0.063321	1.128553
C157	C	1.134219	-0.698383	0.356813
C158	C	1.384219	-0.448383	0.606813
C159	C	1.634219	-0.198383	0.856813
C160	C	1.884219	0.051617	1.106813
C161	C	1.134396	-1.014484	0.356858
C162	C	1.384396	-0.764484	0.606858
C163	C	1.634396	-0.514484	0.856858
C164	C	1.884396	-0.264484	1.106858
C165	C	1.339001	-0.356823	0.356835
C166	C	1.589001	-0.106823	0.606835
C167	C	1.839001	0.143177	0.856835
C168	C	2.089001	0.393177	1.106835
C169	C	1.426251	-0.356829	0.356844
C170	C	1.676251	-0.106829	0.606844
C171	C	1.926251	0.143171	0.856844
C172	C	2.176251	0.393171	1.106844
C173	C	1.134262	-0.356790	0.549976
C174	C	1.384262	-0.106790	0.799976
C175	C	1.634262	0.143210	1.049976
C176	C	1.884262	0.393210	1.299976
C177	C	1.134265	-0.356781	0.632290
C178	C	1.384265	-0.106781	0.882290
C179	C	1.634265	0.143219	1.132290
C180	C	1.884265	0.393219	1.382290
C181	C	1.134384	-0.163648	0.356852
C182	C	1.384384	0.086352	0.606852
C183	C	1.634384	0.336352	0.856852
C184	C	1.884384	0.586352	1.106852
C185	C	1.134438	-0.081333	0.356868
C186	C	1.384438	0.168667	0.606868
C187	C	1.634438	0.418667	0.856868
C188	C	1.884438	0.668667	1.106868
C189	C	1.134266	-0.356795	0.782998
C190	C	1.384266	-0.106795	1.032998
C191	C	1.634266	0.143205	1.282998
C192	C	1.884266	0.393205	1.532998
C193	C	1.194965	-0.299569	0.814369
C194	C	1.444965	-0.049569	1.064369
C195	C	1.694965	0.200431	1.314369
C196	C	1.944965	0.450431	1.564369
C197	C	1.195203	-0.299745	0.899988
C198	C	1.445203	-0.049745	1.149988
C199	C	1.695203	0.200255	1.399988
C200	C	1.945203	0.450255	1.649988
C201	C	1.134267	-0.356808	0.931381
C202	C	1.384267	-0.106808	1.181381
C203	C	1.634267	0.143192	1.431381
C204	C	1.884267	0.393192	1.681381
C205	C	1.156400	-0.434912	0.900272
C206	C	1.406400	-0.184912	1.150272
C207	C	1.656400	0.065088	1.400272
C208	C	1.906400	0.315088	1.650272
C209	C	1.156840	-0.434573	0.814628
C210	C	1.406840	-0.184573	1.064628
C211	C	1.656840	0.065427	1.314628
C212	C	1.906840	0.315427	1.564628
C213	C	1.051281	-0.336603	0.814555
C214	C	1.301281	-0.086603	1.064555
C215	C	1.551281	0.163397	1.314555
C216	C	1.801281	0.413397	1.564555
C217	C	1.051727	-0.334889	0.900206
C218	C	1.301727	-0.084889	1.150206
C219	C	1.551727	0.165111	1.400206
C220	C	1.801727	0.415111	1.650206
C221	C	1.134266	-0.356820	1.015240
C222	C	1.384266	-0.106820	1.265240
C223	C	1.634266	0.143180	1.515240
C224	C	1.884266	0.393180	1.765240
C225	C	1.134268	-0.356789	0.699139
C226	C	1.384268	-0.106789	0.949139
C227	C	1.634268	0.143211	1.199139
C228	C	1.884268	0.393211	1.449139
C229	C	1.134252	-0.356838	1.164403
C230	C	1.384252	-0.106838	1.414403
C231	C	1.634252	0.143162	1.664403
C232	C	1.884252	0.393162	1.914403
C233	C	1.134268	-0.356822	1.082089
C234	C	1.384268	-0.106822	1.332089
C235	C	1.634268	0.143178	1.582089
C236	C	1.884268	0.393178	1.832089
H237	H	1.087541	-0.792649	0.471910
H238	H	1.337541	-0.542649	0.721910
H239	H	1.587541	-0.292649	0.971910
H240	H	1.837541	-0.042649	1.221910
Cl241	Cl	1.091529	-0.502670	0.782579
Cl242	Cl	1.341529	-0.252670	1.032579
Cl243	Cl	1.591529	-0.002670	1.282579
Cl244	Cl	1.841529	0.247330	1.532579
H245	H	1.181310	-0.241477	0.793795
H246	H	1.431310	0.008523	1.043795
H247	H	1.681310	0.258523	1.293795
H248	H	1.931310	0.508523	1.543795
H249	H	1.256694	-0.313135	0.920484
H250	H	1.506694	-0.063135	1.170484
H251	H	1.756694	0.186865	1.420484
H252	H	2.006694	0.436865	1.670484
H253	H	1.004107	-0.373514	0.921573
H254	H	1.254107	-0.123514	1.171573
H255	H	1.504107	0.126486	1.421573
H256	H	1.754107	0.376486	1.671573
Cl257	Cl	1.090237	-0.502551	0.931661
Cl258	Cl	1.340237	-0.252551	1.181661
Cl259	Cl	1.590237	-0.002551	1.431661
Cl260	Cl	1.840237	0.247449	1.681661
Cl261	Cl	0.415734	-0.249777	0.250130
Cl262	Cl	0.665734	0.000223	0.500130
Cl263	Cl	0.915734	0.250223	0.750130
Cl264	Cl	1.165734	0.500223	1.000130
H265	H	1.264374	-0.791902	0.339814
H266	H	1.514374	-0.541902	0.589814
H267	H	1.764374	-0.291902	0.839814
H268	H	2.014374	-0.041902	1.089814
Cl269	Cl	0.668588	-0.249749	0.250115
Cl270	Cl	0.918588	0.000251	0.500115
Cl271	Cl	1.168588	0.250251	0.750115
Cl272	Cl	1.418588	0.500251	1.000115
H273	H	1.216374	-0.452302	0.921746
H274	H	1.466374	-0.202302	1.171746
H275	H	1.716374	0.047698	1.421746
H276	H	1.966374	0.297698	1.671746
H277	H	1.233775	-0.792968	0.435993
H278	H	1.483775	-0.542968	0.685993
H279	H	1.733775	-0.292968	0.935993
H280	H	1.983775	-0.042968	1.185993
H281	H	1.217491	-0.451654	0.794658
H282	H	1.467491	-0.201654	1.044658
H283	H	1.717491	0.048346	1.294658
H284	H	1.967491	0.298346	1.544658
H285	H	1.035030	-0.277410	0.920541
H286	H	1.285030	-0.027410	1.170541
H287	H	1.535030	0.222590	1.420541
H288	H	1.785030	0.472590	1.670541
H289	H	1.256106	-0.312792	0.792856
H290	H	1.506106	-0.062792	1.042856
H291	H	1.756106	0.187208	1.292856
H292	H	2.006106	0.437208	1.542856
H293	H	1.181375	-0.241841	0.921023
H294	H	1.431375	0.008159	1.171023
H295	H	1.681375	0.258159	1.421023
H296	H	1.931375	0.508159	1.671023
H297	H	0.835465	-0.270744	0.271035
H298	H	1.085465	-0.020744	0.521035
H299	H	1.335465	0.229256	0.771035
H300	H	1.585465	0.479256	1.021035
Cl301	Cl	0.979383	-0.932661	0.394043
Cl302	Cl	1.229383	-0.682661	0.644043
Cl303	Cl	1.479383	-0.432661	0.894043
Cl304	Cl	1.729383	-0.182661	1.144043
Cl305	Cl	1.020083	-0.250158	0.781231
Cl306	Cl	1.270083	-0.000158	1.031231
Cl307	Cl	1.520083	0.249842	1.281231
Cl308	Cl	1.770083	0.499842	1.531231
H309	H	1.262477	-0.919214	0.335057
H310	H	1.512477	-0.669214	0.585057
H311	H	1.762477	-0.419214	0.835057
H312	H	2.012477	-0.169214	1.085057
H313	H	1.011993	-0.793277	0.400793
H314	H	1.261993	-0.543277	0.650793
H315	H	1.511993	-0.293277	0.900793
H316	H	1.761993	-0.043277	1.150793
H317	H	1.006060	-0.378282	0.794264
H318	H	1.256060	-0.128282	1.044264
H319	H	1.506060	0.121718	1.294264
H320	H	1.756060	0.371718	1.544264
Cl321	Cl	1.095223	-0.931063	0.503860
Cl322	Cl	1.345223	-0.681063	0.753860
Cl323	Cl	1.595223	-0.431063	1.003860
Cl324	Cl	1.845223	-0.181063	1.253860
H325	H	1.237794	-0.920530	0.432785
H326	H	1.487794	-0.670530	0.682785
H327	H	1.737794	-0.420530	0.932785
H328	H	1.987794	-0.170530	1.182785
Cl329	Cl	0.600776	-0.249756	0.250114
Cl330	Cl	0.850776	0.000244	0.500114
Cl331	Cl	1.100776	0.250244	0.750114
Cl332	Cl	1.350776	0.500244	1.000114
H333	H	1.050798	-0.919065	0.262186
H334	H	1.300798	-0.669065	0.512186
H335	H	1.550798	-0.419065	0.762186
H336	H	1.800798	-0.169065	1.012186
H337	H	1.153666	-0.919735	0.234920
H338	H	1.403666	-0.669735	0.484920
H339	H	1.653666	-0.419735	0.734920
H340	H	1.903666	-0.169735	0.984920
H341	H	0.835420	-0.442864	0.442575
H342	H	1.085420	-0.192864	0.692575
H343	H	1.335420	0.057136	0.942575
H344	H	1.585420	0.307136	1.192575
H345	H	0.686701	-0.442867	0.442594
H346	H	0.936701	-0.192867	0.692594
H347	H	1.186701	0.057133	0.942594
H348	H	1.436701	0.307133	1.192594
H349	H	1.154581	-0.793002	0.234869
H350	H	1.404581	-0.543002	0.484869
H351	H	1.654581	-0.293002	0.734869
H352	H	1.904581	-0.043002	0.984869
Cl353	Cl	0.415689	-0.463886	0.463572
Cl354	Cl	0.665689	-0.213886	0.713572
Cl355	Cl	0.915689	0.036114	0.963572
Cl356	Cl	1.165689	0.286114	1.213572
Cl357	Cl	1.019163	-0.780366	0.252160
Cl358	Cl	1.269163	-0.530366	0.502160
Cl359	Cl	1.519163	-0.280366	0.752160
Cl360	Cl	1.769163	-0.030366	1.002160
H361	H	0.582573	-0.442880	0.442602
H362	H	0.832573	-0.192880	0.692602
H363	H	1.082573	0.057120	0.942602
H364	H	1.332573	0.307120	1.192602
