data_functionalizedCrystal
_audit_creation_method	'MofGen! by Chris Wilmer'
_symmetry_space_group_name_H-M	'P1'
_symmetry_Int_Tables_number	1
_symmetry_cell_setting	triclinic
loop_
_symmetry_equiv_pos_as_xyz
  x,y,z
_cell_length_a	12.645330
_cell_length_b	18.215407
_cell_length_c	18.215399
_cell_angle_alpha	89.980167
_cell_angle_beta	90.023030
_cell_angle_gamma	89.981860
loop_
_atom_site_label
_atom_site_type_symbol
_atom_site_fract_x
_atom_site_fract_y
_atom_site_fract_z
Zn1	Zn	-0.422038	-1.125109	0.416141
Zn2	Zn	0.077962	-0.625109	0.916141
Zn3	Zn	-0.599320	-1.125033	0.293085
Zn4	Zn	-0.099320	-0.625033	0.793085
Zn5	Zn	-0.422072	-1.002041	0.293088
Zn6	Zn	0.077928	-0.502041	0.793088
Zn7	Zn	-0.599261	-1.002023	0.416110
Zn8	Zn	-0.099261	-0.502023	0.916110
O9	O	-0.510673	-1.063551	0.354606
O10	O	-0.010673	-0.563551	0.854606
O11	O	-0.445565	-1.228083	0.399829
O12	O	0.054435	-0.728083	0.899829
O13	O	-0.575847	-1.108693	0.190101
O14	O	-0.075847	-0.608693	0.690101
O15	O	-0.273720	-1.018406	0.309426
O16	O	0.226280	-0.518406	0.809426
O17	O	-0.575813	-1.228027	0.309421
O18	O	-0.075813	-0.728027	0.809421
O19	O	-0.273695	-1.108823	0.399832
O20	O	0.226305	-0.608823	0.899832
O21	O	-0.445624	-1.018332	0.190104
O22	O	0.054376	-0.518332	0.690104
O23	O	-0.445566	-0.899055	0.309396
O24	O	0.054434	-0.399055	0.809396
O25	O	-0.575713	-1.018374	0.519099
O26	O	-0.075713	-0.518374	1.019099
O27	O	-0.575746	-0.899041	0.399780
O28	O	-0.075746	-0.399041	0.899780
O29	O	-0.445507	-1.108805	0.519121
O30	O	0.054493	-0.608805	1.019121
O31	O	-0.747659	-1.108675	0.309391
O32	O	-0.247659	-0.608675	0.809391
O33	O	-0.747616	-1.018300	0.399777
O34	O	-0.247616	-0.518300	0.899777
C35	C	-0.786102	-1.063498	0.354596
C36	C	-0.286102	-0.563498	0.854596
C37	C	-0.903932	-1.063542	0.354616
C38	C	-0.403932	-0.563542	0.854616
C39	C	-0.510654	-0.872345	0.354585
C40	C	-0.010654	-0.372345	0.854585
C41	C	-0.510672	-0.790546	0.354594
C42	C	-0.010672	-0.290546	0.854594
C43	C	-0.510600	-1.063596	0.546559
C44	C	-0.010600	-0.563596	1.046559
C45	C	-0.510568	-1.063615	0.628358
C46	C	-0.010568	-0.563615	1.128358
C47	C	-1.071513	-1.006922	0.411653
C48	C	-0.571513	-0.506922	0.911653
C49	C	-0.948954	-1.006632	0.411470
C50	C	-0.448954	-0.506632	0.911470
C51	C	-0.948523	-1.042549	0.277058
C52	C	-0.448523	-0.542549	0.777058
C53	C	-1.071122	-1.042203	0.277404
C54	C	-0.571122	-0.542203	0.777404
C55	C	-1.071022	-1.141502	0.374509
C56	C	-0.571022	-0.641502	0.874509
C57	C	-0.948415	-1.141024	0.376205
C58	C	-0.448415	-0.641024	0.876205
C59	C	-0.234167	-1.063625	0.354633
C60	C	0.265833	-0.563625	0.854633
C61	C	-0.116337	-1.063657	0.354644
C62	C	0.383663	-0.563657	0.854644
C63	C	-0.510692	-1.255504	0.354628
C64	C	-0.010692	-0.755504	0.854628
C65	C	-0.510700	-1.337303	0.354637
C66	C	-0.010700	-0.837303	0.854637
C67	C	-0.578563	-0.602364	0.401597
C68	C	-0.078563	-0.102364	0.901597
C69	C	-0.578567	-0.525506	0.401606
C70	C	-0.078567	-0.025506	0.901606
C71	C	-0.442801	-0.525490	0.307631
C72	C	0.057199	-0.025490	0.807631
C73	C	-0.442793	-0.602348	0.307626
C74	C	0.057207	-0.102348	0.807626
C75	C	-0.510680	-0.640783	0.354608
C76	C	-0.010680	-0.140783	0.854608
C77	C	-0.510692	-0.487067	0.354622
C78	C	-0.010692	0.012933	0.854622
C79	C	-0.510695	-0.403733	0.354632
C80	C	-0.010695	0.096267	0.854632
C81	C	-0.510676	-0.724122	0.354600
C82	C	-0.010676	-0.224122	0.854600
C83	C	-0.510669	-1.063549	0.163400
C84	C	-0.010669	-0.563549	0.663400
C85	C	-0.510401	-1.063672	0.081602
C86	C	-0.010401	-0.563672	0.581602
C87	C	-0.442707	-1.110720	0.816565
C88	C	0.057293	-0.610720	1.316565
C89	C	-0.442676	-1.110728	0.893424
C90	C	0.057324	-0.610728	1.393424
C91	C	-0.578266	-1.016563	0.893389
C92	C	-0.078266	-0.516563	1.393389
C93	C	-0.578290	-1.016551	0.816532
C94	C	-0.078290	-0.516551	1.316532
C95	C	-0.510513	-1.063634	0.778122
C96	C	-0.010513	-0.563634	1.278122
C97	C	-0.510457	-1.063654	0.931838
C98	C	-0.010457	-0.563654	1.431838
C99	C	-0.510424	-1.063663	1.015172
C100	C	-0.010424	-0.563663	1.515172
C101	C	-0.510544	-1.063624	0.694783
C102	C	-0.010544	-0.563624	1.194783
H103	H	-1.100928	-1.019935	0.469351
H104	H	-0.600928	-0.519935	0.969351
O105	O	-0.369605	-1.161496	0.775133
O106	O	0.130395	-0.661496	1.275133
H107	H	-0.286399	-1.148891	0.789886
H108	H	0.213601	-0.648891	1.289886
H109	H	-0.387460	-1.149069	0.924721
H110	H	0.112540	-0.649069	1.424721
H111	H	-0.919362	-1.082562	0.233421
H112	H	-0.419362	-0.582562	0.733421
O113	O	-0.651369	-0.965783	0.934816
O114	O	-0.151369	-0.465783	1.434816
H115	H	-0.639968	-0.973705	0.994719
H116	H	-0.139968	-0.473705	1.494719
O117	O	-0.651396	-0.965742	0.775059
O118	O	-0.151396	-0.465742	1.275059
H119	H	-0.698521	-0.933004	0.814678
H120	H	-0.198521	-0.433004	1.314678
H121	H	-0.633842	-0.494229	0.439871
H122	H	-0.133842	0.005771	0.939871
O123	O	-0.907842	-1.199955	0.325185
O124	O	-0.407842	-0.699955	0.825185
H125	H	-0.820203	-1.201855	0.328035
H126	H	-0.320203	-0.701855	0.828035
H127	H	-0.633839	-0.633656	0.439855
H128	H	-0.133839	-0.133656	0.939855
H129	H	-1.100007	-1.183771	0.332986
H130	H	-0.600007	-0.683771	0.832986
H131	H	-0.387531	-0.494187	0.269379
H132	H	0.112469	0.005813	0.769379
O133	O	-0.369583	-0.643785	0.256930
O134	O	0.130417	-0.143785	0.756930
H135	H	-0.286404	-0.629050	0.269637
H136	H	0.213596	-0.129050	0.769637
O137	O	-0.909036	-1.023984	0.487663
O138	O	-0.409036	-0.523984	0.987663
H139	H	-0.938059	-1.078954	0.504547
H140	H	-0.438059	-0.578954	1.004547
O141	O	-1.112421	-0.930949	0.394444
O142	O	-0.612421	-0.430949	0.894444
H143	H	-1.164538	-0.933422	0.345463
H144	H	-0.664538	-0.433422	0.845463
H145	H	-0.919267	-1.156855	0.433284
H146	H	-0.419267	-0.656855	0.933284
O147	O	-0.910226	-0.930191	0.394019
O148	O	-0.410226	-0.430191	0.894019
H149	H	-0.939797	-0.891358	0.436236
H150	H	-0.439797	-0.391358	0.936236
O151	O	-1.109140	-0.966828	0.255120
O152	O	-0.609140	-0.466828	0.755120
H153	H	-1.039960	-0.930965	0.244202
H154	H	-0.539960	-0.430965	0.744202
H155	H	-1.100776	-1.081734	0.233479
H156	H	-0.600776	-0.581734	0.733479
H157	H	-1.101868	-1.160652	0.430103
H158	H	-0.601868	-0.660652	0.930103
O159	O	-0.907990	-0.967956	0.254358
O160	O	-0.407990	-0.467956	0.754358
H161	H	-0.856102	-0.945715	0.298185
H162	H	-0.356102	-0.445715	0.798185
