data_functionalizedCrystal
_audit_creation_method	'MofGen! by Chris Wilmer'
_symmetry_space_group_name_H-M	'P1'
_symmetry_Int_Tables_number	1
_symmetry_cell_setting	triclinic
loop_
_symmetry_equiv_pos_as_xyz
  x,y,z
_cell_length_a	12.594517
_cell_length_b	12.594516
_cell_length_c	16.959447
_cell_angle_alpha	90.029785
_cell_angle_beta	90.005911
_cell_angle_gamma	90.009410
loop_
_atom_site_label
_atom_site_type_symbol
_atom_site_fract_x
_atom_site_fract_y
_atom_site_fract_z
Zn1	Zn	1.627227	-0.423838	0.446734
Zn2	Zn	1.627143	-0.601845	0.314557
Zn3	Zn	1.449248	-0.423868	0.314591
Zn4	Zn	1.449221	-0.601762	0.446715
O5	O	1.538210	-0.512828	0.380649
O6	O	1.776162	-0.447473	0.429194
O7	O	1.603521	-0.578283	0.203951
O8	O	1.472904	-0.274918	0.332143
O9	O	1.776100	-0.578254	0.332084
O10	O	1.603664	-0.274896	0.429228
O11	O	1.472823	-0.447524	0.203976
O12	O	1.300299	-0.447444	0.332124
O13	O	1.472858	-0.578113	0.557328
O14	O	1.300279	-0.578142	0.429195
O15	O	1.603638	-0.447393	0.557343
O16	O	1.603495	-0.750780	0.332066
O17	O	1.472776	-0.750719	0.429161
C18	C	1.538152	-0.789369	0.380625
C19	C	1.538225	-0.907675	0.380641
C20	C	1.261669	-0.512788	0.380661
C21	C	1.143364	-0.512797	0.380685
C22	C	1.609453	-1.047686	0.327922
C23	C	1.512326	-0.976994	0.308509
C24	C	1.635341	-0.976795	0.400019
C25	C	1.441156	-1.047769	0.361258
C26	C	1.564236	-1.047576	0.452802
C27	C	1.467042	-0.976916	0.433416
C28	C	1.074130	-0.584022	0.433380
C29	C	1.003315	-0.486977	0.452824
C30	C	1.003380	-0.609922	0.361224
C31	C	1.074106	-0.415699	0.400167
C32	C	1.074177	-0.538710	0.308533
C33	C	1.003394	-0.441598	0.327950
C34	C	1.815831	-0.512870	0.380638
C35	C	1.934136	-0.512887	0.380633
C36	C	1.538254	-0.512740	0.586818
C37	C	1.538273	-0.512703	0.674674
C38	C	1.538297	-0.235207	0.380691
C39	C	1.538334	-0.116902	0.380709
C40	C	1.538227	-0.512839	0.175283
C41	C	1.538414	-0.512577	0.087427
C42	C	1.470309	-0.580650	1.046145
C43	C	1.606492	-0.444531	1.046155
C44	C	1.606463	-0.444553	0.963609
C45	C	1.538358	-0.512626	0.922327
C46	C	1.470281	-0.580677	0.963592
C47	C	1.674547	-0.376511	0.922339
C48	C	1.674522	-0.376532	0.839788
C49	C	1.606410	-0.444601	0.798504
C50	C	1.538330	-0.512653	0.839774
C51	C	1.470224	-0.580727	0.798492
C52	C	1.402137	-0.648775	0.839760
C53	C	1.402169	-0.648746	0.922308
C54	C	1.606379	-0.444629	0.715956
C55	C	1.470196	-0.580754	0.715938
H56	H	1.669568	-1.078759	0.283277
F57	F	1.329662	-0.721226	0.795815
H58	H	1.346740	-0.704150	0.955916
F59	F	1.747031	-0.304075	0.966277
F60	F	1.397847	-0.653065	1.090065
F61	F	1.678977	-0.372094	1.090092
H62	H	1.729962	-0.321122	0.806194
F63	F	1.678842	-0.372220	0.672039
H64	H	1.717424	-0.945621	0.416379
F65	F	1.483621	-0.936459	0.228783
H66	H	1.105192	-0.644139	0.477999
H67	H	1.406783	-0.946039	0.478027
H68	H	0.972189	-0.465091	0.513819
H69	H	1.105044	-0.333575	0.416674
H70	H	1.359049	-1.078811	0.344829
H71	H	1.586227	-1.078605	0.513782
H72	H	0.972531	-0.381334	0.283365
F73	F	1.114863	-0.567339	0.228819
H74	H	0.972307	-0.692021	0.344787
H75	H	1.414726	-0.636178	0.682333
