data_functionalizedCrystal
_audit_creation_method	'MofGen! by Chris Wilmer'
_symmetry_space_group_name_H-M	'P1'
_symmetry_Int_Tables_number	1
_symmetry_cell_setting	triclinic
loop_
_symmetry_equiv_pos_as_xyz
  x,y,z
_cell_length_a	17.038272
_cell_length_b	17.038272
_cell_length_c	16.098538
_cell_angle_alpha	87.079695
_cell_angle_beta	87.066048
_cell_angle_gamma	88.888444
loop_
_atom_site_label
_atom_site_type_symbol
_atom_site_fract_x
_atom_site_fract_y
_atom_site_fract_z
O1	O	1.052036	-0.167263	-0.069224
O2	O	0.824225	-0.164554	-0.069233
O3	O	0.936776	-0.052003	-0.069222
O4	O	0.939485	-0.279814	-0.069235
O5	O	0.930200	-0.058550	0.069290
O6	O	0.817648	-0.171101	0.069279
O7	O	1.045459	-0.173810	0.069288
Zn8	Zn	0.930510	-0.173495	0.091275
Zn9	Zn	0.939175	-0.164869	-0.091221
O10	O	0.932908	-0.286361	0.069277
C11	C	0.791644	-0.165365	0.000022
C12	C	0.704361	-0.158017	0.000019
C13	C	0.931025	-0.025984	0.000034
C14	C	0.923677	0.061300	0.000033
C15	C	1.078040	-0.172999	0.000031
C16	C	1.165324	-0.180347	0.000029
C17	C	1.210933	-0.112883	0.000030
C18	C	1.292945	-0.119792	0.000033
C19	C	1.329346	-0.194165	0.000028
C20	C	1.283731	-0.261634	0.000030
C21	C	1.201721	-0.254725	0.000033
C22	C	1.576735	-0.218576	0.000023
C23	C	1.658751	-0.225480	0.000018
C24	C	1.667960	-0.083638	0.000022
C25	C	1.585947	-0.076734	0.000020
C26	C	1.540339	-0.144203	0.000026
C27	C	1.413176	-0.201229	0.000028
C28	C	1.456511	-0.137139	0.000032
C29	C	0.938659	-0.312380	0.000019
C30	C	0.946008	-0.399663	0.000014
N31	N	0.924602	-0.179382	0.215824
C32	C	0.991140	0.106909	0.000037
C33	C	0.984232	0.188921	0.000029
C34	C	0.909859	0.225323	0.000023
C35	C	0.842391	0.179708	0.000017
C36	C	0.849300	0.097697	0.000019
C37	C	0.885449	0.472711	0.000010
C38	C	0.878544	0.554728	0.000011
C39	C	1.020386	0.563936	0.000021
C40	C	1.027289	0.481923	0.000028
C41	C	0.959821	0.436315	0.000018
C42	C	0.902795	0.309152	0.000017
C43	C	0.966886	0.352488	0.000017
N44	N	0.945088	-0.158976	-0.215769
C45	C	0.972393	-0.131630	0.259414
C46	C	0.968268	-0.135756	0.346602
C47	C	0.916355	-0.187639	0.390199
C48	C	0.868559	-0.235392	0.346604
C49	C	0.872680	-0.231262	0.259417
C50	C	0.901413	-0.202599	0.653448
C51	C	0.897297	-0.206728	0.740641
C52	C	0.997006	-0.107090	0.740634
C53	C	1.001126	-0.102967	0.653445
C54	C	0.953327	-0.150718	0.609857
C55	C	0.912139	-0.191859	0.479320
C56	C	0.957539	-0.146493	0.520738
H57	H	1.181302	-0.052321	0.000028
O58	O	1.063364	0.071510	0.000189
C59	C	1.068196	0.020947	0.071916
H60	H	1.023489	0.040678	0.122055
H61	H	1.129857	0.022957	0.095995
H62	H	1.055152	-0.041680	0.055698
H63	H	1.087851	0.452291	0.000033
H64	H	1.426870	-0.076585	0.000026
O65	O	1.448584	-0.273448	-0.000125
C66	C	1.499169	-0.278284	-0.071849
H67	H	1.479442	-0.233593	-0.121989
H68	H	1.497181	-0.339951	-0.095931
H69	H	1.561788	-0.265222	-0.055627
O70	O	1.049844	0.233107	0.000075
C71	C	1.116969	0.183393	0.000067
H72	H	1.099854	0.122345	0.026289
H73	H	1.162660	0.208411	0.040287
H74	H	1.142673	0.179222	-0.066381
O75	O	1.157373	-0.320243	0.000176
C76	C	1.106245	-0.323870	0.071904
H77	H	1.131198	-0.288077	0.122045
H78	H	1.100099	-0.387655	0.095981
H79	H	1.046097	-0.298814	0.055690
O80	O	1.085905	0.608281	-0.000125
C81	C	1.089547	0.659393	-0.071853
H82	H	1.053763	0.634430	-0.121992
H83	H	1.153336	0.665532	-0.095932
H84	H	1.064489	0.719545	-0.055637
O85	O	1.337336	-0.054308	-0.000083
C86	C	1.388438	-0.050662	-0.071832
H87	H	1.397863	-0.112144	-0.095745
H88	H	1.447290	-0.026261	-0.055701
H89	H	1.361484	-0.010635	-0.122066
H90	H	0.817977	0.584362	0.000020
H91	H	0.999804	-0.104247	0.485238
H92	H	0.830511	0.435587	0.000002
H93	H	0.781834	0.209352	0.000007
O94	O	1.693985	-0.297792	0.000053
C95	C	1.636146	-0.355861	0.000038
H96	H	1.577793	-0.331388	0.026268
H97	H	1.654720	-0.409355	0.040249
H98	H	1.629155	-0.373795	-0.066413
O99	O	1.022841	-0.081163	0.217196
C100	C	1.064150	-0.039915	0.274370
H101	H	1.028954	-0.039813	0.336526
H102	H	1.073153	0.023192	0.249190
H103	H	1.123746	-0.069767	0.283627
O104	O	0.783817	0.053302	0.000128
C105	C	0.780150	0.002214	0.071875
H106	H	0.841623	-0.007203	0.095797
H107	H	0.755760	-0.056644	0.055737
H108	H	0.740102	0.029174	0.122104
O109	O	0.818017	-0.285701	0.388916
C110	C	0.740437	-0.266718	0.367616
H111	H	0.737010	-0.202681	0.343659
H112	H	0.698915	-0.275820	0.424961
H113	H	0.722653	-0.306302	0.317006
H114	H	0.869872	-0.234105	0.514824
H115	H	1.027441	0.322847	0.000004
H116	H	0.833763	-0.270145	0.223927
O117	O	0.830599	0.344611	-0.000092
C118	C	0.825761	0.395143	-0.071841
H119	H	0.887438	0.412547	-0.095761
H120	H	0.790131	0.450108	-0.055709
H121	H	0.795802	0.363638	-0.122071
O122	O	1.051443	-0.052309	0.611321
C123	C	1.032306	0.025159	0.632925
H124	H	0.968227	0.028425	0.656787
H125	H	1.041450	0.066885	0.575758
H126	H	1.071766	0.042811	0.683698
O127	O	1.532394	-0.284094	0.000164
C128	C	1.481264	-0.287730	0.071890
H129	H	1.506213	-0.251943	0.122037
H130	H	1.475117	-0.351516	0.095958
H131	H	1.421116	-0.262672	0.055675
O132	O	1.014730	-0.089489	0.389041
C133	C	1.063596	-0.137194	0.439442
H134	H	1.035779	-0.197165	0.452494
H135	H	1.070942	-0.108156	0.500757
H136	H	1.123581	-0.144837	0.405831
O137	O	1.043350	-0.060734	0.783105
C138	C	1.028598	-0.075515	0.869407
H139	H	0.967551	-0.101244	0.881325
H140	H	1.031814	-0.018197	0.902550
H141	H	1.074499	-0.119056	0.894133
H142	H	0.855021	-0.248980	0.776134
O143	O	0.855070	-0.249106	0.611156
C144	C	0.871990	-0.328710	0.632467
H145	H	0.933761	-0.334441	0.656413
H146	H	0.868281	-0.364808	0.575129
H147	H	0.827609	-0.351251	0.683088
O148	O	1.550688	-0.004438	-0.000081
C149	C	1.576919	0.040401	-0.071826
H150	H	1.636287	0.016347	-0.095747
H151	H	1.583178	0.104280	-0.055687
H152	H	1.532505	0.036837	-0.122057
O153	O	1.712353	-0.018155	-0.000088
C154	C	1.763455	-0.014503	-0.071836
H155	H	1.772877	-0.075982	-0.095758
H156	H	1.822309	0.009891	-0.055701
H157	H	1.736503	0.025533	-0.122064
O158	O	1.319133	-0.333856	-0.000120
C159	C	1.369711	-0.338700	-0.071849
H160	H	1.349986	-0.294005	-0.121987
H161	H	1.367710	-0.400366	-0.095929
H162	H	1.432334	-0.325648	-0.055633
