data_functionalizedCrystal
_audit_creation_method	'MofGen! by Chris Wilmer'
_symmetry_space_group_name_H-M	'P1'
_symmetry_Int_Tables_number	1
_symmetry_cell_setting	triclinic
loop_
_symmetry_equiv_pos_as_xyz
  x,y,z
_cell_length_a	25.639239
_cell_length_b	25.639242
_cell_length_c	25.639234
_cell_angle_alpha	90.030783
_cell_angle_beta	89.975095
_cell_angle_gamma	89.966288
loop_
_atom_site_label
_atom_site_type_symbol
_atom_site_fract_x
_atom_site_fract_y
_atom_site_fract_z
Zn1	Zn	-0.208252	-0.799262	-0.295762
Zn2	Zn	-0.295680	-0.799175	-0.208327
Zn3	Zn	-0.208253	-0.711828	-0.208324
Zn4	Zn	-0.295651	-0.711784	-0.295714
O5	O	-0.251959	-0.755512	-0.252032
O6	O	-0.219861	-0.872416	-0.284185
O7	O	-0.284096	-0.787570	-0.135161
O8	O	-0.135088	-0.723481	-0.219942
O9	O	-0.284095	-0.872351	-0.219946
O10	O	-0.135087	-0.787719	-0.284182
O11	O	-0.219863	-0.723396	-0.135159
O12	O	-0.219835	-0.638656	-0.219896
O13	O	-0.284044	-0.723406	-0.368886
O14	O	-0.284045	-0.638624	-0.284101
O15	O	-0.219833	-0.787676	-0.368921
O16	O	-0.368841	-0.787527	-0.219900
O17	O	-0.368820	-0.723321	-0.284103
C18	C	-0.251937	-0.619669	-0.251993
C19	C	-0.251940	-0.561555	-0.251989
C20	C	-0.285444	-0.201184	-0.285418
C21	C	-0.285447	-0.146580	-0.285425
O22	O	-0.313910	-0.118337	-0.313824
N23	N	-0.251968	-0.119273	-0.252050
C24	C	-0.218480	-0.146573	-0.218670
O25	O	-0.190003	-0.118332	-0.190283
C26	C	-0.218475	-0.201176	-0.218666
C27	C	-0.251960	-0.228481	-0.252039
C28	C	-0.318927	-0.228489	-0.318789
C29	C	-0.318924	-0.283089	-0.318781
C30	C	-0.285440	-0.310385	-0.285402
C31	C	-0.251958	-0.283081	-0.252032
C32	C	-0.184984	-0.228475	-0.185289
C33	C	-0.184982	-0.283082	-0.185288
C34	C	-0.218467	-0.310387	-0.218662
C35	C	-0.218471	-0.364978	-0.218645
N36	N	-0.251951	-0.392285	-0.252020
C37	C	-0.285435	-0.364989	-0.285399
C38	C	-0.218492	-0.031902	-0.218681
C39	C	-0.218499	0.022700	-0.218682
C40	C	-0.285466	0.022689	-0.285438
C41	C	-0.285461	-0.031914	-0.285434
C42	C	-0.251971	-0.059209	-0.252056
C43	C	-0.285428	-0.479654	-0.285380
C44	C	-0.285425	-0.534259	-0.285367
C45	C	-0.218456	-0.534244	-0.218614
C46	C	-0.218461	-0.479643	-0.218624
C47	C	-0.251949	-0.452349	-0.252011
O48	O	-0.190021	-0.393256	-0.190262
O49	O	-0.313902	-0.393236	-0.313786
C50	C	-0.387801	-0.755424	-0.252008
C51	C	-0.445916	-0.755434	-0.252015
C52	C	-0.806277	-0.789031	-0.218658
C53	C	-0.860882	-0.789051	-0.218665
O54	O	-0.889117	-0.817526	-0.190277
N55	N	-0.888198	-0.755604	-0.252066
C56	C	-0.860907	-0.722138	-0.285467
O57	O	-0.889156	-0.693690	-0.313878
C58	C	-0.806304	-0.722120	-0.285462
C59	C	-0.778990	-0.755566	-0.252055
C60	C	-0.778964	-0.822475	-0.185254
C61	C	-0.724363	-0.822454	-0.185246
C62	C	-0.697076	-0.788989	-0.218643
C63	C	-0.724390	-0.755545	-0.252047
C64	C	-0.779014	-0.688657	-0.318865
C65	C	-0.724407	-0.688643	-0.318857
C66	C	-0.697094	-0.722089	-0.285450
C67	C	-0.642502	-0.722059	-0.285436
N68	N	-0.615186	-0.755507	-0.252035
C69	C	-0.642473	-0.788972	-0.218638
C70	C	-0.975578	-0.722177	-0.285475
C71	C	-1.030180	-0.722191	-0.285477
C72	C	-1.030151	-0.789106	-0.218676
C73	C	-0.975547	-0.789089	-0.218671
C74	C	-0.948261	-0.755625	-0.252073
C75	C	-0.527808	-0.788925	-0.218625
C76	C	-0.473202	-0.788899	-0.218618
C77	C	-0.473237	-0.721987	-0.285421
C78	C	-0.527837	-0.722010	-0.285426
C79	C	-0.555121	-0.755483	-0.252026
O80	O	-0.614232	-0.693601	-0.313811
O81	O	-0.614218	-0.817419	-0.190236
C82	C	-0.115586	-0.755614	-0.252067
C83	C	-0.057472	-0.755658	-0.252082
C84	C	-0.251935	-0.755546	-0.388405
C85	C	-0.251925	-0.755560	-0.446519
C86	C	-0.251979	0.108115	-0.252065
C87	C	-0.251982	0.050001	-0.252063
C88	C	-0.218417	-0.722160	-0.806887
C89	C	-0.218407	-0.722163	-0.861491
O90	O	-0.189975	-0.693738	-0.889732
N91	N	-0.251843	-0.755578	-0.888802
C92	C	-0.285294	-0.788989	-0.861505
O93	O	-0.313733	-0.817411	-0.889749
C94	C	-0.285306	-0.788983	-0.806902
C95	C	-0.251864	-0.755569	-0.779594
C96	C	-0.184978	-0.688749	-0.779579
C97	C	-0.184987	-0.688747	-0.724978
C98	C	-0.218435	-0.722156	-0.697686
C99	C	-0.251873	-0.755567	-0.724993
C100	C	-0.318759	-0.822390	-0.779606
C101	C	-0.318768	-0.822381	-0.724999
C102	C	-0.285326	-0.788968	-0.697691
C103	C	-0.285329	-0.788974	-0.643100
N104	N	-0.251894	-0.755559	-0.615789
C105	C	-0.218446	-0.722150	-0.643082
C106	C	-0.285267	-0.788998	-0.976176
C107	C	-0.285253	-0.789006	-1.030778
C108	C	-0.218367	-0.722180	-1.030760
C109	C	-0.218379	-0.722174	-0.976157
C110	C	-0.251832	-0.755583	-0.948865
C111	C	-0.218467	-0.722149	-0.528417
C112	C	-0.218478	-0.722151	-0.473812
C113	C	-0.285365	-0.788976	-0.473834
C114	C	-0.285353	-0.788975	-0.528435
C115	C	-0.251902	-0.755558	-0.555725
O116	O	-0.313748	-0.817383	-0.614825
O117	O	-0.190017	-0.693728	-0.614832
C118	C	-0.251945	-0.755508	-0.116189
C119	C	-0.251808	-0.755595	-0.058076
H120	H	-0.312727	-0.054142	-0.312610
C121	C	-0.694325	-0.859243	-0.148491
N122	N	-0.671704	-0.886954	-0.120804
C123	C	-0.181595	-0.685414	-0.946124
N124	N	-0.153888	-0.657722	-0.923505
H125	H	-0.191196	-0.457411	-0.191448
H126	H	-0.346191	-0.305316	-0.345958
C127	C	-0.322271	-0.449639	-0.322103
N128	N	-0.350023	-0.427032	-0.349760
C129	C	-0.181654	-0.061922	-0.181954
N130	N	-0.153909	-0.084530	-0.154291
C131	C	-0.322157	-0.825722	-0.443802
N132	N	-0.349872	-0.853397	-0.421180
C133	C	-0.148141	-0.313104	-0.148567
N134	N	-0.120394	-0.335714	-0.120908
C135	C	-0.181666	-0.685391	-0.558428
N136	N	-0.153945	-0.657708	-0.581032
H137	H	-0.312695	-0.556488	-0.312544
H138	H	-0.346194	-0.206270	-0.345973
C139	C	-0.181689	-0.685391	-0.443776
N140	N	-0.153982	-0.657702	-0.421156
H141	H	-1.052378	-0.816357	-0.191485
C142	C	-0.322037	-0.825768	-1.060810
N143	N	-0.349747	-0.853456	-1.083429
C144	C	-0.808971	-0.859289	-0.148509
N145	N	-0.831568	-0.887017	-0.120826
C146	C	-0.322296	0.052725	-0.322159
N147	N	-0.350034	0.075350	-0.349816
H148	H	-0.346006	-0.849590	-0.702781
C149	C	-0.181666	0.052729	-0.181966
N150	N	-0.153919	0.075344	-0.154313
H151	H	-0.451011	-0.694738	-0.312611
C152	C	-0.181619	-0.564280	-0.181905
N153	N	-0.153868	-0.586905	-0.154261
H154	H	-0.312505	-0.816209	-0.953958
C155	C	-0.181578	-0.685425	-1.060793
N156	N	-0.153871	-0.657742	-1.083415
C157	C	-0.945508	-0.825883	-0.181923
N158	N	-0.922884	-0.853599	-0.154243
H159	H	-0.702193	-0.661393	-0.346059
C160	C	-0.148177	-0.651996	-0.809592
N161	N	-0.120451	-0.624316	-0.832195
H162	H	-0.157718	-0.206253	-0.158111
H163	H	-0.801243	-0.661419	-0.346066
C164	C	-0.443161	-0.825691	-0.181864
N165	N	-0.420535	-0.853402	-0.154180
C166	C	-0.557813	-0.825744	-0.181880
N167	N	-0.580412	-0.853473	-0.154200
C168	C	-0.945568	-0.685364	-0.322224
N169	N	-0.922967	-0.657638	-0.349907
C170	C	-1.060219	-0.685393	-0.322223
N171	N	-1.082842	-0.657677	-0.349903
H172	H	-0.550077	-0.694777	-0.312630
H173	H	-0.157758	-0.661536	-0.702749
C174	C	-0.355551	-0.859145	-0.809632
N175	N	-0.383268	-0.886829	-0.832247
C176	C	-0.322137	-0.825735	-0.558474
N177	N	-0.349848	-0.853419	-0.581096
