data_functionalizedCrystal
_audit_creation_method	'MofGen! by Chris Wilmer'
_symmetry_space_group_name_H-M	'P1'
_symmetry_Int_Tables_number	1
_symmetry_cell_setting	triclinic
loop_
_symmetry_equiv_pos_as_xyz
  x,y,z
_cell_length_a	9.065218
_cell_length_b	12.837942
_cell_length_c	8.140239
_cell_angle_alpha	89.996939
_cell_angle_beta	89.997198
_cell_angle_gamma	89.922413
loop_
_atom_site_label
_atom_site_type_symbol
_atom_site_fract_x
_atom_site_fract_y
_atom_site_fract_z
O1	O	1.978903	0.152196	-0.136617
O2	O	1.551136	0.164680	-0.136619
O3	O	1.755534	0.007446	-0.136608
O4	O	1.774505	0.309430	-0.136628
O5	O	1.755521	0.007444	0.136619
O6	O	1.551123	0.164678	0.136608
O7	O	1.978890	0.152194	0.136610
Zn8	Zn	1.765005	0.158436	0.179990
Zn9	Zn	1.765021	0.158439	-0.179999
O10	O	1.774492	0.309428	0.136599
C11	C	1.495997	0.163479	-0.000006
C12	C	1.331718	0.159892	-0.000007
C13	C	1.749119	-0.031235	0.000004
C14	C	1.730006	-0.146492	0.000002
C15	C	1.959783	-0.385293	-0.000031
C16	C	1.941831	-0.493587	-0.000034
C17	C	1.676152	-0.471377	-0.000019
C18	C	1.694104	-0.363083	-0.000016
C19	C	1.835924	-0.320045	-0.000020
C20	C	1.853874	-0.211748	-0.000005
C21	C	1.588196	-0.189540	-0.000001
C22	C	1.570245	-0.297835	-0.000004
C23	C	2.034029	0.153395	-0.000007
C24	C	2.198308	0.156983	-0.000017
C25	C	1.780907	0.348110	-0.000017
C26	C	1.800020	0.463366	-0.000025
N27	N	1.765004	0.158434	0.425672
N28	N	1.765033	0.158433	-0.425681
H29	H	1.969351	-0.176709	-0.000002
H30	H	2.075258	-0.350251	-0.000019
H31	H	1.560688	-0.506438	-0.000033
C32	C	2.206243	-0.504658	-0.000037
C33	C	2.077980	-0.565309	-0.000037
H34	H	2.290298	-0.548939	-0.000031
H35	H	2.207719	-0.461957	-0.095312
H36	H	2.207707	-0.461958	0.095250
H37	H	2.076511	-0.608004	-0.095331
H38	H	2.076504	-0.608029	0.095247
C39	C	1.338267	-0.312246	-0.140451
C40	C	1.414364	-0.345152	-0.000003
H41	H	1.242035	-0.341463	-0.140450
H42	H	1.331230	-0.238421	-0.140430
H43	H	1.389920	-0.334555	-0.235726
H44	H	1.362717	-0.322836	0.095273
H45	H	1.421394	-0.418993	-0.000009
C46	C	1.497737	-0.013672	0.000000
C47	C	1.452038	-0.117816	-0.000000
H48	H	1.413678	0.030605	-0.000007
H49	H	1.555244	-0.000498	0.095275
H50	H	1.555262	-0.000492	-0.095287
H51	H	1.394521	-0.130998	0.095293
H52	H	1.394506	-0.130996	-0.095285
