data_functionalizedCrystal
_audit_creation_method	'MofGen! by Chris Wilmer'
_symmetry_space_group_name_H-M	'P1'
_symmetry_Int_Tables_number	1
_symmetry_cell_setting	triclinic
loop_
_symmetry_equiv_pos_as_xyz
  x,y,z
_cell_length_a	10.654550
_cell_length_b	10.654543
_cell_length_c	10.268362
_cell_angle_alpha	89.998229
_cell_angle_beta	90.001331
_cell_angle_gamma	95.516448
loop_
_atom_site_label
_atom_site_type_symbol
_atom_site_fract_x
_atom_site_fract_y
_atom_site_fract_z
O1	O	1.667837	-0.176401	0.108192
O2	O	2.001170	0.156933	0.441525
O3	O	2.334504	0.490266	0.774859
O4	O	1.302358	-0.193207	0.108215
O5	O	1.635691	0.140127	0.441548
O6	O	1.969025	0.473460	0.774881
O7	O	1.493505	-0.002064	0.108206
O8	O	1.826838	0.331270	0.441539
O9	O	2.160172	0.664603	0.774872
O10	O	1.476690	-0.367543	0.108201
O11	O	1.810023	-0.034210	0.441534
O12	O	2.143357	0.299123	0.774868
O13	O	1.493488	-0.002056	-0.108395
O14	O	1.826822	0.331278	0.224938
O15	O	2.160155	0.664611	0.558272
O16	O	1.302341	-0.193199	-0.108386
O17	O	1.635675	0.140135	0.224948
O18	O	1.969008	0.473468	0.558281
O19	O	1.667820	-0.176392	-0.108409
O20	O	2.001154	0.156941	0.224925
O21	O	2.334487	0.490274	0.558258
Cu22	Cu	1.485079	-0.184795	-0.128175
Cu23	Cu	1.818413	0.148539	0.205159
Cu24	Cu	2.151746	0.481872	0.538492
Cu25	Cu	1.485099	-0.184804	0.127981
Cu26	Cu	1.818432	0.148529	0.461314
Cu27	Cu	2.151766	0.481862	0.794647
O28	O	1.476673	-0.367535	-0.108400
O29	O	1.810007	-0.034202	0.224934
O30	O	2.143340	0.299131	0.558267
C31	C	1.255552	-0.191969	-0.000082
C32	C	1.588885	0.141365	0.333251
C33	C	1.922218	0.474698	0.666584
C34	C	1.116109	-0.188277	-0.000073
C35	C	1.449442	0.145057	0.333260
C36	C	1.782775	0.478390	0.666593
C37	C	1.492264	0.044738	-0.000091
C38	C	1.825597	0.378072	0.333242
C39	C	2.158930	0.711405	0.666576
C40	C	1.488575	0.184182	-0.000080
C41	C	1.821909	0.517515	0.333253
C42	C	2.155242	0.850849	0.666586
C43	C	1.036620	-0.300819	-0.000078
C44	C	1.369954	0.032515	0.333255
C45	C	1.703287	0.365848	0.666588
C46	C	0.905600	-0.297342	-0.000101
C47	C	1.238933	0.035991	0.333232
C48	C	1.572266	0.369325	0.666566
C49	C	0.933568	-0.068772	-0.000108
C50	C	1.266902	0.264561	0.333225
C51	C	1.600235	0.597895	0.666559
C52	C	1.064586	-0.072250	-0.000095
C53	C	1.397920	0.261084	0.333239
C54	C	1.731253	0.594417	0.666572
C55	C	1.601119	0.263668	-0.000082
C56	C	1.934452	0.597001	0.333251
C57	C	2.267785	0.930334	0.666584
C58	C	1.597645	0.394689	-0.000058
C59	C	1.930979	0.728022	0.333275
C60	C	2.264312	1.061356	0.666608
C61	C	1.369075	0.366726	-0.000036
C62	C	1.702409	0.700059	0.333298
C63	C	2.035742	1.033392	0.666631
C64	C	1.372550	0.235707	-0.000050
C65	C	1.705883	0.569040	0.333283
C66	C	2.039216	0.902374	0.666616
C67	C	1.714627	-0.177630	-0.000109
C68	C	2.047960	0.155703	0.333225
C69	C	2.381293	0.489036	0.666558
C70	C	1.854070	-0.181322	-0.000109
C71	C	2.187403	0.152011	0.333224
C72	C	2.520736	0.485344	0.666557
N73	N	1.485074	-0.184787	-0.308340
N74	N	1.818408	0.148546	0.024993
N75	N	2.151741	0.481879	0.358326
C76	C	1.477921	0.585663	-0.000085
C77	C	1.811254	0.918997	0.333249
C78	C	2.144587	1.252330	0.666582
C79	C	1.481627	0.446222	-0.000041
C80	C	1.814961	0.779555	0.333292
C81	C	2.148294	1.112889	0.666625
C82	C	1.485093	-0.184802	-0.574011
C83	C	1.818426	0.148532	-0.240678
C84	C	2.151759	0.481865	0.092656
C85	C	1.485078	-0.184797	-0.426173
C86	C	1.818412	0.148536	-0.092840
C87	C	2.151745	0.481869	0.240494
N88	N	1.485114	-0.184802	0.308147
N89	N	1.818447	0.148531	0.641480
N90	N	2.151780	0.481865	0.974813
H91	H	1.078565	-0.395295	-0.000071
H92	H	1.411898	-0.061962	0.333262
H93	H	1.745232	0.271372	0.666596
C94	C	1.250214	0.149607	-0.000115
C95	C	1.583547	0.482941	0.333219
C96	C	1.916881	0.816274	0.666552
C97	C	1.147860	0.222770	-0.000131
C98	C	1.481194	0.556103	0.333203
C99	C	1.814527	0.889437	0.666536
C100	C	1.035152	0.143499	-0.000202
C101	C	1.368486	0.476833	0.333132
C102	C	1.701819	0.810166	0.666465
H103	H	1.246652	0.097881	0.075394
H104	H	1.579985	0.431215	0.408727
H105	H	1.913318	0.764548	0.742061
H106	H	1.246744	0.097942	-0.075683
H107	H	1.580077	0.431275	0.257651
H108	H	1.913410	0.764609	0.590984
H109	H	1.151329	0.274413	0.075430
H110	H	1.484662	0.607747	0.408763
H111	H	1.817996	0.941080	0.742096
H112	H	1.151381	0.274493	-0.075634
H113	H	1.484714	0.607827	0.257700
H114	H	1.818048	0.941160	0.591033
H115	H	1.031682	0.091834	-0.075770
H116	H	1.365015	0.425167	0.257564
H117	H	1.698348	0.758501	0.590897
H118	H	1.031603	0.091777	0.075308
H119	H	1.364936	0.425111	0.408642
H120	H	1.698270	0.758444	0.741975
H121	H	0.965692	0.193128	-0.000224
H122	H	1.299025	0.526461	0.333109
H123	H	1.632359	0.859795	0.666442
H124	H	0.840885	-0.388985	-0.000108
H125	H	1.174218	-0.055652	0.333225
H126	H	1.507551	0.277681	0.666559
H127	H	1.274611	0.408694	-0.000014
H128	H	1.607944	0.742027	0.333320
H129	H	1.941278	1.075361	0.666653
H130	H	1.689290	0.459402	-0.000057
H131	H	2.022623	0.792735	0.333276
H132	H	2.355957	1.126069	0.666610
H133	H	0.891602	0.025693	-0.000133
H134	H	1.224936	0.359027	0.333200
H135	H	1.558269	0.692360	0.666534
H136	H	1.129310	0.019401	-0.000094
H137	H	1.462643	0.352735	0.333239
H138	H	1.795976	0.686068	0.666573
H139	H	1.695594	0.221721	-0.000104
H140	H	2.028927	0.555054	0.333229
H141	H	2.362260	0.888388	0.666563
