data_functionalizedCrystal
_audit_creation_method	'MofGen! by Chris Wilmer'
_symmetry_space_group_name_H-M	'P1'
_symmetry_Int_Tables_number	1
_symmetry_cell_setting	triclinic
loop_
_symmetry_equiv_pos_as_xyz
  x,y,z
_cell_length_a	15.297475
_cell_length_b	12.594516
_cell_length_c	15.296720
_cell_angle_alpha	80.349469
_cell_angle_beta	88.382886
_cell_angle_gamma	80.319586
loop_
_atom_site_label
_atom_site_type_symbol
_atom_site_fract_x
_atom_site_fract_y
_atom_site_fract_z
Zn1	Zn	1.253466	-0.828402	0.726662
Zn2	Zn	1.278741	-0.981670	0.580189
Zn3	Zn	1.132339	-0.768606	0.554898
Zn4	Zn	1.106966	-0.971207	0.701317
O5	O	1.192878	-0.887471	0.640767
O6	O	1.379399	-0.878137	0.728424
O7	O	1.280516	-0.932761	0.454258
O8	O	1.148448	-0.627605	0.577705
O9	O	1.397968	-0.990742	0.620811
O10	O	1.237439	-0.671537	0.703900
O11	O	1.172956	-0.776223	0.435677
O12	O	1.006393	-0.766078	0.553130
O13	O	1.105203	-0.972910	0.827255
O14	O	0.987752	-0.914928	0.660703
O15	O	1.212836	-0.867992	0.845876
O16	O	1.255913	-1.129215	0.596235
O17	O	1.129711	-1.121528	0.685227
C18	C	0.965289	-0.832880	0.601422
C19	C	0.867921	-0.809554	0.584611
C20	C	0.554794	-1.054189	0.760920
C21	C	0.646276	-1.076112	0.776712
C22	C	0.701692	-1.009475	0.728689
C23	C	0.665617	-0.920910	0.664869
C24	C	0.574127	-0.898991	0.649070
C25	C	0.721024	-0.854276	0.616839
C26	C	0.684949	-0.765712	0.553020
C27	C	0.593468	-0.743795	0.537225
C28	C	0.538052	-0.810433	0.585248
C29	C	0.812514	-0.876196	0.632638
C30	C	0.831847	-0.720997	0.520789
C31	C	0.740365	-0.699074	0.504996
C32	C	1.192822	-1.163997	0.640748
C33	C	1.192873	-1.282320	0.640783
C34	C	1.124233	-1.347423	0.689144
C35	C	1.116732	-1.399680	0.605532
C36	C	1.200452	-1.440883	0.724423
C37	C	1.185337	-1.333002	0.557122
C38	C	1.269085	-1.374217	0.676073
C39	C	1.261623	-1.426440	0.592411
C40	C	1.421356	-0.942277	0.680265
C41	C	1.518720	-0.965632	0.697097
C42	C	1.153370	-0.925954	0.869237
C43	C	1.136534	-0.942353	0.966597
C44	C	1.192955	-0.609875	0.640809
C45	C	1.192987	-0.491580	0.640826
C46	C	1.232282	-0.849074	0.413194
C47	C	1.249288	-0.832416	0.315863
C48	C	1.313239	-0.770087	1.279821
C49	C	1.329063	-0.754682	1.188347
C50	C	1.280932	-0.801598	1.132905
C51	C	1.216975	-0.863922	1.168946
C52	C	1.201155	-0.879335	1.260430
C53	C	1.168847	-0.910847	1.113514
C54	C	1.104891	-0.973170	1.149555
C55	C	1.089073	-0.988580	1.241030
C56	C	1.137203	-0.941664	1.296472
C57	C	1.184668	-0.895433	1.022030
C58	C	1.072583	-1.004682	1.002639
C59	C	1.056760	-1.020086	1.094113
H60	H	1.066111	-1.312837	0.729954
H61	H	1.236741	-0.844688	0.992695
C62	C	1.176627	-1.269977	0.461548
H63	H	1.176606	-1.194659	0.462119
H64	H	1.225168	-1.297637	0.427129
H65	H	1.122715	-1.278736	0.436440
H66	H	0.463559	-0.792586	0.572395
H67	H	1.319729	-1.460800	0.551475
C68	C	1.298329	-0.784643	1.032285
H69	H	1.343306	-0.740797	1.018759
H70	H	1.317030	-0.853466	1.014189
H71	H	1.245381	-0.749177	1.001827
H72	H	1.352425	-0.731902	1.324970
C73	C	0.700680	-0.601661	0.434796
H74	H	0.746780	-0.565105	0.408458
H75	H	0.671585	-0.627311	0.390410
H76	H	0.659201	-0.552458	0.462218
C77	C	1.119799	-0.958616	1.397095
H78	H	1.074817	-1.002453	1.410622
H79	H	1.172743	-0.994063	1.427560
H80	H	1.101085	-0.889783	1.415179
H81	H	0.876967	-0.666736	0.481682
C82	C	1.356069	-1.358097	0.716388
H83	H	1.361326	-1.395459	0.775828
H84	H	1.404894	-1.386466	0.682638
H85	H	1.355646	-1.282425	0.715585
H86	H	1.381139	-0.703941	1.159010
H87	H	0.776180	-1.027329	0.741551
H88	H	1.037002	-1.039339	1.270373
H89	H	1.004685	-1.070831	1.123471
C90	C	1.019634	-1.056288	0.941662
H91	H	1.038209	-1.038173	0.882019
H92	H	1.029838	-1.133397	0.958855
H93	H	0.958187	-1.029110	0.946482
H94	H	0.675642	-1.148223	0.828672
C95	C	0.852192	-0.973610	0.702830
H96	H	0.914614	-0.977132	0.705357
H97	H	0.827033	-0.964484	0.759120
H98	H	0.839419	-1.039325	0.687304
C99	C	0.493839	-1.127480	0.813736
H100	H	0.434188	-1.101736	0.795188
H101	H	0.511053	-1.200383	0.803405
H102	H	0.498659	-1.125521	0.875206
H103	H	1.052334	-1.411643	0.575714
H104	H	0.564100	-0.671690	0.485250
C105	C	1.209057	-1.504058	0.819951
H106	H	1.160203	-1.476852	0.854211
H107	H	1.209583	-1.579439	0.819248
H108	H	1.262688	-1.494835	0.845336
