data_functionalizedCrystal
_audit_creation_method	'MofGen! by Chris Wilmer'
_symmetry_space_group_name_H-M	'P1'
_symmetry_Int_Tables_number	1
_symmetry_cell_setting	triclinic
loop_
_symmetry_equiv_pos_as_xyz
  x,y,z
_cell_length_a	19.805407
_cell_length_b	14.908520
_cell_length_c	19.805399
_cell_angle_alpha	86.729391
_cell_angle_beta	90.019573
_cell_angle_gamma	93.320773
loop_
_atom_site_label
_atom_site_type_symbol
_atom_site_fract_x
_atom_site_fract_y
_atom_site_fract_z
Zn1	Zn	1.019204	-0.359181	0.398269
Zn2	Zn	1.012594	-0.510047	0.291612
Zn3	Zn	0.906017	-0.359206	0.285095
Zn4	Zn	0.899460	-0.509999	0.404757
O5	O	0.959319	-0.434608	0.344934
O6	O	1.113043	-0.379203	0.384134
O7	O	0.998435	-0.490068	0.196033
O8	O	0.926542	-0.232958	0.294665
O9	O	1.108187	-0.490044	0.305773
O10	O	1.009699	-0.232939	0.377814
O11	O	0.920133	-0.379246	0.191244
O12	O	0.810431	-0.379199	0.300956
O13	O	0.915366	-0.489962	0.498612
O14	O	0.805614	-0.489986	0.388871
O15	O	1.003341	-0.379157	0.493845
O16	O	0.992077	-0.636286	0.312064
O17	O	0.908957	-0.636250	0.395191
C18	C	0.783463	-0.434591	0.344911
C19	C	0.708231	-0.434605	0.344918
C20	C	0.670392	-0.492379	0.390629
C21	C	0.599704	-0.492380	0.390639
C22	C	0.566855	-0.434612	0.344934
C23	C	0.604699	-0.376832	0.299220
C24	C	0.675386	-0.376827	0.299214
C25	C	0.319625	-0.376852	0.299244
C26	C	0.248932	-0.376864	0.299252
C27	C	0.243942	-0.492406	0.390668
C28	C	0.314629	-0.492400	0.390662
C29	C	0.352467	-0.434618	0.344952
C30	C	0.429116	-0.434615	0.344943
C31	C	0.490208	-0.434618	0.344939
C32	C	0.949107	-0.669002	0.355053
C33	C	0.944800	-0.769277	0.359405
C34	C	1.023348	-0.957679	0.281093
C35	C	1.019304	-1.051896	0.285180
C36	C	0.932671	-1.051929	0.371669
C37	C	0.936715	-0.957712	0.367582
C38	C	0.982055	-0.910590	0.322292
C39	C	0.986095	-0.816372	0.318202
C40	C	0.899466	-0.816407	0.404694
C41	C	0.895421	-0.910624	0.408781
C42	C	1.135861	-0.434626	0.344957
C43	C	1.211092	-0.434634	0.344967
C44	C	0.959359	-0.434551	0.521474
C45	C	0.959376	-0.434527	0.596705
C46	C	0.969589	-0.199299	0.334789
C47	C	0.973966	-0.099024	0.330466
C48	C	0.959320	-0.434600	0.169077
C49	C	0.959445	-0.434370	0.093836
C50	C	1.005186	-0.376828	0.629568
C51	C	1.005194	-0.376802	0.700255
C52	C	0.959395	-0.434480	0.738078
C53	C	0.913581	-0.492182	0.705210
C54	C	0.913570	-0.492203	0.634524
C55	C	0.913622	-0.492098	0.990280
C56	C	0.913638	-0.492074	1.060971
C57	C	1.005247	-0.376697	1.056011
C58	C	1.005236	-0.376718	0.985325
C59	C	0.959419	-0.434416	0.952463
C60	C	0.959410	-0.434442	0.875816
C61	C	0.959407	-0.434459	0.814725
H62	H	0.222189	-0.329817	0.262033
H63	H	0.876260	-0.539178	0.607768
H64	H	0.341371	-0.539444	0.427878
H65	H	0.697132	-0.539423	0.427846
C66	C	0.882803	-1.103767	0.421490
C67	C	0.888840	-1.090738	0.497875
C68	C	0.838972	-1.142573	0.547698
C69	C	0.783067	-1.207437	0.521137
C70	C	0.777028	-1.220469	0.444748
C71	C	0.826896	-1.168634	0.394925
H72	H	0.930225	-1.042719	0.517541
H73	H	0.843442	-1.132926	0.604246
H74	H	0.746152	-1.245808	0.558019
H75	H	0.735642	-1.268487	0.425083
H76	H	0.822426	-1.178281	0.338377
C77	C	0.845551	-0.962464	0.458598
C78	C	0.789649	-1.027325	0.432028
C79	C	0.739776	-1.079164	0.481845
C80	C	0.745806	-1.066143	0.558231
C81	C	0.801711	-1.001279	0.584805
C82	C	0.851583	-0.949440	0.534988
H83	H	0.785183	-1.036967	0.375479
H84	H	0.698392	-1.127180	0.462173
H85	H	0.708888	-1.104517	0.595109
H86	H	0.806177	-0.991638	0.641354
H87	H	0.892967	-0.901424	0.554660
C88	C	1.055615	-0.313269	0.943721
C89	C	1.054566	-0.210708	0.949018
C90	C	1.104944	-0.147254	0.907416
C91	C	1.156371	-0.186363	0.860516
C92	C	1.157422	-0.288930	0.855217
C93	C	1.107044	-0.352383	0.896820
H94	H	1.016495	-0.181752	0.983738
H95	H	1.104166	-0.071327	0.911339
H96	H	1.193664	-0.139391	0.829719
H97	H	1.195493	-0.317885	0.820497
H98	H	1.107822	-0.428310	0.892897
H99	H	1.042551	-0.329713	1.082776
H100	H	0.213126	-0.539452	0.427890
C101	C	0.558081	-0.555933	0.440922
C102	C	0.594212	-0.619482	0.491193
C103	C	0.552589	-0.683035	0.541480
C104	C	0.474836	-0.683040	0.541495
C105	C	0.438701	-0.619490	0.491222
C106	C	0.480323	-0.555936	0.440935
H107	H	0.651773	-0.619480	0.491184
H108	H	0.579339	-0.730080	0.578696
H109	H	0.444025	-0.730087	0.578720
H110	H	0.381139	-0.619491	0.491231
H111	H	0.453573	-0.508892	0.403719
H112	H	0.706194	-0.329777	0.261995
H113	H	1.023011	-0.778006	0.281323
C114	C	1.073216	-0.905837	0.231274
C115	C	1.067180	-0.918855	0.154888
C116	C	1.117047	-0.867013	0.105069
C117	C	1.172951	-0.802152	0.131635
C118	C	1.178989	-0.789131	0.208025
C119	C	1.129122	-0.840973	0.257845
H120	H	1.025794	-0.966872	0.135219
H121	H	1.112577	-0.876653	0.048520
H122	H	1.209866	-0.763776	0.094756
H123	H	1.220375	-0.741115	0.227694
H124	H	1.133592	-0.831333	0.314394
H125	H	1.052931	-1.090232	0.251633
H126	H	0.865840	-0.778057	0.438239
H127	H	1.042483	-0.329862	0.598777
C128	C	0.863251	-0.555517	1.102578
C129	C	0.812851	-0.618979	1.066434
C130	C	0.762467	-0.682418	1.108041
C131	C	0.762483	-0.682394	1.185793
C132	C	0.812885	-0.618930	1.221942
C133	C	0.863269	-0.555491	1.180335
H134	H	0.812837	-0.618998	1.008873
H135	H	0.725156	-0.729398	1.081280
H136	H	0.725186	-0.729355	1.216593
H137	H	0.812899	-0.618911	1.279503
H138	H	0.900580	-0.508511	1.207095
H139	H	1.042499	-0.329820	0.727009
C140	C	0.863218	-0.555570	0.954153
C141	C	0.786601	-0.548185	0.963566
C142	C	0.736189	-0.611662	0.927442
C143	C	0.762394	-0.682524	0.881906
C144	C	0.839015	-0.689913	0.872491
C145	C	0.889427	-0.626436	0.908614
H146	H	0.767199	-0.495725	0.997276
H147	H	0.679468	-0.606192	0.934412
H148	H	0.725076	-0.729514	0.855165
H149	H	0.858417	-0.742372	0.838780
H150	H	0.946147	-0.631905	0.901644
H151	H	0.350424	-0.329809	0.262018
H152	H	0.577948	-0.329793	0.262009
H153	H	0.876288	-0.539141	0.736011
