data_functionalizedCrystal
_audit_creation_method	'MofGen! by Chris Wilmer'
_symmetry_space_group_name_H-M	'P1'
_symmetry_Int_Tables_number	1
_symmetry_cell_setting	triclinic
loop_
_symmetry_equiv_pos_as_xyz
  x,y,z
_cell_length_a	18.215407
_cell_length_b	18.215404
_cell_length_c	18.215399
_cell_angle_alpha	89.972485
_cell_angle_beta	89.983140
_cell_angle_gamma	90.019956
loop_
_atom_site_label
_atom_site_type_symbol
_atom_site_fract_x
_atom_site_fract_y
_atom_site_fract_z
Zn1	Zn	-1.125077	0.293068	0.416060
Zn2	Zn	-0.875077	0.543068	0.666060
Zn3	Zn	-0.625077	0.793068	0.916060
Zn4	Zn	-0.375077	1.043068	1.166060
Zn5	Zn	-1.124988	0.416139	0.292994
Zn6	Zn	-0.874988	0.666139	0.542994
Zn7	Zn	-0.624988	0.916139	0.792994
Zn8	Zn	-0.374988	1.166139	1.042994
Zn9	Zn	-1.002010	0.293083	0.293013
Zn10	Zn	-0.752010	0.543083	0.543013
Zn11	Zn	-0.502010	0.793083	0.793013
Zn12	Zn	-0.252010	1.043083	1.043013
Zn13	Zn	-1.001978	0.416089	0.416026
Zn14	Zn	-0.751978	0.666089	0.666026
Zn15	Zn	-0.501978	0.916089	0.916026
Zn16	Zn	-0.251978	1.166089	1.166026
O17	O	-1.063513	0.354595	0.354523
O18	O	-0.813513	0.604595	0.604523
O19	O	-0.563513	0.854595	0.854523
O20	O	-0.313513	1.104595	1.104523
O21	O	-1.228050	0.309408	0.399741
O22	O	-0.978050	0.559408	0.649741
O23	O	-0.728050	0.809408	0.899741
O24	O	-0.478050	1.059408	1.149741
O25	O	-1.108651	0.399843	0.190013
O26	O	-0.858651	0.649843	0.440013
O27	O	-0.608651	0.899843	0.690013
O28	O	-0.358651	1.149843	0.940013
O29	O	-1.018386	0.190096	0.309358
O30	O	-0.768386	0.440096	0.559358
O31	O	-0.518386	0.690096	0.809358
O32	O	-0.268386	0.940096	1.059358
O33	O	-1.227984	0.399828	0.309325
O34	O	-0.977984	0.649828	0.559325
O35	O	-0.727984	0.899828	0.809325
O36	O	-0.477984	1.149828	1.059325
O37	O	-1.108803	0.190085	0.399760
O38	O	-0.858803	0.440085	0.649760
O39	O	-0.608803	0.690085	0.899760
O40	O	-0.358803	0.940085	1.149760
O41	O	-1.018299	0.309434	0.190027
O42	O	-0.768299	0.559434	0.440027
O43	O	-0.518299	0.809434	0.690027
O44	O	-0.268299	1.059434	0.940027
O45	O	-0.899021	0.309385	0.309325
O46	O	-0.649021	0.559385	0.559325
O47	O	-0.399021	0.809385	0.809325
O48	O	-0.149021	1.059385	1.059325
O49	O	-1.018332	0.399743	0.519014
O50	O	-0.768332	0.649743	0.769014
O51	O	-0.518332	0.899743	1.019014
O52	O	-0.268332	1.149743	1.269014
O53	O	-0.898998	0.399757	0.399702
O54	O	-0.648998	0.649757	0.649702
O55	O	-0.398998	0.899757	0.899702
O56	O	-0.148998	1.149757	1.149702
O57	O	-1.108772	0.309360	0.519039
O58	O	-0.858772	0.559360	0.769039
O59	O	-0.608772	0.809360	1.019039
O60	O	-0.358772	1.059360	1.269039
O61	O	-1.108620	0.519117	0.309292
O62	O	-0.858620	0.769117	0.559292
O63	O	-0.608620	1.019117	0.809292
O64	O	-0.358620	1.269117	1.059292
O65	O	-1.018245	0.519080	0.399683
O66	O	-0.768245	0.769080	0.649683
O67	O	-0.518245	1.019080	0.899683
O68	O	-0.268245	1.269080	1.149683
C69	C	-0.872307	0.354568	0.354512
C70	C	-0.622307	0.604568	0.604512
C71	C	-0.372307	0.854568	0.854512
C72	C	-0.122307	1.104568	1.104512
C73	C	-0.790508	0.354574	0.354525
C74	C	-0.540508	0.604574	0.604525
C75	C	-0.290508	0.854574	0.854525
C76	C	-0.040508	1.104574	1.104525
C77	C	-0.525458	0.401716	0.401518
C78	C	-0.275458	0.651716	0.651518
C79	C	-0.025458	0.901716	0.901518
C80	C	0.224542	1.151716	1.151518
C81	C	-0.602316	0.401712	0.401514
C82	C	-0.352316	0.651712	0.651514
C83	C	-0.102316	0.901712	0.901514
C84	C	0.147684	1.151712	1.151514
C85	C	-0.602310	0.307466	0.307542
C86	C	-0.352310	0.557466	0.557542
C87	C	-0.102310	0.807466	0.807542
C88	C	0.147690	1.057466	1.057542
C89	C	-0.525453	0.307475	0.307542
C90	C	-0.275453	0.557475	0.557542
C91	C	-0.025453	0.807475	0.807542
C92	C	0.224547	1.057475	1.057542
C93	C	-0.487029	0.354599	0.354535
C94	C	-0.237029	0.604599	0.604535
C95	C	0.012971	0.854599	0.854535
C96	C	0.262971	1.104599	1.104535
C97	C	-0.640745	0.354586	0.354531
C98	C	-0.390745	0.604586	0.604531
C99	C	-0.140745	0.854586	0.854531
C100	C	0.109255	1.104586	1.104531
C101	C	-0.724078	0.354580	0.354526
C102	C	-0.474078	0.604580	0.604526
C103	C	-0.224078	0.854580	0.854526
C104	C	0.025922	1.104580	1.104526
C105	C	-0.403690	0.354605	0.354538
C106	C	-0.153690	0.604605	0.604538
C107	C	0.096310	0.854605	0.854538
C108	C	0.346310	1.104605	1.104538
C109	C	-1.063439	0.545801	0.354498
C110	C	-0.813439	0.795801	0.604498
C111	C	-0.563439	1.045801	0.854498
C112	C	-0.313439	1.295801	1.104498
C113	C	-1.063475	0.627600	0.354512
C114	C	-0.813475	0.877600	0.604512
C115	C	-0.563475	1.127600	0.854512
C116	C	-0.313475	1.377600	1.104512
C117	C	-1.063558	0.354544	0.546476
C118	C	-0.813558	0.604544	0.796476
C119	C	-0.563558	0.854544	1.046476
C120	C	-0.313558	1.104544	1.296476
C121	C	-1.063577	0.354522	0.628275
C122	C	-0.813577	0.604522	0.878275
C123	C	-0.563577	0.854522	1.128275
C124	C	-0.313577	1.104522	1.378275
C125	C	-0.255466	0.354616	0.354535
C126	C	-0.005466	0.604616	0.604535
C127	C	0.244534	0.854616	0.854535
C128	C	0.494534	1.104616	1.104535
C129	C	-0.337265	0.354611	0.354541
C130	C	-0.087265	0.604611	0.604541
C131	C	0.162735	0.854611	0.854541
C132	C	0.412735	1.104611	1.104541
C133	C	-1.110647	0.815788	0.307542
C134	C	-0.860647	1.065788	0.557542
C135	C	-0.610647	1.315788	0.807542
C136	C	-0.360647	1.565788	1.057542
C137	C	-1.110681	0.892647	0.307564
C138	C	-0.860681	1.142647	0.557564
C139	C	-0.610681	1.392647	0.807564
C140	C	-0.360681	1.642647	1.057564
C141	C	-1.016492	0.892649	0.401610
C142	C	-0.766492	1.142649	0.651610
C143	C	-0.516492	1.392649	0.901610
C144	C	-0.266492	1.642649	1.151610
C145	C	-1.016462	0.815791	0.401592
C146	C	-0.766462	1.065791	0.651592
C147	C	-0.516462	1.315791	0.901592
C148	C	-0.266462	1.565791	1.151592
C149	C	-1.063539	0.777363	0.354553
C150	C	-0.813539	1.027363	0.604553
C151	C	-0.563539	1.277363	0.854553
C152	C	-0.313539	1.527363	1.104553
C153	C	-1.063603	0.931079	0.354594
C154	C	-0.813603	1.181079	0.604594
C155	C	-0.563603	1.431079	0.854594
C156	C	-0.313603	1.681079	1.104594
C157	C	-1.063640	1.014413	0.354618
C158	C	-0.813640	1.264413	0.604618
C159	C	-0.563640	1.514413	0.854618
C160	C	-0.313640	1.764413	1.104618
C161	C	-1.063503	0.694024	0.354530
C162	C	-0.813503	0.944024	0.604530
C163	C	-0.563503	1.194024	0.854530
C164	C	-0.313503	1.444024	1.104530
C165	C	-1.063612	1.162642	0.354578
C166	C	-0.813612	1.412642	0.604578
C167	C	-0.563612	1.662642	0.854578
C168	C	-0.313612	1.912642	1.104578
C169	C	-1.063667	1.080843	0.354635
C170	C	-0.813667	1.330843	0.604635
C171	C	-0.563667	1.580843	0.854635
C172	C	-0.313667	1.830843	1.104635
C173	C	-1.063511	0.354592	0.163317
C174	C	-0.813511	0.604592	0.413317
C175	C	-0.563511	0.854592	0.663317
C176	C	-0.313511	1.104592	0.913317
C177	C	-1.063635	0.354406	0.081519
C178	C	-0.813635	0.604406	0.331519
C179	C	-0.563635	0.854406	0.581519
C180	C	-0.313635	1.104406	0.831519
C181	C	-1.110687	0.307416	0.816483
C182	C	-0.860687	0.557416	1.066483
C183	C	-0.610687	0.807416	1.316483
C184	C	-0.360687	1.057416	1.566483
C185	C	-1.110695	0.307394	0.893342
C186	C	-0.860695	0.557394	1.143342
C187	C	-0.610695	0.807394	1.393342
C188	C	-0.360695	1.057394	1.643342
C189	C	-1.016520	0.401515	0.893305
C190	C	-0.766520	0.651515	1.143305
C191	C	-0.516520	0.901515	1.393305
C192	C	-0.266520	1.151515	1.643305
C193	C	-1.016508	0.401532	0.816448
C194	C	-0.766508	0.651532	1.066448
C195	C	-0.516508	0.901532	1.316448
C196	C	-0.266508	1.151532	1.566448
C197	C	-1.063596	0.354484	0.778039
C198	C	-0.813596	0.604484	1.028039
C199	C	-0.563596	0.854484	1.278039
C200	C	-0.313596	1.104484	1.528039
C201	C	-1.063616	0.354445	0.931755
C202	C	-0.813616	0.604445	1.181755
C203	C	-0.563616	0.854445	1.431755
C204	C	-0.313616	1.104445	1.681755
C205	C	-1.063625	0.354422	1.015089
C206	C	-0.813625	0.604422	1.265089
C207	C	-0.563625	0.854422	1.515089
C208	C	-0.313625	1.104422	1.765089
C209	C	-1.063586	0.354505	0.694700
C210	C	-0.813586	0.604505	0.944700
C211	C	-0.563586	0.854505	1.194700
C212	C	-0.313586	1.104505	1.444700
H213	H	-0.494163	0.269105	0.269279
H214	H	-0.244163	0.519105	0.519279
H215	H	0.005837	0.769105	0.769279
H216	H	0.255837	1.019105	1.019279
H217	H	-1.149043	0.923930	0.269284
H218	H	-0.899043	1.173930	0.519284
H219	H	-0.649043	1.423930	0.769284
H220	H	-0.399043	1.673930	1.019284
C221	C	-0.644584	0.255622	0.255865
C222	C	-0.394584	0.505622	0.505865
C223	C	-0.144584	0.755622	0.755865
C224	C	0.105416	1.005622	1.005865
N225	N	-0.676424	0.216567	0.216945
N226	N	-0.426424	0.466567	0.466945
N227	N	-0.176424	0.716567	0.716945
N228	N	0.073576	0.966567	0.966945
H229	H	-0.978156	0.439860	0.785145
H230	H	-0.728156	0.689860	1.035145
H231	H	-0.478156	0.939860	1.285145
H232	H	-0.228156	1.189860	1.535145
H233	H	-1.148980	0.784502	0.269242
H234	H	-0.898980	1.034502	0.519242
H235	H	-0.648980	1.284502	0.769242
H236	H	-0.398980	1.534502	1.019242
H237	H	-1.149026	0.269104	0.785213
H238	H	-0.899026	0.519104	1.035213
H239	H	-0.649026	0.769104	1.285213
H240	H	-0.399026	1.019104	1.535213
C241	C	-0.964725	0.453264	0.935562
C242	C	-0.714725	0.703264	1.185562
C243	C	-0.464725	0.953264	1.435562
C244	C	-0.214725	1.203264	1.685562
N245	N	-0.925712	0.492242	0.967389
N246	N	-0.675712	0.742242	1.217389
N247	N	-0.425712	0.992242	1.467389
N248	N	-0.175712	1.242242	1.717389
H249	H	-0.978164	0.923946	0.439906
H250	H	-0.728164	1.173946	0.689906
H251	H	-0.478164	1.423946	0.939906
H252	H	-0.228164	1.673946	1.189906
H253	H	-0.978101	0.784503	0.439877
H254	H	-0.728101	1.034503	0.689877
H255	H	-0.478101	1.284503	0.939877
H256	H	-0.228101	1.534503	1.189877
H257	H	-0.494175	0.440088	0.439782
H258	H	-0.244175	0.690088	0.689782
H259	H	0.005825	0.940088	0.939782
H260	H	0.255825	1.190088	1.189782
C261	C	-1.162501	0.255618	0.935628
C262	C	-0.912501	0.505618	1.185628
C263	C	-0.662501	0.755618	1.435628
C264	C	-0.412501	1.005618	1.685628
N265	N	-1.201523	0.216617	0.967477
N266	N	-0.951523	0.466617	1.217477
N267	N	-0.701523	0.716617	1.467477
N268	N	-0.451523	0.966617	1.717477
H269	H	-0.633602	0.440080	0.439772
H270	H	-0.383602	0.690080	0.689772
H271	H	-0.133602	0.940080	0.939772
H272	H	0.116398	1.190080	1.189772
