data_functionalizedCrystal
_audit_creation_method	'MofGen! by Chris Wilmer'
_symmetry_space_group_name_H-M	'P1'
_symmetry_Int_Tables_number	1
_symmetry_cell_setting	triclinic
loop_
_symmetry_equiv_pos_as_xyz
  x,y,z
_cell_length_a	13.262390
_cell_length_b	15.995292
_cell_length_c	12.376457
_cell_angle_alpha	101.276936
_cell_angle_beta	63.168449
_cell_angle_gamma	83.970448
loop_
_atom_site_label
_atom_site_type_symbol
_atom_site_fract_x
_atom_site_fract_y
_atom_site_fract_z
O1	O	1.512396	0.017765	-0.559004
O2	O	1.185261	0.047124	-0.458423
O3	O	1.357806	-0.089887	-0.511475
O4	O	1.339852	0.154776	-0.505952
O5	O	1.314685	-0.055679	-0.310205
O6	O	1.142140	0.081332	-0.257153
O7	O	1.469276	0.051973	-0.357734
Zn8	Zn	1.298862	0.072084	-0.275487
Zn9	Zn	1.355675	0.027013	-0.540670
O10	O	1.296731	0.188984	-0.304682
C11	C	1.121840	0.065729	-0.344918
C12	C	0.997106	0.070189	-0.306568
C13	C	0.739537	0.008161	-0.637334
C14	C	0.856731	0.003966	-0.673368
C15	C	0.891831	0.020521	-0.581671
C16	C	0.809725	0.041273	-0.453934
C17	C	0.692520	0.045462	-0.417897
C18	C	0.844814	0.057822	-0.362234
C19	C	0.762708	0.078574	-0.234497
C20	C	0.645515	0.082763	-0.198466
C21	C	0.610416	0.066207	-0.290163
C22	C	0.962019	0.053633	-0.398271
C23	C	0.915002	0.090934	-0.178834
C24	C	0.797808	0.095130	-0.142800
C25	C	1.335515	-0.103943	-0.410619
C26	C	1.333327	-0.196790	-0.409954
C27	C	1.325271	-0.534132	-0.407467
C28	C	1.449712	-0.516846	-0.445308
C29	C	1.452177	-0.420364	-0.446493
C30	C	1.329268	-0.366773	-0.408701
C31	C	1.291628	-0.412356	-0.504489
C32	C	1.290149	-0.509089	-0.504120
C33	C	1.238569	-0.469920	-0.274456
C34	C	1.242860	-0.373397	-0.274360
C35	C	1.331521	-0.272188	-0.409400
C36	C	1.323016	-0.628717	-0.406775
C37	C	1.532698	0.033368	-0.471242
C38	C	1.657433	0.028906	-0.509600
C39	C	1.319022	0.203040	-0.405541
C40	C	1.321212	0.295885	-0.406213
N41	N	1.260096	0.102843	-0.094510
N42	N	1.394449	-0.003753	-0.721650
C43	C	1.484436	-0.075170	0.191497
C44	C	1.511562	-0.096698	0.064817
C45	C	1.448698	-0.046815	0.024979
C46	C	1.358703	0.024600	0.111834
C47	C	1.331581	0.046135	0.238525
C48	C	1.295842	0.074490	0.072006
C49	C	1.205848	0.145905	0.158861
C50	C	1.178729	0.167435	0.285539
C51	C	1.241594	0.117552	0.325377
C52	C	1.322965	0.052956	-0.054684
C53	C	1.170109	0.174260	-0.007657
C54	C	1.142983	0.195788	0.119023
H55	H	1.483289	-0.389727	-0.379100
C56	C	1.025510	0.093113	-0.592498
C57	C	1.052262	0.030835	-0.538671
H58	H	1.081229	0.079041	-0.679178
H59	H	0.950699	0.093231	-0.584158
H60	H	1.026479	0.149303	-0.550672
H61	H	1.051284	-0.025354	-0.580491
H62	H	1.127093	0.030708	-0.547020
C63	C	1.544915	-0.330664	-0.579997
C64	C	1.542245	-0.417689	-0.578271
H65	H	1.600522	-0.329016	-0.661356
H66	H	1.470643	-0.300282	-0.560296
H67	H	1.565410	-0.303679	-0.519519
H68	H	1.521741	-0.444672	-0.638743
H69	H	1.616533	-0.448083	-0.597987
C70	C	1.032179	0.035312	-0.095945
C71	C	0.953571	0.109135	-0.078029
H72	H	1.056000	0.046549	-0.033722
H73	H	0.996016	-0.013037	-0.089080
H74	H	1.097843	0.022368	-0.177180
H75	H	0.887902	0.122075	0.003202
H76	H	0.989733	0.157498	-0.084883
C77	C	1.225362	0.226190	0.499896
C78	C	1.211769	0.141220	0.464633
H79	H	1.206942	0.240801	0.585870
H80	H	1.303302	0.229281	0.449159
H81	H	1.175044	0.266114	0.488594
H82	H	1.262094	0.101295	0.475927
H83	H	1.133817	0.138122	0.515386
H84	H	1.480057	-0.533187	-0.377644
C85	C	0.891424	-0.032485	-0.886645
C86	C	0.946977	-0.018841	-0.813768
H87	H	0.947141	-0.046561	-0.973326
H88	H	0.853316	-0.079288	-0.870660
H89	H	0.836150	0.019149	-0.865383
H90	H	1.002245	-0.070477	-0.835024
H91	H	0.985104	0.027966	-0.829760
H92	H	1.584835	-0.154842	-0.005896
C93	C	1.570764	-0.143702	-0.182088
C94	C	1.478504	-0.070483	-0.114267
H95	H	1.589158	-0.158320	-0.268054
H96	H	1.636428	-0.130851	-0.175527
H97	H	1.549265	-0.191597	-0.148688
H98	H	1.500005	-0.022587	-0.147661
H99	H	1.412826	-0.083330	-0.120835
H100	H	1.351676	-0.552621	-0.603294
C101	C	0.959570	0.245596	0.308546
C102	C	1.044069	0.274289	0.214504
H103	H	0.898510	0.294061	0.367496
H104	H	0.929747	0.204316	0.271553
H105	H	0.993148	0.218965	0.350380
H106	H	1.010493	0.300915	0.172664
H107	H	1.073895	0.315585	0.251500
H108	H	1.118921	0.214881	-0.040092
H109	H	1.535619	-0.115774	0.223942
H110	H	1.199952	-0.520049	-0.481250
C111	C	0.580746	-0.001978	-0.679507
C112	C	0.700953	-0.010037	-0.738116
H113	H	0.556929	-0.013210	-0.741733
H114	H	0.560478	-0.042845	-0.631167
H115	H	0.543310	0.055592	-0.625886
H116	H	0.738389	-0.067610	-0.791730
H117	H	0.721232	0.030831	-0.786477
H118	H	1.353190	-0.408952	-0.603316
H119	H	1.202099	-0.376782	-0.480951
C120	C	1.622699	-0.630471	-0.565441
C121	C	1.537867	-0.577971	-0.575770
H122	H	1.677115	-0.668209	-0.645983
H123	H	1.661358	-0.594441	-0.533898
H124	H	1.587155	-0.664378	-0.509449
H125	H	1.573410	-0.544058	-0.631754
H126	H	1.499204	-0.614004	-0.607329
H127	H	0.987257	0.017105	-0.611018
C128	C	1.361267	-0.561443	-0.228774
C129	C	1.266034	-0.490657	-0.173042
H130	H	1.378233	-0.574243	-0.166172
H131	H	1.343641	-0.611059	-0.267179
H132	H	1.426521	-0.547025	-0.290754
H133	H	1.200778	-0.505077	-0.111068
H134	H	1.283654	-0.441030	-0.134617
H135	H	0.578668	0.099645	-0.094455
C136	C	0.442664	0.134546	-0.294437
C137	C	0.481605	0.070768	-0.250593
H138	H	0.363148	0.137341	-0.270027
H139	H	0.451850	0.189710	-0.259392
H140	H	0.486574	0.119828	-0.383632
H141	H	0.437700	0.085489	-0.161397
H142	H	0.472409	0.015592	-0.285633
C143	C	0.597275	0.118107	0.009863
C144	C	0.707550	0.117930	-0.002393
H145	H	0.541557	0.132177	0.096543
H146	H	0.579152	0.160348	-0.026669
H147	H	0.596326	0.061909	-0.031960
H148	H	0.708502	0.174130	0.039421
H149	H	0.725678	0.075687	0.034154
H150	H	1.269981	-0.342602	-0.203274
C151	C	1.119226	-0.282191	-0.319306
C152	C	1.119741	-0.321361	-0.227740
H153	H	1.043214	-0.250070	-0.290529
H154	H	1.171082	-0.243818	-0.334343
H155	H	1.143016	-0.326124	-0.395140
H156	H	1.095959	-0.277427	-0.151909
H157	H	1.067867	-0.359737	-0.212687
H158	H	1.146734	-0.479287	-0.245494
H159	H	1.396238	-0.005190	-0.125391
H160	H	1.105460	0.225591	0.356255
