data_functionalizedCrystal
_audit_creation_method	'MofGen! by Chris Wilmer'
_symmetry_space_group_name_H-M	'P1'
_symmetry_Int_Tables_number	1
_symmetry_cell_setting	triclinic
loop_
_symmetry_equiv_pos_as_xyz
  x,y,z
_cell_length_a	15.944499
_cell_length_b	15.944551
_cell_length_c	15.021413
_cell_angle_alpha	89.996935
_cell_angle_beta	89.990095
_cell_angle_gamma	96.511826
loop_
_atom_site_label
_atom_site_type_symbol
_atom_site_fract_x
_atom_site_fract_y
_atom_site_fract_z
O1	O	1.114556	-0.108114	-0.074087
O2	O	0.870000	-0.121516	-0.074078
O3	O	0.998956	0.007461	-0.074075
O4	O	0.985600	-0.237091	-0.074090
O5	O	0.998936	0.007443	0.073989
O6	O	0.869980	-0.121534	0.073987
O7	O	1.114535	-0.108132	0.073977
Zn8	Zn	0.992254	-0.114836	0.097490
Zn9	Zn	0.992281	-0.114812	-0.097591
O10	O	0.985579	-0.237109	0.073974
C11	C	0.838695	-0.120976	-0.000044
C12	C	0.745447	-0.119331	-0.000040
C13	C	0.453911	-0.194263	-0.000058
C14	C	0.514950	-0.155303	-0.073061
C15	C	0.409810	-0.113355	-0.000060
C16	C	0.514916	-0.155299	0.072919
C17	C	0.574719	-0.116296	-0.000049
C18	C	0.469622	-0.074372	-0.073123
C19	C	0.469581	-0.074380	0.072922
C20	C	0.530603	-0.035360	-0.000098
C21	C	0.314810	-0.111663	-0.000068
C22	C	0.669718	-0.117981	-0.000048
C23	C	0.998392	0.038746	-0.000042
C24	C	0.996729	0.131992	-0.000042
C25	C	1.145840	-0.108672	-0.000058
C26	C	1.239089	-0.110317	-0.000068
C27	C	0.986144	-0.268394	-0.000060
C28	C	0.987806	-0.361640	-0.000067
N29	N	0.992242	-0.114852	0.230628
C30	C	0.912823	0.346833	-0.000051
C31	C	0.951776	0.407848	0.072952
C32	C	0.993722	0.302717	-0.000049
C33	C	0.951815	0.407850	-0.073027
C34	C	0.990811	0.467629	-0.000059
C35	C	1.032697	0.362504	0.073015
C36	C	1.032725	0.362499	-0.073031
C37	C	1.071737	0.423497	-0.000010
C38	C	0.995397	0.207715	-0.000042
C39	C	0.989143	0.562630	-0.000059
N40	N	0.992300	-0.114789	-0.230728
C41	C	0.932604	-0.174463	0.470310
C42	C	1.008506	-0.190756	0.529640
C43	C	0.992264	-0.114831	0.412235
C44	C	0.916382	-0.098557	0.529646
C45	C	0.992277	-0.114813	0.587659
C46	C	1.068204	-0.131162	0.470258
C47	C	0.976030	-0.038930	0.470259
C48	C	1.051987	-0.055191	0.529563
C49	C	0.992254	-0.114844	0.311177
C50	C	0.992295	-0.114799	0.688714
H51	H	0.420581	-0.261409	-0.000133
H52	H	1.102501	-0.004751	0.555416
F53	F	0.541223	-0.200020	-0.153738
F54	F	0.443524	-0.029666	-0.153880
F55	F	0.866726	-0.240428	0.436299
F56	F	0.541148	-0.200055	0.153584
H57	H	1.022249	-0.254936	0.555722
F58	F	0.825053	0.303282	0.000043
F59	F	1.152109	-0.149241	0.436309
H60	H	0.852204	-0.084801	0.555735
H61	H	0.962263	0.025229	0.444156
H62	H	0.563780	0.031846	-0.000133
H63	H	0.917550	0.427942	0.134673
F64	F	0.443273	-0.029696	0.153600
H65	H	1.066922	0.342383	-0.134755
H66	H	1.066877	0.342512	0.134801
F67	F	0.907084	0.434112	-0.153692
F68	F	1.159583	0.466856	0.000038
