data_functionalizedCrystal
_audit_creation_method	'MofGen! by Chris Wilmer'
_symmetry_space_group_name_H-M	'P1'
_symmetry_Int_Tables_number	1
_symmetry_cell_setting	triclinic
loop_
_symmetry_equiv_pos_as_xyz
  x,y,z
_cell_length_a	16.793024
_cell_length_b	16.793047
_cell_length_c	33.586455
_cell_angle_alpha	113.253857
_cell_angle_beta	66.219990
_cell_angle_gamma	112.758327
loop_
_atom_site_label
_atom_site_type_symbol
_atom_site_fract_x
_atom_site_fract_y
_atom_site_fract_z
O1	O	0.005016	-0.570216	-0.583573
O2	O	-0.034529	-0.474528	-0.453458
O3	O	0.114723	-0.474535	-0.528082
O4	O	-0.144235	-0.570209	-0.508949
O5	O	0.108729	-0.346329	-0.530229
O6	O	-0.040523	-0.346322	-0.455605
O7	O	-0.000977	-0.442010	-0.585721
Cu8	Cu	-0.021297	-0.382459	-0.520859
Cu9	Cu	-0.014209	-0.534079	-0.518320
O10	O	-0.150229	-0.442003	-0.511097
C11	C	0.005100	-0.790970	-0.238461
C12	C	0.009223	-0.693065	-0.217557
C13	C	0.003804	-0.645758	-0.241627
C14	C	-0.075059	-0.538459	-0.266316
C15	C	0.049838	-0.422849	-0.250165
C16	C	-0.040584	-0.395375	-0.435637
C17	C	-0.044693	-0.353446	-0.386631
C18	C	-0.039275	-0.401741	-0.363054
C19	C	-0.040566	-0.125547	-0.300731
C20	C	-0.044689	-0.223451	-0.321635
C21	C	-0.039266	-0.270752	-0.297563
C22	C	0.039597	-0.378051	-0.272874
C23	C	-0.085304	-0.493667	-0.289026
C24	C	0.005118	-0.521142	-0.103554
C25	C	0.009231	-0.563064	-0.152559
C26	C	0.003809	-0.514775	-0.176138
C27	C	0.010758	-0.652581	-0.172822
C28	C	0.001010	-0.556371	-0.220792
C29	C	-0.008251	-0.506059	-0.245823
C30	C	-0.046224	-0.263935	-0.366370
C31	C	-0.036476	-0.360146	-0.318399
C32	C	-0.027211	-0.410451	-0.293367
C33	C	0.815184	-0.521162	-0.508596
C34	C	0.717729	-0.563083	-0.506815
C35	C	0.669923	-0.514793	-0.509201
C36	C	0.564072	-0.463272	-0.548285
C37	C	0.445555	-0.498966	-0.486078
C38	C	0.415541	-0.125553	-0.528781
C39	C	0.375032	-0.223457	-0.531493
C40	C	0.423813	-0.270761	-0.529101
C41	C	0.149318	-0.395376	-0.530584
C42	C	0.246774	-0.353455	-0.532364
C43	C	0.294574	-0.401748	-0.529976
C44	C	0.400424	-0.453269	-0.490892
C45	C	0.518948	-0.417572	-0.553101
C46	C	0.548961	-0.790984	-0.510398
C47	C	0.589464	-0.693083	-0.507684
C48	C	0.540690	-0.645776	-0.510078
C49	C	0.678399	-0.652598	-0.506649
C50	C	0.581167	-0.556389	-0.510877
C51	C	0.530434	-0.506073	-0.515170
C52	C	0.286104	-0.263940	-0.532530
C53	C	0.383336	-0.360149	-0.528302
C54	C	0.434062	-0.410467	-0.524008
C55	C	-0.040530	-0.395407	-0.935652
C56	C	-0.044651	-0.353482	-0.886645
C57	C	-0.039242	-0.401770	-0.863061
C58	C	0.039602	-0.453292	-0.810474
C59	C	-0.085288	-0.417587	-0.750981
C60	C	0.005063	-0.791004	-0.738448
C61	C	0.009186	-0.693099	-0.717543
C62	C	0.003779	-0.645796	-0.741620
C63	C	0.005077	-0.521171	-0.603544
C64	C	0.009198	-0.563096	-0.652550
C65	C	0.003786	-0.514804	-0.676131
C66	C	-0.075058	-0.463283	-0.728717
C67	C	0.049835	-0.498991	-0.788214
C68	C	-0.040516	-0.125574	-0.800747
C69	C	-0.044642	-0.223476	-0.821649
C70	C	-0.039232	-0.270782	-0.797575
C71	C	-0.046172	-0.263965	-0.866386
C72	C	-0.036447	-0.360171	-0.818406
C73	C	-0.027197	-0.410486	-0.793373
C74	C	0.010719	-0.652613	-0.672809
C75	C	0.000994	-0.556406	-0.720789
C76	C	-0.008259	-0.506089	-0.745819
O77	O	-0.000965	0.173549	-0.277957
O78	O	-0.040516	-0.085616	-0.325254
O79	O	0.108737	0.059592	-0.327284
O80	O	-0.150219	0.028341	-0.275927
O81	O	0.114753	0.055151	-0.263265
O82	O	-0.034500	-0.090057	-0.261234
O83	O	0.005051	0.169108	-0.213937
Cu84	Cu	-0.014175	0.039120	-0.231740
Cu85	Cu	-0.021290	0.044372	-0.307451
O86	O	-0.144202	0.023900	-0.211907
O87	O	-0.034458	-0.474571	0.046517
O88	O	0.005076	-0.570190	-0.083599
O89	O	-0.144170	-0.570237	-0.008972
O90	O	0.114787	-0.474523	-0.028110
O91	O	-0.150200	-0.442024	-0.011093
O92	O	-0.000954	-0.441976	-0.085720
O93	O	-0.040488	-0.346357	0.044396
Cu94	Cu	-0.021272	-0.382460	-0.020856
Cu95	Cu	-0.014141	-0.534087	-0.018347
O96	O	0.108757	-0.346309	-0.030231
C97	C	-0.850734	0.086244	-0.289716
C98	C	-0.753280	0.087165	-0.312001
C99	C	-0.705462	0.081107	-0.288506
C100	C	-0.599592	0.000085	-0.264184
C101	C	-0.481080	0.121287	-0.283645
C102	C	-0.450996	0.035117	-0.097351
C103	C	-0.410501	0.028587	-0.146852
C104	C	-0.459292	0.034683	-0.169840
C105	C	-0.184802	0.024283	-0.235878
C106	C	-0.282257	0.023363	-0.213592
C107	C	-0.330068	0.029423	-0.237088
C108	C	-0.435938	0.110445	-0.261411
C109	C	-0.554456	-0.010759	-0.241948
C110	C	-0.584541	0.075410	-0.428242
C111	C	-0.625029	0.081943	-0.378743
C112	C	-0.576244	0.075844	-0.355753
C113	C	-0.713963	0.086424	-0.357292
C114	C	-0.616708	0.075351	-0.310510
C115	C	-0.565963	0.065400	-0.286043
C116	C	-0.321573	0.024104	-0.168302
C117	C	-0.418828	0.035176	-0.215083
C118	C	-0.469568	0.045131	-0.239552
O119	O	0.585213	0.169090	-0.504004
O120	O	0.494056	-0.090076	-0.525516
O121	O	0.488081	0.055124	-0.449918
O122	O	0.591189	0.023889	-0.579602
O123	O	0.359978	0.059584	-0.452885
O124	O	0.365953	-0.085616	-0.528483
O125	O	0.457110	0.173550	-0.506971
Cu126	Cu	0.399835	0.044374	-0.517998
Cu127	Cu	0.551332	0.039099	-0.514489
O128	O	0.463086	0.028349	-0.582569
C129	C	0.815354	-0.521094	-0.008709
C130	C	0.717898	-0.563028	-0.006927
C131	C	0.670072	-0.514739	-0.009298
C132	C	0.564182	-0.463204	-0.048354
C133	C	0.445681	-0.498945	0.013847
C134	C	0.415547	-0.125494	-0.028771
C135	C	0.375059	-0.223405	-0.031498
C136	C	0.423859	-0.270708	-0.029121
C137	C	0.149365	-0.395355	-0.030599
C138	C	0.246820	-0.353421	-0.032381
C139	C	0.294640	-0.401713	-0.030008
C140	C	0.400530	-0.453248	0.009048
C141	C	0.519038	-0.417504	-0.053155
C142	C	0.549171	-0.790955	-0.010537
C143	C	0.589653	-0.693047	-0.007809
C144	C	0.540859	-0.645741	-0.010187
C145	C	0.678588	-0.652551	-0.006775
C146	C	0.581317	-0.556344	-0.010973
C147	C	0.530562	-0.506029	-0.015250
C148	C	0.286131	-0.263897	-0.032533
C149	C	0.383402	-0.360104	-0.028335
C150	C	0.434150	-0.410423	-0.024057
O151	O	-0.620614	0.089309	0.052274
O152	O	-0.529507	0.043784	-0.078544
O153	O	-0.523494	0.194833	-0.006033
O154	O	-0.626628	-0.061740	-0.020236
O155	O	-0.395386	0.185419	-0.005549
O156	O	-0.401400	0.034370	-0.078059
O157	O	-0.492507	0.079895	0.052758
Cu158	Cu	-0.435256	0.056273	-0.012607
Cu159	Cu	-0.586758	0.067406	-0.013179
O160	O	-0.498521	-0.071154	-0.019752
C161	C	-0.437537	0.048335	0.402491
C162	C	-0.397043	0.041789	0.352989
C163	C	-0.445822	0.047883	0.329994
C164	C	-0.496646	0.126653	0.277022
C165	C	-0.465894	-0.000633	0.218811
C166	C	-0.837226	0.099430	0.210091
C167	C	-0.739773	0.100339	0.187806
C168	C	-0.691967	0.094287	0.211308
C169	C	-0.571027	0.088563	0.071568
C170	C	-0.611521	0.095108	0.121070
C171	C	-0.562739	0.089011	0.144061
C172	C	-0.511915	0.010241	0.197033
C173	C	-0.542670	0.137531	0.255247
C174	C	-0.171338	0.037467	0.263967
C175	C	-0.268788	0.036555	0.286249
C176	C	-0.316597	0.042611	0.262750
C177	C	-0.308112	0.037305	0.331542
C178	C	-0.405351	0.048369	0.284750
C179	C	-0.456092	0.058317	0.260279
C180	C	-0.700452	0.099593	0.142516
C181	C	-0.603213	0.088528	0.189308
C182	C	-0.552469	0.078578	0.213776
O183	O	-0.040608	-1.085661	-0.825229
O184	O	-0.001018	-0.826491	-0.777938
O185	O	-0.150287	-0.971682	-0.775894
O186	O	0.108661	-0.940470	-0.827272
O187	O	-0.144253	-0.976123	-0.711878
O188	O	0.005016	-0.830932	-0.713922
O189	O	-0.034575	-1.090102	-0.761213
Cu190	Cu	-0.014228	-0.960923	-0.731722
Cu191	Cu	-0.021364	-0.955670	-0.807428
O192	O	0.114695	-0.944911	-0.763256
O193	O	-0.036540	-0.230370	-0.253997
C194	C	0.044345	-0.230941	-0.250737
H195	H	0.097088	-0.237310	-0.285494
H196	H	0.030945	-0.290423	-0.238361
C197	C	0.014772	-0.134790	-0.174252
C198	C	0.079555	-0.142604	-0.216941
H199	H	0.036490	-0.080301	-0.153404
H200	H	-0.039723	-0.134407	-0.176448
H201	H	0.003612	-0.184363	-0.163945
H202	H	0.090706	-0.093037	-0.227250
H203	H	0.134054	-0.142976	-0.214747
O204	O	0.407660	-0.538954	-0.452069
C205	C	0.463668	-0.502352	-0.423637
H206	H	0.507941	-0.432665	-0.427057
H207	H	0.508371	-0.548078	-0.433936
C208	C	0.350277	-0.580326	-0.369844
C209	C	0.404649	-0.494733	-0.374042
H210	H	0.313873	-0.575630	-0.339252
H211	H	0.312544	-0.604989	-0.389000
H212	H	0.387539	-0.618422	-0.378430
H213	H	0.367386	-0.456642	-0.365463
H214	H	0.442374	-0.470063	-0.354884
H215	H	0.001632	-0.679646	-0.778160
O216	O	-0.592553	-0.077748	-0.221430
C217	C	-0.678239	-0.126240	-0.227938
H218	H	-0.681213	-0.117277	-0.259187
H219	H	-0.732745	-0.099946	-0.196886
C220	C	-0.690537	-0.237846	-0.196398
C221	C	-0.694187	-0.226843	-0.234782
H222	H	-0.700377	-0.299902	-0.200618
H223	H	-0.632810	-0.205174	-0.192012
H224	H	-0.735959	-0.215928	-0.170526
H225	H	-0.648758	-0.248750	-0.260652
H226	H	-0.751907	-0.259520	-0.239172
O227	O	-0.580570	0.207418	0.274116
C228	C	-0.674756	0.173789	0.281267
H229	H	-0.697844	0.101870	0.283471
H230	H	-0.691869	0.174438	0.251838
C231	C	-0.694978	0.321656	0.323150
C232	C	-0.723336	0.233327	0.325861
H233	H	-0.724945	0.358384	0.350656
H234	H	-0.631523	0.344315	0.318330
H235	H	-0.709240	0.322185	0.298624
H236	H	-0.709064	0.232798	0.350383
H237	H	-0.786790	0.210670	0.330685
O238	O	-0.049204	-0.216238	-0.390138
C239	C	0.027481	-0.141415	-0.392510
H240	H	0.083735	-0.155127	-0.387530
H241	H	0.009238	-0.079266	-0.364801
C242	C	-0.009195	-0.108271	-0.445375
C243	C	0.059901	-0.125116	-0.439263
H244	H	0.010802	-0.098213	-0.474214
H245	H	-0.060861	-0.158679	-0.443776
H246	H	-0.024390	-0.056483	-0.422281
H247	H	0.075087	-0.176910	-0.462353
H248	H	0.111570	-0.074716	-0.440867
H249	H	0.001660	-0.441639	-0.159184
H250	H	-0.490116	0.084434	0.126151
H251	H	-0.724884	0.094041	0.248327
O252	O	-0.748604	0.103549	0.119403
C253	C	-0.775986	0.183696	0.140804
H254	H	-0.728981	0.235535	0.161554
H255	H	-0.848165	0.169157	0.164162
C256	C	-0.829621	0.157186	0.079112
C257	C	-0.771883	0.220858	0.104594
H258	H	-0.827095	0.180109	0.056777
H259	H	-0.811177	0.103188	0.064694
H260	H	-0.889765	0.145076	0.098581
H261	H	-0.711740	0.232958	0.085126
H262	H	-0.790317	0.274860	0.119008
O263	O	0.709233	-0.427426	-0.009902
C264	C	0.659071	-0.372223	0.027758
H265	H	0.618952	-0.407813	0.055473
H266	H	0.610562	-0.358357	0.016985
C267	C	0.773273	-0.238862	0.011972
C268	C	0.724004	-0.282571	0.046013
H269	H	0.813325	-0.183559	0.023232
H270	H	0.807067	-0.276053	-0.013402
H271	H	0.732840	-0.227316	0.002997
H272	H	0.764436	-0.294126	0.054983
H273	H	0.690218	-0.245380	0.071389
H274	H	-0.449229	0.177371	-0.300885
H275	H	0.001639	-0.441666	-0.659178
H276	H	-0.503619	0.071273	-0.373665
O277	O	0.510476	-0.230401	-0.027518
C278	C	0.517022	-0.230951	0.012920
H279	H	0.459623	-0.287387	0.025958
H280	H	0.512105	-0.163569	0.039512
C281	C	0.678849	-0.177021	-0.012452
C282	C	0.608355	-0.246341	0.003558
H283	H	0.735189	-0.186510	-0.018226
H284	H	0.674440	-0.176647	-0.039696
H285	H	0.674740	-0.120876	0.009710
H286	H	0.612459	-0.302483	-0.018606
H287	H	0.612767	-0.246725	0.030798
H288	H	-0.754334	0.089615	-0.376700
H289	H	-0.123559	-0.467696	-0.693740
O290	O	0.647726	-0.468341	-0.077346
C291	C	0.672445	-0.421340	-0.109113
H292	H	0.632638	-0.369310	-0.094464
H293	H	0.656812	-0.470806	-0.141661
C294	C	0.823227	-0.437364	-0.137625
C295	C	0.774341	-0.373454	-0.119631
H296	H	0.886082	-0.407829	-0.144116
H297	H	0.806573	-0.469033	-0.116225
H298	H	0.810190	-0.478581	-0.164747
H299	H	0.787370	-0.332246	-0.092508
H300	H	0.791000	-0.341777	-0.141028
O301	O	0.407592	-0.539193	0.047764
C302	C	0.325452	-0.603393	0.042693
H303	H	0.326257	-0.625473	0.005814
H304	H	0.266860	-0.572335	0.065408
C305	C	0.312799	-0.658532	0.101580
C306	C	0.313791	-0.685657	0.056284
H307	H	0.305603	-0.709275	0.109965
H308	H	0.368137	-0.615277	0.104998
H309	H	0.263972	-0.632650	0.120504
H310	H	0.362624	-0.711528	0.037361
H311	H	0.258461	-0.728918	0.052863
O312	O	0.255244	-0.488930	-0.029260
C313	C	0.178119	-0.493726	0.008885
H314	H	0.152540	-0.432125	0.020290
H315	H	0.196455	-0.495631	0.037630
C316	C	0.135071	-0.655261	-0.017692
C317	C	0.103650	-0.579606	-0.003686
H318	H	0.089136	-0.708237	-0.025445
H319	H	0.187034	-0.652031	-0.043390
H320	H	0.150351	-0.656837	0.006265
H321	H	0.088382	-0.578025	-0.027644
H322	H	0.051683	-0.582837	0.022008
O323	O	0.118340	-0.539038	-0.807409
C324	C	0.174746	-0.502404	-0.779173
H325	H	0.135185	-0.472455	-0.742918
H326	H	0.235320	-0.447429	-0.791726
C327	C	0.256561	-0.613891	-0.824875
C328	C	0.207971	-0.577113	-0.780346
H329	H	0.277060	-0.659972	-0.825600
H330	H	0.218563	-0.638570	-0.843899
H331	H	0.307034	-0.568070	-0.835331
H332	H	0.157494	-0.622931	-0.769893
H333	H	0.245962	-0.552443	-0.761320
O334	O	0.557047	-0.377216	-0.087054
C335	C	0.566524	-0.283868	-0.068232
H336	H	0.568054	-0.262737	-0.031796
H337	H	0.506990	-0.267536	-0.068600
C338	C	0.653352	-0.258462	-0.141144
C339	C	0.655239	-0.232507	-0.096394
H340	H	0.708072	-0.226779	-0.158517
H341	H	0.646964	-0.321352	-0.153826
H342	H	0.603736	-0.244850	-0.141445
H343	H	0.704847	-0.246129	-0.096094
H344	H	0.661637	-0.169618	-0.083714
O345	O	-0.153837	-0.377594	-0.731769
C346	C	-0.210212	-0.414196	-0.760018
H347	H	-0.202445	-0.483884	-0.782617
H348	H	-0.190218	-0.368472	-0.782066
C349	C	-0.318835	-0.336213	-0.702806
C350	C	-0.309301	-0.421809	-0.730560
H351	H	-0.379957	-0.340906	-0.684636
H352	H	-0.280853	-0.311550	-0.683775
H353	H	-0.302168	-0.298119	-0.721185
H354	H	-0.325957	-0.459898	-0.712182
H355	H	-0.347288	-0.446478	-0.749588
H356	H	-0.037089	-0.236932	-0.761035
H357	H	0.088092	-0.309407	-0.275738
H358	H	-0.518563	-0.039000	0.162804
H359	H	-0.738384	0.080845	-0.251490
O360	O	0.709059	-0.427522	-0.509885
C361	C	0.646958	-0.393586	-0.512391
H362	H	0.575177	-0.434811	-0.498876
H363	H	0.660130	-0.398271	-0.549201
C364	C	0.746455	-0.243865	-0.500261
C365	C	0.658292	-0.294494	-0.483658
H366	H	0.753449	-0.182739	-0.482539
H367	H	0.788296	-0.266729	-0.498574
H368	H	0.757421	-0.247780	-0.530936
H369	H	0.647332	-0.290588	-0.452986
H370	H	0.616450	-0.271627	-0.485339
O371	O	-0.428162	-0.070648	0.199893
C372	C	-0.446040	-0.121929	0.158094
H373	H	-0.460314	-0.078323	0.144335
H374	H	-0.507390	-0.182024	0.163266
C375	C	-0.345883	-0.209231	0.140931
C376	C	-0.363408	-0.155671	0.124031
H377	H	-0.294914	-0.230048	0.119920
H378	H	-0.333840	-0.174685	0.169093
H379	H	-0.397014	-0.259303	0.145241
H380	H	-0.312282	-0.105594	0.119727
H381	H	-0.375440	-0.190209	0.095868
H382	H	0.330406	-0.448859	-0.466617
O383	O	-0.049141	-0.216271	-0.890159
C384	C	0.027547	-0.141451	-0.892531
H385	H	0.083796	-0.155164	-0.887546
H386	H	0.009307	-0.079299	-0.864825
C387	C	-0.009109	-0.108315	-0.945406
C388	C	0.059979	-0.125160	-0.939287
H389	H	0.010895	-0.098262	-0.974245
H390	H	-0.060777	-0.158720	-0.943806
H391	H	-0.024303	-0.056523	-0.922314
H392	H	0.075164	-0.176957	-0.962374
H393	H	0.111651	-0.074763	-0.940891
O394	O	-0.259993	0.033634	0.354759
C395	C	-0.254035	0.111284	0.392018
H396	H	-0.312110	0.140947	0.401570
H397	H	-0.186919	0.163096	0.382514
C398	C	-0.188411	0.049611	0.420921
C399	C	-0.259745	0.086040	0.432656
H400	H	-0.191928	0.034042	0.445988
H401	H	-0.192421	-0.002702	0.395818
H402	H	-0.132488	0.092794	0.413001
H403	H	-0.315666	0.042854	0.440570
H404	H	-0.255744	0.138345	0.457761
O405	O	0.255159	-0.488956	-0.529215
C406	C	0.178029	-0.493723	-0.491070
H407	H	0.152467	-0.432117	-0.479678
H408	H	0.196354	-0.495615	-0.462318
C409	C	0.134951	-0.655261	-0.517624
C410	C	0.103550	-0.579598	-0.503634
H411	H	0.089010	-0.708234	-0.525373
H412	H	0.186917	-0.652050	-0.543322
H413	H	0.150221	-0.656825	-0.493661
H414	H	0.088292	-0.578029	-0.527599
H415	H	0.051580	-0.582811	-0.477941
H416	H	0.107243	-0.392097	-0.234140
O417	O	0.454090	-0.686276	-0.511684
C418	C	0.452376	-0.761411	-0.550357
H419	H	0.514897	-0.785562	-0.561503
H420	H	0.451766	-0.741563	-0.578990
C421	C	0.290081	-0.808008	-0.525177
C422	C	0.366867	-0.837676	-0.538864
H423	H	0.237334	-0.855051	-0.518089
H424	H	0.291235	-0.757386	-0.499123
H425	H	0.289586	-0.791468	-0.549040
H426	H	0.367368	-0.854204	-0.514999
H427	H	0.365711	-0.888302	-0.564914
O428	O	0.013689	-0.700230	-0.648998
C429	C	-0.062996	-0.702885	-0.610548
H430	H	-0.119244	-0.691395	-0.616645
H431	H	-0.044748	-0.647958	-0.579723
C432	C	-0.026342	-0.809614	-0.594466
C433	C	-0.095431	-0.795510	-0.601955
H434	H	-0.046348	-0.866748	-0.589163
H435	H	0.025324	-0.807823	-0.620369
H436	H	-0.011143	-0.763836	-0.568778
H437	H	-0.110621	-0.841282	-0.627644
H438	H	-0.147100	-0.797311	-0.576055
H439	H	0.245737	-0.223998	-0.033572
H440	H	0.013390	-0.692483	-0.152899
O441	O	0.001369	-0.686192	-0.285236
C442	C	0.080518	-0.714488	-0.311964
H443	H	0.110377	-0.723022	-0.289320
H444	H	0.131857	-0.661849	-0.329902
C445	C	0.020619	-0.794497	-0.375328
C446	C	0.057288	-0.804986	-0.347517
H447	H	0.006291	-0.850318	-0.397261
H448	H	-0.032705	-0.775431	-0.357322
H449	H	0.063407	-0.750628	-0.390273
H450	H	0.014496	-0.848846	-0.332569
H451	H	0.110604	-0.824062	-0.365522
O452	O	-0.290821	0.029578	-0.281271
C453	C	-0.265315	-0.050930	-0.307266
H454	H	-0.307875	-0.105068	-0.288962
H455	H	-0.190794	-0.038714	-0.312025
C456	C	-0.228357	-0.015746	-0.376438
C457	C	-0.280635	-0.082243	-0.353959
H458	H	-0.237803	-0.035060	-0.405242
H459	H	-0.245537	0.038495	-0.358926
H460	H	-0.166260	-0.005573	-0.380400
H461	H	-0.342731	-0.092407	-0.349993
H462	H	-0.263466	-0.136487	-0.371472
O463	O	0.726434	-0.700245	-0.505321
C464	C	0.682737	-0.730102	-0.466033
H465	H	0.608094	-0.732694	-0.453998
H466	H	0.715143	-0.681579	-0.438201
C467	C	0.783736	-0.821579	-0.491755
C468	C	0.692056	-0.824770	-0.476975
H469	H	0.789488	-0.879973	-0.498503
H470	H	0.813178	-0.801461	-0.518223
H471	H	0.810731	-0.781139	-0.468558
H472	H	0.665066	-0.865200	-0.500173
H473	H	0.662610	-0.844896	-0.450511
H474	H	-0.669612	-0.046576	-0.265443
O475	O	-0.277450	0.042975	0.218594
C476	C	-0.339574	0.049620	0.202464
H477	H	-0.392462	0.081095	0.232299
H478	H	-0.374262	-0.020416	0.183729
C479	C	-0.224175	0.070311	0.133204
C480	C	-0.289129	0.108976	0.169848
H481	H	-0.193059	0.106921	0.113083
H482	H	-0.182322	0.065831	0.144070
H483	H	-0.253093	0.011949	0.117597
H484	H	-0.260210	0.167332	0.185457
H485	H	-0.330977	0.113468	0.158983
H486	H	0.245727	-0.224039	-0.533582
H487	H	0.496441	-0.236915	-0.527803
H488	H	-0.365918	0.157102	-0.260160
H489	H	-0.518447	0.052455	0.347905
O490	O	-0.132972	-0.620359	-0.262946
C491	C	-0.197165	-0.643984	-0.285561
H492	H	-0.168586	-0.605669	-0.311971
H493	H	-0.261589	-0.625933	-0.259947
C494	C	-0.253965	-0.792993	-0.276754
C495	C	-0.218861	-0.745939	-0.309194
H496	H	-0.267352	-0.855884	-0.291330
H497	H	-0.210719	-0.777076	-0.261516
H498	H	-0.307648	-0.777940	-0.255411
H499	H	-0.165173	-0.760984	-0.330533
H500	H	-0.262098	-0.761862	-0.324436
O501	O	-0.545985	0.039987	-0.148507
C502	C	-0.603915	-0.033632	-0.171395
H503	H	-0.570410	-0.091000	-0.191407
H504	H	-0.617880	-0.012153	-0.195642
C505	C	-0.734742	0.004891	-0.112031
C506	C	-0.693594	-0.065572	-0.136607
H507	H	-0.790062	-0.014809	-0.090573
H508	H	-0.695714	0.054492	-0.096611
H509	H	-0.746372	0.022784	-0.132241
H510	H	-0.681955	-0.083456	-0.116398
H511	H	-0.732622	-0.115177	-0.152023
H512	H	-0.281187	0.020914	-0.148901
O513	O	0.317062	-0.447908	0.038071
C514	C	0.322643	-0.405689	0.082782
H515	H	0.394722	-0.362669	0.081922
H516	H	0.303349	-0.459114	0.100400
C517	C	0.168910	-0.398352	0.110042
C518	C	0.257436	-0.345508	0.108986
H519	H	0.128685	-0.361232	0.126207
H520	H	0.165148	-0.426798	0.079920
H521	H	0.152844	-0.442870	0.124723
H522	H	0.273505	-0.300999	0.094301
H523	H	0.261200	-0.317052	0.139106
O524	O	0.454259	-0.686250	-0.011792
C525	C	0.452553	-0.761368	-0.050473
H526	H	0.515085	-0.785509	-0.061628
H527	H	0.451928	-0.741504	-0.079097
C528	C	0.290259	-0.807997	-0.025290
C529	C	0.367058	-0.837651	-0.038988
H530	H	0.237521	-0.855051	-0.018207
H531	H	0.291408	-0.757387	0.000770
H532	H	0.289751	-0.791443	-0.049145
H533	H	0.367571	-0.854193	-0.015131
H534	H	0.365908	-0.888266	-0.065044
H535	H	-0.142704	-0.524425	-0.305055
H536	H	0.634089	-0.467700	-0.572564
H537	H	0.088099	-0.448874	-0.845454
H538	H	0.550810	-0.383955	-0.581575
H539	H	-0.037138	-0.474881	-0.380005
O540	O	0.726642	-0.700197	-0.005461
C541	C	0.682961	-0.730081	0.033818
H542	H	0.608313	-0.732687	0.045859
H543	H	0.715367	-0.681567	0.061652
C544	C	0.783989	-0.821539	0.008072
C545	C	0.692304	-0.824747	0.022859
H546	H	0.789755	-0.879931	0.001313
H547	H	0.813421	-0.801403	-0.018390
H548	H	0.810983	-0.781107	0.031270
H549	H	0.665314	-0.865169	-0.000341
H550	H	0.662867	-0.844892	0.049317
O551	O	-0.036811	-0.489055	-0.883311
C552	C	-0.115958	-0.540367	-0.896390
H553	H	-0.145815	-0.494268	-0.900252
H554	H	-0.167300	-0.574859	-0.869378
C555	C	-0.056057	-0.668718	-0.937207
C556	C	-0.092724	-0.612099	-0.941954
H557	H	-0.041727	-0.712968	-0.965312
H558	H	-0.002735	-0.634149	-0.928394
H559	H	-0.098848	-0.697452	-0.914695
H560	H	-0.049930	-0.583358	-0.964461
H561	H	-0.146038	-0.646664	-0.950772
H562	H	-0.489994	0.175891	0.311254
