data_functionalizedCrystal
_audit_creation_method	'MofGen! by Chris Wilmer'
_symmetry_space_group_name_H-M	'P1'
_symmetry_Int_Tables_number	1
_symmetry_cell_setting	triclinic
loop_
_symmetry_equiv_pos_as_xyz
  x,y,z
_cell_length_a	13.032831
_cell_length_b	12.594516
_cell_length_c	13.032268
_cell_angle_alpha	97.152436
_cell_angle_beta	90.886977
_cell_angle_gamma	82.821304
loop_
_atom_site_label
_atom_site_type_symbol
_atom_site_fract_x
_atom_site_fract_y
_atom_site_fract_z
Zn1	Zn	1.498496	-0.718822	-0.780872
Zn2	Zn	1.520242	-0.877407	-0.608900
Zn3	Zn	1.348353	-0.674358	-0.587111
Zn4	Zn	1.326490	-0.871652	-0.759025
O5	O	1.423395	-0.785560	-0.683977
O6	O	1.645302	-0.760876	-0.776322
O7	O	1.515691	-0.834272	-0.462092
O8	O	1.368319	-0.531320	-0.612838
O9	O	1.661279	-0.877387	-0.649975
O10	O	1.478628	-0.563987	-0.755193
O11	O	1.389406	-0.685093	-0.446084
O12	O	1.201532	-0.679512	-0.591654
O13	O	1.331056	-0.867579	-0.905841
O14	O	1.185469	-0.824463	-0.717958
O15	O	1.457428	-0.755295	-0.921892
O16	O	1.494491	-1.025580	-0.628791
O17	O	1.352143	-1.021351	-0.739087
C18	C	1.156183	-0.746539	-0.650071
C19	C	1.041866	-0.729875	-0.635591
C20	C	1.423329	-1.062090	-0.683958
C21	C	1.423391	-1.180408	-0.683997
C22	C	0.982991	-0.794257	-0.691535
C23	C	0.864838	-0.777035	-0.676569
C24	C	1.345967	-1.247394	-0.743938
C25	C	1.332833	-1.304009	-0.646920
C26	C	1.436617	-1.334607	-0.781043
C27	C	1.410213	-1.235453	-0.586923
C28	C	1.514033	-1.266057	-0.721115
C29	C	1.500943	-1.322639	-0.624037
C30	C	1.691651	-0.824733	-0.718016
C31	C	1.805965	-0.841426	-0.732521
C32	C	1.389378	-0.815755	-0.952226
C33	C	1.374882	-0.828622	-1.066537
C34	C	1.423487	-0.507956	-0.684022
C35	C	1.423526	-0.389658	-0.684041
C36	C	1.430945	-0.778803	-1.125443
C37	C	1.415964	-0.792101	-1.243590
C38	C	1.457340	-0.755414	-0.416779
C39	C	1.472035	-0.742276	-0.302494
H40	H	1.020059	-0.862124	-0.750512
H41	H	1.490030	-0.726303	-1.088406
C42	C	0.856030	-0.933124	-0.812200
N43	N	0.893740	-1.002191	-0.872212
H44	H	1.004798	-0.662001	-0.576621
C45	C	1.589483	-1.366913	-0.555492
N46	N	1.656166	-1.400263	-0.503861
C47	C	1.229358	-1.327266	-0.604526
N48	N	1.151417	-1.344781	-0.572602
H49	H	0.827774	-0.709156	-0.617595
H50	H	1.280399	-1.214409	-0.794530
H51	H	1.315786	-0.881111	-1.103573
H52	H	1.356864	-0.844593	-1.280621
H53	H	1.531123	-0.689768	-1.265462
C54	C	1.617464	-1.242750	-0.763551
N55	N	1.695364	-1.225188	-0.795528
C56	C	1.395047	-1.177410	-0.476027
N57	N	1.383620	-1.133690	-0.392503
H58	H	1.447750	-1.377685	-0.863096
