data_functionalizedCrystal
_audit_creation_method	'MofGen! by Chris Wilmer'
_symmetry_space_group_name_H-M	'P1'
_symmetry_Int_Tables_number	1
_symmetry_cell_setting	triclinic
loop_
_symmetry_equiv_pos_as_xyz
  x,y,z
_cell_length_a	10.489763
_cell_length_b	8.965430
_cell_length_c	19.288865
_cell_angle_alpha	90.004806
_cell_angle_beta	96.157696
_cell_angle_gamma	89.998051
loop_
_atom_site_label
_atom_site_type_symbol
_atom_site_fract_x
_atom_site_fract_y
_atom_site_fract_z
O1	O	-1.691819	0.123994	0.098062
O2	O	-1.320420	0.124013	0.107244
O3	O	-1.516851	0.123973	0.001595
O4	O	-1.495388	0.124033	0.203711
O5	O	-1.516835	-0.124106	0.001602
O6	O	-1.320403	-0.124066	0.107251
O7	O	-1.691803	-0.124085	0.098069
Cu8	Cu	-1.506101	-0.146727	0.102660
Cu9	Cu	-1.506121	0.146655	0.102652
O10	O	-1.495371	-0.124045	0.203718
C11	C	-1.272896	-0.000025	0.106550
C12	C	-1.131315	-0.000019	0.104466
C13	C	-1.064696	-0.000054	0.037236
C14	C	-0.971860	0.122267	0.068986
C15	C	-0.971877	-0.122320	0.069009
C16	C	-1.040344	0.122403	0.136243
C17	C	-1.040371	-0.122293	0.136257
C18	C	-0.947561	0.000058	0.168055
N19	N	-1.506097	-0.353076	0.102666
C20	C	-1.415226	-0.450364	0.151509
C21	C	-1.530404	-0.549779	0.165568
C22	C	-1.390968	-0.549789	0.088613
C23	C	-1.621332	-0.450302	0.116756
C24	C	-1.481821	-0.450304	0.039774
C25	C	-1.597082	-0.549674	0.053807
C26	C	-0.739329	-0.000048	0.098751
C27	C	-0.880918	-0.000057	0.100803
C28	C	-1.516152	-0.000071	-0.024283
C29	C	-1.514079	-0.000084	-0.101400
N30	N	-1.506135	0.353004	0.102641
C31	C	-1.629336	-0.000097	-0.145319
C32	C	-1.627388	-0.000073	-0.217779
C33	C	-1.510177	-0.000066	-0.246318
C34	C	-1.394905	-0.000045	-0.202389
C35	C	-1.396856	-0.000053	-0.129931
C36	C	-1.418029	-0.086958	-0.355224
C37	C	-1.416083	-0.086959	-0.427682
C38	C	-1.504155	-0.000032	-0.469804
C39	C	-1.594194	0.086875	-0.439460
C40	C	-1.596145	0.086866	-0.367002
C41	C	-1.508049	-0.000056	-0.324886
C42	C	-1.617308	-0.000018	-0.592292
C43	C	-1.615356	0.000015	-0.664754
C44	C	-1.382869	0.000029	-0.649363
C45	C	-1.384825	0.000011	-0.576903
C46	C	-1.502048	-0.000020	-0.548372
C47	C	-1.496070	0.000002	0.229595
C48	C	-1.498143	0.000025	0.306713
H49	H	-1.115635	0.000083	-0.018026
F50	F	-1.742065	-0.000057	-0.561925
F51	F	-1.263689	-0.606912	0.073089
F52	F	-1.691963	0.179363	-0.334710
F53	F	-0.932221	-0.257493	0.031817
F54	F	-1.687933	0.179397	-0.484284
F55	F	-1.748643	-0.393429	0.132359
F56	F	-1.080105	-0.257450	0.173412
F57	F	-1.697653	-0.606318	-0.000197
F58	F	-0.932174	0.257420	0.031803
F59	F	-1.274178	-0.000039	-0.083188
F60	F	-1.314875	-0.393362	0.205545
H61	H	-1.550963	-0.593472	0.218743
F62	F	-1.454902	-0.393143	-0.029709
H63	H	-1.724788	-0.000116	-0.122094
H64	H	-1.709216	0.000013	-0.700512
H65	H	-1.721248	-0.000078	-0.253544
F66	F	-1.258122	0.000044	-0.679731
H67	H	-1.290969	0.000013	-0.541143
H68	H	-1.342763	-0.157715	-0.452381
H69	H	-0.896887	0.000140	0.223376
H70	H	-1.299470	-0.000036	-0.225630
F71	F	-1.079801	0.257728	0.173392
F72	F	-1.324287	-0.179486	-0.310402
