data_functionalizedCrystal
_audit_creation_method	'MofGen! by Chris Wilmer'
_symmetry_space_group_name_H-M	'P1'
_symmetry_Int_Tables_number	1
_symmetry_cell_setting	triclinic
loop_
_symmetry_equiv_pos_as_xyz
  x,y,z
_cell_length_a	18.760490
_cell_length_b	17.052862
_cell_length_c	17.052977
_cell_angle_alpha	45.842756
_cell_angle_beta	77.704252
_cell_angle_gamma	70.289246
loop_
_atom_site_label
_atom_site_type_symbol
_atom_site_fract_x
_atom_site_fract_y
_atom_site_fract_z
Zr1	Zr	0.853702	0.878977	-0.240914
O2	O	0.792707	1.046403	-0.394930
O3	O	0.853010	0.711523	-0.175774
O4	O	0.913429	0.879006	-0.369073
O5	O	0.706685	0.878906	-0.069545
O6	O	1.030713	0.879061	-0.369066
O7	O	0.732288	0.878920	-0.201632
O8	O	0.922635	0.579465	-0.023291
O9	O	0.814764	1.178503	-0.415320
O10	O	0.963670	0.780451	-0.169645
O11	O	0.857035	0.780400	-0.071075
O12	O	0.928170	0.977589	-0.298658
O13	O	0.821535	0.977538	-0.200089
Zr14	Zr	0.999924	0.879043	-0.030240
Zr15	Zr	1.040757	0.879064	-0.240903
Zr16	Zr	0.812869	0.878956	-0.030250
Zr17	Zr	0.888880	1.089661	-0.273434
Zr18	Zr	0.964746	0.668358	0.002280
O19	O	1.000616	1.046496	-0.095379
O20	O	1.058676	1.046527	-0.394915
O21	O	0.734647	1.046372	-0.095394
O22	O	1.060920	0.711617	0.123777
O23	O	1.118979	0.711647	-0.175759
O24	O	0.794951	0.711493	0.123761
O25	O	1.146941	0.879113	-0.201608
O26	O	0.940197	0.879013	0.097919
O27	O	0.822913	0.878959	0.097912
O28	O	1.121338	0.879100	-0.069521
O29	O	0.963448	1.178572	-0.415312
O30	O	0.890178	0.579448	0.144158
O31	O	1.038863	0.579517	0.144167
O32	O	1.071319	0.579534	-0.023282
O33	O	0.782307	1.178486	-0.247871
O34	O	0.930991	1.178555	-0.247862
O35	O	0.925456	0.780430	0.027505
O36	O	1.032091	0.780481	-0.071065
O37	O	0.996592	0.977620	-0.200078
O38	O	0.889956	0.977569	-0.101509
C39	C	0.882810	0.615476	-0.094899
C40	C	0.867876	0.526035	-0.081094
C41	C	0.692835	0.878901	-0.135590
C42	C	0.613425	0.878864	-0.135595
C43	C	1.048430	0.274030	-0.248003
C44	C	1.062461	0.358069	-0.260981
C45	C	1.013816	0.400065	-0.216010
C46	C	0.951138	0.358013	-0.158059
C47	C	0.937102	0.273972	-0.145087
C48	C	0.902488	0.400007	-0.113094
C49	C	0.839810	0.357955	-0.055143
C50	C	0.825777	0.273922	-0.042173
C51	C	0.874422	0.231927	-0.087144
C52	C	0.916524	0.484047	-0.126066
C53	C	0.805196	0.483989	-0.023151
C54	C	0.791165	0.399950	-0.010172
C55	C	0.291572	0.879134	-0.208333
C56	C	0.263478	0.879119	-0.062791
C57	C	0.338118	0.879062	-0.062798
C58	C	0.389489	0.879040	-0.135573
C59	C	0.366220	0.879074	-0.208341
C60	C	0.361394	0.879017	0.009976
C61	C	0.436039	0.878959	0.009972
C62	C	0.487410	0.878945	-0.062809
C63	C	0.464137	0.878980	-0.135580
C64	C	0.515508	0.878958	-0.208355
C65	C	0.492235	0.879001	-0.281133
C66	C	0.417592	0.879059	-0.281122
C67	C	0.562054	0.878886	-0.062820
C68	C	0.590156	0.878898	-0.208362
C69	C	1.160791	0.879119	-0.135563
C70	C	1.240201	0.879156	-0.135558
C71	C	0.977889	0.879037	-0.399084
C72	C	0.995224	0.879046	-0.488516
C73	C	0.970816	1.142544	-0.176254
C74	C	0.985750	1.231985	-0.190060
C75	C	1.067985	0.879084	-0.530524
C76	C	1.084279	0.879085	-0.614546
C77	C	1.027811	0.879058	-0.656573
C78	C	0.955047	0.879028	-0.614570
C79	C	0.938753	0.879017	-0.530535
C80	C	0.898579	0.878992	-0.656583
C81	C	0.825815	0.878962	-0.614580
C82	C	0.809524	0.878952	-0.530554
C83	C	0.865992	0.878980	-0.488527
C84	C	0.914873	0.879002	-0.740619
C85	C	0.785641	0.878936	-0.740629
C86	C	0.769348	0.878934	-0.656608
C87	C	0.875737	0.878983	0.127931
C88	C	0.858403	0.878974	0.217363
C89	C	1.116788	0.615585	-0.094886
C90	C	1.181264	0.526181	-0.081075
C91	C	0.831735	0.615449	0.168608
C92	C	0.799466	0.525999	0.271846
C93	C	1.065713	0.615558	0.168622
C94	C	1.112854	0.526145	0.271864
C95	C	0.787914	1.142461	-0.439775
C96	C	0.740772	1.231875	-0.543017
C97	C	0.736838	1.142435	-0.176268
C98	C	0.672362	1.231839	-0.190078
C99	C	1.021892	1.142571	-0.439762
C100	C	1.054160	1.232021	-0.542999
C101	C	1.175829	0.484180	-0.126057
C102	C	1.236410	0.400187	-0.113102
C103	C	1.302423	0.358191	-0.055159
C104	C	1.307857	0.400201	-0.010178
C105	C	1.247279	0.484198	-0.023139
C106	C	0.820026	0.484008	0.371794
C107	C	0.789703	0.399972	0.468803
C108	C	0.738824	0.357923	0.465862
C109	C	0.718262	0.399922	0.365903
C110	C	0.748581	0.483962	0.268896
C111	C	1.190662	0.484182	0.268895
C112	C	1.234967	0.400181	0.365893
C113	C	1.201461	0.358138	0.465858
C114	C	1.123646	0.400109	0.468824
C115	C	1.079343	0.484115	0.371827
C116	C	0.662966	1.273848	-0.540050
C117	C	0.618665	1.357875	-0.637051
C118	C	0.652172	1.399922	-0.737018
C119	C	0.729986	1.357946	-0.739982
C120	C	0.774286	1.273926	-0.642983
C121	C	0.677800	1.273849	-0.145107
C122	C	0.617228	1.357865	-0.158088
C123	C	0.551216	1.399864	-0.216034
C124	C	0.545780	1.357850	-0.261011
C125	C	0.606354	1.273841	-0.248036
C126	C	1.105037	1.274044	-0.540023
C127	C	1.135371	1.358080	-0.637016
C128	C	1.114822	1.400098	-0.736985
C129	C	1.063943	1.358067	-0.739958
C130	C	1.033614	1.274026	-0.642965
H131	H	0.967557	0.518279	-0.173251
H132	H	1.143523	0.879108	-0.648740
H133	H	0.319567	0.879027	0.069232
H134	H	0.731543	1.239659	-0.097915
H135	H	0.534072	0.878975	-0.340382
O136	O	0.726517	0.529092	0.161119
H137	H	0.686090	0.485664	0.175393
H138	H	0.739661	0.878910	-0.774845
H139	H	0.992185	1.239820	-0.645404
H140	H	0.837641	1.239752	-0.645411
O141	O	1.104639	0.529470	-0.188565
H142	H	1.094964	0.622165	-0.259739
O143	O	0.534738	1.403118	-0.633824
H144	H	0.520968	1.495803	-0.683926
H145	H	1.139523	1.468530	-0.815954
O146	O	1.226811	0.529533	0.161079
H147	H	1.288362	0.486243	0.175327
O148	O	1.041809	1.403393	-0.847797
H149	H	1.058105	1.332867	-0.845465
O150	O	1.318891	0.354908	0.362685
H151	H	1.334738	0.398244	0.276877
O152	O	0.461139	0.878911	0.088464
H153	H	0.426261	0.955865	0.073004
O154	O	0.731046	0.878902	-0.485241
H155	H	0.729206	0.878887	-0.419741
H156	H	0.740132	0.365701	0.037011
O157	O	0.587160	0.878839	0.015664
H158	H	0.538898	0.878866	0.066269
H159	H	0.774736	0.239695	0.005005
O160	O	1.249246	0.267519	0.570477
H161	H	1.308978	0.245399	0.551608
O162	O	0.392483	0.879109	-0.359610
H163	H	0.427364	0.802165	-0.344165
H164	H	0.221651	0.879129	-0.003534
H165	H	0.974119	0.879026	-0.774810
H166	H	1.015986	0.518270	0.374260
O167	O	1.045376	0.879079	-0.747209
H168	H	1.105456	0.879119	-0.769365
O169	O	1.379055	0.354891	0.052328
H170	H	1.420255	0.289417	0.053790
O171	O	1.253140	0.529475	0.025403
H172	H	1.301532	0.567769	-0.010225
H173	H	1.025244	0.468493	-0.226581
H174	H	0.710102	0.878909	-0.622398
H175	H	1.113493	0.392306	-0.308165
O176	O	1.087508	0.354744	0.576649
H177	H	1.131391	0.289268	0.643591
H178	H	0.635669	1.239617	-0.458661
O179	O	0.874898	0.529358	0.374978
H180	H	0.884085	0.486040	0.460782
H181	H	1.231971	0.365993	-0.149733
O182	O	0.859288	0.141277	-0.073138
H183	H	0.802875	0.173498	-0.110308
O184	O	0.604390	1.490557	-0.841638
H185	H	0.544656	1.512671	-0.822769
O186	O	0.766121	1.403292	-0.847805
H187	H	0.722236	1.468756	-0.914745
H188	H	0.621667	1.392058	-0.121456
H189	H	1.351743	0.289794	-0.044612
H190	H	0.806455	0.365787	0.550184
O191	O	0.706139	0.267259	0.570498
H192	H	0.728997	0.245119	0.640490
O193	O	0.752737	0.529243	0.025394
H194	H	0.773036	0.594724	0.006660
H195	H	0.501899	1.468269	-0.226592
H196	H	1.088028	0.239838	-0.284620
H197	H	0.676833	0.365672	0.363525
O198	O	0.474581	1.403153	-0.323510
H199	H	0.433377	1.468618	-0.324961
H200	H	1.113956	0.879097	-0.496294
O201	O	0.600481	1.228522	-0.296532
H202	H	0.544398	1.271838	-0.338992
O203	O	0.645565	0.878873	-0.286856
H204	H	0.616840	0.878906	-0.337451
H205	H	0.272621	0.879173	-0.267591
O206	O	1.127214	1.228720	-0.432203
H207	H	1.167698	1.272059	-0.446445
O208	O	0.848425	0.878960	-0.397889
H209	H	0.858170	0.955912	-0.426080
H210	H	1.176796	1.392293	-0.634574
