data_functionalizedCrystal
_audit_creation_method	'MofGen! by Chris Wilmer'
_symmetry_space_group_name_H-M	'P1'
_symmetry_Int_Tables_number	1
_symmetry_cell_setting	triclinic
loop_
_symmetry_equiv_pos_as_xyz
  x,y,z
_cell_length_a	12.811457
_cell_length_b	26.210047
_cell_length_c	12.811442
_cell_angle_alpha	95.434836
_cell_angle_beta	84.561231
_cell_angle_gamma	84.584490
loop_
_atom_site_label
_atom_site_type_symbol
_atom_site_fract_x
_atom_site_fract_y
_atom_site_fract_z
O1	O	1.393274	-0.015501	0.141364
O2	O	1.087767	-0.000652	0.156739
O3	O	1.248198	-0.015501	-0.003706
O4	O	1.232843	-0.000651	0.301809
O5	O	1.248147	-0.100357	-0.003707
O6	O	1.087717	-0.085508	0.156738
O7	O	1.393223	-0.100356	0.141364
Cu8	Cu	1.240465	-0.100680	0.149051
Cu9	Cu	1.240525	-0.000328	0.149052
O10	O	1.232792	-0.085507	0.301809
C11	C	1.048635	-0.041310	0.155877
C12	C	0.932110	-0.036037	0.153298
N13	N	1.240431	-0.171262	0.149050
C14	C	0.713091	-0.118650	0.148432
C15	C	0.603605	-0.113699	0.146008
C16	C	0.603650	-0.021183	0.146020
C17	C	0.713137	-0.026135	0.148444
C18	C	0.767853	-0.074870	0.149651
C19	C	0.877340	-0.079821	0.152082
C20	C	0.877384	0.012694	0.152087
C21	C	0.767898	0.017645	0.149663
C22	C	1.304450	-0.523779	0.213015
C23	C	1.304481	-0.737439	0.213014
O24	O	1.358888	-0.765062	0.267387
N25	N	1.240550	-0.764162	0.149041
C26	C	1.176612	-0.737468	0.085059
O27	O	1.122244	-0.765101	0.030638
C28	C	1.176587	-0.523809	0.085055
C29	C	1.240514	-0.497088	0.149039
C30	C	1.368373	-0.497057	0.276993
C31	C	1.368360	-0.443645	0.276997
C32	C	1.304425	-0.416954	0.213022
C33	C	1.240502	-0.443676	0.149043
C34	C	1.112655	-0.497117	0.021067
C35	C	1.112657	-0.443699	0.021070
C36	C	1.176584	-0.416977	0.085055
C37	C	1.176554	-0.363573	0.085072
N38	N	1.240484	-0.336849	0.149045
C39	C	1.304420	-0.363540	0.213020
C40	C	1.176628	-0.849642	0.085067
C41	C	1.176633	-0.903056	0.085069
C42	C	1.304503	-0.903023	0.213023
C43	C	1.304493	-0.849607	0.213026
C44	C	1.240559	-0.822918	0.149040
C45	C	1.304388	-0.251370	0.213024
C46	C	1.304366	-0.197953	0.213025
C47	C	1.176500	-0.197991	0.085067
C48	C	1.176517	-0.251403	0.085070
C49	C	1.240469	-0.278092	0.149051
O50	O	1.122184	-0.335917	0.030718
O51	O	1.358798	-0.335899	0.267415
C52	C	1.304463	-0.577191	0.213011
C53	C	1.240540	-0.603912	0.149032
C54	C	1.176604	-0.577222	0.085057
C55	C	1.240544	-0.657327	0.149034
C56	C	1.304480	-0.684017	0.213009
C57	C	1.368411	-0.657294	0.276982
C58	C	1.368398	-0.603882	0.276986
C59	C	1.112673	-0.603945	0.021084
C60	C	1.112690	-0.657357	0.021086
C61	C	1.176626	-0.684048	0.085061
C62	C	1.432355	-0.059697	0.142225
C63	C	1.548881	-0.064967	0.144804
C64	C	1.247309	-0.059698	-0.042814
C65	C	1.244723	-0.064968	-0.159343
N66	N	1.240568	0.070253	0.149044
C67	C	1.241056	-0.118650	-0.323588
C68	C	1.243481	-0.113699	-0.214099
C69	C	1.243536	-0.021184	-0.214083
C70	C	1.241111	-0.026135	-0.323573
C71	C	1.239872	-0.074869	-0.378322
C72	C	1.237454	-0.079820	-0.487814
C73	C	1.237502	0.012695	-0.487796
C74	C	1.239927	0.017646	-0.378306
C75	C	1.233681	-0.041309	0.340917
C76	C	1.236267	-0.036036	0.457445
H77	H	0.921888	-0.119503	0.153071
O78	O	0.766092	-0.166029	0.149558
C79	C	0.754488	-0.257265	0.149365
C80	C	0.694339	-0.203641	0.148063
H81	H	0.696499	-0.287688	0.148179
H82	H	0.814998	-0.265755	0.077113
H83	H	0.796497	-0.258045	0.223849
H84	H	0.652267	-0.202822	0.073627
H85	H	0.633889	-0.195173	0.220364
O86	O	1.114300	-0.172134	0.022894
C87	C	0.987537	-0.177795	-0.104086
C88	C	1.057900	-0.207140	-0.033700
H89	H	0.941935	-0.206086	-0.149877
H90	H	0.929724	-0.147761	-0.052799
H91	H	1.038926	-0.157813	-0.161748
H92	H	1.006595	-0.227153	0.023972
H93	H	1.115719	-0.237145	-0.085053
H94	H	0.559022	-0.149349	0.145021
O95	O	0.930413	0.055281	0.153310
C96	C	0.918908	0.147563	0.153000
C97	C	0.858721	0.099379	0.151632
H98	H	0.860973	0.183227	0.151622
H99	H	0.960853	0.151418	0.227521
H100	H	0.979477	0.143706	0.080788
H101	H	0.798101	0.103201	0.223794
H102	H	0.816848	0.095540	0.077065
H103	H	1.244542	0.018494	-0.169488
H104	H	1.420454	-0.582130	0.329089
H105	H	1.356423	-0.176199	0.265134
O106	O	1.239815	-0.166024	-0.376610
C107	C	1.240098	-0.257268	-0.365085
C108	C	1.241479	-0.203646	-0.304907
H109	H	1.241465	-0.287702	-0.307142
H110	H	1.165580	-0.258110	-0.407033
H111	H	1.312308	-0.265691	-0.425654
H112	H	1.169320	-0.195189	-0.244287
H113	H	1.316044	-0.202831	-0.263031
H114	H	1.240933	0.057324	-0.333714
O115	O	1.366656	-0.277244	0.275118
C116	C	1.543482	-0.299810	0.316958
C117	C	1.473093	-0.270477	0.246576
H118	H	1.629553	-0.294358	0.293893
H119	H	1.520534	-0.284251	0.403040
H120	H	1.532465	-0.342573	0.305998
H121	H	1.484074	-0.227710	0.257444
H122	H	1.496058	-0.286078	0.160521
O123	O	1.430567	-0.417775	0.339171
C124	C	1.557362	-0.423397	0.466117
C125	C	1.486973	-0.452754	0.395739
H126	H	1.602968	-0.451663	0.511887
H127	H	1.615171	-0.403445	0.414826
H128	H	1.505992	-0.393335	0.523798
H129	H	1.538259	-0.482840	0.338048
H130	H	1.429158	-0.472670	0.447096
O131	O	1.430605	-0.523015	0.338989
C132	C	1.572323	-0.589551	0.345796
C133	C	1.501936	-0.560194	0.275448
H134	H	1.629997	-0.619625	0.294453
H135	H	1.618081	-0.561296	0.391491
H136	H	1.520940	-0.609491	0.403542
H137	H	1.553242	-0.540253	0.217642
H138	H	1.456171	-0.588473	0.229827
H139	H	1.124564	-0.924807	0.032979
H140	H	1.236447	-0.119502	-0.532389
O141	O	0.714574	0.064948	0.148535
C142	C	0.545934	0.113576	0.144744
C143	C	0.606186	0.059975	0.146039
H144	H	0.458294	0.109572	0.142703
H145	H	0.558109	0.139245	0.218609
H146	H	0.576815	0.131590	0.071878
H147	H	0.575344	0.041916	0.218855
H148	H	0.594012	0.034342	0.072125
H149	H	1.124563	-0.827916	0.032959
H150	H	1.236541	0.048344	-0.532372
H151	H	0.559084	0.018494	0.145020
H152	H	1.060600	-0.518864	-0.031038
O153	O	1.366694	-0.823735	0.275203
C154	C	1.493472	-0.829350	0.402167
C155	C	1.423093	-0.858712	0.331782
H156	H	1.539073	-0.857614	0.447946
H157	H	1.551285	-0.809399	0.350880
H158	H	1.442093	-0.799288	0.459839
H159	H	1.474387	-0.888798	0.274100
H160	H	1.365274	-0.878627	0.383135
O161	O	1.050449	-0.417849	-0.041114
C162	C	0.923677	-0.423529	-0.168082
C163	C	0.994058	-0.452864	-0.097696
H164	H	0.878083	-0.451827	-0.213864
H165	H	0.865858	-0.393498	-0.116796
H166	H	0.975052	-0.403545	-0.225753
H167	H	0.942767	-0.472879	-0.040015
H168	H	1.051884	-0.482866	-0.149048
O169	O	1.114292	-0.277371	0.023078
C170	C	0.972611	-0.331485	0.016281
C171	C	1.042982	-0.302096	0.086624
H172	H	0.914955	-0.351492	0.067627
H173	H	0.926834	-0.303247	-0.029414
H174	H	1.024008	-0.361507	-0.041465
H175	H	0.991664	-0.272074	0.144429
H176	H	1.088767	-0.330365	0.132244
O177	O	1.430642	-0.683262	0.338969
C178	C	1.572341	-0.749818	0.345707
C179	C	1.501953	-0.720438	0.275394
H180	H	1.629998	-0.779888	0.294337
H181	H	1.618116	-0.721577	0.391416
H182	H	1.520956	-0.769763	0.403441
H183	H	1.553259	-0.700491	0.217601
H184	H	1.456170	-0.748703	0.229759
O185	O	1.050557	-0.683236	-0.041169
C186	C	0.923696	-0.677617	-0.168050
C187	C	0.994015	-0.648249	-0.097610
H188	H	0.877947	-0.649341	-0.213684
H189	H	0.975026	-0.707648	-0.225837
H190	H	0.866000	-0.697606	-0.116712
H191	H	1.051722	-0.628229	-0.148864
H192	H	0.942620	-0.618247	-0.039817
H193	H	1.356558	-0.924763	0.265119
O194	O	1.244776	-0.156198	-0.160836
C195	C	1.338330	-0.209057	-0.048777
C196	C	1.336988	-0.160904	-0.109026
H197	H	1.412886	-0.212883	-0.006892
H198	H	1.266151	-0.205235	0.011829
H199	H	1.336974	-0.244725	-0.106735
H200	H	1.338379	-0.125212	-0.051148
H201	H	1.409160	-0.164770	-0.169647
H202	H	1.060610	-0.582219	-0.031015
