data_functionalizedCrystal
_audit_creation_method	'MofGen! by Chris Wilmer'
_symmetry_space_group_name_H-M	'P1'
_symmetry_Int_Tables_number	1
_symmetry_cell_setting	triclinic
loop_
_symmetry_equiv_pos_as_xyz
  x,y,z
_cell_length_a	10.723024
_cell_length_b	10.723024
_cell_length_c	14.048226
_cell_angle_alpha	89.994758
_cell_angle_beta	89.993860
_cell_angle_gamma	84.467869
loop_
_atom_site_label
_atom_site_type_symbol
_atom_site_fract_x
_atom_site_fract_y
_atom_site_fract_z
O1	O	1.657192	0.175030	-0.079152
O2	O	1.294039	0.191783	-0.079155
O3	O	1.483992	0.001830	-0.079150
O4	O	1.467239	0.364983	-0.079157
O5	O	1.483969	0.001819	0.079172
O6	O	1.294016	0.191772	0.079166
O7	O	1.657169	0.175018	0.079170
Zn8	Zn	1.475589	0.183393	0.104305
Zn9	Zn	1.475619	0.183408	-0.104290
O10	O	1.467216	0.364971	0.079164
C11	C	1.247528	0.190558	0.000005
C12	C	1.108974	0.186911	0.000004
C13	C	0.917217	0.073603	0.000005
C14	C	1.060420	0.077371	0.000006
C15	C	1.482762	-0.044675	0.000010
C16	C	1.479114	-0.183229	0.000006
C17	C	1.585401	-0.258212	0.000006
C18	C	1.581634	-0.401415	0.000002
C19	C	1.703680	0.176243	0.000007
C20	C	1.842234	0.179891	0.000002
C21	C	1.468447	0.411477	0.000003
C22	C	1.472094	0.550031	-0.000000
N23	N	1.475577	0.183382	0.246666
N24	N	1.475641	0.183410	-0.246651
C25	C	1.559715	0.099306	0.296486
C26	C	1.559724	0.099306	0.396144
C27	C	1.475599	0.183388	0.445979
C28	C	1.391452	0.267468	0.396152
C29	C	1.391438	0.267461	0.296496
C30	C	1.391488	0.267477	0.603866
C31	C	1.391503	0.267486	0.703529
C32	C	1.559773	0.099321	0.703514
C33	C	1.559760	0.099315	0.603858
C34	C	1.475614	0.183397	0.554037
H35	H	0.884056	0.273677	0.000006
O36	O	1.690074	-0.478451	-0.000041
C37	C	1.662172	-0.604282	-0.000019
H38	H	1.564095	-0.609986	-0.029992
H39	H	1.733332	-0.662714	-0.045986
H40	H	1.666526	-0.641896	0.075935
H41	H	1.322998	0.335953	0.744100
H42	H	1.322950	0.335925	0.436734
H43	H	1.322923	0.335923	0.255933
O44	O	1.641590	0.017603	0.444391
C45	C	1.715827	-0.056620	0.379035
H46	H	1.717644	-0.005448	0.307990
H47	H	1.815328	-0.074720	0.407811
H48	H	1.674542	-0.149709	0.368458
H49	H	0.875395	-0.020182	0.000021
O50	O	1.697186	-0.208125	0.000051
C51	C	1.676062	-0.076294	0.000027
H52	H	1.578906	-0.046692	0.029999
H53	H	1.749818	-0.035599	0.045994
H54	H	1.682381	-0.039987	-0.075927
O55	O	1.641238	0.017524	0.247997
C56	C	1.573702	-0.060096	0.190420
H57	H	1.476503	-0.011240	0.175478
H58	H	1.625608	-0.079448	0.120345
H59	H	1.564382	-0.152363	0.228877
H60	H	1.322963	0.335942	0.563306
O61	O	1.137456	-0.031069	0.000049
C62	C	1.263287	-0.003167	0.000023
H63	H	1.268992	0.094911	0.029995
H64	H	1.321720	-0.074326	0.045988
H65	H	1.300898	-0.007523	-0.075932
O66	O	1.031997	0.295390	-0.000127
C67	C	0.955902	0.300128	-0.082137
H68	H	0.948600	0.201001	-0.109472
H69	H	0.858423	0.345660	-0.063700
H70	H	0.999147	0.357553	-0.139554
O71	O	1.363497	-0.373171	0.000167
C72	C	1.293509	-0.396468	0.082148
H73	H	1.358951	-0.440475	0.139460
H74	H	1.244358	-0.304501	0.109671
H75	H	1.220623	-0.463262	0.063605
H76	H	1.385328	-0.225051	-0.000001
H77	H	1.628266	0.030855	0.563282
H78	H	1.628287	0.030859	0.744083
