data_functionalizedCrystal
_audit_creation_method	'MofGen! by Chris Wilmer'
_symmetry_space_group_name_H-M	'P1'
_symmetry_Int_Tables_number	1
_symmetry_cell_setting	triclinic
loop_
_symmetry_equiv_pos_as_xyz
  x,y,z
_cell_length_a	18.101398
_cell_length_b	13.032721
_cell_length_c	13.032268
_cell_angle_alpha	76.710373
_cell_angle_beta	97.157621
_cell_angle_gamma	82.799479
loop_
_atom_site_label
_atom_site_type_symbol
_atom_site_fract_x
_atom_site_fract_y
_atom_site_fract_z
Zn1	Zn	1.028325	0.499224	-0.654372
Zn2	Zn	1.528325	0.999224	-0.154372
Zn3	Zn	1.028244	0.654309	-0.499320
Zn4	Zn	1.528244	1.154309	0.000680
Zn5	Zn	0.922501	0.476704	-0.476774
Zn6	Zn	1.422501	0.976704	0.023226
Zn7	Zn	0.886455	0.676763	-0.676838
Zn8	Zn	1.386455	1.176763	-0.176838
O9	O	0.966381	0.576750	-0.576826
O10	O	1.466381	1.076750	-0.076826
O11	O	1.131942	0.519824	-0.633837
O12	O	1.631942	1.019824	-0.133837
O13	O	1.029269	0.611927	-0.347711
O14	O	1.529269	1.111927	0.152289
O15	O	0.951658	0.331063	-0.481495
O16	O	1.451658	0.831063	0.018505
O17	O	1.131883	0.633764	-0.519921
O18	O	1.631883	1.133764	-0.019921
O19	O	1.029407	0.347609	-0.611975
O20	O	1.529407	0.847609	-0.111975
O21	O	0.951579	0.481442	-0.331147
O22	O	1.451579	0.981442	0.168853
O23	O	0.814092	0.503215	-0.503280
O24	O	1.314092	1.003215	-0.003280
O25	O	0.890223	0.672034	-0.822475
O26	O	1.390223	1.172034	-0.322475
O27	O	0.787609	0.650197	-0.650266
O28	O	1.287609	1.150197	-0.150266
O29	O	0.994454	0.541597	-0.805969
O30	O	1.494454	1.041597	-0.305969
O31	O	0.994317	0.805916	-0.541705
O32	O	1.494317	1.305916	-0.041705
O33	O	0.890144	0.822413	-0.672127
O34	O	1.390144	1.322413	-0.172127
C35	C	0.773981	0.576700	-0.576765
C36	C	1.273981	1.076700	-0.076765
C37	C	0.691666	0.576707	-0.576767
C38	C	1.191666	1.076707	-0.076767
C39	C	0.938328	0.852705	-0.611824
C40	C	1.438328	1.352705	-0.111824
C41	C	0.926391	0.970764	-0.626832
C42	C	1.426391	1.470764	-0.126832
C43	C	0.938327	0.611832	-0.853835
C44	C	1.438327	1.111832	-0.353835
C45	C	0.926371	0.626782	-0.971879
C46	C	1.426371	1.126782	-0.471879
C47	C	0.392559	0.576785	-0.576865
C48	C	0.892559	1.076785	-0.076865
C49	C	0.440523	0.483948	-0.484733
C50	C	0.940523	0.983948	0.015267
C51	C	0.526154	0.484125	-0.484413
C52	C	1.026154	0.984125	0.015587
C53	C	0.540950	0.576745	-0.576816
C54	C	1.040950	1.076745	-0.076816
C55	C	0.501599	0.684750	-0.560440
C56	C	1.001599	1.184750	-0.060440
C57	C	0.416058	0.684220	-0.559814
C58	C	0.916058	1.184220	-0.059814
C59	C	0.415648	0.562613	-0.685689
C60	C	0.915648	1.062613	-0.185689
C61	C	0.501613	0.560044	-0.684759
C62	C	1.001613	1.060044	-0.184759
C63	C	0.624813	0.576730	-0.576792
C64	C	1.124813	1.076730	-0.076792
C65	C	0.308696	0.576807	-0.576888
C66	C	0.808696	1.076807	-0.076888
C67	C	1.159533	0.576801	-0.576888
C68	C	1.659533	1.076801	-0.076888
C69	C	1.241843	0.576823	-0.576914
C70	C	1.741843	1.076823	-0.076914
C71	C	0.994562	0.299721	-0.541714
C72	C	1.494562	0.799721	-0.041714
C73	C	1.006571	0.181667	-0.526752
C74	C	1.506571	0.681667	-0.026752
C75	C	0.972646	1.015207	-0.569041
C76	C	1.472646	1.515207	-0.069041
C77	C	0.960309	1.137227	-0.584551
C78	C	1.460309	1.637227	-0.084551
C79	C	0.972613	0.568909	-1.016340
C80	C	1.472613	1.068909	-0.516340
C81	C	0.960258	0.584359	-1.138346
C82	C	1.460258	1.084359	-0.638346
C83	C	0.994377	0.541728	-0.300885
C84	C	1.494377	1.041728	0.199115
C85	C	1.006506	0.526479	-0.182803
C86	C	1.506506	1.026479	0.317197
H87	H	0.553655	0.403590	-0.493048
H88	H	1.053655	0.903590	0.006952
H89	H	1.055243	0.465484	-1.130548
H90	H	1.555243	0.965484	-0.630548
H91	H	0.426461	0.403133	-0.493126
H92	H	0.926461	0.903133	0.006874
C93	C	1.072414	1.111055	-0.444395
C94	C	1.572414	1.611055	0.055605
H95	H	1.099837	1.154764	-0.410155
H96	H	1.599837	1.654764	0.089845
H97	H	1.053144	1.061962	-0.392624
H98	H	1.553144	1.561962	0.107376
H99	H	1.104891	1.072888	-0.479608
H100	H	1.604891	1.572888	0.020392
C101	C	0.894418	0.666755	-1.208930
C102	C	1.394418	1.166755	-0.708930
H103	H	0.894755	0.666337	-1.281672
H104	H	1.394755	1.166337	-0.781672
H105	H	0.848064	0.648927	-1.188823
H106	H	1.348064	1.148927	-0.688823
H107	H	0.899828	0.735844	-1.199854
H108	H	1.399828	1.235844	-0.699854
H109	H	0.425494	0.492026	-0.404266
H110	H	0.925494	0.992026	0.095734
H111	H	1.021383	0.962925	-0.508085
H112	H	1.521383	1.462925	-0.008085
C113	C	0.894470	1.207842	-0.666912
C114	C	1.394470	1.707842	-0.166912
H115	H	0.867053	1.164136	-0.701164
H116	H	1.367053	1.664136	-0.201164
H117	H	0.861995	1.246020	-0.631711
H118	H	1.361995	1.746020	-0.131711
H119	H	0.913749	1.256927	-0.718687
H120	H	1.413749	1.756927	-0.218687
C121	C	0.371724	0.654185	-0.778193
C122	C	0.871724	1.154185	-0.278193
H123	H	0.385920	0.645191	-0.843736
H124	H	0.885920	1.145191	-0.343736
H125	H	0.319148	0.653331	-0.780534
H126	H	0.819148	1.153331	-0.280534
H127	H	0.383018	0.720532	-0.767378
H128	H	0.883018	1.220532	-0.267378
H129	H	0.877631	0.687760	-1.024137
H130	H	1.377631	1.187760	-0.524137
H131	H	0.527960	0.480635	-0.697365
H132	H	1.027960	0.980635	-0.197365
H133	H	0.877659	1.023049	-0.687795
H134	H	1.377659	1.523049	-0.187795
C135	C	1.038454	0.486525	-0.945753
C136	C	1.538454	0.986525	-0.445753
H137	H	1.038124	0.486954	-0.873013
H138	H	1.538124	0.986954	-0.373013
H139	H	1.033057	0.417438	-0.954829
H140	H	1.533057	0.917438	-0.454829
H141	H	1.084807	0.504371	-0.965864
H142	H	1.584807	1.004371	-0.465864
H143	H	0.553155	0.492353	-0.403487
H144	H	1.053155	0.992353	0.096513
C145	C	0.396985	0.702699	-0.452911
C146	C	0.896985	1.202699	0.047089
H147	H	0.441486	0.710453	-0.410272
H148	H	0.941486	1.210453	0.089728
H149	H	0.360897	0.765659	-0.466096
H150	H	0.860897	1.265659	0.033904
H151	H	0.376818	0.643365	-0.416402
H152	H	0.876818	1.143365	0.083598
C153	C	0.393672	0.459082	-0.709502
C154	C	0.893672	0.959082	-0.209502
H155	H	0.370208	0.423528	-0.653290
H156	H	0.870208	0.923528	-0.153290
H157	H	0.359617	0.475981	-0.774833
H158	H	0.859617	0.975981	-0.274833
H159	H	0.437642	0.413850	-0.715045
H160	H	0.937642	0.913850	-0.215045
C161	C	0.371568	0.779717	-0.647635
C162	C	0.871568	1.279717	-0.147635
H163	H	0.405805	0.818677	-0.683521
H164	H	0.905805	1.318677	-0.183521
H165	H	0.340263	0.754401	-0.697290
H166	H	0.840263	1.254401	-0.197290
H167	H	0.341199	0.824978	-0.616289
H168	H	0.841199	1.324978	-0.116289
C169	C	0.538300	0.703962	-0.454806
C170	C	1.038300	1.203962	0.045194
H171	H	0.514097	0.769519	-0.445614
H172	H	1.014097	1.269519	0.054386
H173	H	0.533158	0.647153	-0.397020
H174	H	1.033158	1.147153	0.102980
H175	H	0.590288	0.707082	-0.456624
H176	H	1.090288	1.207082	0.043376
H177	H	0.509725	0.755157	-0.626067
H178	H	1.009725	1.255157	-0.126067
H179	H	0.510873	0.623871	-0.755933
H180	H	1.010873	1.123871	-0.255933
