data_functionalizedCrystal
_audit_creation_method	'MofGen! by Chris Wilmer'
_symmetry_space_group_name_H-M	'P1'
_symmetry_Int_Tables_number	1
_symmetry_cell_setting	triclinic
loop_
_symmetry_equiv_pos_as_xyz
  x,y,z
_cell_length_a	17.038272
_cell_length_b	15.500227
_cell_length_c	17.699083
_cell_angle_alpha	87.178547
_cell_angle_beta	87.197286
_cell_angle_gamma	93.043705
loop_
_atom_site_label
_atom_site_type_symbol
_atom_site_fract_x
_atom_site_fract_y
_atom_site_fract_z
O1	O	1.040737	0.071839	0.161061
O2	O	1.374070	0.405172	0.494394
O3	O	1.707404	0.738505	0.827728
O4	O	0.813112	0.071864	0.158450
O5	O	1.146445	0.405197	0.491784
O6	O	1.479778	0.738531	0.825117
O7	O	0.933355	0.071843	0.049992
O8	O	1.266688	0.405176	0.383326
O9	O	1.600022	0.738510	0.716659
O10	O	0.920494	0.071860	0.269519
O11	O	1.253827	0.405193	0.602852
O12	O	1.587160	0.738526	0.936186
O13	O	0.926058	-0.072044	0.056546
O14	O	1.259392	0.261289	0.389880
O15	O	1.592725	0.594622	0.723213
O16	O	0.805815	-0.072023	0.165004
O17	O	1.139148	0.261310	0.498338
O18	O	1.472482	0.594643	0.831671
O19	O	1.033440	-0.072049	0.167615
O20	O	1.366774	0.261285	0.500948
O21	O	1.700107	0.594618	0.834282
Cu22	Cu	0.918962	-0.085174	0.166908
Cu23	Cu	1.252295	0.248159	0.500241
Cu24	Cu	1.585628	0.581493	0.833575
Cu25	Cu	0.927591	0.084989	0.159157
Cu26	Cu	1.260924	0.418323	0.492491
Cu27	Cu	1.594257	0.751656	0.825824
O28	O	0.913197	-0.072028	0.276073
O29	O	1.246530	0.261306	0.609406
O30	O	1.579864	0.594639	0.942740
C31	C	0.780339	-0.000076	0.159354
C32	C	1.113673	0.333257	0.492687
C33	C	1.447006	0.666590	0.826021
C34	C	0.693558	-0.000067	0.152273
C35	C	1.026892	0.333266	0.485606
C36	C	1.360225	0.666600	0.818939
N37	N	0.912898	-0.204858	0.172359
N38	N	1.246231	0.128475	0.505693
N39	N	1.579565	0.461809	0.839026
C40	C	0.643338	-0.000063	0.217283
C41	C	0.976672	0.333271	0.550616
C42	C	1.310005	0.666604	0.883949
C43	C	0.561798	-0.000075	0.210626
C44	C	0.895131	0.333258	0.543959
C45	C	1.228465	0.666591	0.877292
C46	C	0.530480	-0.000086	0.138957
C47	C	0.863813	0.333248	0.472291
C48	C	1.197146	0.666581	0.805624
C49	C	0.580706	-0.000093	0.073943
C50	C	0.914039	0.333241	0.407276
C51	C	1.247372	0.666574	0.740609
C52	C	0.662244	-0.000086	0.080601
C53	C	0.995577	0.333247	0.413934
C54	C	1.328911	0.666580	0.747267
C55	C	0.284759	-0.000111	0.115436
C56	C	0.618092	0.333223	0.448769
C57	C	0.951425	0.666556	0.782102
C58	C	0.203214	-0.000114	0.108782
C59	C	0.536547	0.333219	0.442116
C60	C	0.869881	0.666552	0.775449
C61	C	0.184312	-0.000099	0.245466
C62	C	0.517645	0.333235	0.578800
C63	C	0.850979	0.666568	0.912133
C64	C	0.265853	-0.000087	0.252118
C65	C	0.599186	0.333246	0.585451
C66	C	0.932520	0.666580	0.918784
C67	C	0.316072	-0.000099	0.187103
C68	C	0.649405	0.333235	0.520436
C69	C	0.982738	0.666568	0.853770
C70	C	0.447133	-0.000096	0.132151
C71	C	0.780466	0.333238	0.465484
C72	C	1.113799	0.666571	0.798818
C73	C	0.399417	-0.000095	0.193910
C74	C	0.732750	0.333239	0.527244
C75	C	1.066083	0.666572	0.860577
C76	C	0.963867	-0.250144	0.126421
C77	C	1.297200	0.083190	0.459754
C78	C	1.630534	0.416523	0.793088
C79	C	0.959288	-0.340716	0.130551
C80	C	1.292622	-0.007382	0.463885
C81	C	1.625955	0.325951	0.797218
C82	C	0.903744	-0.386000	0.180624
C83	C	1.237077	-0.052667	0.513957
C84	C	1.570411	0.280666	0.847291
C85	C	0.852770	-0.340709	0.226564
C86	C	1.186103	-0.007375	0.559897
C87	C	1.519436	0.325958	0.893231
C88	C	0.857345	-0.250138	0.222430
C89	C	1.190678	0.083195	0.555763
C90	C	1.524012	0.416529	0.889096
C91	C	0.887261	-0.659464	0.195506
C92	C	1.220595	-0.326131	0.528839
C93	C	1.553928	0.007202	0.862173
C94	C	0.882691	-0.750041	0.199639
C95	C	1.216025	-0.416708	0.532972
C96	C	1.549358	-0.083375	0.866305
C97	C	0.989210	-0.750042	0.103624
C98	C	1.322543	-0.416709	0.436958
C99	C	1.655876	-0.083375	0.770291
C100	C	0.993783	-0.659470	0.099497
C101	C	1.327117	-0.326136	0.432831
C102	C	1.660450	0.007197	0.766164
C103	C	0.942806	-0.614186	0.145435
C104	C	1.276140	-0.280853	0.478768
C105	C	1.609473	0.052481	0.812101
C106	C	0.899064	-0.478580	0.184849
C107	C	1.232398	-0.145246	0.518182
C108	C	1.565731	0.188087	0.851515
C109	C	0.947483	-0.521608	0.141206
C110	C	1.280816	-0.188275	0.474539
C111	C	1.614149	0.145058	0.807872
C112	C	1.066213	-0.000106	0.166711
C113	C	1.399546	0.333227	0.500045
C114	C	1.732880	0.666560	0.833378
C115	C	1.152994	-0.000110	0.173792
C116	C	1.486327	0.333223	0.507126
C117	C	1.819661	0.666557	0.840459
C118	C	0.929246	-0.000101	0.025042
C119	C	1.262579	0.333233	0.358375
C120	C	1.595912	0.666566	0.691709
C121	C	0.927863	-0.000101	-0.059068
C122	C	1.261196	0.333232	0.274266
C123	C	1.594530	0.666566	0.607599
N124	N	0.933660	0.204673	0.153700
N125	N	1.266994	0.538007	0.487034
N126	N	1.600327	0.871340	0.820367
C127	C	0.998444	-0.000110	-0.103018
C128	C	1.331777	0.333223	0.230315
C129	C	1.665110	0.666557	0.563649
C130	C	0.997140	-0.000102	-0.182048
C131	C	1.330473	0.333231	0.151285
C132	C	1.663807	0.666564	0.484619
C133	C	0.925255	-0.000092	-0.217126
C134	C	1.258589	0.333242	0.116208
C135	C	1.591922	0.666575	0.449541
C136	C	0.854670	-0.000080	-0.173170
C137	C	1.188003	0.333253	0.160164
C138	C	1.521336	0.666587	0.493497
C139	C	0.855974	-0.000081	-0.094142
C140	C	1.189307	0.333252	0.239192
C141	C	1.522641	0.666585	0.572525
C142	C	0.849407	-0.000072	-0.491881
C143	C	1.182740	0.333261	-0.158548
C144	C	1.516074	0.666594	0.174785
C145	C	0.848108	-0.000073	-0.570915
C146	C	1.181441	0.333260	-0.237582
C147	C	1.514775	0.666593	0.095751
C148	C	0.990573	-0.000093	-0.579788
C149	C	1.323906	0.333240	-0.246454
C150	C	1.657240	0.666574	0.086879
C151	C	0.991878	-0.000095	-0.500759
C152	C	1.325211	0.333239	-0.167426
C153	C	1.658544	0.666572	0.165907
C154	C	0.921293	-0.000078	-0.456811
C155	C	1.254626	0.333255	-0.123477
C156	C	1.587959	0.666588	0.209856
C157	C	0.922707	-0.000085	-0.371118
C158	C	1.256040	0.333248	-0.037784
C159	C	1.589374	0.666581	0.295549
C160	C	0.923840	-0.000091	-0.302817
C161	C	1.257173	0.333242	0.030516
C162	C	1.590507	0.666576	0.363850
C163	C	0.917306	-0.000082	0.301023
C164	C	1.250640	0.333251	0.634357
C165	C	1.583973	0.666585	0.967690
C166	C	0.918689	-0.000076	0.385133
C167	C	1.252023	0.333257	0.718466
C168	C	1.585356	0.666591	1.051799
H169	H	0.668831	-0.000054	0.275643
H170	H	1.002164	0.333280	0.608976
H171	H	1.335498	0.666613	0.942309
F172	F	1.013534	-0.388912	0.081658
F173	F	1.346867	-0.055579	0.414991
F174	F	1.680201	0.277755	0.748325
F175	F	1.052900	-0.611276	0.046206
F176	F	1.386233	-0.277942	0.379539
F177	F	1.719567	0.055391	0.712872
F178	F	1.043457	-0.798242	0.054736
F179	F	1.376791	-0.464908	0.388070
F180	F	1.710124	-0.131575	0.721403
H181	H	0.421623	-0.000129	0.073799
H182	H	0.754956	0.333205	0.407133
H183	H	1.088289	0.666538	0.740466
H184	H	0.520912	-0.000071	0.263564
H185	H	0.854245	0.333263	0.596897
H186	H	1.187579	0.666596	0.930231
H187	H	0.291347	-0.000069	0.310477
H188	H	0.624680	0.333265	0.643810
H189	H	0.958013	0.666598	0.977144
F190	F	1.022989	-0.201957	0.073130
F191	F	1.356322	0.131377	0.406463
F192	F	1.689656	0.464710	0.739797
F193	F	1.072262	-0.000114	-0.228820
F194	F	1.405595	0.333220	0.104514
F195	F	1.738928	0.666553	0.437847
F196	F	0.839952	-0.526780	0.238141
F197	F	1.173285	-0.193447	0.571474
F198	F	1.506618	0.139887	0.904807
H199	H	0.815840	-0.213267	0.259836
H200	H	1.149173	0.120066	0.593170
H201	H	1.482507	0.453399	0.926503
H202	H	1.050413	-0.000108	-0.472203
H203	H	1.383747	0.333226	-0.138870
H204	H	1.717080	0.666559	0.194463
F205	F	0.823571	-0.798231	0.252938
F206	F	1.156904	-0.464898	0.586271
F207	F	1.490237	-0.131564	0.919604
H208	H	1.056980	-0.000124	-0.074463
H209	H	1.390314	0.333209	0.258870
H210	H	1.723647	0.666543	0.592203
H211	H	0.177718	-0.000122	0.050418
H212	H	0.511052	0.333211	0.383752
H213	H	0.844385	0.666545	0.717085
H214	H	1.048047	-0.000102	-0.615581
H215	H	1.381380	0.333231	-0.282247
H216	H	1.714714	0.666565	0.051086
H217	H	0.789567	-0.000066	-0.599473
H218	H	1.122900	0.333267	-0.266139
H219	H	1.456234	0.666600	0.067194
H220	H	0.325638	-0.000121	0.062496
H221	H	0.658971	0.333213	0.395829
H222	H	0.992304	0.666546	0.729162
F223	F	0.833011	-0.611277	0.244397
F224	F	1.166344	-0.277944	0.577731
F225	F	1.499677	0.055390	0.911064
F226	F	0.793651	-0.388905	0.279852
F227	F	1.126984	-0.055571	0.613186
F228	F	1.460317	0.277762	0.946519
F229	F	1.006592	-0.473412	0.087913
F230	F	1.339926	-0.140079	0.421246
F231	F	1.673259	0.193255	0.754580
F232	F	0.774284	-0.000053	-0.445118
F233	F	1.107617	0.333281	-0.111784
F234	F	1.440951	0.666614	0.221549
H235	H	0.143415	-0.000091	0.298397
H236	H	0.476749	0.333242	0.631731
H237	H	0.810082	0.666576	0.965064
F238	F	0.778164	-0.000059	-0.210505
F239	F	1.111498	0.333275	0.122829
F240	F	1.444831	0.666608	0.456162
H241	H	0.555199	-0.000114	0.015589
H242	H	0.888533	0.333220	0.348922
H243	H	1.221866	0.666553	0.682256
F244	F	0.780853	-0.000069	-0.047367
F245	F	1.114186	0.333264	0.285967
F246	F	1.447520	0.666597	0.619300
H247	H	0.424920	-0.000091	0.252263
H248	H	0.758253	0.333242	0.585596
H249	H	1.091586	0.666576	0.918929
F250	F	0.715692	-0.000094	0.011408
F251	F	1.049025	0.333239	0.344741
F252	F	1.382359	0.666573	0.678074
