data_functionalizedCrystal
_audit_creation_method	'MofGen! by Chris Wilmer'
_symmetry_space_group_name_H-M	'P1'
_symmetry_Int_Tables_number	1
_symmetry_cell_setting	triclinic
loop_
_symmetry_equiv_pos_as_xyz
  x,y,z
_cell_length_a	10.654550
_cell_length_b	23.532407
_cell_length_c	9.730223
_cell_angle_alpha	89.987127
_cell_angle_beta	89.999957
_cell_angle_gamma	83.666839
loop_
_atom_site_label
_atom_site_type_symbol
_atom_site_fract_x
_atom_site_fract_y
_atom_site_fract_z
O1	O	1.665305	0.079985	-0.114216
O2	O	1.299585	0.087605	-0.114244
O3	O	1.493473	0.000935	-0.114191
O4	O	1.471417	0.166655	-0.114269
O5	O	1.493461	0.000933	0.114389
O6	O	1.299573	0.087603	0.114336
O7	O	1.665293	0.079982	0.114364
Zn8	Zn	1.482431	0.083792	0.150642
Zn9	Zn	1.482447	0.083795	-0.150522
O10	O	1.471405	0.166652	0.114311
C11	C	1.252799	0.087044	0.000043
C12	C	1.113408	0.085370	0.000034
C13	C	1.492905	-0.020286	0.000106
C14	C	1.491217	-0.083514	0.000127
C15	C	1.032306	0.136400	0.000014
C16	C	0.901335	0.134824	0.000039
C17	C	0.932582	0.031183	0.000098
C18	C	1.063550	0.032760	0.000083
C19	C	1.369514	-0.350474	0.000032
C20	C	1.371082	-0.291064	0.000043
O21	O	1.274537	-0.254948	-0.000008
N22	N	1.486349	-0.267686	0.000067
C23	C	1.600054	-0.303723	0.000067
O24	O	1.698241	-0.278384	0.000088
C25	C	1.598484	-0.363132	0.000047
C26	C	1.483210	-0.386506	0.000036
C27	C	1.254249	-0.373848	0.000020
C28	C	1.252681	-0.433255	0.000012
C29	C	1.366377	-0.469287	0.000016
C30	C	1.481642	-0.445913	0.000028
C31	C	1.712188	-0.399168	0.000037
C32	C	1.710608	-0.458581	0.000015
C33	C	1.595334	-0.481955	0.000005
C34	C	1.593770	-0.541351	0.000024
N35	N	1.478504	-0.564728	-0.000001
C36	C	1.364807	-0.528696	-0.000005
C37	C	1.603342	-0.178959	0.000108
C38	C	1.604914	-0.119551	0.000138
C39	C	1.375941	-0.106896	0.000111
C40	C	1.374371	-0.166305	0.000091
C41	C	1.488076	-0.202336	0.000083
C42	C	1.361523	-0.653454	-0.000021
C43	C	1.359965	-0.712867	-0.000023
C44	C	1.588936	-0.725517	-0.000003
C45	C	1.590495	-0.666110	0.000006
C46	C	1.476778	-0.630079	-0.000007
O47	O	1.690265	-0.577502	0.000069
O48	O	1.266636	-0.554044	-0.000044
C49	C	1.712079	0.080543	0.000074
C50	C	1.851469	0.082217	0.000074
C51	C	1.471972	0.187873	0.000011
C52	C	1.473661	0.251101	-0.000019
N53	N	1.482429	0.083790	0.356178
N54	N	1.482459	0.083793	-0.356058
C55	C	1.568311	0.045429	0.428128
C56	C	1.568324	0.045429	0.572011
C57	C	1.396567	0.122156	0.571982
C58	C	1.396550	0.122153	0.428102
H59	H	1.072896	0.179239	-0.000016
H60	H	1.698781	-0.100526	0.000168
H61	H	1.326648	0.153392	0.630556
F62	F	0.879507	-0.024805	0.000144
F63	F	1.305133	0.162982	0.351522
H64	H	0.835306	0.176378	0.000025
F65	F	1.133226	-0.335508	0.000011
F66	F	1.831632	-0.496925	0.000002
F67	F	1.724371	-0.217302	0.000114
F68	F	1.251683	-0.191175	0.000077
H69	H	1.129588	-0.008797	0.000104
F70	F	1.237269	-0.737739	-0.000031
H71	H	1.268923	-0.624125	-0.000032
H72	H	1.158813	-0.452280	-0.000009
H73	H	1.283364	-0.077547	0.000109
H74	H	1.806056	-0.380148	0.000044
H75	H	1.684360	-0.647078	0.000035
H76	H	1.638237	0.014190	0.369571
F77	F	1.709934	-0.763875	0.000011
F78	F	1.659728	0.004599	0.648580
