data_functionalizedCrystal
_audit_creation_method	'MofGen! by Chris Wilmer'
_symmetry_space_group_name_H-M	'P1'
_symmetry_Int_Tables_number	1
_symmetry_cell_setting	triclinic
loop_
_symmetry_equiv_pos_as_xyz
  x,y,z
_cell_length_a	11.026623
_cell_length_b	10.967931
_cell_length_c	10.065875
_cell_angle_alpha	69.185355
_cell_angle_beta	100.697799
_cell_angle_gamma	96.380029
loop_
_atom_site_label
_atom_site_type_symbol
_atom_site_fract_x
_atom_site_fract_y
_atom_site_fract_z
O1	O	-1.612962	-0.524760	0.009920
O2	O	-1.261407	-0.463316	-0.004532
O3	O	-1.452124	-0.308706	-0.040888
O4	O	-1.422245	-0.679370	0.046276
O5	O	-1.415752	-0.338339	0.193069
O6	O	-1.225036	-0.492950	0.229425
O7	O	-1.576590	-0.554393	0.243877
Zn8	Zn	-1.395038	-0.528376	0.273797
Zn9	Zn	-1.442959	-0.489333	-0.034452
O10	O	-1.385874	-0.709003	0.280233
C11	C	-1.198334	-0.466798	0.109781
C12	C	-1.064583	-0.433008	0.101833
C13	C	-1.434513	-0.275332	0.064755
C14	C	-1.436212	-0.131734	0.030979
C15	C	-0.988119	-0.526305	0.123772
C16	C	-0.849880	-0.491383	0.115558
C17	C	-0.639665	-0.550909	0.129561
C18	C	-0.773417	-0.584694	0.137500
C19	C	-1.419876	0.065350	0.102226
C20	C	-1.418125	-0.083065	0.137132
C21	C	-1.403486	0.257622	0.174589
C22	C	-1.401791	0.114025	0.208364
N23	N	-1.362343	-0.555024	0.484168
N24	N	-1.475665	-0.462678	-0.244825
C25	C	-1.431576	-0.498594	0.538678
C26	C	-1.406421	-0.519115	0.700671
H27	H	-1.024996	-0.632034	0.148642
F28	F	-1.458151	-0.042599	-0.121581
F29	F	-0.821602	-0.722901	0.170016
H30	H	-1.509468	-0.435085	0.465420
H31	H	-1.027710	-0.327275	0.076935
F32	F	-1.304593	-0.602117	0.796414
H33	H	-1.284442	-0.618521	0.557425
F34	F	-0.801689	-0.353180	0.083068
H35	H	-1.436664	0.133554	-0.014483
F36	F	-1.577684	-0.379930	0.659494
H37	H	-1.401349	-0.151266	0.253849
F38	F	-1.379865	0.024882	0.360916
