data_functionalizedCrystal
_audit_creation_method	'MofGen! by Chris Wilmer'
_symmetry_space_group_name_H-M	'P1'
_symmetry_Int_Tables_number	1
_symmetry_cell_setting	triclinic
loop_
_symmetry_equiv_pos_as_xyz
  x,y,z
_cell_length_a	10.908937
_cell_length_b	17.699083
_cell_length_c	16.176319
_cell_angle_alpha	89.999648
_cell_angle_beta	89.990360
_cell_angle_gamma	71.684485
loop_
_atom_site_label
_atom_site_type_symbol
_atom_site_fract_x
_atom_site_fract_y
_atom_site_fract_z
O1	O	1.704209	-0.116932	-0.068784
O2	O	2.204209	0.383068	0.431216
O3	O	1.330164	-0.057808	-0.068773
O4	O	1.830164	0.442192	0.431227
O5	O	1.527754	-0.198878	-0.068787
O6	O	2.027754	0.301122	0.431213
O7	O	1.506619	0.024138	-0.068770
O8	O	2.006619	0.524138	0.431230
O9	O	1.527727	-0.198882	0.068706
O10	O	2.027727	0.301118	0.568706
O11	O	1.330137	-0.057812	0.068720
O12	O	1.830137	0.442188	0.568720
O13	O	1.704182	-0.116936	0.068709
O14	O	2.204182	0.383064	0.568709
Cu15	Cu	1.517157	-0.087374	0.081269
Cu16	Cu	2.017157	0.412626	0.581269
Cu17	Cu	1.517189	-0.087370	-0.081333
Cu18	Cu	2.017189	0.412630	0.418667
O19	O	1.506592	0.024134	0.068723
O20	O	2.006592	0.524134	0.568723
C21	C	1.282292	-0.052284	-0.000026
C22	C	1.782292	0.447716	0.499974
C23	C	1.139689	-0.035829	-0.000022
C24	C	1.639689	0.464171	0.499978
C25	C	0.943482	-0.078872	-0.000040
C26	C	1.443482	0.421128	0.499960
C27	C	1.090869	-0.095880	-0.000031
C28	C	1.590869	0.404120	0.499969
C29	C	1.526983	-0.226982	-0.000044
C30	C	2.026983	0.273018	0.499956
C31	C	1.524711	-0.310717	-0.000056
C32	C	2.024711	0.189283	0.499944
C33	C	1.752054	-0.122460	-0.000041
C34	C	2.252054	0.377540	0.499959
C35	C	1.894657	-0.138915	-0.000049
C36	C	2.394657	0.361085	0.499951
N37	N	1.517144	-0.087379	0.195634
N38	N	2.017144	0.412621	0.695634
C39	C	1.507363	0.052238	-0.000022
C40	C	2.007363	0.552238	0.499978
C41	C	1.509635	0.135973	-0.000016
C42	C	2.009635	0.635973	0.499984
C43	C	1.393653	0.199066	-0.000013
C44	C	1.893653	0.699066	0.499987
C45	C	1.395796	0.277742	-0.000022
C46	C	1.895796	0.777742	0.499978
C47	C	1.513921	0.293323	-0.000029
C48	C	2.013921	0.793323	0.499971
C49	C	1.629911	0.230223	-0.000035
C50	C	2.129911	0.730223	0.499965
C51	C	1.627767	0.151549	-0.000031
C52	C	2.127767	0.651549	0.499969
C53	C	1.638559	0.547507	-0.000052
C54	C	2.138559	1.047507	0.499948
C55	C	1.640694	0.626189	-0.000053
C56	C	2.140694	1.126189	0.499947
C57	C	1.406588	0.673700	-0.000043
C58	C	1.906588	1.173700	0.499957
C59	C	1.404444	0.595026	-0.000039
C60	C	1.904444	1.095026	0.499961
C61	C	1.520433	0.531933	-0.000049
C62	C	2.020433	1.031933	0.499951
C63	C	1.518109	0.446623	-0.000040
C64	C	2.018109	0.946623	0.499960
C65	C	1.516247	0.378631	-0.000033
C66	C	2.016247	0.878631	0.499967
N67	N	1.517212	-0.087372	-0.195698
N68	N	2.017212	0.412628	0.304302
C69	C	1.604663	-0.149827	0.238892
C70	C	2.104663	0.350173	0.738892
C71	C	1.604670	-0.149829	0.325439
C72	C	2.104670	0.350171	0.825439
C73	C	1.517162	-0.087379	0.368726
C74	C	2.017162	0.412621	0.868726
C75	C	1.429633	-0.024927	0.325462
C76	C	1.929633	0.475073	0.825462
C77	C	1.429622	-0.024929	0.238917
C78	C	1.929622	0.475071	0.738917
C79	C	1.429677	-0.024919	0.674491
C80	C	1.929677	0.475081	1.174491
C81	C	1.429698	-0.024920	0.761042
C82	C	1.929698	0.475080	1.261042
C83	C	1.604725	-0.149818	0.761013
C84	C	2.104725	0.350182	1.261013
C85	C	1.604713	-0.149820	0.674467
C86	C	2.104713	0.350180	1.174467
C87	C	1.517181	-0.087371	0.631211
C88	C	2.017181	0.412629	1.131211
C89	C	1.517173	-0.087371	0.537366
C90	C	2.017173	0.412629	1.037366
C91	C	1.517175	-0.087376	0.462569
C92	C	2.017175	0.412624	0.962569
H93	H	1.297462	0.186388	0.000003
H94	H	1.797462	0.686388	0.500003
H95	H	1.301352	0.329111	-0.000022
H96	H	1.801352	0.829111	0.499978
C97	C	0.985575	-0.225371	-0.000055
C98	C	1.485575	0.274629	0.499945
H99	H	0.935831	-0.260836	-0.000069
H100	H	1.435831	0.239164	0.499931
H101	H	1.038474	-0.234314	0.047892
H102	H	1.538474	0.265686	0.547892
H103	H	1.038499	-0.234306	-0.048008
H104	H	1.538499	0.265694	0.451992
C105	C	1.048777	0.050633	-0.000022
C106	C	1.548777	0.550633	0.499978
H107	H	1.098524	0.086096	-0.000021
H108	H	1.598524	0.586096	0.499979
H109	H	0.995842	0.059574	0.047920
H110	H	1.495842	0.559574	0.547920
H111	H	0.995890	0.059571	-0.047980
H112	H	1.495890	0.559571	0.452020
H113	H	1.158180	-0.159881	-0.000038
H114	H	1.658180	0.340119	0.499962
C115	C	1.759849	0.247357	-0.000042
C116	C	2.259849	0.747357	0.499958
H117	H	1.828617	0.198511	-0.000050
H118	H	2.328617	0.698511	0.499950
H119	H	1.765543	0.277062	0.047904
H120	H	2.265543	0.777062	0.547904
H121	H	1.765561	0.277057	-0.047995
H122	H	2.265561	0.777057	0.452005
C123	C	1.700953	-0.218516	0.373019
C124	C	2.200953	0.281484	0.873019
H125	H	1.753080	-0.255703	0.334844
H126	H	2.253080	0.244297	0.834844
H127	H	1.654864	-0.244242	0.406793
H128	H	2.154864	0.255758	0.906793
H129	H	1.754339	-0.197978	0.406767
H130	H	2.254339	0.302022	0.906767
H131	H	1.675995	-0.200670	0.796241
H132	H	2.175995	0.299330	1.296241
H133	H	1.308254	0.582345	-0.000029
H134	H	1.808254	1.082345	0.499971
H135	H	1.722211	0.100177	-0.000038
H136	H	2.222211	0.600177	0.499962
C137	C	0.852563	0.007585	-0.000045
C138	C	1.352563	0.507585	0.499955
H139	H	0.902308	0.043050	-0.000045
H140	H	1.402308	0.543050	0.499955
H141	H	0.799624	0.016529	0.047896
H142	H	1.299624	0.516529	0.547896
H143	H	0.799680	0.016519	-0.048004
H144	H	1.299680	0.516519	0.451996
H145	H	1.358377	0.025919	0.360712
H146	H	1.858377	0.525919	0.860712
C147	C	1.278999	0.743104	-0.000045
C148	C	1.778999	1.243104	0.499955
H149	H	1.297187	0.792193	-0.000058
H150	H	1.797187	1.292193	0.499942
H151	H	1.230542	0.739977	0.047905
H152	H	1.730542	1.239977	0.547905
H153	H	1.230565	0.739964	-0.047995
H154	H	1.730565	1.239964	0.452005
H155	H	1.358434	0.025936	0.796285
H156	H	1.858434	0.525936	1.296285
H157	H	1.675974	-0.200671	0.639225
H158	H	2.175974	0.299329	1.139225
H159	H	1.358408	0.025931	0.639278
H160	H	1.858408	0.525931	1.139278
C161	C	1.770638	0.643326	-0.000069
C162	C	2.270638	1.143326	0.499931
H163	H	1.839411	0.594483	-0.000083
H164	H	2.339411	1.094483	0.499917
H165	H	1.776337	0.673031	0.047876
H166	H	2.276337	1.173031	0.547876
H167	H	1.776334	0.673029	-0.048024
H168	H	2.276334	1.173029	0.451976
C169	C	1.333356	0.043763	0.191329
C170	C	1.833356	0.543763	0.691329
H171	H	1.345873	0.034814	0.133586
H172	H	1.845873	0.534814	0.633586
H173	H	1.347141	0.092548	0.205505
H174	H	1.847141	0.592548	0.705505
H175	H	1.247651	0.046294	0.205529
H176	H	1.747651	0.546294	0.705529
C177	C	1.766142	0.478116	-0.000049
C178	C	2.266142	0.978116	0.499951
H179	H	1.836796	0.498666	-0.000043
H180	H	2.336796	0.998666	0.499957
H181	H	1.770194	0.446430	-0.047994
H182	H	2.270194	0.946430	0.452006
H183	H	1.770159	0.446444	0.047906
H184	H	2.270159	0.946444	0.547906
H185	H	1.675927	-0.200679	0.203653
H186	H	2.175927	0.299321	0.703653
