data_functionalizedCrystal
_audit_creation_method	'MofGen! by Chris Wilmer'
_symmetry_space_group_name_H-M	'P1'
_symmetry_Int_Tables_number	1
_symmetry_cell_setting	triclinic
loop_
_symmetry_equiv_pos_as_xyz
  x,y,z
_cell_length_a	19.805407
_cell_length_b	12.827892
_cell_length_c	19.805399
_cell_angle_alpha	90.019631
_cell_angle_beta	89.975799
_cell_angle_gamma	89.983422
loop_
_atom_site_label
_atom_site_type_symbol
_atom_site_fract_x
_atom_site_fract_y
_atom_site_fract_z
Zn1	Zn	1.034778	0.416078	-0.382841
Zn2	Zn	1.034711	0.590833	-0.269668
Zn3	Zn	0.921593	0.416105	-0.269656
Zn4	Zn	0.921575	0.590776	-0.382806
O5	O	0.978164	0.503448	-0.326243
O6	O	1.129486	0.439273	-0.367848
O7	O	1.019685	0.567691	-0.174950
O8	O	0.936643	0.269865	-0.284680
O9	O	1.129437	0.567665	-0.284700
O10	O	1.019800	0.269846	-0.367836
O11	O	0.936578	0.439318	-0.174941
O12	O	0.826874	0.439262	-0.284646
O13	O	0.936612	0.567566	-0.477527
O14	O	0.826860	0.567592	-0.367776
O15	O	1.019782	0.439217	-0.477553
O16	O	1.019667	0.737062	-0.284666
O17	O	0.936546	0.737019	-0.367788
C18	C	0.802308	0.503424	-0.326207
C19	C	0.727076	0.503440	-0.326207
C20	C	0.978116	0.774958	-0.326240
C21	C	0.978157	0.891111	-0.326261
C22	C	0.265296	0.570395	-0.369504
C23	C	0.335984	0.570393	-0.369490
C24	C	0.371315	0.503473	-0.326269
C25	C	0.335953	0.436558	-0.283055
C26	C	0.265266	0.436566	-0.283066
C27	C	0.621026	0.436526	-0.283007
C28	C	0.691718	0.436521	-0.283001
C29	C	0.691745	0.570354	-0.369431
C30	C	0.621058	0.570361	-0.369442
C31	C	0.585702	0.503451	-0.326226
C32	C	0.509054	0.503455	-0.326241
C33	C	0.447962	0.503463	-0.326257
C34	C	1.019336	0.942882	-0.285177
C35	C	1.019379	1.062932	-0.285198
C36	C	1.154707	0.503472	-0.326279
C37	C	1.229939	0.503483	-0.326295
C38	C	0.978202	0.503382	-0.502785
C39	C	0.978218	0.503354	-0.578017
C40	C	0.978226	1.230878	-0.326269
C41	C	0.978238	1.114725	-0.326301
C42	C	1.021526	0.436519	-0.613376
C43	C	1.021533	0.436489	-0.684065
C44	C	0.978235	0.503300	-0.719393
C45	C	0.934923	0.570137	-0.684030
C46	C	0.934913	0.570162	-0.613342
C47	C	0.934961	0.570040	-0.969103
C48	C	0.934975	0.570013	-1.039795
C49	C	1.021581	0.436367	-1.039825
C50	C	1.021571	0.436392	-0.969138
C51	C	0.978257	0.503225	-0.933781
C52	C	0.978249	0.503256	-0.857132
C53	C	0.978246	0.503275	-0.796040
C54	C	0.978165	0.503438	-0.150387
C55	C	0.978280	0.503172	-0.075155
H56	H	0.236535	0.624884	-0.404703
N57	N	0.582955	0.642547	-0.416056
H58	H	0.553605	0.690916	-0.388497
H59	H	0.553688	0.600075	-0.447464
N60	N	1.068300	0.364277	-1.077960
H61	H	1.061737	0.374392	-1.128101
H62	H	1.057784	0.289646	-1.065605
N63	N	0.227126	0.364405	-0.236458
H64	H	0.239437	0.289755	-0.247042
H65	H	0.176998	0.374663	-0.243045
H66	H	0.942938	0.935664	-0.361453
H67	H	0.899714	0.624420	-1.068558
H68	H	0.720540	0.624838	-0.404618
N69	N	1.068231	0.364465	-0.575274
H70	H	1.095666	0.322120	-0.608403
H71	H	1.040689	0.316110	-0.545940
H72	H	1.054561	0.898331	-0.249990
N73	N	0.888223	0.642087	-0.930973
H74	H	0.860791	0.684396	-0.964081
H75	H	0.915732	0.690476	-0.901633
H76	H	0.899666	0.624532	-0.712800
H77	H	1.056800	0.382068	-0.712850
H78	H	1.054632	1.107454	-0.250023
N79	N	0.888196	0.642237	-0.575202
H80	H	0.860768	0.684558	-0.608307
H81	H	0.915726	0.690615	-0.545873
N82	N	0.729827	0.364334	-0.236386
H83	H	0.696704	0.321947	-0.209010
H84	H	0.759136	0.406805	-0.205017
H85	H	1.056831	0.381991	-0.940377
N86	N	0.374120	0.642568	-0.416090
H87	H	0.341013	0.684959	-0.443474
H88	H	0.403476	0.600093	-0.447453
H89	H	0.592248	0.382047	-0.247816
N90	N	0.374051	0.364377	-0.236435
H91	H	0.403357	0.406777	-0.205020
H92	H	0.403361	0.316012	-0.264037
N93	N	0.931532	1.055761	-0.372891
H94	H	0.959028	1.010407	-0.404251
H95	H	0.904090	1.106887	-0.400278
