data_functionalizedCrystal
_audit_creation_method	'MofGen! by Chris Wilmer'
_symmetry_space_group_name_H-M	'P1'
_symmetry_Int_Tables_number	1
_symmetry_cell_setting	triclinic
loop_
_symmetry_equiv_pos_as_xyz
  x,y,z
_cell_length_a	16.109301
_cell_length_b	16.974813
_cell_length_c	14.586319
_cell_angle_alpha	86.341649
_cell_angle_beta	89.998857
_cell_angle_gamma	83.428501
loop_
_atom_site_label
_atom_site_type_symbol
_atom_site_fract_x
_atom_site_fract_y
_atom_site_fract_z
O1	O	1.103043	0.101635	-0.083729
O2	O	0.860971	0.114283	-0.084680
O3	O	0.988755	-0.007146	-0.075660
O4	O	0.975259	0.223064	-0.092749
O5	O	0.988747	-0.007148	0.076821
O6	O	0.860962	0.114281	0.067801
O7	O	1.103035	0.101633	0.068752
Cu8	Cu	0.981997	0.107957	0.082199
Cu9	Cu	0.982008	0.107959	-0.098127
O10	O	0.975250	0.223062	0.059732
C11	C	0.829992	0.113769	-0.008403
C12	C	0.737698	0.112233	-0.008294
C13	C	0.428642	0.179265	-0.013254
C14	C	0.515361	0.180716	-0.013367
C15	C	0.535358	0.036645	-0.002684
C16	C	0.448640	0.035195	-0.002578
C17	C	0.395284	0.106508	-0.007858
C18	C	0.568721	0.109408	-0.008078
C19	C	0.662746	0.110980	-0.008200
C20	C	0.301254	0.104935	-0.007738
C21	C	0.988238	-0.036606	0.002765
C22	C	0.986698	-0.124382	0.009275
C23	C	0.985981	-0.165614	-0.070783
C24	C	0.984529	-0.248089	-0.064664
C25	C	0.983799	-0.289330	0.021515
C26	C	0.984514	-0.248092	0.101579
C27	C	0.985960	-0.165618	0.095459
C28	C	0.979468	-0.535990	0.048733
C29	C	0.978024	-0.618470	0.054847
C30	C	0.978038	-0.618461	-0.111397
C31	C	0.979489	-0.535986	-0.117510
C32	C	0.980199	-0.494755	-0.037445
N33	N	0.982318	-0.373633	0.027772
N34	N	0.981675	-0.410453	-0.043704
C35	C	1.134013	0.102146	-0.007527
C36	C	1.226307	0.103682	-0.007642
C37	C	0.975768	0.252521	-0.018696
C38	C	0.977308	0.340298	-0.025211
N39	N	0.981996	0.107955	0.209031
N40	N	0.982016	0.107955	-0.224959
C41	C	1.038598	0.054204	0.448030
C42	C	1.038600	0.054202	0.544012
C43	C	0.925408	0.161708	0.536035
C44	C	0.925402	0.161705	0.440056
C45	C	0.982002	0.107954	0.396056
C46	C	0.982010	0.107955	0.588016
C47	C	0.982012	0.107953	0.692084
C48	C	0.981999	0.107955	0.291982
H49	H	0.542516	0.239963	-0.017762
H50	H	0.879311	0.205476	0.397735
H51	H	0.983949	-0.281657	-0.129856
H52	H	0.578811	-0.021416	0.001617
O53	O	0.376778	0.248514	-0.018230
C54	C	0.326001	0.251979	0.060472
H55	H	0.357805	0.211537	0.118671
H56	H	0.316175	0.315673	0.082251
H57	H	0.262965	0.231529	0.044134
O58	O	0.416370	-0.035556	0.002710
C59	C	0.482056	-0.098188	0.007333
H60	H	0.540942	-0.076043	0.034561
H61	H	0.463988	-0.148990	0.055367
H62	H	0.494355	-0.120176	-0.064190
O63	O	0.986651	-0.125673	-0.154572
C64	C	0.985727	-0.179758	-0.223920
H65	H	0.958386	-0.235268	-0.195432
H66	H	0.945803	-0.150898	-0.284197
H67	H	1.052242	-0.196840	-0.248207
O68	O	0.986769	-0.125494	0.173167
C69	C	1.059582	-0.086773	0.175293
H70	H	1.083802	-0.077401	0.102434
H71	H	1.044404	-0.026762	0.206022
H72	H	1.109417	-0.124842	0.219141
O73	O	1.093506	0.002032	0.405143
C74	C	1.081336	0.013523	0.309285
H75	H	1.050241	0.076394	0.291493
H76	H	1.144292	0.004680	0.273439
H77	H	1.039638	-0.031214	0.285410
O78	O	0.980155	-0.496043	-0.201298
C79	C	0.979232	-0.550125	-0.270650
H80	H	0.951890	-0.605636	-0.242166
H81	H	0.939309	-0.521262	-0.330927
H82	H	1.045747	-0.567206	-0.294935
H83	H	0.977458	-0.652040	-0.176581
H84	H	0.977426	-0.652047	0.125028
H85	H	0.980063	-0.502432	0.113927
H86	H	1.084685	0.010433	0.586327
O87	O	0.983843	-0.288279	0.185222
C88	C	0.982397	-0.369913	0.173459
H89	H	1.008509	-0.384453	0.103103
H90	H	1.022194	-0.406286	0.229243
H91	H	0.915320	-0.385010	0.178520
H92	H	0.879327	0.205472	0.571869
