data_functionalizedCrystal
_audit_creation_method	'MofGen! by Chris Wilmer'
_symmetry_space_group_name_H-M	'P1'
_symmetry_Int_Tables_number	1
_symmetry_cell_setting	triclinic
loop_
_symmetry_equiv_pos_as_xyz
  x,y,z
_cell_length_a	19.288867
_cell_length_b	14.853559
_cell_length_c	17.766277
_cell_angle_alpha	89.995835
_cell_angle_beta	89.992126
_cell_angle_gamma	83.384261
loop_
_atom_site_label
_atom_site_type_symbol
_atom_site_fract_x
_atom_site_fract_y
_atom_site_fract_z
O1	O	0.921729	0.112473	-0.062564
O2	O	1.421729	0.612473	0.437436
O3	O	0.719519	0.127643	-0.062571
O4	O	1.219519	0.627643	0.437429
O5	O	0.826029	-0.011203	-0.062567
O6	O	1.326029	0.488797	0.437433
O7	O	0.815220	0.251319	-0.062569
O8	O	1.315220	0.751319	0.437431
O9	O	0.826010	-0.011210	0.062622
O10	O	1.326010	0.488790	0.562622
O11	O	0.719501	0.127636	0.062617
O12	O	1.219501	0.627636	0.562617
O13	O	0.921710	0.112466	0.062624
O14	O	1.421710	0.612466	0.562624
Cu15	Cu	0.820604	0.120050	0.074052
Cu16	Cu	1.320604	0.620050	0.574052
Cu17	Cu	0.820626	0.120059	-0.073998
Cu18	Cu	1.320626	0.620059	0.426002
O19	O	0.815201	0.251312	0.062620
O20	O	1.315201	0.751312	0.562620
C21	C	0.693632	0.127151	0.000022
C22	C	1.193632	0.627151	0.500022
C23	C	0.616524	0.125685	0.000020
C24	C	1.116524	0.625685	0.500020
C25	C	0.825531	-0.044792	0.000026
C26	C	1.325531	0.455208	0.500026
C27	C	0.824066	-0.144868	0.000022
C28	C	1.324066	0.355132	0.500022
C29	C	0.060933	0.115128	-0.068212
C30	C	0.560933	0.615128	0.431788
C31	C	0.133385	0.116500	-0.068215
C32	C	0.633385	0.616500	0.431785
C33	C	0.169606	0.117187	0.000025
C34	C	0.669606	0.617187	0.500025
C35	C	0.133371	0.116478	0.068273
C36	C	0.633371	0.616478	0.568273
C37	C	0.060921	0.115097	0.068274
C38	C	0.560921	0.615097	0.568274
C39	C	0.279110	0.172175	0.052306
C40	C	0.779110	0.672175	0.552306
C41	C	0.351558	0.173561	0.052302
C42	C	0.851558	0.673561	0.552302
C43	C	0.393066	0.121443	0.000025
C44	C	0.893066	0.621443	0.500025
C45	C	0.362116	0.067949	-0.052260
C46	C	0.862116	0.567949	0.447740
C47	C	0.289666	0.066568	-0.052259
C48	C	0.789666	0.566568	0.447741
C49	C	0.248166	0.118684	0.000032
C50	C	0.748166	0.618684	0.500032
C51	C	0.507854	0.123633	-0.068221
C52	C	1.007854	0.623633	0.431779
C53	C	0.580308	0.125000	-0.068221
C54	C	1.080308	0.625000	0.431779
C55	C	0.580291	0.124986	0.068269
C56	C	1.080291	0.624986	0.568269
C57	C	0.507839	0.123611	0.068267
C58	C	1.007839	0.623611	0.568267
C59	C	0.471625	0.122939	0.000020
C60	C	0.971625	0.622939	0.500020
C61	C	0.817864	-0.568004	-0.068219
C62	C	1.317864	-0.068004	0.431781
C63	C	0.817843	-0.568007	0.068267
C64	C	1.317843	-0.068007	0.568267
C65	C	0.819225	-0.473981	0.068267
C66	C	1.319225	0.026019	0.568267
C67	C	0.819925	-0.426963	0.000024
C68	C	1.319925	0.073037	0.500024
C69	C	0.819243	-0.473970	-0.068220
C70	C	1.319243	0.026030	0.431780
C71	C	0.819900	-0.426966	0.136510
C72	C	1.319900	0.073034	0.636510
C73	C	0.821281	-0.332934	0.136514
C74	C	1.321281	0.167066	0.636514
C75	C	0.821986	-0.285915	0.068269
C76	C	1.321986	0.214085	0.568269
C77	C	0.821305	-0.332928	0.000023
C78	C	1.321305	0.167072	0.500023
C79	C	0.822005	-0.285910	-0.068221
C80	C	1.322005	0.214090	0.431779
C81	C	0.821329	-0.332922	-0.136468
C82	C	1.321329	0.167078	0.363532
C83	C	0.819949	-0.426950	-0.136464
C84	C	1.319949	0.073050	0.363536
C85	C	0.823366	-0.191887	0.068265
C86	C	1.323366	0.308113	0.568265
C87	C	0.823385	-0.191875	-0.068222
C88	C	1.323385	0.308125	0.431778
C89	C	0.947598	0.112958	0.000029
C90	C	1.447598	0.612958	0.500029
C91	C	1.024706	0.114424	0.000027
C92	C	1.524706	0.614424	0.500027
C93	C	0.815699	0.284902	0.000025
C94	C	1.315699	0.784902	0.500025
C95	C	0.817164	0.384977	0.000025
C96	C	1.317164	0.884977	0.500025
N97	N	0.820593	0.120044	0.178182
N98	N	1.320593	0.620044	0.678182
N99	N	0.820642	0.120058	-0.178129
N100	N	1.320642	0.620058	0.321871
C101	C	0.867771	0.058593	0.217571
C102	C	1.367771	0.558593	0.717571
C103	C	0.867775	0.058589	0.296373
C104	C	1.367775	0.558589	0.796373
C105	C	0.820608	0.120051	0.335782
C106	C	1.320608	0.620051	0.835782
C107	C	0.773421	0.181507	0.296384
C108	C	1.273421	0.681507	0.796384
C109	C	0.773414	0.181503	0.217584
C110	C	1.273414	0.681503	0.717584
C111	C	0.811585	0.202195	0.460620
C112	C	1.311585	0.702195	0.960620
C113	C	0.811597	0.202199	0.539418
C114	C	1.311597	0.702199	1.039418
C115	C	0.820627	0.120062	0.578829
C116	C	1.320627	0.620062	1.078829
C117	C	0.829659	0.037916	0.539431
C118	C	1.329659	0.537916	1.039431
C119	C	0.829652	0.037913	0.460630
C120	C	1.329652	0.537913	0.960630
C121	C	0.820610	0.120062	0.421228
C122	C	1.320610	0.620062	0.921228
C123	C	0.867811	0.058602	0.703664
C124	C	1.367811	0.558602	1.203664
C125	C	0.867810	0.058596	0.782467
C126	C	1.367810	0.558596	1.282467
C127	C	0.773460	0.181522	0.782477
C128	C	1.273460	0.681522	1.282477
C129	C	0.773458	0.181519	0.703675
C130	C	1.273458	0.681519	1.203675
C131	C	0.820637	0.120060	0.664273
C132	C	1.320637	0.620060	1.164273
H133	H	0.031452	0.114577	-0.123784
H134	H	0.531452	0.614577	0.376216
H135	H	0.837004	-0.028973	0.428555
H136	H	1.337004	0.471027	0.928555
H137	H	0.395910	0.025512	-0.094831
H138	H	0.895910	0.525512	0.405169
H139	H	0.906194	0.008546	0.328449
H140	H	1.406194	0.508546	0.828449
H141	H	0.837012	-0.028968	0.571517
H142	H	1.337012	0.471032	1.071517
H143	H	0.162886	0.117078	-0.123785
H144	H	0.662886	0.617078	0.376215
Cl145	Cl	0.250760	-0.000682	-0.117983
Cl146	Cl	0.750760	0.499318	0.382017
H147	H	0.819326	-0.465254	0.192070
H148	H	1.319326	0.034746	0.692070
Cl149	Cl	0.714123	0.258770	0.345926
Cl150	Cl	1.214123	0.758770	0.845926
Cl151	Cl	0.800247	0.305467	0.588940
Cl152	Cl	1.300247	0.805467	1.088940
H153	H	0.162866	0.117035	0.123835
H154	H	0.662866	0.617035	0.623835
H155	H	0.478366	0.123083	-0.123792
H156	H	0.978366	0.623083	0.376208
H157	H	0.734996	0.231545	0.185513
H158	H	1.234996	0.731545	0.685513
Cl159	Cl	0.817021	-0.627103	-0.154011
Cl160	Cl	1.317021	-0.127103	0.345989
H161	H	0.821834	-0.294666	0.192085
H162	H	1.321834	0.205334	0.692085
Cl163	Cl	0.625852	0.125875	-0.154016
Cl164	Cl	1.125852	0.625875	0.345984
H165	H	0.804219	0.269085	0.428538
H166	H	1.304219	0.769085	0.928538
Cl167	Cl	0.824214	-0.132790	0.154055
Cl168	Cl	1.324214	0.367210	0.654055
Cl169	Cl	0.822212	-0.273802	-0.222256
Cl170	Cl	1.322212	0.226198	0.277744
H171	H	0.478343	0.123041	0.123834
H172	H	0.978343	0.623041	0.623834
Cl173	Cl	0.625820	0.125835	0.154058
Cl174	Cl	1.125820	0.625835	0.654058
Cl175	Cl	0.819102	-0.486057	-0.222253
Cl176	Cl	1.319102	0.013943	0.277747
H177	H	0.376749	0.217141	0.094860
H178	H	0.876749	0.717141	0.594860
H179	H	0.245320	0.214611	0.094884
H180	H	0.745320	0.714611	0.594884
H181	H	0.906225	0.008555	0.671581
H182	H	1.406225	0.508555	1.171581
Cl183	Cl	0.816951	-0.627114	0.154053
Cl184	Cl	1.316951	-0.127114	0.654053
Cl185	Cl	0.015376	0.114216	0.154068
Cl186	Cl	0.515376	0.614216	0.654068
Cl187	Cl	0.927120	-0.018668	0.831987
Cl188	Cl	1.427120	0.481332	1.331987
H189	H	0.823958	-0.153600	-0.123795
H190	H	1.323958	0.346400	0.376205
Cl191	Cl	0.927077	-0.018672	0.168037
Cl192	Cl	1.427077	0.481328	0.668037
H193	H	0.735044	0.231562	0.671603
H194	H	1.235044	0.731562	1.171603
Cl195	Cl	0.714159	0.258782	0.832015
Cl196	Cl	1.214159	0.758782	1.332015
