data_functionalizedCrystal
_audit_creation_method	'MofGen! by Chris Wilmer'
_symmetry_space_group_name_H-M	'P1'
_symmetry_Int_Tables_number	1
_symmetry_cell_setting	triclinic
loop_
_symmetry_equiv_pos_as_xyz
  x,y,z
_cell_length_a	14.044220
_cell_length_b	19.188930
_cell_length_c	12.503572
_cell_angle_alpha	93.506241
_cell_angle_beta	86.164750
_cell_angle_gamma	88.166830
loop_
_atom_site_label
_atom_site_type_symbol
_atom_site_fract_x
_atom_site_fract_y
_atom_site_fract_z
O1	O	1.262485	0.164589	-0.089229
O2	O	1.512485	0.414589	0.160771
O3	O	1.762485	0.664589	0.410771
O4	O	2.012485	0.914589	0.660771
O5	O	0.986542	0.158515	-0.089255
O6	O	1.236542	0.408515	0.160745
O7	O	1.486542	0.658515	0.410745
O8	O	1.736542	0.908515	0.660745
O9	O	1.132475	0.060411	-0.089220
O10	O	1.382475	0.310411	0.160780
O11	O	1.632475	0.560411	0.410780
O12	O	1.882475	0.810411	0.660780
O13	O	1.116552	0.262693	-0.089264
O14	O	1.366552	0.512693	0.160736
O15	O	1.616552	0.762693	0.410736
O16	O	1.866552	1.012693	0.660736
O17	O	1.121500	0.067803	0.089419
O18	O	1.371500	0.317803	0.339419
O19	O	1.621500	0.567803	0.589419
O20	O	1.871500	0.817803	0.839419
O21	O	0.975567	0.165907	0.089384
O22	O	1.225567	0.415907	0.339384
O23	O	1.475567	0.665907	0.589384
O24	O	1.725567	0.915907	0.839384
O25	O	1.251510	0.171980	0.089411
O26	O	1.501510	0.421980	0.339411
O27	O	1.751510	0.671980	0.589411
O28	O	2.001510	0.921980	0.839411
Cu29	Cu	1.112536	0.169618	0.105709
Cu30	Cu	1.362536	0.419618	0.355709
Cu31	Cu	1.612536	0.669618	0.605709
Cu32	Cu	1.862536	0.919618	0.855709
Cu33	Cu	1.125516	0.160877	-0.105553
Cu34	Cu	1.375516	0.410877	0.144447
Cu35	Cu	1.625516	0.660877	0.394447
Cu36	Cu	1.875516	0.910877	0.644447
O37	O	1.105577	0.270084	0.089376
O38	O	1.355577	0.520084	0.339376
O39	O	1.605577	0.770084	0.589376
O40	O	1.855577	1.020084	0.839376
C41	C	0.945752	0.159553	0.000061
C42	C	1.195752	0.409553	0.250061
C43	C	1.445752	0.659553	0.500061
C44	C	1.695752	0.909553	0.750061
C45	C	0.840559	0.151624	0.000052
C46	C	1.090559	0.401624	0.250052
C47	C	1.340559	0.651624	0.500052
C48	C	1.590559	0.901624	0.750052
C49	C	0.647956	0.137129	0.000077
C50	C	0.897956	0.387129	0.250077
C51	C	1.147956	0.637129	0.500077
C52	C	1.397956	0.887129	0.750077
C53	C	0.590090	0.193363	0.000069
C54	C	0.840090	0.443363	0.250069
C55	C	1.090090	0.693363	0.500069
C56	C	1.340090	0.943363	0.750069
C57	C	0.482920	0.185298	0.000083
C58	C	0.732920	0.435298	0.250083
C59	C	0.982920	0.685298	0.500083
C60	C	1.232920	0.935298	0.750083
C61	C	0.755137	0.145193	0.000063
C62	C	1.005137	0.395193	0.250063
C63	C	1.255137	0.645193	0.500063
C64	C	1.505137	0.895193	0.750063
C65	C	1.126472	0.038063	0.000102
C66	C	1.376472	0.288063	0.250102
C67	C	1.626472	0.538063	0.500102
C68	C	1.876472	0.788063	0.750102
C69	C	1.124923	-0.039541	0.000112
C70	C	1.374923	0.210459	0.250112
C71	C	1.624923	0.460459	0.500112
C72	C	1.874923	0.710459	0.750112
C73	C	1.210552	-0.078939	0.000125
C74	C	1.460552	0.171061	0.250125
C75	C	1.710552	0.421061	0.500125
C76	C	1.960552	0.671061	0.750125
C77	C	1.209099	-0.151857	0.000108
C78	C	1.459099	0.098143	0.250108
C79	C	1.709099	0.348143	0.500108
C80	C	1.959099	0.598143	0.750108
C81	C	1.122010	-0.185374	0.000098
C82	C	1.372010	0.064626	0.250098
C83	C	1.622010	0.314626	0.500098
C84	C	1.872010	0.564626	0.750098
C85	C	1.036370	-0.145968	0.000079
C86	C	1.286370	0.104032	0.250079
C87	C	1.536370	0.354032	0.500079
C88	C	1.786370	0.604032	0.750079
C89	C	1.037826	-0.073051	0.000086
C90	C	1.287826	0.176949	0.250086
C91	C	1.537826	0.426949	0.500086
C92	C	1.787826	0.676949	0.750086
N93	N	1.051706	-0.295160	0.060886
N94	N	1.301706	-0.045160	0.310886
N95	N	1.551706	0.204840	0.560886
N96	N	1.801706	0.454840	0.810886
N97	N	1.050328	-0.364427	0.060882
N98	N	1.300328	-0.114427	0.310882
N99	N	1.550328	0.135573	0.560882
N100	N	1.800328	0.385573	0.810882
C101	C	1.117616	-0.405067	0.000076
C102	C	1.367616	-0.155067	0.250076
C103	C	1.617616	0.094933	0.500076
C104	C	1.867616	0.344933	0.750076
N105	N	1.186348	-0.373823	-0.060712
N106	N	1.436348	-0.123823	0.189288
N107	N	1.686348	0.126177	0.439288
N108	N	1.936348	0.376177	0.689288
N109	N	1.187729	-0.304548	-0.060704
N110	N	1.437729	-0.054548	0.189296
N111	N	1.687729	0.195452	0.439296
N112	N	1.937729	0.445452	0.689296
C113	C	1.120421	-0.264440	0.000091
C114	C	1.370421	-0.014440	0.250091
C115	C	1.620421	0.235560	0.500091
C116	C	1.870421	0.485560	0.750091
C117	C	1.201676	-0.523532	0.000069
C118	C	1.451676	-0.273532	0.250069
C119	C	1.701676	-0.023532	0.500069
C120	C	1.951676	0.226468	0.750069
C121	C	1.200219	-0.596451	0.000045
C122	C	1.450219	-0.346451	0.250045
C123	C	1.700219	-0.096451	0.500045
C124	C	1.950219	0.153549	0.750045
C125	C	1.027487	-0.590560	0.000028
C126	C	1.277487	-0.340560	0.250028
C127	C	1.527487	-0.090560	0.500028
C128	C	1.777487	0.159440	0.750028
C129	C	1.028947	-0.517642	0.000041
C130	C	1.278947	-0.267642	0.250041
C131	C	1.528947	-0.017642	0.500041
C132	C	1.778947	0.232358	0.750041
C133	C	1.116043	-0.484132	0.000067
C134	C	1.366043	-0.234132	0.250067
C135	C	1.616043	0.015868	0.500067
C136	C	1.866043	0.265868	0.750067
C137	C	1.292301	0.170943	0.000092
C138	C	1.542301	0.420943	0.250092
C139	C	1.792301	0.670943	0.500092
C140	C	2.042301	0.920943	0.750092
C141	C	1.397493	0.178872	0.000094
C142	C	1.647493	0.428872	0.250094
C143	C	1.897493	0.678872	0.500094
C144	C	2.147493	0.928872	0.750094
C145	C	1.111580	0.292433	0.000051
C146	C	1.361580	0.542433	0.250051
C147	C	1.611580	0.792433	0.500051
C148	C	1.861580	1.042433	0.750051
C149	C	1.113129	0.370037	0.000034
C150	C	1.363129	0.620037	0.250034
C151	C	1.613129	0.870037	0.500034
C152	C	1.863129	1.120037	0.750034
N153	N	1.103414	0.175766	0.254299
N154	N	1.353414	0.425766	0.504299
N155	N	1.603414	0.675766	0.754299
N156	N	1.853414	0.925766	1.004299
N157	N	1.134645	0.154724	-0.254143
N158	N	1.384645	0.404724	-0.004143
N159	N	1.634645	0.654724	0.245857
N160	N	1.884645	0.904724	0.495857
C161	C	1.089995	0.184816	0.473411
C162	C	1.339995	0.434816	0.723411
C163	C	1.589995	0.684816	0.973411
C164	C	1.839995	0.934816	1.223411
C165	C	1.148061	0.145676	0.526752
C166	C	1.398061	0.395676	0.776752
C167	C	1.648061	0.645676	1.026752
C168	C	1.898061	0.895676	1.276752
C169	C	1.140595	0.150712	0.648673
C170	C	1.390595	0.400712	0.898673
C171	C	1.640595	0.650712	1.148673
C172	C	1.890595	0.900712	1.398673
C173	C	1.097461	0.179782	0.351478
C174	C	1.347461	0.429782	0.601478
C175	C	1.597461	0.679782	0.851478
C176	C	1.847461	0.929782	1.101478
H177	H	0.617011	0.082933	0.000094
H178	H	0.867011	0.332933	0.250094
H179	H	1.117011	0.582933	0.500094
H180	H	1.367011	0.832933	0.750094
Cl181	Cl	1.004594	0.242390	0.544270
Cl182	Cl	1.254594	0.492390	0.794270
Cl183	Cl	1.504594	0.742390	1.044270
Cl184	Cl	1.754594	0.992390	1.294270
Cl185	Cl	1.320047	-0.036817	0.000127
Cl186	Cl	1.570047	0.213183	0.250127
Cl187	Cl	1.820047	0.463183	0.500127
Cl188	Cl	2.070047	0.713183	0.750127
Cl189	Cl	1.233831	0.088392	0.455892
Cl190	Cl	1.483831	0.338392	0.705892
Cl191	Cl	1.733831	0.588392	0.955892
Cl192	Cl	1.983831	0.838392	1.205892
H193	H	0.621038	0.247564	0.000052
H194	H	0.871038	0.497564	0.250052
H195	H	1.121038	0.747564	0.500052
H196	H	1.371038	0.997564	0.750052
H197	H	1.278831	-0.183941	0.000114
H198	H	1.528831	0.066059	0.250114
H199	H	1.778831	0.316059	0.500114
H200	H	2.028831	0.566059	0.750114
Cl201	Cl	0.926887	-0.188102	0.000059
Cl202	Cl	1.176887	0.061898	0.250059
Cl203	Cl	1.426887	0.311898	0.500059
Cl204	Cl	1.676887	0.561898	0.750059
Cl205	Cl	0.930169	-0.023520	0.000070
Cl206	Cl	1.180169	0.226480	0.250070
Cl207	Cl	1.430169	0.476480	0.500070
Cl208	Cl	1.680169	0.726480	0.750070
Cl209	Cl	0.918003	-0.632689	0.000010
Cl210	Cl	1.168003	-0.382689	0.250010
Cl211	Cl	1.418003	-0.132689	0.500010
Cl212	Cl	1.668003	0.117311	0.750010
Cl213	Cl	1.311165	-0.481401	0.000108
Cl214	Cl	1.561165	-0.231401	0.250108
Cl215	Cl	1.811165	0.018599	0.500108
Cl216	Cl	2.061165	0.268599	0.750108
Cl217	Cl	1.307878	-0.645981	0.000055
Cl218	Cl	1.557878	-0.395981	0.250055
Cl219	Cl	1.807878	-0.145981	0.500055
Cl220	Cl	2.057878	0.104019	0.750055
H221	H	0.959218	-0.485563	0.000036
H222	H	1.209218	-0.235563	0.250036
H223	H	1.459218	0.014437	0.500036
H224	H	1.709218	0.264437	0.750036
