data_functionalizedCrystal
_audit_creation_method	'MofGen! by Chris Wilmer'
_symmetry_space_group_name_H-M	'P1'
_symmetry_Int_Tables_number	1
_symmetry_cell_setting	triclinic
loop_
_symmetry_equiv_pos_as_xyz
  x,y,z
_cell_length_a	15.944551
_cell_length_b	12.837943
_cell_length_c	11.295483
_cell_angle_alpha	94.538773
_cell_angle_beta	94.094426
_cell_angle_gamma	90.836161
loop_
_atom_site_label
_atom_site_type_symbol
_atom_site_fract_x
_atom_site_fract_y
_atom_site_fract_z
O1	O	0.213265	-1.382450	-0.099009
O2	O	0.546599	-1.049117	0.234324
O3	O	0.879932	-0.715783	0.567658
O4	O	0.202478	-1.080644	-0.099016
O5	O	0.535812	-0.747311	0.234318
O6	O	0.869145	-0.413977	0.567651
O7	O	0.086257	-1.239788	-0.099002
O8	O	0.419590	-0.906455	0.234332
O9	O	0.752924	-0.573121	0.567665
O10	O	0.329487	-1.223306	-0.099023
O11	O	0.662820	-0.889973	0.234310
O12	O	0.996154	-0.556639	0.567643
O13	O	0.096448	-1.225810	0.099048
O14	O	0.429781	-0.892477	0.432381
O15	O	0.763114	-0.559143	0.765715
O16	O	0.212669	-1.066666	0.099034
O17	O	0.546002	-0.733333	0.432367
O18	O	0.879336	-0.399999	0.765700
O19	O	0.223456	-1.368472	0.099040
O20	O	0.556789	-1.035139	0.432374
O21	O	0.890123	-0.701805	0.765707
Cu22	Cu	0.218993	-1.216293	0.117121
Cu23	Cu	0.552326	-0.882959	0.450454
Cu24	Cu	0.885660	-0.549626	0.783787
Cu25	Cu	0.206941	-1.232823	-0.117096
Cu26	Cu	0.540275	-0.899490	0.216237
Cu27	Cu	0.873608	-0.566157	0.549571
O28	O	0.339677	-1.209328	0.099026
O29	O	0.673011	-0.875995	0.432360
O30	O	1.006344	-0.542662	0.765693
C31	C	0.203930	-1.035034	0.000008
C32	C	0.537263	-0.701701	0.333342
C33	C	0.870596	-0.368368	0.666675
C34	C	0.193062	-0.919957	0.000006
C35	C	0.526395	-0.586623	0.333339
C36	C	0.859728	-0.253290	0.666673
C37	C	0.060004	-1.232115	0.000023
C38	C	0.393337	-0.898781	0.333357
C39	C	0.726670	-0.565448	0.666690
C40	C	-0.033407	-1.230063	0.000024
C41	C	0.299927	-0.896730	0.333357
C42	C	0.633260	-0.563396	0.666691
C43	C	0.222005	-1.414082	0.000014
C44	C	0.555338	-1.080749	0.333347
C45	C	0.888671	-0.747415	0.666680
C46	C	0.232872	-1.529160	0.000008
C47	C	0.566206	-1.195827	0.333342
C48	C	0.899539	-0.862494	0.666675
C49	C	-0.256548	-1.126515	0.000005
C50	C	0.076786	-0.793182	0.333339
C51	C	0.410119	-0.459849	0.666672
C52	C	-0.308694	-1.167708	0.097657
C53	C	0.024640	-0.834375	0.430990
C54	C	0.357973	-0.501041	0.764324
C55	C	-0.204430	-1.226352	0.000015
C56	C	0.128904	-0.893019	0.333348
C57	C	0.462237	-0.559686	0.666682
C58	C	-0.318722	-1.181513	-0.097604
C59	C	0.014611	-0.848179	0.235729
C60	C	0.347944	-0.514846	0.569062
C61	C	-0.369631	-1.222761	0.000001
C62	C	-0.036297	-0.889428	0.333334
C63	C	0.297036	-0.556094	0.666667
C64	C	-0.255341	-1.267567	0.097747
C65	C	0.077992	-0.934233	0.431080
C66	C	0.411325	-0.600900	0.764414
C67	C	-0.265369	-1.281364	-0.097602
C68	C	0.067964	-0.948030	0.235731
C69	C	0.401297	-0.614697	0.569065
C70	C	-0.317491	-1.322627	0.000073
C71	C	0.015843	-0.989294	0.333407
C72	C	0.349176	-0.655961	0.666740
C73	C	-0.109262	-1.228418	0.000024
C74	C	0.224072	-0.895085	0.333357
C75	C	0.557405	-0.561752	0.666691
C76	C	-0.464796	-1.220702	0.000000
C77	C	-0.131463	-0.887369	0.333333
C78	C	0.201870	-0.554036	0.666667
C79	C	0.365931	-1.217002	-0.000001
C80	C	0.699264	-0.883668	0.333332
C81	C	1.032597	-0.550335	0.666665
C82	C	0.459340	-1.219054	-0.000010
C83	C	0.792674	-0.885720	0.333324
C84	C	1.126007	-0.552387	0.666657
N85	N	0.227469	-1.204674	0.281856
N86	N	0.560803	-0.871340	0.615189
N87	N	0.894136	-0.538007	0.948523
C88	C	0.323714	-0.679007	0.000011
C89	C	0.657048	-0.345674	0.333345
C90	C	0.990381	-0.012340	0.666678
C91	C	0.313507	-0.570881	0.000010
C92	C	0.646840	-0.237547	0.333344
C93	C	0.980174	0.095786	0.666677
C94	C	0.162440	-0.595575	0.000011
C95	C	0.495774	-0.262241	0.333344
C96	C	0.829107	0.071092	0.666678
C97	C	0.172648	-0.703701	0.000012
C98	C	0.505981	-0.370368	0.333346
C99	C	0.839314	-0.037034	0.666679
C100	C	0.253287	-0.745413	0.000011
C101	C	0.586621	-0.412080	0.333344
C102	C	0.919954	-0.078746	0.666677
C103	C	0.263494	-0.853542	0.000003
C104	C	0.596827	-0.520209	0.333337
C105	C	0.930160	-0.186876	0.666670
C106	C	0.112428	-0.878234	0.000013
C107	C	0.445762	-0.544900	0.333346
C108	C	0.779095	-0.211567	0.666679
C109	C	0.102221	-0.770107	0.000011
C110	C	0.435554	-0.436774	0.333345
C111	C	0.768887	-0.103440	0.666678
N112	N	0.198459	-1.244451	-0.281831
N113	N	0.531792	-0.911117	0.051502
N114	N	0.865126	-0.577784	0.384835
C115	C	0.137394	-1.328092	0.531156
C116	C	0.470727	-0.994758	0.864490
C117	C	0.804061	-0.661425	1.197823
C118	C	0.143806	-1.319318	0.655819
C119	C	0.477139	-0.985985	0.989153
C120	C	0.810473	-0.652652	1.322486
C121	C	0.246701	-1.178349	0.655847
C122	C	0.580035	-0.845016	0.989180
C123	C	0.913368	-0.511683	1.322513
C124	C	0.240289	-1.187123	0.531184
C125	C	0.573622	-0.853789	0.864517
C126	C	0.906956	-0.520456	1.197851
C127	C	0.185634	-1.261997	0.468843
C128	C	0.518968	-0.928664	0.802176
C129	C	0.852301	-0.595331	1.135510
C130	C	0.179227	-1.270775	0.344178
C131	C	0.512560	-0.937442	0.677511
C132	C	0.845894	-0.604108	1.010845
C133	C	0.282117	-1.129802	0.344208
C134	C	0.615451	-0.796468	0.677541
C135	C	0.948784	-0.463135	1.010874
C136	C	0.288530	-1.121028	0.468871
C137	C	0.621863	-0.787695	0.802204
C138	C	0.955196	-0.454362	1.135537
H139	H	-0.229864	-1.043639	0.000101
H140	H	0.103469	-0.710306	0.333434
H141	H	0.436802	-0.376972	0.666768
H142	H	0.389374	-0.712969	0.000008
H143	H	0.722708	-0.379636	0.333342
H144	H	1.056041	-0.046303	0.666675
H145	H	0.055081	-0.932315	0.000004
H146	H	0.388414	-0.598981	0.333337
H147	H	0.721748	-0.265648	0.666671
H148	H	0.329155	-0.887502	0.000004
H149	H	0.662488	-0.554168	0.333337
H150	H	0.995821	-0.220835	0.666671
H151	H	0.370856	-0.516815	0.000014
H152	H	0.704190	-0.183482	0.333347
H153	H	1.037523	0.149851	0.666681
H154	H	0.096792	-0.561586	0.000111
H155	H	0.430125	-0.228253	0.333444
H156	H	0.763459	0.105080	0.666777
H157	H	0.036567	-0.736129	0.000026
H158	H	0.369900	-0.402796	0.333360
H159	H	0.703233	-0.069462	0.666693
F160	F	0.304857	-1.098658	0.722208
F161	F	0.638190	-0.765324	1.055541
F162	F	0.971524	-0.431991	1.388874
H163	H	0.134727	-1.331744	0.293421
H164	H	0.468060	-0.998411	0.626754
H165	H	0.801394	-0.665077	0.960088
H166	H	0.104523	-1.373138	0.706551
H167	H	0.437856	-1.039804	1.039885
H168	H	0.771189	-0.706471	1.373218
H169	H	0.092898	-1.389064	0.480398
H170	H	0.426231	-1.055731	0.813731
H171	H	0.759565	-0.722398	1.147064
F172	F	-0.354952	-1.133911	-0.205504
F173	F	-0.021618	-0.800578	0.127830
F174	F	0.311715	-0.467244	0.461163
F175	F	-0.333840	-1.104901	0.205563
F176	F	-0.000507	-0.771567	0.538896
F177	F	0.332827	-0.438234	0.872229
F178	F	-0.219246	-1.315094	0.205772
F179	F	0.114087	-0.981761	0.539105
F180	F	0.447421	-0.648427	0.872438
H181	H	0.333026	-1.060064	0.519643
H182	H	0.666360	-0.726731	0.852976
H183	H	0.999693	-0.393397	1.186309
H184	H	-0.344011	-1.405566	0.000130
H185	H	-0.010678	-1.072232	0.333464
H186	H	0.322655	-0.738899	0.666797
F187	F	-0.240197	-1.344128	-0.205513
F188	F	0.093137	-1.010795	0.127821
F189	F	0.426470	-0.677461	0.461154
H190	H	0.321401	-1.075986	0.293458
H191	H	0.654734	-0.742653	0.626791
H192	H	0.988067	-0.409319	0.960125
