data_functionalizedCrystal
_audit_creation_method	'MofGen! by Chris Wilmer'
_symmetry_space_group_name_H-M	'P1'
_symmetry_Int_Tables_number	1
_symmetry_cell_setting	triclinic
loop_
_symmetry_equiv_pos_as_xyz
  x,y,z
_cell_length_a	10.654549
_cell_length_b	10.489741
_cell_length_c	9.130313
_cell_angle_alpha	89.995761
_cell_angle_beta	89.997498
_cell_angle_gamma	84.511976
loop_
_atom_site_label
_atom_site_type_symbol
_atom_site_fract_x
_atom_site_fract_y
_atom_site_fract_z
O1	O	1.667924	0.179160	-0.121765
O2	O	2.167924	0.679160	0.378235
O3	O	1.302453	0.196230	-0.121775
O4	O	1.802453	0.696230	0.378225
O5	O	1.493504	0.002093	-0.121761
O6	O	1.993504	0.502093	0.378239
O7	O	1.476872	0.373297	-0.121779
O8	O	1.976872	0.873297	0.378221
O9	O	1.493491	0.002087	0.121838
O10	O	1.993491	0.502087	0.621838
O11	O	1.302440	0.196224	0.121824
O12	O	1.802440	0.696224	0.621824
O13	O	1.667910	0.179154	0.121834
O14	O	2.167910	0.679154	0.621834
Cu15	Cu	1.485174	0.187689	0.144071
Cu16	Cu	1.985174	0.687689	0.644071
Cu17	Cu	1.485190	0.187695	-0.144012
Cu18	Cu	1.985190	0.687695	0.355988
O19	O	1.476859	0.373291	0.121820
O20	O	1.976859	0.873291	0.621820
C21	C	1.255648	0.194974	0.000023
C22	C	1.755648	0.694974	0.500023
C23	C	1.116203	0.191224	0.000019
C24	C	1.616203	0.691224	0.500019
C25	C	0.905740	0.301996	0.000020
C26	C	1.405740	0.801996	0.500020
C27	C	1.036762	0.305529	0.000011
C28	C	1.536762	0.805529	0.500011
C29	C	1.064615	0.073379	0.000022
C30	C	1.564615	0.573379	0.500022
C31	C	0.933595	0.069847	0.000020
C32	C	1.433595	0.569847	0.500020
C33	C	1.492242	-0.045441	0.000038
C34	C	1.992242	0.454559	0.500038
C35	C	1.488483	-0.187069	0.000035
C36	C	1.988483	0.312931	0.500035
C37	C	1.366923	-0.255150	0.000021
C38	C	1.866923	0.244850	0.500021
C39	C	1.424340	-0.347303	0.120129
C40	C	1.924340	0.152697	0.620129
C41	C	1.424382	-0.347272	-0.120040
C42	C	1.924382	0.152728	0.379960
C43	C	1.545951	-0.277356	0.120242
C44	C	2.045951	0.222644	0.620242
C45	C	1.545976	-0.277316	-0.120035
C46	C	2.045976	0.222684	0.379965
C47	C	1.603482	-0.369442	0.000103
C48	C	2.103482	0.130558	0.500103
C49	C	1.714716	0.180410	0.000033
C50	C	2.214716	0.680410	0.500033
C51	C	1.854161	0.184160	0.000027
C52	C	2.354161	0.684160	0.500027
C53	C	1.478122	0.420825	0.000018
C54	C	1.978122	0.920825	0.500018
C55	C	1.481880	0.562452	0.000011
C56	C	1.981880	1.062452	0.500011
N57	N	1.485172	0.187683	0.346694
N58	N	1.985172	0.687683	0.846694
N59	N	1.485201	0.187691	-0.346635
N60	N	1.985201	0.687691	0.153365
C61	C	1.569799	0.101756	0.423352
C62	C	2.069799	0.601756	0.923352
C63	C	1.569811	0.101756	0.576689
C64	C	2.069811	0.601756	1.076689
C65	C	1.400566	0.273622	0.576696
C66	C	1.900566	0.773622	1.076696
C67	C	1.400549	0.273615	0.423362
C68	C	1.900549	0.773615	0.923362
H69	H	1.078751	0.401482	0.000004
H70	H	1.578751	0.901482	0.500004
H71	H	1.638702	0.031783	0.360933
H72	H	2.138702	0.531783	0.860933
H73	H	0.891600	-0.026115	0.000021
H74	H	1.391600	0.473885	0.500021
Cl75	Cl	1.164484	-0.070320	0.000029
Cl76	Cl	1.664484	0.429680	0.500029
Cl77	Cl	1.344924	-0.395150	0.276900
Cl78	Cl	1.844924	0.104850	0.776900
Cl79	Cl	1.212616	-0.178417	0.000193
Cl80	Cl	1.712616	0.321583	0.500193
H81	H	1.638719	0.031785	0.639100
H82	H	2.138719	0.531785	1.139100
H83	H	1.597336	-0.246552	0.221899
H84	H	2.097336	0.253448	0.721899
H85	H	1.703518	-0.418914	0.000173
H86	H	2.203518	0.081086	0.500173
Cl87	Cl	1.294191	0.381651	0.673085
Cl88	Cl	1.794191	0.881651	1.173085
H89	H	1.597373	-0.246294	-0.221580
H90	H	2.097373	0.253706	0.278420
Cl91	Cl	1.344947	-0.395069	-0.276805
Cl92	Cl	1.844947	0.104931	0.223195
H93	H	1.331630	0.343587	0.360943
H94	H	1.831630	0.843587	0.860943
H95	H	0.841067	0.395077	0.000024
H96	H	1.341067	0.895077	0.500024
