data_functionalizedCrystal
_audit_creation_method	'MofGen! by Chris Wilmer'
_symmetry_space_group_name_H-M	'P1'
_symmetry_Int_Tables_number	1
_symmetry_cell_setting	triclinic
loop_
_symmetry_equiv_pos_as_xyz
  x,y,z
_cell_length_a	18.101395
_cell_length_b	14.908941
_cell_length_c	14.908694
_cell_angle_alpha	90.213236
_cell_angle_beta	93.269480
_cell_angle_gamma	86.669348
loop_
_atom_site_label
_atom_site_type_symbol
_atom_site_fract_x
_atom_site_fract_y
_atom_site_fract_z
Zn1	Zn	-0.248629	-1.403885	-0.429229
Zn2	Zn	0.084704	-1.070551	-0.095895
Zn3	Zn	0.418038	-0.737218	0.237438
Zn4	Zn	-0.365777	-1.395085	-0.278879
Zn5	Zn	-0.032444	-1.061752	0.054454
Zn6	Zn	0.300890	-0.728418	0.387787
Zn7	Zn	-0.249483	-1.244851	-0.287547
Zn8	Zn	0.083851	-0.911518	0.045787
Zn9	Zn	0.417184	-0.578185	0.379120
Zn10	Zn	-0.379969	-1.253462	-0.437848
Zn11	Zn	-0.046635	-0.920128	-0.104514
Zn12	Zn	0.286698	-0.586795	0.228819
O13	O	-0.310964	-1.324321	-0.358376
O14	O	0.022369	-0.990987	-0.025042
O15	O	0.355702	-0.657654	0.308291
O16	O	-0.257872	-1.528543	-0.402050
O17	O	0.075461	-1.195210	-0.068717
O18	O	0.408794	-0.861877	0.264616
O19	O	-0.344768	-1.367870	-0.154206
O20	O	-0.011435	-1.034537	0.179128
O21	O	0.321899	-0.701203	0.512461
O22	O	-0.145734	-1.266027	-0.306361
O23	O	0.187600	-0.932694	0.026972
O24	O	0.520933	-0.599360	0.360305
O25	O	-0.343940	-1.522078	-0.291589
O26	O	-0.010607	-1.188745	0.041744
O27	O	0.322726	-0.855412	0.375078
O28	O	-0.145106	-1.382868	-0.410455
O29	O	0.188227	-1.049535	-0.077121
O30	O	0.521560	-0.716201	0.256212
O31	O	-0.259327	-1.257494	-0.160574
O32	O	0.074006	-0.924161	0.172760
O33	O	0.407339	-0.590827	0.506093
O34	O	-0.273088	-1.120168	-0.314719
O35	O	0.060245	-0.786834	0.018615
O36	O	0.393578	-0.453501	0.351948
O37	O	-0.368128	-1.280702	-0.562528
O38	O	-0.034795	-0.947368	-0.229194
O39	O	0.298538	-0.614035	0.104139
O40	O	-0.368956	-1.126494	-0.425144
O41	O	-0.035623	-0.793160	-0.091811
O42	O	0.297711	-0.459827	0.241522
O43	O	-0.271633	-1.391217	-0.556195
O44	O	0.061700	-1.057884	-0.222862
O45	O	0.395033	-0.724550	0.110471
O46	O	-0.471295	-1.376219	-0.299946
O47	O	-0.137962	-1.042886	0.033387
O48	O	0.195371	-0.709552	0.366720
O49	O	-0.481722	-1.272169	-0.416740
O50	O	-0.148389	-0.938836	-0.083407
O51	O	0.184945	-0.605502	0.249927
C52	C	-0.322655	-1.090705	-0.371808
C53	C	0.010678	-0.757372	-0.038475
C54	C	0.344011	-0.424039	0.294859
C55	C	-0.327676	-0.990765	-0.377576
C56	C	0.005658	-0.657432	-0.044242
C57	C	0.338991	-0.324098	0.289091
C58	C	-0.237147	-0.796336	-0.273588
C59	C	0.096186	-0.463003	0.059745
C60	C	0.429519	-0.129670	0.393078
C61	C	-0.241862	-0.702433	-0.279005
C62	C	0.091472	-0.369100	0.054329
C63	C	0.424805	-0.035767	0.387662
C64	C	-0.341822	-0.709053	-0.393819
C65	C	-0.008489	-0.375720	-0.060486
C66	C	0.324844	-0.042387	0.272847
C67	C	-0.337108	-0.802957	-0.388403
C68	C	-0.003774	-0.469623	-0.055070
C69	C	0.329559	-0.136290	0.278264
C70	C	-0.284768	-0.846595	-0.328286
C71	C	0.048566	-0.513261	0.005047
C72	C	0.381899	-0.179928	0.338380
C73	C	-0.280050	-0.940500	-0.322875
C74	C	0.053283	-0.607167	0.010458
C75	C	0.386616	-0.273833	0.343791
C76	C	-0.380014	-0.947118	-0.437685
C77	C	-0.046680	-0.613785	-0.104352
C78	C	0.286653	-0.280451	0.228982
C79	C	-0.384728	-0.853215	-0.443101
C80	C	-0.051395	-0.519882	-0.109768
C81	C	0.281938	-0.186548	0.223566
C82	C	-0.503380	-1.324199	-0.358356
C83	C	-0.170046	-0.990866	-0.025023
C84	C	0.163287	-0.657532	0.308311
C85	C	-0.585693	-1.324231	-0.358373
C86	C	-0.252360	-0.990897	-0.025040
C87	C	0.080974	-0.657564	0.308294
C88	C	-0.884776	-1.324431	-0.358410
C89	C	-0.551443	-0.991097	-0.025077
C90	C	-0.218110	-0.657764	0.308257
C91	C	-0.860042	-1.259136	-0.432057
C92	C	-0.526708	-0.925803	-0.098723
C93	C	-0.193375	-0.592470	0.234610
C94	C	-0.774431	-1.258794	-0.431858
C95	C	-0.441097	-0.925461	-0.098524
C96	C	-0.107764	-0.592128	0.234809
C97	C	-0.736398	-1.324332	-0.358393
C98	C	-0.403064	-0.990998	-0.025059
C99	C	-0.069731	-0.657665	0.308274
C100	C	-0.764608	-1.293211	-0.265107
C101	C	-0.431274	-0.959878	0.068226
C102	C	-0.097941	-0.626545	0.401559
C103	C	-0.850294	-1.292788	-0.265550
C104	C	-0.516960	-0.959455	0.067783
C105	C	-0.183627	-0.626122	0.401117
C106	C	-0.849436	-1.420949	-0.377206
C107	C	-0.516103	-1.087616	-0.043873
C108	C	-0.182770	-0.754283	0.289461
C109	C	-0.763906	-1.420510	-0.379316
C110	C	-0.430573	-1.087176	-0.045983
C111	C	-0.097239	-0.753843	0.287350
C112	C	-0.652540	-1.324277	-0.358377
C113	C	-0.319207	-0.990943	-0.025043
C114	C	0.014127	-0.657610	0.308290
C115	C	-0.968634	-1.324483	-0.358420
C116	C	-0.635300	-0.991150	-0.025086
C117	C	-0.301967	-0.657816	0.308247
C118	C	-0.117797	-1.324469	-0.358413
C119	C	0.215536	-0.991135	-0.025080
C120	C	0.548870	-0.657802	0.308253
C121	C	-0.035481	-1.324532	-0.358430
C122	C	0.297853	-0.991198	-0.025096
C123	C	0.631186	-0.657865	0.308237
C124	C	-0.321369	-1.337901	-0.592898
C125	C	0.011965	-1.004568	-0.259565
C126	C	0.345298	-0.671235	0.073768
C127	C	-0.325802	-1.343689	-0.692838
C128	C	0.007531	-1.010355	-0.359504
C129	C	0.340864	-0.677022	-0.026171
C130	C	-0.299220	-0.558848	-0.344885
C131	C	0.034113	-0.225515	-0.011551
C132	C	0.367446	0.107819	0.321782
C133	C	-0.294197	-0.658788	-0.339119
C134	C	0.039137	-0.325455	-0.005786
C135	C	0.372470	0.007878	0.327548
C136	C	-0.245167	-1.239608	-0.887269
C137	C	0.088166	-0.906275	-0.553935
C138	C	0.421499	-0.572942	-0.220602
C139	C	-0.249331	-1.245043	-0.981171
C140	C	0.084002	-0.911710	-0.647838
C141	C	0.417336	-0.578376	-0.314504
C142	C	-0.338297	-1.359987	-0.974547
C143	C	-0.004963	-1.026654	-0.641213
C144	C	0.328370	-0.693321	-0.307880
C145	C	-0.334133	-1.354553	-0.880644
C146	C	-0.000800	-1.021220	-0.547311
C147	C	0.332533	-0.687886	-0.213978
C148	C	-0.287566	-1.294362	-0.837009
C149	C	0.045767	-0.961029	-0.503675
C150	C	0.379101	-0.627696	-0.170342
C151	C	-0.283399	-1.288933	-0.743104
C152	C	0.049934	-0.955599	-0.409771
C153	C	0.383268	-0.622266	-0.076438
C154	C	-0.372368	-1.403872	-0.736482
C155	C	-0.039035	-1.070539	-0.403149
C156	C	0.294298	-0.737206	-0.069816
C157	C	-0.376532	-1.409307	-0.830385
C158	C	-0.043199	-1.075973	-0.497051
C159	C	0.290135	-0.742640	-0.163718
C160	C	-0.300544	-1.310844	-0.124762
C161	C	0.032789	-0.977511	0.208571
C162	C	0.366122	-0.644178	0.541904
C163	C	-0.295893	-1.305231	-0.024813
C164	C	0.037440	-0.971898	0.308520
C165	C	0.370773	-0.638565	0.641853
H166	H	-0.427344	-0.817672	-0.492044
H167	H	-0.094011	-0.484338	-0.158710
H168	H	0.239323	-0.151005	0.174623
Cl169	Cl	-0.874852	-1.362559	-0.178391
Cl170	Cl	-0.541518	-1.029225	0.154942
Cl171	Cl	-0.208185	-0.695892	0.488275
H172	H	-0.418786	-0.988049	-0.482229
H173	H	-0.085453	-0.654715	-0.148896
H174	H	0.247880	-0.321382	0.184438
H175	H	-0.745684	-1.443878	-0.447942
H176	H	-0.412351	-1.110545	-0.114609
H177	H	-0.079018	-0.777212	0.218724
Cl178	Cl	-0.396844	-1.435636	-1.029420
Cl179	Cl	-0.063511	-1.102303	-0.696086
Cl180	Cl	0.269822	-0.768969	-0.362753
H181	H	-0.414448	-1.458309	-0.865926
H182	H	-0.081115	-1.124976	-0.532593
H183	H	0.252219	-0.791642	-0.199259
H184	H	-0.756823	-1.187363	-0.419839
H185	H	-0.423490	-0.854030	-0.086506
H186	H	-0.090156	-0.520696	0.246827
Cl187	Cl	-0.171345	-0.851200	-0.198023
Cl188	Cl	0.161988	-0.517866	0.135310
Cl189	Cl	0.495322	-0.184533	0.468643
Cl190	Cl	-0.735479	-1.185131	-0.238907
Cl191	Cl	-0.402145	-0.851798	0.094426
Cl192	Cl	-0.068812	-0.518464	0.427760
Cl193	Cl	-0.181995	-0.639254	-0.210236
Cl194	Cl	0.151339	-0.305921	0.123097
Cl195	Cl	0.484672	0.027413	0.456430
Cl196	Cl	-0.873227	-1.496165	-0.294303
Cl197	Cl	-0.539894	-1.162832	0.039030
Cl198	Cl	-0.206560	-0.829498	0.372364
Cl199	Cl	-0.214251	-0.995358	-0.247303
Cl200	Cl	0.119082	-0.662025	0.086031
Cl201	Cl	0.452415	-0.328692	0.419364
Cl202	Cl	-0.407641	-0.654177	-0.469355
Cl203	Cl	-0.074307	-0.320843	-0.136021
Cl204	Cl	0.259026	0.012490	0.197312
Cl205	Cl	-0.745503	-1.289828	-0.538917
Cl206	Cl	-0.412170	-0.956495	-0.205583
Cl207	Cl	-0.078837	-0.623162	0.127750
Cl208	Cl	-0.895394	-1.289942	-0.539484
Cl209	Cl	-0.562061	-0.956609	-0.206150
Cl210	Cl	-0.228727	-0.623276	0.127183
Cl211	Cl	-0.897714	-1.149535	-0.413795
Cl212	Cl	-0.564380	-0.816202	-0.080462
Cl213	Cl	-0.231047	-0.482868	0.252871
Cl214	Cl	-0.885205	-1.183607	-0.239987
Cl215	Cl	-0.551872	-0.850274	0.093346
Cl216	Cl	-0.218539	-0.516941	0.426680
H217	H	-0.245478	-1.239926	-0.707577
H218	H	0.087855	-0.906593	-0.374244
H219	H	0.421188	-0.573259	-0.040911
Cl220	Cl	-0.725705	-1.363951	-0.178444
Cl221	Cl	-0.392372	-1.030618	0.154889
Cl222	Cl	-0.059039	-0.697285	0.488223
H223	H	-0.872842	-1.448256	-0.443782
H224	H	-0.539509	-1.114923	-0.110449
H225	H	-0.206175	-0.781590	0.222884
H226	H	-0.737671	-1.472170	-0.329150
H227	H	-0.404338	-1.138836	0.004183
H228	H	-0.071004	-0.805503	0.337517
Cl229	Cl	-0.186619	-1.163952	-0.832408
Cl230	Cl	0.146714	-0.830619	-0.499075
Cl231	Cl	0.480047	-0.497286	-0.165742
Cl232	Cl	-0.196030	-1.176203	-1.044352
Cl233	Cl	0.137304	-0.842870	-0.711019
Cl234	Cl	0.470637	-0.509537	-0.377686
H235	H	-0.406890	-1.448460	-0.695550
H236	H	-0.073557	-1.115127	-0.362217
H237	H	0.259777	-0.781793	-0.028884
