data_functionalizedCrystal
_audit_creation_method	'MofGen! by Chris Wilmer'
_symmetry_space_group_name_H-M	'P1'
_symmetry_Int_Tables_number	1
_symmetry_cell_setting	triclinic
loop_
_symmetry_equiv_pos_as_xyz
  x,y,z
_cell_length_a	11.792241
_cell_length_b	11.792241
_cell_length_c	15.186229
_cell_angle_alpha	90.012103
_cell_angle_beta	90.003664
_cell_angle_gamma	84.193416
loop_
_atom_site_label
_atom_site_type_symbol
_atom_site_fract_x
_atom_site_fract_y
_atom_site_fract_z
O1	O	1.506913	0.155579	0.073143
O2	O	1.840246	0.488913	0.406477
O3	O	2.173580	0.822246	0.739810
O4	O	1.176572	0.171612	0.073164
O5	O	1.509905	0.504945	0.406497
O6	O	1.843239	0.838279	0.739831
O7	O	1.349759	-0.001575	0.073147
O8	O	1.683092	0.331758	0.406480
O9	O	2.016426	0.665092	0.739814
O10	O	1.333726	0.328766	0.073160
O11	O	1.667059	0.662100	0.406494
O12	O	2.000393	0.995433	0.739827
O13	O	1.349735	-0.001603	-0.073310
O14	O	1.683069	0.331730	0.260023
O15	O	2.016402	0.665064	0.593356
O16	O	1.176548	0.171584	-0.073293
O17	O	1.509882	0.504917	0.260040
O18	O	1.843215	0.838250	0.593373
O19	O	1.506889	0.155551	-0.073314
O20	O	1.840223	0.488884	0.260019
O21	O	2.173556	0.822218	0.593353
Zn22	Zn	1.341715	0.163563	-0.096557
Zn23	Zn	1.675048	0.496896	0.236777
Zn24	Zn	2.008382	0.830230	0.570110
Zn25	Zn	1.341746	0.163600	0.096407
Zn26	Zn	1.675080	0.496934	0.429740
Zn27	Zn	2.008413	0.830267	0.763074
O28	O	1.333702	0.328738	-0.073297
O29	O	1.667036	0.662071	0.260036
O30	O	2.000369	0.995405	0.593370
C31	C	1.134269	0.170591	-0.000062
C32	C	1.467603	0.503924	0.333271
C33	C	1.800936	0.837258	0.666605
C34	C	1.008255	0.167576	-0.000054
C35	C	1.341589	0.500910	0.333279
C36	C	1.674922	0.834243	0.666612
C37	C	0.777543	0.162034	-0.000080
C38	C	1.110877	0.495367	0.333253
C39	C	1.444210	0.828700	0.666587
C40	C	0.905928	0.165113	-0.000066
C41	C	1.239262	0.498447	0.333267
C42	C	1.572595	0.831780	0.666601
C43	C	1.348740	-0.043880	-0.000081
C44	C	1.682073	0.289453	0.333252
C45	C	2.015407	0.622787	0.666585
C46	C	1.345726	-0.169894	-0.000080
C47	C	1.679059	0.163440	0.333253
C48	C	2.012392	0.496773	0.666586
C49	C	1.340183	-0.400606	-0.000065
C50	C	1.673516	-0.067273	0.333268
C51	C	2.006849	0.266061	0.666602
C52	C	1.343262	-0.272221	-0.000073
C53	C	1.676596	0.061113	0.333260
C54	C	2.009929	0.394446	0.666593
C55	C	1.549192	0.156572	-0.000086
C56	C	1.882525	0.489905	0.333247
C57	C	2.215859	0.823239	0.666581
C58	C	1.675206	0.159587	-0.000088
C59	C	2.008539	0.492920	0.333246
C60	C	2.341873	0.826253	0.666579
C61	C	1.334721	0.371043	-0.000067
C62	C	1.668055	0.704376	0.333267
C63	C	2.001388	1.037710	0.666600
C64	C	1.337736	0.497057	-0.000062
C65	C	1.671069	0.830390	0.333271
C66	C	2.004402	1.163723	0.666605
N67	N	1.341702	0.163537	-0.228249
N68	N	1.675035	0.496870	0.105084
N69	N	2.008368	0.830203	0.438417
C70	C	1.272481	0.094286	-0.546200
C71	C	1.605814	0.427619	-0.212867
C72	C	1.939147	0.760953	0.120467
C73	C	1.272471	0.094269	-0.454010
C74	C	1.605804	0.427603	-0.120677
C75	C	1.939138	0.760936	0.212656
C76	C	1.410997	0.232871	-0.453956
C77	C	1.744331	0.566204	-0.120623
C78	C	2.077664	0.899538	0.212710
C79	C	1.411012	0.232881	-0.546144
C80	C	1.744346	0.566214	-0.212811
C81	C	2.077679	0.899547	0.120522
C82	C	1.341747	0.163590	-0.592264
C83	C	1.675081	0.496923	-0.258930
C84	C	2.008414	0.830257	0.074403
C85	C	1.341723	0.163564	-0.407886
C86	C	1.675056	0.496897	-0.074553
C87	C	2.008389	0.830231	0.258781
C88	C	1.341713	0.163547	-0.307930
C89	C	1.675046	0.496880	0.025403
C90	C	2.008379	0.830213	0.358737
C91	C	1.341759	0.163606	-0.692226
C92	C	1.675092	0.496939	-0.358893
C93	C	2.008426	0.830272	-0.025560
N94	N	1.341769	0.163617	0.228100
N95	N	1.675102	0.496951	0.561433
N96	N	2.008435	0.830284	0.894766
H97	H	1.216082	0.037864	-0.583748
H98	H	1.549415	0.371198	-0.250415
H99	H	1.882748	0.704531	0.082919
H100	H	1.467389	0.289286	-0.416395
H101	H	1.800722	0.622620	-0.083061
H102	H	2.134056	0.955953	0.250272
Br103	Br	1.505033	0.326935	-0.608665
Br104	Br	1.838367	0.660268	-0.275332
Br105	Br	2.171700	0.993601	0.058001
H106	H	1.216068	0.037834	-0.416509
H107	H	1.549402	0.371167	-0.083176
H108	H	1.882735	0.704500	0.250157
