data_functionalizedCrystal
_audit_creation_method	'MofGen! by Chris Wilmer'
_symmetry_space_group_name_H-M	'P1'
_symmetry_Int_Tables_number	1
_symmetry_cell_setting	triclinic
loop_
_symmetry_equiv_pos_as_xyz
  x,y,z
_cell_length_a	14.853558
_cell_length_b	12.503572
_cell_length_c	14.853567
_cell_angle_alpha	93.532015
_cell_angle_beta	96.366968
_cell_angle_gamma	93.522596
loop_
_atom_site_label
_atom_site_type_symbol
_atom_site_fract_x
_atom_site_fract_y
_atom_site_fract_z
O1	O	1.201561	0.089299	-0.112456
O2	O	1.701561	0.589299	0.387544
O3	O	0.939101	0.089302	-0.126486
O4	O	1.439101	0.589302	0.373514
O5	O	1.077342	0.089304	0.011759
O6	O	1.577342	0.589304	0.511759
O7	O	1.063320	0.089297	-0.250702
O8	O	1.563320	0.589297	0.249298
O9	O	1.066945	-0.089338	0.001345
O10	O	1.566945	0.410662	0.501345
O11	O	0.928704	-0.089340	-0.136900
O12	O	1.428704	0.410660	0.363100
O13	O	1.191164	-0.089343	-0.122871
O14	O	1.691164	0.410657	0.377129
Cu15	Cu	1.058985	-0.105653	-0.130836
Cu16	Cu	1.558985	0.394347	0.369164
Cu17	Cu	1.071280	0.105612	-0.118520
Cu18	Cu	1.571280	0.605612	0.381480
O19	O	1.052923	-0.089345	-0.261116
O20	O	1.552923	0.410655	0.238884
C21	C	0.900313	-0.000018	-0.131059
C22	C	1.400313	0.499982	0.368941
C23	C	0.800229	-0.000016	-0.129159
C24	C	1.300229	0.499984	0.370841
C25	C	0.758877	0.097366	-0.122590
C26	C	1.258877	0.597366	0.377410
C27	C	0.747540	-0.097397	-0.133933
C28	C	1.247540	0.402603	0.366067
C29	C	0.653506	-0.097398	-0.132143
C30	C	1.153506	0.402602	0.367857
C31	C	0.612154	-0.000016	-0.125575
C32	C	1.112154	0.499984	0.374425
C33	C	0.664835	0.097367	-0.120797
C34	C	1.164835	0.597367	0.379203
C35	C	0.600820	-0.194780	-0.136912
C36	C	1.100820	0.305220	0.363088
C37	C	0.506780	-0.194786	-0.135120
C38	C	1.006780	0.305214	0.364880
C39	C	0.465425	-0.097403	-0.128558
C40	C	0.965425	0.402597	0.371442
C41	C	0.518112	-0.000015	-0.123781
C42	C	1.018112	0.499985	0.376219
C43	C	0.476759	0.097367	-0.117213
C44	C	0.976759	0.597367	0.382787
C45	C	0.529443	0.194755	-0.112443
C46	C	1.029443	0.694755	0.387557
C47	C	0.623479	0.194750	-0.114235
C48	C	1.123479	0.694750	0.385765
C49	C	0.371389	-0.097397	-0.126766
C50	C	0.871389	0.402603	0.373234
C51	C	0.382717	0.097368	-0.115420
C52	C	0.882717	0.597368	0.384580
N53	N	1.050344	-0.254245	-0.139498
N54	N	1.550344	0.245755	0.360502
C55	C	1.037632	-0.473361	-0.152248
C56	C	1.537632	0.026639	0.347752
C57	C	1.092637	-0.526687	-0.097105
C58	C	1.592637	-0.026687	0.402895
C59	C	1.085564	-0.648611	-0.104199
C60	C	1.585564	-0.148611	0.395801
C61	C	1.044704	-0.351426	-0.145155
C62	C	1.544704	0.148574	0.354845
C63	C	1.229952	-0.000021	-0.118298
C64	C	1.729952	0.499979	0.381702
C65	C	1.330036	-0.000016	-0.120198
C66	C	1.830036	0.499984	0.379802
C67	C	1.071508	-0.000014	0.040141
C68	C	1.571508	0.499986	0.540141
C69	C	1.069605	-0.000005	0.140225
C70	C	1.569605	0.499995	0.640225
N71	N	1.079928	0.254204	-0.109852
N72	N	1.579928	0.754204	0.390148
C73	C	1.058757	-0.000024	-0.289497
C74	C	1.558757	0.499976	0.210503
C75	C	1.060661	-0.000027	-0.389581
C76	C	1.560661	0.499973	0.110419
C77	C	0.979438	-0.000024	0.552755
C78	C	1.479438	0.499976	1.052755
C79	C	1.143671	-0.000026	0.574041
C80	C	1.643671	0.499974	1.074041
C81	C	1.145462	-0.000020	0.480008
C82	C	1.645462	0.499980	0.980008
C83	C	1.064239	-0.000017	0.422343
C84	C	1.564239	0.499983	0.922343
C85	C	0.981226	-0.000021	0.458712
C86	C	1.481226	0.499979	0.958712
C87	C	1.228473	-0.000027	0.443631
C88	C	1.728473	0.499973	0.943631
C89	C	1.230266	-0.000022	0.349592
C90	C	1.730266	0.499978	0.849592
C91	C	1.149043	-0.000012	0.291926
C92	C	1.649043	0.499988	0.791926
C93	C	1.066027	-0.000014	0.328301
C94	C	1.566027	0.499986	0.828301
C95	C	0.984804	-0.000012	0.270636
C96	C	1.484804	0.499988	0.770636
C97	C	0.901787	-0.000006	0.307009
C98	C	1.401787	0.499994	0.807009
C99	C	0.900002	-0.000011	0.401046
C100	C	1.400002	0.499989	0.901046
C101	C	1.150828	-0.000008	0.197889
C102	C	1.650828	0.499992	0.697889
C103	C	0.986592	-0.000008	0.176594
C104	C	1.486592	0.499992	0.676594
H105	H	0.495762	0.274044	-0.107090
H106	H	0.995762	0.774044	0.392910
Br107	Br	0.694985	0.326908	-0.107750
Br108	Br	1.194985	0.826908	0.392250
H109	H	0.328496	-0.176690	-0.130659
H110	H	0.828496	0.323310	0.369341
Br111	Br	0.791560	-0.000016	0.228739
Br112	Br	1.291560	0.499984	0.728739
Br113	Br	1.180360	-0.450170	-0.009921
Br114	Br	1.680360	0.049830	0.490079
Br115	Br	1.263482	-0.000040	0.148527
Br116	Br	1.763482	0.499960	0.648527
H117	H	0.985234	-0.519269	-0.204781
H118	H	1.485234	-0.019269	0.295219
H119	H	0.801776	0.176657	-0.118710
H120	H	1.301776	0.676657	0.381290
Br121	Br	0.435287	-0.326952	-0.141605
Br122	Br	0.935287	0.173048	0.358395
H123	H	0.920449	-0.000002	0.129649
H124	H	1.420449	0.499998	0.629649
H125	H	0.832414	-0.000007	0.430670
H126	H	1.332414	0.499993	0.930670
Br127	Br	0.866778	-0.000002	0.602115
Br128	Br	1.366778	0.499998	1.102115
Br129	Br	1.253895	-0.000053	0.652298
Br130	Br	1.753895	0.499947	1.152298
Br131	Br	1.338695	-0.000060	0.521890
Br132	Br	1.838695	0.499940	1.021890
Br133	Br	1.342930	-0.000013	0.300237
Br134	Br	1.842930	0.499987	0.800237
H135	H	0.781217	-0.176680	-0.139274
H136	H	1.281217	0.323320	0.360726
Br137	Br	0.326601	0.229537	-0.106516
Br138	Br	0.826601	0.729537	0.393484
H139	H	0.634498	-0.274063	-0.142251
H140	H	1.134498	0.225937	0.357749
