data_functionalizedCrystal
_audit_creation_method	'MofGen! by Chris Wilmer'
_symmetry_space_group_name_H-M	'P1'
_symmetry_Int_Tables_number	1
_symmetry_cell_setting	triclinic
loop_
_symmetry_equiv_pos_as_xyz
  x,y,z
_cell_length_a	18.215407
_cell_length_b	14.908520
_cell_length_c	18.215399
_cell_angle_alpha	93.269364
_cell_angle_beta	89.980167
_cell_angle_gamma	93.321174
loop_
_atom_site_label
_atom_site_type_symbol
_atom_site_fract_x
_atom_site_fract_y
_atom_site_fract_z
Zn1	Zn	1.108178	-0.359158	-0.433017
Zn2	Zn	1.100989	-0.510027	-0.317051
Zn3	Zn	0.985109	-0.359188	-0.309966
Zn4	Zn	0.977982	-0.509977	-0.440073
O5	O	1.043064	-0.434588	-0.375027
O6	O	1.210208	-0.379180	-0.417646
O7	O	1.085592	-0.490052	-0.213128
O8	O	1.007425	-0.232939	-0.320371
O9	O	1.204927	-0.490023	-0.332446
O10	O	1.097843	-0.232917	-0.410776
O11	O	1.000455	-0.379230	-0.207923
O12	O	0.881180	-0.379182	-0.327213
O13	O	0.995278	-0.489937	-0.542120
O14	O	0.875943	-0.489966	-0.422802
O15	O	1.090932	-0.379131	-0.536936
O16	O	1.078681	-0.636266	-0.339288
O17	O	0.988308	-0.636229	-0.429672
C18	C	0.851859	-0.434572	-0.375005
C19	C	0.770059	-0.434587	-0.375014
C20	C	1.031961	-0.668981	-0.386030
C21	C	1.027278	-0.769256	-0.390762
C22	C	0.579154	-0.492363	-0.424733
C23	C	0.502295	-0.492366	-0.424742
C24	C	0.507726	-0.376828	-0.325338
C25	C	0.584584	-0.376822	-0.325333
C26	C	0.620295	-0.434594	-0.375029
C27	C	0.466579	-0.434604	-0.375044
C28	C	0.383245	-0.434606	-0.375053
C29	C	0.703635	-0.434591	-0.375021
C30	C	1.112681	-0.957660	-0.305613
C31	C	1.108284	-1.051877	-0.310057
C32	C	1.014091	-1.051908	-0.404097
C33	C	1.018488	-0.957691	-0.399653
C34	C	1.067784	-0.910570	-0.350409
C35	C	1.072177	-0.816352	-0.345962
C36	C	0.977988	-0.816385	-0.440005
C37	C	0.973591	-0.910602	-0.444449
C38	C	1.235017	-0.434604	-0.375049
C39	C	1.316815	-0.434611	-0.375059
C40	C	1.043112	-0.434526	-0.566977
C41	C	1.043133	-0.434499	-0.648775
C42	C	1.054231	-0.199279	-0.363996
C43	C	1.058990	-0.099004	-0.359296
C44	C	1.092959	-0.376748	-0.834268
C45	C	1.092969	-0.376722	-0.911126
C46	C	0.993364	-0.492110	-0.916513
C47	C	0.993351	-0.492131	-0.839656
C48	C	1.043153	-0.434452	-0.798536
C49	C	1.043176	-0.434404	-0.952250
C50	C	1.043186	-0.434376	-1.035582
C51	C	1.043142	-0.434478	-0.715198
C52	C	1.043062	-0.434585	-0.183820
C53	C	1.043196	-0.434357	-0.102011
H54	H	0.608228	-0.539403	-0.465200
H55	H	0.468801	-0.539406	-0.465216
H56	H	0.952819	-0.539073	-0.950002
H57	H	1.133509	-0.329780	-0.800790
C58	C	0.491281	-0.224011	-0.282519
C59	C	0.468471	-0.313331	-0.270709
H60	H	0.467044	-0.184811	-0.248794
H61	H	0.542937	-0.215746	-0.275402
H62	H	0.479320	-0.210896	-0.331369
H63	H	0.480436	-0.326447	-0.221860
H64	H	0.416803	-0.321599	-0.277820
C65	C	1.191429	-0.262680	-0.898076
C66	C	1.147721	-0.313297	-0.950402
H67	H	1.225234	-0.223526	-0.922325
H68	H	1.160998	-0.228179	-0.866477
H69	H	1.217706	-0.302009	-0.869947
H70	H	1.121440	-0.273968	-0.978528
H71	H	1.178156	-0.347800	-0.982014
H72	H	0.618083	-0.329773	-0.284858
H73	H	1.144846	-1.090213	-0.273581
C74	C	1.164845	-0.825788	-0.253459
C75	C	1.126364	-0.764554	-0.291835
H76	H	1.198302	-0.793809	-0.220047
H77	H	1.131083	-0.862590	-0.227014
H78	H	1.191259	-0.862482	-0.287291
H79	H	1.099945	-0.727864	-0.258003
H80	H	1.160131	-0.727736	-0.318282
C81	C	0.965533	-1.196355	-0.452659
C82	C	0.959907	-1.103715	-0.458221
H83	H	0.932078	-1.228336	-0.486071
H84	H	1.014250	-1.211723	-0.464206
H85	H	0.954074	-1.211835	-0.403929
H86	H	0.971372	-1.088234	-0.506951
H87	H	0.911179	-1.088341	-0.446679
H88	H	0.952788	-0.539119	-0.810563
C89	C	0.880929	-0.901169	-0.536958
C90	C	0.919408	-0.962401	-0.498578
H91	H	0.847481	-0.933148	-0.570378
H92	H	0.854512	-0.864481	-0.503134
H93	H	0.914699	-0.864360	-0.563401
H94	H	0.885637	-0.999206	-0.472130
H95	H	0.945826	-0.999105	-0.532406
C96	C	0.942902	-0.671973	-0.474953
C97	C	0.928635	-0.764622	-0.489251
H98	H	0.912435	-0.640019	-0.505358
H99	H	0.932879	-0.656589	-0.424776
H100	H	0.993067	-0.656477	-0.485043
H101	H	0.878471	-0.780119	-0.479156
H102	H	0.938652	-0.780013	-0.539440
H103	H	1.152815	-0.919293	-0.265511
