data_functionalizedCrystal
_audit_creation_method	'MofGen! by Chris Wilmer'
_symmetry_space_group_name_H-M	'P1'
_symmetry_Int_Tables_number	1
_symmetry_cell_setting	triclinic
loop_
_symmetry_equiv_pos_as_xyz
  x,y,z
_cell_length_a	10.654547
_cell_length_b	11.026607
_cell_length_c	9.482900
_cell_angle_alpha	78.613859
_cell_angle_beta	80.598160
_cell_angle_gamma	83.463964
loop_
_atom_site_label
_atom_site_type_symbol
_atom_site_fract_x
_atom_site_fract_y
_atom_site_fract_z
O1	O	1.689541	-0.189619	0.120918
O2	O	1.327594	-0.205884	0.120915
O3	O	1.478570	-0.020845	0.120911
O4	O	1.538564	-0.374658	0.120922
O5	O	1.509290	0.016824	-0.120882
O6	O	1.358313	-0.168216	-0.120878
O7	O	1.720260	-0.151950	-0.120875
Cu8	Cu	1.542092	-0.156644	-0.142955
Cu9	Cu	1.505762	-0.201191	0.142994
O10	O	1.569284	-0.336990	-0.120871
C11	C	1.295896	-0.185855	0.000018
C12	C	1.155677	-0.182279	0.000017
C13	C	0.858701	-0.216610	0.263646
C14	C	0.907838	-0.238824	0.395448
C15	C	1.039588	-0.242192	0.395444
C16	C	1.122203	-0.223340	0.263624
C17	C	1.073066	-0.201126	0.131822
C18	C	0.941312	-0.197763	0.131840
C19	C	1.106539	-0.160065	-0.131785
C20	C	0.974791	-0.156705	-0.131785
C21	C	1.189155	-0.141213	-0.263605
C22	C	1.140018	-0.119006	-0.395410
C23	C	1.008261	-0.115640	-0.395401
C24	C	0.925653	-0.134490	-0.263586
C25	C	1.482861	0.043293	0.000016
C26	C	1.449866	0.178285	0.000021
C27	C	1.751957	-0.171980	0.000025
C28	C	1.892175	-0.175557	0.000035
N29	N	1.480209	-0.232514	0.344115
C30	C	1.564992	-0.401128	0.000027
C31	C	1.597986	-0.536121	0.000031
C32	C	1.540969	0.251322	0.000024
C33	C	1.506870	0.390843	0.000029
N34	N	1.567653	-0.125311	-0.344075
C35	C	1.534563	-0.165891	0.416313
C36	C	1.513291	-0.191944	0.583731
H37	H	1.229478	-0.226069	0.263633
O38	O	1.092581	-0.266145	0.537607
H39	H	1.144292	-0.185930	0.543898
O40	O	0.716602	-0.212987	0.263636
H41	H	0.681593	-0.120517	0.206722
O42	O	1.397710	-0.333622	0.426408
H43	H	1.361138	-0.378468	0.348055
O44	O	0.818741	-0.259156	0.537627
H45	H	0.765425	-0.341334	0.543955
O46	O	1.331258	-0.144866	-0.263605
H47	H	1.351283	-0.071911	-0.206698
H48	H	1.207293	-0.103651	-0.502727
H49	H	1.346624	0.219045	0.000029
H50	H	0.968263	-0.097555	-0.502730
H51	H	1.596852	-0.089569	0.354183
H52	H	0.818375	-0.131759	-0.263566
H53	H	1.451009	-0.268279	0.645857
O54	O	1.677732	0.197349	0.000023
H55	H	1.683054	0.096235	0.000010
H56	H	1.403620	0.431597	0.000037
O57	O	1.650158	-0.024195	0.573653
H58	H	1.653914	-0.019590	0.455067
O59	O	1.734757	0.409915	0.000025
H60	H	1.740083	0.308801	0.000010
