data_functionalizedCrystal
_audit_creation_method	'MofGen! by Chris Wilmer'
_symmetry_space_group_name_H-M	'P1'
_symmetry_Int_Tables_number	1
_symmetry_cell_setting	triclinic
loop_
_symmetry_equiv_pos_as_xyz
  x,y,z
_cell_length_a	18.101398
_cell_length_b	18.050589
_cell_length_c	18.101389
_cell_angle_alpha	90.023715
_cell_angle_beta	89.990255
_cell_angle_gamma	89.979539
loop_
_atom_site_label
_atom_site_type_symbol
_atom_site_fract_x
_atom_site_fract_y
_atom_site_fract_z
Zn1	Zn	1.132153	0.295825	-0.418523
Zn2	Zn	1.132062	0.420000	-0.294670
Zn3	Zn	1.008312	0.295818	-0.294716
Zn4	Zn	1.008276	0.419968	-0.418490
O5	O	1.070201	0.357903	-0.356600
O6	O	1.235774	0.312313	-0.402089
O7	O	1.115623	0.403537	-0.191043
O8	O	1.024793	0.191895	-0.311172
O9	O	1.235707	0.403544	-0.311094
O10	O	1.115778	0.191900	-0.402133
O11	O	1.024705	0.312301	-0.191077
O12	O	0.904674	0.312271	-0.311140
O13	O	1.024731	0.403491	-0.522128
O14	O	0.904648	0.403484	-0.402077
O15	O	1.115743	0.312283	-0.522152
O16	O	1.115589	0.523920	-0.311063
O17	O	1.024643	0.523897	-0.402033
C18	C	0.877790	0.357874	-0.356610
C19	C	0.795476	0.357879	-0.356632
C20	C	0.496385	0.357923	-0.356601
C21	C	0.527718	0.415589	-0.413534
C22	C	0.613337	0.415408	-0.413768
C23	C	0.644768	0.357902	-0.356617
C24	C	0.613705	0.279684	-0.377952
C25	C	0.528060	0.280030	-0.378357
C26	C	0.527935	0.377786	-0.278197
C27	C	0.613585	0.379502	-0.278616
C28	C	0.728627	0.357885	-0.356624
C29	C	0.412526	0.357934	-0.356596
C30	C	1.070122	0.550855	-0.356555
C31	C	1.070157	0.633401	-0.356561
C32	C	1.119723	0.882212	-0.307155
C33	C	1.052158	0.832873	-0.288980
C34	C	1.070227	0.930521	-0.356596
C35	C	1.137753	0.832779	-0.374719
C36	C	1.070196	0.784536	-0.356577
C37	C	1.002627	0.882269	-0.338386
C38	C	1.088268	0.882180	-0.424156
C39	C	1.020656	0.832863	-0.406007
C40	C	1.070246	1.014620	-0.356605
C41	C	1.070170	0.700440	-0.356568
C42	C	1.263362	0.357933	-0.356590
C43	C	1.345677	0.357946	-0.356586
C44	C	1.070243	0.357884	-0.549762
C45	C	1.070262	0.357876	-0.632076
C46	C	1.070280	1.164197	-0.356643
C47	C	1.070265	1.081652	-0.356614
C48	C	1.070305	0.357737	-0.931167
C49	C	1.012845	0.414940	-0.899827
C50	C	1.013001	0.415205	-0.814209
C51	C	1.070283	0.357806	-0.782785
C52	C	1.148310	0.379056	-0.813869
C53	C	1.147990	0.379431	-0.899514
C54	C	1.050415	0.279157	-0.899604
C55	C	1.048679	0.279611	-0.813953
C56	C	1.070275	0.357844	-0.698925
C57	C	1.070318	0.357701	-1.015027
C58	C	1.070201	0.357868	-0.164190
C59	C	1.070326	0.357667	-0.081876
H60	H	0.634064	0.235554	-0.337779
H61	H	1.103565	0.903855	-0.481283
C62	C	1.207705	0.324542	-0.786378
C63	C	1.185994	0.259942	-0.735263
C64	C	1.245386	0.205426	-0.707774
C65	C	1.326490	0.215509	-0.731401
C66	C	1.348205	0.280112	-0.782520
C67	C	1.288813	0.334629	-0.810008
H68	H	1.125952	0.252475	-0.717770
H69	H	1.229311	0.157602	-0.669933
H70	H	1.370456	0.175153	-0.711052
H71	H	1.408247	0.287579	-0.800012
H72	H	1.304888	0.382452	-0.847850
H73	H	1.087475	0.234729	-0.792563
H74	H	1.194872	0.811040	-0.390054
H75	H	0.955140	0.401907	-0.793192
C76	C	0.500559	0.321049	-0.220884
C77	C	0.519541	0.238390	-0.230087
C78	C	0.492162	0.181652	-0.172782
C79	C	0.445802	0.207572	-0.106274
C80	C	0.426818	0.290234	-0.097069
C81	C	0.454196	0.346973	-0.154374
H82	H	0.553862	0.219199	-0.279322
H83	H	0.506216	0.120459	-0.179596
H84	H	0.425534	0.165570	-0.063853
H85	H	0.392496	0.309426	-0.047833
H86	H	0.440143	0.408166	-0.147559
H87	H	0.954811	0.401778	-0.920429
C88	C	0.642483	0.326880	-0.218227
C89	C	0.695134	0.263088	-0.238777
C90	C	0.724033	0.210460	-0.178390
C91	C	0.700280	0.221624	-0.097454
C92	C	0.647625	0.285420	-0.076900
C93	C	0.618726	0.338048	-0.137287
H94	H	0.712720	0.254820	-0.298695
H95	H	0.763011	0.163234	-0.193606
H96	H	0.721672	0.182666	-0.052752
H97	H	0.630039	0.293687	-0.016982
H98	H	0.579748	0.385273	-0.122071
C99	C	0.641040	0.397645	-0.492243
C100	C	0.585233	0.383576	-0.554893
C101	C	0.612936	0.365809	-0.633372
C102	C	0.696446	0.362111	-0.649200
C103	C	0.752258	0.376180	-0.586548
C104	C	0.724555	0.393948	-0.508070
H105	H	0.523409	0.386313	-0.543178
H106	H	0.571619	0.355393	-0.679751
H107	H	0.716953	0.348958	-0.707295
H108	H	0.814082	0.373443	-0.598264
H109	H	0.765872	0.404363	-0.461691
C110	C	1.030907	0.493825	-0.786443
C111	C	0.975077	0.535636	-0.737594
C112	C	0.993048	0.614232	-0.709793
C113	C	1.066850	0.651017	-0.730841
C114	C	1.122685	0.609206	-0.779693
C115	C	1.104714	0.530610	-0.807494
H116	H	0.920440	0.508406	-0.722011
H117	H	0.951715	0.645184	-0.673630
H118	H	1.080154	0.709199	-0.710261
H119	H	1.177322	0.636436	-0.795276
H120	H	1.146047	0.499659	-0.843657
H121	H	1.092266	0.236538	-0.919873
H122	H	1.025847	0.472830	-0.921344
C123	C	1.207793	0.325602	-0.927529
C124	C	1.219701	0.314967	-1.011101
C125	C	1.279506	0.261143	-1.039112
C126	C	1.327404	0.217954	-0.983552
C127	C	1.315498	0.228588	-0.899975
C128	C	1.255692	0.282412	-0.871963
H129	H	1.184243	0.346938	-1.052234
H130	H	1.288320	0.253271	-1.100982
H131	H	1.371675	0.178111	-1.004288
H132	H	1.350956	0.196617	-0.858841
H133	H	1.246879	0.290284	-0.810094
C134	C	1.171485	0.455835	-0.784898
C135	C	1.119751	0.499315	-0.733077
C136	C	1.142920	0.576096	-0.704108
C137	C	1.217824	0.609398	-0.726960
C138	C	1.269563	0.565917	-0.778784
C139	C	1.246393	0.489136	-0.807752
H140	H	1.064298	0.474664	-0.716158
H141	H	1.104619	0.608283	-0.665745
H142	H	1.234975	0.666236	-0.705516
H143	H	1.325015	0.590568	-0.795703
H144	H	1.284694	0.456949	-0.846116
H145	H	0.994506	0.259798	-0.921206
C146	C	1.176214	0.911495	-0.250644
C147	C	1.167884	0.892031	-0.168243
C148	C	1.224370	0.921316	-0.111731
C149	C	1.289187	0.970065	-0.137621
C150	C	1.297520	0.989531	-0.220027
C151	C	1.241034	0.960246	-0.276538
H152	H	1.119900	0.855943	-0.149074
H153	H	1.218201	0.906906	-0.050729
H154	H	1.331002	0.991743	-0.095788
H155	H	1.345504	1.025619	-0.239196
H156	H	1.247203	0.974656	-0.337541
H157	H	0.991257	0.263587	-0.793638
C158	C	0.641711	0.493770	-0.395714
C159	C	0.621306	0.530525	-0.321681
C160	C	0.649673	0.608891	-0.303632
C161	C	0.698447	0.650503	-0.359617
C162	C	0.718855	0.613748	-0.433655
C163	C	0.690487	0.535381	-0.451703
H164	H	0.585198	0.499721	-0.280234
H165	H	0.634566	0.636099	-0.248824
H166	H	0.719446	0.708514	-0.346256
H167	H	0.754962	0.644551	-0.475102
H168	H	0.705594	0.508173	-0.506511
C169	C	0.499862	0.494204	-0.395689
C170	C	0.448322	0.507006	-0.329203
C171	C	0.420455	0.585623	-0.311362
C172	C	0.444127	0.651438	-0.360006
C173	C	0.495670	0.638638	-0.426496
C174	C	0.523538	0.560021	-0.444337
H175	H	0.430796	0.458284	-0.293190
H176	H	0.382299	0.595097	-0.262141
H177	H	0.423498	0.709634	-0.346799
H178	H	0.513196	0.687360	-0.462509
H179	H	0.561693	0.550547	-0.493558
H180	H	1.164851	0.436874	-0.919487
H181	H	0.506207	0.402615	-0.471290
H182	H	0.945491	0.903916	-0.322986
H183	H	1.036880	0.811213	-0.231838
C184	C	0.964031	0.803756	-0.462473
C185	C	0.881683	0.823482	-0.454062
C186	C	0.825055	0.794369	-0.510520
C187	C	0.850775	0.745530	-0.575389
C188	C	0.933127	0.725801	-0.583802
C189	C	0.989755	0.754914	-0.527344
H190	H	0.862640	0.859639	-0.406039
H191	H	0.764092	0.808974	-0.504291
H192	H	0.808856	0.723978	-0.617182
H193	H	0.952170	0.689645	-0.631825
H194	H	1.050717	0.740309	-0.533573
H195	H	0.507333	0.235526	-0.338792
H196	H	0.508097	0.263181	-0.435674
H197	H	0.635168	0.262531	-0.434646
C198	C	0.641025	0.457255	-0.256869
C199	C	0.617994	0.491307	-0.182323
C200	C	0.645447	0.569056	-0.160574
C201	C	0.695930	0.612752	-0.213372
C202	C	0.718963	0.578700	-0.287923
C203	C	0.691511	0.500951	-0.309671
H204	H	0.580621	0.458960	-0.143235
H205	H	0.628396	0.594264	-0.105387
H206	H	0.716252	0.670307	-0.197272
H207	H	0.756336	0.611047	-0.327011
H208	H	0.708562	0.475744	-0.364859
H209	H	0.506327	0.433846	-0.258810
