data_functionalizedCrystal
_audit_creation_method	'MofGen! by Chris Wilmer'
_symmetry_space_group_name_H-M	'P1'
_symmetry_Int_Tables_number	1
_symmetry_cell_setting	triclinic
loop_
_symmetry_equiv_pos_as_xyz
  x,y,z
_cell_length_a	19.288864
_cell_length_b	17.019294
_cell_length_c	17.766277
_cell_angle_alpha	86.114664
_cell_angle_beta	89.976791
_cell_angle_gamma	83.264601
loop_
_atom_site_label
_atom_site_type_symbol
_atom_site_fract_x
_atom_site_fract_y
_atom_site_fract_z
O1	O	0.921527	0.098406	-0.069213
O2	O	0.719290	0.111681	-0.070022
O3	O	0.826050	-0.009809	-0.062171
O4	O	0.814768	0.219897	-0.077064
O5	O	0.826031	-0.009815	0.063018
O6	O	0.719271	0.111675	0.055167
O7	O	0.921508	0.098400	0.055976
Cu8	Cu	0.820388	0.105037	0.067002
Cu9	Cu	0.820410	0.105044	-0.081048
O10	O	0.814749	0.219891	0.048125
C11	C	0.693403	0.111251	-0.007393
C12	C	0.616298	0.109969	-0.007290
C13	C	0.825612	-0.039200	0.002328
C14	C	0.824328	-0.126766	0.008002
C15	C	0.571728	0.181254	-0.011924
C16	C	0.499278	0.180049	-0.011854
C17	C	0.471402	0.107555	-0.007165
C18	C	0.515982	0.036261	-0.002527
C19	C	0.588430	0.037468	-0.002589
C20	C	0.363046	0.050570	-0.047355
C21	C	0.290600	0.049366	-0.047297
C22	C	0.247950	0.103831	-0.006969
C23	C	0.277755	0.159513	0.033291
C24	C	0.350203	0.160720	0.033228
C25	C	0.392846	0.106239	-0.007097
C26	C	0.124822	0.173815	-0.011527
C27	C	0.052372	0.172607	-0.011452
C28	C	0.069077	0.028817	-0.002132
C29	C	0.141526	0.030026	-0.002200
C30	C	0.169394	0.102528	-0.006900
C31	C	0.823737	-0.167897	-0.057572
C32	C	0.822526	-0.250174	-0.052239
C33	C	0.821912	-0.291319	0.018670
C34	C	0.822501	-0.250182	0.084249
C35	C	0.823707	-0.167906	0.078915
C36	C	0.818265	-0.539739	0.038191
C37	C	0.817062	-0.622022	0.043520
C38	C	0.817085	-0.622008	-0.092968
C39	C	0.818296	-0.539730	-0.098297
C40	C	0.818881	-0.498600	-0.032717
C41	C	0.820676	-0.375420	0.024124
C42	C	0.820112	-0.414500	-0.038172
C43	C	0.947395	0.098830	-0.006654
C44	C	1.024501	0.100113	-0.006762
C45	C	0.815186	0.249281	-0.016375
C46	C	0.816470	0.336847	-0.022054
N47	N	0.820378	0.105031	0.171133
N48	N	0.820426	0.105044	-0.185178
C49	C	0.867666	0.051262	0.213995
C50	C	0.867670	0.051258	0.292797
C51	C	0.820392	0.105038	0.328733
C52	C	0.773095	0.158812	0.285862
C53	C	0.773088	0.158808	0.207062
C54	C	0.811221	0.176913	0.448913
C55	C	0.811233	0.176917	0.527711
C56	C	0.820411	0.105047	0.571779
C57	C	0.829591	0.033170	0.537039
C58	C	0.829584	0.033167	0.458239
C59	C	0.820395	0.105047	0.414178
C60	C	0.867706	0.051269	0.700087
C61	C	0.867705	0.051264	0.778891
C62	C	0.773134	0.158825	0.771954
C63	C	0.773131	0.158823	0.693152
C64	C	0.820421	0.105046	0.657224
H65	H	0.594412	0.240290	-0.015753
H66	H	0.734636	0.202610	0.801213
H67	H	0.243031	0.203863	0.066130
H68	H	0.906171	0.007472	0.184744
F69	F	0.722803	0.216055	0.647532
F70	F	0.918004	-0.005974	0.338421
H71	H	0.837057	-0.025358	0.429957
H72	H	0.822047	-0.283659	-0.105636
H73	H	0.837065	-0.025354	0.572917
F74	F	0.451835	0.255924	-0.016784
F75	F	0.821839	-0.293973	0.159716
H76	H	0.266338	0.004029	-0.080083
H77	H	0.374467	0.206055	0.066012
H78	H	0.803762	0.235444	0.555990
H79	H	0.397766	0.006216	-0.080199
H80	H	0.818797	-0.506236	-0.156038
F81	F	0.918034	-0.005968	0.661849
H82	H	0.906211	0.007474	0.813790
F83	F	0.801502	0.253414	0.402019
F84	F	0.004936	0.248483	-0.016380
H85	H	0.493281	-0.022764	0.001280
F86	F	0.722776	0.216045	0.324109
F87	F	0.722755	0.216040	0.161443
H88	H	0.046382	-0.030209	0.001638
F89	F	0.820019	-0.419216	0.099588
H90	H	0.147513	0.232849	-0.015343
F91	F	0.824396	-0.124115	-0.133044
F92	F	0.188963	-0.045846	0.002728
H93	H	0.816607	-0.655504	-0.146359
F94	F	0.635867	-0.038407	0.002343
F95	F	0.816411	-0.665811	0.118994
H96	H	0.818756	-0.506263	0.091590
F97	F	0.824335	-0.124132	0.148708
F98	F	0.820767	-0.370709	-0.113636
