data_functionalizedCrystal
_audit_creation_method	'MofGen! by Chris Wilmer'
_symmetry_space_group_name_H-M	'P1'
_symmetry_Int_Tables_number	1
_symmetry_cell_setting	triclinic
loop_
_symmetry_equiv_pos_as_xyz
  x,y,z
_cell_length_a	16.109302
_cell_length_b	14.044220
_cell_length_c	14.586319
_cell_angle_alpha	89.995213
_cell_angle_beta	89.994552
_cell_angle_gamma	88.325329
loop_
_atom_site_label
_atom_site_type_symbol
_atom_site_fract_x
_atom_site_fract_y
_atom_site_fract_z
O1	O	1.112195	0.121838	-0.076284
O2	O	0.871261	0.136999	-0.076278
O3	O	0.988112	-0.008565	-0.076272
O4	O	0.995345	0.267402	-0.076290
O5	O	0.988103	-0.008567	0.076209
O6	O	0.871252	0.136997	0.076203
O7	O	1.112186	0.121836	0.076196
Cu8	Cu	0.991718	0.129416	0.090122
Cu9	Cu	0.991729	0.129419	-0.090204
O10	O	0.995336	0.267400	0.076191
C11	C	0.840236	0.136384	-0.000036
C12	C	0.747804	0.134542	-0.000033
C13	C	0.535141	0.130283	0.083075
C14	C	0.448292	0.128542	0.083072
C15	C	0.448312	0.128549	-0.083171
C16	C	0.535161	0.130283	-0.083167
C17	C	0.578573	0.131155	-0.000041
C18	C	0.404875	0.127680	-0.000048
C19	C	0.310709	0.125793	-0.000052
C20	C	0.672745	0.133040	-0.000037
C21	C	0.984941	-0.043879	-0.000031
C22	C	0.975498	-0.149102	-0.000030
C23	C	0.958232	-0.341758	-0.000042
C24	C	1.025212	-0.399412	-0.000047
C25	C	1.015605	-0.506613	-0.000054
C26	C	0.967838	-0.234548	-0.000035
C27	C	1.143211	0.122451	-0.000047
C28	C	1.235644	0.124293	-0.000056
C29	C	0.998506	0.302714	-0.000052
C30	C	1.007950	0.407937	-0.000060
N31	N	0.991717	0.129414	0.216954
N32	N	0.991737	0.129414	-0.217035
C33	C	1.043479	0.064980	0.451963
C34	C	1.043481	0.064977	0.547944
C35	C	0.939969	0.193851	0.547949
C36	C	0.939963	0.193848	0.451969
C37	C	0.991723	0.129413	0.403979
C38	C	0.991731	0.129414	0.595940
C39	C	0.991733	0.129412	0.700007
C40	C	0.991720	0.129414	0.299905
H41	H	0.412934	0.127833	0.150754
C42	C	0.582938	0.131237	-0.174606
N43	N	0.618924	0.131951	-0.243475
C44	C	0.883066	0.264777	0.399184
N45	N	0.840225	0.318212	0.359425
C46	C	0.582892	0.131230	0.174516
N47	N	0.618856	0.131939	0.243392
H48	H	0.412956	0.127841	-0.150849
C49	C	1.112427	-0.357330	-0.000036
N50	N	1.178115	-0.325630	-0.000024
H51	H	1.085623	0.012512	0.412892
C52	C	1.100409	-0.005913	0.600723
N53	N	1.143287	-0.059314	0.640475
H54	H	0.893680	-0.372908	-0.000043
C55	C	0.883035	0.264723	0.600747
N56	N	0.840151	0.318106	0.640514
