data_functionalizedCrystal
_audit_creation_method	'MofGen! by Chris Wilmer'
_symmetry_space_group_name_H-M	'P1'
_symmetry_Int_Tables_number	1
_symmetry_cell_setting	triclinic
loop_
_symmetry_equiv_pos_as_xyz
  x,y,z
_cell_length_a	25.639243
_cell_length_b	25.639239
_cell_length_c	25.639233
_cell_angle_alpha	89.981253
_cell_angle_beta	89.984038
_cell_angle_gamma	90.041410
loop_
_atom_site_label
_atom_site_type_symbol
_atom_site_fract_x
_atom_site_fract_y
_atom_site_fract_z
Zn1	Zn	0.799225	-0.208176	-0.295656
Zn2	Zn	0.799149	-0.295595	-0.208220
Zn3	Zn	0.711801	-0.208180	-0.208229
Zn4	Zn	0.711746	-0.295587	-0.295619
O5	O	0.755480	-0.251885	-0.251931
O6	O	0.872380	-0.219775	-0.284069
O7	O	0.787553	-0.284004	-0.135056
O8	O	0.723453	-0.135014	-0.219846
O9	O	0.872324	-0.284001	-0.219830
O10	O	0.787683	-0.135012	-0.284077
O11	O	0.723379	-0.219781	-0.135063
O12	O	0.638629	-0.219772	-0.219810
O13	O	0.723360	-0.283987	-0.368789
O14	O	0.638589	-0.283990	-0.284016
O15	O	0.787630	-0.219767	-0.368816
O16	O	0.787499	-0.368759	-0.219795
O17	O	0.723286	-0.368753	-0.284007
C18	C	0.619638	-0.251881	-0.251910
C19	C	0.561524	-0.251892	-0.251914
C20	C	0.201184	-0.218495	-0.285436
C21	C	0.146580	-0.218494	-0.285439
O22	O	0.118363	-0.190088	-0.313915
N23	N	0.119241	-0.251883	-0.251945
C24	C	0.146510	-0.285271	-0.218443
O25	O	0.118242	-0.313670	-0.189954
C26	C	0.201113	-0.285268	-0.218437
C27	C	0.228449	-0.251881	-0.251937
C28	C	0.228520	-0.185109	-0.318932
C29	C	0.283121	-0.185111	-0.318930
C30	C	0.310385	-0.218497	-0.285431
C31	C	0.283049	-0.251882	-0.251934
C32	C	0.228380	-0.318653	-0.184932
C33	C	0.282987	-0.318647	-0.184929
C34	C	0.310323	-0.285260	-0.218429
C35	C	0.364915	-0.285270	-0.218432
N36	N	0.392253	-0.251881	-0.251926
C37	C	0.364989	-0.218494	-0.285425
C38	C	0.031839	-0.285273	-0.218456
C39	C	-0.022763	-0.285279	-0.218464
C40	C	-0.022689	-0.218501	-0.285460
C41	C	0.031914	-0.218499	-0.285454
C42	C	0.059178	-0.251884	-0.251950
C43	C	0.479654	-0.218500	-0.285417
C44	C	0.534259	-0.218506	-0.285413
C45	C	0.534180	-0.285281	-0.218415
C46	C	0.479580	-0.285278	-0.218421
C47	C	0.452318	-0.251883	-0.251924
O48	O	0.393166	-0.313659	-0.189969
O49	O	0.393263	-0.190095	-0.313904
C50	C	0.755392	-0.387727	-0.251907
C51	C	0.755403	-0.445841	-0.251914
C52	C	0.789004	-0.806195	-0.218553
C53	C	0.789024	-0.860799	-0.218560
O54	O	0.817502	-0.889028	-0.190169
N55	N	0.755572	-0.888124	-0.251966
C56	C	0.722102	-0.860841	-0.285371
O57	O	0.693651	-0.889096	-0.313786
C58	C	0.722085	-0.806238	-0.285366
C59	C	0.755535	-0.778916	-0.251954
C60	C	0.822452	-0.778873	-0.185144
C61	C	0.822431	-0.724273	-0.185137
C62	C	0.788962	-0.696994	-0.218538
C63	C	0.755514	-0.724315	-0.251946
C64	C	0.688617	-0.778956	-0.318773
C65	C	0.688603	-0.724349	-0.318765
C66	C	0.722053	-0.697027	-0.285354
C67	C	0.722024	-0.642436	-0.285340
N68	N	0.755475	-0.615112	-0.251934
C69	C	0.788944	-0.642390	-0.218533
C70	C	0.722141	-0.975511	-0.285379
C71	C	0.722155	-1.030114	-0.285381
C72	C	0.789078	-1.030068	-0.218571
C73	C	0.789061	-0.975465	-0.218566
C74	C	0.755593	-0.948187	-0.251973
C75	C	0.788897	-0.527725	-0.218519
C76	C	0.788872	-0.473120	-0.218513
C77	C	0.721951	-0.473170	-0.285325
C78	C	0.721974	-0.527771	-0.285329
C79	C	0.755452	-0.555047	-0.251925
O80	O	0.693562	-0.614173	-0.313718
O81	O	0.817396	-0.614128	-0.190127
C82	C	0.891853	-0.251888	-0.251952
C83	C	0.949967	-0.251890	-0.251961
C84	C	0.755497	-0.251875	-0.388304
C85	C	0.755504	-0.251871	-0.446418
C86	C	0.755583	-0.115512	-0.251967
C87	C	0.755627	-0.057397	-0.251982
C88	C	0.789012	-0.218333	-0.806801
C89	C	0.789019	-0.218318	-0.861405
O90	O	0.817466	-0.189864	-0.889659
N91	N	0.755562	-0.251749	-0.888701
C92	C	0.722093	-0.285192	-0.861389
O93	O	0.693636	-0.313626	-0.889620
C94	C	0.722084	-0.285204	-0.806786
C95	C	0.755547	-0.251775	-0.779493
C96	C	0.822472	-0.184906	-0.779508
C97	C	0.822466	-0.184921	-0.724908
C98	C	0.789001	-0.218363	-0.697600
C99	C	0.755541	-0.251790	-0.724893
C100	C	0.688613	-0.318644	-0.779475
C101	C	0.688607	-0.318653	-0.724868
C102	C	0.722069	-0.285223	-0.697576
C103	C	0.722070	-0.285247	-0.642984
N104	N	0.755526	-0.251817	-0.615689
C105	C	0.788992	-0.218375	-0.642996
C106	C	0.722113	-0.285165	-0.976060
C107	C	0.722124	-0.285157	-1.030662
C108	C	0.789049	-0.218282	-1.030675
C109	C	0.789041	-0.218293	-0.976071
C110	C	0.755570	-0.251735	-0.948764
C111	C	0.788977	-0.218410	-0.528331
C112	C	0.788970	-0.218429	-0.473726
C113	C	0.722043	-0.285302	-0.473719
C114	C	0.722052	-0.285285	-0.528319
C115	C	0.755521	-0.251834	-0.555624
O116	O	0.693635	-0.313686	-0.614696
O117	O	0.817439	-0.189941	-0.614759
C118	C	0.755494	-0.251856	-0.116089
C119	C	0.755588	-0.251713	-0.057975
H120	H	0.457322	-0.312470	-0.191149
O121	O	0.854933	-0.152433	-0.806111
C122	C	0.884643	-0.122786	-0.890227
C123	C	0.847841	-0.159580	-0.860171
H124	H	0.878931	-0.128559	-0.933940
H125	H	0.875489	-0.080619	-0.879529
H126	H	0.926786	-0.131968	-0.879459
H127	H	0.805686	-0.150446	-0.870923
H128	H	0.857040	-0.201736	-0.870872
O129	O	0.821530	-0.185718	-1.057148
C130	C	0.846948	-0.096774	-1.073895
C131	C	0.810142	-0.133592	-1.043872
H132	H	0.837747	-0.054623	-1.063181
H133	H	0.889109	-0.105912	-1.063157
H134	H	0.841212	-0.102535	-1.117606
H135	H	0.815832	-0.127852	-1.000154
H136	H	0.767995	-0.124445	-1.054653
O137	O	0.560894	-0.186120	-0.317938
C138	C	0.645041	-0.156500	-0.347609
C139	C	0.614946	-0.193210	-0.310759
H140	H	0.688748	-0.162212	-0.341809
H141	H	0.634350	-0.165744	-0.389763
H142	H	0.634301	-0.114333	-0.338509
H143	H	0.625671	-0.235389	-0.319811
H144	H	0.625640	-0.183921	-0.268616
H145	H	0.661350	-0.702142	-0.345971
O146	O	0.689573	-0.317651	-1.057091
C147	C	0.623215	-0.384004	-1.051300
C148	C	0.660047	-0.347225	-1.021308
H149	H	0.599341	-0.407932	-1.022384
H150	H	0.595859	-0.360020	-1.076846
H151	H	0.647208	-0.411316	-1.076881
H152	H	0.636096	-0.319905	-0.995700
H153	H	0.687404	-0.371242	-0.995795
O154	O	0.821539	-0.185902	-0.554770
C155	C	0.887902	-0.119557	-0.549004
C156	C	0.851058	-0.156350	-0.518999
H157	H	0.911770	-0.095647	-0.520097
H158	H	0.915262	-0.143529	-0.574556
H159	H	0.863918	-0.092228	-0.574581
H160	H	0.875000	-0.183685	-0.493394
H161	H	0.823696	-0.132345	-0.493480
H162	H	0.816288	-0.191071	-0.953853
H163	H	0.694883	-0.953304	-0.312581
O164	O	0.821482	-0.948903	-0.186057
C165	C	0.828552	-0.887257	-0.115487
C166	C	0.791774	-0.917311	-0.152263
H167	H	0.804549	-0.861698	-0.088162
H168	H	0.852464	-0.916115	-0.091578
H169	H	0.855879	-0.861679	-0.139525
H170	H	0.764415	-0.942889	-0.128265
H171	H	0.767898	-0.888424	-0.176174
O172	O	0.453119	-0.186136	-0.317989
C173	C	0.391534	-0.179209	-0.388626
C174	C	0.421543	-0.215915	-0.351761
H175	H	0.366006	-0.203271	-0.415947
H176	H	0.365946	-0.151838	-0.364708
H177	H	0.420468	-0.155340	-0.412540
H178	H	0.392646	-0.239818	-0.327838
H179	H	0.447139	-0.243252	-0.375709
H180	H	0.694798	-0.312531	-0.451475
H181	H	0.661345	-0.345880	-0.702638
O182	O	0.201754	-0.351069	-0.152439
C183	C	0.117612	-0.380652	-0.122714
C184	C	0.147700	-0.343921	-0.159551
H185	H	0.073905	-0.374878	-0.128444
H186	H	0.128287	-0.422836	-0.131817
H187	H	0.128377	-0.371409	-0.080579
H188	H	0.136952	-0.353118	-0.201698
H189	H	0.137022	-0.301749	-0.150402
O190	O	0.560648	-0.317786	-0.185932
C191	C	0.577274	-0.406679	-0.160364
C192	C	0.547274	-0.369931	-0.197194
H193	H	0.566464	-0.448845	-0.169449
H194	H	0.621001	-0.400984	-0.166121
H195	H	0.566540	-0.397406	-0.118225
H196	H	0.557964	-0.379181	-0.239347
H197	H	0.503554	-0.375632	-0.191391
H198	H	0.816333	-1.052289	-0.191376
O199	O	0.821342	-0.446638	-0.185984
C200	C	0.846758	-0.429926	-0.097068
C201	C	0.809962	-0.459956	-0.133846
H202	H	0.837563	-0.440674	-0.054906
H203	H	0.888923	-0.440623	-0.106250
H204	H	0.841005	-0.386216	-0.102823
H205	H	0.815669	-0.503673	-0.128111
H206	H	0.767811	-0.449216	-0.124655
H207	H	0.849714	-0.157699	-0.702691
O208	O	0.689641	-1.056570	-0.317882
C209	C	0.623239	-1.050837	-0.384126
C210	C	0.660042	-1.020813	-0.347349
H211	H	0.599291	-1.021941	-0.407951
H212	H	0.647207	-1.076347	-0.411529
H213	H	0.595947	-1.076456	-0.360092
H214	H	0.687341	-0.995166	-0.371341
H215	H	0.636042	-0.995336	-0.319945
H216	H	0.054168	-0.191310	-0.312732
O217	O	0.689676	-0.317684	-0.949478
C218	C	0.682584	-0.388316	-0.887853
C219	C	0.719376	-0.351515	-0.917912
H220	H	0.706582	-0.415685	-0.862333
H221	H	0.655264	-0.364351	-0.862252
H222	H	0.658665	-0.412182	-0.916754
H223	H	0.743330	-0.327640	-0.889048
H224	H	0.746662	-0.375510	-0.943521
O225	O	0.656072	-0.805512	-0.351158
C226	C	0.585518	-0.867252	-0.358158
C227	C	0.622334	-0.837201	-0.321418
H228	H	0.558239	-0.892888	-0.334128
H229	H	0.561562	-0.838392	-0.382022
H230	H	0.609528	-0.892752	-0.385533
H231	H	0.598364	-0.811701	-0.294012
H232	H	0.646292	-0.866089	-0.297591
O233	O	-0.049155	-0.186121	-0.318074
C234	C	-0.065800	-0.160847	-0.407053
C235	C	-0.035803	-0.197555	-0.370180
H236	H	-0.055007	-0.170070	-0.449187
H237	H	-0.109527	-0.166586	-0.401344
H238	H	-0.055045	-0.118677	-0.397918
H239	H	-0.046514	-0.239738	-0.379292
H240	H	0.007917	-0.191770	-0.375895
H241	H	0.305373	-0.157922	-0.346208
O242	O	0.689463	-0.554234	-0.317832
C243	C	0.623066	-0.548509	-0.384081
C244	C	0.659861	-0.518481	-0.347301
H245	H	0.599115	-0.519616	-0.407907
H246	H	0.647039	-0.574015	-0.411482
H247	H	0.595776	-0.574133	-0.360050
H248	H	0.687158	-0.492829	-0.371289
H249	H	0.635855	-0.493008	-0.319897
H250	H	0.054034	-0.312464	-0.191174
H251	H	0.694699	-0.450951	-0.312518
H252	H	0.305183	-0.345834	-0.157644
O253	O	0.689522	-0.317686	-0.554890
C254	C	0.618900	-0.324690	-0.616490
C255	C	0.655723	-0.287943	-0.586447
H256	H	0.591558	-0.300658	-0.642002
H257	H	0.642851	-0.352016	-0.642096
H258	H	0.595007	-0.348606	-0.587578
H259	H	0.679624	-0.263994	-0.615321
H260	H	0.631742	-0.260651	-0.560832
O261	O	0.854879	-0.697655	-0.152701
C262	C	0.884546	-0.613525	-0.123097
C263	C	0.847760	-0.643599	-0.159849
H264	H	0.878811	-0.569815	-0.128871
H265	H	0.875398	-0.624253	-0.080919
H266	H	0.926695	-0.624249	-0.132319
H267	H	0.805599	-0.632891	-0.150674
H268	H	0.856953	-0.632868	-0.202016
H269	H	0.661364	-0.345866	-0.801688
O270	O	-0.049337	-0.317772	-0.186002
C271	C	-0.111055	-0.388337	-0.178838
C272	C	-0.080987	-0.351580	-0.215665
H273	H	-0.136660	-0.415672	-0.202805
H274	H	-0.082207	-0.412235	-0.154907
H275	H	-0.136588	-0.364284	-0.151531
H276	H	-0.055455	-0.375592	-0.243003
H277	H	-0.109864	-0.327679	-0.239559
H278	H	0.206327	-0.157919	-0.346212
H279	H	0.816159	-0.549927	-0.191319
H280	H	0.849709	-0.801078	-0.157945
H281	H	0.816221	-0.191207	-0.451507
