data_functionalizedCrystal
_audit_creation_method	'MofGen! by Chris Wilmer'
_symmetry_space_group_name_H-M	'P1'
_symmetry_Int_Tables_number	1
_symmetry_cell_setting	triclinic
loop_
_symmetry_equiv_pos_as_xyz
  x,y,z
_cell_length_a	10.654556
_cell_length_b	9.730223
_cell_length_c	10.654550
_cell_angle_alpha	89.997176
_cell_angle_beta	95.513766
_cell_angle_gamma	90.001831
loop_
_atom_site_label
_atom_site_type_symbol
_atom_site_fract_x
_atom_site_fract_y
_atom_site_fract_z
O1	O	1.667835	0.114238	-0.176434
O2	O	1.302358	0.114252	-0.193232
O3	O	1.493499	0.114236	-0.002094
O4	O	1.476693	0.114254	-0.367572
O5	O	1.493486	-0.114344	-0.002094
O6	O	1.302344	-0.114328	-0.193232
O7	O	1.667821	-0.114342	-0.176434
Zn8	Zn	1.485080	-0.150627	-0.184833
Zn9	Zn	1.485098	0.150537	-0.184833
O10	O	1.476680	-0.114326	-0.367572
C11	C	1.255553	-0.000037	-0.191997
C12	C	1.116110	-0.000031	-0.188302
N13	N	1.485077	-0.356164	-0.184832
C14	C	0.919572	0.124557	-0.183099
C15	C	1.050594	0.124565	-0.186563
C16	C	1.050598	-0.124645	-0.186563
C17	C	0.919579	-0.124652	-0.183090
C18	C	1.561909	-0.428084	-0.261716
C19	C	1.561929	-0.571967	-0.261709
C20	C	1.408277	-0.571997	-0.107931
C21	C	1.408264	-0.428116	-0.107933
C22	C	1.714626	-0.000051	-0.177669
C23	C	1.854069	-0.000047	-0.181364
C24	C	1.492258	-0.000054	0.044704
C25	C	1.488567	-0.000051	0.184147
N26	N	1.485111	0.356073	-0.184824
C27	C	1.477920	-0.000034	-0.414370
C28	C	1.481612	-0.000027	-0.553813
C29	C	1.601108	-0.000055	0.263630
C30	C	1.597631	-0.000038	0.394651
C31	C	1.369063	-0.000019	0.366693
C32	C	1.372540	-0.000026	0.235675
H33	H	0.866237	0.226018	-0.181692
C34	C	1.728740	-0.000067	0.206955
N35	N	1.824876	-0.000070	0.164271
C36	C	1.721436	-0.000055	0.482078
N37	N	1.814692	-0.000070	0.547927
H38	H	1.103921	0.226031	-0.187974
C39	C	1.241440	-0.000019	0.423387
N40	N	1.145312	-0.000029	0.466087
H41	H	1.103952	-0.226094	-0.187971
H42	H	0.866245	-0.226126	-0.181676
H43	H	1.624455	-0.369504	-0.324333
H44	H	1.345737	-0.630598	-0.045324
C45	C	1.323738	-0.349000	-0.023351
N46	N	1.260077	-0.289409	0.040354
C47	C	1.646428	-0.651072	-0.346309
N48	N	1.710069	-0.710654	-0.410041
H49	H	1.280890	-0.000019	0.170956
