data_functionalizedCrystal
_audit_creation_method	'MofGen! by Chris Wilmer'
_symmetry_space_group_name_H-M	'P1'
_symmetry_Int_Tables_number	1
_symmetry_cell_setting	triclinic
loop_
_symmetry_equiv_pos_as_xyz
  x,y,z
_cell_length_a	10.654550
_cell_length_b	14.044220
_cell_length_c	9.730223
_cell_angle_alpha	89.994583
_cell_angle_beta	89.999957
_cell_angle_gamma	88.836904
loop_
_atom_site_label
_atom_site_type_symbol
_atom_site_fract_x
_atom_site_fract_y
_atom_site_fract_z
O1	O	1.681228	0.133232	-0.114191
O2	O	2.181228	0.633232	0.385809
O3	O	1.317025	0.145925	-0.114216
O4	O	1.817025	0.645925	0.385784
O5	O	1.493659	0.001558	-0.114190
O6	O	1.993659	0.501558	0.385810
O7	O	1.504593	0.277599	-0.114217
O8	O	2.004593	0.777599	0.385783
O9	O	1.493647	0.001554	0.114390
O10	O	1.993647	0.501554	0.614390
O11	O	1.317012	0.145921	0.114364
O12	O	1.817012	0.645921	0.614364
O13	O	1.681215	0.133228	0.114389
O14	O	2.181215	0.633228	0.614389
Zn15	Zn	1.499111	0.139574	0.150668
Zn16	Zn	1.999111	0.639574	0.650668
Zn17	Zn	1.499128	0.139579	-0.150496
Zn18	Zn	1.999128	0.639579	0.349504
O19	O	1.504580	0.277595	0.114363
O20	O	2.004580	0.777595	0.614363
C21	C	1.270127	0.144991	0.000070
C22	C	1.770127	0.644991	0.500070
C23	C	1.130403	0.142202	0.000061
C24	C	1.630403	0.642202	0.500061
C25	C	1.059459	0.227204	0.000057
C26	C	1.559459	0.727204	0.500057
C27	C	0.928175	0.224578	0.000081
C28	C	1.428175	0.724578	0.500081
C29	C	0.938790	0.051942	0.000108
C30	C	1.438790	0.551942	0.500108
C31	C	1.070072	0.054569	0.000094
C32	C	1.570072	0.554569	0.500094
C33	C	1.488867	-0.033790	0.000100
C34	C	1.988867	0.466210	0.500100
C35	C	1.474592	-0.139110	0.000101
C36	C	1.974592	0.360890	0.500101
C37	C	1.448493	-0.331943	0.000079
C38	C	1.948493	0.168057	0.500079
C39	C	1.549741	-0.388910	0.000082
C40	C	2.049741	0.111090	0.500082
C41	C	1.535219	-0.496209	0.000070
C42	C	2.035219	0.003791	0.500070
C43	C	1.463013	-0.224634	0.000091
C44	C	1.963013	0.275366	0.500091
C45	C	1.728113	0.134162	0.000099
C46	C	2.228113	0.634162	0.500099
C47	C	1.867836	0.136950	0.000100
C48	C	2.367836	0.636950	0.500100
C49	C	1.509372	0.312943	0.000070
C50	C	2.009372	0.812943	0.500070
C51	C	1.523648	0.418262	0.000060
C52	C	2.023648	0.918262	0.500060
N53	N	1.499109	0.139570	0.356205
N54	N	1.999109	0.639570	0.856205
N55	N	1.499140	0.139576	-0.356032
N56	N	1.999140	0.639576	0.143968
C57	C	1.577355	0.075671	0.428142
C58	C	2.077355	0.575671	0.928142
C59	C	1.577367	0.075671	0.572025
C60	C	2.077367	0.575671	1.072025
C61	C	1.420885	0.203477	0.572021
C62	C	1.920885	0.703477	1.072021
C63	C	1.420867	0.203471	0.428140
C64	C	1.920867	0.703471	0.928140
H65	H	1.647328	-0.357098	-0.000004
H66	H	2.147328	0.142902	0.499996
H67	H	1.641062	0.023637	0.369576
H68	H	2.141062	0.523637	0.869576
C69	C	1.200960	0.330306	0.117521
C70	C	1.700960	0.830306	0.617521
C71	C	1.125783	0.323526	0.000031
C72	C	1.625783	0.823526	0.500031
H73	H	1.241908	0.389771	0.117499
H74	H	1.741908	0.889771	0.617499
H75	H	1.149974	0.325699	0.197224
H76	H	1.649974	0.825699	0.697224
H77	H	1.261998	0.280053	0.117504
H78	H	1.761998	0.780053	0.617504
H79	H	1.064739	0.373775	0.000052
H80	H	1.564739	0.873775	0.500052
H81	H	1.176773	0.328143	-0.079693
H82	H	1.676773	0.828143	0.420307
H83	H	0.870417	0.293795	0.000080
H84	H	1.370417	0.793795	0.500080
C85	C	1.252183	0.222864	0.733863
C86	C	1.752183	0.722864	1.233863
C87	C	1.334896	0.273721	0.651104
C88	C	1.834896	0.773721	1.151104
H89	H	1.199105	0.266234	0.782690
H90	H	1.699105	0.766234	1.282690
H91	H	1.202551	0.183069	0.677752
H92	H	1.702551	0.683069	1.177752
H93	H	1.298804	0.184812	0.797292
H94	H	1.798804	0.684812	1.297292
H95	H	1.288276	0.311768	0.587668
H96	H	1.788276	0.811768	1.087668
H97	H	1.384534	0.313532	0.707220
H98	H	1.884534	0.813532	1.207220
H99	H	1.127837	-0.014653	0.000101
H100	H	1.627837	0.485347	0.500101
C101	C	1.327693	-0.474406	0.000082
C102	C	1.827693	0.025594	0.500082
C103	C	1.316759	-0.374881	0.000082
C104	C	1.816759	0.125119	0.500082
H105	H	1.246366	-0.500921	0.000097
H106	H	1.746366	-0.000921	0.500097
H107	H	1.372046	-0.494892	-0.079629
H108	H	1.872046	0.005108	0.420371
H109	H	1.372068	-0.494902	0.079794
H110	H	1.872068	0.005098	0.579794
H111	H	1.272392	-0.354385	-0.079636
H112	H	1.772392	0.145615	0.420364
H113	H	1.272388	-0.354387	0.079800
H114	H	1.772388	0.145613	0.579800
H115	H	1.641080	0.023638	0.630593
H116	H	2.141080	0.523638	1.130593
C117	C	1.266196	0.329815	0.442576
C118	C	1.766196	0.829815	0.942576
C119	C	1.334856	0.273717	0.349056
C120	C	1.834856	0.773717	0.849056
H121	H	1.213104	0.373181	0.393749
H122	H	1.713104	0.873181	0.893749
H123	H	1.216578	0.290016	0.498709
H124	H	1.716578	0.790016	0.998709
H125	H	1.322346	0.364307	0.498681
H126	H	1.822346	0.864307	0.998681
H127	H	1.278705	0.239220	0.292957
H128	H	1.778705	0.739220	0.792957
H129	H	1.384477	0.313522	0.292899
H130	H	1.884477	0.813522	0.792899
H131	H	0.889652	-0.019406	0.000143
H132	H	1.389652	0.480594	0.500143
