data_functionalizedCrystal
_audit_creation_method	'MofGen! by Chris Wilmer'
_symmetry_space_group_name_H-M	'P1'
_symmetry_Int_Tables_number	1
_symmetry_cell_setting	triclinic
loop_
_symmetry_equiv_pos_as_xyz
  x,y,z
_cell_length_a	17.077404
_cell_length_b	19.121063
_cell_length_c	17.077396
_cell_angle_alpha	87.591200
_cell_angle_beta	90.019777
_cell_angle_gamma	92.464390
loop_
_atom_site_label
_atom_site_type_symbol
_atom_site_fract_x
_atom_site_fract_y
_atom_site_fract_z
Zn1	Zn	1.186693	-0.279699	0.457162
Zn2	Zn	1.686693	0.220301	0.957162
Zn3	Zn	1.180989	-0.397156	0.331486
Zn4	Zn	1.680989	0.102844	0.831486
Zn5	Zn	1.055424	-0.279714	0.325910
Zn6	Zn	1.555424	0.220286	0.825910
Zn7	Zn	1.049784	-0.397104	0.462707
Zn8	Zn	1.549784	0.102896	0.962707
O9	O	1.118223	-0.338418	0.394316
O10	O	1.618223	0.161582	0.894316
O11	O	1.295783	-0.295296	0.440504
O12	O	1.795783	0.204704	0.940504
O13	O	1.164306	-0.381605	0.220901
O14	O	1.664306	0.118395	0.720901
O15	O	1.077585	-0.181428	0.338666
O16	O	1.577585	0.318572	0.838666
O17	O	1.291592	-0.381591	0.348170
O18	O	1.791592	0.118409	0.848170
O19	O	1.174027	-0.181417	0.435096
O20	O	1.674027	0.318583	0.935096
O21	O	1.072054	-0.295321	0.216804
O22	O	1.572054	0.204679	0.716804
O23	O	0.944830	-0.295271	0.344043
O24	O	1.444830	0.204729	0.844043
O25	O	1.067972	-0.381503	0.571817
O26	O	1.567972	0.118497	1.071817
O27	O	0.940686	-0.381517	0.444547
O28	O	1.440686	0.118483	0.944547
O29	O	1.168559	-0.295246	0.567743
O30	O	1.668559	0.204754	1.067743
O31	O	1.158837	-0.495433	0.353547
O32	O	1.658837	0.004567	0.853547
O33	O	1.062441	-0.495395	0.449955
O34	O	1.562441	0.004605	0.949955
C35	C	0.914276	-0.338390	0.394292
C36	C	1.414276	0.161610	0.894292
C37	C	0.827026	-0.338395	0.394301
C38	C	1.327026	0.161605	0.894301
C39	C	0.449069	-0.383427	0.446597
C40	C	0.949069	0.116573	0.946597
C41	C	0.531050	-0.383418	0.446585
C42	C	1.031050	0.116582	0.946585
C43	C	0.574175	-0.338437	0.394329
C44	C	1.074175	0.161563	0.894329
C45	C	0.535315	-0.293467	0.342078
C46	C	1.035315	0.206533	0.842078
C47	C	0.453336	-0.293481	0.342087
C48	C	0.953336	0.206519	0.842087
C49	C	0.706187	-0.293442	0.342064
C50	C	1.206187	0.206558	0.842064
C51	C	0.788172	-0.293427	0.342055
C52	C	1.288172	0.206573	0.842055
C53	C	0.783900	-0.383379	0.446561
C54	C	1.283900	0.116621	0.946561
C55	C	0.701921	-0.383393	0.446570
C56	C	1.201921	0.116607	0.946570
C57	C	0.663067	-0.338422	0.394320
C58	C	1.163067	0.161578	0.894320
C59	C	1.109430	-0.520898	0.402975
C60	C	1.609430	-0.020898	0.902975
C61	C	1.105740	-0.598964	0.406706
C62	C	1.605740	-0.098964	0.906706
C63	C	1.154233	-0.635636	0.358306
C64	C	1.654233	-0.135636	0.858306
C65	C	1.150768	-0.708987	0.361819
C66	C	1.650768	-0.208987	0.861819
C67	C	1.098804	-0.745665	0.413729
C68	C	1.598804	-0.245665	0.913729
C69	C	1.050308	-0.708988	0.462134
C70	C	1.550308	-0.208988	0.962134
C71	C	1.053778	-0.635638	0.458624
C72	C	1.553778	-0.135638	0.958624
C73	C	1.085817	-0.967134	0.426839
C74	C	1.585817	-0.467134	0.926839
C75	C	1.082349	-1.040488	0.430343
C76	C	1.582349	-0.540488	0.930343
C77	C	1.182809	-1.040483	0.330029
C78	C	1.682809	-0.540483	0.830029
C79	C	1.186272	-0.967131	0.326521
C80	C	1.686272	-0.467131	0.826521
C81	C	1.137779	-0.930461	0.374929
C82	C	1.637779	-0.430461	0.874929
C83	C	1.095258	-0.820641	0.417319
C84	C	1.595258	-0.320641	0.917319
C85	C	1.141329	-0.855486	0.371341
C86	C	1.641329	-0.355486	0.871341
C87	C	1.322965	-0.338447	0.394341
C88	C	1.822965	0.161553	0.894341
C89	C	1.410215	-0.338459	0.394351
C90	C	1.910215	0.161541	0.894351
C91	C	1.118273	-0.338367	0.599058
C92	C	1.618273	0.161633	1.099058
C93	C	1.118294	-0.338345	0.686307
C94	C	1.618294	0.161655	1.186307
C95	C	1.127071	-0.155226	0.385640
C96	C	1.627071	0.344774	0.885640
C97	C	1.130842	-0.077160	0.381943
C98	C	1.630842	0.422840	0.881943
C99	C	1.118220	-0.338419	0.190368
C100	C	1.618220	0.161581	0.690368
C101	C	1.118361	-0.338244	0.103110
C102	C	1.618361	0.161756	0.603110
C103	C	1.170671	-0.293427	0.725177
C104	C	1.670671	0.206573	1.225177
C105	C	1.170682	-0.293404	0.807156
C106	C	1.670682	0.206596	1.307156
C107	C	1.118318	-0.338302	0.850264
C108	C	1.618318	0.161698	1.350264
C109	C	1.065935	-0.383222	0.811389
C110	C	1.565935	0.116778	1.311389
C111	C	1.065922	-0.383241	0.729411
C112	C	1.565922	0.116759	1.229411
C113	C	1.065969	-0.383179	0.982257
C114	C	1.565969	0.116821	1.482257
C115	C	1.065983	-0.383161	1.064241
C116	C	1.565983	0.116839	1.564241
C117	C	1.170729	-0.293342	1.060002
C118	C	1.670729	0.206658	1.560002
C119	C	1.170715	-0.293361	0.978024
C120	C	1.670715	0.206639	1.478024
C121	C	1.118333	-0.338282	0.939154
C122	C	1.618333	0.161718	1.439154
H123	H	0.823283	-0.256793	0.299512
H124	H	1.323283	0.243207	0.799512
H125	H	1.008002	-0.738857	0.504403
H126	H	1.508002	-0.238857	1.004403
C127	C	1.008348	-0.432597	0.939502
C128	C	1.508348	0.067403	1.439502
N129	N	0.964953	-0.469822	0.907299
N130	N	1.464953	0.030178	1.407299
C131	C	0.582757	-0.243982	0.284602
C132	C	1.082757	0.256018	0.784602
N133	N	0.618489	-0.206705	0.241315
N134	N	1.118489	0.293295	0.741315
H135	H	1.213379	-0.256765	1.091654
H136	H	1.713379	0.243235	1.591654
C137	C	0.654484	-0.432880	0.504047
C138	C	1.154484	0.067120	1.004047
N139	N	0.618754	-0.470159	0.547335
N140	N	1.118754	0.029841	1.047335
C141	C	1.204110	-0.749323	0.308570
C142	C	1.704110	-0.249323	0.808570
N143	N	1.244288	-0.779703	0.268459
N144	N	1.744288	-0.279703	0.768459
H145	H	1.222290	-1.070348	0.290619
H146	H	1.722290	-0.570348	0.790619
C147	C	1.038091	-0.860994	0.474410
C148	C	1.538091	-0.360994	0.974410
N149	N	0.995031	-0.891391	0.517409
N150	N	1.495031	-0.391391	1.017409
H151	H	1.228585	-0.937270	0.284252
H152	H	1.728585	-0.437270	0.784252
C153	C	0.410597	-0.244011	0.284614
C154	C	0.910597	0.255989	0.784614
N155	N	0.378407	-0.206749	0.241323
N156	N	0.878407	0.293251	0.741323
H157	H	0.674555	-0.256820	0.299517
H158	H	1.174555	0.243180	0.799517
C159	C	1.228302	-0.243992	0.849909
C160	C	1.728302	0.256008	1.349909
N161	N	1.271705	-0.206772	0.882110
N162	N	1.771705	0.293228	1.382110
H163	H	0.815539	-0.419995	0.489108
H164	H	1.315539	0.080005	0.989108
C165	C	1.008376	-0.432547	1.111658
C166	C	1.508376	0.067453	1.611658
N167	N	0.964985	-0.469745	1.147373
N168	N	1.464985	0.030255	1.647373
H169	H	1.040043	-1.070349	0.472628
H170	H	1.540043	-0.570349	0.972628
C171	C	1.211396	-0.595297	0.301199
C172	C	1.711396	-0.095297	0.801199
N173	N	1.254455	-0.564916	0.258186
N174	N	1.754455	-0.064916	0.758186
C175	C	1.228275	-0.244034	0.677765
C176	C	1.728275	0.255966	1.177765
N177	N	1.271662	-0.206826	0.642056
N178	N	1.771662	0.293174	1.142056
H179	H	1.183641	-0.825620	0.329079
H180	H	1.683641	-0.325620	0.829079
C181	C	1.000432	-0.595299	0.511868
C182	C	1.500432	-0.095299	1.011868
N183	N	0.960252	-0.564917	0.551975
N184	N	1.460252	-0.064917	1.051975
C185	C	0.401638	-0.432912	0.504081
C186	C	0.901638	0.067088	1.004081
N187	N	0.365915	-0.470189	0.547377
N188	N	0.865915	0.029811	1.047377
C189	C	1.008304	-0.432655	0.686654
C190	C	1.508304	0.067345	1.186654
N191	N	0.964903	-0.469874	0.654451
N192	N	1.464903	0.030126	1.154451
H193	H	0.562681	-0.420037	0.489127
H194	H	1.062681	0.079963	0.989127
H195	H	1.046331	-0.937282	0.466253
H196	H	1.546331	-0.437282	0.966253
H197	H	1.213359	-0.256805	0.942928
H198	H	1.713359	0.243195	1.442928
H199	H	1.023297	-0.419776	0.846494
H200	H	1.523297	0.080224	1.346494
