data_functionalizedCrystal
_audit_creation_method	'MofGen! by Chris Wilmer'
_symmetry_space_group_name_H-M	'P1'
_symmetry_Int_Tables_number	1
_symmetry_cell_setting	triclinic
loop_
_symmetry_equiv_pos_as_xyz
  x,y,z
_cell_length_a	19.077399
_cell_length_b	12.759400
_cell_length_c	19.076919
_cell_angle_alpha	87.723966
_cell_angle_beta	85.520477
_cell_angle_gamma	92.312505
loop_
_atom_site_label
_atom_site_type_symbol
_atom_site_fract_x
_atom_site_fract_y
_atom_site_fract_z
Zn1	Zn	1.061725	-0.375939	0.355410
Zn2	Zn	1.066402	-0.544283	0.237537
Zn3	Zn	0.948580	-0.375967	0.242264
Zn4	Zn	0.943833	-0.558927	0.360106
O5	O	1.005135	-0.463779	0.298829
O6	O	1.160993	-0.392129	0.335830
O7	O	1.054717	-0.515839	0.139517
O8	O	0.963619	-0.228941	0.257287
O9	O	1.164429	-0.515811	0.249229
O10	O	1.046746	-0.228921	0.340414
O11	O	0.968154	-0.392178	0.142990
O12	O	0.849303	-0.406378	0.261840
O13	O	0.955527	-0.540770	0.458131
O14	O	0.845815	-0.540798	0.348418
O15	O	1.042142	-0.406329	0.454680
O16	O	1.050113	-0.693248	0.253783
O17	O	0.960062	-0.704007	0.343834
C18	C	0.821981	-0.475181	0.306152
C19	C	0.743626	-0.480085	0.309301
C20	C	0.708607	-0.412307	0.265779
C21	C	0.634984	-0.416924	0.268738
C22	C	0.596381	-0.489314	0.315223
C23	C	0.631405	-0.557099	0.358748
C24	C	0.705027	-0.552487	0.355785
C25	C	0.376004	-0.510629	0.328908
C26	C	0.302378	-0.515234	0.331869
C27	C	0.305961	-0.375059	0.241857
C28	C	0.379584	-0.370449	0.238901
C29	C	0.414602	-0.438238	0.282423
N30	N	0.521127	-0.494033	0.318251
N31	N	0.489855	-0.433523	0.279392
C32	C	1.005099	-0.736748	0.298820
C33	C	1.005146	-0.853523	0.298837
C34	C	1.048407	-0.908298	0.342159
C35	C	1.048439	-1.018021	0.342175
C36	C	0.961949	-1.018184	0.255540
C37	C	0.961913	-0.908463	0.255528
C38	C	1.091640	-0.853357	0.385467
C39	C	1.134904	-0.908133	0.428793
C40	C	1.134936	-1.017856	0.428808
C41	C	1.091704	-1.072804	0.385499
C42	C	1.189005	-0.452334	0.291479
C43	C	1.267359	-0.447456	0.288346
C44	C	0.997783	-0.475180	0.482699
C45	C	0.994651	-0.480038	0.561053
C46	C	1.005190	-0.189744	0.298854
C47	C	1.005214	-0.072966	0.298864
C48	C	1.012499	-0.452344	0.115674
C49	C	1.015768	-0.447181	0.037314
C50	C	1.038273	-0.412328	0.596069
C51	C	1.035320	-0.416889	0.669691
C52	C	0.988749	-0.489167	0.708297
C53	C	0.945123	-0.556880	0.673276
C54	C	0.948072	-0.552313	0.599655
C55	C	0.975090	-0.510328	0.928673
C56	C	0.972146	-0.514892	1.002299
C57	C	1.062343	-0.374899	0.998709
C58	C	1.065291	-0.370342	0.925087
C59	C	1.021662	-0.438052	0.890073
N60	N	0.985732	-0.493834	0.783551
N61	N	1.024676	-0.433379	0.814820
H62	H	0.404507	-0.565828	0.364346
C63	C	0.883273	-0.652806	0.998456
C64	C	0.920948	-0.594341	1.044735
H65	H	0.851667	-0.701847	1.024657
H66	H	0.915124	-0.689303	0.968511
H67	H	0.857469	-0.606914	0.970823
H68	H	0.946757	-0.640233	1.072366
H69	H	0.889093	-0.557842	1.074693
C70	C	0.923459	-0.740338	0.217048
C71	C	0.914362	-0.848245	0.207908
H72	H	0.894097	-0.703165	0.187653
H73	H	0.971231	-0.718728	0.204871
H74	H	0.911206	-0.725942	0.264820
H75	H	0.926621	-0.862642	0.160137
H76	H	0.866579	-0.869863	0.220080
C77	C	0.858640	-0.691176	0.610592
C78	C	0.900134	-0.626760	0.561162
H79	H	0.829049	-0.737142	0.586827
H80	H	0.830528	-0.648865	0.640382
H81	H	0.888206	-0.731218	0.638083
H82	H	0.870568	-0.586711	0.533675
H83	H	0.928249	-0.669075	0.531360
C84	C	0.316900	-0.236042	0.152589
C85	C	0.267469	-0.300555	0.194015
H86	H	0.293135	-0.190042	0.123054
H87	H	0.346685	-0.278283	0.124419
H88	H	0.344396	-0.196036	0.182200
H89	H	0.239977	-0.340567	0.164404
H90	H	0.237673	-0.258309	0.222187
H91	H	0.599969	-0.616046	0.396595
H92	H	0.270949	-0.574183	0.369728
C93	C	0.816295	-0.607659	0.391207
C94	C	0.743524	-0.626989	0.403627
H95	H	0.840059	-0.653663	0.420739
H96	H	0.827947	-0.536991	0.401121
H97	H	0.830233	-0.619232	0.343337
H98	H	0.729585	-0.615409	0.451495
H99	H	0.731867	-0.697674	0.393717
H100	H	1.091725	-1.162149	0.385524
C101	C	0.923606	-1.186452	0.217087
C102	C	0.914436	-1.078580	0.207931
H103	H	0.894277	-1.223735	0.187690
H104	H	0.911362	-1.207998	0.264853
H105	H	0.971399	-1.200782	0.204916
H106	H	0.866644	-1.064249	0.220107
H107	H	0.926676	-1.057027	0.160154
C108	C	1.138682	-0.696091	0.432615
C109	C	1.091603	-0.732750	0.385454
H110	H	1.138655	-0.621633	0.432607
H111	H	1.184669	-0.717277	0.418639
H112	H	1.124643	-0.724489	0.478587
H113	H	1.105645	-0.704357	0.339481
H114	H	1.045606	-0.711553	0.399427
H115	H	1.076198	-0.353474	0.564642
H116	H	0.907201	-0.615727	0.704714
C117	C	1.163406	-0.344647	0.838478
C118	C	1.116452	-0.290865	0.882639
H119	H	1.194985	-0.295573	0.812272
H120	H	1.137846	-0.384334	0.807104
H121	H	1.189239	-0.390496	0.866114
H122	H	1.090615	-0.245021	0.855003
H123	H	1.142014	-0.251160	0.914017
C124	C	0.823053	-0.342988	0.221271
C125	C	0.751036	-0.332731	0.214681
H126	H	0.849244	-0.293856	0.189726
H127	H	0.835526	-0.412145	0.210387
H128	H	0.833229	-0.329900	0.268169
H129	H	0.740859	-0.345826	0.167784
H130	H	0.738559	-0.263557	0.225560
C131	C	1.097868	-0.319729	1.109971
C132	C	1.110291	-0.300465	1.037199
H133	H	1.127467	-0.273767	1.133731
H134	H	1.107693	-0.390416	1.121615
H135	H	1.050021	-0.308051	1.123920
H136	H	1.158137	-0.312151	1.023249
H137	H	1.100472	-0.229762	1.025550
H138	H	1.170098	-0.863389	0.464058
H139	H	1.070844	-0.361755	0.698198
H140	H	0.939575	-0.565476	0.900173
C141	C	1.164423	-1.056798	0.546840
C142	C	1.182489	-1.078065	0.476433
H143	H	1.193787	-1.093963	0.576239
H144	H	1.116652	-1.078421	0.559013
H145	H	1.170591	-0.983586	0.553019
H146	H	1.176316	-1.151276	0.470253
H147	H	1.230272	-1.056448	0.464256
C148	C	0.617113	-0.359503	0.150334
C149	C	0.596515	-0.342413	0.220879
H150	H	0.593374	-0.313495	0.120782
H151	H	0.605448	-0.430170	0.140429
H152	H	0.666488	-0.346413	0.141948
H153	H	0.547140	-0.355510	0.229266
H154	H	0.608176	-0.271729	0.230787
C155	C	0.466143	-0.344563	0.140761
C156	C	0.422012	-0.290876	0.187799
H157	H	0.492337	-0.295432	0.109217
H158	H	0.438495	-0.390391	0.114902
H159	H	0.497537	-0.384262	0.166264
H160	H	0.390615	-0.251182	0.162296
H161	H	0.449663	-0.245030	0.213661
