data_functionalizedCrystal
_audit_creation_method	'MofGen! by Chris Wilmer'
_symmetry_space_group_name_H-M	'P1'
_symmetry_Int_Tables_number	1
_symmetry_cell_setting	triclinic
loop_
_symmetry_equiv_pos_as_xyz
  x,y,z
_cell_length_a	16.959455
_cell_length_b	19.121063
_cell_length_c	16.959447
_cell_angle_alpha	87.593376
_cell_angle_beta	90.014322
_cell_angle_gamma	92.465894
loop_
_atom_site_label
_atom_site_type_symbol
_atom_site_fract_x
_atom_site_fract_y
_atom_site_fract_z
Zn1	Zn	1.194915	-0.279656	0.460312
Zn2	Zn	1.189180	-0.397117	0.333763
Zn3	Zn	1.062742	-0.279678	0.328150
Zn4	Zn	1.057053	-0.397064	0.465899
O5	O	1.125973	-0.338379	0.397031
O6	O	1.304764	-0.295250	0.443535
O7	O	1.172389	-0.381570	0.222409
O8	O	1.085056	-0.181391	0.340995
O9	O	1.300551	-0.381548	0.350560
O10	O	1.182163	-0.181375	0.438093
O11	O	1.079495	-0.295288	0.218285
O12	O	0.951377	-0.295237	0.346412
O13	O	1.075360	-0.381459	0.575767
O14	O	0.947198	-0.381480	0.447615
O15	O	1.176646	-0.295199	0.571662
O16	O	1.166873	-0.495394	0.355978
O17	O	1.069800	-0.495356	0.453058
C18	C	0.920608	-0.338356	0.397012
C19	C	0.832751	-0.338363	0.397023
C20	C	0.463428	-0.293435	0.344438
C21	C	0.459118	-0.383380	0.449672
C22	C	0.541664	-0.383370	0.449666
C23	C	0.585096	-0.338393	0.397045
C24	C	0.545982	-0.293425	0.344430
C25	C	0.580784	-0.428342	0.502276
C26	C	0.663336	-0.428334	0.502272
C27	C	0.706770	-0.383353	0.449654
C28	C	0.667650	-0.338383	0.397037
C29	C	0.711082	-0.293405	0.344416
C30	C	0.671965	-0.248431	0.291802
C31	C	0.589416	-0.248444	0.291812
C32	C	0.789319	-0.383340	0.449644
C33	C	0.793636	-0.293395	0.344407
C34	C	1.117118	-0.520859	0.405750
C35	C	1.113402	-0.598924	0.409507
C36	C	1.162236	-0.635597	0.360769
C37	C	1.158746	-0.708948	0.364307
C38	C	1.106417	-0.745625	0.416579
C39	C	1.057581	-0.708948	0.465322
C40	C	1.061076	-0.635598	0.461787
C41	C	1.093339	-0.967094	0.429780
C42	C	1.089847	-1.040449	0.433309
C43	C	1.191013	-1.040443	0.332295
C44	C	1.194500	-0.967092	0.328762
C45	C	1.145667	-0.930421	0.377508
C46	C	1.102847	-0.820602	0.420195
C47	C	1.149242	-0.855446	0.373896
C48	C	1.332140	-0.338403	0.397051
C49	C	1.419996	-0.338413	0.397059
C50	C	1.126008	-0.338321	0.603196
C51	C	1.126024	-0.338296	0.691052
C52	C	1.134884	-0.155186	0.388295
C53	C	1.138681	-0.077121	0.384572
C54	C	1.125985	-0.338386	0.191665
C55	C	1.126133	-0.338213	0.103800
C56	C	1.073386	-0.383133	1.064664
C57	C	1.178857	-0.293311	1.060384
C58	C	1.178835	-0.293326	0.977839
C59	C	1.126089	-0.338246	0.938703
C60	C	1.073365	-0.383151	0.982111
C61	C	1.231564	-0.248426	0.934425
C62	C	1.231545	-0.248440	0.851875
C63	C	1.178794	-0.293357	0.812736
C64	C	1.126067	-0.338263	0.856150
C65	C	1.073321	-0.383183	0.817013
C66	C	1.020590	-0.428087	0.860425
C67	C	1.020614	-0.428068	0.942973
C68	C	1.178770	-0.293376	0.730189
C69	C	1.073299	-0.383201	0.734460
H70	H	0.557559	-0.211829	0.248975
C71	C	1.252067	-0.926752	0.271268
H72	H	1.280657	-0.959099	0.242753
H73	H	1.223216	-0.898180	0.235425
H74	H	1.287854	-0.898097	0.300163
C75	C	0.719745	-0.198959	0.233923
H76	H	0.774510	-0.205396	0.241459
H77	H	0.705705	-0.209175	0.181284
H78	H	0.708509	-0.151780	0.243333
C79	C	0.533018	-0.477735	0.560239
H80	H	0.568136	-0.504498	0.591592
H81	H	0.502176	-0.450834	0.593416
H82	H	0.499277	-0.508334	0.531489
H83	H	0.695178	-0.464954	0.545114
C84	C	0.420404	-0.243970	0.286565
H85	H	0.365019	-0.250417	0.294101
H86	H	0.436220	-0.196792	0.295962
H87	H	0.433419	-0.254196	0.233922
H88	H	1.221804	-0.256743	1.092255
H89	H	0.977647	-0.464664	0.828549
H90	H	0.423750	-0.420003	0.492509
H91	H	0.821164	-0.419959	0.492479
H92	H	1.053576	-0.937242	0.469470
C93	C	1.032282	-1.080796	0.490808
H94	H	1.037189	-1.129732	0.485921
H95	H	1.044388	-1.068738	0.543348
H96	H	0.979749	-1.068817	0.478610
H97	H	1.198512	-0.738803	0.324619
H98	H	1.230772	-1.070309	0.292611
H99	H	0.977686	-0.464628	0.978326
C100	C	1.219800	-0.595258	0.303271
H101	H	1.248389	-0.627607	0.274758
H102	H	1.190951	-0.566686	0.267426
H103	H	1.255588	-0.566602	0.332164
C104	C	1.000019	-0.749291	0.522818
H105	H	1.004924	-0.798228	0.517937
H106	H	1.012124	-0.737229	0.575356
H107	H	0.947487	-0.737311	0.510617
H108	H	1.021311	-0.605740	0.501476
H109	H	1.191851	-0.825581	0.331339
C110	C	0.841409	-0.243919	0.286526
H111	H	0.896176	-0.250350	0.294057
H112	H	0.827366	-0.254136	0.233888
H113	H	0.830167	-0.196741	0.295938
H114	H	1.060239	-0.850473	0.462753
C115	C	1.015288	-0.432624	0.691417
H116	H	0.983897	-0.459368	0.729095
H117	H	0.982145	-0.405771	0.657926
H118	H	1.044043	-0.463239	0.660682
C119	C	1.015389	-0.432525	1.112411
H120	H	1.022956	-0.426086	1.167180
H121	H	0.962777	-0.422245	1.098390
H122	H	1.024665	-0.479722	1.101130
C123	C	1.289569	-0.199010	0.977474
H124	H	1.282019	-0.205423	1.032854
H125	H	1.342179	-0.209289	0.964446
H126	H	1.280279	-0.151822	0.961693
C127	C	1.289539	-0.199043	0.804128
H128	H	1.320951	-0.172285	0.839260
H129	H	1.322664	-0.225916	0.773200
H130	H	1.260774	-0.168441	0.770475
C131	C	1.236762	-0.243985	0.682439
H132	H	1.268176	-0.217228	0.717570
H133	H	1.269885	-0.270860	0.651510
H134	H	1.207998	-0.213382	0.648786
