data_functionalizedCrystal
_audit_creation_method	'MofGen! by Chris Wilmer'
_symmetry_space_group_name_H-M	'P1'
_symmetry_Int_Tables_number	1
_symmetry_cell_setting	triclinic
loop_
_symmetry_equiv_pos_as_xyz
  x,y,z
_cell_length_a	18.101398
_cell_length_b	18.101395
_cell_length_c	19.805399
_cell_angle_alpha	89.974882
_cell_angle_beta	89.976047
_cell_angle_gamma	90.026371
loop_
_atom_site_label
_atom_site_type_symbol
_atom_site_fract_x
_atom_site_fract_y
_atom_site_fract_z
Zn1	Zn	1.132118	-0.294940	-0.382810
Zn2	Zn	1.132015	-0.418784	-0.269627
Zn3	Zn	1.008278	-0.294950	-0.269626
Zn4	Zn	1.008228	-0.418734	-0.382765
O5	O	1.070160	-0.356852	-0.326207
O6	O	1.235737	-0.311385	-0.367815
O7	O	1.115579	-0.402382	-0.174910
O8	O	1.024770	-0.191316	-0.284659
O9	O	1.235662	-0.402372	-0.284660
O10	O	1.115755	-0.191309	-0.367815
O11	O	1.024670	-0.311402	-0.174910
O12	O	0.904638	-0.311354	-0.284615
O13	O	1.024685	-0.402288	-0.477488
O14	O	0.904602	-0.402298	-0.367738
O15	O	1.115706	-0.311337	-0.477521
O16	O	1.115530	-0.522410	-0.284616
O17	O	1.024584	-0.522374	-0.367738
C18	C	0.877749	-0.356822	-0.326172
C19	C	0.795435	-0.356827	-0.326173
C20	C	0.496344	-0.356873	-0.326230
C21	C	0.527668	-0.299368	-0.274186
C22	C	0.613286	-0.299522	-0.273964
C23	C	0.644727	-0.356850	-0.326201
C24	C	0.613609	-0.434861	-0.306714
C25	C	0.527964	-0.434541	-0.306352
C26	C	0.527958	-0.337046	-0.397883
C27	C	0.613609	-0.335308	-0.397492
C28	C	0.728586	-0.356841	-0.326187
C29	C	0.412485	-0.356887	-0.326243
C30	C	1.070061	-0.549263	-0.326187
C31	C	1.070086	-0.631577	-0.326201
C32	C	1.070249	-0.930668	-0.326238
C33	C	1.013161	-0.899351	-0.378666
C34	C	1.012889	-0.813733	-0.378502
C35	C	1.070168	-0.782285	-0.326220
C36	C	1.049039	-0.813432	-0.254884
C37	C	1.048671	-0.899077	-0.255198
C38	C	1.148590	-0.899019	-0.344518
C39	C	1.148129	-0.813368	-0.346082
C40	C	1.070124	-0.698426	-0.326206
C41	C	1.070291	-1.014527	-0.326247
C42	C	1.263322	-0.356883	-0.326243
C43	C	1.345636	-0.356896	-0.326258
C44	C	1.070201	-0.356806	-0.502750
C45	C	1.070219	-0.356786	-0.577982
C46	C	1.070279	-0.163690	-0.326242
C47	C	1.070330	-0.081376	-0.326257
C48	C	1.117615	-0.309425	-0.613344
C49	C	1.117623	-0.309404	-0.684033
C50	C	1.070237	-0.356747	-0.719358
C51	C	1.022836	-0.404110	-0.683990
C52	C	1.022825	-0.404127	-0.613303
C53	C	1.022878	-0.404041	-0.969063
C54	C	1.022894	-0.404021	-1.039756
C55	C	1.117675	-0.309317	-1.039794
C56	C	1.117665	-0.309335	-0.969106
C57	C	1.070261	-0.356694	-0.933745
C58	C	1.070252	-0.356716	-0.857097
C59	C	1.070249	-0.356730	-0.796005
C60	C	1.070161	-0.356845	-0.150351
C61	C	1.070287	-0.356656	-0.075120
H62	H	0.507097	-0.241343	-0.286267
H63	H	1.164063	-0.793008	-0.398582
O64	O	1.168786	-0.258212	-1.077932
H65	H	1.160824	-0.266139	-1.133020
O66	O	0.973984	-0.785109	-0.234000
H67	H	0.951609	-0.748859	-0.274308
H68	H	0.634326	-0.241674	-0.286179
H69	H	1.156204	-0.270875	-0.584588
O70	O	0.972815	-0.925629	-0.234694
H71	H	0.936739	-0.877297	-0.224651
H72	H	0.507952	-0.451357	-0.253969
O73	O	0.500500	-0.493213	-0.354369
H74	H	0.521079	-0.481197	-0.406021
O75	O	1.102378	-0.786457	-0.201722
H76	H	1.100973	-0.725194	-0.199785
H77	H	1.167854	-0.920570	-0.395650
O78	O	1.168778	-0.258275	-0.931008
H79	H	1.135652	-0.220604	-0.898796
O80	O	0.499118	-0.316526	-0.204266
H81	H	0.521557	-0.275609	-0.167926
H82	H	1.088448	-0.919796	-0.214803
O83	O	1.030384	-0.785808	-0.448562
H84	H	0.983612	-0.751886	-0.467292
H85	H	0.984304	-0.442575	-1.068515
H86	H	1.156219	-0.270840	-0.712822
H87	H	0.633740	-0.312630	-0.220869
O88	O	0.640580	-0.493144	-0.355346
H89	H	0.676540	-0.467065	-0.394012
O90	O	0.641962	-0.457526	-0.238073
H91	H	0.678207	-0.413360	-0.217729
O92	O	0.971715	-0.455081	-0.930927
H93	H	0.938759	-0.487987	-0.967368
H94	H	1.192913	-0.791957	-0.310680
O95	O	0.641956	-0.386757	-0.451602
H96	H	0.673243	-0.354531	-0.489789
H97	H	0.984252	-0.442655	-0.712757
O98	O	0.971696	-0.455198	-0.575156
H99	H	0.938748	-0.488117	-0.611594
H100	H	0.506386	-0.281150	-0.415602
O101	O	0.640555	-0.259268	-0.416967
H102	H	0.675967	-0.236905	-0.376049
O103	O	0.501118	-0.392517	-0.449252
H104	H	0.549269	-0.420640	-0.472547
O105	O	1.030222	-0.926927	-0.448899
H106	H	1.079607	-0.963203	-0.447201
H107	H	0.955445	-0.920932	-0.366709
H108	H	1.191123	-0.919270	-0.306333
H109	H	0.954821	-0.793304	-0.366392
