data_functionalizedCrystal
_audit_creation_method	'MofGen! by Chris Wilmer'
_symmetry_space_group_name_H-M	'P1'
_symmetry_Int_Tables_number	1
_symmetry_cell_setting	triclinic
loop_
_symmetry_equiv_pos_as_xyz
  x,y,z
_cell_length_a	15.021413
_cell_length_b	11.792241
_cell_length_c	11.792253
_cell_angle_alpha	84.196007
_cell_angle_beta	90.014625
_cell_angle_gamma	89.990439
loop_
_atom_site_label
_atom_site_type_symbol
_atom_site_fract_x
_atom_site_fract_y
_atom_site_fract_z
O1	O	-0.073958	-1.506899	-0.155576
O2	O	0.176042	-1.256899	0.094424
O3	O	0.426042	-1.006899	0.344424
O4	O	0.676042	-0.756899	0.594424
O5	O	-0.073979	-1.176558	-0.171609
O6	O	0.176021	-0.926558	0.078391
O7	O	0.426021	-0.676558	0.328391
O8	O	0.676021	-0.426558	0.578391
O9	O	-0.073949	-1.349738	0.001577
O10	O	0.176051	-1.099738	0.251577
O11	O	0.426051	-0.849738	0.501577
O12	O	0.676051	-0.599738	0.751577
O13	O	-0.073987	-1.333720	-0.328762
O14	O	0.176013	-1.083720	-0.078762
O15	O	0.426013	-0.833720	0.171238
O16	O	0.676013	-0.583720	0.421238
O17	O	0.074115	-1.349757	0.001601
O18	O	0.324115	-1.099757	0.251601
O19	O	0.574115	-0.849757	0.501601
O20	O	0.824115	-0.599757	0.751601
O21	O	0.074085	-1.176578	-0.171585
O22	O	0.324085	-0.926578	0.078415
O23	O	0.574085	-0.676578	0.328415
O24	O	0.824085	-0.426578	0.578415
O25	O	0.074107	-1.506918	-0.155553
O26	O	0.324107	-1.256918	0.094447
O27	O	0.574107	-1.006918	0.344447
O28	O	0.824107	-0.756918	0.594447
Zn29	Zn	0.097604	-1.341751	-0.163565
Zn30	Zn	0.347604	-1.091751	0.086435
Zn31	Zn	0.597604	-0.841751	0.336435
Zn32	Zn	0.847604	-0.591751	0.586435
Zn33	Zn	-0.097477	-1.341726	-0.163596
Zn34	Zn	0.152523	-1.091726	0.086404
Zn35	Zn	0.402523	-0.841726	0.336404
Zn36	Zn	0.652523	-0.591726	0.586404
O37	O	0.074077	-1.333739	-0.328739
O38	O	0.324077	-1.083739	-0.078739
O39	O	0.574077	-0.833739	0.171261
O40	O	0.824077	-0.583739	0.421261
C41	C	0.000050	-1.134277	-0.170590
C42	C	0.250050	-0.884277	0.079410
C43	C	0.500050	-0.634277	0.329410
C44	C	0.750050	-0.384277	0.579410
C45	C	0.000043	-1.008263	-0.167576
C46	C	0.250043	-0.758263	0.082424
C47	C	0.500043	-0.508263	0.332424
C48	C	0.750043	-0.258263	0.582424
N49	N	-0.230614	-1.341709	-0.163608
N50	N	0.019386	-1.091709	0.086392
N51	N	0.269386	-0.841709	0.336392
N52	N	0.519386	-0.591709	0.586392
C53	C	0.000085	-1.348738	0.043880
C54	C	0.250085	-1.098738	0.293880
C55	C	0.500085	-0.848738	0.543880
C56	C	0.750085	-0.598738	0.793880
C57	C	0.000094	-1.345718	0.169893
C58	C	0.250094	-1.095718	0.419893
C59	C	0.500094	-0.845718	0.669893
C60	C	0.750094	-0.595718	0.919893
C61	C	-0.470306	-1.261479	-0.243526
C62	C	-0.220306	-1.011479	0.006474
C63	C	0.029694	-0.761479	0.256474
C64	C	0.279694	-0.511479	0.506474
C65	C	-0.529633	-1.239078	-0.140748
C66	C	-0.279633	-0.989078	0.109252
C67	C	-0.029633	-0.739078	0.359252
C68	C	0.220367	-0.489078	0.609252
C69	C	-0.412221	-1.341731	-0.163584
C70	C	-0.162221	-1.091731	0.086416
C71	C	0.087779	-0.841731	0.336416
C72	C	0.337779	-0.591731	0.586416
C73	C	-0.529637	-1.364101	-0.266338
C74	C	-0.279637	-1.114101	-0.016338
C75	C	-0.029637	-0.864101	0.233662
C76	C	0.220363	-0.614101	0.483662
C77	C	-0.587645	-1.341750	-0.163570
C78	C	-0.337645	-1.091750	0.086430
C79	C	-0.087645	-0.841750	0.336430
C80	C	0.162355	-0.591750	0.586430
C81	C	-0.470241	-1.319279	-0.060755
C82	C	-0.220241	-1.069279	0.189245
C83	C	0.029759	-0.819279	0.439245
C84	C	0.279759	-0.569279	0.689245
C85	C	-0.470240	-1.444347	-0.186412
C86	C	-0.220240	-1.194347	0.063588
C87	C	0.029760	-0.944347	0.313588
C88	C	0.279760	-0.694347	0.563588
C89	C	-0.529540	-1.421990	-0.083561
C90	C	-0.279540	-1.171990	0.166439
C91	C	-0.029540	-0.921990	0.416439
C92	C	0.220460	-0.671990	0.666439
C93	C	-0.311164	-1.341717	-0.163594
C94	C	-0.061164	-1.091717	0.086406
C95	C	0.188836	-0.841717	0.336406
C96	C	0.438836	-0.591717	0.586406
C97	C	-0.688701	-1.341765	-0.163548
C98	C	-0.438701	-1.091765	0.086452
C99	C	-0.188701	-0.841765	0.336452
C100	C	0.061299	-0.591765	0.586452
N101	N	0.230742	-1.341776	-0.163544
N102	N	0.480742	-1.091776	0.086456
N103	N	0.730742	-0.841776	0.336456
N104	N	0.980742	-0.591776	0.586456
C105	C	0.000075	-1.549199	-0.156571
C106	C	0.250075	-1.299199	0.093429
C107	C	0.500075	-1.049199	0.343429
C108	C	0.750075	-0.799199	0.593429
C109	C	0.000077	-1.675213	-0.159586
C110	C	0.250077	-1.425213	0.090414
C111	C	0.500077	-1.175213	0.340414
C112	C	0.750077	-0.925213	0.590414
C113	C	0.000069	-0.777551	-0.162033
C114	C	0.250069	-0.527551	0.087967
C115	C	0.500069	-0.277551	0.337967
C116	C	0.750069	-0.027551	0.587967
C117	C	0.000054	-0.905936	-0.165112
C118	C	0.250054	-0.655936	0.084888
C119	C	0.500054	-0.405936	0.334888
C120	C	0.750054	-0.155936	0.584888
C121	C	0.000098	-1.343264	0.272229
C122	C	0.250098	-1.093264	0.522229
C123	C	0.500098	-0.843264	0.772229
C124	C	0.750098	-0.593264	1.022229
C125	C	0.000099	-1.340196	0.400616
C126	C	0.250099	-1.090196	0.650616
C127	C	0.500099	-0.840196	0.900616
C128	C	0.750099	-0.590196	1.150616
C129	C	0.000058	-1.334738	0.628959
C130	C	0.250058	-1.084738	0.878959
C131	C	0.500058	-0.834738	1.128959
C132	C	0.750058	-0.584738	1.378959
C133	C	0.000100	-1.337758	0.502946
C134	C	0.250100	-1.087758	0.752946
C135	C	0.500100	-0.837758	1.002946
C136	C	0.750100	-0.587758	1.252946
H137	H	-0.555726	-1.152308	-0.121431
H138	H	-0.305726	-0.902308	0.128569
H139	H	-0.055726	-0.652308	0.378569
H140	H	0.194274	-0.402308	0.628569
H141	H	-0.444262	-1.300265	0.026168
H142	H	-0.194262	-1.050265	0.276168
H143	H	0.055738	-0.800265	0.526168
H144	H	0.305738	-0.550265	0.776168
N145	N	-0.561957	-1.507140	0.001353
N146	N	-0.311957	-1.257140	0.251353
N147	N	-0.061957	-1.007140	0.501353
N148	N	0.188043	-0.757140	0.751353
N149	N	-0.542726	-1.502137	0.103863
N150	N	-0.292726	-1.252137	0.353863
N151	N	-0.042726	-1.002137	0.603863
N152	N	0.207274	-0.752137	0.853863
H153	H	-0.565621	-1.562270	0.163838
H154	H	-0.315621	-1.312270	0.413838
H155	H	-0.065621	-1.062270	0.663838
H156	H	0.184379	-0.812270	0.913838
H157	H	-0.444131	-1.531090	-0.205768
H158	H	-0.194131	-1.281090	0.044232
H159	H	0.055869	-1.031090	0.294232
H160	H	0.305869	-0.781090	0.544232
H161	H	-0.555710	-1.383028	-0.353244
H162	H	-0.305710	-1.133028	-0.103244
H163	H	-0.055710	-0.883028	0.146756
H164	H	0.194290	-0.633028	0.396756
H165	H	-0.444296	-1.193559	-0.311057
H166	H	-0.194296	-0.943559	-0.061057
H167	H	0.055704	-0.693559	0.188943
H168	H	0.305704	-0.443559	0.438943
