data_functionalizedCrystal
_audit_creation_method	'MofGen! by Chris Wilmer'
_symmetry_space_group_name_H-M	'P1'
_symmetry_Int_Tables_number	1
_symmetry_cell_setting	triclinic
loop_
_symmetry_equiv_pos_as_xyz
  x,y,z
_cell_length_a	13.930277
_cell_length_b	14.853567
_cell_length_c	14.853567
_cell_angle_alpha	83.634930
_cell_angle_beta	90.000757
_cell_angle_gamma	90.004245
loop_
_atom_site_label
_atom_site_type_symbol
_atom_site_fract_x
_atom_site_fract_y
_atom_site_fract_z
O1	O	-0.079756	-1.196368	-0.117704
O2	O	-0.079772	-0.933909	-0.131725
O3	O	-0.079767	-1.072149	0.006516
O4	O	-0.079762	-1.058128	-0.255944
O5	O	0.079895	-1.072130	0.006519
O6	O	0.079890	-0.933890	-0.131722
O7	O	0.079905	-1.196349	-0.117701
Zn8	Zn	0.105247	-1.065116	-0.124711
Zn9	Zn	-0.105114	-1.065142	-0.124715
O10	O	0.079900	-1.058109	-0.255941
C11	C	0.000057	-0.900311	-0.131088
C12	C	0.000051	-0.800227	-0.129184
N13	N	0.248814	-1.065106	-0.124708
N14	N	-0.248680	-1.065160	-0.124711
C15	C	0.701081	-1.003926	-0.185904
C16	C	0.701055	-1.126382	-0.063519
C17	C	0.600559	-1.126371	-0.063516
C18	C	0.550319	-1.065138	-0.124709
C19	C	0.600576	-1.003916	-0.185904
C20	C	0.550295	-1.187598	-0.002328
C21	C	0.449793	-1.187591	-0.002323
C22	C	0.399552	-1.126353	-0.063512
C23	C	0.449814	-1.065127	-0.124710
C24	C	0.399575	-1.003894	-0.185902
C25	C	0.449835	-0.942664	-0.247096
C26	C	0.550334	-0.942677	-0.247094
C27	C	0.299053	-1.126339	-0.063515
C28	C	0.299070	-1.003883	-0.185903
C29	C	0.000061	-1.071504	0.040106
C30	C	0.000053	-1.069601	0.140189
C31	C	0.000075	-1.229947	-0.118337
C32	C	0.000075	-1.330031	-0.120241
C33	C	0.000070	-0.387693	-0.039019
C34	C	0.000073	-0.366412	-0.203251
C35	C	0.000070	-0.460446	-0.205042
C36	C	0.000066	-0.518108	-0.123819
C37	C	0.000065	-0.481736	-0.040806
C38	C	0.000061	-0.496825	-0.288053
C39	C	0.000057	-0.590864	-0.289846
C40	C	0.000060	-0.648528	-0.208623
C41	C	0.000060	-0.612150	-0.125607
C42	C	0.000056	-0.669812	-0.044384
C43	C	0.000063	-0.633437	0.038633
C44	C	0.000067	-0.539399	0.040417
C45	C	0.000055	-0.742565	-0.210407
C46	C	0.000050	-0.763855	-0.046172
C47	C	0.000070	-1.058754	-0.289531
C48	C	0.000072	-1.060657	-0.389615
C49	C	0.000066	-0.979435	0.552723
C50	C	0.000076	-1.143668	0.574004
C51	C	0.000070	-1.145458	0.479971
C52	C	0.000064	-1.064235	0.422309
C53	C	0.000063	-0.981223	0.458680
C54	C	0.000080	-1.228469	0.443591
C55	C	0.000076	-1.230262	0.349552
C56	C	0.000063	-1.149039	0.291889
C57	C	0.000061	-1.066023	0.328266
C58	C	0.000055	-0.984800	0.270604
C59	C	0.000047	-0.901783	0.306979
C60	C	0.000050	-0.899999	0.401017
C61	C	0.000059	-1.150823	0.197851
C62	C	0.000052	-0.986588	0.176561
H63	H	0.258171	-0.954016	-0.235731
H64	H	0.000054	-0.449870	-0.354180
H65	H	0.591203	-1.237457	0.047489
H66	H	0.408877	-1.237447	0.047505
H67	H	0.408919	-0.892811	-0.296924
H68	H	0.591263	-0.892827	-0.296916
H69	H	0.000053	-0.680397	0.104764
C70	C	0.000041	-0.897244	0.113136
H71	H	0.000035	-0.910195	0.051920
H72	H	0.055713	-0.863198	0.124174
H73	H	-0.055649	-0.863224	0.124176
C74	C	0.243771	-1.193683	0.003789
H75	H	0.288085	-1.230151	0.040235
H76	H	0.204553	-1.231240	-0.028712
H77	H	0.204578	-1.161200	0.041385
C78	C	0.000085	-1.233005	0.637428
H79	H	0.000082	-1.220051	0.698643
H80	H	0.055761	-1.267034	0.626387
H81	H	-0.055601	-1.267041	0.626395
H82	H	0.000080	-0.358072	0.028572
H83	H	0.000096	-0.509774	0.108005
C84	C	0.000038	-0.812444	0.243546
H85	H	0.000035	-0.825404	0.182333
H86	H	0.055710	-0.778398	0.254581
H87	H	-0.055652	-0.778421	0.254579
H88	H	0.000094	-1.294596	0.490546
C89	C	0.000055	-0.808691	0.441032
H90	H	0.000070	-0.819262	0.505295
H91	H	-0.055623	-0.775244	0.421256
H92	H	0.055739	-0.775244	0.421244
C93	C	0.000067	-0.302992	-0.292591
H94	H	0.000059	-0.338124	-0.342285
H95	H	0.055742	-0.265857	-0.295309
H96	H	-0.055621	-0.265874	-0.295302
H97	H	0.000050	-0.810798	0.019971
H98	H	0.000082	-1.297860	0.319944
H99	H	0.000051	-0.620472	-0.357443
C100	C	0.000044	-0.782576	-0.301713
H101	H	0.000048	-0.734766	-0.349830
H102	H	-0.055635	-0.818821	-0.305820
H103	H	0.055728	-0.818813	-0.305828
C104	C	0.000061	-0.888123	0.592731
H105	H	0.000068	-0.898687	0.656995
H106	H	-0.055617	-0.854681	0.572944
H107	H	0.055745	-0.854674	0.572946
C108	C	0.000071	-1.242129	0.157841
H109	H	0.000074	-1.290246	0.205650
H110	H	0.055746	-1.246230	0.121594
H111	H	-0.055616	-1.246251	0.121605
H112	H	0.741963	-1.176240	-0.013702
C113	C	0.756361	-0.936581	-0.253214
H114	H	0.823410	-0.945356	-0.244456
H115	H	0.739898	-0.876403	-0.243315
H116	H	0.739887	-0.946450	-0.313404
