data_functionalizedCrystal
_audit_creation_method	'MofGen! by Chris Wilmer'
_symmetry_space_group_name_H-M	'P1'
_symmetry_Int_Tables_number	1
_symmetry_cell_setting	triclinic
loop_
_symmetry_equiv_pos_as_xyz
  x,y,z
_cell_length_a	14.044220
_cell_length_b	19.288865
_cell_length_c	17.766277
_cell_angle_alpha	90.011603
_cell_angle_beta	90.004280
_cell_angle_gamma	88.162563
loop_
_atom_site_label
_atom_site_type_symbol
_atom_site_fract_x
_atom_site_fract_y
_atom_site_fract_z
O1	O	-1.256998	-0.167413	-0.062531
O2	O	-0.981055	-0.161372	-0.062549
O3	O	-1.127000	-0.063774	-0.062525
O4	O	-1.111053	-0.265010	-0.062556
O5	O	-1.126975	-0.063767	0.062664
O6	O	-0.981029	-0.161365	0.062639
O7	O	-1.256973	-0.167406	0.062658
Cu8	Cu	-1.118999	-0.164385	0.074079
Cu9	Cu	-1.119029	-0.164393	-0.073971
O10	O	-1.111028	-0.265003	0.062633
C11	C	-1.126474	-0.037862	0.000072
C12	C	-1.124934	0.039341	0.000078
C13	C	-0.945739	-0.158724	0.000043
C14	C	-0.840547	-0.150836	0.000036
C15	C	-1.292289	-0.170054	0.000064
C16	C	-1.397481	-0.177942	0.000065
C17	C	-0.647947	-0.136416	0.000053
C18	C	-0.590075	-0.192359	0.000048
C19	C	-0.482906	-0.184335	0.000058
C20	C	-0.755126	-0.144438	0.000044
C21	C	-1.111554	-0.290916	0.000035
C22	C	-1.113094	-0.368119	0.000023
N23	N	-1.118984	-0.164379	0.178209
C24	C	-1.210568	0.078535	0.000088
C25	C	-1.209121	0.151075	0.000076
C26	C	-1.122035	0.184418	0.000069
C27	C	-1.036390	0.145215	0.000056
C28	C	-1.037839	0.072676	0.000060
C29	C	-1.053566	0.297107	0.043916
C30	C	-1.052120	0.369644	0.043916
C31	C	-1.117560	0.408151	0.000052
C32	C	-1.184463	0.374113	-0.043802
C33	C	-1.185912	0.301574	-0.043797
C34	C	-1.120453	0.263074	0.000064
C35	C	-1.201631	0.526002	0.000048
C36	C	-1.200181	0.598543	0.000031
C37	C	-1.027447	0.592681	0.000019
C38	C	-1.028900	0.520142	0.000028
C39	C	-1.115995	0.486806	0.000046
N40	N	-1.119051	-0.164394	-0.178101
C41	C	-1.183630	-0.121187	0.217607
C42	C	-1.183635	-0.121184	0.296409
C43	C	-1.119004	-0.164386	0.335810
C44	C	-1.054347	-0.207580	0.296403
C45	C	-1.054337	-0.207577	0.217602
C46	C	-1.106318	-0.226858	0.460638
C47	C	-1.106335	-0.226863	0.539437
C48	C	-1.119030	-0.164396	0.578856
C49	C	-1.131728	-0.101922	0.539467
C50	C	-1.131718	-0.101919	0.460667
C51	C	-1.119008	-0.164394	0.421256
C52	C	-1.183684	-0.121197	0.703700
C53	C	-1.183683	-0.121193	0.782503
C54	C	-1.054400	-0.207595	0.782495
C55	C	-1.054396	-0.207593	0.703694
C56	C	-1.119044	-0.164395	0.664301
H57	H	-0.621016	-0.246280	0.000036
C58	C	-1.254735	-0.073661	0.174280
N59	N	-1.308289	-0.037861	0.141644
H60	H	-0.617008	-0.082499	0.000066
H61	H	-1.281487	0.051398	0.000100
C62	C	-1.303328	0.194197	0.000091
N63	N	-1.374286	0.226675	0.000104
H64	H	-1.240385	0.273863	-0.079506
C65	C	-1.256450	0.416465	-0.092059
N66	N	-1.310669	0.448368	-0.128405
C67	C	-1.297436	0.489331	0.000056
N68	N	-1.369598	0.461712	0.000060
C69	C	-0.934695	0.477026	0.000021
N70	N	-0.863734	0.444552	0.000014
C71	C	-0.981575	0.254756	0.092176
N72	N	-0.927355	0.222858	0.128525
C73	C	-0.943631	0.029561	0.000052
N74	N	-0.872671	-0.002914	0.000047
C75	C	-0.983349	-0.255163	0.660354
N76	N	-0.929853	-0.291011	0.627711
C77	C	-1.254786	-0.073663	0.825841
N78	N	-1.308338	-0.037860	0.858483
H79	H	-1.236279	-0.086011	0.328493
C80	C	-0.983260	-0.255126	0.174263
N81	N	-0.929739	-0.290953	0.141619
H82	H	-1.269917	0.630454	0.000034
C83	C	-1.145674	-0.033199	0.417342
N84	N	-1.156180	0.018563	0.384710
H85	H	-0.956540	0.619828	0.000010
H86	H	-0.997640	0.397352	0.079620
H87	H	-0.965484	0.172367	0.000049
C88	C	-1.145691	-0.033202	0.582823
N89	N	-1.156209	0.018556	0.615482
H90	H	-1.236322	-0.086020	0.671625
C91	C	-0.983305	-0.255118	0.825832
N92	N	-0.929755	-0.290913	0.858477
H93	H	-1.096001	-0.277733	0.571501
H94	H	-1.095964	-0.277729	0.428549
H95	H	-1.001722	-0.242754	0.328487
