data_functionalizedCrystal
_audit_creation_method	'MofGen! by Chris Wilmer'
_symmetry_space_group_name_H-M	'P1'
_symmetry_Int_Tables_number	1
_symmetry_cell_setting	triclinic
loop_
_symmetry_equiv_pos_as_xyz
  x,y,z
_cell_length_a	13.033286
_cell_length_b	13.032868
_cell_length_c	18.215399
_cell_angle_alpha	97.152085
_cell_angle_beta	82.825818
_cell_angle_gamma	90.854779
loop_
_atom_site_label
_atom_site_type_symbol
_atom_site_fract_x
_atom_site_fract_y
_atom_site_fract_z
Zn1	Zn	1.520061	0.608901	0.334282
Zn2	Zn	1.770061	0.858901	0.584282
Zn3	Zn	2.020061	1.108901	0.834282
Zn4	Zn	2.270061	1.358901	1.084282
Zn5	Zn	1.498080	0.780875	0.228560
Zn6	Zn	1.748080	1.030875	0.478560
Zn7	Zn	1.998080	1.280875	0.728560
Zn8	Zn	2.248080	1.530875	0.978560
Zn9	Zn	1.348092	0.587116	0.224698
Zn10	Zn	1.598092	0.837116	0.474698
Zn11	Zn	1.848092	1.087116	0.724698
Zn12	Zn	2.098092	1.337116	0.974698
Zn13	Zn	1.326203	0.759010	0.365038
Zn14	Zn	1.576203	1.009010	0.615038
Zn15	Zn	1.826203	1.259010	0.865038
Zn16	Zn	2.076203	1.509010	1.115038
O17	O	1.423109	0.683975	0.288144
O18	O	1.673109	0.933975	0.538144
O19	O	1.923109	1.183975	0.788144
O20	O	2.173109	1.433975	1.038144
O21	O	1.661046	0.649981	0.309002
O22	O	1.911046	0.899981	0.559002
O23	O	2.161046	1.149981	0.809002
O24	O	2.411046	1.399981	1.059002
O25	O	1.478145	0.755206	0.125070
O26	O	1.728145	1.005206	0.375070
O27	O	1.978145	1.255206	0.625070
O28	O	2.228145	1.505206	0.875070
O29	O	1.389265	0.446096	0.224747
O30	O	1.639265	0.696096	0.474747
O31	O	1.889265	0.946096	0.724747
O32	O	2.139265	1.196096	0.974747
O33	O	1.644897	0.776330	0.231329
O34	O	1.894897	1.026330	0.481329
O35	O	2.144897	1.276330	0.731329
O36	O	2.394897	1.526330	0.981329
O37	O	1.515609	0.462101	0.305258
O38	O	1.765609	0.712101	0.555258
O39	O	2.015609	0.962101	0.805258
O40	O	2.265609	1.212101	1.055258
O41	O	1.367950	0.612852	0.122233
O42	O	1.617950	0.862852	0.372233
O43	O	1.867950	1.112852	0.622233
O44	O	2.117950	1.362852	0.872233
O45	O	1.201288	0.591651	0.254570
O46	O	1.451288	0.841651	0.504570
O47	O	1.701288	1.091651	0.754570
O48	O	1.951288	1.341651	1.004570
O49	O	1.351957	0.739064	0.463936
O50	O	1.601957	0.989064	0.713936
O51	O	1.851957	1.239064	0.963936
O52	O	2.101957	1.489064	1.213936
O53	O	1.185206	0.717940	0.357677
O54	O	1.435206	0.967940	0.607677
O55	O	1.685206	1.217940	0.857677
O56	O	1.935206	1.467940	1.107677
O57	O	1.494384	0.628779	0.441340
O58	O	1.744384	0.878779	0.691340
O59	O	1.994384	1.128779	0.941340
O60	O	2.244384	1.378779	1.191340
O61	O	1.456920	0.921885	0.261151
O62	O	1.706920	1.171885	0.511151
O63	O	1.956920	1.421885	0.761151
O64	O	2.206920	1.671885	1.011151
O65	O	1.330643	0.905820	0.361421
O66	O	1.580643	1.155820	0.611421
O67	O	1.830643	1.405820	0.861421
O68	O	2.080643	1.655820	1.111421
C69	C	1.155935	0.650059	0.309042
C70	C	1.405935	0.900059	0.559042
C71	C	1.655935	1.150059	0.809042
C72	C	1.905935	1.400059	1.059042
C73	C	1.041634	0.635575	0.318002
C74	C	1.291634	0.885575	0.568002
C75	C	1.541634	1.135575	0.818002
C76	C	1.791634	1.385575	1.068002
C77	C	1.389049	0.951170	0.315056
C78	C	1.639049	1.201170	0.565056
C79	C	1.889049	1.451170	0.815056
C80	C	2.139049	1.701170	1.065056
C81	C	1.374572	1.065489	0.326587
C82	C	1.624572	1.315489	0.576587
C83	C	1.874572	1.565489	0.826587
C84	C	2.124572	1.815489	1.076587
C85	C	0.982697	0.691535	0.283486
C86	C	1.232697	0.941535	0.533486
C87	C	1.482697	1.191535	0.783486
C88	C	1.732697	1.441535	1.033486
C89	C	0.864560	0.676566	0.292746
C90	C	1.114560	0.926566	0.542746
C91	C	1.364560	1.176566	0.792746
C92	C	1.614560	1.426566	1.042746
C93	C	1.430652	1.124377	0.282145
C94	C	1.680652	1.374377	0.532145
C95	C	1.930652	1.624377	0.782145
C96	C	2.180652	1.874377	1.032145
C97	C	1.415691	1.242532	0.294061
C98	C	1.665691	1.492532	0.544061
C99	C	1.915691	1.742532	0.794061
C100	C	2.165691	1.992532	1.044061
C101	C	1.691326	0.718024	0.267166
C102	C	1.941326	0.968024	0.517166
C103	C	2.191326	1.218024	0.767166
C104	C	2.441326	1.468024	1.017166
C105	C	1.805625	0.732534	0.258226
C106	C	2.055625	0.982534	0.508226
C107	C	2.305625	1.232534	0.758226
C108	C	2.555625	1.482534	1.008226
C109	C	1.423181	0.683912	0.480085
C110	C	1.673181	0.933912	0.730085
C111	C	1.923181	1.183912	0.980085
C112	C	2.173181	1.433912	1.230085
C113	C	1.423211	0.683886	0.561879
C114	C	1.673211	0.933886	0.811879
C115	C	1.923211	1.183886	1.061879
C116	C	2.173211	1.433886	1.311879
C117	C	1.457297	1.415736	0.261136
C118	C	1.707297	1.665736	0.511136
C119	C	1.957297	1.915736	0.761136
C120	C	2.207297	2.165736	1.011136
C121	C	1.471779	1.301418	0.249613
C122	C	1.721779	1.551418	0.499613
C123	C	1.971779	1.801418	0.749613
C124	C	2.221779	2.051418	0.999613
C125	C	1.423106	0.683971	0.096938
C126	C	1.673106	0.933971	0.346938
C127	C	1.923106	1.183971	0.596938
C128	C	2.173106	1.433971	0.846938
C129	C	1.423312	0.683734	0.015100
C130	C	1.673312	0.933734	0.265100
C131	C	1.923312	1.183734	0.515100
C132	C	2.173312	1.433734	0.765100
C133	C	1.497405	0.626402	0.738301
C134	C	1.747405	0.876402	0.988301
C135	C	1.997405	1.126402	1.238301
C136	C	2.247405	1.376402	1.488301
C137	C	1.497421	0.626373	0.815155
C138	C	1.747421	0.876373	1.065155
C139	C	1.997421	1.126373	1.315155
C140	C	2.247421	1.376373	1.565155
C141	C	1.349111	0.741219	0.838674
C142	C	1.599111	0.991219	1.088674
C143	C	1.849111	1.241219	1.338674
C144	C	2.099111	1.491219	1.588674
C145	C	1.349091	0.741241	0.761820
C146	C	1.599091	0.991241	1.011820
C147	C	1.849091	1.241241	1.261820
C148	C	2.099091	1.491241	1.511820
C149	C	1.423244	0.683835	0.711635
C150	C	1.673244	0.933835	0.961635
C151	C	1.923244	1.183835	1.211635
C152	C	2.173244	1.433835	1.461635
C153	C	1.423280	0.683785	0.865344
C154	C	1.673280	0.933785	1.115344
C155	C	1.923280	1.183785	1.365344
C156	C	2.173280	1.433785	1.615344
C157	C	1.423296	0.683754	0.948673
C158	C	1.673296	0.933754	1.198673
C159	C	1.923296	1.183754	1.448673
C160	C	2.173296	1.433754	1.698673
C161	C	1.423226	0.683863	0.628300
C162	C	1.673226	0.933863	0.878300
C163	C	1.923226	1.183863	1.128300
C164	C	2.173226	1.433863	1.378300
H165	H	1.019698	0.750530	0.247084
H166	H	1.269698	1.000530	0.497084
H167	H	1.519698	1.250530	0.747084
H168	H	1.769698	1.500530	0.997084
H169	H	1.288741	0.787960	0.879544
H170	H	1.538741	1.037960	1.129544
H171	H	1.788741	1.287960	1.379544
H172	H	2.038741	1.537960	1.629544
H173	H	1.557808	0.579604	0.836862
H174	H	1.807808	0.829604	1.086862
H175	H	2.057808	1.079604	1.336862
H176	H	2.307808	1.329604	1.586862
F177	F	1.576322	0.565302	0.684892
F178	F	1.826322	0.815302	0.934892
F179	F	2.076322	1.065302	1.184892
F180	F	2.326322	1.315302	1.434892
H181	H	1.356602	1.279585	0.340937
H182	H	1.606602	1.529585	0.590937
H183	H	1.856602	1.779585	0.840937
H184	H	2.106602	2.029585	1.090937
H185	H	0.827562	0.617574	0.329157
H186	H	1.077562	0.867574	0.579157
H187	H	1.327562	1.117574	0.829157
H188	H	1.577562	1.367574	1.079157
F189	F	0.853975	0.809653	0.210641
F190	F	1.103975	1.059653	0.460641
F191	F	1.353975	1.309653	0.710641
F192	F	1.603975	1.559653	0.960641
H193	H	1.004632	0.576587	0.354411
H194	H	1.254632	0.826587	0.604411
H195	H	1.504632	1.076587	0.854411
H196	H	1.754632	1.326587	1.104411
F197	F	1.507894	1.075947	0.220884
F198	F	1.757894	1.325947	0.470884
F199	F	2.007894	1.575947	0.720884
F200	F	2.257894	1.825947	0.970884
F201	F	1.549024	1.252994	0.188348
F202	F	1.799024	1.502994	0.438348
F203	F	2.049024	1.752994	0.688348
F204	F	2.299024	2.002994	0.938348
F205	F	1.297341	1.113921	0.387854
F206	F	1.547341	1.363921	0.637854
F207	F	1.797341	1.613921	0.887854
F208	F	2.047341	1.863921	1.137854
H209	H	1.288694	0.788008	0.740111
H210	H	1.538694	1.038008	0.990111
H211	H	1.788694	1.288008	1.240111
H212	H	2.038694	1.538008	1.490111
