data_functionalizedCrystal
_audit_creation_method	'MofGen! by Chris Wilmer'
_symmetry_space_group_name_H-M	'P1'
_symmetry_Int_Tables_number	1
_symmetry_cell_setting	triclinic
loop_
_symmetry_equiv_pos_as_xyz
  x,y,z
_cell_length_a	10.654550
_cell_length_b	16.109304
_cell_length_c	9.130313
_cell_angle_alpha	90.001562
_cell_angle_beta	89.996220
_cell_angle_gamma	83.973770
loop_
_atom_site_label
_atom_site_type_symbol
_atom_site_fract_x
_atom_site_fract_y
_atom_site_fract_z
O1	O	1.666252	0.116770	-0.121910
O2	O	2.166252	0.616770	0.378090
O3	O	1.300622	0.127895	-0.121885
O4	O	1.800622	0.627895	0.378115
O5	O	1.493479	0.001362	-0.121899
O6	O	1.993479	0.501362	0.378101
O7	O	1.473395	0.243304	-0.121896
O8	O	1.973395	0.743304	0.378104
O9	O	1.493477	0.001365	0.121700
O10	O	1.993477	0.501365	0.621700
O11	O	1.300620	0.127899	0.121714
O12	O	1.800620	0.627899	0.621714
O13	O	1.666249	0.116773	0.121689
O14	O	2.166249	0.616773	0.621689
Cu15	Cu	1.483434	0.122336	0.143944
Cu16	Cu	1.983434	0.622336	0.643944
Cu17	Cu	1.483437	0.122332	-0.144140
Cu18	Cu	1.983437	0.622332	0.355860
O19	O	1.473392	0.243307	0.121703
O20	O	1.973392	0.743307	0.621703
C21	C	1.253834	0.127080	-0.000083
C22	C	1.753834	0.627080	0.499917
C23	C	1.114424	0.124636	-0.000074
C24	C	1.614424	0.624636	0.499926
C25	C	1.033929	0.199137	-0.000094
C26	C	1.533929	0.699137	0.499906
C27	C	0.902939	0.196836	-0.000120
C28	C	1.402939	0.696836	0.499880
C29	C	0.932953	0.045526	-0.000110
C30	C	1.432953	0.545526	0.499890
C31	C	1.063940	0.047828	-0.000074
C32	C	1.563940	0.547828	0.499926
C33	C	1.016600	0.286495	-0.000106
C34	C	1.516600	0.786495	0.499894
C35	C	0.885610	0.284194	-0.000131
C36	C	1.385610	0.784194	0.499869
C37	C	1.492664	-0.029616	-0.000103
C38	C	1.992664	0.470384	0.499897
C39	C	1.490223	-0.121926	-0.000113
C40	C	1.990223	0.378074	0.499887
C41	C	1.484585	-0.334299	-0.132893
C42	C	1.984585	0.165701	0.367107
C43	C	1.482280	-0.421033	-0.132891
C44	C	1.982280	0.078967	0.367109
C45	C	1.482283	-0.421026	0.132694
C46	C	1.982283	0.078974	0.632694
C47	C	1.484579	-0.334293	0.132691
C48	C	1.984579	0.165707	0.632691
C49	C	1.485737	-0.290932	-0.000107
C50	C	1.985737	0.209068	0.499893
C51	C	1.481135	-0.464399	-0.000102
C52	C	1.981135	0.035601	0.499898
C53	C	1.478636	-0.558440	-0.000100
C54	C	1.978636	-0.058440	0.499900
C55	C	1.488234	-0.196885	-0.000110
C56	C	1.988234	0.303115	0.499890
C57	C	1.713037	0.117589	-0.000117
C58	C	2.213037	0.617589	0.499883
C59	C	1.852448	0.120033	-0.000135
C60	C	2.352448	0.620033	0.499865
C61	C	1.474208	0.274285	-0.000097
C62	C	1.974208	0.774285	0.499903
C63	C	1.476649	0.366595	-0.000096
C64	C	1.976649	0.866595	0.499904
N65	N	1.483442	0.122339	0.346567
N66	N	1.983442	0.622339	0.846567
N67	N	1.483440	0.122324	-0.346763
N68	N	1.983440	0.622324	0.153237
C69	C	1.568860	0.066329	0.423212
C70	C	2.068860	0.566329	0.923212
C71	C	1.568857	0.066319	0.576549
C72	C	2.068857	0.566319	1.076549
C73	C	1.398012	0.178336	0.576581
C74	C	1.898012	0.678336	1.076581
C75	C	1.398011	0.178341	0.423247
C76	C	1.898011	0.678341	0.923247
C77	C	1.667500	0.001659	0.423195
C78	C	2.167500	0.501659	0.923195
C79	C	1.667497	0.001649	0.576532
C80	C	2.167497	0.501649	1.076532
H81	H	1.129476	-0.012838	-0.000037
H82	H	1.629476	0.487162	0.499963
F83	F	1.640605	-0.081865	0.368789
F84	F	2.140605	0.418135	0.868789
F85	F	1.485811	-0.288154	-0.274227
F86	F	1.985811	0.211846	0.225773
F87	F	1.793391	0.020261	0.630927
F88	F	2.293391	0.520261	1.130927
F89	F	1.481051	-0.467181	0.274018
F90	F	1.981051	0.032819	0.774018
H91	H	1.758409	0.021908	0.375631
H92	H	2.258409	0.521908	0.875631
F93	F	1.481051	-0.467183	-0.274220
F94	F	1.981051	0.032817	0.225780
H95	H	1.485510	-0.298982	0.240827
H96	H	1.985510	0.201018	0.740827
H97	H	1.328445	0.223942	0.360843
H98	H	1.828445	0.723942	0.860843
H99	H	0.891833	-0.017009	-0.000133
H100	H	1.391833	0.482991	0.499867
H101	H	1.637802	-0.058739	0.624081
H102	H	2.137802	0.441261	1.124081
F103	F	1.054337	0.331157	0.133145
F104	F	1.554337	0.831157	0.633145
F105	F	1.062719	0.322850	-0.137571
F106	F	1.562719	0.822850	0.362429
F107	F	0.830475	0.327212	-0.133388
F108	F	1.330475	0.827212	0.366612
F109	F	0.825438	0.318704	0.137326
F110	F	1.325438	0.818704	0.637326
H111	H	1.328456	0.223931	0.639030
H112	H	1.828456	0.723931	1.139030
