data_functionalizedCrystal
_audit_creation_method	'MofGen! by Chris Wilmer'
_symmetry_space_group_name_H-M	'P1'
_symmetry_Int_Tables_number	1
_symmetry_cell_setting	triclinic
loop_
_symmetry_equiv_pos_as_xyz
  x,y,z
_cell_length_a	16.625548
_cell_length_b	12.827892
_cell_length_c	16.625539
_cell_angle_alpha	89.979703
_cell_angle_beta	90.017055
_cell_angle_gamma	89.981601
loop_
_atom_site_label
_atom_site_type_symbol
_atom_site_fract_x
_atom_site_fract_y
_atom_site_fract_z
Zn1	Zn	1.232681	0.416021	0.455944
Zn2	Zn	1.566015	0.749354	0.789277
Zn3	Zn	1.899348	1.082687	1.122610
Zn4	Zn	1.232605	0.590778	0.321125
Zn5	Zn	1.565938	0.924111	0.654459
Zn6	Zn	1.899272	1.257445	0.987792
Zn7	Zn	1.097851	0.416055	0.321124
Zn8	Zn	1.431185	0.749388	0.654458
Zn9	Zn	1.764518	1.082721	0.987791
Zn10	Zn	1.097826	0.590724	0.455915
Zn11	Zn	1.431159	0.924057	0.789249
Zn12	Zn	1.764492	1.257390	1.122582
O13	O	1.165241	0.503394	0.388527
O14	O	1.498574	0.836728	0.721861
O15	O	1.831907	1.170061	1.055194
O16	O	1.345504	0.439211	0.438072
O17	O	1.678837	0.772544	0.771406
O18	O	2.012170	1.105878	1.104739
O19	O	1.214708	0.567637	0.208293
O20	O	1.548042	0.900971	0.541626
O21	O	1.881375	1.234304	0.874960
O22	O	1.115780	0.269814	0.339020
O23	O	1.449113	0.603147	0.672353
O24	O	1.782446	0.936481	1.005686
O25	O	1.345447	0.567604	0.339022
O26	O	1.678781	0.900938	0.672355
O27	O	2.012114	1.234271	1.005688
O28	O	1.214839	0.269789	0.438071
O29	O	1.548172	0.603122	0.771404
O30	O	1.881505	0.936456	1.104738
O31	O	1.115706	0.439269	0.208292
O32	O	1.449039	0.772602	0.541625
O33	O	1.782372	1.105936	0.874959
O34	O	0.985016	0.439216	0.338992
O35	O	1.318349	0.772550	0.672326
O36	O	1.651682	1.105883	1.005659
O37	O	1.115736	0.567512	0.568752
O38	O	1.449069	0.900845	0.902085
O39	O	1.782402	1.234179	1.235418
O40	O	0.984997	0.567545	0.438023
O41	O	1.318330	0.900878	0.771356
O42	O	1.651663	1.234212	1.104689
O43	O	1.214814	0.439158	0.568772
O44	O	1.548147	0.772492	0.902106
O45	O	1.881480	1.105825	1.235439
O46	O	1.214683	0.737007	0.338994
O47	O	1.548017	1.070340	0.672328
O48	O	1.881350	1.403673	1.005661
O49	O	1.115662	0.736967	0.438024
O50	O	1.448995	1.070300	0.771357
O51	O	1.782328	1.403633	1.104690
C52	C	1.165183	0.774904	0.388524
C53	C	1.498517	1.108237	0.721857
C54	C	1.831850	1.441571	1.055190
C55	C	1.165232	0.891057	0.388549
C56	C	1.498566	1.224391	0.721882
C57	C	1.831899	1.557724	1.055216
C58	C	0.955750	0.503379	0.388505
C59	C	1.289083	0.836713	0.721838
C60	C	1.622417	1.170046	1.055171
C61	C	0.866129	0.503398	0.388514
C62	C	1.199462	0.836731	0.721847
C63	C	1.532796	1.170065	1.055181
C64	C	1.214288	0.942827	0.339602
C65	C	1.547622	1.276160	0.672936
C66	C	1.880955	1.609494	1.006269
C67	C	1.214340	1.062877	0.339628
C68	C	1.547674	1.396211	0.672961
C69	C	1.881007	1.729544	1.006294
C70	C	0.537953	0.503405	0.388549
C71	C	0.871287	0.836738	0.721882
C72	C	1.204620	1.170072	1.055215
C73	C	0.629262	0.503400	0.388536
C74	C	0.962595	0.836733	0.721870
C75	C	1.295928	1.170067	1.055203
C76	C	0.702038	0.503402	0.388531
C77	C	1.035371	0.836735	0.721864
C78	C	1.368705	1.170069	1.055197
C79	C	0.793352	0.503396	0.388520
C80	C	1.126686	0.836729	0.721853
C81	C	1.460019	1.170063	1.055187
C82	C	1.375550	0.503410	0.388550
C83	C	1.708883	0.836743	0.721884
C84	C	2.042216	1.170077	1.055217
C85	C	1.465171	0.503417	0.388560
C86	C	1.798504	0.836750	0.721893
C87	C	2.131837	1.170083	1.055227
C88	C	1.165280	0.503325	0.598836
C89	C	1.498614	0.836659	0.932170
C90	C	1.831947	1.169992	1.265503
C91	C	1.165297	0.503296	0.688457
C92	C	1.498630	0.836629	1.021791
C93	C	1.831964	1.169962	1.355124
C94	C	1.165314	1.230824	0.388558
C95	C	1.498647	1.564157	0.721892
C96	C	1.831981	1.897491	1.055225
C97	C	1.165328	1.114671	0.388597
C98	C	1.498662	1.448004	0.721930
C99	C	1.831995	1.781338	1.055263
C100	C	1.165248	0.503388	0.179036
C101	C	1.498581	0.836721	0.512370
C102	C	1.831914	1.170054	0.845703
C103	C	1.165387	0.503123	0.089416
C104	C	1.498721	0.836456	0.422749
C105	C	1.832054	1.169789	0.756082
C106	C	1.165310	0.503273	0.761240
C107	C	1.498644	0.836606	1.094573
C108	C	1.831977	1.169939	1.427907
C109	C	1.165329	0.503234	0.852548
C110	C	1.498662	0.836567	1.185882
C111	C	1.831996	1.169900	1.519215
C112	C	1.165348	0.503197	0.925325
C113	C	1.498681	0.836530	1.258658
C114	C	1.832015	1.169864	1.591992
C115	C	1.165368	0.503159	1.016639
C116	C	1.498702	0.836493	1.349973
C117	C	1.832035	1.169826	1.683306
H118	H	1.256337	1.107398	0.297720
H119	H	1.589670	1.440732	0.631054
H120	H	1.923003	1.774065	0.964387
O121	O	1.115261	1.061687	0.438707
O122	O	1.448594	1.395020	0.772041
O123	O	1.781927	1.728354	1.105374
C124	C	1.132841	1.088176	0.519110
C125	C	1.466175	1.421509	0.852444
C126	C	1.799508	1.754842	1.185777
H127	H	1.163814	1.167414	0.520882
H128	H	1.497147	1.500747	0.854215
H129	H	1.830481	1.834080	1.187548
H130	H	1.174297	1.026700	0.546248
H131	H	1.507630	1.360033	0.879581
H132	H	1.840963	1.693367	1.212914
C133	C	1.016165	0.995795	0.565711
C134	C	1.349498	1.329128	0.899044
C135	C	1.682832	1.662461	1.232378
C136	C	1.054200	1.093121	0.567887
C137	C	1.387534	1.426454	0.901221
C138	C	1.720867	1.759787	1.234554
H139	H	0.967657	0.998841	0.595801
H140	H	1.300990	1.332174	0.929134
H141	H	1.634324	1.665507	1.262467
H142	H	1.004322	0.977945	0.511543
H143	H	1.337655	1.311278	0.844876
H144	H	1.670989	1.644612	1.178209
H145	H	1.050720	0.944575	0.588324
H146	H	1.384053	1.277908	0.921658
H147	H	1.717386	1.611242	1.254991
H148	H	1.019650	1.144335	0.545265
H149	H	1.352983	1.477669	0.878599
H150	H	1.686317	1.811002	1.211932
H151	H	1.066036	1.110979	0.622053
H152	H	1.399369	1.444312	0.955387
H153	H	1.732703	1.777646	1.288720
O154	O	1.264233	0.889635	0.289499
O155	O	1.597566	1.222969	0.622833
O156	O	1.930900	1.556302	0.956166
C157	C	1.218287	0.826573	0.237426
C158	C	1.551621	1.159906	0.570760
C159	C	1.884954	1.493239	0.904093
H160	H	1.154824	0.859608	0.232371
H161	H	1.488157	1.192942	0.565704
H162	H	1.821490	1.526275	0.899038
H163	H	1.215400	0.743877	0.262397
H164	H	1.548734	1.077211	0.595730
H165	H	1.882067	1.410544	0.929064
C166	C	1.335676	0.784194	0.159851
C167	C	1.669009	1.117527	0.493184
C168	C	2.002342	1.450861	0.826518
C169	C	1.257730	0.824774	0.153637
C170	C	1.591064	1.158107	0.486970
C171	C	1.924397	1.491441	0.820303
H172	H	1.360007	0.783080	0.108166
H173	H	1.693340	1.116413	0.441500
H174	H	2.026674	1.449746	0.774833
H175	H	1.366631	0.826677	0.194935
H176	H	1.699964	1.160010	0.528268
H177	H	2.033298	1.493344	0.861602
H178	H	1.333259	0.715285	0.180663
H179	H	1.666592	1.048618	0.513996
H180	H	1.999926	1.381952	0.847330
H181	H	1.260149	0.893686	0.132835
H182	H	1.593482	1.227019	0.466168
H183	H	1.926815	1.560353	0.799501
H184	H	1.226776	0.782302	0.118547
H185	H	1.560109	1.115636	0.451880
H186	H	1.893443	1.448969	0.785214
H187	H	1.123276	0.935612	0.430476
H188	H	1.456609	1.268945	0.763809
H189	H	1.789942	1.602278	1.097142
