data_functionalizedCrystal
_audit_creation_method	'MofGen! by Chris Wilmer'
_symmetry_space_group_name_H-M	'P1'
_symmetry_Int_Tables_number	1
_symmetry_cell_setting	triclinic
loop_
_symmetry_equiv_pos_as_xyz
  x,y,z
_cell_length_a	17.699083
_cell_length_b	11.295483
_cell_length_c	17.699083
_cell_angle_alpha	85.914184
_cell_angle_beta	83.283015
_cell_angle_gamma	94.090957
loop_
_atom_site_label
_atom_site_type_symbol
_atom_site_fract_x
_atom_site_fract_y
_atom_site_fract_z
O1	O	1.009175	0.098859	0.090613
O2	O	0.788798	0.098899	0.103064
O3	O	0.905212	0.098867	-0.013350
O4	O	0.892761	0.098891	0.207027
O5	O	0.894987	-0.099181	-0.003141
O6	O	0.778574	-0.099149	0.113273
O7	O	0.998950	-0.099189	0.100822
Cu8	Cu	0.887828	-0.117252	0.107980
Cu9	Cu	0.899920	0.116962	0.095906
O10	O	0.882536	-0.099157	0.217236
C11	C	0.755489	-0.000120	0.107722
C12	C	0.671472	-0.000106	0.106383
N13	N	0.879329	-0.281986	0.116471
C14	C	0.622851	-0.000099	0.174716
C15	C	0.543907	-0.000114	0.173454
C16	C	0.513586	-0.000128	0.103858
C17	C	0.562212	-0.000139	0.035520
C18	C	0.641154	-0.000132	0.036783
C19	C	0.243848	-0.000169	0.030427
C20	C	0.164900	-0.000172	0.029169
C21	C	0.146600	-0.000151	0.167098
C22	C	0.225543	-0.000144	0.168360
C23	C	0.274162	-0.000161	0.100023
C24	C	0.359762	-0.000146	0.101392
C25	C	0.427988	-0.000134	0.102488
C26	C	0.969609	-0.531300	0.026241
C27	C	0.963191	-0.655962	0.032663
C28	C	0.860072	-0.655974	0.135734
C29	C	0.866490	-0.531313	0.129312
C30	C	0.921261	-0.468980	0.074564
C31	C	0.927682	-0.344316	0.068146
C32	C	0.824560	-0.344330	0.171213
C33	C	0.818142	-0.468992	0.177635
C34	C	1.032259	-0.000167	0.096164
C35	C	1.116277	-0.000174	0.097503
C36	C	0.899654	-0.000157	-0.036442
C37	C	0.898315	-0.000157	-0.120461
N38	N	0.908426	0.281696	0.087409
C39	C	0.966648	-0.000171	-0.169081
C40	C	0.965386	-0.000160	-0.248025
C41	C	0.895790	-0.000144	-0.278346
C42	C	0.827453	-0.000126	-0.229720
C43	C	0.828715	-0.000129	-0.150778
C44	C	0.822358	-0.000116	-0.548084
C45	C	0.821100	-0.000117	-0.627032
C46	C	0.959028	-0.000147	-0.645330
C47	C	0.960291	-0.000149	-0.566388
C48	C	0.891954	-0.000126	-0.517769
C49	C	0.893323	-0.000135	-0.432170
C50	C	0.894420	-0.000143	-0.363944
C51	C	0.888095	-0.000131	0.240329
C52	C	0.889434	-0.000123	0.324346
H53	H	0.504323	-0.000107	0.229098
O54	O	0.688368	0.000079	-0.029627
C55	C	0.679918	0.102628	-0.077187
H56	H	0.656556	0.174323	-0.040878
H57	H	0.737760	0.137057	-0.109413
H58	H	0.638609	0.079429	-0.119728
H59	H	0.537517	-0.000167	-0.021145
O60	O	0.255125	-0.000064	0.235896
C61	C	0.335227	-0.000081	0.222358
H62	H	0.355802	0.037396	0.161324
H63	H	0.362346	0.057440	0.263912
H64	H	0.352304	-0.095088	0.230892
O65	O	0.135567	-0.000246	-0.038504
C66	C	0.195408	-0.000232	-0.098552
H67	H	0.247067	-0.037720	-0.075503
H68	H	0.176031	-0.057744	-0.144181
H69	H	0.211515	0.094776	-0.124527
H70	H	1.021029	-0.000174	-0.287609
O71	O	1.022832	-0.470928	-0.026998
C72	C	1.064147	-0.552667	-0.068257
H73	H	1.028546	-0.641537	-0.064497
H74	H	1.077664	-0.516647	-0.130571
H75	H	1.119640	-0.565912	-0.043067
O76	O	0.755905	-0.000162	-0.500966
C77	C	0.694212	-0.000126	-0.544662
H78	H	0.711600	-0.037620	-0.601686
H79	H	0.643374	-0.057623	-0.512495
H80	H	0.677773	0.094889	-0.555137
O81	O	0.753546	0.000068	-0.656585
C82	C	0.753989	0.102654	-0.706972
H83	H	0.815447	0.136827	-0.728501
H84	H	0.722725	0.079596	-0.757425
H85	H	0.724154	0.174492	-0.675736
H86	H	0.770787	-0.000106	-0.254414
H87	H	1.014672	-0.000160	-0.684926
O88	O	1.027965	-0.000112	-0.537063
C89	C	1.088008	-0.000149	-0.596905
H90	H	1.068826	0.037348	-0.652426
H91	H	1.139574	0.057342	-0.583457
H92	H	1.104175	-0.095166	-0.603220
O93	O	0.099259	-0.000199	0.233417
C94	C	0.023081	-0.000183	0.217383
H95	H	0.018229	-0.037692	0.159876
H96	H	-0.015726	-0.057676	0.263917
H97	H	0.005139	0.094828	0.215393
H98	H	0.283425	-0.000183	-0.025218
O99	O	0.980803	-0.283842	0.014851
C100	C	0.967054	-0.314374	-0.058471
H101	H	0.904690	-0.348635	-0.056973
H102	H	0.980052	-0.232417	-0.100712
H103	H	1.005302	-0.386755	-0.077019
O104	O	1.010182	-0.716630	-0.014167
C105	C	1.053103	-0.788706	0.030017
H106	H	1.021892	-0.807387	0.090245
H107	H	1.060622	-0.876367	0.002924
H108	H	1.111502	-0.740649	0.032610
H109	H	1.023320	-0.000191	-0.144399
O110	O	0.806833	-0.716673	0.188810
C111	C	0.756498	-0.788762	0.152038
H112	H	0.785793	-0.807415	0.093733
H113	H	0.739956	-0.876436	0.188150
H114	H	0.703044	-0.740732	0.144498
H115	H	0.773072	-0.000117	-0.111192
O116	O	0.764904	-0.529681	0.230717
C117	C	0.714562	-0.601777	0.193959
H118	H	0.743849	-0.620446	0.135654
H119	H	0.698020	-0.689442	0.230080
H120	H	0.661108	-0.553743	0.186421
H121	H	0.785194	-0.293575	0.210563
H122	H	0.647532	-0.000087	0.231388
