data_functionalizedCrystal
_audit_creation_method	'MofGen! by Chris Wilmer'
_symmetry_space_group_name_H-M	'P1'
_symmetry_Int_Tables_number	1
_symmetry_cell_setting	triclinic
loop_
_symmetry_equiv_pos_as_xyz
  x,y,z
_cell_length_a	18.050589
_cell_length_b	12.645331
_cell_length_c	12.645323
_cell_angle_alpha	89.985932
_cell_angle_beta	90.025443
_cell_angle_gamma	89.973626
loop_
_atom_site_label
_atom_site_type_symbol
_atom_site_fract_x
_atom_site_fract_y
_atom_site_fract_z
Zn1	Zn	-0.295690	-1.620654	0.599199
Zn2	Zn	-0.419889	-1.620503	0.421937
Zn3	Zn	-0.295714	-1.443368	0.421970
Zn4	Zn	-0.419839	-1.443317	0.599179
O5	O	-0.357783	-1.531960	0.510571
O6	O	-0.312177	-1.768981	0.575679
O7	O	-0.403448	-1.596964	0.273594
O8	O	-0.191786	-1.466970	0.445501
O9	O	-0.403425	-1.768870	0.445446
O10	O	-0.191769	-1.597221	0.575711
O11	O	-0.312217	-1.466824	0.273618
O12	O	-0.312168	-1.295014	0.445482
O13	O	-0.403340	-1.466883	0.747529
O14	O	-0.403362	-1.294977	0.575677
O15	O	-0.312128	-1.597171	0.747543
O16	O	-0.523807	-1.596914	0.445426
O17	O	-0.523770	-1.466737	0.575645
C18	C	-0.357763	-1.256531	0.510582
C19	C	-0.357772	-1.138701	0.510611
C20	C	-0.415454	-0.971149	0.592095
C21	C	-0.415270	-1.093709	0.592432
C22	C	-0.279551	-1.094243	0.541135
C23	C	-0.279902	-0.971645	0.541713
C24	C	-0.377674	-0.971450	0.398357
C25	C	-0.379387	-1.094055	0.398959
C26	C	-0.550735	-1.531832	0.510553
C27	C	-0.633281	-1.531875	0.510581
C28	C	-0.832738	-1.461154	0.581370
C29	C	-0.882180	-1.435307	0.484639
C30	C	-0.784411	-1.531979	0.510595
C31	C	-0.882051	-1.557878	0.607337
C32	C	-0.930396	-1.532077	0.510617
C33	C	-0.832766	-1.506081	0.413813
C34	C	-0.832632	-1.628697	0.536576
C35	C	-0.882052	-1.602887	0.439779
C36	C	-0.700313	-1.531919	0.510584
C37	C	-1.014493	-1.532137	0.510617
C38	C	-0.164077	-1.532118	0.510612
C39	C	-0.081532	-1.532185	0.510629
C40	C	-0.357726	-1.532039	0.787076
C41	C	-0.357701	-1.532072	0.904907
C42	C	-0.357801	-0.808466	0.510568
C43	C	-0.357800	-0.926296	0.510586
C44	C	-0.357787	-1.531944	0.235141
C45	C	-0.357602	-1.532116	0.117312
C46	C	-0.414812	-1.449855	1.072462
C47	C	-0.415095	-1.450070	0.949902
C48	C	-0.378943	-1.643766	0.949409
C49	C	-0.379301	-1.643315	1.072008
C50	C	-0.279029	-1.503651	1.072110
C51	C	-0.279500	-1.501159	0.949504
H52	H	-0.473651	-0.941642	0.573178
N53	N	-0.909499	-1.332762	0.457081
N54	N	-0.977728	-1.316609	0.451920
H55	H	-0.997021	-1.244185	0.432463
N56	N	-0.223205	-1.570835	0.911072
N57	N	-0.239878	-1.644745	0.849921
H58	H	-0.200121	-1.693963	0.822778
H59	H	-0.903568	-1.662823	0.379868
N60	N	-0.258024	-1.132800	0.642939
N61	N	-0.300154	-1.193008	0.693189
H62	H	-0.284954	-1.220240	0.765090
H63	H	-0.811206	-1.484121	0.331986
H64	H	-0.235405	-0.941976	0.485067
N65	N	-0.399162	-0.932525	0.695805
N66	N	-0.345273	-0.872109	0.709948
H67	H	-0.333763	-0.844829	0.783193
N68	N	-0.258767	-0.935816	0.644646
N69	N	-0.296508	-0.961125	0.723539
H70	H	-0.281584	-0.935828	0.796241
H71	H	-0.433739	-0.940513	0.370615
H72	H	-0.402118	-1.123061	0.675588
H73	H	-0.236405	-1.563566	1.101115
H74	H	-0.436945	-1.123123	0.375937
N75	N	-0.398289	-1.345636	1.109430
N76	N	-0.337124	-1.304356	1.088467
H77	H	-0.325454	-1.230749	1.114583
H78	H	-0.472697	-1.468461	1.103277
H79	H	-0.810854	-1.710423	0.558578
H80	H	-0.436740	-1.667445	1.100614
H81	H	-0.340441	-1.124682	0.334968
H82	H	-0.335679	-0.942444	0.337625
N83	N	-0.224204	-1.130804	0.468977
N84	N	-0.241833	-1.190178	0.394073
H85	H	-0.202745	-1.216001	0.343108
H86	H	-0.811085	-1.401171	0.641137
H87	H	-0.338592	-1.706699	0.920265
H88	H	-0.263481	-1.418962	0.920417
N89	N	-0.909201	-1.585327	0.709958
N90	N	-0.892409	-1.672392	0.750215
H91	H	-0.911582	-1.691772	0.822693
H92	H	-0.401802	-1.367244	0.919812
N93	N	-0.329296	-1.722798	1.109243
N94	N	-0.262212	-1.718464	1.085155
H95	H	-0.226898	-1.774599	1.111451
H96	H	-0.473344	-1.468859	0.920584
H97	H	-0.435780	-1.668310	0.918716
H98	H	-0.473275	-1.123766	0.573302
N99	N	-0.254745	-1.403258	1.110902
N100	N	-0.295058	-1.351464	1.172343
H101	H	-0.277915	-1.280558	1.199742
