data_functionalizedCrystal
_audit_creation_method	'MofGen! by Chris Wilmer'
_symmetry_space_group_name_H-M	'P1'
_symmetry_Int_Tables_number	1
_symmetry_cell_setting	triclinic
loop_
_symmetry_equiv_pos_as_xyz
  x,y,z
_cell_length_a	10.654549
_cell_length_b	9.730217
_cell_length_c	17.699083
_cell_angle_alpha	90.004134
_cell_angle_beta	83.884966
_cell_angle_gamma	90.002441
loop_
_atom_site_label
_atom_site_type_symbol
_atom_site_fract_x
_atom_site_fract_y
_atom_site_fract_z
O1	O	1.665972	0.114326	0.106319
O2	O	1.300317	0.114322	0.116443
O3	O	1.493475	0.114312	0.001257
O4	O	1.472814	0.114336	0.221504
O5	O	1.493469	-0.114268	0.001256
O6	O	1.300311	-0.114258	0.116442
O7	O	1.665966	-0.114254	0.106318
Zn8	Zn	1.483138	-0.150548	0.111380
Zn9	Zn	1.483146	0.150616	0.111381
O10	O	1.472808	-0.114244	0.221503
C11	C	1.253529	0.000031	0.115698
C12	C	1.114125	0.000029	0.113472
C13	C	0.821803	0.000083	0.247028
C14	C	0.872116	0.000085	0.316944
C15	C	1.003097	0.000067	0.319038
C16	C	1.083770	0.000051	0.251209
C17	C	1.033457	0.000049	0.181293
C18	C	0.902471	0.000063	0.179206
C19	C	1.063812	0.000027	0.043556
C20	C	0.932831	0.000036	0.041460
C21	C	1.144485	0.000012	-0.024273
C22	C	1.094172	0.000000	-0.094190
C23	C	0.963182	0.000016	-0.096282
C24	C	0.882518	0.000034	-0.028456
N25	N	1.483142	-0.356084	0.111378
C26	C	1.654252	-0.356084	0.009412
C27	C	1.739816	-0.428023	-0.041570
C28	C	1.739829	-0.571903	-0.041570
C29	C	1.654266	-0.643846	0.009415
C30	C	1.568703	-0.571907	0.060396
C31	C	1.568701	-0.428024	0.060392
C32	C	1.397588	-0.571908	0.162358
C33	C	1.397579	-0.428028	0.162363
C34	C	1.312025	-0.643851	0.213342
C35	C	1.226465	-0.571912	0.264328
C36	C	1.226457	-0.428023	0.264327
C37	C	1.312015	-0.356088	0.213344
C38	C	1.712754	0.000040	0.107063
C39	C	1.852158	0.000051	0.109289
C40	C	1.492732	0.000022	-0.026945
C41	C	1.490511	0.000022	-0.110977
N42	N	1.483152	0.356153	0.111377
C43	C	1.603891	0.000021	-0.158876
C44	C	1.601796	0.000033	-0.237833
C45	C	1.486321	0.000036	-0.268889
C46	C	1.372932	0.000041	-0.220984
C47	C	1.375028	0.000038	-0.142029
C48	C	1.364478	0.000052	-0.539400
C49	C	1.362391	0.000050	-0.618362
C50	C	1.591247	0.000046	-0.635205
C51	C	1.593342	0.000044	-0.556249
C52	C	1.479954	0.000056	-0.508351
C53	C	1.482227	0.000046	-0.422738
C54	C	1.484047	0.000037	-0.354501
C55	C	1.473551	0.000050	0.249705
C56	C	1.475772	0.000059	0.333738
H57	H	0.715149	0.000073	0.245329
H58	H	1.156801	-0.630497	0.305833
H59	H	1.312034	-0.761006	0.213337
F60	F	1.223172	0.000055	0.253442
H61	H	1.272151	0.000061	-0.500411
H62	H	1.694122	0.000030	-0.276829
F63	F	1.654269	-0.796977	0.009404
H64	H	1.282702	0.000039	-0.103029
H65	H	1.809498	-0.630476	-0.083086
H66	H	1.654261	-0.238929	0.009413
F67	F	1.283887	0.000003	-0.022042
F68	F	0.786251	0.000111	0.389128
H69	H	1.156776	-0.369457	0.305839
H70	H	1.044061	0.000066	0.375970
F71	F	0.743113	0.000042	-0.030676
F72	F	1.312019	-0.202958	0.213341
H73	H	1.683572	0.000044	-0.674213
F74	F	0.909646	0.000022	-0.170698
F75	F	1.180034	-0.000008	-0.166370
H76	H	1.278910	0.000052	-0.246276
H77	H	1.809479	-0.369434	-0.083082
H78	H	1.697924	0.000010	-0.133597
F79	F	1.716246	0.000042	-0.523202
H80	H	1.268352	0.000050	-0.643644
