data_functionalizedCrystal
_audit_creation_method	'MofGen! by Chris Wilmer'
_symmetry_space_group_name_H-M	'P1'
_symmetry_Int_Tables_number	1
_symmetry_cell_setting	triclinic
loop_
_symmetry_equiv_pos_as_xyz
  x,y,z
_cell_length_a	14.446369
_cell_length_b	20.875641
_cell_length_c	20.875652
_cell_angle_alpha	90.155335
_cell_angle_beta	62.440779
_cell_angle_gamma	57.588106
loop_
_atom_site_label
_atom_site_type_symbol
_atom_site_fract_x
_atom_site_fract_y
_atom_site_fract_z
Zr1	Zr	1.087599	-0.109969	0.592179
O2	O	1.280720	-0.212398	0.489756
O3	O	0.894478	-0.078564	0.623577
O4	O	1.101771	-0.217301	0.618665
O5	O	1.062247	0.035772	0.498543
O6	O	1.112949	-0.221173	0.720351
O7	O	1.073427	-0.073661	0.494668
O8	O	0.742140	0.027002	0.729137
O9	O	1.433056	-0.212404	0.489757
O10	O	0.982253	-0.068065	0.712855
O11	O	0.965568	0.016493	0.639860
O12	O	1.209628	-0.146852	0.634077
O13	O	1.192943	-0.062293	0.561082
Zr14	Zr	1.087596	0.058389	0.760537
Zr15	Zr	1.105427	-0.116144	0.754357
Zr16	Zr	1.069768	0.064565	0.598360
Zr17	Zr	1.330557	-0.109977	0.592180
Zr18	Zr	0.844637	0.058397	0.760536
O19	O	1.280716	0.026984	0.729140
O20	O	1.306069	-0.221180	0.720352
O21	O	1.255367	0.035766	0.498544
O22	O	0.894475	0.160819	0.862961
O23	O	0.919828	-0.087345	0.854173
O24	O	0.869125	0.169600	0.632364
O25	O	1.112948	-0.087352	0.854174
O26	O	1.073424	0.165721	0.734052
O27	O	1.062245	0.169594	0.632365
O28	O	1.101768	0.022082	0.858049
O29	O	1.447227	-0.217313	0.618667
O30	O	0.727967	0.165733	0.734050
O31	O	0.742138	0.160824	0.862960
O32	O	0.756311	0.022093	0.858047
O33	O	1.418883	-0.073673	0.494669
O34	O	1.433054	-0.078582	0.623579
O35	O	0.965566	0.095272	0.718639
O36	O	0.982252	0.010714	0.791635
O37	O	1.209627	-0.068073	0.712857
O38	O	1.192941	0.016486	0.639861
C39	C	0.783693	-0.025780	0.676357
C40	C	0.680550	-0.025776	0.676356
C41	C	1.065297	-0.018065	0.473498
C42	C	1.057728	-0.015443	0.404650
C43	C	1.065294	0.192525	0.684089
C44	C	1.057724	0.266619	0.686713
C45	C	0.523018	0.027782	0.630556
C46	C	0.630631	0.027583	0.630289
C47	C	0.734775	-0.113194	0.638299
C48	C	0.627475	-0.112912	0.637950
C49	C	0.452468	0.007319	0.760221
C50	C	0.558421	0.009134	0.760164
C51	C	1.391502	-0.025800	0.676360
C52	C	1.494644	-0.025803	0.676360
C53	C	1.109901	-0.244104	0.668628
C54	C	1.117470	-0.318198	0.666004
C55	C	1.172852	0.260305	0.646825
C56	C	1.165732	0.329927	0.649288
C57	C	1.043482	0.405862	0.691642
C58	C	0.928345	0.412175	0.731530
C59	C	0.935466	0.342553	0.729063
C60	C	1.009455	0.618493	0.703425
C61	C	1.002342	0.688116	0.705891
C62	C	1.239730	0.605863	0.623647
C63	C	1.246841	0.536244	0.621187
C64	C	1.131704	0.542563	0.661073
N65	N	1.036200	0.477028	0.694161
N66	N	1.138986	0.471398	0.658548
C67	C	1.002339	0.003753	0.021534
C68	C	1.009461	0.001281	0.086221
C69	C	1.131711	-0.041076	0.077440
C70	C	1.246847	-0.080971	0.003965
C71	C	1.239724	-0.078503	-0.060721
C72	C	1.165741	-0.052870	0.266489
C73	C	1.172855	-0.055333	0.331183
C74	C	0.935469	0.026919	0.413435
C75	C	0.928356	0.029386	0.348744
C76	C	1.043492	-0.010512	0.275275
N77	N	1.138994	-0.043602	0.143559
N78	N	1.036209	-0.007991	0.209157
C79	C	1.109898	-0.033515	0.879218
C80	C	1.117466	-0.036137	0.948067
C81	C	0.805993	-0.033505	0.879217
C82	C	0.710419	-0.036123	0.948065
C83	C	0.761389	0.192535	0.684088
C84	C	0.650677	0.266632	0.686711
C85	C	0.783690	0.184810	0.886947
C86	C	0.680546	0.256285	0.958419
C87	C	1.391505	-0.236389	0.465769
C88	C	1.494648	-0.307865	0.394297
C89	C	1.369201	-0.018075	0.473500
C90	C	1.464775	-0.015456	0.404652
C91	C	1.413805	-0.244115	0.668629
C92	C	1.524517	-0.318212	0.666006
C93	C	0.665538	-0.078482	0.939275
C94	C	0.575751	-0.080958	1.003958
C95	C	0.530839	-0.041071	1.077431
C96	C	0.575729	0.001289	1.086220
C97	C	0.665522	0.003761	1.021537
C98	C	0.598684	0.342558	0.729065
C99	C	0.494671	0.412188	0.731527
C100	C	0.442647	0.405889	0.691639
C101	C	0.494649	0.329955	0.649280
C102	C	0.598667	0.260327	0.646814
C103	C	0.640819	0.245712	1.030093
C104	C	0.543920	0.312864	1.097255
C105	C	0.486742	0.390589	1.092741
C106	C	0.526478	0.401161	1.021060
C107	C	0.623382	0.334009	0.953900
C108	C	1.534387	-0.297292	0.322623
C109	C	1.631316	-0.364444	0.255462
C110	C	1.688499	-0.442168	0.259976
C111	C	1.648757	-0.452740	0.331657
C112	C	1.551836	-0.385589	0.398817
C113	C	1.509667	0.026895	0.413442
C114	C	1.599484	0.029352	0.348758
C115	C	1.644399	-0.010538	0.275284
C116	C	1.599504	-0.052895	0.266495
C117	C	1.509696	-0.055356	0.331179
C118	C	1.576509	-0.311887	0.705902
C119	C	1.680523	-0.381504	0.703453
C120	C	1.732549	-0.457444	0.661101
C121	C	1.680547	-0.463767	0.621203
C122	C	1.576529	-0.394151	0.623658
H123	H	0.589819	0.092041	0.656024
H124	H	0.664459	-0.139631	0.576157
H125	H	1.534165	-0.250060	0.740389
F126	F	1.791650	-0.513630	0.188491
H127	H	1.473103	0.059384	0.473262
H128	H	0.613229	-0.154817	0.668966
H129	H	0.915702	0.623648	0.735905
H130	H	0.357949	0.462590	0.693654
H131	H	1.636022	0.063847	0.355929
H132	H	1.346390	0.474418	0.586699
H133	H	0.457723	-0.043088	1.130094
F134	F	0.886927	0.043737	0.164410
H135	H	0.902789	0.038249	0.028694
F136	F	0.654031	0.349280	0.771526
F137	F	0.713324	-0.120942	0.861084
F138	F	0.782576	-0.167448	0.679586
H139	H	0.828807	0.063879	0.355903
H140	H	1.519483	-0.394208	0.457175
H141	H	0.841732	0.059400	0.473258
H142	H	0.828806	0.474007	0.766012
H143	H	0.655714	0.342630	0.895543
F144	F	1.739980	-0.007910	0.206449
F145	F	0.812931	0.349276	0.771515
F146	F	0.653985	0.179523	0.601736
F147	F	0.465612	0.483887	1.016268
H148	H	1.272409	-0.089805	0.324025
H149	H	0.539149	0.033764	1.146051
F150	F	1.843258	-0.531528	0.658494
F151	F	0.850682	-0.148408	0.558280
F152	F	1.521215	-0.400895	0.581185
F153	F	0.701662	0.162998	1.034914
H154	H	1.333468	0.600728	0.591173
F155	F	1.673591	-0.353175	0.179181
H156	H	1.259481	0.324779	0.616808
H157	H	0.702052	0.038258	1.028706
F158	F	1.647315	-0.095343	0.188293
H159	H	0.430018	0.092408	0.656172
H160	H	1.695328	-0.516032	0.335323
H161	H	0.407838	0.445261	1.147433
H162	H	1.259493	-0.085356	0.206676
F163	F	0.439342	0.492994	0.776615
H164	H	1.487833	-0.234010	0.318934
H165	H	0.452276	0.324838	0.616804
H166	H	1.333473	-0.110988	-0.120541
H167	H	0.511578	0.304242	1.155614
F168	F	0.872223	0.768934	0.750993
F169	F	1.461921	-0.100430	0.321812
H170	H	0.539212	-0.115452	0.996787
H171	H	1.722851	-0.376340	0.735942
H172	H	1.722923	-0.525606	0.586722
H173	H	0.554671	0.005156	0.569121
H174	H	0.715304	0.004760	0.568488
F175	F	0.325568	0.089986	0.801316
F176	F	1.376955	-0.126047	-0.005380
F177	F	0.501672	0.093294	0.797286
H178	H	0.587605	-0.026117	0.797452
H179	H	0.434248	-0.031568	0.794552
H180	H	1.272402	0.198478	0.612339
