data_functionalizedCrystal
_audit_creation_method	'MofGen! by Chris Wilmer'
_symmetry_space_group_name_H-M	'P1'
_symmetry_Int_Tables_number	1
_symmetry_cell_setting	triclinic
loop_
_symmetry_equiv_pos_as_xyz
  x,y,z
_cell_length_a	6.817900
_cell_length_b	14.125369
_cell_length_c	14.858340
_cell_angle_alpha	95.620569
_cell_angle_beta	104.519754
_cell_angle_gamma	100.397648
loop_
_atom_site_label
_atom_site_type_symbol
_atom_site_fract_x
_atom_site_fract_y
_atom_site_fract_z
V1	V	-4.022529	-0.133726	-0.289593
V2	V	-3.772529	0.116274	-0.039593
V3	V	-3.522529	0.366274	0.210407
V4	V	-3.272529	0.616274	0.460407
O5	O	-4.026252	0.005795	-0.284457
O6	O	-3.776252	0.255795	-0.034457
O7	O	-3.526252	0.505795	0.215543
O8	O	-3.276252	0.755795	0.465543
O9	O	-3.958563	-0.264549	-0.287251
O10	O	-3.708563	-0.014549	-0.037251
O11	O	-3.458563	0.235451	0.212749
O12	O	-3.208563	0.485451	0.462749
O13	O	-3.979360	-0.131946	-0.416060
O14	O	-3.729360	0.118054	-0.166060
O15	O	-3.479360	0.368054	0.083940
O16	O	-3.229360	0.618054	0.333940
O17	O	-4.005311	-0.127726	-0.154756
O18	O	-3.755311	0.122274	0.095244
O19	O	-3.505311	0.372274	0.345244
O20	O	-3.255311	0.622274	0.595244
V21	V	-4.507496	-0.117005	-0.273509
V22	V	-4.257496	0.132995	-0.023509
V23	V	-4.007496	0.382995	0.226491
V24	V	-3.757496	0.632995	0.476491
O25	O	-4.280620	-0.170405	-0.324874
O26	O	-4.030620	0.079595	-0.074874
O27	O	-3.780620	0.329595	0.175126
O28	O	-3.530620	0.579595	0.425126
O29	O	-4.699603	-0.080326	-0.238229
O30	O	-4.449603	0.169674	0.011771
O31	O	-4.199603	0.419674	0.261771
O32	O	-3.949603	0.669674	0.511771
O33	O	-4.348256	0.013818	-0.275852
O34	O	-4.098256	0.263818	-0.025852
O35	O	-3.848256	0.513818	0.224148
O36	O	-3.598256	0.763818	0.474148
O37	O	-4.621171	-0.256526	-0.278646
O38	O	-4.371171	-0.006526	-0.028646
O39	O	-4.121171	0.243474	0.221354
O40	O	-3.871171	0.493474	0.471354
O41	O	-4.642111	-0.123005	-0.408347
O42	O	-4.392111	0.126995	-0.158347
O43	O	-4.142111	0.376995	0.091653
O44	O	-3.892111	0.626995	0.341653
O45	O	-4.327459	-0.118785	-0.147043
O46	O	-4.077459	0.131215	0.102957
O47	O	-3.827459	0.381215	0.352957
O48	O	-3.577459	0.631215	0.602957
C49	C	-3.799608	-0.296433	-0.282589
C50	C	-3.549608	-0.046433	-0.032589
C51	C	-3.299608	0.203567	0.217411
C52	C	-3.049608	0.453567	0.467411
C53	C	-3.828630	-0.403384	-0.281517
C54	C	-3.578630	-0.153384	-0.031517
C55	C	-3.328630	0.096616	0.218483
C56	C	-3.078630	0.346616	0.468483
C57	C	-3.826135	-0.127283	-0.446896
C58	C	-3.576135	0.122717	-0.196896
C59	C	-3.326135	0.372717	0.053104
C60	C	-3.076135	0.622717	0.303104
C61	C	-3.872020	-0.126693	-0.550281
C62	C	-3.622020	0.123307	-0.300281
C63	C	-3.372020	0.373307	-0.050281
C64	C	-3.122020	0.623307	0.199719
C65	C	-3.909281	-0.126213	-0.634241
C66	C	-3.659281	0.123787	-0.384241
C67	C	-3.409281	0.373787	-0.134241
C68	C	-3.159281	0.623787	0.115759
C69	C	-3.956043	-0.125607	-0.739572
C70	C	-3.706043	0.124393	-0.489572
C71	C	-3.456043	0.374393	-0.239572
C72	C	-3.206043	0.624393	0.010428
C73	C	-3.993328	-0.125124	-0.823525
C74	C	-3.743328	0.124876	-0.573525
C75	C	-3.493328	0.374876	-0.323525
C76	C	-3.243328	0.624876	-0.073525
C77	C	-4.040094	-0.124520	-0.928863
C78	C	-3.790094	0.125480	-0.678863
C79	C	-3.540094	0.375480	-0.428863
C80	C	-3.290094	0.625480	-0.178863
C81	C	-4.067532	-0.651529	-0.283517
C82	C	-3.817532	-0.401529	-0.033517
C83	C	-3.567532	-0.151529	0.216483
C84	C	-3.317532	0.098471	0.466483
C85	C	-3.881873	-0.599203	-0.279589
C86	C	-3.631873	-0.349203	-0.029589
C87	C	-3.381873	-0.099203	0.220411
C88	C	-3.131873	0.150797	0.470411
C89	C	-3.852249	-0.490239	-0.280662
C90	C	-3.602249	-0.240239	-0.030662
C91	C	-3.352249	0.009761	0.219338
C92	C	-3.102249	0.259761	0.469338
C93	C	-4.097164	-0.760502	-0.282445
C94	C	-3.847164	-0.510502	-0.032445
C95	C	-3.597164	-0.260502	0.217555
C96	C	-3.347164	-0.010502	0.467555
C97	C	-4.170552	0.045696	-0.280511
C98	C	-3.920552	0.295696	-0.030511
C99	C	-3.670552	0.545696	0.219489
C100	C	-3.420552	0.795696	0.469489
C101	C	-4.120769	0.152647	-0.281589
C102	C	-3.870769	0.402647	-0.031589
C103	C	-3.620769	0.652647	0.218411
C104	C	-3.370769	0.902647	0.468411
C105	C	-4.144025	-0.123452	-0.116201
C106	C	-3.894025	0.126548	0.133799
C107	C	-3.644025	0.376548	0.383799
C108	C	-3.394025	0.626548	0.633799
C109	C	-4.077380	-0.124036	-0.012816
C110	C	-3.827380	0.125964	0.237184
C111	C	-3.577380	0.375964	0.487184
C112	C	-3.327380	0.625964	0.737184
H113	H	-3.745173	-0.636239	-0.275419
H114	H	-3.495173	-0.386239	-0.025419
H115	H	-3.245173	-0.136239	0.224581
H116	H	-2.995173	0.113761	0.474581
H117	H	-4.204220	-0.614495	-0.287685
H118	H	-3.954220	-0.364495	-0.037685
H119	H	-3.704220	-0.114495	0.212315
H120	H	-3.454220	0.135505	0.462315
