data_functionalizedCrystal
_audit_creation_method	'MofGen! by Chris Wilmer'
_symmetry_space_group_name_H-M	'P1'
_symmetry_Int_Tables_number	1
_symmetry_cell_setting	triclinic
loop_
_symmetry_equiv_pos_as_xyz
  x,y,z
_cell_length_a	14.519731
_cell_length_b	12.996460
_cell_length_c	14.519709
_cell_angle_alpha	89.992910
_cell_angle_beta	96.315501
_cell_angle_gamma	90.005673
loop_
_atom_site_label
_atom_site_type_symbol
_atom_site_fract_x
_atom_site_fract_y
_atom_site_fract_z
O1	O	1.223857	0.085571	-0.120986
O2	O	1.723857	0.585571	0.379014
O3	O	0.955382	0.085573	-0.135203
O4	O	1.455382	0.585573	0.364797
O5	O	1.096738	0.085563	0.006143
O6	O	1.596738	0.585563	0.506143
O7	O	1.082501	0.085582	-0.262332
O8	O	1.582501	0.585582	0.237668
O9	O	1.096723	-0.085571	0.006151
O10	O	1.596723	0.414429	0.506151
O11	O	0.955368	-0.085561	-0.135195
O12	O	1.455368	0.414439	0.364805
O13	O	1.223842	-0.085563	-0.120979
O14	O	1.723842	0.414437	0.379021
Cu15	Cu	1.089603	-0.101187	-0.128086
Cu16	Cu	1.589603	0.398813	0.371914
Cu17	Cu	1.089621	0.101198	-0.128095
Cu18	Cu	1.589621	0.601198	0.371905
O19	O	1.082487	-0.085552	-0.262325
O20	O	1.582487	0.414448	0.237675
C21	C	0.921016	0.000006	-0.134532
C22	C	1.421016	0.500006	0.365468
C23	C	0.818635	0.000007	-0.132536
C24	C	1.318635	0.500007	0.367464
C25	C	0.735491	0.000011	-0.130915
C26	C	1.235491	0.500011	0.369085
C27	C	0.631182	0.000011	-0.128888
C28	C	1.131182	0.500011	0.371112
C29	C	0.548043	0.000011	-0.127280
C30	C	1.048043	0.500011	0.372720
C31	C	0.443728	0.000013	-0.125253
C32	C	0.943728	0.500013	0.374747
N33	N	1.089598	-0.243535	-0.128079
N34	N	1.589598	0.256465	0.371921
C35	C	1.089620	-0.663349	-0.128096
C36	C	1.589620	-0.163349	0.371904
C37	C	1.089611	-0.546544	-0.128094
C38	C	1.589611	-0.046544	0.371906
C39	C	1.089609	-0.453445	-0.128088
C40	C	1.589609	0.046555	0.371912
C41	C	1.089600	-0.336633	-0.128085
C42	C	1.589600	0.163367	0.371915
C43	C	1.258209	0.000007	-0.121649
C44	C	1.758209	0.500007	0.378351
C45	C	1.360589	0.000013	-0.123645
C46	C	1.860589	0.500013	0.376355
C47	C	1.096067	-0.000004	0.040507
C48	C	1.596067	0.499996	0.540507
C49	C	1.094079	-0.000005	0.142889
C50	C	1.594079	0.499995	0.642889
N51	N	1.089634	0.243545	-0.128095
N52	N	1.589634	0.743545	0.371905
C53	C	1.083157	0.000017	-0.296688
C54	C	1.583157	0.500017	0.203312
C55	C	1.085146	0.000024	-0.399070
C56	C	1.585146	0.500024	0.100930
C57	C	1.086759	0.000022	0.517785
C58	C	1.586759	0.500022	1.017785
C59	C	1.088792	0.000014	0.413477
C60	C	1.588792	0.500014	0.913477
C61	C	1.090419	0.000008	0.330340
C62	C	1.590419	0.500008	0.830340
C63	C	1.092452	0.000002	0.226025
C64	C	1.592452	0.500002	0.726025
