data_functionalizedCrystal
_audit_creation_method	'MofGen! by Chris Wilmer'
_symmetry_space_group_name_H-M	'P1'
_symmetry_Int_Tables_number	1
_symmetry_cell_setting	triclinic
loop_
_symmetry_equiv_pos_as_xyz
  x,y,z
_cell_length_a	12.996460
_cell_length_b	14.519709
_cell_length_c	14.519709
_cell_angle_alpha	83.680145
_cell_angle_beta	89.992878
_cell_angle_gamma	90.005119
loop_
_atom_site_label
_atom_site_type_symbol
_atom_site_fract_x
_atom_site_fract_y
_atom_site_fract_z
O1	O	0.085423	-1.223863	-0.120894
O2	O	0.418756	-0.890529	0.212440
O3	O	0.752089	-0.557196	0.545773
O4	O	0.085457	-0.955386	-0.135130
O5	O	0.418790	-0.622052	0.198203
O6	O	0.752124	-0.288719	0.531536
O7	O	0.085430	-1.096742	0.006227
O8	O	0.418763	-0.763409	0.339560
O9	O	0.752096	-0.430076	0.672893
O10	O	0.085450	-1.082506	-0.262250
O11	O	0.418783	-0.749173	0.071083
O12	O	0.752117	-0.415839	0.404416
O13	O	-0.085704	-1.096740	0.006236
O14	O	0.247629	-0.763407	0.339569
O15	O	0.580963	-0.430073	0.672902
O16	O	-0.085677	-0.955383	-0.135121
O17	O	0.247657	-0.622050	0.198212
O18	O	0.580990	-0.288717	0.531546
O19	O	-0.085711	-1.223860	-0.120884
O20	O	0.247622	-0.890527	0.212449
O21	O	0.580955	-0.557194	0.545782
Cu22	Cu	-0.101320	-1.089622	-0.128002
Cu23	Cu	0.232013	-0.756288	0.205332
Cu24	Cu	0.565347	-0.422955	0.538665
Cu25	Cu	0.101066	-1.089624	-0.128013
Cu26	Cu	0.434399	-0.756291	0.205321
Cu27	Cu	0.767732	-0.422958	0.538654
O28	O	-0.085684	-1.082503	-0.262241
O29	O	0.247650	-0.749170	0.071092
O30	O	0.580983	-0.415837	0.404426
C31	C	-0.000106	-0.921025	-0.134462
C32	C	0.333228	-0.587691	0.198871
C33	C	0.666561	-0.254358	0.532205
C34	C	-0.000093	-0.818643	-0.132474
C35	C	0.333241	-0.485310	0.200859
C36	C	0.666574	-0.151977	0.534193
N37	N	-0.243667	-1.089626	-0.127993
N38	N	0.089666	-0.756293	0.205340
N39	N	0.423000	-0.422960	0.538673
N40	N	0.243413	-1.089627	-0.128014
N41	N	0.576746	-0.756294	0.205320
N42	N	0.910079	-0.422960	0.538653
C43	C	-0.000136	-0.443748	-0.125154
C44	C	0.333197	-0.110414	0.208179
C45	C	0.666530	0.222919	0.541512
C46	C	-0.000124	-0.548056	-0.127187
C47	C	0.333210	-0.214722	0.206146
C48	C	0.666543	0.118611	0.539480
C49	C	-0.000113	-0.631192	-0.128814
C50	C	0.333220	-0.297859	0.204519
C51	C	0.666553	0.035474	0.537853
C52	C	-0.000103	-0.735507	-0.130847
C53	C	0.333230	-0.402173	0.202486
C54	C	0.666564	-0.068840	0.535820
C55	C	0.663227	-1.089622	-0.128005
C56	C	0.996560	-0.756289	0.205329
C57	C	1.329894	-0.422956	0.538662
C58	C	0.546422	-1.089620	-0.128010
C59	C	0.879755	-0.756287	0.205323
C60	C	1.213089	-0.422954	0.538657
C61	C	0.453324	-1.089624	-0.128009
C62	C	0.786657	-0.756291	0.205325
C63	C	1.119990	-0.422957	0.538658
C64	C	0.336511	-1.089623	-0.128015
C65	C	0.669844	-0.756290	0.205318
C66	C	1.003178	-0.422957	0.538652
C67	C	-0.000137	-1.096078	0.040591
C68	C	0.333196	-0.762744	0.373924
C69	C	0.666529	-0.429411	0.707258
C70	C	-0.000138	-1.094090	0.142972
C71	C	0.333196	-0.760756	0.476306
C72	C	0.666529	-0.427423	0.809639
C73	C	-0.000144	-0.258221	-0.121553
C74	C	0.333190	0.075112	0.211781
C75	C	0.666523	0.408446	0.545114
C76	C	-0.000142	-0.360602	-0.123541
C77	C	0.333191	-0.027269	0.209793
C78	C	0.666524	0.306064	0.543126
C79	C	-0.000115	-1.083168	-0.296605
C80	C	0.333219	-0.749835	0.036728
C81	C	0.666552	-0.416502	0.370061
C82	C	-0.000107	-1.085156	-0.398987
C83	C	0.333226	-0.751823	-0.065653
C84	C	0.666559	-0.418490	0.267680
C85	C	-0.000110	-1.086770	0.517868
C86	C	0.333223	-0.753437	0.851201
C87	C	0.666557	-0.420103	1.184535
C88	C	-0.000118	-1.088803	0.413560
C89	C	0.333215	-0.755469	0.746893
C90	C	0.666549	-0.422136	1.080227
C91	C	-0.000125	-1.090430	0.330423
C92	C	0.333209	-0.757096	0.663757
C93	C	0.666542	-0.423763	0.997090
C94	C	-0.000131	-1.092463	0.226109
C95	C	0.333202	-0.759129	0.559442
C96	C	0.666536	-0.425796	0.892776
