data_functionalizedCrystal
_audit_creation_method	'MofGen! by Chris Wilmer'
_symmetry_space_group_name_H-M	'P1'
_symmetry_Int_Tables_number	1
_symmetry_cell_setting	triclinic
loop_
_symmetry_equiv_pos_as_xyz
  x,y,z
_cell_length_a	18.050589
_cell_length_b	12.759401
_cell_length_c	12.759401
_cell_angle_alpha	89.993434
_cell_angle_beta	90.006964
_cell_angle_gamma	89.973571
loop_
_atom_site_label
_atom_site_type_symbol
_atom_site_fract_x
_atom_site_fract_y
_atom_site_fract_z
Zn1	Zn	-0.295825	-1.606022	0.594016
Zn2	Zn	-0.419983	-1.605915	0.418339
Zn3	Zn	-0.295808	-1.430364	0.418353
Zn4	Zn	-0.419973	-1.430272	0.593977
O5	O	-0.357897	-1.518143	0.506171
O6	O	-0.312306	-1.753029	0.570723
O7	O	-0.403509	-1.582622	0.271320
O8	O	-0.191886	-1.453749	0.441676
O9	O	-0.403525	-1.752950	0.441654
O10	O	-0.191898	-1.582805	0.570736
O11	O	-0.312277	-1.453645	0.271330
O12	O	-0.312268	-1.283331	0.441639
O13	O	-0.403507	-1.453592	0.741004
O14	O	-0.403491	-1.283263	0.570670
O15	O	-0.312296	-1.582715	0.741032
O16	O	-0.523907	-1.582532	0.441616
O17	O	-0.523899	-1.453487	0.570657
C18	C	-0.357877	-1.245176	0.506152
C19	C	-0.357886	-1.128399	0.506169
C20	C	-0.310473	-1.073579	0.573478
C21	C	-0.310478	-0.963855	0.573483
C22	C	-0.405315	-0.963781	0.438868
C23	C	-0.405306	-1.073503	0.438858
C24	C	-0.550849	-1.518016	0.506154
C25	C	-0.633395	-1.518058	0.506182
C26	C	-0.832869	-1.447953	0.576329
C27	C	-0.882289	-1.422360	0.480461
C28	C	-0.784526	-1.518161	0.506195
C29	C	-0.882187	-1.543806	0.602075
C30	C	-0.930511	-1.518259	0.506217
C31	C	-0.832858	-1.492519	0.410276
C32	C	-0.832752	-1.614008	0.531955
C33	C	-0.882150	-1.588452	0.436020
C34	C	-0.700427	-1.518103	0.506184
C35	C	-1.014607	-1.518318	0.506217
C36	C	-0.164192	-1.518299	0.506212
C37	C	-0.081646	-1.518366	0.506229
C38	C	-0.357902	-1.518155	0.780205
C39	C	-0.357905	-1.518160	0.896981
C40	C	-0.357911	-0.792176	0.506187
C41	C	-0.357900	-0.908953	0.506184
C42	C	-0.310418	-1.585386	0.951860
C43	C	-0.310417	-1.585377	1.061584
C44	C	-0.405394	-1.450913	1.061541
C45	C	-0.405391	-1.450917	0.951819
C46	C	-0.357909	-1.518131	1.233204
C47	C	-0.357906	-1.518146	1.116427
H48	H	-0.811229	-1.388492	0.635555
H49	H	-0.444058	-1.396169	1.106204
O50	O	-0.264526	-0.910488	0.638923
C51	C	-0.306891	-0.847031	0.706697
H52	H	-0.363129	-0.830554	0.669502
H53	H	-0.276661	-0.769894	0.720861
H54	H	-0.315141	-0.889329	0.784530
H55	H	-0.443924	-0.919071	0.384066
O56	O	-0.806647	-1.710579	0.557908
C57	C	-0.728547	-1.709388	0.556611
H58	H	-0.708464	-1.642987	0.504029
H59	H	-0.707135	-1.787341	0.525147
H60	H	-0.706888	-1.696876	0.639604
O61	O	-0.264338	-1.126744	0.638891
C62	C	-0.222505	-1.054823	0.698318
H63	H	-0.219891	-0.976604	0.655295
H64	H	-0.164002	-1.086556	0.709667
H65	H	-0.249792	-1.043154	0.778045
O66	O	-0.451437	-1.126600	0.373437
C67	C	-0.493285	-1.054622	0.314016
H68	H	-0.495915	-0.976415	0.357048
H69	H	-0.551781	-1.086299	0.302663
H70	H	-0.465999	-1.042950	0.234292
H71	H	-0.904064	-1.341351	0.458693
O72	O	-0.264391	-1.650803	0.898540
C73	C	-0.306671	-1.718615	0.835051
H74	H	-0.365163	-1.725064	0.868103
H75	H	-0.279812	-1.799487	0.833823
H76	H	-0.309225	-1.686130	0.751890
H77	H	-0.811280	-1.470774	0.329178
O78	O	-0.907775	-1.659216	0.365056
C79	C	-0.882489	-1.631855	0.264153
H80	H	-0.868758	-1.544681	0.262077
H81	H	-0.927553	-1.649565	0.204116
H82	H	-0.830711	-1.679194	0.244675
H83	H	-0.444060	-1.396166	0.907136
H84	H	-0.903855	-1.565457	0.683151
H85	H	-0.271748	-1.640117	1.106261
