data_functionalizedCrystal
_audit_creation_method	'MofGen! by Chris Wilmer'
_symmetry_space_group_name_H-M	'P1'
_symmetry_Int_Tables_number	1
_symmetry_cell_setting	triclinic
loop_
_symmetry_equiv_pos_as_xyz
  x,y,z
_cell_length_a	14.044220
_cell_length_b	27.731996
_cell_length_c	12.503552
_cell_angle_alpha	93.483648
_cell_angle_beta	86.160109
_cell_angle_gamma	87.905133
loop_
_atom_site_label
_atom_site_type_symbol
_atom_site_fract_x
_atom_site_fract_y
_atom_site_fract_z
O1	O	1.261463	0.113906	-0.089233
O2	O	0.985559	0.109703	-0.089259
O3	O	1.132104	0.041810	-0.089222
O4	O	1.114918	0.181799	-0.089270
O5	O	1.121071	0.046920	0.089418
O6	O	0.974525	0.114813	0.089381
O7	O	1.250430	0.119017	0.089407
Cu8	Cu	1.111470	0.117381	0.105705
Cu9	Cu	1.124519	0.111338	-0.105557
O10	O	1.103884	0.186909	0.089370
C11	C	1.126234	0.026341	0.000102
C12	C	1.125170	-0.027364	0.000112
C13	C	0.944755	0.110418	0.000058
C14	C	0.839612	0.104931	0.000049
C15	C	0.647100	0.094900	0.000074
C16	C	0.588883	0.133817	0.000065
C17	C	0.481763	0.128236	0.000079
C18	C	0.754231	0.100481	0.000060
C19	C	1.124496	-0.363182	-0.097317
C20	C	1.120458	-0.565030	-0.097336
O21	O	1.125011	-0.593496	-0.180152
N22	N	1.113942	-0.587485	0.000039
C23	C	1.108429	-0.559475	0.097426
O24	O	1.102784	-0.583206	0.180250
C25	C	1.112460	-0.357627	0.097445
C26	C	1.118986	-0.335175	0.000063
C27	C	1.131021	-0.340730	-0.194691
C28	C	1.132035	-0.290271	-0.194685
C29	C	1.126525	-0.262264	-0.097306
C30	C	1.120001	-0.284716	0.000068
C31	C	1.106940	-0.329618	0.194831
C32	C	1.107946	-0.279153	0.194827
C33	C	1.114472	-0.256701	0.097445
C34	C	1.115505	-0.206251	0.097454
N35	N	1.122021	-0.183796	0.000078
C36	C	1.127531	-0.211802	-0.097301
C37	C	1.106315	-0.665448	0.097410
C38	C	1.105309	-0.715910	0.097406
C39	C	1.117337	-0.721462	-0.097358
C40	C	1.118350	-0.670999	-0.097352
C41	C	1.112831	-0.642993	0.000034
C42	C	1.129662	-0.105835	-0.097282
C43	C	1.130680	-0.055371	-0.097267
C44	C	1.118647	-0.049824	0.097495
C45	C	1.117634	-0.100283	0.097481
C46	C	1.123139	-0.128287	0.000084
O47	O	1.110945	-0.177755	0.180226
O48	O	1.133154	-0.188062	-0.180112
C49	C	1.123482	-0.413641	-0.097323
C50	C	1.116957	-0.436093	0.000051
C51	C	1.111447	-0.408087	0.097431
C52	C	1.115951	-0.486555	0.000047
C53	C	1.121461	-0.514562	-0.097333
C54	C	1.127977	-0.492106	-0.194709
C55	C	1.128992	-0.441648	-0.194703
C56	C	1.104931	-0.430542	0.194806
C57	C	1.103918	-0.481001	0.194793
C58	C	1.109428	-0.509008	0.097413
C59	C	1.291233	0.118301	0.000088
C60	C	1.396377	0.123788	0.000090
C61	C	1.109754	0.202378	0.000044
C62	C	1.110819	0.256084	0.000026
N63	N	1.102299	0.121632	0.254295
N64	N	1.133697	0.107084	-0.254148
C65	C	1.147183	0.100829	0.526740
C66	C	1.088816	0.127885	0.473401
C67	C	1.096320	0.124405	0.351479
C68	C	1.139680	0.104309	0.648673
H69	H	0.619492	0.171327	0.000047
H70	H	1.033213	0.153663	0.519303
O71	O	0.610558	0.050158	-0.000104
C72	C	0.518355	-0.008722	-0.092607
C73	C	0.559717	0.041952	-0.092546
H74	H	0.477223	-0.015369	-0.167326
H75	H	0.579048	-0.037172	-0.092677
H76	H	0.468113	-0.011128	-0.017809
H77	H	0.609946	0.044406	-0.167331
H78	H	0.498975	0.070378	-0.092420
O79	O	1.136979	-0.033638	-0.191965
C80	C	1.148859	-0.044481	-0.385143
C81	C	1.141709	-0.069153	-0.277981
H82	H	1.152705	-0.073184	-0.454715
H83	H	1.083307	-0.019442	-0.390093
H84	H	1.215932	-0.022549	-0.389948
H85	H	1.074675	-0.091110	-0.273104
H86	H	1.207308	-0.094164	-0.273076
H87	H	1.100009	-0.734186	0.176704
O88	O	1.213407	0.070060	0.471862
C89	C	1.242233	0.001386	0.344751
C90	C	1.167128	0.036197	0.406836
H91	H	1.204843	-0.026008	0.292180
H92	H	1.292428	0.022790	0.292031
H93	H	1.285034	-0.018415	0.404147
H94	H	1.124259	0.056006	0.347518
H95	H	1.116998	0.014767	0.459572
O96	O	1.134839	-0.133054	-0.191859
C97	C	1.058610	-0.191329	-0.304883
C98	C	1.052610	-0.160518	-0.197753
H99	H	0.992146	-0.213549	-0.309674
H100	H	1.063388	-0.166633	-0.374520
H101	H	1.124782	-0.216640	-0.309733
H102	H	0.986443	-0.135204	-0.192799
H103	H	1.047884	-0.185243	-0.128167
H104	H	1.134305	-0.423372	-0.274001
O105	O	1.122561	-0.748618	-0.192022
C106	C	1.050378	-0.766896	-0.358444
C107	C	1.044370	-0.736100	-0.251295
H108	H	0.987159	-0.756794	-0.406387
H109	H	1.119813	-0.759908	-0.406549
H110	H	1.048581	-0.806816	-0.341681
H111	H	1.046128	-0.696171	-0.267961
H112	H	0.974942	-0.743130	-0.203223
H113	H	1.137346	-0.271995	-0.273984
H114	H	1.135504	-0.363528	-0.273994
H115	H	1.112329	-0.118564	0.176778
O116	O	1.124532	-0.649138	-0.191886
C117	C	1.050475	-0.593496	-0.304964
C118	C	1.043380	-0.618205	-0.197846
H119	H	0.984864	-0.568489	-0.309827
H120	H	1.117512	-0.571538	-0.309876
H121	H	1.054278	-0.622201	-0.374529
H122	H	1.039539	-0.589532	-0.128220
H123	H	0.976355	-0.640173	-0.193027
H124	H	1.103438	-0.256352	0.274132
H125	H	1.101826	-0.642650	0.176718
O126	O	1.099717	-0.403291	0.289336
C127	C	1.176017	-0.345068	0.402418
C128	C	1.182026	-0.375892	0.295307
H129	H	1.242564	-0.322916	0.407290
H130	H	1.109921	-0.319702	0.407313
H131	H	1.171141	-0.369797	0.471989
H132	H	1.186939	-0.351200	0.225675
H133	H	1.248110	-0.401263	0.290506
O134	O	1.100414	-0.351386	0.289465
C135	C	1.007712	-0.360075	0.455936
C136	C	1.014981	-0.335403	0.348777
H137	H	0.938654	-0.347155	0.503930
H138	H	1.007864	-0.400956	0.439312
H139	H	1.071284	-0.350352	0.503931
H140	H	0.951425	-0.345087	0.300729
H141	H	1.014874	-0.294527	0.365477
H142	H	1.132468	-0.514918	-0.273999
O143	O	1.113145	-0.022657	0.192149
C144	C	1.020998	-0.000492	0.358534
C145	C	1.027138	-0.031297	0.251393
H146	H	0.951457	-0.007458	0.406453
H147	H	1.084087	-0.010605	0.406668
H148	H	1.022881	0.039424	0.341761
H149	H	1.025227	-0.071221	0.268069
H150	H	0.964053	-0.021143	0.203292
H151	H	1.098611	-0.499277	0.274099
