data_functionalizedCrystal
_audit_creation_method	'MofGen! by Chris Wilmer'
_symmetry_space_group_name_H-M	'P1'
_symmetry_Int_Tables_number	1
_symmetry_cell_setting	triclinic
loop_
_symmetry_equiv_pos_as_xyz
  x,y,z
_cell_length_a	15.944545
_cell_length_b	15.944551
_cell_length_c	14.750779
_cell_angle_alpha	77.355667
_cell_angle_beta	102.645255
_cell_angle_gamma	83.497455
loop_
_atom_site_label
_atom_site_type_symbol
_atom_site_fract_x
_atom_site_fract_y
_atom_site_fract_z
O1	O	1.096308	0.126517	-0.079767
O2	O	0.851754	0.139882	-0.079783
O3	O	0.980712	0.010923	-0.079766
O4	O	0.967351	0.255477	-0.079784
O5	O	1.017166	-0.025529	0.079889
O6	O	0.888209	0.103431	0.079872
O7	O	1.132763	0.090066	0.079888
Zn8	Zn	1.016274	0.090961	0.105228
Zn9	Zn	0.968243	0.138987	-0.105124
O10	O	1.003806	0.219025	0.079871
C11	C	0.838687	0.121103	0.000042
C12	C	0.745440	0.119444	0.000037
C13	C	0.474811	0.034547	0.000053
C14	C	0.543366	0.057504	0.078771
C15	C	0.409800	0.113520	0.000053
C16	C	0.507405	0.093463	-0.078637
C17	C	0.574711	0.116427	0.000044
C18	C	0.477142	0.136440	0.078836
C19	C	0.441161	0.172405	-0.078642
C20	C	0.509688	0.195415	0.000095
C21	C	0.314799	0.111843	0.000060
C22	C	0.669710	0.118109	0.000044
C23	C	0.998384	-0.038597	0.000061
C24	C	0.996722	-0.131843	0.000062
C25	C	0.912813	-0.346694	0.000043
C26	C	0.969751	-0.425685	0.078765
C27	C	0.993713	-0.302567	0.000054
C28	C	0.933828	-0.389730	-0.078642
C29	C	0.990800	-0.467477	0.000043
C30	C	1.050688	-0.380345	0.078841
C31	C	1.014738	-0.344368	-0.078637
C32	C	1.071738	-0.423346	0.000105
C33	C	0.995389	-0.207567	0.000062
C34	C	0.989131	-0.562478	0.000042
C35	C	1.145830	0.108845	0.000060
C36	C	1.239076	0.110505	0.000059
C37	C	0.986132	0.268545	0.000041
C38	C	0.987793	0.361793	0.000034
N39	N	1.049060	0.058184	0.248788
N40	N	0.935464	0.171758	-0.248684
C41	C	0.843898	0.263262	0.600580
C42	C	0.866879	0.240300	0.701082
C43	C	0.981094	0.126148	0.701060
C44	C	0.958120	0.149098	0.600555
C45	C	0.889523	0.217657	0.550323
C46	C	1.003745	0.103493	0.550299
C47	C	0.980776	0.126444	0.449804
C48	C	0.912182	0.195002	0.399565
C49	C	0.866554	0.240608	0.449828
C50	C	1.072346	0.034938	0.600533
C51	C	1.117970	-0.010667	0.550277
C52	C	1.094997	0.012280	0.449779
C53	C	1.026404	0.080838	0.399540
C54	C	1.140626	-0.033327	0.399516
C55	C	1.117657	-0.010375	0.299020
C56	C	1.003435	0.103789	0.299045
H57	H	0.521128	0.075290	-0.145182
H58	H	0.829721	0.277444	0.741996
O59	O	0.461069	0.158103	0.158349
C60	C	0.519957	0.199259	0.304079
C61	C	0.538275	0.174765	0.214062
H62	H	0.582369	0.212719	0.349158
H63	H	0.467720	0.260092	0.281556
H64	H	0.496225	0.143033	0.348198
H65	H	0.562041	0.230934	0.169902
H66	H	0.590483	0.113904	0.236650
O67	O	0.832658	-0.307040	-0.000001
C68	C	0.680171	-0.267313	-0.082170
C69	C	0.770889	-0.312263	-0.082234
H70	H	0.630209	-0.271505	-0.148659
H71	H	0.661109	-0.301167	-0.015023
H72	H	0.682053	-0.195929	-0.082810
H73	H	0.769077	-0.383648	-0.081628
H74	H	0.789916	-0.278341	-0.149375
H75	H	0.525190	0.263470	0.000136
H76	H	0.810689	0.296430	0.408927
H77	H	1.100088	-0.375567	0.145468
H78	H	1.036949	0.070329	0.741970
H79	H	1.138957	-0.456518	0.000153
O80	O	1.207215	-0.099920	0.448466
C81	C	1.293265	-0.185827	0.603276
C82	C	1.217821	-0.110406	0.547962
H83	H	1.301876	-0.194318	0.683728
H84	H	1.277823	-0.248639	0.583599
H85	H	1.355995	-0.170319	0.583438
H86	H	1.155060	-0.125831	0.567770
H87	H	1.233338	-0.047617	0.567643
O88	O	0.777262	0.329906	0.551924
C89	C	0.666349	0.440682	0.562541
C90	C	0.741804	0.365244	0.617762
H91	H	0.637648	0.469263	0.615746
H92	H	0.691821	0.493466	0.515511
H93	H	0.613675	0.415120	0.515473
H94	H	0.794506	0.390725	0.664882
H95	H	0.716265	0.312475	0.664731
H96	H	0.950730	-0.460987	0.145314
O97	O	1.037276	-0.302097	-0.158056
C98	C	0.995340	-0.184906	-0.302024
C99	C	0.969728	-0.232692	-0.212100
H100	H	0.940734	-0.128793	-0.345754
H101	H	1.057861	-0.158172	-0.279397
H102	H	1.006368	-0.232424	-0.347528
H103	H	0.958653	-0.185226	-0.166556
H104	H	0.907230	-0.259440	-0.234793
H105	H	1.173825	-0.066486	0.591187
O106	O	0.388524	0.230188	-0.158139
C107	C	0.343865	0.272844	-0.330987
C108	C	0.403513	0.207338	-0.241028
H109	H	0.355976	0.254404	-0.398025
H110	H	0.272755	0.271462	-0.329906
H111	H	0.358749	0.341207	-0.331621
H112	H	0.388707	0.138944	-0.240335
H113	H	0.474605	0.208796	-0.242144
H114	H	0.884404	-0.394610	-0.145200
O115	O	0.456075	-0.046557	-0.000029
C116	C	0.369148	-0.134018	-0.083017
C117	C	0.390291	-0.042127	-0.083058
H118	H	0.315947	-0.130464	-0.150129
H119	H	0.430276	-0.179049	-0.082340
H120	H	0.345527	-0.160565	-0.016506
H121	H	0.413890	-0.015501	-0.149559
H122	H	0.329142	0.002845	-0.083686
H123	H	1.091047	0.016257	0.682363
O124	O	0.936889	0.170491	0.250282
C125	C	0.880613	0.323526	0.219569
C126	C	0.956041	0.248075	0.274837
H127	H	0.896063	0.386268	0.239417
H128	H	0.872037	0.332168	0.139099
H129	H	0.817862	0.307980	0.239326
H130	H	1.018835	0.263565	0.255161
H131	H	0.964540	0.239452	0.355293
O132	O	0.595976	-0.000529	0.158100
C133	C	0.638129	-0.150870	0.247837
C134	C	0.578519	-0.085241	0.157950
H135	H	0.624024	-0.219372	0.247756
H136	H	0.709268	-0.148663	0.247443
H137	H	0.625183	-0.133146	0.314900
H138	H	0.591388	-0.102921	0.090839
H139	H	0.507400	-0.087461	0.158429
O140	O	0.889712	0.217305	0.301943
C141	C	0.777012	0.233064	0.157748
C142	C	0.802339	0.207801	0.268302
H143	H	0.706376	0.225371	0.130516
H144	H	0.784501	0.303749	0.130409
H145	H	0.821441	0.188712	0.130474
H146	H	0.757931	0.252093	0.295658
H147	H	0.794874	0.137098	0.295577
O148	O	1.162038	-0.054791	0.250344
C149	C	1.277786	-0.170413	0.260916
C150	C	1.227581	-0.120201	0.316162
H151	H	1.330800	-0.223295	0.314106
H152	H	1.230818	-0.201715	0.213900
H153	H	1.308945	-0.123350	0.213832
H154	H	1.196418	-0.167206	0.363299
H155	H	1.274587	-0.088885	0.363117
