data_functionalizedCrystal
_audit_creation_method	'MofGen! by Chris Wilmer'
_symmetry_space_group_name_H-M	'P1'
_symmetry_Int_Tables_number	1
_symmetry_cell_setting	triclinic
loop_
_symmetry_equiv_pos_as_xyz
  x,y,z
_cell_length_a	6.817900
_cell_length_b	11.102183
_cell_length_c	10.992743
_cell_angle_alpha	91.884891
_cell_angle_beta	108.770538
_cell_angle_gamma	108.603876
loop_
_atom_site_label
_atom_site_type_symbol
_atom_site_fract_x
_atom_site_fract_y
_atom_site_fract_z
V1	V	-4.113455	-0.175800	-0.400587
O2	O	-4.072462	0.008488	-0.392964
O3	O	-4.090208	-0.348620	-0.397845
O4	O	-4.091081	-0.173078	-0.575298
O5	O	-4.071584	-0.168269	-0.214282
V6	V	-4.590451	-0.153759	-0.378304
O7	O	-4.389030	-0.224148	-0.449467
O8	O	-4.765074	-0.105410	-0.329423
O9	O	-4.390492	0.019061	-0.381045
O10	O	-4.748841	-0.338046	-0.385927
O11	O	-4.749720	-0.161289	-0.564608
O12	O	-4.389619	-0.156481	-0.203593
C13	C	-3.940486	-0.390750	-0.391525
C14	C	-4.002939	-0.532032	-0.390448
C15	C	-3.881446	-0.495778	-0.155124
C16	C	-3.850037	-0.544025	-0.036960
C17	C	-3.908726	-0.676773	-0.035955
C18	C	-3.998837	-0.761279	-0.153126
C19	C	-4.030246	-0.713033	-0.271289
C20	C	-3.971543	-0.580279	-0.272282
C21	C	-4.151752	-0.749287	-0.506611
C22	C	-4.093050	-0.616539	-0.507619
C23	C	-4.241863	-0.833794	-0.623782
C24	C	-4.273259	-0.785547	-0.741948
C25	C	-4.214562	-0.652790	-0.742949
C26	C	-4.124459	-0.568292	-0.625782
C27	C	-3.941597	-0.166827	-0.617882
C28	C	-4.004754	-0.165746	-0.760709
C29	C	-4.317161	-0.172365	-0.971802
C30	C	-4.251373	-0.173003	-0.823170
C31	C	-3.855023	-0.039611	-0.791485
C32	C	-3.922091	-0.038444	-0.940127
C33	C	-4.043276	-0.281085	-0.978395
C34	C	-3.982588	-0.283955	-0.830181
C35	C	-4.203557	0.061185	-0.387362
C36	C	-4.120343	0.202466	-0.388448
C37	C	-4.202444	-0.162735	-0.161002
C38	C	-4.118526	-0.163810	-0.018174
H39	H	-3.833593	-0.387684	-0.155928
H40	H	-3.776670	-0.475205	0.058438
H41	H	-4.465527	-0.262536	-1.024438
O42	O	-3.983863	0.079044	-0.970713
H43	H	-4.157872	0.048743	-1.037996
H44	H	-4.076629	-0.460198	-0.626584
O45	O	-3.872680	0.076692	-0.726873
H46	H	-3.707069	0.137689	-0.658366
H47	H	-4.178866	-0.375667	-1.032984
H48	H	-4.094240	-0.377192	-0.812023
H49	H	-4.375530	-0.088134	-0.998534
O50	O	-3.874845	-0.728824	0.091488
H51	H	-3.802314	-0.647766	0.172797
H52	H	-4.289659	-0.941883	-0.622956
O53	O	-4.248430	-0.600752	-0.870397
H54	H	-4.320931	-0.681819	-0.951695
H55	H	-4.046644	-0.869369	-0.152298
O56	O	-4.370458	-0.876685	-0.868316
H57	H	-4.405997	-0.977098	-0.847766
O58	O	-3.750858	-0.286666	-0.774920
H59	H	-3.647401	-0.203427	-0.696732
H60	H	-3.895068	-0.275831	-1.007576
H61	H	-4.277547	-0.088727	-0.776924
H62	H	-4.367163	-0.263660	-0.803571
H63	H	-3.771933	-0.027007	-0.969408
H64	H	-3.673455	-0.029706	-0.749618
