data_functionalizedCrystal
_audit_creation_method	'MofGen! by Chris Wilmer'
_symmetry_space_group_name_H-M	'P1'
_symmetry_Int_Tables_number	1
_symmetry_cell_setting	triclinic
loop_
_symmetry_equiv_pos_as_xyz
  x,y,z
_cell_length_a	14.519731
_cell_length_b	14.519709
_cell_length_c	9.130313
_cell_angle_alpha	89.994534
_cell_angle_beta	89.996385
_cell_angle_gamma	83.684499
loop_
_atom_site_label
_atom_site_type_symbol
_atom_site_fract_x
_atom_site_fract_y
_atom_site_fract_z
O1	O	1.223854	0.120985	-0.121806
O2	O	1.557187	0.454318	0.211528
O3	O	1.890521	0.787651	0.544861
O4	O	0.955380	0.135201	-0.121808
O5	O	1.288713	0.468534	0.211525
O6	O	1.622047	0.801867	0.544858
O7	O	1.096735	-0.006145	-0.121794
O8	O	1.430069	0.327188	0.211540
O9	O	1.763402	0.660521	0.544873
O10	O	1.082499	0.262331	-0.121820
O11	O	1.415832	0.595664	0.211513
O12	O	1.749165	0.928997	0.544846
O13	O	1.096726	-0.006149	0.121805
O14	O	1.430059	0.327184	0.455138
O15	O	1.763392	0.660517	0.788472
O16	O	0.955370	0.135197	0.121791
O17	O	1.288704	0.468530	0.455124
O18	O	1.622037	0.801863	0.788457
O19	O	1.223844	0.120981	0.121793
O20	O	1.557178	0.454314	0.455126
O21	O	1.890511	0.787647	0.788460
Cu22	Cu	1.089606	0.128088	0.144034
Cu23	Cu	1.422940	0.461422	0.477368
Cu24	Cu	1.756273	0.794755	0.810701
Cu25	Cu	1.089618	0.128093	-0.144050
Cu26	Cu	1.422951	0.461426	0.189284
Cu27	Cu	1.756285	0.794760	0.522617
O28	O	1.082489	0.262326	0.121779
O29	O	1.415822	0.595660	0.455112
O30	O	1.749156	0.928993	0.788445
C31	C	0.921016	0.134532	-0.000009
C32	C	1.254349	0.467866	0.333324
C33	C	1.587682	0.801199	0.666658
C34	C	0.818635	0.132536	-0.000010
C35	C	1.151969	0.465870	0.333324
C36	C	1.485302	0.799203	0.666657
C37	C	0.735491	0.130915	-0.000015
C38	C	1.068825	0.464248	0.333318
C39	C	1.402158	0.797581	0.666651
C40	C	0.631182	0.128888	-0.000016
C41	C	0.964516	0.462221	0.333318
C42	C	1.297849	0.795555	0.666651
C43	C	0.548043	0.127280	-0.000016
C44	C	0.881377	0.460613	0.333318
C45	C	1.214710	0.793946	0.666651
C46	C	0.443728	0.125253	-0.000019
C47	C	0.777061	0.458586	0.333315
C48	C	1.110395	0.791920	0.666648
C49	C	1.096067	-0.040507	0.000006
C50	C	1.429400	0.292826	0.333339
C51	C	1.762734	0.626160	0.666673
C52	C	1.094079	-0.142889	0.000007
C53	C	1.427412	0.190445	0.333340
C54	C	1.760745	0.523778	0.666673
C55	C	1.086759	-0.517785	-0.000031
C56	C	1.420093	-0.184452	0.333302
C57	C	1.753426	0.148882	0.666635
C58	C	1.088792	-0.413477	-0.000020
C59	C	1.422125	-0.080143	0.333313
C60	C	1.755459	0.253190	0.666646
C61	C	1.090419	-0.330340	-0.000011
C62	C	1.423752	0.002993	0.333322
C63	C	1.757085	0.336327	0.666656
C64	C	1.092452	-0.226025	-0.000003
C65	C	1.425785	0.107308	0.333331
C66	C	1.759118	0.440641	0.666664
C67	C	1.258209	0.121649	-0.000009
C68	C	1.591542	0.454982	0.333324
C69	C	1.924875	0.788315	0.666657
C70	C	1.360589	0.123645	-0.000018
C71	C	1.693922	0.456978	0.333315
C72	C	2.027256	0.790311	0.666648
C73	C	1.083157	0.296688	-0.000024
C74	C	1.416491	0.630022	0.333309
C75	C	1.749824	0.963355	0.666642
C76	C	1.085146	0.399070	-0.000035
C77	C	1.418479	0.732403	0.333299
C78	C	1.751812	1.065736	0.666632
N79	N	1.089605	0.128084	0.346657
N80	N	1.422938	0.461418	0.679990
N81	N	1.756272	0.794751	1.013324
N82	N	1.089626	0.128090	-0.346672
N83	N	1.422960	0.461423	-0.013339
N84	N	1.756293	0.794756	0.319995
C85	C	1.152218	0.065522	0.423315
C86	C	1.485552	0.398856	0.756649
C87	C	1.818885	0.732189	1.089982
C88	C	1.152227	0.065523	0.576652
C89	C	1.485560	0.398856	0.909985
C90	C	1.818894	0.732189	1.243319
C91	C	1.027007	0.190654	0.576659
C92	C	1.360340	0.523988	0.909992
C93	C	1.693673	0.857321	1.243325
C94	C	1.026994	0.190649	0.423325
C95	C	1.360327	0.523982	0.756658
C96	C	1.693661	0.857316	1.089991
H97	H	1.203211	0.014578	0.639063
H98	H	1.536545	0.347911	0.972396
H99	H	1.869878	0.681245	1.305730
H100	H	0.976031	0.241595	0.639097
H101	H	1.309365	0.574928	0.972430
H102	H	1.642698	0.908261	1.305764
O103	O	0.959449	0.258131	0.340646
O104	O	1.292783	0.591464	0.673979
O105	O	1.626116	0.924798	1.007313
H106	H	0.914560	0.219193	0.270830
H107	H	1.247893	0.552527	0.604164
H108	H	1.581227	0.885860	0.937497
H109	H	1.203199	0.014577	0.360896
H110	H	1.536532	0.347910	0.694229
H111	H	1.869865	0.681244	1.027563
