data_functionalizedCrystal
_audit_creation_method	'MofGen! by Chris Wilmer'
_symmetry_space_group_name_H-M	'P1'
_symmetry_Int_Tables_number	1
_symmetry_cell_setting	triclinic
loop_
_symmetry_equiv_pos_as_xyz
  x,y,z
_cell_length_a	23.532407
_cell_length_b	23.532407
_cell_length_c	9.130307
_cell_angle_alpha	89.990275
_cell_angle_beta	89.998129
_cell_angle_gamma	82.848712
loop_
_atom_site_label
_atom_site_type_symbol
_atom_site_fract_x
_atom_site_fract_y
_atom_site_fract_z
O1	O	0.755259	0.069136	-0.121722
O2	O	1.255259	0.569136	0.378278
O3	O	0.589396	0.079139	-0.121747
O4	O	1.089396	0.579139	0.378253
O5	O	0.677329	-0.008795	-0.121707
O6	O	1.177329	0.491205	0.378293
O7	O	0.667326	0.157069	-0.121762
O8	O	1.167326	0.657069	0.378238
O9	O	0.677322	-0.008798	0.121892
O10	O	1.177322	0.491202	0.621892
O11	O	0.589389	0.079135	0.121852
O12	O	1.089389	0.579135	0.621852
O13	O	0.755252	0.069132	0.121877
O14	O	1.255252	0.569132	0.621877
Cu15	Cu	0.672320	0.074134	0.144107
Cu16	Cu	1.172320	0.574134	0.644107
Cu17	Cu	0.672328	0.074137	-0.143977
Cu18	Cu	1.172328	0.574137	0.356023
O19	O	0.667319	0.157066	0.121837
O20	O	1.167319	0.657066	0.621837
C21	C	0.568176	0.078882	0.000050
C22	C	1.068176	0.578882	0.500050
C23	C	0.504959	0.078116	0.000041
C24	C	1.004959	0.578116	0.500041
C25	C	0.238792	0.022921	0.000099
C26	C	0.738792	0.522921	0.500099
C27	C	0.298192	0.023632	0.000099
C28	C	0.798192	0.523632	0.500099
O29	O	0.334937	-0.020153	0.000164
O30	O	0.834937	0.479847	0.500164
N31	N	0.320818	0.075909	0.000071
N32	N	0.820818	0.575909	0.500071
C33	C	0.284041	0.127477	0.000060
C34	C	0.784041	0.627477	0.500060
O35	O	0.308740	0.172007	0.000038
O36	O	0.808740	0.672007	0.500038
C37	C	0.224642	0.126765	0.000071
C38	C	0.724642	0.626765	0.500071
C39	C	0.202019	0.074485	0.000083
C40	C	0.702019	0.574485	0.500083
C41	C	0.216169	-0.029354	0.000114
C42	C	0.716169	0.470646	0.500114
C43	C	0.156772	-0.030066	0.000111
C44	C	0.656772	0.469934	0.500111
C45	C	0.119999	0.021499	0.000095
C46	C	0.619999	0.521499	0.500095
C47	C	0.142623	0.073774	0.000081
C48	C	0.642623	0.573774	0.500081
C49	C	0.187865	0.178333	0.000069
C50	C	0.687865	0.678333	0.500069
C51	C	0.128463	0.177616	0.000082
C52	C	0.628463	0.677616	0.500082
C53	C	0.105840	0.125336	0.000094
C54	C	0.605840	0.625336	0.500094
C55	C	0.046454	0.124627	0.000063
C56	C	0.546454	0.624627	0.500063
N57	N	0.023828	0.072351	0.000090
N58	N	0.523828	0.572351	0.500090
C59	C	0.060600	0.020787	0.000106
C60	C	0.560600	0.520787	0.500106
C61	C	0.408783	0.128968	0.000039
C62	C	0.908783	0.628968	0.500039
C63	C	0.468181	0.129681	0.000017
C64	C	0.968181	0.629681	0.500017
C65	C	0.482328	0.025836	0.000059
C66	C	0.982328	0.525836	0.500059
C67	C	0.422929	0.025124	0.000070
C68	C	0.922929	0.525124	0.500070
C69	C	0.386157	0.076692	0.000066
C70	C	0.886157	0.576692	0.500066
C71	C	-0.064136	0.019297	0.000101
C72	C	0.435864	0.519297	0.500101
C73	C	-0.123538	0.018590	0.000092
C74	C	0.376462	0.518590	0.500092
C75	C	-0.137680	0.122435	0.000058
C76	C	0.362320	0.622435	0.500058
C77	C	-0.078284	0.123142	0.000059
C78	C	0.421716	0.623142	0.500059
C79	C	-0.041512	0.071568	0.000085
C80	C	0.458488	0.571568	0.500085
O81	O	0.009675	0.168390	0.000003
O82	O	0.509675	0.668390	0.500003
O83	O	0.035892	-0.023737	0.000148
O84	O	0.535892	0.476263	0.500148
C85	C	0.677071	-0.030012	0.000096
C86	C	1.177071	0.469988	0.500096
C87	C	0.676305	-0.093229	0.000108
C88	C	1.176305	0.406771	0.500108
C89	C	0.723538	-0.492332	0.000034
C90	C	1.223538	0.007668	0.500034
C91	C	0.722827	-0.551733	0.000023
C92	C	1.222827	-0.051733	0.500023
O93	O	0.766613	-0.588477	-0.000024
O94	O	1.266613	-0.088477	0.499976
N95	N	0.670551	-0.574359	0.000016
N96	N	1.170551	-0.074359	0.500016
C97	C	0.618982	-0.537581	0.000006
C98	C	1.118982	-0.037581	0.500006
O99	O	0.574452	-0.562281	-0.000002
O100	O	1.074452	-0.062281	0.499998
C101	C	0.619695	-0.478182	0.000007
C102	C	1.119695	0.021818	0.500007
C103	C	0.671974	-0.455559	0.000028
C104	C	1.171974	0.044441	0.500028
C105	C	0.775814	-0.469709	0.000055
C106	C	1.275814	0.030291	0.500055
C107	C	0.776525	-0.410313	0.000069
C108	C	1.276525	0.089687	0.500069
C109	C	0.724961	-0.373540	0.000062
C110	C	1.224961	0.126460	0.500062
C111	C	0.672685	-0.396163	0.000042
C112	C	1.172685	0.103837	0.500042
C113	C	0.568127	-0.441406	-0.000014
C114	C	1.068127	0.058594	0.499986
C115	C	0.568843	-0.382003	-0.000015
C116	C	1.068843	0.117997	0.499985
C117	C	0.621123	-0.359381	0.000007
C118	C	1.121123	0.140619	0.500007
C119	C	0.621832	-0.299994	0.000050
C120	C	1.121832	0.200006	0.500050
N121	N	0.674109	-0.277368	0.000057
N122	N	1.174109	0.222632	0.500057
C123	C	0.725673	-0.314141	0.000063
C124	C	1.225673	0.185859	0.500063
C125	C	0.617491	-0.662324	0.000002
C126	C	1.117491	-0.162324	0.500002
C127	C	0.616778	-0.721722	0.000011
C128	C	1.116778	-0.221722	0.500011
C129	C	0.720623	-0.735869	0.000026
C130	C	1.220623	-0.235869	0.500026
C131	C	0.721335	-0.676470	0.000027
C132	C	1.221335	-0.176470	0.500027
C133	C	0.669767	-0.639698	0.000009
C134	C	1.169767	-0.139698	0.500009
C135	C	0.727163	-0.189404	0.000094
C136	C	1.227163	0.310596	0.500094
C137	C	0.727869	-0.130002	0.000114
C138	C	1.227869	0.369998	0.500114
C139	C	0.624025	-0.115860	0.000091
C140	C	1.124025	0.384140	0.500091
C141	C	0.623318	-0.175257	0.000079
C142	C	1.123318	0.324743	0.500079
C143	C	0.674891	-0.212028	0.000075
C144	C	1.174891	0.287972	0.500075
O145	O	0.578069	-0.263215	0.000091
O146	O	1.078069	0.236785	0.500091
O147	O	0.770196	-0.289433	0.000052
O148	O	1.270196	0.210567	0.500052
C149	C	0.776472	0.069389	0.000077
C150	C	1.276472	0.569389	0.500077
C151	C	0.839689	0.070155	0.000076
C152	C	1.339689	0.570155	0.500076
C153	C	0.667577	0.178283	0.000031
C154	C	1.167577	0.678283	0.500031
C155	C	0.668343	0.241500	0.000010
C156	C	1.168343	0.741500	0.500010
N157	N	0.672317	0.074131	0.346730
N158	N	1.172317	0.574131	0.846730
C159	C	0.603638	0.005390	0.346803
C160	C	1.103638	0.505390	0.846803
C161	C	0.569303	-0.028981	0.423506
C162	C	1.069303	0.471019	0.923506
C163	C	0.569311	-0.028981	0.576840
C164	C	1.069311	0.471019	1.076840
C165	C	0.603655	0.005395	0.653473
C166	C	1.103655	0.505395	1.153473
C167	C	0.637989	0.039766	0.576770
C168	C	1.137989	0.539766	1.076770
C169	C	0.637979	0.039761	0.423433
C170	C	1.137979	0.539761	0.923433
C171	C	0.706665	0.108509	0.576697
C172	C	1.206665	0.608509	1.076697
C173	C	0.706662	0.108507	0.423364
C174	C	1.206662	0.608507	0.923364
C175	C	0.741009	0.142885	0.653331
C176	C	1.241009	0.642885	1.153331
C177	C	0.775347	0.177254	0.576628
C178	C	1.275347	0.677254	1.076628
C179	C	0.775339	0.177252	0.423285
C180	C	1.275339	0.677252	0.923285
C181	C	0.740996	0.142878	0.346661
C182	C	1.240996	0.642878	0.846661
N183	N	0.672331	0.074138	0.653400
N184	N	1.172331	0.574138	1.153400
H185	H	0.206274	0.220904	0.000053
H186	H	0.706274	0.720904	0.500053
H187	H	-0.059864	0.165712	0.000047
H188	H	0.440136	0.665712	0.500047
Br189	Br	0.845804	-0.519605	0.000062
Br190	Br	1.345804	-0.019605	0.500062
Br191	Br	0.547499	-0.612423	-0.000011
Br192	Br	1.047499	-0.112423	0.499989
H193	H	0.246104	-0.071347	0.000132
H194	H	0.746104	0.428653	0.500132
Br195	Br	0.603634	0.005379	0.138706
Br196	Br	1.103634	0.505379	0.638706
Br197	Br	-0.014242	-0.050696	0.000136
Br198	Br	0.485758	0.449304	0.500136
H199	H	0.580747	-0.193677	0.000102
H200	H	1.080747	0.306323	0.500102
H201	H	0.819097	-0.391900	0.000080
H202	H	1.319097	0.108100	0.500080
H203	H	0.740987	0.142872	0.221808
H204	H	1.240987	0.642872	0.721808
Br205	Br	0.522710	-0.075623	0.680943
Br206	Br	1.022710	0.424377	1.180943
H207	H	-0.167631	0.164417	0.000038
H208	H	0.332369	0.664417	0.500038
H209	H	0.138359	-0.072637	0.000128
H210	H	0.638359	0.427363	0.500128
Br211	Br	0.603653	0.005406	0.861570
Br212	Br	1.103653	0.505406	1.361570
Br213	Br	0.741014	0.142892	0.861428
Br214	Br	1.241014	0.642892	1.361428
Br215	Br	0.790604	-0.785787	0.000028
Br216	Br	1.290604	-0.285787	0.500028
Br217	Br	0.798825	-0.099304	0.000145
Br218	Br	1.298825	0.400696	0.500145
Br219	Br	0.821945	0.223910	0.680635
Br220	Br	1.321945	0.723910	1.180635
H221	H	0.803295	0.205245	0.360842
H222	H	1.303295	0.705245	0.860842
H223	H	0.098525	0.219610	0.000085
H224	H	0.598525	0.719610	0.500085
Br225	Br	-0.154236	-0.052365	0.000094
Br226	Br	0.345764	0.447635	0.500094
H227	H	0.404515	-0.017447	0.000082
H228	H	0.904515	0.482553	0.500082
Br229	Br	0.532246	-0.044145	0.000075
Br230	Br	1.032246	0.455855	0.500075
H231	H	0.486595	0.172252	-0.000013
H232	H	0.986595	0.672252	0.499987
H233	H	0.769159	-0.219337	0.000085
H234	H	1.269159	0.280663	0.500085
Br235	Br	0.792288	-0.645774	0.000059
Br236	Br	1.292288	-0.145774	0.500059
Br237	Br	0.358883	0.198960	0.000018
Br238	Br	0.858883	0.698960	0.500018
Br239	Br	0.545825	-0.752416	0.000017
Br240	Br	1.045825	-0.252416	0.500017
H241	H	0.525555	-0.459814	-0.000041
H242	H	1.025555	0.040186	0.499959
Br243	Br	0.498854	-0.332101	-0.000046
Br244	Br	0.998854	0.167899	0.499954
H245	H	0.582043	-0.085909	0.000091
H246	H	1.082043	0.414091	0.500091
Br247	Br	0.522692	-0.075628	0.319499
Br248	Br	1.022692	0.424372	0.819499
