data_functionalizedCrystal
_audit_creation_method	'MofGen! by Chris Wilmer'
_symmetry_space_group_name_H-M	'P1'
_symmetry_Int_Tables_number	1
_symmetry_cell_setting	triclinic
loop_
_symmetry_equiv_pos_as_xyz
  x,y,z
_cell_length_a	19.188930
_cell_length_b	19.188924
_cell_length_c	9.730223
_cell_angle_alpha	89.996615
_cell_angle_beta	89.985926
_cell_angle_gamma	83.143372
loop_
_atom_site_label
_atom_site_type_symbol
_atom_site_fract_x
_atom_site_fract_y
_atom_site_fract_z
O1	O	0.926139	0.087165	-0.114738
O2	O	1.426139	0.587165	0.385262
O3	O	0.722827	0.098899	-0.114644
O4	O	1.222827	0.598899	0.385356
O5	O	0.830353	-0.008624	-0.114678
O6	O	1.330353	0.491376	0.385322
O7	O	0.818613	0.194688	-0.114705
O8	O	1.318613	0.694688	0.385295
O9	O	0.830351	-0.008621	0.113902
O10	O	1.330351	0.491379	0.613902
O11	O	0.722826	0.098902	0.113935
O12	O	1.222826	0.598902	0.613935
O13	O	0.926137	0.087168	0.113842
O14	O	1.426137	0.587168	0.613842
Zn15	Zn	0.824481	0.093035	0.150181
Zn16	Zn	1.324481	0.593035	0.650181
Zn17	Zn	0.824483	0.093032	-0.150983
Zn18	Zn	1.324483	0.593032	0.349017
O19	O	0.818612	0.194691	0.113875
O20	O	1.318612	0.694691	0.613875
C21	C	0.696815	0.098521	-0.000342
C22	C	1.196815	0.598521	0.499658
C23	C	0.619311	0.097380	-0.000306
C24	C	1.119311	0.597380	0.499694
C25	C	0.574385	0.160471	-0.000336
C26	C	1.074385	0.660471	0.499664
C27	C	0.501562	0.159399	-0.000351
C28	C	1.001562	0.659399	0.499649
C29	C	0.473667	0.095233	-0.000364
C30	C	0.973667	0.595233	0.499636
C31	C	0.518602	0.032134	-0.000326
C32	C	1.018602	0.532134	0.499674
C33	C	0.591424	0.033207	-0.000297
C34	C	1.091424	0.533207	0.499703
N35	N	0.365688	0.046185	-0.078208
N36	N	0.865688	0.546185	0.421792
N37	N	0.296510	0.045169	-0.078238
N38	N	0.796510	0.545169	0.421762
C39	C	0.254258	0.091995	-0.000447
C40	C	0.754258	0.591995	0.499553
N41	N	0.283797	0.139885	0.077358
N42	N	0.783797	0.639885	0.577358
N43	N	0.352982	0.140902	0.077382
N44	N	0.852982	0.640902	0.577382
C45	C	0.394704	0.094062	-0.000394
C46	C	0.894704	0.594062	0.499606
C47	C	0.130368	0.153928	-0.000492
C48	C	0.630368	0.653928	0.499508
C49	C	0.057543	0.152854	-0.000498
C50	C	0.557543	0.652854	0.499502
C51	C	0.074585	0.025586	-0.000487
C52	C	0.574585	0.525586	0.499513
C53	C	0.147409	0.026663	-0.000466
C54	C	0.647409	0.526663	0.499534
C55	C	0.175295	0.090835	-0.000475
C56	C	0.675295	0.590835	0.499525
C57	C	0.829973	-0.034634	-0.000386
C58	C	1.329973	0.465366	0.499614
C59	C	0.828834	-0.112138	-0.000382
C60	C	1.328834	0.387862	0.499618
C61	C	0.828303	-0.148539	-0.124981
C62	C	1.328303	0.351461	0.375019
C63	C	0.827223	-0.221362	-0.124991
C64	C	1.327223	0.278638	0.375009
C65	C	0.826688	-0.257783	-0.000395
C66	C	1.326688	0.242217	0.499605
C67	C	0.827215	-0.221373	0.124221
C68	C	1.327215	0.278627	0.624221
C69	C	0.828288	-0.148551	0.124227
C70	C	1.328288	0.351449	0.624227
N71	N	0.864735	-0.377445	0.092321
N72	N	1.364735	0.122555	0.592321
N73	N	0.863718	-0.446623	0.092307
N74	N	1.363718	0.053377	0.592307
C75	C	0.823454	-0.477192	-0.000407
C76	C	1.323454	0.022808	0.499593
N77	N	0.784255	-0.435970	-0.093126
N78	N	1.284255	0.064030	0.406874
N79	N	0.785276	-0.366786	-0.093115
N80	N	1.285276	0.133214	0.406885
C81	C	0.825524	-0.336746	-0.000388
C82	C	1.325524	0.163254	0.499612
C83	C	0.821751	-0.592555	-0.125025
C84	C	1.321751	-0.092555	0.374975
C85	C	0.820667	-0.665379	-0.125030
C86	C	1.320667	-0.165379	0.374970
C87	C	0.820666	-0.665390	0.124185
C88	C	1.320666	-0.165390	0.624185
C89	C	0.821743	-0.592567	0.124187
C90	C	1.321743	-0.092567	0.624187
C91	C	0.822289	-0.556154	-0.000422
C92	C	1.322289	-0.056154	0.499578
C93	C	0.952149	0.087546	-0.000463
C94	C	1.452149	0.587546	0.499537
C95	C	1.029654	0.088687	-0.000508
C96	C	1.529654	0.588687	0.499492
C97	C	0.818992	0.220700	-0.000419
C98	C	1.318992	0.720700	0.499581
C99	C	0.820131	0.298205	-0.000432
C100	C	1.320131	0.798205	0.499568
N101	N	0.824485	0.093037	0.355717
N102	N	1.324485	0.593037	0.855717
N103	N	0.824485	0.093024	-0.356520
N104	N	1.324485	0.593024	0.143480
C105	C	0.872110	0.045442	0.427628
C106	C	1.372110	0.545442	0.927628
C107	C	0.872108	0.045433	0.571511
C108	C	1.372108	0.545433	1.071511
C109	C	0.776855	0.140622	0.571559
C110	C	1.276855	0.640622	1.071559
C111	C	0.776854	0.140626	0.427679
C112	C	1.276854	0.640626	0.927679
C113	C	0.927105	-0.009512	0.427602
C114	C	1.427105	0.490488	0.927602
C115	C	0.927103	-0.009521	0.571485
C116	C	1.427103	0.490479	1.071485
H117	H	0.051874	-0.026659	-0.000582
H118	H	0.551874	0.473341	0.499418
N119	N	0.602884	0.226012	-0.000339
N120	N	1.102884	0.726012	0.499661
N121	N	0.641645	0.240806	-0.096672
N122	N	1.141645	0.740806	0.403328
H123	H	0.661776	0.287094	-0.096671
H124	H	1.161776	0.787094	0.403329
N125	N	0.906572	-0.072888	0.627511
N126	N	1.406572	0.427112	1.127511
N127	N	0.904001	-0.080808	0.754848
N128	N	1.404001	0.419192	1.254848
H129	H	0.889496	-0.125558	0.794422
H130	H	1.389496	0.374442	1.294422
N131	N	0.193303	-0.037785	-0.000425
N132	N	0.693303	0.462215	0.499575
N133	N	0.190853	-0.080508	0.095932
N134	N	0.690853	0.419492	0.595932
H135	H	0.223266	-0.126027	0.095967
H136	H	0.723266	0.373973	0.595967
H137	H	0.822181	-0.562930	0.225649
H138	H	1.322181	-0.062930	0.725649
N139	N	0.912939	-0.076661	0.378610
N140	N	1.412939	0.423339	0.878610
N141	N	0.956852	-0.112561	0.304737
N142	N	1.456852	0.387439	0.804737
H143	H	0.946845	-0.159984	0.270141
H144	H	1.446845	0.340016	0.770141
H145	H	0.820231	-0.695014	-0.226497
H146	H	1.320231	-0.195014	0.273503
N147	N	0.822310	-0.555366	-0.252315
N148	N	1.322310	-0.055366	0.247685
N149	N	0.821831	-0.587879	-0.363560
N150	N	1.321831	-0.087879	0.136440
H151	H	0.822227	-0.561617	-0.453461
H152	H	1.322227	-0.061617	0.046539
N153	N	0.158861	0.219475	-0.000454
N154	N	0.658861	0.719475	0.499546
N155	N	0.197574	0.234268	0.095916
N156	N	0.697574	0.734268	0.595916
H157	H	0.217696	0.280561	0.095947
H158	H	0.717696	0.780561	0.595947
N159	N	0.728214	0.189241	0.645067
N160	N	1.228214	0.689241	1.145067
N161	N	0.728966	0.253777	0.629004
N162	N	1.228966	0.753777	1.129004
H163	H	0.694613	0.288117	0.680916
H164	H	1.194613	0.788117	1.180916
H165	H	0.738069	0.179376	0.369130
H166	H	1.238069	0.679376	0.869130
N167	N	0.990443	0.011099	0.371595
N168	N	1.490443	0.511099	0.871595
N169	N	1.037878	0.026528	0.449971
N170	N	1.537878	0.526528	0.949971
H171	H	1.082607	0.041096	0.410417
H172	H	1.582607	0.541096	0.910417
N173	N	0.828859	-0.111356	-0.252274
N174	N	1.328859	0.388644	0.247726
N175	N	0.828383	-0.143871	-0.363517
N176	N	1.328383	0.356129	0.136483
H177	H	0.828774	-0.117610	-0.453420
H178	H	1.328774	0.382390	0.046580
H179	H	0.980622	0.001812	0.610509
H180	H	1.480622	0.501812	1.110509
H181	H	0.464976	0.210777	-0.000372
H182	H	0.964976	0.710777	0.499628
H183	H	0.495885	-0.020111	-0.000355
H184	H	0.995885	0.479889	0.499645
H185	H	0.820225	-0.695043	0.225634
H186	H	1.320225	-0.195043	0.725634
H187	H	0.826786	-0.251004	-0.226458
H188	H	1.326786	0.248996	0.273542
H189	H	0.628003	-0.018171	-0.000274
H190	H	1.128003	0.481829	0.499726
N191	N	0.011660	0.217310	-0.000512
N192	N	0.511660	0.717310	0.499488
N193	N	0.036572	0.274598	-0.000516
N194	N	0.536572	0.774598	0.499484
H195	H	0.004167	0.320122	-0.000525
H196	H	0.504167	0.820122	0.499475
N197	N	0.826654	-0.258572	0.251492
N198	N	1.326654	0.241428	0.751492
N199	N	0.776849	-0.292620	0.279306
N200	N	1.276849	0.207380	0.779306
H201	H	0.776449	-0.318891	0.369196
H202	H	1.276449	0.181109	0.869196
N203	N	0.828820	-0.111364	0.251508
N204	N	1.328820	0.388636	0.751508
N205	N	0.779491	-0.112909	0.334954
N206	N	1.279491	0.387091	0.834954
H207	H	0.779866	-0.086644	0.424848
H208	H	1.279866	0.413356	0.924848
