data_functionalizedCrystal
_audit_creation_method	'MofGen! by Chris Wilmer'
_symmetry_space_group_name_H-M	'P1'
_symmetry_Int_Tables_number	1
_symmetry_cell_setting	triclinic
loop_
_symmetry_equiv_pos_as_xyz
  x,y,z
_cell_length_a	21.606444
_cell_length_b	14.395555
_cell_length_c	21.606444
_cell_angle_alpha	89.999745
_cell_angle_beta	59.999490
_cell_angle_gamma	60.011856
loop_
_atom_site_label
_atom_site_type_symbol
_atom_site_fract_x
_atom_site_fract_y
_atom_site_fract_z
Zr1	Zr	0.677386	0.895109	-0.081207
O2	O	0.806483	0.746826	-0.180017
O3	O	0.548288	0.940532	-0.050924
O4	O	0.677393	0.940570	-0.180036
O5	O	0.677374	0.746796	0.050949
O6	O	0.677399	1.093436	-0.180043
O7	O	0.677379	0.746789	-0.050905
O8	O	0.446455	1.093368	0.050915
O9	O	0.908318	0.746864	-0.180009
O10	O	0.601394	1.074026	-0.038005
O11	O	0.601385	0.959950	0.038013
O12	O	0.753389	0.959995	-0.114000
O13	O	0.753381	0.845919	-0.037983
Zr14	Zr	0.677390	1.138924	0.081227
Zr15	Zr	0.677397	1.138912	-0.081218
Zr16	Zr	0.677379	0.895121	0.081238
Zr17	Zr	0.839802	0.895168	-0.081194
Zr18	Zr	0.514974	1.138864	0.081214
O19	O	0.806488	1.093501	0.050944
O20	O	0.806498	1.093483	-0.180033
O21	O	0.806473	0.746844	0.050959
O22	O	0.548293	1.287206	0.180037
O23	O	0.548303	1.287189	-0.050939
O24	O	0.548278	0.940550	0.180053
O25	O	0.677402	1.287236	-0.050929
O26	O	0.677384	1.093463	0.180056
O27	O	0.677377	0.940597	0.180063
O28	O	0.677397	1.287244	0.050925
O29	O	0.908327	0.940655	-0.180018
O30	O	0.446450	1.093378	0.180038
O31	O	0.446458	1.287169	0.180029
O32	O	0.446463	1.287159	0.050907
O33	O	0.908313	0.746874	-0.050887
O34	O	0.908321	0.940665	-0.050895
O35	O	0.601387	1.074038	0.114020
O36	O	0.601395	1.188114	0.038003
O37	O	0.753391	1.074082	-0.037993
O38	O	0.753383	0.960006	0.038025
C39	C	0.474231	1.016942	-0.000006
C40	C	0.405281	1.016916	-0.000012
C41	C	-0.074186	1.101301	0.056136
C42	C	-0.009377	1.101277	0.056128
C43	C	0.079111	1.017062	0.000019
C44	C	0.102791	0.932873	-0.056090
C45	C	0.037983	0.932903	-0.056085
C46	C	0.364153	0.932751	-0.056113
C47	C	0.428961	0.932726	-0.056113
C48	C	0.316793	1.101125	0.056099
C49	C	0.251985	1.101155	0.056105
C50	C	0.275671	1.016970	-0.000006
C51	C	0.205398	1.016999	0.000002
C52	C	0.149383	1.017028	0.000013
C53	C	0.677375	0.712056	0.000023
C54	C	0.677371	0.608555	0.000028
C55	C	0.594511	0.548219	0.041446
C56	C	0.635922	0.579102	-0.030010
C57	C	0.635938	0.579064	0.071471
C58	C	0.718817	0.454997	-0.071506
C59	C	0.718822	0.454961	0.030026
C60	C	0.760293	0.485771	-0.041472
C61	C	0.880545	1.017091	0.000026
C62	C	0.949495	1.017117	0.000032
C63	C	0.677397	1.017001	-0.203185
C64	C	0.677400	1.016996	-0.272147
C65	C	0.677401	1.321977	-0.000003
C66	C	0.677406	1.425478	-0.000008
C67	C	0.756739	0.957472	-0.344214
C68	C	0.756737	0.957481	-0.409009
C69	C	0.677394	1.017009	-0.401735
C70	C	0.598048	1.076541	-0.329660
C71	C	0.598052	1.076537	-0.264867
C72	C	0.598033	1.076559	-0.590963
C73	C	0.598036	1.076555	-0.655764
C74	C	0.756718	0.957503	-0.735106
C75	C	0.756722	0.957499	-0.670312
C76	C	0.677377	1.017035	-0.598243
C77	C	0.677380	1.017026	-0.527986
C78	C	0.677390	1.017013	-0.471991
C79	C	0.677379	1.017032	0.203205
C80	C	0.677376	1.017037	0.272167
C81	C	0.474244	1.321902	-0.000020
C82	C	0.405299	1.425378	-0.000030
C83	C	0.474222	1.016957	0.203188
C84	C	0.405270	1.016937	0.272145
C85	C	0.474235	1.321918	0.203175
C86	C	0.405287	1.425398	0.272127
C87	C	0.880541	0.712115	-0.203155
C88	C	0.949489	0.608634	-0.272107
C89	C	0.880532	0.712131	0.000040
C90	C	0.949477	0.608655	0.000050
C91	C	0.880554	1.017076	-0.203168
C92	C	0.949507	1.017096	-0.272125
C93	C	0.372921	1.414418	-0.039717
C94	C	0.308148	1.511635	-0.039741
C95	C	0.275751	1.619810	-0.000074
C96	C	0.308135	1.630768	0.039614
C97	C	0.372911	1.533552	0.039633
C98	C	0.372890	1.076480	0.344210
C99	C	0.308110	1.076457	0.409008
C100	C	0.275708	1.016896	0.401740
C101	C	0.308094	0.957346	0.329668
C102	C	0.372877	0.957363	0.264871
C103	C	0.372913	1.533551	0.264827
C104	C	0.308137	1.630791	0.329609
C105	C	0.275734	1.619877	0.401690
C106	C	0.308115	1.511713	0.408988
C107	C	0.372893	1.414475	0.344207
C108	C	0.981872	0.500482	-0.264807
C109	C	1.046667	0.403242	-0.329589
C110	C	1.079074	0.414156	-0.401670
C111	C	1.046689	0.522320	-0.408968
C112	C	0.981899	0.619558	-0.344187
C113	C	0.981862	0.619615	0.039730
C114	C	1.046653	0.522398	0.039737
C115	C	1.079052	0.414223	0.000067
C116	C	1.046665	0.403265	-0.039617
C117	C	0.981880	0.500481	-0.039628
C118	C	0.981889	1.076668	-0.264833
C119	C	1.046668	1.076709	-0.329619
C120	C	1.079069	1.017171	-0.401696
C121	C	1.046681	0.957597	-0.408987
C122	C	0.981898	0.957563	-0.344202
H123	H	0.174844	0.864309	-0.101778
C124	C	1.082301	0.892156	-0.488280
N125	N	1.109123	0.842879	-0.548005
H126	H	0.955488	0.707688	0.072038
C127	C	0.499855	0.582492	0.088702
N128	N	0.428562	0.608301	0.124290
H129	H	0.057270	0.864354	-0.101772
C130	C	1.082277	0.284272	-0.321544
N131	N	1.109097	0.194667	-0.315482
H132	H	0.281722	1.502843	0.467685
C133	C	0.408496	1.295509	0.352250
N134	N	0.435310	1.205905	0.358313
C135	C	0.766109	0.382947	-0.153188
N136	N	0.801725	0.328680	-0.214709
H137	H	1.073083	0.531193	-0.467664
H138	H	1.131820	1.017207	-0.454443
H139	H	0.533445	1.125007	-0.206186
C140	C	0.408478	0.891871	0.185601
N141	N	0.435289	0.842541	0.125896
C142	C	0.154648	1.193808	0.117821
N143	N	0.081333	1.263603	0.164303
H144	H	1.073032	1.125219	-0.323668
H145	H	0.955540	0.909048	-0.350150
H146	H	0.399265	1.542491	0.071955
H147	H	0.753825	0.401470	0.055435
H148	H	0.821343	0.909013	-0.467688
H149	H	0.821331	0.909021	-0.676242
C150	C	0.946255	1.142177	-0.185553
N151	N	0.919415	1.191528	-0.125841
H152	H	0.399265	1.124982	0.350142
H153	H	0.399286	1.542459	0.206141
H154	H	-0.146234	1.169874	0.101829
C155	C	0.946241	0.488448	-0.185524
N156	N	0.919413	0.479375	-0.125810
H157	H	0.281779	1.718854	0.323653
H158	H	0.281748	1.718857	0.071909
C159	C	0.588587	0.651311	0.153115
N160	N	0.552917	0.705728	0.214610
C161	C	1.150338	0.307179	-0.472924
N162	N	1.204010	0.226600	-0.526590
H163	H	0.533426	1.125037	-0.532290
H164	H	0.821350	0.908990	-0.350146
C165	C	0.204469	1.726853	0.472944
N166	N	0.150789	1.807432	0.526610
C167	C	0.946275	0.738524	-0.352230
N168	N	0.919445	0.828128	-0.358293
C169	C	1.082260	0.534476	0.083402
N170	N	1.109076	0.543577	0.116292
C171	C	0.844000	0.892023	-0.814389
N172	N	0.909740	0.842704	-0.874103
C173	C	1.150314	0.307293	0.000091
N174	N	1.203985	0.226757	0.000114
H175	H	0.955514	0.491542	-0.071938
C176	C	0.272529	1.499556	-0.083395
N177	N	0.245701	1.490456	-0.116273
C178	C	-0.035433	1.193886	0.117847
N179	N	-0.055062	1.263643	0.164336
H180	H	0.600888	0.632597	-0.055401
H181	H	0.297513	1.169675	0.101786
C182	C	0.526304	0.840086	-0.117844
N183	N	0.599620	0.770313	-0.164339
C184	C	0.510770	1.142019	-0.321660
N185	N	0.445030	1.191334	-0.315633
C186	C	1.082302	0.284261	-0.083238
N187	N	1.109139	0.194625	-0.116086
H188	H	0.533422	1.125034	-0.649833
H189	H	0.830419	0.460178	-0.076562
C190	C	0.390218	0.840122	-0.117821
N191	N	0.409850	0.770340	-0.164298
H192	H	0.399298	1.326345	-0.072027
C193	C	0.272437	0.891840	0.321686
N194	N	0.245574	0.842507	0.315676
H195	H	0.223006	1.698960	-0.000096
H196	H	0.281749	1.124954	0.467686
H197	H	0.222958	1.016891	0.454508
