data_functionalizedCrystal
_audit_creation_method	'MofGen! by Chris Wilmer'
_symmetry_space_group_name_H-M	'P1'
_symmetry_Int_Tables_number	1
_symmetry_cell_setting	triclinic
loop_
_symmetry_equiv_pos_as_xyz
  x,y,z
_cell_length_a	16.992697
_cell_length_b	16.974875
_cell_length_c	14.421503
_cell_angle_alpha	93.657657
_cell_angle_beta	89.998313
_cell_angle_gamma	87.024218
loop_
_atom_site_label
_atom_site_type_symbol
_atom_site_fract_x
_atom_site_fract_y
_atom_site_fract_z
O1	O	-1.040214	-0.167640	0.064404
O2	O	-0.540214	0.332360	0.564404
O3	O	-0.811930	-0.165800	0.064574
O4	O	-0.311930	0.334200	0.564574
O5	O	-0.932437	-0.052019	0.073085
O6	O	-0.432437	0.447981	0.573085
O7	O	-0.919707	-0.281421	0.055893
O8	O	-0.419707	0.218579	0.555893
O9	O	-0.932417	-0.052036	-0.081140
O10	O	-0.432417	0.447964	0.418860
O11	O	-0.811910	-0.165817	-0.089651
O12	O	-0.311910	0.334183	0.410349
O13	O	-1.040194	-0.167657	-0.089820
O14	O	-0.540194	0.332343	0.410180
Cu15	Cu	-0.926050	-0.166738	-0.103818
Cu16	Cu	-0.426050	0.333262	0.396182
Cu17	Cu	-0.926074	-0.166719	0.078571
Cu18	Cu	-0.426074	0.333281	0.578571
O19	O	-0.919687	-0.281438	-0.098331
O20	O	-0.419687	0.218562	0.401669
C21	C	-0.782710	-0.163443	-0.012357
C22	C	-0.282710	0.336557	0.487643
C23	C	-0.695674	-0.156383	-0.011816
C24	C	-0.195674	0.343617	0.488184
C25	C	-0.931943	-0.022539	-0.001815
C26	C	-0.431943	0.477461	0.498185
C27	C	-0.930492	0.065329	0.004776
C28	C	-0.430492	0.565329	0.504776
C29	C	-0.645360	-0.224498	-0.016921
C30	C	-0.145360	0.275502	0.483079
C31	C	-0.563580	-0.217860	-0.016434
C32	C	-0.063580	0.282140	0.483566
C33	C	-0.532117	-0.143106	-0.010837
C34	C	-0.032117	0.356894	0.489163
C35	C	-0.582438	-0.074986	-0.005735
C36	C	-0.082438	0.425014	0.494265
C37	C	-0.664216	-0.081624	-0.006228
C38	C	-0.164216	0.418376	0.493772
C39	C	-0.288549	-0.115591	-0.008796
C40	C	0.211451	0.384409	0.491204
C41	C	-0.206765	-0.108957	-0.008300
C42	C	0.293235	0.391043	0.491700
C43	C	-0.187913	-0.251832	-0.019002
C44	C	0.312087	0.248168	0.480998
C45	C	-0.269693	-0.258464	-0.019488
C46	C	0.230307	0.241536	0.480512
C47	C	-0.320007	-0.190344	-0.014391
C48	C	0.179993	0.309656	0.485609
N49	N	-0.448525	-0.136319	-0.010337
N50	N	0.051475	0.363681	0.489663
N51	N	-0.403597	-0.197132	-0.014898
N52	N	0.096403	0.302868	0.485102
C53	C	-0.069414	-0.170014	-0.012883
C54	C	0.430586	0.329986	0.487117
C55	C	-0.156450	-0.177072	-0.013405
C56	C	0.343550	0.322928	0.486595
C57	C	-0.929797	0.106608	-0.076191
C58	C	-0.429797	0.606608	0.423809
C59	C	-0.928438	0.189170	-0.069989
C60	C	-0.428438	0.689170	0.430011
C61	C	-0.927769	0.230451	0.017181
C62	C	-0.427769	0.730451	0.517181
C63	C	-0.928466	0.189167	0.098154
C64	C	-0.428466	0.689167	0.598154
C65	C	-0.929830	0.106607	0.091951
C66	C	-0.429830	0.606607	0.591951
C67	C	-0.923695	0.477369	0.044746
C68	C	-0.423695	0.977369	0.544746
C69	C	-0.922328	0.559935	0.050943
C70	C	-0.422328	1.059935	0.550943
C71	C	-0.922303	0.559932	-0.117201
C72	C	-0.422303	1.059932	0.382799
C73	C	-0.923662	0.477371	-0.123396
C74	C	-0.423662	0.977371	0.376604
C75	C	-0.924363	0.436094	-0.042423
C76	C	-0.424363	0.936094	0.457577
N77	N	-0.926378	0.314842	0.023522
N78	N	-0.426378	0.814842	0.523522
N79	N	-0.925760	0.351704	-0.048765
N80	N	-0.425760	0.851704	0.451235
C81	C	-0.920181	0.689082	-0.023432
C82	C	-0.420181	1.189082	0.476568
C83	C	-0.921634	0.601214	-0.030024
C84	C	-0.421634	1.101214	0.469976
N85	N	-0.926039	-0.166752	-0.232100
N86	N	-0.426039	0.333248	0.267900
C87	C	-0.870307	-0.219339	-0.485687
C88	C	-0.370307	0.280661	0.014313
C89	C	-0.941137	-0.239161	-0.548985
C90	C	-0.441137	0.260839	-0.048985
C91	C	-0.926058	-0.166735	-0.421260
C92	C	-0.426058	0.333265	0.078740
C93	C	-0.855247	-0.146932	-0.542057
C94	C	-0.355247	0.353068	-0.042057
C95	C	-0.926071	-0.166719	-0.603980
C96	C	-0.426071	0.333281	-0.103980
C97	C	-0.996924	-0.186595	-0.483200
C98	C	-0.496924	0.313405	0.016800
C99	C	-0.910987	-0.094331	-0.476264
C100	C	-0.410987	0.405669	0.023736
C101	C	-0.981868	-0.114127	-0.539532
C102	C	-0.481868	0.385873	-0.039532
C103	C	-0.926050	-0.166746	-0.316000
C104	C	-0.426050	0.333254	0.184000
C105	C	-0.926087	-0.166708	-0.709238
C106	C	-0.426087	0.333292	-0.209238
N107	N	-0.926091	-0.166699	0.206854
N108	N	-0.426091	0.333301	0.706854
H109	H	-0.670970	-0.285371	-0.021478
H110	H	-0.170970	0.214629	0.478522
N111	N	-0.924492	0.432883	0.132096
N112	N	-0.424492	0.932883	0.632096
H113	H	-0.973657	0.401996	0.133497
H114	H	-0.473657	0.901996	0.633497
H115	H	-0.923843	0.471635	0.188185
H116	H	-0.423843	0.971635	0.688185
H117	H	-0.930396	0.072999	0.157883
H118	H	-0.430396	0.572999	0.657883
H119	H	-0.924224	0.443766	-0.194378
H120	H	-0.424224	0.943766	0.305622
H121	H	-0.795358	-0.130190	-0.567964
H122	H	-0.295358	0.369810	-0.067964
N123	N	-0.172819	-0.028329	-0.002281
N124	N	0.327181	0.471671	0.497719
H125	H	-0.139310	-0.022381	0.055333
H126	H	0.360690	0.477619	0.555333
H127	H	-0.217139	0.013774	0.000829
H128	H	0.282861	0.513774	0.500829
H129	H	-0.927876	0.222776	-0.135921
H130	H	-0.427876	0.722776	0.364079
N131	N	-0.509348	-0.291353	-0.021960
N132	N	-0.009348	0.208647	0.478040
H133	H	-0.474985	-0.291809	0.035165
H134	H	0.025015	0.208191	0.535165
H135	H	-0.475061	-0.291762	-0.079210
H136	H	0.024939	0.208238	0.420790
H137	H	-0.146939	-0.307292	-0.023154
H138	H	0.353061	0.192708	0.476846
H139	H	-0.295304	-0.319337	-0.024036
H140	H	0.204696	0.180663	0.475964
N141	N	-1.076269	-0.208872	-0.449048
N142	N	-0.576269	0.291128	0.050952
H143	H	-1.087784	-0.263377	-0.476186
H144	H	-0.587784	0.236623	0.023814
H145	H	-1.118365	-0.169354	-0.469073
H146	H	-0.618365	0.330646	0.030927
N147	N	-0.807926	-0.278321	-0.454199
N148	N	-0.307926	0.221679	0.045801
H149	H	-0.808026	-0.277556	-0.384113
H150	H	-0.308026	0.222444	0.115887
H151	H	-0.754565	-0.263899	-0.476642
H152	H	-0.254565	0.236101	0.023358
H153	H	-0.898207	-0.033126	-0.444481
H154	H	-0.398207	0.466874	0.055519
H155	H	-1.029072	-0.069635	-0.563132
H156	H	-0.529072	0.430365	-0.063132
H157	H	-0.329505	-0.060122	-0.004646
H158	H	0.170495	0.439878	0.495354
H159	H	-0.556814	-0.014119	-0.001191
H160	H	-0.056814	0.485881	0.498809
H161	H	-0.705182	-0.026157	-0.002071
H162	H	-0.205182	0.473843	0.497929
H163	H	-0.930329	0.073002	-0.147174
H164	H	-0.430329	0.573002	0.352826
H165	H	-0.953895	-0.300385	-0.580748
H166	H	-0.453895	0.199615	-0.080748
H167	H	-0.921733	0.593549	-0.183124
H168	H	-0.421733	1.093549	0.316876
N169	N	-0.921562	0.604460	0.144965
N170	N	-0.421562	1.104460	0.644965
H171	H	-0.922200	0.565783	0.195321
H172	H	-0.422200	1.065783	0.695321
H173	H	-0.969560	0.642074	0.151474
H174	H	-0.469560	1.142074	0.651474
H175	H	-0.927926	0.222785	0.169129
H176	H	-0.427926	0.722785	0.669129
