data_functionalizedCrystal
_audit_creation_method	'MofGen! by Chris Wilmer'
_symmetry_space_group_name_H-M	'P1'
_symmetry_Int_Tables_number	1
_symmetry_cell_setting	triclinic
loop_
_symmetry_equiv_pos_as_xyz
  x,y,z
_cell_length_a	10.967926
_cell_length_b	11.792254
_cell_length_c	9.482944
_cell_angle_alpha	100.388683
_cell_angle_beta	88.407388
_cell_angle_gamma	84.460570
loop_
_atom_site_label
_atom_site_type_symbol
_atom_site_fract_x
_atom_site_fract_y
_atom_site_fract_z
O1	O	1.615628	0.121726	-0.283876
O2	O	1.265161	0.148552	-0.196068
O3	O	1.448890	-0.030294	-0.242111
O4	O	1.431899	0.300571	-0.237833
O5	O	1.415083	-0.061084	-0.475434
O6	O	1.231353	0.117762	-0.429392
O7	O	1.581821	0.090935	-0.517200
Cu8	Cu	1.403500	0.101537	-0.494600
Cu9	Cu	1.443481	0.137950	-0.218668
O10	O	1.398092	0.269781	-0.471157
C11	C	1.203389	0.133531	-0.301489
C12	C	1.069698	0.134634	-0.267993
C13	C	0.992580	0.119176	-0.373928
C14	C	0.854402	0.120315	-0.339312
C15	C	1.430916	-0.087947	-0.358504
C16	C	1.427712	-0.213861	-0.357700
C17	C	1.425109	-0.316117	-0.357043
C18	C	1.421856	-0.444401	-0.356214
C19	C	1.643593	0.105956	-0.411776
C20	C	1.777286	0.104855	-0.445262
C21	C	1.416066	0.327434	-0.354761
C22	C	1.419272	0.453350	-0.355555
N23	N	1.375389	0.075925	-0.688678
C24	C	1.411810	0.109083	-0.937415
C25	C	1.435190	0.130403	-0.775854
N26	N	1.471603	0.163553	-0.024592
H27	H	0.813553	0.090771	-0.561593
H28	H	1.033424	0.148709	-0.151671
H29	H	1.503697	0.192821	-0.730889
H30	H	1.343317	0.046660	-0.982389
H31	H	1.028855	0.105091	-0.490251
Cl32	Cl	1.577370	0.259917	-0.955172
H33	H	1.306886	0.013502	-0.733643
H34	H	0.818135	0.134391	-0.222981
