data_functionalizedCrystal
_audit_creation_method	'MofGen! by Chris Wilmer'
_symmetry_space_group_name_H-M	'P1'
_symmetry_Int_Tables_number	1
_symmetry_cell_setting	triclinic
loop_
_symmetry_equiv_pos_as_xyz
  x,y,z
_cell_length_a	8.559649
_cell_length_b	11.026607
_cell_length_c	7.088929
_cell_angle_alpha	82.408099
_cell_angle_beta	95.325015
_cell_angle_gamma	89.182341
loop_
_atom_site_label
_atom_site_type_symbol
_atom_site_fract_x
_atom_site_fract_y
_atom_site_fract_z
O1	O	2.096118	-0.026458	-0.158957
O2	O	1.648469	0.034577	-0.158966
O3	O	1.835194	-0.169136	-0.158955
O4	O	1.909394	0.177256	-0.158968
O5	O	1.860132	-0.196415	0.159021
O6	O	1.673407	0.007298	0.159011
O7	O	2.121056	-0.053737	0.159019
Cu8	Cu	1.899509	-0.025710	0.188049
Cu9	Cu	1.870017	0.006551	-0.187995
O10	O	1.934332	0.149977	0.159009
C11	C	1.602739	0.025563	0.000021
C12	C	1.429319	0.039332	0.000018
C13	C	1.833974	-0.226711	0.000030
C14	C	1.793166	-0.357621	0.000023
C15	C	1.905841	-0.441927	0.000022
C16	C	1.863667	-0.577231	0.000014
C17	C	2.166786	-0.044723	0.000028
C18	C	2.340205	-0.058490	0.000019
C19	C	1.935551	0.207551	0.000019
C20	C	1.976358	0.338463	0.000014
N21	N	1.920263	-0.048402	0.452538
N22	N	1.849272	0.029232	-0.452485
H23	H	1.372932	0.133621	0.000004
H24	H	1.993858	-0.128853	0.534198
N25	N	1.414868	-0.183383	0.000013
H26	H	1.532324	-0.175847	0.000016
H27	H	1.390282	-0.239038	0.117893
N28	N	2.074984	-0.404869	0.000048
H29	H	2.081137	-0.313467	0.000063
H30	H	2.137697	-0.448358	0.117938
N31	N	1.751809	0.135805	0.439377
H32	H	1.753268	0.134195	0.297427
H33	H	1.640194	0.129541	0.474286
H34	H	1.735971	-0.605215	-0.000001
H35	H	2.104043	-0.633542	-0.000127
H36	H	1.665478	-0.385611	0.000008
