data_functionalizedCrystal
_audit_creation_method	'MofGen! by Chris Wilmer'
_symmetry_space_group_name_H-M	'P1'
_symmetry_Int_Tables_number	1
_symmetry_cell_setting	triclinic
loop_
_symmetry_equiv_pos_as_xyz
  x,y,z
_cell_length_a	14.853567
_cell_length_b	23.532407
_cell_length_c	13.330367
_cell_angle_alpha	89.990692
_cell_angle_beta	89.995418
_cell_angle_gamma	83.241804
loop_
_atom_site_label
_atom_site_type_symbol
_atom_site_fract_x
_atom_site_fract_y
_atom_site_fract_z
O1	O	1.195556	0.074353	-0.083365
O2	O	0.932999	0.083210	-0.083383
O3	O	1.072195	-0.004116	-0.083355
O4	O	1.056360	0.161678	-0.083393
O5	O	1.072175	-0.004118	0.083492
O6	O	0.932979	0.083208	0.083464
O7	O	1.195536	0.074351	0.083482
Cu8	Cu	1.064255	0.078779	0.098707
Cu9	Cu	1.064279	0.078782	-0.098609
O10	O	1.056340	0.161677	0.083454
C11	C	0.899405	0.082808	0.000038
C12	C	0.799334	0.081605	0.000032
C13	C	0.387423	0.024648	0.000067
C14	C	0.365008	0.128393	0.000043
C15	C	0.459029	0.129524	0.000039
C16	C	0.517252	0.078216	0.000048
C17	C	0.481454	0.025777	0.000061
C18	C	0.494835	0.181961	0.000016
C19	C	0.588861	0.183094	0.000012
C20	C	0.647086	0.131786	0.000028
C21	C	0.611283	0.079345	0.000042
C22	C	0.669506	0.028037	0.000051
C23	C	0.633704	-0.024404	0.000072
C24	C	0.539679	-0.025531	0.000077
C25	C	0.741111	0.132913	0.000023
C26	C	0.763536	0.029166	0.000044
C27	C	1.071782	-0.025335	0.000071
C28	C	1.070569	-0.088557	0.000078
C29	C	1.145338	-0.487334	0.000029
C30	C	1.144212	-0.546739	0.000021
O31	O	1.213524	-0.583181	-0.000011
N32	N	1.061460	-0.569726	0.000016
C33	C	0.979829	-0.533305	0.000008
O34	O	0.909339	-0.558312	0.000002
C35	C	0.980957	-0.473901	0.000009
C36	C	1.063714	-0.450917	0.000024
C37	C	1.228089	-0.464349	0.000043
C38	C	1.229214	-0.404948	0.000052
C39	C	1.147590	-0.368531	0.000048
C40	C	1.064839	-0.391516	0.000034
C41	C	0.899327	-0.437481	-0.000006
C42	C	0.900461	-0.378073	-0.000006
C43	C	0.983218	-0.355089	0.000009
C44	C	0.984341	-0.295698	0.000039
N45	N	1.067092	-0.272711	0.000044
C46	C	1.148717	-0.309128	0.000048
C47	C	0.977469	-0.658058	0.000005
C48	C	0.976340	-0.717461	0.000012
C49	C	1.140723	-0.730890	0.000023
C50	C	1.141851	-0.671486	0.000023
C51	C	1.060220	-0.635070	0.000011
C52	C	1.151075	-0.184380	0.000069
C53	C	1.152194	-0.124974	0.000083
C54	C	0.987811	-0.111549	0.000067
C55	C	0.986692	-0.170951	0.000058
C56	C	1.068331	-0.207365	0.000056
O57	O	0.915065	-0.259221	0.000067
O58	O	1.219196	-0.284112	0.000041
C59	C	1.229130	0.074753	0.000058
C60	C	1.329200	0.075956	0.000058
C61	C	1.056753	0.182895	0.000026
C62	C	1.057966	0.246118	0.000011
N63	N	1.064245	0.078777	0.237489
N64	N	1.064296	0.078779	-0.237390
C65	C	1.002641	0.117434	0.710099
C66	C	1.125942	0.040124	0.710092
C67	C	1.125932	0.040123	0.605074
C68	C	1.064276	0.078778	0.552563
C69	C	1.002631	0.117435	0.605071
C70	C	1.187582	0.001470	0.552558
C71	C	1.187575	0.001467	0.447533
C72	C	1.125914	0.040120	0.395021
C73	C	1.064266	0.078778	0.447535
C74	C	1.002610	0.117434	0.395025
C75	C	0.940957	0.156089	0.447537
C76	C	0.940970	0.156088	0.552559
C77	C	1.125901	0.040122	0.289999
C78	C	1.002600	0.117434	0.289997
H79	H	0.681121	-0.066179	0.000072
O80	O	0.898084	-0.622766	0.000052
C81	C	0.734922	-0.615728	-0.000013
C82	C	0.824755	-0.655756	-0.000040
H83	H	0.675612	-0.642384	-0.000108
H84	H	0.731265	-0.587598	0.069830
H85	H	0.731388	-0.587561	-0.069820
H86	H	0.828349	-0.683958	0.069720
H87	H	0.828374	-0.683846	-0.069929
H88	H	0.510520	-0.068226	0.000118
H89	H	0.833986	-0.348425	-0.000018
O90	O	1.307326	-0.499778	0.000182
C91	C	1.401486	-0.574614	0.086669
C92	C	1.311701	-0.534538	0.086615
H93	H	1.405060	-0.602719	0.156554
H94	H	1.405102	-0.602796	0.016893
H95	H	1.460799	-0.547961	0.086629
H96	H	1.252336	-0.561146	0.086691
H97	H	1.308163	-0.506353	0.156385
O98	O	1.232667	-0.102743	0.000049
C99	C	1.395593	-0.122344	0.000117
C100	C	1.304525	-0.147593	0.000135
H101	H	1.453714	-0.158593	0.000208
H102	H	1.400302	-0.094880	-0.069720
H103	H	1.400176	-0.094858	0.069930
H104	H	1.299880	-0.175105	-0.069631
H105	H	1.299855	-0.175024	0.070018
H106	H	0.358269	-0.018049	0.000088
O107	O	0.308490	0.178245	-0.000148
C108	C	0.260594	0.266586	-0.086576
C109	C	0.324643	0.210142	-0.086498
H110	H	0.273644	0.292397	-0.156372
H111	H	0.187225	0.256803	-0.086638
H112	H	0.273540	0.292364	-0.016725
H113	H	0.311778	0.184337	-0.156337
H114	H	0.397990	0.219965	-0.086384
O115	O	0.438314	0.231812	-0.000175
C116	C	0.390402	0.320149	-0.086611
C117	C	0.454456	0.263707	-0.086532
H118	H	0.403443	0.345957	-0.156412
H119	H	0.317034	0.310363	-0.086663
H120	H	0.403351	0.345930	-0.016765
H121	H	0.441588	0.237898	-0.156366
H122	H	0.527802	0.273533	-0.086427
H123	H	0.618003	0.225795	-0.000005
H124	H	1.237785	-0.029999	0.595316
H125	H	1.217554	-0.214023	0.000064
O126	O	0.881033	0.193694	0.396679
C127	C	0.758695	0.270352	0.407744
C128	C	0.826519	0.227806	0.465469
H129	H	0.714590	0.297934	0.463335
H130	H	0.797312	0.298887	0.358592
H131	H	0.713927	0.245699	0.358557
H132	H	0.871305	0.252412	0.514711
H133	H	0.787845	0.199271	0.514558
H134	H	0.908951	-0.736168	0.000017
H135	H	1.296604	-0.386241	0.000061
H136	H	0.919305	-0.189665	0.000074
O137	O	1.247491	-0.036139	0.396683
C138	C	1.369824	-0.112800	0.407769
C139	C	1.302008	-0.070249	0.465483
H140	H	1.413931	-0.140381	0.463368
H141	H	1.331200	-0.141336	0.358650
H142	H	1.414591	-0.088151	0.358551
H143	H	1.257224	-0.094851	0.514756
H144	H	1.340689	-0.041714	0.514539
O145	O	1.185818	0.002523	0.239145
C146	C	1.308165	-0.074130	0.250227
C147	C	1.240340	-0.031586	0.307943
H148	H	1.352276	-0.101710	0.305824
H149	H	1.269547	-0.102668	0.201105
H150	H	1.352926	-0.049476	0.201011
H151	H	1.195562	-0.056193	0.357213
H152	H	1.279014	-0.003048	0.357001
O153	O	0.818856	-0.459703	-0.000070
C154	C	0.655933	-0.440087	-0.000044
C155	C	0.747007	-0.414847	0.000007
H156	H	0.597819	-0.403833	0.000039
H157	H	0.651240	-0.467532	-0.069890
H158	H	0.651319	-0.467589	0.069760
H159	H	0.751682	-0.387318	-0.069750
H160	H	0.751661	-0.387434	0.069900
O161	O	0.942672	0.155040	0.239147
C162	C	0.820334	0.231696	0.250238
C163	C	0.888166	0.189148	0.307949
H164	H	0.776235	0.259276	0.305839
H165	H	0.858945	0.260234	0.201085
H166	H	0.775560	0.207045	0.201054
H167	H	0.932956	0.213752	0.357187
H168	H	0.849498	0.160610	0.357039
H169	H	1.209239	-0.652777	0.000035
O170	O	0.881178	0.193617	0.603724
C171	C	0.826527	0.227859	0.765523
C172	C	0.894299	0.185335	0.707699
H173	H	0.837099	0.221169	0.849596
H174	H	0.837861	0.273499	0.744930
H175	H	0.754394	0.220362	0.744838
H176	H	0.966458	0.192779	0.728353
H177	H	0.882885	0.139709	0.728297
O178	O	0.775784	0.183882	-0.000132
C179	C	0.785445	0.272882	-0.086635
C180	C	0.746102	0.215181	-0.086574
H181	H	0.761478	0.298198	-0.156526
H182	H	0.761400	0.298281	-0.016866
H183	H	0.862646	0.264861	-0.086585
H184	H	0.668900	0.223149	-0.086659
H185	H	0.770218	0.189800	-0.156337
H186	H	1.207187	-0.760552	0.000023
H187	H	0.921355	-0.081888	0.000067
O188	O	1.185786	0.002497	0.760992
C189	C	1.239442	-0.096471	0.793208
C190	C	1.171637	-0.053916	0.735476
H191	H	1.228014	-0.142091	0.772617
H192	H	1.311603	-0.089023	0.772531
H193	H	1.228866	-0.089799	0.877284
H194	H	1.182130	-0.060563	0.651388
H195	H	1.099501	-0.061375	0.756237
H196	H	0.952441	0.148906	0.752857
H197	H	0.810936	-0.012615	0.000056
