data_functionalizedCrystal
_audit_creation_method	'MofGen! by Chris Wilmer'
_symmetry_space_group_name_H-M	'P1'
_symmetry_Int_Tables_number	1
_symmetry_cell_setting	triclinic
loop_
_symmetry_equiv_pos_as_xyz
  x,y,z
_cell_length_a	17.699077
_cell_length_b	17.699083
_cell_length_c	16.776229
_cell_angle_alpha	89.999799
_cell_angle_beta	89.993415
_cell_angle_gamma	83.281795
loop_
_atom_site_label
_atom_site_type_symbol
_atom_site_fract_x
_atom_site_fract_y
_atom_site_fract_z
O1	O	1.004081	0.095691	-0.066266
O2	O	0.783702	0.108149	-0.066269
O3	O	0.900118	-0.008269	-0.066275
O4	O	0.887666	0.212109	-0.066260
O5	O	0.900103	-0.008276	0.066301
O6	O	0.783687	0.108142	0.066308
O7	O	1.004066	0.095684	0.066310
Zn8	Zn	0.893874	0.101912	0.087358
Zn9	Zn	0.893894	0.101921	-0.087317
O10	O	0.887650	0.212102	0.066317
C11	C	0.755498	0.107700	0.000019
C12	C	0.671479	0.106363	0.000018
C13	C	0.899664	-0.036470	0.000009
C14	C	0.898326	-0.120488	-0.000002
C15	C	0.632003	0.105729	0.072286
C16	C	0.553061	0.104461	0.072287
C17	C	0.513595	0.103832	0.000018
C18	C	0.553076	0.104463	-0.072256
C19	C	0.632018	0.105726	-0.072256
C20	C	0.234713	0.099370	-0.072258
C21	C	0.155766	0.098110	-0.072252
C22	C	0.155756	0.098105	0.072285
C23	C	0.234698	0.099367	0.072285
C24	C	0.274173	0.099995	0.000011
C25	C	0.359771	0.101369	0.000011
C26	C	0.427997	0.102464	0.000017
C27	C	1.032271	0.096133	0.000021
C28	C	1.116289	0.097470	0.000017
N29	N	0.893866	0.101905	0.206570
C30	C	0.888104	0.240303	0.000030
C31	C	0.889443	0.324321	0.000036
C32	C	0.821109	0.372943	0.000036
C33	C	0.822371	0.451887	0.000026
C34	C	0.891968	0.482206	0.000023
C35	C	0.960307	0.433577	0.000022
C36	C	0.959044	0.354636	0.000025
C37	C	0.965402	0.751940	0.000006
C38	C	0.966660	0.830888	0.000005
C39	C	0.828730	0.849191	0.000007
C40	C	0.827467	0.770250	0.000010
C41	C	0.895805	0.721628	0.000005
C42	C	0.894436	0.636029	0.000013
C43	C	0.893338	0.567804	0.000020
N44	N	0.893909	0.101922	-0.206528
C45	C	0.945430	0.050376	0.248284
C46	C	0.945434	0.050376	0.331736
C47	C	0.893877	0.101908	0.373473
C48	C	0.842307	0.153439	0.331753
C49	C	0.842300	0.153435	0.248302
C50	C	0.842334	0.153454	0.668300
C51	C	0.842347	0.153455	0.751756
C52	C	0.945469	0.050394	0.751734
C53	C	0.945462	0.050390	0.668283
C54	C	0.893889	0.101919	0.626570
C55	C	0.893885	0.101918	0.536082
C56	C	0.893885	0.101913	0.463959
H57	H	0.664130	0.106247	0.131135
H58	H	0.520925	0.103932	0.131135
H59	H	0.800344	0.195411	0.634344
H60	H	0.987460	0.008434	0.785705
H61	H	0.770794	0.745568	0.000017
O62	O	1.041728	0.863594	-0.000014
H63	H	1.089036	0.816523	-0.000028
O64	O	1.039112	0.699512	0.000009
H65	H	1.041853	0.663111	-0.054030
O66	O	1.001023	-0.005219	0.203266
H67	H	1.037751	0.026580	0.165232
H68	H	0.266826	0.099883	0.131133
O69	O	0.786702	0.209029	0.376762
H70	H	0.749984	0.177223	0.414802
O71	O	1.035375	0.466273	0.000018
H72	H	1.024775	0.529335	0.000024
H73	H	0.123635	0.097597	-0.131105
H74	H	0.266845	0.099879	-0.131107
H75	H	1.014688	0.315047	0.000023
O76	O	0.113135	0.097776	0.150241
H77	H	0.051595	0.096914	0.138104
O78	O	0.786748	0.209050	0.796777
H79	H	0.750885	0.244881	0.753753
H80	H	0.800310	0.195394	0.214339
H81	H	0.987422	0.008417	0.365699
H82	H	0.987447	0.008431	0.634304
O83	O	0.748665	0.504325	0.000040
H84	H	0.715348	0.493555	-0.053986
H85	H	0.520938	0.103946	-0.131098
H86	H	0.664158	0.106244	-0.131104
H87	H	0.764435	0.348264	0.000047
H88	H	0.773085	0.888789	0.000009
