data_functionalizedCrystal
_audit_creation_method	'MofGen! by Chris Wilmer'
_symmetry_space_group_name_H-M	'P1'
_symmetry_Int_Tables_number	1
_symmetry_cell_setting	triclinic
loop_
_symmetry_equiv_pos_as_xyz
  x,y,z
_cell_length_a	13.897449
_cell_length_b	13.897448
_cell_length_c	12.759387
_cell_angle_alpha	89.967288
_cell_angle_beta	89.975598
_cell_angle_gamma	90.018519
loop_
_atom_site_label
_atom_site_type_symbol
_atom_site_fract_x
_atom_site_fract_y
_atom_site_fract_z
Zn1	Zn	1.474712	-0.383943	-0.594100
Zn2	Zn	1.474603	-0.545270	-0.418415
Zn3	Zn	1.313399	-0.383993	-0.418425
Zn4	Zn	1.313383	-0.545200	-0.594042
O5	O	1.394024	-0.464602	-0.506246
O6	O	1.609679	-0.405352	-0.570815
O7	O	1.453180	-0.523927	-0.271395
O8	O	1.334849	-0.249005	-0.441758
O9	O	1.609599	-0.523878	-0.441740
O10	O	1.453366	-0.248968	-0.570825
O11	O	1.334744	-0.405438	-0.271403
O12	O	1.178415	-0.405369	-0.441701
O13	O	1.334823	-0.523758	-0.741071
O14	O	1.178404	-0.523807	-0.570726
O15	O	1.453351	-0.405283	-0.741114
O16	O	1.453165	-0.680243	-0.441683
O17	O	1.334717	-0.680191	-0.570716
C18	C	1.143410	-0.464587	-0.506209
C19	C	1.036196	-0.464604	-0.506218
C20	C	0.949126	-0.464607	-0.506236
C21	C	0.839894	-0.464614	-0.506268
C22	C	1.393954	-0.715216	-0.506215
C23	C	1.394012	-0.822430	-0.506237
C24	C	1.394113	-1.018725	-0.506303
C25	C	1.394054	-0.909492	-0.506270
C26	C	1.645617	-0.464617	-0.506283
C27	C	1.752831	-0.464624	-0.506299
C28	C	1.394097	-0.464507	-0.780279
C29	C	1.394128	-0.464467	-0.897056
C30	C	1.394121	-0.213009	-0.506299
C31	C	1.394163	-0.105795	-0.506322
C32	C	1.517560	-0.341107	-0.897120
C33	C	1.579289	-0.279413	-0.952013
C34	C	1.579312	-0.279377	-1.061735
C35	C	1.517598	-0.341041	-1.116566
C36	C	1.455869	-0.402736	-1.061673
C37	C	1.455854	-0.402766	-0.951949
C38	C	1.332434	-0.526089	-1.061609
C39	C	1.332414	-0.526130	-0.951887
C40	C	1.270720	-0.587753	-1.116440
C41	C	1.208994	-0.649453	-1.061547
C42	C	1.208974	-0.649487	-0.951819
C43	C	1.270685	-0.587825	-0.896994
C44	C	1.394007	-0.464626	-0.233278
C45	C	1.394163	-0.464395	-0.116502
H46	H	1.517556	-0.341138	-0.807779
H47	H	1.629571	-0.229135	-1.106429
H48	H	1.270739	-0.587716	-1.205781
H49	H	1.158696	-0.699716	-0.907131
H50	H	1.270678	-0.587850	-0.807653
C51	C	1.647166	-0.211581	-0.891703
H52	H	1.683925	-0.174827	-0.940111
H53	H	1.689170	-0.248493	-0.848897
H54	H	1.610270	-0.169557	-0.848908
H55	H	1.517614	-0.340999	-1.205907
C56	C	1.141119	-0.717275	-1.121861
H57	H	1.149975	-0.708419	-1.195068
H58	H	1.076312	-0.703161	-1.103865
H59	H	1.155213	-0.782097	-1.103872
