data_functionalizedCrystal
_audit_creation_method	'MofGen! by Chris Wilmer'
_symmetry_space_group_name_H-M	'P1'
_symmetry_Int_Tables_number	1
_symmetry_cell_setting	triclinic
loop_
_symmetry_equiv_pos_as_xyz
  x,y,z
_cell_length_a	19.121275
_cell_length_b	19.121063
_cell_length_c	16.959447
_cell_angle_alpha	92.406624
_cell_angle_beta	92.425677
_cell_angle_gamma	89.926756
loop_
_atom_site_label
_atom_site_type_symbol
_atom_site_fract_x
_atom_site_fract_y
_atom_site_fract_z
Zn1	Zn	1.059787	-0.324795	-0.411579
Zn2	Zn	1.559787	0.175205	0.088421
Zn3	Zn	1.054701	-0.442039	-0.285264
Zn4	Zn	1.554701	0.057961	0.214736
Zn5	Zn	0.942561	-0.319824	-0.284808
Zn6	Zn	1.442561	0.180176	0.215192
Zn7	Zn	0.937516	-0.436995	-0.422788
Zn8	Zn	1.437516	0.063005	0.077212
O9	O	0.998641	-0.380913	-0.351110
O10	O	1.498641	0.119087	0.148890
O11	O	1.157214	-0.344539	-0.390322
O12	O	1.657214	0.155461	0.109678
O13	O	1.039808	-0.425857	-0.174594
O14	O	1.539808	0.074143	0.325406
O15	O	0.962352	-0.222380	-0.296742
O16	O	1.462352	0.277620	0.203258
O17	O	1.153477	-0.430677	-0.297519
O18	O	1.653477	0.069323	0.202481
O19	O	1.048477	-0.226032	-0.389880
O20	O	1.548477	0.273968	0.110120
O21	O	0.957420	-0.336067	-0.174260
O22	O	1.457420	0.163933	0.325740
O23	O	0.843790	-0.331176	-0.307612
O24	O	1.343790	0.168824	0.192388
O25	O	0.953752	-0.422081	-0.531910
O26	O	1.453752	0.077919	-0.031910
O27	O	0.840083	-0.417261	-0.408985
O28	O	1.340083	0.082739	0.091015
O29	O	1.043584	-0.339648	-0.523674
O30	O	1.543584	0.160352	-0.023674
O31	O	1.034916	-0.539473	-0.308388
O32	O	1.534916	-0.039473	0.191612
O33	O	0.948820	-0.535768	-0.409427
O34	O	1.448820	-0.035768	0.090573
C35	C	0.816500	-0.373132	-0.359466
C36	C	1.316500	0.126868	0.140534
C37	C	0.738578	-0.369820	-0.363060
C38	C	1.238578	0.130180	0.136940
C39	C	0.700025	-0.413039	-0.316353
C40	C	1.200025	0.086961	0.183647
C41	C	0.626810	-0.409928	-0.319740
C42	C	1.126810	0.090072	0.180260
C43	C	0.592149	-0.363593	-0.369832
C44	C	1.092149	0.136407	0.130168
C45	C	0.630707	-0.320372	-0.416545
C46	C	1.130707	0.179628	0.083455
C47	C	0.703921	-0.323488	-0.413161
C48	C	1.203921	0.176512	0.086839
C49	C	0.371187	-0.351949	-0.382475
C50	C	0.871187	0.148051	0.117525
C51	C	0.297967	-0.348835	-0.385854
C52	C	0.797967	0.151165	0.114146
C53	C	0.294075	-0.438392	-0.289050
C54	C	0.794075	0.061608	0.210950
C55	C	0.367291	-0.441500	-0.285667
C56	C	0.867291	0.058500	0.214333
C57	C	0.405843	-0.398282	-0.332383
C58	C	0.905843	0.101718	0.167617
C59	C	0.517311	-0.360410	-0.373295
C60	C	1.017311	0.139590	0.126705
C61	C	0.480679	-0.401470	-0.328924
C62	C	0.980679	0.098530	0.171076
C63	C	0.990788	-0.563059	-0.360190
C64	C	1.490788	-0.063059	0.139810
C65	C	0.987492	-0.640984	-0.364098
C66	C	1.487492	-0.140984	0.135902
C67	C	1.030804	-0.679501	-0.313369
C68	C	1.530804	-0.179501	0.186631
C69	C	1.027708	-0.752720	-0.317049
C70	C	1.527708	-0.252720	0.182951
C71	C	0.981297	-0.787421	-0.371455
C72	C	1.481297	-0.287421	0.128545
C73	C	0.937984	-0.748899	-0.422190
C74	C	1.437984	-0.248899	0.077810
C75	C	0.941083	-0.675681	-0.418513
C76	C	1.441083	-0.175681	0.081487
C77	C	0.969698	-1.008395	-0.385190
C78	C	1.469698	-0.508395	0.114810
C79	C	0.966600	-1.081618	-0.388861
C80	C	1.466600	-0.581618	0.111139
C81	C	1.056327	-1.085435	-0.283721
C82	C	1.556327	-0.585435	0.216279
C83	C	1.059419	-1.012215	-0.280046
C84	C	1.559419	-0.512215	0.219954
C85	C	1.016108	-0.973700	-0.330784
C86	C	1.516108	-0.473700	0.169216
C87	C	0.978131	-0.862262	-0.375216
C88	C	1.478131	-0.362262	0.124784
C89	C	1.019278	-0.898860	-0.327026
C90	C	1.519278	-0.398860	0.172974
C91	C	1.181493	-0.388725	-0.342721
C92	C	1.681493	0.111275	0.157279
C93	C	1.259414	-0.392054	-0.339146
C94	C	1.759414	0.107946	0.160854
C95	C	0.998673	-0.380856	-0.557274
C96	C	1.498673	0.119144	-0.057274
C97	C	0.998686	-0.380832	-0.645128
C98	C	1.498686	0.119168	-0.145128
C99	C	1.006544	-0.198057	-0.342010
C100	C	1.506544	0.301943	0.157990
C101	C	1.009912	-0.120135	-0.338132
C102	C	1.509912	0.379865	0.161868
C103	C	0.952002	-0.423681	-1.020887
C104	C	1.452002	0.076319	-0.520887
C105	C	1.045545	-0.337843	-1.012306
C106	C	1.545545	0.162157	-0.512306
C107	C	1.045525	-0.337857	-0.929762
C108	C	1.545525	0.162143	-0.429762
C109	C	0.998744	-0.380784	-0.892776
C110	C	1.498744	0.119216	-0.392776
C111	C	0.951982	-0.423698	-0.938335
C112	C	1.451982	0.076302	-0.438335
C113	C	1.092291	-0.294949	-0.884197
C114	C	1.592291	0.205051	-0.384197
C115	C	1.092274	-0.294962	-0.801648
C116	C	1.592274	0.205038	-0.301648
C117	C	1.045489	-0.337887	-0.764661
C118	C	1.545489	0.162113	-0.264661
C119	C	0.998725	-0.380801	-0.810225
C120	C	1.498725	0.119199	-0.310225
C121	C	0.951944	-0.423729	-0.773239
C122	C	1.451944	0.076271	-0.273239
C123	C	0.905175	-0.466640	-0.818802
C124	C	1.405175	0.033360	-0.318802
C125	C	0.905197	-0.466622	-0.901348
C126	C	1.405197	0.033378	-0.401348
C127	C	1.045467	-0.337905	-0.682114
C128	C	1.545467	0.162095	-0.182114
C129	C	0.951924	-0.423746	-0.690687
C130	C	1.451924	0.076254	-0.190687
C131	C	0.998652	-0.380921	-0.145743
C132	C	1.498652	0.119079	0.354257
C133	C	0.998783	-0.380753	-0.057873
C134	C	1.498783	0.119247	0.442127
H135	H	0.489082	-0.322683	-0.414079
H136	H	0.989082	0.177317	0.085921
N137	N	0.857426	-0.510457	-0.947878
N138	N	1.357426	-0.010457	-0.447878
N139	N	0.859263	-0.575347	-0.941659
N140	N	1.359263	-0.075347	-0.441659
H141	H	0.825520	-0.606303	-0.974520
H142	H	1.325520	-0.106303	-0.474520
N143	N	0.904231	-0.467503	-1.067434
N144	N	1.404231	0.032497	-0.567434
N145	N	0.904247	-0.467481	-1.141136
N146	N	1.404247	0.032519	-0.641136
H147	H	0.870509	-0.498430	-1.174012
H148	H	1.370509	0.001570	-0.674012
H149	H	0.867089	-0.501595	-0.788677
H150	H	1.367089	-0.001595	-0.288677
N151	N	0.925454	-0.969053	-0.437004
N152	N	1.425454	-0.469053	0.062996
N153	N	0.882525	-0.926342	-0.409161
N154	N	1.382525	-0.426342	0.090839
H155	H	0.851278	-0.898551	-0.445757
H156	H	1.351278	-0.398551	0.054243
H157	H	1.068594	-0.651252	-0.269063
H158	H	1.568594	-0.151252	0.230937
H159	H	0.269749	-0.311098	-0.426643
H160	H	0.769749	0.188902	0.073357
H161	H	0.900198	-0.777158	-0.466492
H162	H	1.400198	-0.277158	0.033508
H163	H	0.913823	-0.458697	-0.660580
H164	H	1.413823	0.041303	-0.160580
N165	N	0.254696	-0.482529	-0.241327
N166	N	0.754696	0.017471	0.258673
N167	N	0.214888	-0.456069	-0.191657
N168	N	0.714888	0.043931	0.308343
H169	H	0.187076	-0.487244	-0.157951
H170	H	0.687076	0.012756	0.342049
H171	H	1.083636	-0.302897	-1.042425
H172	H	1.583636	0.197103	-0.542425
H173	H	0.402567	-0.316758	-0.420516
H174	H	0.902567	0.183242	0.079484
N175	N	0.930708	-0.897698	-0.430781
N176	N	1.430708	-0.397698	0.069219
N177	N	0.892030	-0.863304	-0.476067
N178	N	1.392030	-0.363304	0.023933
H179	H	0.858536	-0.888332	-0.515310
H180	H	1.358536	-0.388332	-0.015310
N181	N	0.743305	-0.279328	-0.460857
N182	N	1.243305	0.220672	0.039143
N183	N	0.786072	-0.236363	-0.429011
N184	N	1.286072	0.263637	0.070989
H185	H	0.813887	-0.205174	-0.462698
H186	H	1.313887	0.294826	0.037302
H187	H	1.130382	-0.260005	-0.914317
H188	H	1.630382	0.239995	-0.414317
H189	H	0.508903	-0.439198	-0.288143
H190	H	1.008903	0.060802	0.211857
H191	H	1.130356	-0.260021	-0.764557
H192	H	1.630356	0.239979	-0.264557
N193	N	0.595293	-0.273052	-0.467716
N194	N	1.095293	0.226948	0.032284
N195	N	0.529924	-0.270275	-0.470732
N196	N	1.029924	0.229725	0.029268
H197	H	0.504912	-0.236853	-0.506871
H198	H	1.004912	0.263147	-0.006871
N199	N	0.896850	-0.636323	-0.470329
N200	N	1.396850	-0.136323	0.029671
N201	N	0.923222	-0.596465	-0.517534
N202	N	1.423222	-0.096465	-0.017534
H203	H	0.891984	-0.568668	-0.554133
H204	H	1.391984	-0.068668	-0.054133
N205	N	0.735438	-0.460371	-0.265194
N206	N	1.235438	0.039629	0.234806
N207	N	0.800807	-0.463150	-0.262179
N208	N	1.300807	0.036850	0.237821
H209	H	0.825817	-0.496581	-0.226050
H210	H	1.325817	0.003419	0.273950
H211	H	0.395507	-0.479230	-0.244875
H212	H	0.895507	0.020770	0.255125
N213	N	1.093242	-0.294078	-0.635586
N214	N	1.593242	0.205922	-0.135586
N215	N	1.135011	-0.255758	-0.668618
N216	N	1.635011	0.244242	-0.168618
H217	H	1.168755	-0.224801	-0.635759
H218	H	1.668755	0.275199	-0.135759
H219	H	1.057069	-0.870604	-0.282731
H220	H	1.557069	-0.370604	0.217269
H221	H	1.097210	-0.983964	-0.235745
H222	H	1.597210	-0.483964	0.264255
H223	H	1.062977	-0.784077	-0.275739
H224	H	1.562977	-0.284077	0.224261
H225	H	1.091589	-1.116802	-0.242415
H226	H	1.591589	-0.616802	0.257585
N227	N	0.919182	-1.117068	-0.444428
N228	N	1.419182	-0.617068	0.055572
N229	N	0.854839	-1.106192	-0.441687
N230	N	1.354839	-0.606192	0.058313
H231	H	0.821350	-1.131230	-0.480926
H232	H	1.321350	-0.631230	0.019074
N233	N	0.587439	-0.454085	-0.272029
N234	N	1.087439	0.045915	0.227971
N235	N	0.618395	-0.495451	-0.227307
N236	N	1.118395	0.004549	0.272693
H237	H	0.590590	-0.526641	-0.193610
H238	H	1.090590	-0.026641	0.306390
