data_functionalizedCrystal
_audit_creation_method	'MofGen! by Chris Wilmer'
_symmetry_space_group_name_H-M	'P1'
_symmetry_Int_Tables_number	1
_symmetry_cell_setting	triclinic
loop_
_symmetry_equiv_pos_as_xyz
  x,y,z
_cell_length_a	15.995292
_cell_length_b	15.995292
_cell_length_c	13.330367
_cell_angle_alpha	89.998548
_cell_angle_beta	89.991273
_cell_angle_gamma	83.468616
loop_
_atom_site_label
_atom_site_type_symbol
_atom_site_fract_x
_atom_site_fract_y
_atom_site_fract_z
O1	O	1.110997	0.107697	-0.083443
O2	O	0.867212	0.121076	-0.083439
O3	O	0.995794	-0.007506	-0.083443
O4	O	0.982415	0.236279	-0.083439
O5	O	0.995776	-0.007509	0.083404
O6	O	0.867194	0.121073	0.083409
O7	O	1.110979	0.107694	0.083404
Cu8	Cu	0.989084	0.114383	0.098641
Cu9	Cu	0.989107	0.114387	-0.098676
O10	O	0.982397	0.236276	0.083408
C11	C	0.836008	0.120530	-0.000015
C12	C	0.743055	0.118898	-0.000013
C13	C	0.405318	0.112896	-0.000024
C14	C	0.428611	0.205703	-0.000396
C15	C	0.525286	0.207467	-0.000015
C16	C	0.572873	0.115874	-0.000019
C17	C	0.543770	0.069473	0.095255
C18	C	0.446980	0.068356	0.095330
C19	C	0.447146	0.066464	-0.094406
C20	C	0.543638	0.069903	-0.095661
C21	C	0.667569	0.117552	-0.000013
C22	C	0.310622	0.111215	-0.000024
C23	C	0.995240	-0.038703	-0.000022
C24	C	0.993608	-0.131655	-0.000029
C25	C	0.987607	-0.469393	-0.000020
C26	C	1.080413	-0.446100	0.000351
C27	C	1.082177	-0.349424	-0.000029
C28	C	0.990584	-0.301837	-0.000024
C29	C	0.944196	-0.330927	-0.095298
C30	C	0.943079	-0.427717	-0.095374
C31	C	0.941162	-0.427577	0.094363
C32	C	0.944602	-0.331085	0.095618
C33	C	0.992263	-0.207141	-0.000030
C34	C	0.985926	-0.564088	-0.000021
C35	C	1.142183	0.108240	-0.000023
C36	C	1.235136	0.109873	-0.000031
C37	C	0.982951	0.267473	-0.000016
C38	C	0.984583	0.360426	-0.000015
N39	N	0.989075	0.114380	0.237422
N40	N	0.989123	0.114383	-0.237457
C41	C	0.932168	0.171300	0.710047
C42	C	1.046067	0.057467	0.710011
C43	C	1.046058	0.057464	0.604993
C44	C	0.989104	0.114381	0.552497
C45	C	0.932159	0.171301	0.605019
C46	C	1.103008	0.000551	0.552463
C47	C	1.103001	0.000547	0.447438
C48	C	1.046042	0.057461	0.394940
C49	C	0.989094	0.114382	0.447468
C50	C	0.932140	0.171300	0.394972
C51	C	0.875187	0.228218	0.447499
C52	C	0.875199	0.228215	0.552521
C53	C	1.046030	0.057463	0.289918
C54	C	0.932130	0.171300	0.289944
H55	H	0.400615	0.241476	-0.068721
O56	O	0.390176	0.252826	0.089612
H57	H	0.354556	0.210435	0.134611
O58	O	1.107500	-0.003914	0.766628
H59	H	1.096853	-0.069195	0.746476
O60	O	0.870690	0.232679	0.233320
H61	H	0.905914	0.273389	0.185450
H62	H	1.149383	-0.045786	0.595209
O63	O	0.856053	-0.287376	0.103256
H64	H	0.819723	-0.302282	0.035918
H65	H	0.562209	0.103688	-0.166144
H66	H	0.576623	0.003050	-0.101419
H67	H	0.876796	-0.299045	-0.098836
O68	O	0.870754	0.232696	0.766697
H69	H	0.831150	0.272272	0.712546
H70	H	1.115994	-0.475124	-0.067592
H71	H	1.149374	-0.045800	0.404677
H72	H	1.092403	0.011125	0.247156
H73	H	0.433167	-0.001848	-0.095053
O74	O	0.850677	-0.446097	0.095238
H75	H	0.838800	-0.484890	0.028816
O76	O	0.987091	-0.304677	-0.189227
H77	H	1.041413	-0.270882	-0.168295
H78	H	0.544313	0.243801	-0.068314
O79	O	0.813763	0.289608	0.390868
H80	H	0.774166	0.329191	0.445030
H81	H	0.420148	0.100489	0.166552
H82	H	0.970381	-0.455673	0.166580
H83	H	0.978379	-0.312528	0.166101
H84	H	0.543674	0.244023	0.068398
O85	O	0.985723	-0.463450	-0.189580
H86	H	1.040804	-0.508754	-0.168923
O87	O	1.127778	-0.483179	0.090872
H88	H	1.129403	-0.552726	0.089353
H89	H	0.432443	0.000310	0.099655
H90	H	0.828831	0.274557	0.595294
O91	O	0.586011	-0.019801	0.099969
H92	H	0.628298	-0.032075	0.034301
H93	H	0.563815	0.101693	0.166160
H94	H	0.418821	0.095474	-0.166619
H95	H	1.118738	-0.331026	-0.068445
O96	O	0.852950	-0.446984	-0.101120
H97	H	0.810355	-0.387192	-0.103840
H98	H	1.118508	-0.330408	0.068266
