data_functionalizedCrystal
_audit_creation_method	'MofGen! by Chris Wilmer'
_symmetry_space_group_name_H-M	'P1'
_symmetry_Int_Tables_number	1
_symmetry_cell_setting	triclinic
loop_
_symmetry_equiv_pos_as_xyz
  x,y,z
_cell_length_a	10.654541
_cell_length_b	14.519731
_cell_length_c	9.130307
_cell_angle_alpha	89.995718
_cell_angle_beta	89.999822
_cell_angle_gamma	84.086391
loop_
_atom_site_label
_atom_site_type_symbol
_atom_site_fract_x
_atom_site_fract_y
_atom_site_fract_z
O1	O	1.666607	0.129519	-0.121758
O2	O	1.301010	0.141862	-0.121771
O3	O	1.493488	0.001504	-0.121751
O4	O	1.474129	0.269878	-0.121778
O5	O	1.493482	0.001502	0.121848
O6	O	1.301004	0.141861	0.121828
O7	O	1.666601	0.129518	0.121841
Cu8	Cu	1.483802	0.135689	0.144077
Cu9	Cu	1.483809	0.135691	-0.144007
O10	O	1.474123	0.269876	0.121821
C11	C	1.254218	0.140956	0.000027
C12	C	1.114800	0.138246	0.000022
C13	C	1.085233	0.306082	-0.000013
C14	C	1.004953	0.388724	-0.000037
C15	C	0.873959	0.386172	-0.000038
C16	C	0.823244	0.300969	-0.000011
C17	C	0.903524	0.218328	0.000012
C18	C	1.034519	0.220889	0.000009
C19	C	0.933091	0.050493	0.000058
C20	C	1.064085	0.053043	0.000049
C21	C	0.882376	-0.034710	0.000085
C22	C	0.962657	-0.117353	0.000098
C23	C	1.093658	-0.114797	0.000097
C24	C	1.144366	-0.029598	0.000072
C25	C	1.492578	-0.032861	0.000049
C26	C	1.489860	-0.135256	0.000050
C27	C	1.487651	-0.218411	0.000046
C28	C	1.484891	-0.322734	0.000035
C29	C	1.482701	-0.405885	0.000025
C30	C	1.479942	-0.510214	0.000017
C31	C	1.713393	0.130424	0.000040
C32	C	1.852811	0.133134	0.000035
C33	C	1.475033	0.304241	0.000018
C34	C	1.477751	0.406635	0.000007
N35	N	1.483806	0.135687	0.346700
N36	N	1.483815	0.135685	-0.346630
C37	C	1.654314	0.011436	0.346708
C38	C	1.739576	-0.050686	0.423378
C39	C	1.739589	-0.050687	0.576712
C40	C	1.654327	0.011440	0.653378
C41	C	1.569065	0.073563	0.576707
C42	C	1.569064	0.073559	0.423370
C43	C	1.398553	0.197808	0.576699
C44	C	1.398544	0.197815	0.423366
C45	C	1.313291	0.259935	0.653366
C46	C	1.228033	0.322064	0.576695
C47	C	1.228025	0.322063	0.423352
C48	C	1.313282	0.259937	0.346695
H49	H	0.808593	0.453465	-0.000047
Cl50	Cl	1.249911	0.309297	-0.000039
Cl51	Cl	1.313298	0.259932	0.846129
H52	H	0.921353	-0.186718	0.000118
H53	H	1.654333	0.011428	0.778230
H54	H	1.158613	0.372639	0.639126
Cl55	Cl	1.068715	0.495830	-0.000072
H56	H	0.716581	0.298898	0.000005
Cl57	Cl	1.309043	-0.026379	0.000064
H58	H	1.808994	-0.101272	0.360943
H59	H	0.775713	-0.036782	0.000092
Cl60	Cl	1.194572	-0.218696	0.000138
H61	H	1.158589	0.372647	0.360935
H62	H	1.809012	-0.101276	0.639137
H63	H	1.654323	0.011438	0.221855
Cl64	Cl	1.313284	0.259933	0.153932
