data_functionalizedCrystal
_audit_creation_method	'MofGen! by Chris Wilmer'
_symmetry_space_group_name_H-M	'P1'
_symmetry_Int_Tables_number	1
_symmetry_cell_setting	triclinic
loop_
_symmetry_equiv_pos_as_xyz
  x,y,z
_cell_length_a	14.560432
_cell_length_b	21.606444
_cell_length_c	21.606444
_cell_angle_alpha	60.001331
_cell_angle_beta	90.002308
_cell_angle_gamma	60.000162
loop_
_atom_site_label
_atom_site_type_symbol
_atom_site_fract_x
_atom_site_fract_y
_atom_site_fract_z
Zr1	Zr	0.884732	0.677466	-0.081202
O2	O	0.738077	0.806587	-0.180024
O3	O	0.929691	0.548348	-0.050910
O4	O	0.929680	0.677472	-0.180029
O5	O	0.738097	0.677458	0.050948
O6	O	1.080817	0.677474	-0.180029
O7	O	0.738089	0.677463	-0.050906
O8	O	1.080838	0.446495	0.050940
O9	O	0.738076	0.908437	-0.180021
O10	O	1.061656	0.601458	-0.037988
O11	O	0.948870	0.601452	0.038025
O12	O	0.948856	0.753479	-0.113996
O13	O	0.836069	0.753474	-0.037983
Zr14	Zr	1.125792	0.677464	0.081243
Zr15	Zr	1.125779	0.677471	-0.081202
Zr16	Zr	0.884745	0.677460	0.081244
Zr17	Zr	0.884730	0.839907	-0.081197
Zr18	Zr	1.125794	0.515023	0.081238
O19	O	1.080833	0.806583	0.050952
O20	O	1.080815	0.806593	-0.180025
O21	O	0.738095	0.806577	0.050952
O22	O	1.272447	0.548344	0.180066
O23	O	1.272429	0.548354	-0.050911
O24	O	0.929709	0.548338	0.180066
O25	O	1.272427	0.677472	-0.050907
O26	O	1.080844	0.677459	0.180070
O27	O	0.929707	0.677456	0.180070
O28	O	1.272435	0.677468	0.050947
O29	O	0.929676	0.908441	-0.180021
O30	O	1.080848	0.446490	0.180063
O31	O	1.272448	0.446493	0.180062
O32	O	1.272439	0.446498	0.050940
O33	O	0.738085	0.908432	-0.050899
O34	O	0.929686	0.908435	-0.050899
O35	O	1.061668	0.601451	0.114037
O36	O	1.174455	0.601456	0.038024
O37	O	1.061654	0.753478	-0.037983
O38	O	0.948868	0.753473	0.038030
C39	C	1.005265	0.474277	0.000014
C40	C	1.005266	0.405317	0.000012
C41	C	1.064137	0.372922	-0.039667
C42	C	1.064141	0.308122	-0.039662
C43	C	1.005267	0.275723	0.000018
C44	C	0.946394	0.308120	0.039702
C45	C	0.946398	0.372914	0.039701
C46	C	0.946381	0.046811	0.039708
C47	C	0.946380	-0.017986	0.039705
C48	C	1.064125	-0.017982	-0.039655
C49	C	1.064128	0.046813	-0.039656
C50	C	1.005261	0.079201	0.000031
C51	C	1.005259	0.149464	0.000026
C52	C	1.005262	0.205466	0.000019
C53	C	0.703749	0.677460	0.000021
C54	C	0.601418	0.677458	0.000021
C55	C	0.719166	0.518746	0.079366
C56	C	0.729962	0.439393	0.119035
C57	C	0.633810	0.439396	0.119033
C58	C	0.526852	0.518762	0.079360
C59	C	0.516055	0.598115	0.039691
C60	C	0.612216	0.598103	0.039695
C61	C	0.398309	0.756825	-0.039649
C62	C	0.494460	0.756824	-0.039652
C63	C	0.291351	0.836191	-0.079322
C64	C	0.280553	0.915546	-0.118996
C65	C	0.376714	0.915539	-0.118993
C66	C	0.483663	0.836177	-0.079321
C67	C	1.306775	0.677470	0.000020
C68	C	1.409106	0.677472	0.000020
C69	C	1.005247	0.677474	-0.203174
C70	C	1.005242	0.677477	-0.272136
C71	C	1.005259	0.880653	0.000027
C72	C	1.005258	0.949613	0.000030
C73	C	0.946360	0.756830	-0.344210
C74	C	0.946370	0.756827	-0.409005
C75	C	1.005255	0.677471	-0.401724
C76	C	1.064144	0.598112	-0.329643
C77	C	1.064140	0.598115	-0.264850
C78	C	1.064161	0.598097	-0.590946
C79	C	1.064158	0.598099	-0.655747
C80	C	0.946392	0.756809	-0.735101
C81	C	0.946388	0.756812	-0.670308
C82	C	1.005281	0.677454	-0.598233
C83	C	1.005271	0.677457	-0.527975
C84	C	1.005259	0.677467	-0.471980
C85	C	1.005277	0.677456	0.203215
C86	C	1.005283	0.677453	0.272178
C87	C	1.306778	0.474282	0.000014
C88	C	1.409110	0.405324	0.000011
C89	C	1.005280	0.474268	0.203209
C90	C	1.005287	0.405305	0.272169
C91	C	1.306794	0.474274	0.203208
C92	C	1.409131	0.405312	0.272168
C93	C	0.703730	0.880657	-0.203167
C94	C	0.601393	0.949618	-0.272127
C95	C	0.703746	0.880648	0.000028
C96	C	0.601414	0.949606	0.000030
C97	C	1.005244	0.880662	-0.203167
C98	C	1.005237	0.949625	-0.272127
C99	C	1.398287	0.372941	-0.039674
C100	C	1.494429	0.308156	-0.039692
C101	C	1.601394	0.275751	-0.000019
C102	C	1.612215	0.308141	0.039668
C103	C	1.516074	0.372929	0.039681
C104	C	1.064169	0.372919	0.344238
C105	C	1.064171	0.308130	0.409039
C106	C	1.005296	0.275724	0.401770
C107	C	0.946406	0.308117	0.329694
C108	C	0.946399	0.372909	0.264894
C109	C	1.516073	0.372930	0.264875
C110	C	1.612239	0.308143	0.329664
C111	C	1.601460	0.275734	0.401746
C112	C	1.494506	0.308123	0.409038
C113	C	1.398343	0.372913	0.344249
C114	C	0.494451	0.982008	-0.264833
C115	C	0.398285	1.046816	-0.329623
C116	C	0.409064	1.079228	-0.401704
C117	C	0.516018	1.046835	-0.408996
C118	C	0.612181	0.982033	-0.344208
C119	C	0.612237	0.981996	0.039709
C120	C	0.516095	1.046799	0.039708
C121	C	0.409130	1.079206	0.000033
C122	C	0.398309	1.046814	-0.039651
C123	C	0.494450	0.982016	-0.039654
C124	C	1.064124	0.982010	-0.264834
C125	C	1.064140	1.046800	-0.329623
C126	C	1.005262	1.079207	-0.401705
C127	C	0.946374	1.046816	-0.408997
C128	C	0.946365	0.982023	-0.344208
H129	H	1.112062	-0.044362	-0.071967
F130	F	0.883730	0.407366	0.188194
H131	H	0.817057	0.374775	0.151338
F132	F	0.726068	0.947519	0.081938
F133	F	1.126794	0.947531	-0.188125
H134	H	1.112113	0.533474	-0.649811
H135	H	0.485653	0.955622	-0.206147
F136	F	1.126813	1.081266	-0.321847
H137	H	0.898408	0.955662	-0.350157
F138	F	0.527635	1.081259	0.081950
H139	H	0.699255	0.955661	-0.350156
H140	H	1.112116	0.533478	-0.532268
H141	H	0.642606	0.374780	0.151338
H142	H	1.112095	0.533498	-0.323720
H143	H	0.330855	1.131968	0.000042
F144	F	1.005279	1.148168	-0.470653
F145	F	1.126784	0.081295	-0.081892
F146	F	1.126855	0.273664	0.485741
F147	F	0.284460	1.081311	-0.081871
H148	H	1.485597	0.281793	-0.072009
F149	F	1.703816	0.206777	0.470694
H150	H	1.485747	0.281726	0.467735
H151	H	0.898435	-0.044365	0.072019
H152	H	0.485622	0.955647	-0.071963
H153	H	0.898456	0.399292	0.072009
F154	F	0.284469	1.081276	-0.321846
H155	H	1.524902	0.399286	0.072002
F156	F	0.883701	0.841274	-0.678062
F157	F	0.424521	0.518762	0.079371
H158	H	1.112087	0.533498	-0.206164
H159	H	0.898438	1.073212	-0.467695
H160	H	1.699316	0.281778	0.323713
H161	H	0.330753	1.131993	-0.454453
H162	H	1.005311	0.222966	0.454541
H163	H	1.311270	0.399271	0.350199
H164	H	0.797464	0.518735	0.079366
H165	H	1.112079	0.281746	-0.071971
F166	F	1.126794	0.407402	-0.081905
H167	H	0.898452	0.073171	0.072027
F168	F	0.527472	1.081337	-0.485717
H169	H	0.193465	0.980159	-0.151292
H170	H	0.898464	0.281731	0.072014
H171	H	0.213063	0.836188	-0.079317
H172	H	0.367910	0.980158	-0.151287
H173	H	1.679669	0.222996	-0.000034
H174	H	1.699319	0.281747	0.071968
H175	H	0.561963	0.836164	-0.079317
H176	H	0.898402	0.821451	-0.350147
H177	H	0.898472	0.281722	0.323787
H178	H	0.898425	0.821445	-0.467689
H179	H	1.112112	0.399296	0.350171
H180	H	0.898441	0.821427	-0.793795
F181	F	1.527570	0.407414	0.188166
F182	F	1.284456	0.407419	-0.081905
