data_functionalizedCrystal
_audit_creation_method	'MofGen! by Chris Wilmer'
_symmetry_space_group_name_H-M	'P1'
_symmetry_Int_Tables_number	1
_symmetry_cell_setting	triclinic
loop_
_symmetry_equiv_pos_as_xyz
  x,y,z
_cell_length_a	13.339070
_cell_length_b	9.798715
_cell_length_c	10.723024
_cell_angle_alpha	90.001978
_cell_angle_beta	79.951418
_cell_angle_gamma	89.995656
loop_
_atom_site_label
_atom_site_type_symbol
_atom_site_fract_x
_atom_site_fract_y
_atom_site_fract_z
O1	O	1.346633	-0.113527	-0.627072
O2	O	1.051535	-0.113521	-0.544765
O3	O	1.205891	-0.113519	-0.406627
O4	O	1.192277	-0.113529	-0.765209
O5	O	1.205880	0.113463	-0.406623
O6	O	1.051524	0.113461	-0.544760
O7	O	1.346622	0.113455	-0.627068
Zn8	Zn	1.199071	0.149497	-0.585913
Zn9	Zn	1.199086	-0.149562	-0.585919
O10	O	1.192266	0.113453	-0.765205
C11	C	1.013744	-0.000029	-0.530859
C12	C	0.901154	-0.000026	-0.489417
N13	N	1.199068	0.353596	-0.585911
C14	C	1.204895	-0.000030	-0.359793
C15	C	1.201931	-0.000034	-0.220243
C16	C	0.538598	-0.000057	-0.811651
C17	C	0.644381	-0.000063	-0.850593
C18	C	0.708579	-0.000054	-0.760302
C19	C	0.666985	-0.000038	-0.631063
C20	C	0.561191	-0.000043	-0.592118
C21	C	0.731173	-0.000039	-0.540769
C22	C	0.689578	-0.000024	-0.411530
C23	C	0.583795	-0.000027	-0.372592
C24	C	0.519596	-0.000037	-0.462882
C25	C	0.836966	-0.000035	-0.579714
C26	C	0.859559	-0.000021	-0.360181
C27	C	0.753777	-0.000014	-0.321240
C28	C	1.384413	-0.000040	-0.640973
C29	C	1.497003	-0.000051	-0.682416
N30	N	1.199097	-0.353662	-0.585914
C31	C	1.263878	0.421374	-0.527559
C32	C	1.263894	0.578537	-0.527561
C33	C	1.193262	-0.000039	-0.812039
C34	C	1.196226	-0.000043	-0.951589
C35	C	1.288300	-0.000038	-0.174254
C36	C	1.285239	-0.000043	-0.030023
H37	H	0.870822	-0.000042	-0.684940
O38	O	1.132758	0.576972	-0.645420
C39	C	0.957088	0.532967	-0.658092
C40	C	1.032104	0.611646	-0.590613
H41	H	0.875693	0.560950	-0.613790
H42	H	0.971122	0.561003	-0.762879
H43	H	0.968923	0.418611	-0.647509
H44	H	1.020313	0.726020	-0.601097
H45	H	1.018051	0.583497	-0.485853
O46	O	0.476278	-0.000315	-0.899394
C47	C	0.424638	-0.117894	-1.075145
C48	C	0.495259	-0.117783	-0.975817
H49	H	0.439974	-0.212843	-1.136976
H50	H	0.341867	-0.117989	-1.025171
H51	H	0.439841	-0.022864	-1.136879
H52	H	0.480147	-0.212797	-0.914054
H53	H	0.578006	-0.117618	-1.025871
H54	H	1.143590	0.411920	-0.635863
H55	H	1.319349	0.363052	-0.477595
H56	H	1.125720	-0.000042	-0.152838
H57	H	1.364511	-0.000031	-0.241659
O58	O	1.108036	-0.000283	0.001114
C59	C	1.004264	-0.117828	-0.127371
C60	C	1.104165	-0.117742	-0.073856
H61	H	1.001111	-0.212769	-0.188017
H62	H	0.936730	-0.117919	-0.045925
H63	H	1.001023	-0.022790	-0.187861
H64	H	1.107505	-0.212764	-0.013382
H65	H	1.171652	-0.117580	-0.155361
H66	H	0.794712	-0.000062	-0.792016
O67	O	0.684820	-0.000341	-0.976113
C68	C	0.791166	-0.117964	-1.147458
C69	C	0.745424	-0.117819	-1.005282
H70	H	0.840191	-0.212920	-1.171080
H71	H	0.727143	-0.118068	-1.205349
H72	H	0.840085	-0.022941	-1.171183
H73	H	0.696516	-0.212826	-0.981438
H74	H	0.809496	-0.117644	-0.947467
O75	O	0.921808	0.000172	-0.272344
C76	C	0.973530	0.117814	-0.096677
C77	C	0.902952	0.117755	-0.196053
H78	H	0.958325	0.212883	-0.034987
H79	H	0.958301	0.022887	-0.034803
H80	H	1.056274	0.117752	-0.146739
H81	H	0.820182	0.117865	-0.146097
H82	H	0.918268	0.212673	-0.257921
O83	O	1.330046	0.647913	-0.467770
C84	C	1.387409	0.691955	-0.270596
C85	C	1.312450	0.613273	-0.338161
H86	H	1.373195	0.664000	-0.165791
H87	H	1.468839	0.663892	-0.314687
H88	H	1.375641	0.806310	-0.281286
H89	H	1.324126	0.498900	-0.327495
H90	H	1.231048	0.641449	-0.294056
O91	O	1.373480	0.000193	0.017162
C92	C	1.530345	0.117733	0.028292
C93	C	1.430437	0.117653	-0.025207
H94	H	1.576433	0.212674	-0.005964
H95	H	1.512219	0.117817	0.136199
H96	H	1.576382	0.022696	-0.005826
H97	H	1.384352	0.212674	0.008814
H98	H	1.448634	0.117497	-0.133110
H99	H	0.433458	-0.000031	-0.431183
H100	H	0.549932	-0.000030	-0.267358
H101	H	0.719895	-0.000013	-0.216011
