data_functionalizedCrystal
_audit_creation_method	'MofGen! by Chris Wilmer'
_symmetry_space_group_name_H-M	'P1'
_symmetry_Int_Tables_number	1
_symmetry_cell_setting	triclinic
loop_
_symmetry_equiv_pos_as_xyz
  x,y,z
_cell_length_a	12.645331
_cell_length_b	19.805404
_cell_length_c	19.805399
_cell_angle_alpha	89.971482
_cell_angle_beta	89.990805
_cell_angle_gamma	90.028829
loop_
_atom_site_label
_atom_site_type_symbol
_atom_site_fract_x
_atom_site_fract_y
_atom_site_fract_z
Zn1	Zn	1.620575	-0.269483	-0.382583
Zn2	Zn	2.120575	0.230517	0.117417
Zn3	Zn	1.620440	-0.382675	-0.269396
Zn4	Zn	2.120440	0.117325	0.230604
Zn5	Zn	1.443310	-0.269503	-0.269423
Zn6	Zn	1.943310	0.230497	0.230577
Zn7	Zn	1.443235	-0.382634	-0.382558
Zn8	Zn	1.943235	0.117366	0.117442
O9	O	1.531890	-0.326074	-0.325990
O10	O	2.031890	0.173926	0.174010
O11	O	1.768904	-0.284507	-0.367568
O12	O	2.268904	0.215493	0.132432
O13	O	1.596918	-0.367687	-0.174683
O14	O	2.096918	0.132313	0.325317
O15	O	1.466912	-0.174784	-0.284456
O16	O	1.966912	0.325216	0.215544
O17	O	1.768805	-0.367668	-0.284409
O18	O	2.268805	0.132332	0.215591
O19	O	1.597148	-0.174769	-0.367594
O20	O	2.097148	0.325231	0.132406
O21	O	1.466782	-0.284541	-0.174703
O22	O	1.966782	0.215459	0.325297
O23	O	1.294953	-0.284502	-0.284431
O24	O	1.794953	0.215498	0.215569
O25	O	1.466784	-0.367599	-0.477278
O26	O	1.966784	0.132401	0.022722
O27	O	1.294897	-0.367619	-0.367551
O28	O	1.794897	0.132381	0.132449
O29	O	1.597075	-0.284468	-0.477296
O30	O	2.097075	0.215532	0.022704
O31	O	1.596845	-0.477386	-0.284385
O32	O	2.096845	0.022614	0.215615
O33	O	1.466653	-0.477356	-0.367524
O34	O	1.966653	0.022644	0.132476
C35	C	1.256460	-0.326059	-0.325991
C36	C	1.756460	0.173941	0.174009
C37	C	1.138630	-0.326068	-0.326008
C38	C	1.638630	0.173932	0.173992
C39	C	1.531755	-0.501930	-0.325964
C40	C	2.031755	-0.001930	0.174036
C41	C	1.531795	-0.577162	-0.325975
C42	C	2.031795	-0.077162	0.174025
C43	C	1.599941	-1.038946	-0.282794
C44	C	2.099941	-0.538946	0.217206
C45	C	1.599892	-0.968257	-0.282780
C46	C	2.099892	-0.468257	0.217220
C47	C	1.532029	-0.932924	-0.326026
C48	C	2.032029	-0.432924	0.173974
C49	C	1.464204	-0.968282	-0.369282
C50	C	1.964204	-0.468282	0.130718
C51	C	1.464249	-1.038969	-0.369291
C52	C	1.964249	-0.538969	0.130709
C53	C	1.464019	-0.683209	-0.369245
C54	C	1.964019	-0.183209	0.130755
C55	C	1.463982	-0.612517	-0.369234
C56	C	1.963982	-0.112517	0.130766
C57	C	1.599662	-0.612497	-0.282734
C58	C	2.099662	-0.112497	0.217266
C59	C	1.599707	-0.683184	-0.282743
C60	C	2.099707	-0.183184	0.217257
C61	C	1.531879	-0.718536	-0.325997
C62	C	2.031879	-0.218536	0.174003
C63	C	1.531932	-0.795185	-0.326010
C64	C	2.031932	-0.295185	0.173990
C65	C	1.531980	-0.856276	-0.326017
C66	C	2.031980	-0.356276	0.173983
C67	C	0.971067	-0.378644	-0.378026
C68	C	1.471067	0.121356	0.121974
C69	C	1.093627	-0.378474	-0.378244
C70	C	1.593627	0.121526	0.121756
C71	C	1.094172	-0.254780	-0.345502
C72	C	1.594172	0.245220	0.154498
C73	C	0.971574	-0.255100	-0.345869
C74	C	1.471574	0.244900	0.154131
C75	C	0.971391	-0.344207	-0.254331
C76	C	1.471391	0.155793	0.245669
C77	C	1.093997	-0.345766	-0.254718
C78	C	1.593997	0.154234	0.245282
C79	C	1.808395	-0.326090	-0.325988
C80	C	2.308395	0.173910	0.174012
C81	C	1.926225	-0.326096	-0.325988
C82	C	2.426225	0.173904	0.174012
C83	C	1.531936	-0.326027	-0.502533
C84	C	2.031936	0.173973	-0.002533
C85	C	1.531956	-0.326007	-0.577765
C86	C	2.031956	0.173993	-0.077765
C87	C	1.532054	-0.149531	-0.326031
C88	C	2.032054	0.350469	0.173969
C89	C	1.532124	-0.074299	-0.326048
C90	C	2.032124	0.425701	0.173952
C91	C	1.464213	-0.282708	-0.613119
C92	C	1.964213	0.217292	-0.113119
C93	C	1.464228	-0.282695	-0.683807
C94	C	1.964228	0.217305	-0.183807
C95	C	1.531992	-0.325978	-0.719140
C96	C	2.031992	0.174022	-0.219140
C97	C	1.599737	-0.369281	-0.683781
C98	C	2.099737	0.130719	-0.183781
C99	C	1.599717	-0.369297	-0.613094
C100	C	2.099717	0.130703	-0.113094
C101	C	1.599822	-0.369218	-0.968855
C102	C	2.099822	0.130782	-0.468855
C103	C	1.599839	-0.369197	-1.039547
C104	C	2.099839	0.130803	-0.539547
C105	C	1.464333	-0.282616	-1.039568
C106	C	1.964333	0.217384	-0.539568
C107	C	1.464312	-0.282632	-0.968880
C108	C	1.964312	0.217368	-0.468880
C109	C	1.532053	-0.325937	-0.933528
C110	C	2.032053	0.174063	-0.433528
C111	C	1.532035	-0.325952	-0.856879
C112	C	2.032035	0.174048	-0.356879
C113	C	1.532016	-0.325960	-0.795787
C114	C	2.032016	0.174040	-0.295787
C115	C	1.531905	-0.326072	-0.150134
C116	C	2.031905	0.173928	0.349866
C117	C	1.532090	-0.325901	-0.074902
C118	C	2.032090	0.174099	0.425098
H119	H	1.655209	-1.067709	-0.247582
H120	H	2.155209	-0.567709	0.252418
H121	H	1.123684	-0.431339	-0.366026
H122	H	1.623684	0.068661	0.133974
H123	H	1.654889	-0.583706	-0.247512
H124	H	2.154889	-0.083706	0.252488
H125	H	1.409061	-0.247440	-0.712589
H126	H	1.909061	0.252560	-0.212589
H127	H	1.122970	-0.366488	-0.431338
H128	H	1.622970	0.133512	0.068662
H129	H	1.654888	-0.404550	-0.584310
H130	H	2.154888	0.095450	-0.084310
H131	H	1.408943	-0.939509	-0.404490
H132	H	1.908943	-0.439509	0.095510
H133	H	1.409030	-1.067753	-0.404517
H134	H	1.909030	-0.567753	0.095483
H135	H	1.654906	-0.404526	-0.712555
H136	H	2.154906	0.095474	-0.212555
H137	H	1.655023	-0.404445	-1.068313
H138	H	2.155023	0.095555	-0.568313
H139	H	1.409171	-0.247356	-1.068360
H140	H	1.909171	0.252644	-0.568360
H141	H	1.655113	-0.939473	-0.247559
H142	H	2.155113	-0.439473	0.252441
H143	H	0.940270	-0.366813	-0.430812
H144	H	1.440270	0.133187	0.069188
H145	H	0.941560	-0.431684	-0.365943
H146	H	1.441560	0.068316	0.134057
H147	H	1.409136	-0.247385	-0.940116
H148	H	1.909136	0.252615	-0.440116
H149	H	1.654969	-0.404487	-0.940079
H150	H	2.154969	0.095513	-0.440079
H151	H	0.942994	-0.239739	-0.398253
H152	H	1.442994	0.260261	0.101747
H153	H	0.941912	-0.214546	-0.309705
H154	H	1.441912	0.285454	0.190295
H155	H	1.124893	-0.239138	-0.397319
H156	H	1.624893	0.260862	0.102681
H157	H	1.654972	-0.711949	-0.247531
H158	H	2.154972	-0.211949	0.252469
H159	H	0.942394	-0.305932	-0.215558
H160	H	1.442394	0.194068	0.284442
H161	H	1.408716	-0.583749	-0.404450
H162	H	1.908716	-0.083749	0.095550
H163	H	1.409038	-0.247459	-0.584355
H164	H	1.909038	0.252541	-0.084355
H165	H	1.123324	-0.214564	-0.308784
H166	H	1.623324	0.285436	0.191216
H167	H	1.408781	-0.711984	-0.404459
H168	H	1.908781	-0.211984	0.095541
H169	H	0.940456	-0.395304	-0.236614
H170	H	1.440456	0.104696	0.263386
H171	H	1.123065	-0.398224	-0.240015
H172	H	1.623065	0.101776	0.259985
H173	H	1.124632	-0.310270	-0.213865
H174	H	1.624632	0.189730	0.286135
