data_functionalizedCrystal
_audit_creation_method	'MofGen! by Chris Wilmer'
_symmetry_space_group_name_H-M	'P1'
_symmetry_Int_Tables_number	1
_symmetry_cell_setting	triclinic
loop_
_symmetry_equiv_pos_as_xyz
  x,y,z
_cell_length_a	10.686220
_cell_length_b	13.032721
_cell_length_c	10.686551
_cell_angle_alpha	93.335252
_cell_angle_beta	90.308082
_cell_angle_gamma	100.973619
loop_
_atom_site_label
_atom_site_type_symbol
_atom_site_fract_x
_atom_site_fract_y
_atom_site_fract_z
Zn1	Zn	1.936448	-0.254400	-0.604121
Zn2	Zn	1.893610	-0.443269	-0.425347
Zn3	Zn	1.706806	-0.281093	-0.414818
Zn4	Zn	1.700338	-0.441154	-0.650778
O5	O	1.809301	-0.354979	-0.523766
O6	O	2.107756	-0.269167	-0.565287
O7	O	1.853609	-0.433812	-0.250383
O8	O	1.757902	-0.131524	-0.415997
O9	O	2.076284	-0.407929	-0.433943
O10	O	1.926619	-0.111912	-0.555077
O11	O	1.716365	-0.314662	-0.242647
O12	O	1.528957	-0.312612	-0.461238
O13	O	1.746880	-0.404324	-0.818156
O14	O	1.524205	-0.430208	-0.634597
O15	O	1.920348	-0.267117	-0.783878
O16	O	1.847338	-0.589017	-0.479184
O17	O	1.705342	-0.587463	-0.644807
C18	C	1.480689	-0.374078	-0.551838
C19	C	1.340107	-0.382271	-0.563881
C20	C	1.771027	-0.626100	-0.568225
C21	C	1.754773	-0.742077	-0.587276
C22	C	1.817856	-0.794509	-0.513873
C23	C	1.801058	-0.914377	-0.533562
C24	C	2.139195	-0.335806	-0.495585
C25	C	2.279776	-0.327636	-0.483576
C26	C	1.837671	-0.332507	-0.847280
C27	C	1.849761	-0.322931	-0.985142
C28	C	1.847760	-0.082796	-0.479158
C29	C	1.864150	0.033193	-0.460149
C30	C	1.781124	-0.377284	-0.201492
C31	C	1.769320	-0.386552	-0.063562
H32	H	1.884306	-0.750658	-0.436458
C33	C	1.955305	-0.239443	-1.036917
C34	C	1.960213	-0.122628	-1.000659
C35	C	2.065755	-0.039142	-1.052435
C36	C	2.166389	-0.072471	-1.140468
C37	C	2.161485	-0.189291	-1.176731
C38	C	2.055943	-0.272777	-1.124956
H39	H	1.885714	-0.097951	-0.935487
H40	H	2.069385	0.047337	-1.025590
H41	H	2.244518	-0.010669	-1.178796
H42	H	2.235984	-0.213968	-1.241903
H43	H	2.052313	-0.359256	-1.151800
H44	H	1.688334	-0.785929	-0.664699
H45	H	1.335674	-0.274592	-0.405608
H46	H	1.734615	-0.958225	-0.610990
H47	H	1.284201	-0.435326	-0.641847
C48	C	1.953917	-0.907586	-0.355545
C49	C	1.901064	-0.842663	-0.250585
C50	C	1.990828	-0.783444	-0.145982
C51	C	2.133445	-0.789149	-0.146339
C52	C	2.186305	-0.854075	-0.251304
C53	C	2.096541	-0.913294	-0.355907
H54	H	1.795484	-0.838438	-0.250317
H55	H	1.951697	-0.735381	-0.068280
H56	H	2.199894	-0.745311	-0.068906
H57	H	2.291885	-0.858300	-0.251572
H58	H	2.135673	-0.961357	-0.433608
H59	H	1.691206	-0.448349	-1.025232
