data_functionalizedCrystal
_audit_creation_method	'MofGen! by Chris Wilmer'
_symmetry_space_group_name_H-M	'P1'
_symmetry_Int_Tables_number	1
_symmetry_cell_setting	triclinic
loop_
_symmetry_equiv_pos_as_xyz
  x,y,z
_cell_length_a	13.596369
_cell_length_b	9.065218
_cell_length_c	14.519709
_cell_angle_alpha	95.651985
_cell_angle_beta	89.999792
_cell_angle_gamma	89.994623
loop_
_atom_site_label
_atom_site_type_symbol
_atom_site_fract_x
_atom_site_fract_y
_atom_site_fract_z
O1	O	0.081778	-1.957869	0.135228
O2	O	0.331778	-1.707869	0.385228
O3	O	0.581778	-1.457869	0.635228
O4	O	0.831778	-1.207869	0.885228
O5	O	0.081779	-1.528376	0.146320
O6	O	0.331779	-1.278376	0.396320
O7	O	0.581779	-1.028376	0.646320
O8	O	0.831779	-0.778376	0.896320
O9	O	0.081787	-1.754510	0.006619
O10	O	0.331787	-1.504510	0.256619
O11	O	0.581787	-1.254510	0.506619
O12	O	0.831787	-1.004510	0.756619
O13	O	0.081770	-1.731735	0.274929
O14	O	0.331770	-1.481735	0.524929
O15	O	0.581770	-1.231735	0.774929
O16	O	0.831770	-0.981735	1.024929
O17	O	-0.081795	-1.754487	0.006611
O18	O	0.168205	-1.504487	0.256611
O19	O	0.418205	-1.254487	0.506611
O20	O	0.668205	-1.004487	0.756611
O21	O	-0.081804	-1.528354	0.146312
O22	O	0.168196	-1.278354	0.396312
O23	O	0.418196	-1.028354	0.646312
O24	O	0.668196	-0.778354	0.896312
O25	O	-0.081804	-1.957846	0.135221
O26	O	0.168196	-1.707846	0.385221
O27	O	0.418196	-1.457846	0.635221
O28	O	0.668196	-1.207846	0.885221
Zn29	Zn	-0.107777	-1.743096	0.140765
Zn30	Zn	0.142223	-1.493096	0.390765
Zn31	Zn	0.392223	-1.243096	0.640765
Zn32	Zn	0.642223	-0.993096	0.890765
Zn33	Zn	0.107751	-1.743126	0.140775
Zn34	Zn	0.357751	-1.493126	0.390775
Zn35	Zn	0.607751	-1.243126	0.640775
Zn36	Zn	0.857751	-0.993126	0.890775
O37	O	-0.081813	-1.731713	0.274922
O38	O	0.168187	-1.481713	0.524922
O39	O	0.418187	-1.231713	0.774922
O40	O	0.668187	-0.981713	1.024922
C41	C	-0.000013	-1.473398	0.145250
C42	C	0.249987	-1.223398	0.395250
C43	C	0.499987	-0.973398	0.645250
C44	C	0.749987	-0.723398	0.895250
C45	C	-0.000012	-1.309615	0.142063
C46	C	0.249988	-1.059615	0.392063
C47	C	0.499988	-0.809615	0.642063
C48	C	0.749988	-0.559615	0.892063
N49	N	-0.254869	-1.743087	0.140758
N50	N	-0.004869	-1.493087	0.390758
N51	N	0.245131	-1.243087	0.640758
N52	N	0.495131	-0.993087	0.890758
C53	C	0.000000	-1.753437	-0.027752
C54	C	0.250000	-1.503437	0.222248
C55	C	0.500000	-1.253437	0.472248
C56	C	0.750000	-1.003437	0.722248
C57	C	0.000014	-1.750257	-0.130157
C58	C	0.250014	-1.500257	0.119843
C59	C	0.500014	-1.250257	0.369843
C60	C	0.750014	-1.000257	0.619843
C61	C	-0.656159	-1.743124	0.140776
C62	C	-0.406159	-1.493124	0.390776
C63	C	-0.156159	-1.243124	0.640776
C64	C	0.093841	-0.993124	0.890776
C65	C	-0.544508	-1.743109	0.140774
C66	C	-0.294508	-1.493109	0.390774
C67	C	-0.044508	-1.243109	0.640774
C68	C	0.205492	-0.993109	0.890774
C69	C	-0.455518	-1.743106	0.140768
C70	C	-0.205518	-1.493106	0.390768
C71	C	0.044482	-1.243106	0.640768
C72	C	0.294482	-0.993106	0.890768
C73	C	-0.343859	-1.743090	0.140764
C74	C	-0.093859	-1.493090	0.390764
C75	C	0.156141	-1.243090	0.640764
C76	C	0.406141	-0.993090	0.890764
N77	N	0.254843	-1.743147	0.140775
N78	N	0.504843	-1.493147	0.390775
N79	N	0.754843	-1.243147	0.640775
N80	N	1.004843	-0.993147	0.890775
C81	C	-0.000011	-2.012824	0.136290
C82	C	0.249989	-1.762824	0.386290
C83	C	0.499989	-1.512824	0.636290
C84	C	0.749989	-1.262824	0.886290
C85	C	-0.000005	-2.176607	0.139478
C86	C	0.249995	-1.926607	0.389478
C87	C	0.499995	-1.676607	0.639478
C88	C	0.749995	-1.426607	0.889478
C89	C	-0.000024	-1.732785	0.309293
C90	C	0.249976	-1.482785	0.559293
C91	C	0.499976	-1.232785	0.809293
C92	C	0.749976	-0.982785	1.059293
C93	C	-0.000031	-1.735966	0.411697
C94	C	0.249969	-1.485966	0.661697
C95	C	0.499969	-1.235966	0.911697
C96	C	0.749969	-0.985966	1.161697
C97	C	0.000008	-1.747675	0.786679
C98	C	0.250008	-1.497675	1.036679
C99	C	0.500008	-1.247675	1.286679
C100	C	0.750008	-0.997675	1.536679
C101	C	-0.000003	-1.744423	0.682347
C102	C	0.249997	-1.494423	0.932347
C103	C	0.499997	-1.244423	1.182347
C104	C	0.749997	-0.994423	1.432347
C105	C	-0.000012	-1.741821	0.599192
C106	C	0.249988	-1.491821	0.849192
C107	C	0.499988	-1.241821	1.099192
C108	C	0.749988	-0.991821	1.349192
C109	C	-0.000021	-1.738568	0.494853
C110	C	0.249979	-1.488568	0.744853
C111	C	0.499979	-1.238568	0.994853
C112	C	0.749979	-0.988568	1.244853
