data_functionalizedCrystal
_audit_creation_method	'MofGen! by Chris Wilmer'
_symmetry_space_group_name_H-M	'P1'
_symmetry_Int_Tables_number	1
_symmetry_cell_setting	triclinic
loop_
_symmetry_equiv_pos_as_xyz
  x,y,z
_cell_length_a	14.853567
_cell_length_b	10.489741
_cell_length_c	13.330367
_cell_angle_alpha	89.995673
_cell_angle_beta	89.995418
_cell_angle_gamma	84.087052
loop_
_atom_site_label
_atom_site_type_symbol
_atom_site_fract_x
_atom_site_fract_y
_atom_site_fract_z
O1	O	1.197303	0.166528	-0.083354
O2	O	0.934954	0.186366	-0.083371
O3	O	1.072098	-0.009218	-0.083356
O4	O	1.060159	0.362112	-0.083369
O5	O	1.072078	-0.009223	0.083491
O6	O	0.934934	0.186361	0.083476
O7	O	1.197282	0.166524	0.083493
Cu8	Cu	1.066107	0.176442	0.098719
Cu9	Cu	1.066130	0.176447	-0.098597
O10	O	1.060139	0.362107	0.083479
C11	C	0.901351	0.185464	0.000051
C12	C	0.801252	0.182771	0.000044
C13	C	0.388003	0.055204	0.000071
C14	C	0.368025	0.287562	0.000062
C15	C	0.462072	0.290094	0.000059
C16	C	0.519090	0.175180	0.000060
C17	C	0.482060	0.057733	0.000065
C18	C	0.499110	0.407539	0.000044
C19	C	0.593163	0.410077	0.000040
C20	C	0.650183	0.295161	0.000048
C21	C	0.613147	0.177709	0.000054
C22	C	0.670164	0.062795	0.000055
C23	C	0.633130	-0.054658	0.000068
C24	C	0.539079	-0.057183	0.000073
C25	C	0.744234	0.297685	0.000043
C26	C	0.764221	0.065324	0.000049
C27	C	1.071186	-0.056742	0.000067
C28	C	1.068488	-0.198341	0.000065
C29	C	0.981228	-0.265502	0.000052
C30	C	1.022439	-0.358089	0.082319
C31	C	1.022479	-0.358060	-0.082179
C32	C	1.109735	-0.289063	0.082400
C33	C	1.109764	-0.289024	-0.082172
C34	C	1.151038	-0.381585	0.000115
C35	C	1.230886	0.167425	0.000070
C36	C	1.330985	0.170118	0.000070
C37	C	1.061051	0.409631	0.000053
C38	C	1.063748	0.551230	0.000049
N39	N	1.066096	0.176437	0.237501
N40	N	1.066147	0.176441	-0.237378
C41	C	1.005400	0.263017	0.710117
C42	C	1.126885	0.089867	0.710098
C43	C	1.126874	0.089863	0.605080
C44	C	1.066127	0.176439	0.552575
C45	C	1.005390	0.263019	0.605089
C46	C	1.187617	0.003293	0.552558
C47	C	1.187610	0.003287	0.447534
C48	C	1.126857	0.089858	0.395027
C49	C	1.066117	0.176440	0.447547
C50	C	1.005369	0.263016	0.395043
C51	C	0.944624	0.349594	0.447561
C52	C	0.944637	0.349590	0.552582
C53	C	1.126844	0.089861	0.290005
C54	C	1.005359	0.263017	0.290015
H55	H	0.508917	-0.152807	0.000108
H56	H	0.774383	0.393314	0.000034
O57	O	0.825712	-0.058627	0.000052
H58	H	0.869034	-0.063035	0.068057
O59	O	1.158592	-0.248798	0.174635
H60	H	1.112215	-0.181405	0.219522
H61	H	0.955888	0.333514	0.247272
H62	H	1.237080	-0.067188	0.595311
O63	O	1.192409	-0.003498	0.766724
H64	H	1.180284	-0.102965	0.746575
O65	O	0.694629	-0.178602	0.000076
H66	H	0.766249	-0.157102	0.000075
O67	O	0.348069	-0.071476	0.000086
H68	H	0.273090	-0.053938	0.000088
O69	O	0.437610	0.531470	0.000054
H70	H	0.394270	0.535869	-0.067937
H71	H	0.909483	-0.215045	0.000130
H72	H	0.955940	0.333504	0.752880
O73	O	1.253113	-0.090100	0.390890
H74	H	1.295350	-0.150308	0.445045
O75	O	0.306535	0.411502	0.000071
H76	H	0.234913	0.390012	0.000085
H77	H	1.176306	0.019377	0.247250
H78	H	0.623308	0.505714	0.000029
O79	O	0.973533	-0.398624	0.174447
H80	H	0.903060	-0.351687	0.174278
H81	H	1.222848	-0.431815	0.000165
O82	O	1.158642	-0.248426	-0.174292
H83	H	1.122291	-0.275737	-0.242486
O84	O	0.973575	-0.398547	-0.174311
H85	H	0.903108	-0.351588	-0.174135
O86	O	0.879089	0.442952	0.390929
H87	H	0.889285	0.428391	0.309079
H88	H	0.895182	0.420079	0.595349
