data_functionalizedCrystal
_audit_creation_method	'MofGen! by Chris Wilmer'
_symmetry_space_group_name_H-M	'P1'
_symmetry_Int_Tables_number	1
_symmetry_cell_setting	triclinic
loop_
_symmetry_equiv_pos_as_xyz
  x,y,z
_cell_length_a	10.654549
_cell_length_b	14.044220
_cell_length_c	9.130307
_cell_angle_alpha	89.995545
_cell_angle_beta	89.997449
_cell_angle_gamma	88.837898
loop_
_atom_site_label
_atom_site_type_symbol
_atom_site_fract_x
_atom_site_fract_y
_atom_site_fract_z
O1	O	1.681224	0.133252	-0.121840
O2	O	1.317021	0.145941	-0.121836
O3	O	1.493656	0.001576	-0.121823
O4	O	1.504589	0.277617	-0.121852
O5	O	1.493649	0.001575	0.121776
O6	O	1.317015	0.145940	0.121763
O7	O	1.681217	0.133251	0.121759
Cu8	Cu	1.499115	0.139595	0.144004
Cu9	Cu	1.499123	0.139597	-0.144080
O10	O	1.504583	0.277616	0.121747
C11	C	1.270126	0.145008	-0.000035
C12	C	1.130403	0.142217	-0.000033
C13	C	0.857239	0.309607	-0.000092
C14	C	0.917582	0.397234	-0.000095
C15	C	1.048864	0.399859	-0.000076
C16	C	1.119806	0.314847	-0.000059
C17	C	1.059464	0.227220	-0.000055
C18	C	0.928178	0.224604	-0.000070
C19	C	1.070060	0.054590	-0.000030
C20	C	0.938778	0.051963	-0.000038
C21	C	1.141003	-0.030422	-0.000012
C22	C	1.080660	-0.118051	0.000001
C23	C	0.949370	-0.120673	-0.000016
C24	C	0.878436	-0.035665	-0.000035
C25	C	1.488867	-0.033771	-0.000023
C26	C	1.474591	-0.139090	-0.000021
C27	C	1.448492	-0.331924	-0.000042
C28	C	1.549740	-0.388890	-0.000048
C29	C	1.535219	-0.496189	-0.000059
C30	C	1.463012	-0.224615	-0.000030
C31	C	1.728112	0.134184	-0.000044
C32	C	1.867836	0.136975	-0.000056
C33	C	1.509372	0.312963	-0.000057
C34	C	1.523647	0.418282	-0.000068
N35	N	1.499119	0.139593	0.346626
N36	N	1.499128	0.139591	-0.346703
C37	C	1.655603	0.011796	0.346627
C38	C	1.733853	-0.052100	0.423295
C39	C	1.733866	-0.052101	0.576628
C40	C	1.655617	0.011800	0.653298
C41	C	1.577366	0.075696	0.576631
C42	C	1.577365	0.075691	0.423294
C43	C	1.420878	0.203487	0.576630
C44	C	1.420870	0.203494	0.423296
C45	C	1.342629	0.267388	0.653299
C46	C	1.264383	0.331290	0.576632
C47	C	1.264375	0.331288	0.423290
C48	C	1.342620	0.267390	0.346629
H49	H	0.900248	-0.192030	-0.000022
C50	C	1.681573	-0.345919	-0.000017
H51	H	1.674169	-0.278393	0.000008
H52	H	1.725958	-0.366409	-0.084957
H53	H	1.725914	-0.366432	0.084951
C54	C	1.316667	-0.374890	-0.000043
H55	H	1.255045	-0.325040	-0.000046
H56	H	1.306809	-0.413078	0.084900
H57	H	1.306813	-0.413058	-0.085007
C58	C	1.655599	0.011805	0.177965
H59	H	1.597797	0.059015	0.143286
H60	H	1.631626	-0.048945	0.143278
H61	H	1.737378	0.025370	0.143278
H62	H	1.097994	0.471213	-0.000077
H63	H	1.797561	-0.104129	0.360857
H64	H	1.797579	-0.104134	0.639051
H65	H	1.655620	0.011787	0.778150
C66	C	0.734029	-0.038544	-0.000065
H67	H	0.700426	0.024634	-0.000090
H68	H	0.706263	-0.071016	0.084877
H69	H	0.706308	-0.071011	-0.085031
H70	H	1.342637	0.267380	0.778152
H71	H	1.200673	0.383309	0.639066
C72	C	1.178300	0.401577	0.338967
H73	H	1.131712	0.439634	0.406594
H74	H	1.122168	0.367085	0.279157
H75	H	1.227929	0.441393	0.279147
C76	C	1.264212	0.317736	-0.000048
H77	H	1.289989	0.382098	-0.000050
H78	H	1.295879	0.286446	-0.084986
H79	H	1.295858	0.286456	0.084922
H80	H	1.342625	0.267387	0.221777
C81	C	0.839544	0.490739	-0.000107
H82	H	0.752715	0.476631	-0.000103
H83	H	0.858892	0.526638	-0.085054
H84	H	0.858874	0.526630	0.084853
H85	H	0.750342	0.307478	-0.000082
H86	H	1.247899	-0.028278	-0.000004
C87	C	1.158696	-0.211550	0.000022
H88	H	1.245524	-0.197437	0.000034
H89	H	1.139367	-0.247452	-0.084917
H90	H	1.139355	-0.247440	0.084990
