data_functionalizedCrystal
_audit_creation_method	'MofGen! by Chris Wilmer'
_symmetry_space_group_name_H-M	'P1'
_symmetry_Int_Tables_number	1
_symmetry_cell_setting	triclinic
loop_
_symmetry_equiv_pos_as_xyz
  x,y,z
_cell_length_a	6.817900
_cell_length_b	17.982968
_cell_length_c	11.102244
_cell_angle_alpha	94.232195
_cell_angle_beta	108.604870
_cell_angle_gamma	102.451960
loop_
_atom_site_label
_atom_site_type_symbol
_atom_site_fract_x
_atom_site_fract_y
_atom_site_fract_z
V1	V	-4.041367	-0.237546	-0.177029
O2	O	-4.001741	-0.233027	0.007282
O3	O	-4.018618	-0.235920	-0.349840
O4	O	-3.987550	-0.341150	-0.174843
O5	O	-4.033024	-0.127068	-0.168927
V6	V	-4.522373	-0.224333	-0.154920
O7	O	-4.308146	-0.266532	-0.225527
O8	O	-4.705791	-0.195347	-0.106421
O9	O	-4.321915	-0.225959	0.017892
O10	O	-4.679396	-0.228853	-0.339231
O11	O	-4.648112	-0.334811	-0.163022
O12	O	-4.352983	-0.120730	-0.157105
C13	C	-3.870034	-0.232172	-0.391951
C14	C	-3.932685	-0.231533	-0.533230
C15	C	-3.922552	-0.161465	-0.581114
C16	C	-3.981432	-0.160873	-0.713863
C17	C	-4.060567	-0.300423	-0.750835
C18	C	-4.001702	-0.301014	-0.618088
C19	C	-3.876856	-0.080897	-0.559769
C20	C	-3.935736	-0.080305	-0.692519
C21	C	-3.830402	-0.366402	-0.168724
C22	C	-3.867854	-0.451098	-0.168080
C23	C	-4.068315	-0.494770	-0.174146
C24	C	-4.103492	-0.574350	-0.173541
C25	C	-3.938211	-0.610259	-0.166878
C26	C	-3.737732	-0.566581	-0.160808
C27	C	-3.702553	-0.487001	-0.161404
C28	C	-3.879603	-0.887518	-0.158401
C29	C	-3.914801	-0.967104	-0.157809
C30	C	-4.280542	-0.974867	-0.170538
C31	C	-4.245363	-0.895287	-0.171134
C32	C	-4.044885	-0.851616	-0.165057
C33	C	-4.006742	-0.765325	-0.165711
C34	C	-3.976356	-0.696549	-0.166233
C35	C	-4.133842	-0.229705	0.059996
C36	C	-4.050429	-0.230349	0.201274
C37	C	-4.173474	-0.095473	-0.163229
C38	C	-4.115259	-0.010776	-0.163866
H39	H	-4.084687	-0.058129	-0.732209
H40	H	-3.716389	-0.851974	-0.153498
O41	O	-4.228625	-0.459789	-0.180445
C42	C	-4.347107	-0.364148	-0.077802
C43	C	-4.165361	-0.403683	-0.070525
H44	H	-4.296041	-0.318789	0.011070
H45	H	-4.383486	-0.335379	-0.167737
H46	H	-4.496426	-0.409054	-0.082092
H47	H	-4.015930	-0.358825	-0.066184
H48	H	-4.129167	-0.432468	0.019397
H49	H	-4.009974	-0.358070	-0.579109
O50	O	-3.754408	-1.002042	-0.151554
C51	C	-3.636026	-1.097754	-0.254108
C52	C	-3.817804	-1.058238	-0.261368
H53	H	-3.687233	-1.143208	-0.342868
H54	H	-3.486667	-1.052911	-0.249942
H55	H	-3.599650	-1.126432	-0.164077
H56	H	-3.854369	-1.029562	-0.351391
H57	H	-3.967052	-1.103114	-0.265464
H58	H	-4.443782	-1.010434	-0.175481
H59	H	-3.699556	-0.053071	-0.506828
H60	H	-3.603157	-0.595823	-0.155375
H61	H	-4.116766	-0.356992	-0.819942
H62	H	-4.266720	-0.609904	-0.178473
O63	O	-3.766135	-0.039739	-0.719572
C64	C	-3.398052	0.033667	-0.635474
C65	C	-3.589925	-0.012267	-0.604659
H66	H	-3.255552	0.055904	-0.542584
H67	H	-3.354276	-0.005332	-0.703075
H68	H	-3.442346	0.084482	-0.683581
H69	H	-3.545787	-0.063085	-0.556506
H70	H	-3.633657	0.026783	-0.537112
H71	H	-4.379958	-0.866056	-0.176566
H72	H	-3.539304	-0.451441	-0.156433
H73	H	-3.983743	-0.053038	-0.520534
