data_functionalizedCrystal
_audit_creation_method	'MofGen! by Chris Wilmer'
_symmetry_space_group_name_H-M	'P1'
_symmetry_Int_Tables_number	1
_symmetry_cell_setting	triclinic
loop_
_symmetry_equiv_pos_as_xyz
  x,y,z
_cell_length_a	18.101398
_cell_length_b	18.050589
_cell_length_c	18.050583
_cell_angle_alpha	90.028091
_cell_angle_beta	90.023549
_cell_angle_gamma	90.023488
loop_
_atom_site_label
_atom_site_type_symbol
_atom_site_fract_x
_atom_site_fract_y
_atom_site_fract_z
Zn1	Zn	1.132130	-0.295728	0.420040
Zn2	Zn	1.632130	0.204272	0.920040
Zn3	Zn	1.132034	-0.419933	0.295860
Zn4	Zn	1.632034	0.080067	0.795860
Zn5	Zn	1.008291	-0.295751	0.295853
Zn6	Zn	1.508291	0.204249	0.795853
Zn7	Zn	1.008246	-0.419870	0.419997
Zn8	Zn	1.508246	0.080130	0.919997
O9	O	1.070175	-0.357820	0.357937
O10	O	1.570175	0.142180	0.857937
O11	O	1.235750	-0.312220	0.403589
O12	O	1.735750	0.187780	0.903589
O13	O	1.115598	-0.403495	0.191934
O14	O	1.615598	0.096505	0.691934
O15	O	1.024777	-0.191823	0.312342
O16	O	1.524777	0.308177	0.812342
O17	O	1.235680	-0.403473	0.312354
O18	O	1.735680	0.096527	0.812354
O19	O	1.115762	-0.191806	0.403582
O20	O	1.615762	0.308194	0.903582
O21	O	1.024684	-0.312259	0.191929
O22	O	1.524684	0.187741	0.691929
O23	O	0.904652	-0.312199	0.312300
O24	O	1.404652	0.187801	0.812300
O25	O	1.024701	-0.403367	0.523927
O26	O	1.524701	0.096633	1.023927
O27	O	0.904619	-0.403389	0.403508
O28	O	1.404619	0.096611	0.903508
O29	O	1.115718	-0.312160	0.523959
O30	O	1.615718	0.187840	1.023959
O31	O	1.115554	-0.523849	0.312311
O32	O	1.615554	-0.023849	0.812311
O33	O	1.024608	-0.523803	0.403514
O34	O	1.524608	-0.023803	0.903514
C35	C	0.877765	-0.357790	0.357899
C36	C	1.377765	0.142210	0.857899
C37	C	0.795451	-0.357795	0.357900
C38	C	1.295451	0.142205	0.857900
C39	C	0.496360	-0.357842	0.357962
C40	C	0.996360	0.142158	0.857962
C41	C	0.527681	-0.300180	0.300857
C42	C	1.027681	0.199820	0.800857
C43	C	0.613299	-0.300335	0.300613
C44	C	1.113299	0.199665	0.800613
C45	C	0.644742	-0.357818	0.357931
C46	C	1.144742	0.142182	0.857931
C47	C	0.613628	-0.436051	0.336553
C48	C	1.113628	0.063949	0.836553
C49	C	0.527983	-0.435730	0.336156
C50	C	1.027983	0.064270	0.836156
C51	C	0.527972	-0.337950	0.436581
C52	C	1.027972	0.162050	0.936581
C53	C	0.613623	-0.336208	0.436152
C54	C	1.113623	0.163792	0.936152
C55	C	0.728602	-0.357809	0.357915
C56	C	1.228602	0.142191	0.857915
C57	C	0.412500	-0.357855	0.357977
C58	C	0.912500	0.142145	0.857977
C59	C	1.070086	-0.550773	0.357925
C60	C	1.570086	-0.050773	0.857925
C61	C	1.070115	-0.633318	0.357945
C62	C	1.570115	-0.133318	0.857945
C63	C	1.020707	-0.832771	0.407524
C64	C	1.520707	-0.332771	0.907524
C65	C	1.002656	-0.882215	0.339755
C66	C	1.502656	-0.382215	0.839755
C67	C	1.070188	-0.784449	0.357954
C68	C	1.570188	-0.284449	0.857954
C69	C	1.088275	-0.882086	0.425731
C70	C	1.588275	-0.382086	0.925731
C71	C	1.070257	-0.930434	0.357970
C72	C	1.570257	-0.430434	0.857970
C73	C	1.052102	-0.832806	0.290150
C74	C	1.552102	-0.332806	0.790150
C75	C	1.137752	-0.832672	0.376172
C76	C	1.637752	-0.332672	0.876172
C77	C	1.119727	-0.882094	0.308356
C78	C	1.619727	-0.382094	0.808356
C79	C	1.070147	-0.700350	0.357947
C80	C	1.570147	-0.200350	0.857947
C81	C	1.070299	-1.014530	0.357970
C82	C	1.570299	-0.514530	0.857970
C83	C	1.263337	-0.357851	0.357977
C84	C	1.763337	0.142149	0.857977
C85	C	1.345651	-0.357864	0.357994
C86	C	1.845651	0.142136	0.857994
C87	C	1.070215	-0.357754	0.551643
C88	C	1.570215	0.142246	1.051643
C89	C	1.070233	-0.357726	0.634189
C90	C	1.570233	0.142274	1.134189
C91	C	1.070285	-0.164115	0.357966
C92	C	1.570285	0.335885	0.857966
C93	C	1.070332	-0.081569	0.357978
C94	C	1.570332	0.418431	0.857978
C95	C	1.070178	-0.357833	0.164985
C96	C	1.570178	0.142167	0.664985
C97	C	1.070304	-0.357652	0.082440
C98	C	1.570304	0.142348	0.582440
C99	C	1.119774	-0.308077	0.883032
C100	C	1.619774	0.191923	1.383032
C101	C	1.137845	-0.375842	0.833625
C102	C	1.637845	0.124158	1.333625
C103	C	1.070280	-0.357679	0.931310
C104	C	1.570280	0.142321	1.431310
C105	C	1.052221	-0.289941	0.833635
C106	C	1.552221	0.210059	1.333635
C107	C	1.070259	-0.357698	0.785324
C108	C	1.570259	0.142302	1.285324
C109	C	1.088386	-0.425479	0.882990
C110	C	1.588386	0.074521	1.382990
C111	C	1.002731	-0.339532	0.883004
C112	C	1.502731	0.160468	1.383004
C113	C	1.020776	-0.407344	0.833619
C114	C	1.520776	0.092656	1.333619
C115	C	1.070295	-0.357666	1.015408
C116	C	1.570295	0.142334	1.515408
C117	C	1.070244	-0.357718	0.701228
C118	C	1.570244	0.142282	1.201228
H119	H	0.633754	-0.313485	0.242357
H120	H	1.133754	0.186515	0.742357
N121	N	1.172329	-0.255519	0.910268
N122	N	1.672329	0.244481	1.410268
N123	N	1.180387	-0.246706	0.978484
N124	N	1.680387	0.253294	1.478484
H125	H	1.217504	-0.209590	0.997722
H126	H	1.717504	0.290410	1.497722
N127	N	1.107619	-0.497380	0.910053
N128	N	1.607619	0.002620	1.410053
N129	N	1.068634	-0.552177	0.893703
N130	N	1.568634	-0.052177	1.393703
H131	H	1.082218	-0.602957	0.912816
H132	H	1.582218	-0.102957	1.412816
H133	H	0.633994	-0.480164	0.376844
H134	H	1.133994	0.019836	0.876844
H135	H	0.635045	-0.453212	0.279700
H136	H	1.135045	0.046788	0.779700
H137	H	0.507263	-0.480147	0.375935
H138	H	1.007263	0.019853	0.875935
H139	H	0.978912	-0.449347	0.812061
H140	H	1.478912	0.050653	1.312061
H141	H	1.103546	-0.903733	0.483043
H142	H	1.603546	-0.403733	0.983043
H143	H	0.945632	-0.324150	0.904711
H144	H	1.445632	0.175850	1.404711
H145	H	1.194960	-0.391203	0.811933
H146	H	1.694960	0.108797	1.311933
H147	H	0.635029	-0.375145	0.480979
H148	H	1.135029	0.124855	0.980979
N149	N	1.033076	-0.218066	0.806439
N150	N	1.533076	0.281934	1.306439
N151	N	1.072409	-0.163372	0.822290
N152	N	1.572409	0.336628	1.322290
H153	H	1.058895	-0.112608	0.803085
H154	H	1.558895	0.387392	1.303085
H155	H	0.634336	-0.242322	0.314013
H156	H	1.134336	0.257678	0.814013
H157	H	0.507107	-0.241990	0.314109
H158	H	1.007107	0.258010	0.814109
N159	N	0.502862	-0.456874	0.264057
N160	N	1.002862	0.043126	0.764057
N161	N	0.435186	-0.460456	0.250726
N162	N	0.935186	0.039544	0.750726
H163	H	0.417446	-0.475386	0.199804
H164	H	0.917446	0.024614	0.699804
N165	N	0.500900	-0.267637	0.460978
N166	N	1.000900	0.232363	0.960978
N167	N	0.432999	-0.257545	0.468460
N168	N	0.932999	0.242455	0.968460
H169	H	0.413877	-0.207884	0.485685
H170	H	0.913877	0.292116	0.985685
N171	N	0.500632	-0.316474	0.228204
N172	N	1.000632	0.183526	0.728204
N173	N	0.432689	-0.316292	0.215807
N174	N	0.932689	0.183708	0.715807
H175	H	0.413582	-0.327802	0.164497
H176	H	0.913582	0.172198	0.664497
N177	N	0.639139	-0.263984	0.456366
N178	N	1.139139	0.236016	0.956366
N179	N	0.680093	-0.228516	0.413366
N180	N	1.180093	0.271484	0.913366
H181	H	0.698118	-0.177507	0.427640
H182	H	1.198118	0.322493	0.927640
N183	N	0.502576	-0.390651	0.489948
N184	N	1.002576	0.109349	0.989948
N185	N	0.461374	-0.442655	0.470269
N186	N	0.961374	0.057345	0.970269
H187	H	0.443440	-0.479882	0.507953
H188	H	0.943440	0.020118	1.007953
N189	N	0.968134	-0.805607	0.460034
N190	N	1.468134	-0.305607	0.960034
N191	N	0.901269	-0.821519	0.453141
N192	N	1.401269	-0.321519	0.953141
H193	H	0.864137	-0.802334	0.490224
H194	H	1.364137	-0.302334	0.990224
N195	N	1.172267	-0.909099	0.255732
N196	N	1.672267	-0.409099	0.755732
N197	N	1.238969	-0.892258	0.261968
N198	N	1.738969	-0.392258	0.761968
H199	H	1.276075	-0.911332	0.224802
H200	H	1.776075	-0.411332	0.724802
N201	N	0.931012	-0.909507	0.320431
N202	N	1.431012	-0.409507	0.820431
N203	N	0.876427	-0.893717	0.359772
N204	N	1.376427	-0.393717	0.859772
H205	H	0.825826	-0.912989	0.346130
H206	H	1.325826	-0.412989	0.846130
H207	H	1.194844	-0.810896	0.391599
H208	H	1.694844	-0.310896	0.891599
N209	N	1.032852	-0.805757	0.218238
N210	N	1.532852	-0.305757	0.718238
N211	N	1.029684	-0.737568	0.206634
N212	N	1.529684	-0.237568	0.706634
H213	H	1.016082	-0.718462	0.155850
H214	H	1.516082	-0.218462	0.655850
