data_functionalizedCrystal
_audit_creation_method	'MofGen! by Chris Wilmer'
_symmetry_space_group_name_H-M	'P1'
_symmetry_Int_Tables_number	1
_symmetry_cell_setting	triclinic
loop_
_symmetry_equiv_pos_as_xyz
  x,y,z
_cell_length_a	29.839131
_cell_length_b	21.295420
_cell_length_c	21.295411
_cell_angle_alpha	90.025759
_cell_angle_beta	89.979636
_cell_angle_gamma	89.964538
loop_
_atom_site_label
_atom_site_type_symbol
_atom_site_fract_x
_atom_site_fract_y
_atom_site_fract_z
Zn1	Zn	-0.178976	-0.962308	-0.355937
Zn2	Zn	0.321024	-0.462308	0.144063
Zn3	Zn	-0.254091	-0.962190	-0.250665
Zn4	Zn	0.245909	-0.462190	0.249335
Zn5	Zn	-0.178968	-0.857031	-0.250680
Zn6	Zn	0.321032	-0.357031	0.249320
Zn7	Zn	-0.254072	-0.856980	-0.355894
Zn8	Zn	0.245928	-0.356980	0.144106
O9	O	-0.216527	-0.909627	-0.303294
O10	O	0.283473	-0.409627	0.196706
O11	O	-0.188952	-1.050381	-0.341984
O12	O	0.311048	-0.550381	0.158016
O13	O	-0.244131	-0.948212	-0.162577
O14	O	0.255869	-0.448212	0.337423
O15	O	-0.116102	-0.871066	-0.264667
O16	O	0.383898	-0.371066	0.235333
O17	O	-0.244139	-1.050295	-0.264641
O18	O	0.255861	-0.550295	0.235359
O19	O	-0.116108	-0.948413	-0.341999
O20	O	0.383892	-0.448413	0.158001
O21	O	-0.188939	-0.870952	-0.162588
O22	O	0.311061	-0.370952	0.337412
O23	O	-0.188920	-0.768935	-0.264625
O24	O	0.311080	-0.268935	0.235375
O25	O	-0.244105	-0.870980	-0.443989
O26	O	0.255895	-0.370980	0.056011
O27	O	-0.244098	-0.768897	-0.341926
O28	O	0.255902	-0.268897	0.158074
O29	O	-0.188932	-0.948364	-0.444021
O30	O	0.311068	-0.448364	0.055979
O31	O	-0.316956	-0.948163	-0.264600
O32	O	0.183044	-0.448163	0.235400
O33	O	-0.316942	-0.870866	-0.341911
O34	O	0.183058	-0.370866	0.158089
C35	C	-0.216506	-0.746075	-0.303273
C36	C	0.283494	-0.246075	0.196727
C37	C	-0.216508	-0.676107	-0.303279
C38	C	0.283492	-0.176107	0.196721
C39	C	-0.187843	-0.176694	-0.343627
C40	C	0.312157	0.323306	0.156373
C41	C	-0.187841	-0.242436	-0.343628
C42	C	0.312159	0.257564	0.156372
C43	C	-0.216527	-0.275268	-0.303296
C44	C	0.283473	0.224732	0.196704
C45	C	-0.245225	-0.242352	-0.262971
C46	C	0.254775	0.257648	0.237029
C47	C	-0.245229	-0.176610	-0.262975
C48	C	0.254771	0.323390	0.237025
N49	N	-0.219909	-0.378457	-0.248178
N50	N	0.280091	0.121543	0.251822
N51	N	-0.219902	-0.440908	-0.248176
N52	N	0.280098	0.059092	0.251824
C53	C	-0.216516	-0.473343	-0.303281
C54	C	0.283484	0.026657	0.196719
N55	N	-0.213129	-0.440966	-0.358390
N56	N	0.286871	0.059034	0.141610
N57	N	-0.213133	-0.378509	-0.358392
N58	N	0.286867	0.121491	0.141608
C59	C	-0.216526	-0.346553	-0.303287
C60	C	0.283474	0.153447	0.196713
C61	C	-0.187820	-0.577537	-0.343608
C62	C	0.312180	-0.077537	0.156392
C63	C	-0.187821	-0.643280	-0.343611
C64	C	0.312179	-0.143280	0.156389
C65	C	-0.245203	-0.643194	-0.262948
C66	C	0.254797	-0.143194	0.237052
C67	C	-0.245204	-0.577452	-0.262951
C68	C	0.254796	-0.077452	0.237049
C69	C	-0.216510	-0.544627	-0.303280
C70	C	0.283490	-0.044627	0.196720
C71	C	-0.333250	-0.909513	-0.303263
C72	C	0.166750	-0.409513	0.196737
C73	C	-0.383184	-0.909522	-0.303271
C74	C	0.116816	-0.409522	0.196729
C75	C	-0.692822	-0.949949	-0.263097
C76	C	-0.192822	-0.449949	0.236903
C77	C	-0.880495	-0.950027	-0.263121
C78	C	-0.380495	-0.450027	0.236879
O79	O	-0.904756	-0.984309	-0.228940
O80	O	-0.404756	-0.484309	0.271060
N81	N	-0.903969	-0.909758	-0.303342
N82	N	-0.403969	-0.409758	0.196658
C83	C	-0.880522	-0.869469	-0.343562
C84	C	-0.380522	-0.369469	0.156438
O85	O	-0.904794	-0.835224	-0.377777
O86	O	-0.404794	-0.335224	0.122223
C87	C	-0.692849	-0.869395	-0.343540
C88	C	-0.192849	-0.369395	0.156460
C89	C	-0.669378	-0.909662	-0.303312
C90	C	-0.169378	-0.409662	0.196688
C91	C	-0.669351	-0.990213	-0.222873
C92	C	-0.169351	-0.490213	0.277127
C93	C	-0.622435	-0.990191	-0.222865
C94	C	-0.122435	-0.490191	0.277135
C95	C	-0.598991	-0.949904	-0.263080
C96	C	-0.098991	-0.449904	0.236920
C97	C	-0.622463	-0.909640	-0.303304
C98	C	-0.122463	-0.409640	0.196696
C99	C	-0.669403	-0.829110	-0.383763
C100	C	-0.169403	-0.329110	0.116237
C101	C	-0.622482	-0.829097	-0.383755
C102	C	-0.122482	-0.329097	0.116245
C103	C	-0.599011	-0.869364	-0.343527
C104	C	-0.099011	-0.369364	0.156473
C105	C	-0.552103	-0.869331	-0.343512
C106	C	-0.052103	-0.369331	0.156488
N107	N	-0.528629	-0.909600	-0.303291
N108	N	-0.028629	-0.409600	0.196709
C109	C	-0.552073	-0.949887	-0.263076
C110	C	-0.052073	-0.449887	0.236924
C111	C	-0.979052	-0.869510	-0.343569
C112	C	-0.479052	-0.369510	0.156431
C113	C	-1.025970	-0.869528	-0.343574
C114	C	-0.525970	-0.369528	0.156426
C115	C	-1.025940	-0.950086	-0.263134
C116	C	-0.525940	-0.450086	0.236866
C117	C	-0.979022	-0.950065	-0.263127
C118	C	-0.479022	-0.450065	0.236873
C119	C	-0.955578	-0.909779	-0.303349
C120	C	-0.455578	-0.409779	0.196651
C121	C	-0.453548	-0.949837	-0.263061
C122	C	0.046452	-0.449837	0.236939
C123	C	-0.406628	-0.949809	-0.263055
C124	C	0.093372	-0.449809	0.236945
C125	C	-0.406662	-0.869253	-0.343497
C126	C	0.093338	-0.369253	0.156503
C127	C	-0.453577	-0.869278	-0.343501
C128	C	0.046423	-0.369278	0.156499
C129	C	-0.477019	-0.909575	-0.303281
C130	C	0.022981	-0.409575	0.196719
O131	O	-0.527814	-0.835072	-0.377680
O132	O	-0.027814	-0.335072	0.122320
O133	O	-0.527793	-0.984136	-0.228876
O134	O	-0.027793	-0.484136	0.271124
C135	C	-0.739738	-0.949971	-0.263105
C136	C	-0.239738	-0.449971	0.236895
C137	C	-0.763209	-0.909707	-0.303329
C138	C	-0.263209	-0.409707	0.196671
C139	C	-0.739765	-0.869420	-0.343544
C140	C	-0.239765	-0.369420	0.156456
C141	C	-0.810127	-0.909724	-0.303333
C142	C	-0.310127	-0.409724	0.196667
C143	C	-0.833571	-0.950011	-0.263118
C144	C	-0.333571	-0.450011	0.236882
C145	C	-0.810097	-0.990280	-0.222897
C146	C	-0.310097	-0.490280	0.277103
C147	C	-0.763182	-0.990258	-0.222889
C148	C	-0.263182	-0.490258	0.277111
C149	C	-0.763239	-0.829151	-0.383765
C150	C	-0.263239	-0.329151	0.116235
C151	C	-0.810154	-0.829176	-0.383769
C152	C	-0.310154	-0.329176	0.116231
C153	C	-0.833598	-0.869463	-0.343553
C154	C	-0.333598	-0.369463	0.156447
C155	C	-0.099349	-0.909758	-0.303339
C156	C	0.400651	-0.409758	0.196661
C157	C	-0.049414	-0.909814	-0.303358
C158	C	0.450586	-0.409814	0.196642
C159	C	-0.216517	-0.909679	-0.467484
C160	C	0.283483	-0.409679	0.032516
C161	C	-0.216513	-0.909702	-0.537452
C162	C	0.283487	-0.409702	-0.037452
C163	C	-0.216543	-0.073817	-0.303310
C164	C	0.283457	0.426183	0.196690
C165	C	-0.216535	-0.143785	-0.303304
C166	C	0.283465	0.356215	0.196696
C167	C	-0.187784	-0.949993	-0.570337
C168	C	0.312216	-0.449993	-0.070337
C169	C	-0.187764	-0.949993	-0.636079
C170	C	0.312236	-0.449993	-0.136079
C171	C	-0.216482	-0.909706	-0.668935
C172	C	0.283518	-0.409706	-0.168935
C173	C	-0.245214	-0.869407	-0.636043
C174	C	0.254786	-0.369407	-0.136043
C175	C	-0.245230	-0.869404	-0.570302
C176	C	0.254770	-0.369404	-0.070302
N177	N	-0.255783	-0.904839	-0.772152
N178	N	0.244217	-0.404839	-0.272152
N179	N	-0.255767	-0.904845	-0.834603
N180	N	0.244233	-0.404845	-0.334603
C181	C	-0.216437	-0.909710	-0.867010
C182	C	0.283563	-0.409710	-0.367010
N183	N	-0.177123	-0.914582	-0.834606
N184	N	0.322877	-0.414582	-0.334606
N185	N	-0.177139	-0.914579	-0.772149
N186	N	0.322861	-0.414579	-0.272149
C187	C	-0.216469	-0.909704	-0.740220
C188	C	0.283531	-0.409704	-0.240220
C189	C	-0.187684	-0.950004	-0.971179
C190	C	0.312316	-0.450004	-0.471179
C191	C	-0.187663	-0.949998	-1.036923
C192	C	0.312337	-0.449998	-0.536923
C193	C	-0.245117	-0.869416	-1.036886
C194	C	0.254883	-0.369416	-0.536886
C195	C	-0.245134	-0.869418	-0.971144
C196	C	0.254866	-0.369418	-0.471144
C197	C	-0.216417	-0.909715	-0.938294
C198	C	0.283583	-0.409715	-0.438294
C199	C	-0.216504	-0.909611	-0.139742
C200	C	0.283496	-0.409611	0.360258
C201	C	-0.216381	-0.909711	-0.069775
C202	C	0.283619	-0.409711	0.430225
H203	H	-0.268582	-0.269087	-0.230134
H204	H	0.231418	0.230913	0.269866
H205	H	-0.268595	-0.149817	-0.230139
H206	H	0.231405	0.350183	0.269861
H207	H	-0.472689	-0.836491	-0.376260
H208	H	0.027311	-0.336491	0.123740
H209	H	-0.164456	-0.550809	-0.376447
H210	H	0.335544	-0.050809	0.123553
H211	H	-0.164400	-0.982806	-0.543595
H212	H	0.335600	-0.482806	-0.043595
C213	C	-0.156056	-0.994324	-1.073096
C214	C	0.343944	-0.494324	-0.573096
N215	N	-0.132249	-1.027711	-1.100341
N216	N	0.367751	-0.527711	-0.600341
C217	C	-0.156092	-0.994325	-0.935043
C218	C	0.343908	-0.494325	-0.435043
N219	N	-0.132295	-1.027708	-0.907827
N220	N	0.367705	-0.527708	-0.407827
H221	H	-0.164458	-0.670073	-0.376450
H222	H	0.335542	-0.170073	0.123550
C223	C	-0.276708	-0.825101	-1.073024
C224	C	0.223292	-0.325101	-0.573024
N225	N	-0.300503	-0.791721	-1.100246
N226	N	0.199497	-0.291721	-0.600246
H227	H	-0.268563	-0.669925	-0.230114
H228	H	0.231437	-0.169925	0.269886
H229	H	-0.268531	-0.836611	-0.944369
H230	H	0.231469	-0.336611	-0.444369
H231	H	-0.164474	-0.269235	-0.376462
H232	H	0.335526	0.230765	0.123538
C233	C	-0.156283	-0.140590	-0.387995
C234	C	0.343717	0.359410	0.112005
N235	N	-0.132512	-0.113396	-0.421416
N236	N	0.367488	0.386604	0.078584
C237	C	-0.276837	-0.825080	-0.534128
C238	C	0.223163	-0.325080	-0.034128
N239	N	-0.300645	-0.791694	-0.506881
N240	N	0.199355	-0.291694	-0.006881
H241	H	-1.045076	-0.836732	-0.376325
H242	H	-0.545076	-0.336732	0.123675
H243	H	-0.268567	-0.550658	-0.230114
H244	H	0.231433	-0.050658	0.269886
H245	H	-0.387519	-0.982599	-0.230295
H246	H	0.112481	-0.482599	0.269705
H247	H	-0.472628	-0.982652	-0.230312
H248	H	0.027372	-0.482652	0.269688
C249	C	-0.596623	-1.034483	-0.178606
C250	C	-0.096623	-0.534483	0.321394
N251	N	-0.577184	-1.067845	-0.145266
N252	N	-0.077184	-0.567845	0.354734
H253	H	-0.688434	-1.023023	-0.190124
H254	H	-0.188434	-0.523023	0.309876
H255	H	-0.959914	-0.982854	-0.230370
H256	H	-0.459914	-0.482854	0.269630
H257	H	-0.164367	-0.982802	-0.662858
H258	H	0.335633	-0.482802	-0.162858
H259	H	-1.045037	-0.982889	-0.230389
H260	H	-0.545037	-0.482889	0.269611
C261	C	-0.276802	-0.825089	-0.672186
C262	C	0.223198	-0.325089	-0.172186
N263	N	-0.300594	-0.791705	-0.699409
N264	N	0.199406	-0.291705	-0.199409
H265	H	-0.387566	-0.836450	-0.376238
H266	H	0.112434	-0.336450	0.123762
C267	C	-0.953270	-0.825206	-0.387836
C268	C	-0.453270	-0.325206	0.112164
N269	N	-0.933854	-0.791841	-0.421184
N270	N	-0.433854	-0.291841	0.078816
C271	C	-0.737369	-1.034553	-0.178633
C272	C	-0.237369	-0.534553	0.321367
N273	N	-0.717930	-1.067918	-0.145296
N274	N	-0.217930	-0.567918	0.354704
H275	H	-0.688505	-0.796318	-0.416517
H276	H	-0.188505	-0.296318	0.083483
H277	H	-0.603397	-0.796292	-0.416511
H278	H	-0.103397	-0.296292	0.083489
H279	H	-0.829194	-1.023081	-0.190150
H280	H	-0.329194	-0.523081	0.309850
H281	H	-0.744154	-0.796346	-0.416514
H282	H	-0.244154	-0.296346	0.083486
C283	C	-0.835967	-0.784875	-0.428025
C284	C	-0.335967	-0.284875	0.071975
N285	N	-0.855408	-0.751512	-0.461361
N286	N	-0.355408	-0.251512	0.038639
