data_functionalizedCrystal
_audit_creation_method	'MofGen! by Chris Wilmer'
_symmetry_space_group_name_H-M	'P1'
_symmetry_Int_Tables_number	1
_symmetry_cell_setting	triclinic
loop_
_symmetry_equiv_pos_as_xyz
  x,y,z
_cell_length_a	19.805407
_cell_length_b	18.101395
_cell_length_c	19.805407
_cell_angle_alpha	90.010856
_cell_angle_beta	90.009221
_cell_angle_gamma	90.031104
loop_
_atom_site_label
_atom_site_type_symbol
_atom_site_fract_x
_atom_site_fract_y
_atom_site_fract_z
Zn1	Zn	1.034644	-0.294951	0.382731
Zn2	Zn	1.034570	-0.418764	0.269548
Zn3	Zn	0.921480	-0.294941	0.269556
Zn4	Zn	0.921413	-0.418755	0.382694
O5	O	0.978027	-0.356853	0.326132
O6	O	1.129351	-0.311383	0.367729
O7	O	1.019565	-0.402338	0.174832
O8	O	0.936550	-0.191309	0.284587
O9	O	1.129297	-0.402348	0.284574
O10	O	1.019691	-0.191317	0.367737
O11	O	0.936478	-0.311365	0.174838
O12	O	0.826754	-0.311357	0.284552
O13	O	0.936437	-0.402333	0.477416
O14	O	0.826706	-0.402323	0.367674
O15	O	1.019627	-0.311375	0.477443
O16	O	1.019501	-0.522396	0.284538
O17	O	0.936365	-0.522389	0.367667
C18	C	0.802171	-0.356839	0.326110
C19	C	0.726939	-0.356850	0.326117
C20	C	0.691587	-0.404288	0.369329
C21	C	0.620899	-0.404289	0.369338
C22	C	0.585563	-0.356856	0.326132
C23	C	0.620920	-0.309414	0.282918
C24	C	0.691607	-0.309409	0.282913
C25	C	0.335847	-0.309430	0.282941
C26	C	0.265155	-0.309440	0.282948
C27	C	0.265138	-0.404310	0.369366
C28	C	0.335825	-0.404305	0.369361
C29	C	0.371176	-0.356860	0.326150
C30	C	0.447824	-0.356858	0.326141
C31	C	0.508916	-0.356861	0.326137
C32	C	0.977936	-0.549263	0.326112
C33	C	0.977960	-0.631577	0.326126
C34	C	0.978108	-0.930668	0.326163
C35	C	0.925922	-0.899370	0.378595
C36	C	0.925674	-0.813752	0.378431
C37	C	0.978034	-0.782286	0.326145
C38	C	0.958736	-0.813415	0.254811
C39	C	0.958400	-0.899060	0.255125
C40	C	1.049706	-0.899018	0.344438
C41	C	1.049285	-0.813367	0.346002
C42	C	0.977994	-0.698426	0.326131
C43	C	0.978147	-1.014528	0.326172
C44	C	1.154570	-0.356867	0.326155
C45	C	1.229802	-0.356874	0.326164
C46	C	0.978033	-0.356854	0.502675
C47	C	0.978036	-0.356855	0.577907
C48	C	0.978136	-0.163691	0.326167
C49	C	0.978183	-0.081377	0.326182
C50	C	1.021347	-0.309500	0.613266
C51	C	1.021342	-0.309498	0.683955
C52	C	0.978027	-0.356855	0.719282
C53	C	0.934710	-0.404211	0.683918
C54	C	0.934713	-0.404209	0.613231
C55	C	0.934697	-0.404220	0.968992
C56	C	0.934699	-0.404220	1.039684
C57	C	1.021325	-0.309508	1.039715
C58	C	1.021328	-0.309506	0.969028
C59	C	0.978009	-0.356860	0.933670
C60	C	0.978015	-0.356861	0.857021
C61	C	0.978024	-0.356858	0.795930
C62	C	0.978014	-0.356866	1.150276
C63	C	0.978008	-0.356861	1.075044
H64	H	0.364592	-0.442932	0.404541
H65	H	0.872604	-0.793325	0.366326
H66	H	0.906954	-0.792025	0.239053
N67	N	0.582807	-0.258267	0.236307
H68	H	0.553491	-0.223998	0.263861
H69	H	0.553506	-0.288382	0.204910
H70	H	0.592118	-0.442918	0.404525
N71	N	0.227005	-0.455477	0.415977
H72	H	0.239326	-0.444061	0.464356
H73	H	0.239295	-0.508350	0.405317
N74	N	1.073031	-0.927580	0.412161
H75	H	1.039909	-0.912018	0.448224
H76	H	1.119068	-0.906573	0.422818
N77	N	1.068569	-0.786419	0.415540
H78	H	1.031313	-0.754209	0.434108
H79	H	1.111742	-0.756872	0.412634
N80	N	1.068065	-0.258430	0.722090
H81	H	1.061490	-0.265613	0.772231
H82	H	1.057567	-0.205537	0.709742
N83	N	1.068050	-0.258431	0.930928
H84	H	1.057567	-0.205517	0.943236
H85	H	1.061460	-0.265679	0.880795
N86	N	1.006539	-0.926491	0.201594
H87	H	1.006691	-0.982286	0.201375
H88	H	1.053515	-0.907735	0.211641
H89	H	0.899437	-0.442763	0.584442
H90	H	0.899440	-0.442768	0.712688
H91	H	1.090221	-0.791944	0.310597
N92	N	0.373979	-0.258271	0.236335
H93	H	0.403327	-0.223997	0.263897
H94	H	0.340831	-0.228272	0.208969
N95	N	1.068048	-0.258430	1.077851
H96	H	1.061474	-0.265612	1.127992
H97	H	1.057547	-0.205538	1.065501
N98	N	1.068074	-0.258427	0.575169
H99	H	1.099425	-0.288530	0.545847
H100	H	1.095464	-0.228442	0.608344
N101	N	0.887979	-0.455300	1.077790
H102	H	0.860535	-0.485297	1.044665
H103	H	0.856677	-0.425149	1.107120
H104	H	0.720352	-0.442915	0.404510
N105	N	1.101211	-0.925819	0.293856
H106	H	1.078315	-0.958304	0.259268
H107	H	1.137313	-0.955045	0.317991
H108	H	0.899434	-0.442789	0.940212
H109	H	0.720390	-0.270777	0.247729
N110	N	0.227040	-0.258278	0.236345
H111	H	0.260160	-0.228220	0.208971
H112	H	0.197731	-0.224061	0.263957
H113	H	0.937875	-0.919934	0.431660
N114	N	0.941660	-0.785864	0.448493
H115	H	0.948931	-0.829207	0.479763
H116	H	0.902782	-0.754986	0.465559
N117	N	0.856048	-0.927949	0.362768
H118	H	0.855948	-0.983685	0.365132
H119	H	0.842587	-0.911678	0.315887
N120	N	0.889072	-0.925603	0.234624
H121	H	0.869007	-0.956227	0.272234
H122	H	0.892793	-0.956661	0.192421
N123	N	1.007497	-0.786421	0.201647
H124	H	1.042649	-0.753674	0.223344
H125	H	0.982066	-0.757425	0.166284
