data_functionalizedCrystal
_audit_creation_method	'MofGen! by Chris Wilmer'
_symmetry_space_group_name_H-M	'P1'
_symmetry_Int_Tables_number	1
_symmetry_cell_setting	triclinic
loop_
_symmetry_equiv_pos_as_xyz
  x,y,z
_cell_length_a	17.699083
_cell_length_b	10.868271
_cell_length_c	17.699092
_cell_angle_alpha	90.003449
_cell_angle_beta	83.284691
_cell_angle_gamma	89.998288
loop_
_atom_site_label
_atom_site_type_symbol
_atom_site_fract_x
_atom_site_fract_y
_atom_site_fract_z
O1	O	1.004078	0.102145	0.095711
O2	O	0.783700	0.102185	0.108164
O3	O	0.900112	0.102161	-0.008251
O4	O	0.887666	0.102169	0.212126
O5	O	0.900103	-0.102484	-0.008256
O6	O	0.783691	-0.102460	0.108159
O7	O	1.004069	-0.102499	0.095707
Zn8	Zn	0.893878	-0.134971	0.101932
Zn9	Zn	0.893891	0.134657	0.101938
O10	O	0.887657	-0.102476	0.212122
C11	C	0.755499	-0.000132	0.107715
C12	C	0.671480	-0.000117	0.106377
N13	N	0.893875	-0.318985	0.101928
C14	C	0.622862	-0.000115	0.174710
C15	C	0.543918	-0.000131	0.173448
C16	C	0.513595	-0.000140	0.103851
C17	C	0.562220	-0.000146	0.035513
C18	C	0.641162	-0.000139	0.036776
C19	C	0.243857	-0.000177	0.030418
C20	C	0.164909	-0.000180	0.029160
C21	C	0.146613	-0.000169	0.167089
C22	C	0.225555	-0.000162	0.168352
C23	C	0.274173	-0.000174	0.100014
C24	C	0.359772	-0.000159	0.101384
C25	C	0.427998	-0.000146	0.102481
C26	C	0.893887	-0.569991	0.101937
C27	C	0.893878	-0.430314	0.101934
C28	C	1.032271	-0.000180	0.096155
C29	C	1.116289	-0.000187	0.097494
C30	C	0.899661	-0.000159	-0.036450
C31	C	0.898319	-0.000153	-0.120468
N32	N	0.893900	0.318671	0.101937
C33	C	0.897696	0.111400	-0.159933
C34	C	0.896431	0.111402	-0.238876
C35	C	0.895795	-0.000151	-0.278353
C36	C	0.896416	-0.111713	-0.238883
C37	C	0.897675	-0.111714	-0.159940
C38	C	0.891336	-0.111714	-0.557248
C39	C	0.890078	-0.111705	-0.636196
C40	C	0.890092	0.111401	-0.636183
C41	C	0.891351	0.111401	-0.557241
C42	C	0.891968	-0.000160	-0.517777
C43	C	0.893338	-0.000161	-0.432178
C44	C	0.894430	-0.000152	-0.363952
C45	C	0.888109	-0.000153	0.240321
C46	C	0.889450	-0.000150	0.324339
H47	H	0.647544	-0.000107	0.231383
H48	H	0.107018	-0.000165	0.222733
C49	C	0.086742	-0.105396	-0.052273
C50	C	0.131574	-0.000198	-0.047345
H51	H	0.066158	-0.105399	-0.099499
H52	H	0.117160	-0.176746	-0.048918
H53	H	0.046493	-0.105375	-0.011749
H54	H	0.171827	-0.000224	-0.087865
H55	H	0.101154	0.071171	-0.050707
H56	H	0.889558	-0.202550	-0.668336
H57	H	0.895893	-0.202542	-0.271031
H58	H	0.283433	-0.000188	-0.025227
H59	H	0.898172	-0.202552	-0.127808
C60	C	0.740557	0.105062	-0.041818
C61	C	0.694611	-0.000137	-0.038336
H62	H	0.773556	0.105053	-0.088189
H63	H	0.709378	0.176412	-0.039448
H64	H	0.769907	0.105054	-0.000183
H65	H	0.665256	-0.000124	-0.079968
H66	H	0.725793	-0.071505	-0.040713
H67	H	0.537525	-0.000171	-0.021154
H68	H	0.895927	0.202240	-0.271005
H69	H	0.504335	-0.000128	0.229091
H70	H	0.898219	0.202240	-0.127797
C71	C	0.199538	-0.000167	0.304568
C72	C	0.258885	-0.000158	0.244854
H73	H	0.220115	-0.000176	0.351797
H74	H	0.169127	0.071192	0.301212
H75	H	0.169130	-0.071537	0.301198
H76	H	0.289289	0.071218	0.248221
H77	H	0.289308	-0.071523	0.248212
H78	H	0.891873	0.202239	-0.525103
H79	H	0.889585	0.202240	-0.668324
H80	H	0.891853	-0.202554	-0.525127
