data_functionalizedCrystal
_audit_creation_method	'MofGen! by Chris Wilmer'
_symmetry_space_group_name_H-M	'P1'
_symmetry_Int_Tables_number	1
_symmetry_cell_setting	triclinic
loop_
_symmetry_equiv_pos_as_xyz
  x,y,z
_cell_length_a	14.044220
_cell_length_b	10.868271
_cell_length_c	11.792241
_cell_angle_alpha	90.005281
_cell_angle_beta	91.308853
_cell_angle_gamma	90.000690
loop_
_atom_site_label
_atom_site_type_symbol
_atom_site_fract_x
_atom_site_fract_y
_atom_site_fract_z
O1	O	1.259113	-0.102192	-0.273771
O2	O	1.509113	0.147808	-0.023771
O3	O	1.759113	0.397808	0.226229
O4	O	2.009113	0.647808	0.476229
O5	O	0.983093	-0.102224	-0.263891
O6	O	1.233093	0.147776	-0.013891
O7	O	1.483093	0.397776	0.236109
O8	O	1.733093	0.647776	0.486109
O9	O	1.127802	-0.102199	-0.104289
O10	O	1.377802	0.147801	0.145711
O11	O	1.627802	0.397801	0.395711
O12	O	1.877802	0.647801	0.645711
O13	O	1.114405	-0.102217	-0.433373
O14	O	1.364405	0.147783	-0.183373
O15	O	1.614405	0.397783	0.066627
O16	O	1.864405	0.647783	0.316627
O17	O	1.127790	0.102446	-0.104281
O18	O	1.377790	0.352446	0.145719
O19	O	1.627790	0.602446	0.395719
O20	O	1.877790	0.852446	0.645719
O21	O	0.983081	0.102421	-0.263883
O22	O	1.233081	0.352421	-0.013883
O23	O	1.483081	0.602421	0.236117
O24	O	1.733081	0.852421	0.486117
O25	O	1.259101	0.102452	-0.273763
O26	O	1.509101	0.352452	-0.023763
O27	O	1.759101	0.602452	0.226237
O28	O	2.009101	0.852452	0.476237
Zn29	Zn	1.121089	0.134928	-0.268822
Zn30	Zn	1.371089	0.384928	-0.018822
Zn31	Zn	1.621089	0.634928	0.231178
Zn32	Zn	1.871089	0.884928	0.481178
Zn33	Zn	1.121105	-0.134700	-0.268832
Zn34	Zn	1.371105	0.115300	-0.018832
Zn35	Zn	1.621105	0.365300	0.231168
Zn36	Zn	1.871105	0.615300	0.481168
O37	O	1.114393	0.102427	-0.433365
O38	O	1.364393	0.352427	-0.183365
O39	O	1.614393	0.602427	0.066635
O40	O	1.864393	0.852427	0.316635
C41	C	0.947751	0.000095	-0.259563
C42	C	1.197751	0.250095	-0.009563
C43	C	1.447751	0.500095	0.240437
C44	C	1.697751	0.750095	0.490437
C45	C	0.842459	0.000083	-0.246664
C46	C	1.092459	0.250083	0.003336
C47	C	1.342459	0.500083	0.253336
C48	C	1.592459	0.750083	0.503336
N49	N	1.121086	0.318942	-0.268815
N50	N	1.371086	0.568942	-0.018815
N51	N	1.621086	0.818942	0.231185
N52	N	1.871086	1.068942	0.481185
N53	N	1.121117	-0.318714	-0.268831
N54	N	1.371117	-0.068714	-0.018831
N55	N	1.621117	0.181286	0.231169
N56	N	1.871117	0.431286	0.481169
C57	C	0.649676	0.000109	-0.223082
C58	C	0.899676	0.250109	0.026918
C59	C	1.149676	0.500109	0.276918
C60	C	1.399676	0.750109	0.526918
C61	C	0.592513	0.000109	-0.314567
C62	C	0.842513	0.250109	-0.064567
C63	C	1.092513	0.500109	0.185433
C64	C	1.342513	0.750109	0.435433
C65	C	0.485242	0.000123	-0.301445
C66	C	0.735242	0.250123	-0.051445
C67	C	0.985242	0.500123	0.198555
C68	C	1.235242	0.750123	0.448555
C69	C	0.756957	0.000095	-0.236202
C70	C	1.006957	0.250095	0.013798
C71	C	1.256957	0.500095	0.263798
C72	C	1.506957	0.750095	0.513798
C73	C	1.294444	0.000131	-0.278091
C74	C	1.544444	0.250131	-0.028091
C75	C	1.794444	0.500131	0.221909
C76	C	2.044444	0.750131	0.471909
C77	C	1.399736	0.000135	-0.290990
C78	C	1.649736	0.250135	-0.040990
C79	C	1.899736	0.500135	0.209010
C80	C	2.149736	0.750135	0.459010
C81	C	1.126954	0.000123	-0.061915
C82	C	1.376954	0.250123	0.188085
C83	C	1.626954	0.500123	0.438085
C84	C	1.876954	0.750123	0.688085
C85	C	1.124435	0.000122	0.064335
C86	C	1.374435	0.250122	0.314335
C87	C	1.624435	0.500122	0.564335
C88	C	1.874435	0.750122	0.814335
C89	C	1.121100	0.569949	-0.268829
C90	C	1.371100	0.819949	-0.018829
C91	C	1.621100	1.069949	0.231171
C92	C	1.871100	1.319949	0.481171
C93	C	1.121089	0.430271	-0.268824
C94	C	1.371089	0.680271	-0.018824
C95	C	1.621089	0.930271	0.231176
C96	C	1.871089	1.180271	0.481176
C97	C	1.115241	0.000103	-0.475739
C98	C	1.365241	0.250103	-0.225739
C99	C	1.615241	0.500103	0.024261
C100	C	1.865241	0.750103	0.274261
C101	C	1.117759	0.000096	-0.601989
C102	C	1.367759	0.250096	-0.351989
C103	C	1.617759	0.500096	-0.101989
C104	C	1.867759	0.750096	0.148011
C105	C	1.119804	0.000101	0.295482
C106	C	1.369804	0.250101	0.545482
C107	C	1.619804	0.500101	0.795482
C108	C	1.869804	0.750101	1.045482
C109	C	1.122377	0.000112	0.166855
C110	C	1.372377	0.250112	0.416855
C111	C	1.622377	0.500112	0.666855
C112	C	1.872377	0.750112	0.916855
H113	H	0.618054	0.000121	-0.134912
H114	H	0.868054	0.250121	0.115088
H115	H	1.118054	0.500121	0.365088
H116	H	1.368054	0.750121	0.615088
H117	H	0.624137	0.000098	-0.402744
H118	H	0.874137	0.250098	-0.152744
H119	H	1.124137	0.500098	0.097256
H120	H	1.374137	0.750098	0.347256
