data_functionalizedCrystal
_audit_creation_method	'MofGen! by Chris Wilmer'
_symmetry_space_group_name_H-M	'P1'
_symmetry_Int_Tables_number	1
_symmetry_cell_setting	triclinic
loop_
_symmetry_equiv_pos_as_xyz
  x,y,z
_cell_length_a	14.971486
_cell_length_b	14.044220
_cell_length_c	13.448316
_cell_angle_alpha	89.992660
_cell_angle_beta	89.998199
_cell_angle_gamma	88.401503
loop_
_atom_site_label
_atom_site_type_symbol
_atom_site_fract_x
_atom_site_fract_y
_atom_site_fract_z
O1	O	1.196679	0.123538	-0.082579
O2	O	1.696679	0.623538	0.417421
O3	O	0.937445	0.138332	-0.082607
O4	O	1.437445	0.638332	0.417393
O5	O	1.063171	-0.007054	-0.082584
O6	O	1.563171	0.492946	0.417416
O7	O	1.070953	0.268924	-0.082602
O8	O	1.570953	0.768924	0.417398
O9	O	1.063153	-0.007063	0.082800
O10	O	1.563153	0.492937	0.582800
O11	O	0.937427	0.138323	0.082777
O12	O	1.437427	0.638323	0.582777
O13	O	1.196661	0.123529	0.082804
O14	O	1.696661	0.623529	0.582804
Cu15	Cu	1.067042	0.130925	0.097892
Cu16	Cu	1.567042	0.630925	0.597892
Cu17	Cu	1.067064	0.130936	-0.097694
Cu18	Cu	1.567064	0.630936	0.402306
O19	O	1.070935	0.268915	0.082781
O20	O	1.570935	0.768915	0.582781
C21	C	0.904059	0.137666	0.000082
C22	C	1.404059	0.637666	0.500082
C23	C	0.804606	0.135683	0.000072
C24	C	1.304606	0.635683	0.500072
C25	C	1.059755	-0.042377	0.000108
C26	C	1.559755	0.457623	0.500108
C27	C	1.049594	-0.147614	0.000108
C28	C	1.549594	0.352386	0.500108
C29	C	0.754109	0.221093	0.000067
C30	C	1.254109	0.721093	0.500067
C31	C	0.660662	0.219225	0.000082
C32	C	1.160662	0.719225	0.500082
C33	C	0.617714	0.131945	0.000094
C34	C	1.117714	0.631945	0.500094
C35	C	0.668218	0.046528	0.000102
C36	C	1.168218	0.546528	0.500102
C37	C	0.761663	0.048398	0.000094
C38	C	1.261663	0.548398	0.500094
C39	C	0.473449	0.042638	0.000116
C40	C	0.973449	0.542638	0.500116
C41	C	0.379997	0.040767	0.000122
C42	C	0.879997	0.540767	0.500122
C43	C	0.372448	0.213465	0.000104
C44	C	0.872448	0.713465	0.500104
C45	C	0.465893	0.215334	0.000096
C46	C	0.965893	0.715334	0.500096
C47	C	0.516390	0.129917	0.000102
C48	C	1.016390	0.629917	0.500102
C49	C	1.031018	-0.340297	0.000092
C50	C	1.531018	0.159703	0.500092
C51	C	1.103085	-0.397848	0.000097
C52	C	1.603085	0.102152	0.500097
C53	C	1.092748	-0.505063	0.000088
C54	C	1.592748	-0.005063	0.500088
C55	C	1.041353	-0.233071	0.000101
C56	C	1.541353	0.266929	0.500101
C57	C	1.230047	0.124195	0.000114
C58	C	1.730047	0.624195	0.500114
C59	C	1.329501	0.126178	0.000117
C60	C	1.829501	0.626178	0.500117
C61	C	1.074351	0.304238	0.000087
C62	C	1.574351	0.804238	0.500087
C63	C	1.084512	0.409475	0.000080
C64	C	1.584512	0.909475	0.500080
N65	N	1.067034	0.130917	0.235456
N66	N	1.567034	0.630917	0.735456
N67	N	1.067079	0.130936	-0.235258
N68	N	1.567079	0.630936	0.264742
C69	C	1.122727	0.066567	0.287506
C70	C	1.622727	0.566567	0.787506
C71	C	1.122732	0.066566	0.391610
C72	C	1.622732	0.566566	0.891610
C73	C	1.067049	0.130921	0.443660
C74	C	1.567049	0.630921	0.943660
C75	C	1.011350	0.195274	0.391603
C76	C	1.511350	0.695274	0.891603
C77	C	1.011341	0.195270	0.287501
C78	C	1.511341	0.695270	0.787501
C79	C	1.011376	0.195281	0.608583
C80	C	1.511376	0.695281	1.108583
C81	C	1.011386	0.195287	0.712691
C82	C	1.511386	0.695287	1.212691
C83	C	1.122767	0.066577	0.712691
C84	C	1.622767	0.566577	1.212691
C85	C	1.122757	0.066572	0.608590
C86	C	1.622757	0.566572	1.108590
C87	C	1.067060	0.130927	0.556539
C88	C	1.567060	0.630927	1.056539
H89	H	0.789070	0.292167	0.000056
H90	H	1.289070	0.792167	0.500056
H91	H	0.965989	0.247669	0.245123
H92	H	1.465989	0.747669	0.745123
H93	H	0.345032	-0.030303	0.000133
H94	H	0.845032	0.469697	0.500133
Cl95	Cl	0.923781	-0.388541	0.000076
Cl96	Cl	1.423781	0.111459	0.500076
Cl97	Cl	0.308967	0.320846	0.000099
Cl98	Cl	0.808967	0.820846	0.500099
H99	H	1.168080	0.014166	0.433989
H100	H	1.668080	0.514166	0.933989
H101	H	1.168074	0.014166	0.245134
H102	H	1.668074	0.514166	0.745134
Cl103	Cl	0.941343	0.276175	0.457036
Cl104	Cl	1.441343	0.776175	0.957036
H105	H	1.168103	0.014175	0.566210
H106	H	1.668103	0.514175	1.066210
Cl107	Cl	1.210329	-0.349605	0.000119
Cl108	Cl	1.710329	0.150395	0.500119
H109	H	0.966042	0.247690	0.755066
H110	H	1.466042	0.747690	1.255066
Cl111	Cl	0.597184	0.326603	0.000070
Cl112	Cl	1.097184	0.826603	0.500070
H113	H	1.168118	0.014177	0.755077
H114	H	1.668118	0.514177	1.255077
H115	H	0.500859	0.286405	0.000077
H116	H	1.000859	0.786405	0.500077
Cl117	Cl	0.536930	-0.064746	0.000125
Cl118	Cl	1.036930	0.435254	0.500125
Cl119	Cl	0.614226	-0.063196	0.000123
Cl120	Cl	1.114226	0.436804	0.500123
Cl121	Cl	0.941351	0.276184	0.543152
Cl122	Cl	1.441351	0.776184	1.043152
H123	H	0.802776	-0.021152	0.000097
H124	H	1.302776	0.478848	0.500097
