data_functionalizedCrystal
_audit_creation_method	'MofGen! by Chris Wilmer'
_symmetry_space_group_name_H-M	'P1'
_symmetry_Int_Tables_number	1
_symmetry_cell_setting	triclinic
loop_
_symmetry_equiv_pos_as_xyz
  x,y,z
_cell_length_a	8.634740
_cell_length_b	10.489716
_cell_length_c	7.681481
_cell_angle_alpha	84.203772
_cell_angle_beta	96.618947
_cell_angle_gamma	92.549721
loop_
_atom_site_label
_atom_site_type_symbol
_atom_site_fract_x
_atom_site_fract_y
_atom_site_fract_z
O1	O	2.036178	0.426720	-0.146387
O2	O	1.586841	0.391801	-0.146394
O3	O	1.821753	0.224842	-0.146397
O4	O	1.801266	0.593679	-0.146384
O5	O	1.850666	0.204238	0.146461
O6	O	1.615755	0.371197	0.146463
O7	O	2.065091	0.406115	0.146470
Zn8	Zn	1.845013	0.385385	0.192964
Zn9	Zn	1.806919	0.412532	-0.192888
O10	O	1.830179	0.573074	0.146473
C11	C	1.543761	0.373589	0.000033
C12	C	1.372318	0.350003	0.000030
C13	C	1.834670	0.166831	0.000027
C14	C	1.830063	0.024670	0.000011
C15	C	1.974120	-0.056394	0.000029
C16	C	1.883742	-0.132374	-0.144362
C17	C	1.912215	-0.152656	0.144373
C18	C	1.739734	-0.049429	-0.144499
C19	C	1.768240	-0.069712	0.144365
C20	C	1.677753	-0.145652	-0.000061
C21	C	2.108172	0.424328	0.000039
C22	C	2.279613	0.447915	0.000031
C23	C	1.817262	0.631086	0.000046
C24	C	1.821868	0.773248	0.000050
N25	N	1.871023	0.366858	0.456298
N26	N	1.780922	0.431050	-0.456222
H27	H	1.320522	0.248136	-0.000019
H28	H	1.331413	0.549791	0.000046
H29	H	1.719534	-0.041789	0.266442
H30	H	1.688946	0.496570	0.468582
Br31	Br	1.618324	0.025387	-0.348191
H32	H	2.099409	-0.017259	-0.000116
Br33	Br	1.965005	-0.178870	-0.347824
Br34	Br	1.468739	-0.210468	-0.000182
Br35	Br	2.033704	-0.227736	0.347828
Br36	Br	2.024356	0.257666	0.581632
