data_functionalizedCrystal
_audit_creation_method	'MofGen! by Chris Wilmer'
_symmetry_space_group_name_H-M	'P1'
_symmetry_Int_Tables_number	1
_symmetry_cell_setting	triclinic
loop_
_symmetry_equiv_pos_as_xyz
  x,y,z
_cell_length_a	11.792241
_cell_length_b	23.532407
_cell_length_c	10.868271
_cell_angle_alpha	89.990218
_cell_angle_beta	89.999893
_cell_angle_gamma	83.521047
loop_
_atom_site_label
_atom_site_type_symbol
_atom_site_fract_x
_atom_site_fract_y
_atom_site_fract_z
O1	O	1.505071	0.078055	-0.102217
O2	O	1.174541	0.086099	-0.102247
O3	O	1.349773	-0.000796	-0.102208
O4	O	1.329839	0.164950	-0.102255
O5	O	1.349759	-0.000799	0.102436
O6	O	1.174526	0.086096	0.102398
O7	O	1.505057	0.078051	0.102428
Zn8	Zn	1.339789	0.082073	0.134905
Zn9	Zn	1.339808	0.082078	-0.134723
O10	O	1.329824	0.164946	0.102390
C11	C	1.132254	0.085592	0.000072
C12	C	1.006276	0.084080	0.000062
C13	C	0.775630	0.081299	0.000098
C14	C	0.903978	0.082844	0.000078
C15	C	1.349258	-0.022016	0.000117
C16	C	1.347732	-0.085242	0.000127
C17	C	1.441858	-0.483788	0.000068
C18	C	1.440440	-0.543196	0.000058
O19	O	1.527696	-0.579424	0.000021
N20	N	1.336265	-0.566440	0.000050
C21	C	1.233500	-0.530271	0.000038
O22	O	1.144761	-0.555497	0.000029
C23	C	1.234919	-0.470864	0.000039
C24	C	1.339102	-0.447624	0.000060
C25	C	1.546032	-0.460547	0.000087
C26	C	1.547449	-0.401142	0.000099
C27	C	1.444693	-0.364979	0.000091
C28	C	1.340519	-0.388219	0.000072
C29	C	1.132156	-0.434696	0.000018
C30	C	1.133584	-0.375285	0.000018
C31	C	1.237766	-0.352045	0.000039
C32	C	1.239180	-0.292651	0.000075
N33	N	1.343355	-0.269407	0.000084
C34	C	1.446112	-0.305571	0.000092
C35	C	1.230528	-0.655031	0.000034
C36	C	1.229108	-0.714438	0.000043
C37	C	1.436049	-0.727359	0.000061
C38	C	1.437468	-0.667951	0.000061
C39	C	1.334704	-0.631788	0.000043
C40	C	1.449080	-0.180817	0.000118
C41	C	1.450489	-0.121406	0.000135
C42	C	1.243549	-0.108491	0.000110
C43	C	1.242140	-0.167896	0.000100
C44	C	1.344915	-0.204058	0.000099
O45	O	1.151970	-0.256388	0.000108
O46	O	1.534837	-0.280337	0.000085
C47	C	1.547343	0.078558	0.000107
C48	C	1.673321	0.080071	0.000109
C49	C	1.330339	0.186167	0.000061
C50	C	1.331865	0.249393	0.000044
N51	N	1.339785	0.082070	0.318919
N52	N	1.339822	0.082077	-0.318737
C53	C	1.339802	0.082076	0.569925
C54	C	1.339789	0.082074	0.430247
H55	H	1.532770	-0.210254	0.000113
H56	H	1.146840	-0.625590	0.000030
C57	C	1.019076	-0.459952	0.000233
C58	C	1.012164	-0.493679	0.105523
C59	C	0.908000	-0.516947	0.105766
H60	H	1.014120	-0.482888	-0.071055
H61	H	0.958056	-0.429915	0.000286
H62	H	1.073168	-0.523712	0.105459
H63	H	1.017100	-0.470756	0.176828
H64	H	0.846979	-0.486910	0.105818
H65	H	0.903053	-0.539881	0.034473
H66	H	0.903292	-0.539829	0.177208
C67	C	1.563724	-0.096285	0.000089
C68	C	1.653406	-0.140676	0.000056
C69	C	1.757730	-0.117559	-0.000006
H70	H	1.568741	-0.073395	0.071437
H71	H	1.568646	-0.073388	-0.071300
H72	H	1.648486	-0.163564	0.071437
H73	H	1.648426	-0.163570	-0.071288
H74	H	1.762652	-0.094661	-0.071395
H75	H	1.762735	-0.094669	0.071344
H76	H	1.818591	-0.147674	-0.000040
C77	C	1.660448	-0.375805	0.000162
C78	C	1.639720	-0.316038	0.000191
C79	C	1.743792	-0.292683	0.000258
H80	H	1.702808	-0.388132	-0.071184
H81	H	1.702739	-0.388173	0.071554
H82	H	1.597447	-0.303675	-0.071193
H83	H	1.597377	-0.303695	0.071532
H84	H	1.786083	-0.305050	0.071650
H85	H	1.786144	-0.305013	-0.071089
H86	H	1.729743	-0.252128	0.000289
H87	H	1.629714	-0.489986	0.000089
H88	H	1.159887	-0.079035	0.000108
H89	H	1.522302	-0.649034	0.000077
H90	H	1.519719	-0.756814	0.000062
C91	C	1.022128	-0.335928	-0.000059
C92	C	1.045656	-0.278925	-0.000078
C93	C	0.943014	-0.242655	-0.000162
H94	H	0.979292	-0.342944	0.071277
H95	H	0.979384	-0.342969	-0.071460
H96	H	1.088382	-0.271886	0.071316
H97	H	1.088476	-0.271891	-0.071409
H98	H	0.900269	-0.249696	-0.071564
H99	H	0.900185	-0.249676	0.071175
H100	H	0.958963	-0.203975	-0.000187
H101	H	1.144273	-0.733354	0.000047
H102	H	1.157306	-0.186819	0.000117
