data_functionalizedCrystal
_audit_creation_method	'MofGen! by Chris Wilmer'
_symmetry_space_group_name_H-M	'P1'
_symmetry_Int_Tables_number	1
_symmetry_cell_setting	triclinic
loop_
_symmetry_equiv_pos_as_xyz
  x,y,z
_cell_length_a	21.606444
_cell_length_b	14.560438
_cell_length_c	14.560438
_cell_angle_alpha	60.005799
_cell_angle_beta	89.998722
_cell_angle_gamma	60.000494
loop_
_atom_site_label
_atom_site_type_symbol
_atom_site_fract_x
_atom_site_fract_y
_atom_site_fract_z
Zr1	Zr	0.596248	1.005232	-0.120411
O2	O	0.497431	1.196813	-0.267026
O3	O	0.626537	0.813648	-0.075485
O4	O	0.626542	1.005236	-0.267061
O5	O	0.497426	1.005222	0.075691
O6	O	0.728392	1.005242	-0.267066
O7	O	0.497426	1.005224	-0.075450
O8	O	0.728383	0.662526	0.075628
O9	O	0.497435	1.347938	-0.267004
O10	O	0.715469	0.892455	-0.056305
O11	O	0.639460	0.892448	0.056494
O12	O	0.639466	1.118018	-0.169062
O13	O	0.563457	1.118012	-0.056264
Zr14	Zr	0.758687	1.005238	0.120633
Zr15	Zr	0.758687	1.005242	-0.120419
Zr16	Zr	0.596248	1.005227	0.120641
Zr17	Zr	0.596255	1.246259	-0.120375
Zr18	Zr	0.758680	0.764210	0.120597
O19	O	0.728398	1.196821	0.075707
O20	O	0.728397	1.196827	-0.267038
O21	O	0.497431	1.196807	0.075719
O22	O	0.857504	0.813657	0.267248
O23	O	0.857504	0.813663	-0.075497
O24	O	0.626538	0.813642	0.267260
O25	O	0.857509	1.005247	-0.075469
O26	O	0.728393	1.005233	0.267283
O27	O	0.626543	1.005227	0.267288
O28	O	0.857509	1.005245	0.075672
O29	O	0.626552	1.347946	-0.267011
O30	O	0.728383	0.662523	0.267233
O31	O	0.857500	0.662531	0.267226
O32	O	0.857500	0.662535	0.075621
O33	O	0.497435	1.347935	-0.075399
O34	O	0.626552	1.347943	-0.075406
O35	O	0.715469	0.892451	0.169284
O36	O	0.791478	0.892458	0.056486
O37	O	0.715475	1.118021	-0.056272
O38	O	0.639466	1.118014	0.056527
C39	C	0.677459	0.703746	0.000067
C40	C	0.677457	0.601423	0.000052
C41	C	0.621351	0.636548	-0.083167
C42	C	0.621363	0.540359	-0.083111
C43	C	0.733589	0.373922	0.083393
C44	C	0.733580	0.470110	0.083331
C45	C	0.556556	0.732638	-0.179294
C46	C	0.556569	0.636449	-0.179238
C47	C	0.474282	1.005222	0.000122
C48	C	0.405322	1.005217	0.000126
C49	C	0.412596	0.887476	0.058980
C50	C	0.347799	0.887480	0.058981
C51	C	0.275728	1.005226	0.000120
C52	C	0.268456	1.122976	-0.058736
C53	C	0.333253	1.122971	-0.058729
C54	C	0.007138	1.122998	-0.058761
C55	C	-0.057660	1.122994	-0.058765
C56	C	0.021684	0.887507	0.058950
C57	C	0.086480	0.887503	0.058956
C58	C	0.079203	1.005252	0.000105
C59	C	0.149464	1.005246	0.000106
C60	C	0.205468	1.005233	0.000112
C61	C	0.880653	1.005248	0.000100
C62	C	0.949613	1.005252	0.000096
C63	C	0.677467	1.005240	-0.301409
C64	C	0.677467	1.005242	-0.403741
C65	C	0.677476	1.306723	0.000155
C66	C	0.677478	1.409046	0.000170
C67	C	0.637791	1.122981	-0.510676
C68	C	0.637793	1.122975	-0.606825
C69	C	0.717149	0.887479	-0.489091
C70	C	0.717150	0.887487	-0.392944
C71	C	0.591973	1.258943	-0.578650
C72	C	0.591976	1.258937	-0.674799
C73	C	0.677468	1.005230	0.301630
C74	C	0.677468	1.005228	0.403963
C75	C	0.880645	0.703759	0.000056
C76	C	0.949602	0.601441	0.000037
C77	C	0.677460	0.703741	0.301586
C78	C	0.677457	0.601416	0.403904
C79	C	0.880645	0.703754	0.301575
C80	C	0.949602	0.601434	0.403890
C81	C	0.474290	1.306716	-0.301353
C82	C	0.405333	1.409036	-0.403668
C83	C	0.474290	1.306711	0.000166
C84	C	0.405333	1.409029	0.000185
C85	C	0.677475	1.306729	-0.301364
C86	C	0.677478	1.409053	-0.403682
C87	C	0.942309	0.553389	-0.058857
C88	C	1.007094	0.457264	-0.058897
C89	C	1.079173	0.409185	-0.000036
C90	C	1.086465	0.457246	0.058860
C91	C	1.021680	0.553376	0.058893
C92	C	1.021668	0.553387	0.393058
C93	C	1.086466	0.457260	0.489184
C94	C	1.079197	0.409175	0.596140
C95	C	1.007124	0.457231	0.606970
C96	C	0.942327	0.553363	0.510845
C97	C	0.333267	1.457094	-0.392836
C98	C	0.268469	1.553251	-0.488962
C99	C	0.275738	1.601341	-0.595918
C100	C	0.347811	1.553278	-0.606748
C101	C	0.412608	1.457130	-0.510623
C102	C	0.412626	1.457090	0.059069
C103	C	0.347841	1.553242	0.059083
C104	C	0.275762	1.601324	0.000218
C105	C	0.268470	1.553259	-0.058674
C106	C	0.333255	1.457115	-0.058693
C107	C	0.717133	0.553341	0.510849
C108	C	0.717124	0.457201	0.606984
C109	C	0.637763	0.457218	0.489215
C110	C	0.637767	0.553362	0.393083
C111	C	0.762954	0.553327	0.578843
C112	C	0.762946	0.457187	0.674977
H113	H	0.505025	0.792308	-0.162495
H114	H	1.027601	0.592523	0.305977
H115	H	1.131919	0.330908	-0.000071
H116	H	0.223016	1.679611	0.000243
H117	H	0.749457	0.791607	-0.480314
N118	N	1.029550	0.605198	0.122419
H119	H	1.058175	0.531837	0.204771
H120	H	0.977549	0.673411	0.113423
N121	N	0.490333	1.405276	-0.522319
H122	H	0.530286	1.337063	-0.445202
H123	H	0.496342	1.478697	-0.564831
N124	N	0.864600	0.605175	0.522536
H125	H	0.869835	0.560117	0.604881
H126	H	0.835991	0.588428	0.485219
N127	N	0.164209	0.760499	0.122436
H128	H	0.170275	0.709021	0.204794
H129	H	0.204109	0.778463	0.113421
N130	N	0.190726	1.605104	-0.122140
H131	H	0.150798	1.673290	-0.113173
H132	H	0.184730	1.531667	-0.091211
N133	N	1.164209	0.405384	0.122343
H134	H	1.204137	0.337193	0.113382
H135	H	1.170216	0.365551	0.204679
N136	N	0.490327	0.760478	0.122455
H137	H	0.485100	0.685891	0.159740
H138	H	0.518941	0.755341	0.181650
H139	H	0.353793	1.592360	0.107044
H140	H	0.353728	0.791603	0.106908
H141	H	0.883624	0.592534	-0.106803
H142	H	0.471311	1.417948	0.107012
H143	H	1.145146	0.418142	0.480346
N144	N	0.514275	1.314808	-0.567068
H145	H	0.477968	1.407499	-0.634809
H146	H	0.517175	1.312684	-0.496735
H147	H	0.027603	0.791630	0.106871
H148	H	0.779283	0.266998	0.151197
N149	N	0.325383	1.405282	-0.122207
H150	H	0.269890	1.450336	-0.159489
H151	H	0.350527	1.308774	-0.068162
H152	H	0.732720	0.493313	0.725908
H153	H	0.605451	0.592514	0.306006
H154	H	0.605448	0.418081	0.480418
N155	N	0.999220	0.405441	-0.122425
H156	H	0.943727	0.450482	-0.159696
H157	H	1.024374	0.308929	-0.068387
H158	H	0.562134	0.795615	-0.261426
H159	H	0.737474	0.643329	0.578875
H160	H	1.131965	0.330898	0.674402
N161	N	0.999290	0.405361	0.722333
H162	H	1.051278	0.337168	0.781575
H163	H	0.970645	0.365527	0.731243
H164	H	0.821614	0.517200	0.570105
H165	H	0.749467	0.791612	-0.305876
N166	N	0.625728	1.328101	-0.578657
H167	H	0.640796	1.358950	-0.648007
H168	H	0.671923	1.266440	-0.509272
H169	H	-0.116345	1.218883	-0.106698
H170	H	0.327334	1.417945	-0.305755
H171	H	0.209790	1.592367	-0.480122
H172	H	0.001202	1.218877	-0.106701
H173	H	0.622207	1.301127	-0.725717
N174	N	0.843298	0.337950	0.744109
H175	H	0.879161	0.354081	0.705615
H176	H	0.847926	0.261686	0.751819
H177	H	0.779272	0.441500	0.151087
N178	N	0.190726	1.249976	-0.122210
H179	H	0.150780	1.232116	-0.113286
H180	H	0.184728	1.301401	-0.204540
H181	H	0.531309	1.311130	-0.726982
H182	H	0.567888	0.636418	-0.255696
H183	H	0.327326	1.218848	-0.106641
N184	N	0.483278	0.650756	-0.168230
H185	H	0.450565	0.726513	-0.163350
H186	H	0.494699	0.568606	-0.097936
H187	H	0.222970	1.679631	-0.674180
H188	H	0.353720	1.592446	-0.693844
