data_functionalizedCrystal
_audit_creation_method	'MofGen! by Chris Wilmer'
_symmetry_space_group_name_H-M	'P1'
_symmetry_Int_Tables_number	1
_symmetry_cell_setting	triclinic
loop_
_symmetry_equiv_pos_as_xyz
  x,y,z
_cell_length_a	25.639239
_cell_length_b	12.594517
_cell_length_c	12.594509
_cell_angle_alpha	90.008045
_cell_angle_beta	89.967420
_cell_angle_gamma	89.967671
loop_
_atom_site_label
_atom_site_type_symbol
_atom_site_fract_x
_atom_site_fract_y
_atom_site_fract_z
Zn1	Zn	-0.208232	-1.627102	-0.601431
Zn2	Zn	-0.295672	-1.626922	-0.423434
Zn3	Zn	-0.208242	-1.449105	-0.423502
Zn4	Zn	-0.295628	-1.449018	-0.601406
O5	O	-0.251944	-1.538037	-0.512443
O6	O	-0.219845	-1.776024	-0.577801
O7	O	-0.284097	-1.603295	-0.274497
O8	O	-0.135076	-1.472829	-0.447143
O9	O	-0.284086	-1.775892	-0.447027
O10	O	-0.135068	-1.603603	-0.577867
O11	O	-0.219863	-1.472654	-0.274547
O12	O	-0.219821	-1.300148	-0.447119
O13	O	-0.284012	-1.472681	-0.750355
O14	O	-0.284023	-1.300084	-0.577825
O15	O	-0.219803	-1.603518	-0.750373
O16	O	-0.368831	-1.603211	-0.447004
O17	O	-0.368799	-1.472506	-0.577759
C18	C	-0.251918	-1.261496	-0.512477
C19	C	-0.251920	-1.143191	-0.512517
C20	C	-0.286907	-1.073934	-0.583475
C21	C	-0.239235	-1.003164	-0.609668
C22	C	-0.299628	-1.003162	-0.486315
C23	C	-0.204223	-1.073979	-0.538761
C24	C	-0.264648	-1.073983	-0.415362
C25	C	-0.216943	-1.003245	-0.441518
C26	C	-0.387786	-1.537858	-0.512394
C27	C	-0.445900	-1.537879	-0.512409
C28	C	-0.806267	-1.606273	-0.444475
C29	C	-0.860872	-1.606314	-0.444489
O30	O	-0.889112	-1.664279	-0.386675
N31	N	-0.888183	-1.538224	-0.512514
C32	C	-0.860887	-1.470096	-0.580536
O33	O	-0.889131	-1.412185	-0.638398
C34	C	-0.806283	-1.470061	-0.580526
C35	C	-0.778975	-1.538148	-0.512490
C36	C	-0.778959	-1.674355	-0.376444
C37	C	-0.724358	-1.674312	-0.376429
C38	C	-0.697066	-1.606187	-0.444444
C39	C	-0.724374	-1.538105	-0.512474
C40	C	-0.778988	-1.401939	-0.648554
C41	C	-0.724381	-1.401911	-0.648539
C42	C	-0.697073	-1.469997	-0.580502
C43	C	-0.642482	-1.469937	-0.580474
N44	N	-0.615171	-1.538027	-0.512449
C45	C	-0.642463	-1.606152	-0.444434
C46	C	-0.975557	-1.470176	-0.580553
C47	C	-1.030159	-1.470205	-0.580558
C48	C	-1.030141	-1.606425	-0.444512
C49	C	-0.975537	-1.606390	-0.444502
C50	C	-0.948246	-1.538266	-0.512528
C51	C	-0.527798	-1.606056	-0.444407
C52	C	-0.473192	-1.606004	-0.444394
C53	C	-0.473216	-1.469789	-0.580444
C54	C	-0.527817	-1.469836	-0.580453
C55	C	-0.555106	-1.537979	-0.512431
O56	O	-0.614207	-1.412004	-0.638261
O57	O	-0.614212	-1.664063	-0.386592
C58	C	-0.115571	-1.538246	-0.512515
C59	C	-0.057456	-1.538335	-0.512546
C60	C	-0.251901	-1.538110	-0.790064
C61	C	-0.251884	-1.538141	-0.908370
C62	C	-0.251964	-0.815658	-0.512426
C63	C	-0.251961	-0.933963	-0.512460
C64	C	-0.286764	-1.467023	-1.048377
C65	C	-0.239082	-1.441038	-0.977591
C66	C	-0.299560	-1.564077	-0.977584
C67	C	-0.204111	-1.512167	-1.048370
C68	C	-0.264622	-1.635251	-1.048369
C69	C	-0.216907	-1.609303	-0.977615
C70	C	-0.251948	-1.538026	-0.235902
C71	C	-0.251818	-1.538201	-0.117597
H72	H	-0.163883	-1.104955	-0.560992
H73	H	-0.316250	-1.406810	-1.079447
Cl74	Cl	-0.690076	-1.316265	-0.734064
H75	H	-0.316438	-1.104975	-0.643553
H76	H	-0.187349	-1.669471	-0.946742
Cl77	Cl	-0.562148	-1.384219	-0.665964
Cl78	Cl	-0.438896	-1.384156	-0.665949
H79	H	-0.801174	-1.729836	-0.321058
Cl80	Cl	-0.281326	-1.761969	-1.096412
H81	H	-0.339908	-1.585990	-0.946492
H82	H	-0.275413	-1.105115	-0.333248
H83	H	-0.228277	-1.358939	-0.946501
H84	H	-0.228484	-0.972056	-0.691805
Cl85	Cl	-0.171239	-0.955620	-0.348834
Cl86	Cl	-0.361891	-0.955134	-0.452132
Cl87	Cl	-1.064483	-1.384594	-0.666081
H88	H	-0.550011	-1.661546	-0.389019
Cl89	Cl	-0.438865	-1.691606	-0.358856
H90	H	-0.801213	-1.346490	-0.703951
Cl91	Cl	-0.690036	-1.759928	-0.290909
H92	H	-0.953306	-1.661832	-0.389101
Cl93	Cl	-1.064461	-1.692067	-0.359004
H94	H	-0.163752	-1.490162	-1.079333
Cl95	Cl	-0.941254	-1.384517	-0.666071
