data_functionalizedCrystal
_audit_creation_method	'MofGen! by Chris Wilmer'
_symmetry_space_group_name_H-M	'P1'
_symmetry_Int_Tables_number	1
_symmetry_cell_setting	triclinic
loop_
_symmetry_equiv_pos_as_xyz
  x,y,z
_cell_length_a	9.065215
_cell_length_b	16.109295
_cell_length_c	7.540329
_cell_angle_alpha	90.000475
_cell_angle_beta	89.997574
_cell_angle_gamma	95.763058
loop_
_atom_site_label
_atom_site_type_symbol
_atom_site_fract_x
_atom_site_fract_y
_atom_site_fract_z
O1	O	1.957447	-0.121894	-0.147448
O2	O	2.290781	0.211439	0.185885
O3	O	2.624114	0.544773	0.519219
O4	O	1.527919	-0.131896	-0.147455
O5	O	1.861253	0.201438	0.185879
O6	O	2.194586	0.534771	0.519212
O7	O	1.754487	-0.005954	-0.147454
O8	O	2.087820	0.327379	0.185880
O9	O	2.421154	0.660713	0.519213
O10	O	1.730879	-0.247836	-0.147449
O11	O	2.064213	0.085498	0.185884
O12	O	2.397546	0.418831	0.519217
O13	O	1.754474	-0.005952	0.147512
O14	O	2.087807	0.327381	0.480845
O15	O	2.421140	0.660714	0.814178
O16	O	1.527906	-0.131894	0.147510
O17	O	1.861239	0.201439	0.480844
O18	O	2.194573	0.534773	0.814177
O19	O	1.957434	-0.121892	0.147517
O20	O	2.290767	0.211441	0.480850
O21	O	2.624100	0.544774	0.814184
Cu22	Cu	1.742669	-0.126893	0.174446
Cu23	Cu	2.076002	0.206440	0.507780
Cu24	Cu	2.409335	0.539774	0.841113
Cu25	Cu	1.742685	-0.126895	-0.174384
Cu26	Cu	2.076018	0.206438	0.158949
Cu27	Cu	2.409351	0.539772	0.492283
O28	O	1.730866	-0.247834	0.147516
O29	O	2.064199	0.085499	0.480849
O30	O	2.397533	0.418833	0.814183
C31	C	1.472949	-0.130934	0.000027
C32	C	1.806283	0.202399	0.333360
C33	C	2.139616	0.535732	0.666693
C34	C	1.309176	-0.128062	0.000024
C35	C	1.642509	0.205272	0.333357
C36	C	1.975842	0.538605	0.666690
C37	C	1.753526	0.025029	0.000025
C38	C	2.086859	0.358362	0.333358
C39	C	2.420192	0.691696	0.666691
C40	C	1.750663	0.117347	0.000012
C41	C	2.083996	0.450680	0.333345
C42	C	2.417330	0.784013	0.666678
C43	C	1.878445	0.338638	-0.000052
C44	C	2.211778	0.671972	0.333282
C45	C	2.545112	1.005305	0.666615
C46	C	1.875744	0.425380	-0.000081
C47	C	2.209077	0.758713	0.333252
C48	C	2.542410	1.092047	0.666586
C49	C	1.606934	0.407569	-0.000076
C50	C	1.940267	0.740902	0.333257
C51	C	2.273600	1.074236	0.666590
C52	C	1.609636	0.320829	-0.000060
C53	C	1.942970	0.654163	0.333274
C54	C	2.276303	0.987496	0.666607
C55	C	1.745396	0.286367	-0.000038
C56	C	2.078730	0.619700	0.333295
C57	C	2.412063	0.953033	0.666628
C58	C	1.739992	0.459848	-0.000084
C59	C	2.073326	0.793181	0.333249
C60	C	2.406659	1.126514	0.666582
C61	C	1.737063	0.553897	-0.000116
C62	C	2.070396	0.887230	0.333217
C63	C	2.403729	1.220563	0.666551
C64	C	1.748327	0.192312	-0.000010
C65	C	2.081660	0.525645	0.333324
C66	C	2.414994	0.858979	0.666657
C67	C	2.012404	-0.122854	0.000032
C68	C	2.345737	0.210480	0.333365
C69	C	2.679071	0.543813	0.666698
C70	C	2.176177	-0.125726	0.000023
C71	C	2.509511	0.207607	0.333357
C72	C	2.842844	0.540940	0.666690
C73	C	1.731837	0.721184	-0.000009
C74	C	2.065170	1.054517	0.333325
C75	C	2.398503	1.387850	0.666658
C76	C	1.734726	0.628868	-0.000134
C77	C	2.068059	0.962201	0.333199
C78	C	2.401393	1.295535	0.666533
N79	N	1.742668	-0.126891	0.419795
N80	N	2.076002	0.206442	0.753128
N81	N	2.409335	0.539775	1.086461
N82	N	1.742697	-0.126890	-0.419732
N83	N	2.076030	0.206443	-0.086399
N84	N	2.409363	0.539776	0.246934
H85	H	1.984086	0.467937	-0.000095
H86	H	2.317419	0.801270	0.333238
H87	H	2.650752	1.134603	0.666571
H88	H	1.496402	0.435640	-0.000090
H89	H	1.829736	0.768973	0.333243
H90	H	2.163069	1.102306	0.666577
H91	H	1.501286	0.278267	-0.000054
H92	H	1.834619	0.611601	0.333279
H93	H	2.167952	0.944934	0.666613
H94	H	1.988990	0.310582	-0.000038
H95	H	2.322323	0.643915	0.333295
H96	H	2.655656	0.977249	0.666629
