data_functionalizedCrystal
_audit_creation_method	'MofGen! by Chris Wilmer'
_symmetry_space_group_name_H-M	'P1'
_symmetry_Int_Tables_number	1
_symmetry_cell_setting	triclinic
loop_
_symmetry_equiv_pos_as_xyz
  x,y,z
_cell_length_a	17.077404
_cell_length_b	16.959453
_cell_length_c	17.077396
_cell_angle_alpha	89.970936
_cell_angle_beta	89.980223
_cell_angle_gamma	90.015373
loop_
_atom_site_label
_atom_site_type_symbol
_atom_site_fract_x
_atom_site_fract_y
_atom_site_fract_z
Zn1	Zn	1.200070	-0.314779	-0.443845
Zn2	Zn	1.199984	-0.446967	-0.312578
Zn3	Zn	1.068802	-0.314795	-0.312593
Zn4	Zn	1.068777	-0.446909	-0.443801
O5	O	1.134408	-0.380862	-0.378204
O6	O	1.309906	-0.332331	-0.426445
O7	O	1.182557	-0.429465	-0.202733
O8	O	1.086262	-0.204182	-0.330028
O9	O	1.309842	-0.429449	-0.330003
O10	O	1.182704	-0.204170	-0.426459
O11	O	1.086178	-0.332359	-0.202744
O12	O	0.958952	-0.332303	-0.329985
O13	O	1.086219	-0.429350	-0.553654
O14	O	0.958933	-0.429366	-0.426383
O15	O	1.182680	-0.332275	-0.553686
O16	O	1.182532	-0.557570	-0.329960
O17	O	1.086135	-0.557527	-0.426369
C18	C	0.930461	-0.380831	-0.378182
C19	C	0.843211	-0.380836	-0.378190
C20	C	0.467407	-0.431516	-0.428342
C21	C	0.549388	-0.431506	-0.428330
C22	C	0.590362	-0.380883	-0.378217
C23	C	0.549351	-0.330274	-0.328106
C24	C	0.467372	-0.330288	-0.328115
C25	C	0.720221	-0.330245	-0.328093
C26	C	0.802206	-0.330229	-0.328085
C27	C	0.802237	-0.431462	-0.428309
C28	C	0.720258	-0.431477	-0.428317
C29	C	0.679253	-0.380866	-0.378208
C30	C	1.134343	-0.586229	-0.378175
C31	C	1.134387	-0.674085	-0.378189
C32	C	1.184690	-1.045496	-0.428510
C33	C	1.084346	-1.045626	-0.328014
C34	C	1.084317	-0.963080	-0.327996
C35	C	1.134474	-0.921738	-0.378237
C36	C	1.184661	-0.962942	-0.428496
C37	C	1.034126	-0.921869	-0.277744
C38	C	1.034094	-0.839318	-0.277725
C39	C	1.084256	-0.797975	-0.327962
C40	C	1.134445	-0.839185	-0.378222
C41	C	1.184603	-0.797843	-0.428463
C42	C	1.234796	-0.839051	-0.478719
C43	C	1.234823	-0.921599	-0.478733
C44	C	1.084229	-0.715427	-0.327949
C45	C	1.184573	-0.715290	-0.428448
C46	C	1.339153	-0.380895	-0.378227
C47	C	1.426402	-0.380909	-0.378237
C48	C	1.134456	-0.380804	-0.582949
C49	C	1.134476	-0.380779	-0.670198
C50	C	1.134496	-0.174694	-0.378250
C51	C	1.134533	-0.086838	-0.378270
C52	C	1.184705	-0.330228	-0.711207
C53	C	1.184715	-0.330202	-0.793187
C54	C	1.134498	-0.380731	-0.834158
C55	C	1.084264	-0.431285	-0.793144
C56	C	1.084251	-0.431307	-0.711165
C57	C	1.084296	-0.431237	-0.964014
C58	C	1.084309	-0.431217	-1.045999
C59	C	1.184759	-0.330133	-1.046036
C60	C	1.184746	-0.330154	-0.964057
C61	C	1.134512	-0.380709	-0.923049
C62	C	1.134406	-0.380863	-0.174256
C63	C	1.134538	-0.380666	-0.087007
H64	H	0.835627	-0.472670	-0.469112
F65	F	0.676583	-0.276382	-0.274756
H66	H	0.434052	-0.472735	-0.469155
F67	F	0.593024	-0.485371	-0.481657
F68	F	0.980672	-0.795469	-0.224240
H69	H	1.225599	-0.289083	-0.677854
F70	F	0.845812	-0.276356	-0.274743
F71	F	1.288235	-0.965461	-0.532217
H72	H	1.225660	-0.288968	-1.079429
F73	F	0.592961	-0.276400	-0.274768
F74	F	1.238202	-0.276425	-0.836828
H75	H	1.043378	-0.472392	-0.930627
F76	F	1.030789	-0.485108	-0.667521
F77	F	1.238110	-1.089352	-0.481992
H78	H	1.043507	-1.079291	-0.287114
H79	H	1.043417	-0.472361	-1.079355
H80	H	0.993288	-0.955536	-0.236843
F81	F	1.238196	-0.276380	-0.920455
H82	H	1.043359	-0.681879	-0.287034
H83	H	0.686899	-0.472695	-0.469128
F84	F	0.423732	-0.276428	-0.274783
H85	H	1.043374	-0.472424	-0.826509
F86	F	1.237963	-0.671297	-0.481918
H87	H	1.275632	-0.805381	-0.519629
