data_functionalizedCrystal
_audit_creation_method	'MofGen! by Chris Wilmer'
_symmetry_space_group_name_H-M	'P1'
_symmetry_Int_Tables_number	1
_symmetry_cell_setting	triclinic
loop_
_symmetry_equiv_pos_as_xyz
  x,y,z
_cell_length_a	6.394989
_cell_length_b	17.699083
_cell_length_c	16.776229
_cell_angle_alpha	90.001114
_cell_angle_beta	89.996513
_cell_angle_gamma	95.109637
loop_
_atom_site_label
_atom_site_type_symbol
_atom_site_fract_x
_atom_site_fract_y
_atom_site_fract_z
O1	O	0.264131	-1.006774	-0.066171
O2	O	0.764131	-0.506774	0.433829
O3	O	0.298495	-0.786746	-0.066196
O4	O	0.798495	-0.286746	0.433804
O5	O	-0.022767	-0.899883	-0.066184
O6	O	0.477233	-0.399883	0.433816
O7	O	0.585393	-0.893637	-0.066183
O8	O	1.085393	-0.393637	0.433817
O9	O	-0.022786	-0.899868	0.066392
O10	O	0.477214	-0.399868	0.566392
O11	O	0.298476	-0.786731	0.066380
O12	O	0.798476	-0.286731	0.566380
O13	O	0.264112	-1.006758	0.066406
O14	O	0.764112	-0.506758	0.566406
Zn15	Zn	0.281290	-0.896742	0.087442
Zn16	Zn	0.781290	-0.396742	0.587442
Zn17	Zn	0.281316	-0.896763	-0.087233
Zn18	Zn	0.781316	-0.396763	0.412767
O19	O	0.585374	-0.893621	0.066393
O20	O	1.085374	-0.393621	0.566393
C21	C	0.297254	-0.758529	0.000089
C22	C	0.797254	-0.258529	0.500089
C23	C	0.293560	-0.674473	0.000079
C24	C	0.793560	-0.174473	0.500079
C25	C	0.663199	-0.894864	0.000102
C26	C	1.163199	-0.394864	0.500102
C27	C	0.899414	-0.898639	0.000100
C28	C	1.399414	-0.398639	0.500100
C29	C	0.265353	-1.034976	0.000119
C30	C	0.765353	-0.534976	0.500119
C31	C	0.269047	-1.119031	0.000124
C32	C	0.769047	-0.619031	0.500124
N33	N	0.281271	-0.896733	0.206653
N34	N	0.781271	-0.396733	0.706653
N35	N	0.281319	-0.896777	-0.206444
N36	N	0.781319	-0.396777	0.293556
C37	C	0.482134	-0.627777	0.000079
C38	C	0.982134	-0.127777	0.500079
C39	C	0.478651	-0.548798	0.000089
C40	C	0.978651	-0.048798	0.500089
C41	C	0.286591	-0.516517	0.000094
C42	C	0.786591	-0.016517	0.500094
C43	C	0.098003	-0.563220	0.000096
C44	C	0.598003	-0.063220	0.500096
C45	C	0.101488	-0.642197	0.000091
C46	C	0.601488	-0.142197	0.500091
C47	C	0.083942	-0.244713	0.000115
C48	C	0.583942	0.255287	0.500115
C49	C	0.080470	-0.165730	0.000117
C50	C	0.580470	0.334270	0.500117
C51	C	0.461104	-0.151314	0.000114
C52	C	0.961104	0.348686	0.500114
C53	C	0.464590	-0.230291	0.000109
C54	C	0.964590	0.269709	0.500109
C55	C	0.276002	-0.276987	0.000115
C56	C	0.776002	0.223013	0.500115
C57	C	0.279782	-0.362625	0.000106
C58	C	0.779782	0.137375	0.500106
C59	C	0.282810	-0.430881	0.000098
C60	C	0.782810	0.069119	0.500098
C61	C	0.139075	-0.946847	0.248376
C62	C	0.639075	-0.446847	0.748376
C63	C	0.139073	-0.946851	0.331828
C64	C	0.639073	-0.446851	0.831828
C65	C	0.281280	-0.896745	0.373556
C66	C	0.781280	-0.396745	0.873556
C67	C	0.423483	-0.846626	0.331828
C68	C	0.923483	-0.346626	0.831828
C69	C	0.423473	-0.846619	0.248377
C70	C	0.923473	-0.346619	0.748377
C71	C	0.423524	-0.846654	0.668375
C72	C	0.923524	-0.346654	1.168375
C73	C	0.423527	-0.846667	0.751832
C74	C	0.923527	-0.346667	1.251832
C75	C	0.139124	-0.946886	0.751826
C76	C	0.639124	-0.446886	1.251826
C77	C	0.139114	-0.946879	0.668375
C78	C	0.639114	-0.446879	1.168375
C79	C	0.281309	-0.896758	0.626654
C80	C	0.781309	-0.396758	1.126654
C81	C	0.281307	-0.896753	0.536166
C82	C	0.781307	-0.396753	1.036166
C83	C	0.281294	-0.896753	0.464043
C84	C	0.781294	-0.396753	0.964043
H85	H	0.632207	-0.510780	0.000089
H86	H	1.132207	-0.010780	0.500089
H87	H	-0.075937	-0.139450	0.000122
H88	H	0.424063	0.360550	0.500122
H89	H	-0.052069	-0.680217	0.000090
H90	H	0.447931	-0.180217	0.500090
H91	H	-0.069618	-0.282724	0.000121
H92	H	0.430382	0.217276	0.500121
H93	H	-0.058376	-0.536930	0.000110
H94	H	0.441624	-0.036930	0.500110
H95	H	0.023283	-0.987652	0.214406
H96	H	0.523283	-0.487652	0.714406
H97	H	0.023334	-0.987695	0.785804
H98	H	0.523334	-0.487695	1.285804
H99	H	0.620984	-0.256569	0.000102
H100	H	1.120984	0.243431	0.500102
H101	H	0.023285	-0.987656	0.365798
H102	H	0.523285	-0.487656	0.865798
O103	O	-0.014275	-1.000917	0.623366
O104	O	0.485725	-0.500917	1.123366
H105	H	-0.113173	-1.035759	0.666399
H106	H	0.386827	-0.535759	1.166399
O107	O	0.576944	-0.792634	0.796844
O108	O	1.076944	-0.292634	1.296844
H109	H	0.675823	-0.757780	0.753814
H110	H	1.175823	-0.257780	1.253814
H111	H	0.539263	-0.805825	0.365808
H112	H	1.039263	-0.305825	0.865808
O113	O	0.576902	-0.792605	0.623380
O114	O	1.076902	-0.292605	1.123380
H115	H	0.675802	-0.757773	0.666418
H116	H	1.175802	-0.257773	1.166418
O117	O	0.576850	-0.792573	0.203370
O118	O	1.076850	-0.292573	0.703370
H119	H	0.675753	-0.757737	0.246404
H120	H	1.175753	-0.257737	0.746404
H121	H	0.638531	-0.654053	0.000075
H122	H	1.138531	-0.154053	0.500075
H123	H	0.614661	-0.113284	0.000113
H124	H	1.114661	0.386716	0.500113
