data_functionalizedCrystal
_audit_creation_method	'MofGen! by Chris Wilmer'
_symmetry_space_group_name_H-M	'P1'
_symmetry_Int_Tables_number	1
_symmetry_cell_setting	triclinic
loop_
_symmetry_equiv_pos_as_xyz
  x,y,z
_cell_length_a	6.817900
_cell_length_b	9.582860
_cell_length_c	9.582880
_cell_angle_alpha	89.899908
_cell_angle_beta	68.792966
_cell_angle_gamma	68.793233
loop_
_atom_site_label
_atom_site_type_symbol
_atom_site_fract_x
_atom_site_fract_y
_atom_site_fract_z
V1	V	4.156351	-0.206425	-0.466328
V2	V	4.656351	0.293575	0.033672
O3	O	4.100353	0.010569	-0.457733
O4	O	4.600353	0.510569	0.042267
O5	O	4.146458	-0.409930	-0.462867
O6	O	4.646458	0.090070	0.037133
O7	O	4.146459	-0.202964	-0.669833
O8	O	4.646459	0.297036	-0.169833
O9	O	4.100351	-0.197829	-0.249334
O10	O	4.600351	0.302171	0.250666
V11	V	4.630000	-0.180503	-0.440407
V12	V	5.130000	0.319497	0.059593
O13	O	4.439270	-0.263285	-0.523188
O14	O	4.939270	0.236715	-0.023188
O15	O	4.797279	-0.123643	-0.383546
O16	O	5.297279	0.376357	0.116454
O17	O	4.416687	0.023002	-0.443867
O18	O	4.916687	0.523002	0.056133
O19	O	4.803395	-0.397497	-0.449001
O20	O	5.303395	0.102503	0.050999
O21	O	4.803397	-0.189098	-0.657401
O22	O	5.303397	0.310902	-0.157401
O23	O	4.416685	-0.183964	-0.236901
O24	O	4.916685	0.316036	0.263099
C25	C	3.999580	-0.459549	-0.455441
C26	C	4.499580	0.040451	0.044559
C27	C	4.073034	-0.625916	-0.453968
C28	C	4.573034	-0.125916	0.046032
C29	C	3.999580	-0.195542	-0.719445
C30	C	4.499580	0.304458	-0.219445
C31	C	4.073031	-0.194059	-0.885810
C32	C	4.573031	0.305941	-0.385810
C33	C	4.226908	0.072614	-0.451290
C34	C	4.726908	0.572614	0.048710
C35	C	4.132694	0.238979	-0.452773
C36	C	4.632694	0.738979	0.047227
C37	C	4.226906	-0.191391	-0.187282
C38	C	4.726906	0.308609	0.312718
C39	C	4.132692	-0.192866	-0.020915
C40	C	4.632692	0.307134	0.479085
