data_functionalizedCrystal
_audit_creation_method	'MofGen! by Chris Wilmer'
_symmetry_space_group_name_H-M	'P1'
_symmetry_Int_Tables_number	1
_symmetry_cell_setting	triclinic
loop_
_symmetry_equiv_pos_as_xyz
  x,y,z
_cell_length_a	15.944486
_cell_length_b	14.421503
_cell_length_c	13.339070
_cell_angle_alpha	90.000326
_cell_angle_beta	99.550857
_cell_angle_gamma	89.988870
loop_
_atom_site_label
_atom_site_type_symbol
_atom_site_fract_x
_atom_site_fract_y
_atom_site_fract_z
O1	O	-1.144888	0.077202	-0.130140
O2	O	-0.904095	0.077189	-0.146293
O3	O	-0.996856	0.077173	0.009041
O4	O	-1.052127	0.077218	-0.285474
O5	O	-0.996840	-0.077051	0.009018
O6	O	-0.904079	-0.077035	-0.146316
O7	O	-1.144872	-0.077022	-0.130163
Cu8	Cu	-1.024474	-0.091110	-0.138242
Cu9	Cu	-1.024493	0.091277	-0.138215
O10	O	-1.052111	-0.077006	-0.285498
C11	C	-0.872638	0.000075	-0.145646
C12	C	-0.778929	0.000069	-0.143670
C13	C	-0.508423	0.000092	-0.233927
C14	C	-0.558529	0.076127	-0.187003
C15	C	-0.441618	0.000084	-0.136491
C16	C	-0.558493	-0.075925	-0.186999
C17	C	-0.607351	0.000075	-0.140024
C18	C	-0.490489	0.076182	-0.089540
C19	C	-0.490450	-0.075938	-0.089550
C20	C	-0.540522	0.000116	-0.042555
C21	C	-0.346144	0.000089	-0.134459
C22	C	-0.702822	0.000076	-0.142048
N23	N	-1.024467	-0.219391	-0.138261
C24	C	-0.981556	-0.469038	-0.210055
C25	C	-1.062029	-0.530833	-0.229673
C26	C	-1.024481	-0.408553	-0.138236
C27	C	-0.944033	-0.530852	-0.118642
C28	C	-1.024489	-0.591274	-0.138215
C29	C	-1.105004	-0.468987	-0.157900
C30	C	-0.986948	-0.469001	-0.046830
C31	C	-1.067468	-0.530768	-0.066409
C32	C	-1.024476	-0.303292	-0.138251
C33	C	-1.024503	-0.696533	-0.138200
C34	C	-0.176330	0.000089	-0.130825
C35	C	-0.270045	0.000088	-0.132842
C36	C	-0.987512	0.000057	0.046717
C37	C	-0.959683	0.000045	0.159013
N38	N	-1.024505	0.219558	-0.138188
C39	C	-1.176068	0.000014	0.523851
C40	C	-1.202217	0.000019	0.418344
C41	C	-1.141586	0.000026	0.353506
C42	C	-1.054800	0.000027	0.394185
C43	C	-1.028648	0.000014	0.499703
C44	C	-0.994166	0.000026	0.329358
C45	C	-0.907381	0.000027	0.370037
C46	C	-0.881233	0.000014	0.475545
C47	C	-0.941865	0.000008	0.540383
C48	C	-1.020318	0.000039	0.223840
C49	C	-0.872899	0.000039	0.199692
C50	C	-0.846749	0.000034	0.305199
C51	C	-1.061455	0.000081	0.676827
C52	C	-1.089284	0.000008	0.564531
H53	H	-0.588237	0.140418	-0.228208
H54	H	-1.103826	-0.557702	-0.005661
H55	H	-0.875995	-0.558028	-0.102079
H56	H	-0.554839	0.000144	0.038383
F57	F	-0.451603	-0.159978	-0.035740
H58	H	-0.588168	-0.140203	-0.228236
H59	H	-0.945318	-0.441934	-0.270838
H60	H	-0.955177	-0.441820	0.030437
F61	F	-1.193982	-0.433621	-0.179667
F62	F	-1.240586	-0.000008	0.592860
F63	F	-1.294577	0.000034	0.375057
F64	F	-1.112679	0.000038	0.180558
F65	F	-1.169419	0.000035	0.241216
F66	F	-0.914038	0.000089	0.652678
F67	F	-0.489484	0.000201	-0.339622
H68	H	-0.810567	0.000008	0.508662
H69	H	-0.776087	0.000033	0.338336
H70	H	-1.093783	-0.557992	-0.306964
H71	H	-0.460923	0.140535	-0.048357
F72	F	-0.808365	0.000041	0.130692
