data_functionalizedCrystal
_audit_creation_method	'MofGen! by Chris Wilmer'
_symmetry_space_group_name_H-M	'P1'
_symmetry_Int_Tables_number	1
_symmetry_cell_setting	triclinic
loop_
_symmetry_equiv_pos_as_xyz
  x,y,z
_cell_length_a	19.188930
_cell_length_b	19.188930
_cell_length_c	18.266242
_cell_angle_alpha	90.011475
_cell_angle_beta	89.977082
_cell_angle_gamma	96.855221
loop_
_atom_site_label
_atom_site_type_symbol
_atom_site_fract_x
_atom_site_fract_y
_atom_site_fract_z
O1	O	0.926149	-0.087169	-0.061124
O2	O	1.259483	0.246165	0.272209
O3	O	1.592816	0.579498	0.605542
O4	O	0.722838	-0.098903	-0.061075
O5	O	1.056171	0.234430	0.272258
O6	O	1.389505	0.567764	0.605591
O7	O	0.830361	0.008620	-0.061087
O8	O	1.163694	0.341953	0.272246
O9	O	1.497027	0.675286	0.605580
O10	O	0.818627	-0.194691	-0.061113
O11	O	1.151960	0.138642	0.272221
O12	O	1.485293	0.471975	0.605554
O13	O	0.830343	0.008625	0.060675
O14	O	1.163676	0.341959	0.394008
O15	O	1.497009	0.675292	0.727342
O16	O	0.722820	-0.098897	0.060687
O17	O	1.056153	0.234436	0.394020
O18	O	1.389486	0.567769	0.727353
O19	O	0.926131	-0.087163	0.060638
O20	O	1.259464	0.246170	0.393971
O21	O	1.592798	0.579503	0.727304
Zn22	Zn	0.824473	-0.093029	0.079994
Zn23	Zn	1.157806	0.240304	0.413328
Zn24	Zn	1.491139	0.573637	0.746661
Zn25	Zn	0.824497	-0.093037	-0.080432
Zn26	Zn	1.157830	0.240297	0.252901
Zn27	Zn	1.491163	0.573630	0.586234
O28	O	0.818608	-0.194686	0.060649
O29	O	1.151942	0.138647	0.393983
O30	O	1.485275	0.471981	0.727316
C31	C	0.696818	-0.098520	-0.000188
C32	C	1.030151	0.234813	0.333145
C33	C	1.363485	0.568146	0.666479
C34	C	0.619313	-0.097380	-0.000169
C35	C	0.952647	0.235954	0.333165
C36	C	1.285980	0.569287	0.666498
C37	C	0.574389	-0.160470	-0.000188
C38	C	0.907723	0.172863	0.333145
C39	C	1.241056	0.506196	0.666479
C40	C	0.501566	-0.159399	-0.000196
C41	C	0.834899	0.173935	0.333137
C42	C	1.168232	0.507268	0.666471
C43	C	0.473669	-0.095233	-0.000199
C44	C	0.807002	0.238101	0.333134
C45	C	1.140336	0.571434	0.666468
C46	C	0.518603	-0.032133	-0.000175
C47	C	0.851936	0.301200	0.333158
C48	C	1.185270	0.634533	0.666491
C49	C	0.591425	-0.033207	-0.000160
C50	C	0.924758	0.300126	0.333173
C51	C	1.258092	0.633460	0.666506
N52	N	0.365695	-0.046188	-0.041663
N53	N	0.699028	0.287146	0.291670
N54	N	1.032362	0.620479	0.625003
N55	N	0.296516	-0.045172	-0.041679
N56	N	0.629850	0.288161	0.291654
N57	N	0.963183	0.621495	0.624987
C58	C	0.254260	-0.091994	-0.000243
C59	C	0.587594	0.241339	0.333090
C60	C	0.920927	0.574672	0.666423
N61	N	0.283795	-0.139881	0.041200
N62	N	0.617128	0.193452	0.374533
N63	N	0.950462	0.526785	0.707867
N64	N	0.352980	-0.140899	0.041213
N65	N	0.686313	0.192434	0.374546
N66	N	1.019646	0.525768	0.707879
C67	C	0.394707	-0.094062	-0.000215
C68	C	0.728040	0.239272	0.333118
C69	C	1.061373	0.572605	0.666452
C70	C	0.130372	-0.153928	-0.000270
C71	C	0.463705	0.179406	0.333063
C72	C	0.797039	0.512739	0.666396
C73	C	0.057547	-0.152853	-0.000274
C74	C	0.390881	0.180480	0.333060
C75	C	0.724214	0.513813	0.666393
C76	C	0.074586	-0.025586	-0.000261
C77	C	0.407919	0.307747	0.333073
C78	C	0.741253	0.641080	0.666406
C79	C	0.147409	-0.026662	-0.000250
C80	C	0.480743	0.306671	0.333083
C81	C	0.814076	0.640004	0.666417
C82	C	0.175298	-0.090835	-0.000258
C83	C	0.508631	0.242498	0.333075
C84	C	0.841964	0.575832	0.666408
C85	C	0.829972	0.034634	-0.000204
C86	C	1.163305	0.367967	0.333130
C87	C	1.496638	0.701300	0.666463
C88	C	0.828831	0.112138	-0.000197
C89	C	1.162164	0.445471	0.333136
C90	C	1.495498	0.778805	0.666469
C91	C	0.952151	-0.087546	-0.000252
C92	C	1.285485	0.245787	0.333082
C93	C	1.618818	0.579121	0.666415
C94	C	1.029656	-0.088687	-0.000276
C95	C	1.362989	0.244647	0.333058
C96	C	1.696322	0.577980	0.666391
C97	C	0.818997	-0.220700	-0.000236
C98	C	1.152331	0.112634	0.333098
C99	C	1.485664	0.445967	0.666431
C100	C	0.820138	-0.298204	-0.000247
C101	C	1.153471	0.035129	0.333086
C102	C	1.486805	0.368462	0.666420
N103	N	0.824461	-0.093024	0.189481
N104	N	1.157795	0.240309	0.522815
N105	N	1.491128	0.573643	0.856148
C106	C	0.891922	0.157062	-0.000209
C107	C	1.225255	0.490395	0.333124
C108	C	1.558589	0.823729	0.666458
C109	C	0.890850	0.229886	-0.000220
C110	C	1.224184	0.563219	0.333113
C111	C	1.557517	0.896552	0.666446
C112	C	0.826684	0.257782	-0.000206
C113	C	1.160017	0.591116	0.333128
C114	C	1.493351	0.924449	0.666461
C115	C	0.763585	0.212849	-0.000198
C116	C	1.096918	0.546182	0.333135
C117	C	1.430252	0.879515	0.666469
C118	C	0.764658	0.140026	-0.000194
C119	C	1.097992	0.473360	0.333140
C120	C	1.431325	0.806693	0.666473
N121	N	0.777631	0.365789	0.041244
N122	N	1.110964	0.699123	0.374578
N123	N	1.444297	1.032456	0.707911
N124	N	0.776615	0.434968	0.041242
N125	N	1.109948	0.768301	0.374575
N126	N	1.443282	1.101635	0.707909
C127	C	0.823446	0.477191	-0.000220
C128	C	1.156779	0.810524	0.333114
C129	C	1.490113	1.143858	0.666447
N130	N	0.871341	0.447624	-0.041669
N131	N	1.204675	0.780957	0.291664
N132	N	1.538008	1.114290	0.624997
N133	N	0.872359	0.378439	-0.041664
N134	N	1.205692	0.711772	0.291670
N135	N	1.539025	1.045106	0.625003
C136	C	0.825513	0.336745	-0.000210
C137	C	1.158846	0.670078	0.333123
C138	C	1.492180	1.003412	0.666456
C139	C	0.885379	0.601079	-0.000245
C140	C	1.218712	0.934413	0.333089
C141	C	1.552046	1.267746	0.666422
C142	C	0.884305	0.673904	-0.000261
C143	C	1.217638	1.007238	0.333073
C144	C	1.550971	1.340571	0.666406
C145	C	0.757038	0.656865	-0.000231
C146	C	1.090371	0.990199	0.333103
C147	C	1.423704	1.323532	0.666436
C148	C	0.758114	0.584042	-0.000222
C149	C	1.091447	0.917376	0.333111
C150	C	1.424781	1.250709	0.666444
C151	C	0.822287	0.556154	-0.000226
C152	C	1.155620	0.889487	0.333108
C153	C	1.488953	1.222821	0.666441
N154	N	0.824513	-0.093037	-0.189919
N155	N	1.157847	0.240297	0.143414
N156	N	1.491180	0.573630	0.476747
C157	C	0.872088	-0.045436	0.227785
C158	C	1.205421	0.287897	0.561118
C159	C	1.538755	0.621230	0.894452
C160	C	0.872092	-0.045433	0.304430
C161	C	1.205426	0.287900	0.637763
C162	C	1.538759	0.621234	0.971097
C163	C	0.824477	-0.093030	0.342768
C164	C	1.157810	0.240304	0.676102
C165	C	1.491144	0.573637	1.009435
C166	C	0.776841	-0.140621	0.304455
C167	C	1.110175	0.192712	0.637789
C168	C	1.443508	0.526046	0.971122
C169	C	0.776834	-0.140618	0.227812
C170	C	1.110167	0.192715	0.561145
C171	C	1.443500	0.526048	0.894479
N172	N	0.815401	-0.154837	0.463094
N173	N	1.148735	0.178496	0.796427
N174	N	1.482068	0.511830	1.129761
N175	N	0.815413	-0.154838	0.535902
N176	N	1.148746	0.178496	0.869236
N177	N	1.482080	0.511829	1.202569
C178	C	0.824496	-0.093040	0.573691
C179	C	1.157830	0.240294	0.907024
C180	C	1.491163	0.573627	1.240357
N181	N	0.833582	-0.031239	0.535920
N182	N	1.166915	0.302094	0.869254
N183	N	1.500248	0.635427	1.202587
N184	N	0.833574	-0.031240	0.463106
N185	N	1.166907	0.302094	0.796439
N186	N	1.500240	0.635427	1.129772
C187	C	0.824480	-0.093038	0.425875
C188	C	1.157813	0.240296	0.759209
C189	C	1.491146	0.573629	1.092542
C190	C	0.872131	-0.045444	0.695101
C191	C	1.205464	0.287889	1.028435
C192	C	1.538797	0.621222	1.361768
C193	C	0.872130	-0.045440	0.771748
C194	C	1.205463	0.287893	1.105081
C195	C	1.538797	0.621226	1.438414
C196	C	0.776882	-0.140634	0.771772
C197	C	1.110216	0.192699	1.105105
C198	C	1.443549	0.526032	1.438438
C199	C	0.776879	-0.140632	0.695127
C200	C	1.110213	0.192701	1.028460
C201	C	1.443546	0.526034	1.361794
C202	C	0.824507	-0.093038	0.656796
C203	C	1.157841	0.240295	0.990130
C204	C	1.491174	0.573628	1.323463
H205	H	0.628003	0.018171	-0.000145
H206	H	0.961336	0.351504	0.333189
H207	H	1.294670	0.684838	0.666522
N208	N	0.923511	0.005885	0.813059
N209	N	1.256844	0.339219	1.146392
N210	N	1.590177	0.672552	1.479725
H211	H	0.896942	0.036744	0.844880
H212	H	1.230276	0.370077	1.178213
H213	H	1.563609	0.703411	1.511546
H214	H	0.953665	0.035979	0.777091
H215	H	1.286999	0.369313	1.110424
H216	H	1.620332	0.702646	1.443758
N217	N	0.604460	-0.229687	-0.000198
N218	N	0.937793	0.103647	0.333135
N219	N	1.271127	0.436980	0.666469
H220	H	0.588035	-0.257319	0.044931
H221	H	0.921368	0.076015	0.378264
H222	H	1.254701	0.409348	0.711598
H223	H	0.657406	-0.220744	-0.000215
H224	H	0.990739	0.112590	0.333118
H225	H	1.324072	0.445923	0.666451
H226	H	0.910910	-0.006688	0.663892
H227	H	1.244243	0.326645	0.997225
H228	H	1.577577	0.659979	1.330558
N229	N	0.009092	-0.220906	-0.000301
N230	N	0.342425	0.112427	0.333032
N231	N	0.675758	0.445760	0.666366
H232	H	-0.041274	-0.210491	-0.000306
H233	H	0.292060	0.122843	0.333027
H234	H	0.625393	0.456176	0.666361
H235	H	0.018077	-0.248884	0.044833
H236	H	0.351410	0.084449	0.378166
H237	H	0.684743	0.417782	0.711500
H238	H	0.706738	0.547464	-0.000208
H239	H	1.040072	0.880797	0.333125
H240	H	1.373405	1.214131	0.666458
H241	H	0.944176	0.134360	-0.000214
H242	H	1.277509	0.467694	0.333119
H243	H	1.610843	0.801027	0.666452
H244	H	0.937632	0.578372	-0.000251
H245	H	1.270966	0.911705	0.333082
H246	H	1.604299	1.245038	0.666416
H247	H	0.711340	0.235567	-0.000187
H248	H	1.044674	0.568900	0.333146
H249	H	1.378007	0.902233	0.666479
H250	H	0.713281	0.103448	-0.000184
H251	H	1.046614	0.436782	0.333149
H252	H	1.379947	0.770115	0.666483
H253	H	0.910877	-0.006680	0.335623
H254	H	1.244210	0.326654	0.668956
H255	H	1.577544	0.659987	1.002289
N256	N	0.958900	0.278352	-0.000235
N257	N	1.292234	0.611685	0.333099
N258	N	1.625567	0.945019	0.666432
H259	H	0.999715	0.249634	-0.000238
H260	H	1.333049	0.582968	0.333096
H261	H	1.666382	0.916301	0.666429
H262	H	0.961213	0.308946	0.044903
H263	H	1.294546	0.642279	0.378236
H264	H	1.627880	0.975612	0.711570
H265	H	0.051874	0.026659	-0.000309
H266	H	0.385207	0.359992	0.333025
H267	H	0.718540	0.693326	0.666358
N268	N	0.952356	0.722362	-0.000276
N269	N	1.285689	1.055696	0.333057
N270	N	1.619023	1.389029	0.666390
H271	H	0.993169	0.693642	-0.000276
H272	H	1.326502	1.026975	0.333058
H273	H	1.659835	1.360308	0.666391
H274	H	0.954670	0.752959	0.044859
H275	H	1.288003	1.086292	0.378192
H276	H	1.621336	1.419626	0.711526
N277	N	0.687828	0.686943	-0.000223
N278	N	1.021161	1.020276	0.333110
N279	N	1.354495	1.353609	0.666444
H280	H	0.696720	0.739893	-0.000230
H281	H	1.030054	1.073226	0.333104
H282	H	1.363387	1.406559	0.666437
H283	H	0.660220	0.670506	0.044922
H284	H	0.993554	1.003839	0.378256
H285	H	1.326887	1.337173	0.711589
N286	N	0.725521	-0.191967	0.813114
N287	N	1.058854	0.141367	1.146447
N288	N	1.392187	0.474700	1.479780
H289	H	0.695347	-0.222114	0.777214
H290	H	1.028680	0.111219	1.110548
H291	H	1.362014	0.444553	1.443881
H292	H	0.694745	-0.165305	0.844931
H293	H	1.028078	0.168028	1.178265
H294	H	1.361412	0.501362	1.511598
N295	N	0.725510	-0.191959	0.653808
N296	N	1.058843	0.141374	0.987141
N297	N	1.392177	0.474707	1.320474
H298	H	0.695345	-0.222111	0.689723
H299	H	1.028678	0.111222	1.023056
H300	H	1.362011	0.444555	1.356389
H301	H	0.752136	-0.222761	0.621984
H302	H	1.085470	0.110573	0.955317
H303	H	1.418803	0.443906	1.288650
N304	N	0.923451	0.005898	0.186442
N305	N	1.256785	0.339232	0.519775
N306	N	1.590118	0.672565	0.853109
H307	H	0.972978	-0.002023	0.199754
H308	H	1.306311	0.331310	0.533087
H309	H	1.639644	0.664643	0.866420
H310	H	0.915506	0.055410	0.199816
H311	H	1.248840	0.388743	0.533149
H312	H	1.582173	0.722077	0.866483
N313	N	0.453100	-0.227449	-0.000219
N314	N	0.786433	0.105885	0.333115
N315	N	1.119766	0.439218	0.666448
H316	H	0.481817	-0.268264	-0.000221
H317	H	0.815151	0.065070	0.333112
H318	H	1.148484	0.398403	0.666445
H319	H	0.422543	-0.229769	-0.045366
H320	H	0.755876	0.103565	0.287967
H321	H	1.089210	0.436898	0.621301
H322	H	0.495885	0.020111	-0.000188
H323	H	0.829218	0.353444	0.333145
H324	H	1.162552	0.686778	0.666479
N325	N	0.725480	-0.191955	0.345800
N326	N	1.058813	0.141379	0.679134
N327	N	1.392147	0.474712	1.012467
H328	H	0.732713	-0.184737	0.400167
H329	H	1.066046	0.148597	0.733500
H330	H	1.399379	0.481930	1.066833
H331	H	0.733387	-0.241467	0.332385
H332	H	1.066720	0.091867	0.665719
H333	H	1.400053	0.425200	0.999052
N334	N	0.160456	-0.223139	-0.000265
N335	N	0.493789	0.110194	0.333068
N336	N	0.827123	0.443528	0.666401
H337	H	0.213406	-0.214246	-0.000258
H338	H	0.546739	0.119087	0.333075
H339	H	0.880073	0.452420	0.666409
H340	H	0.144030	-0.250742	-0.045408
H341	H	0.477363	0.082591	0.287925
H342	H	0.810697	0.415925	0.621259
H343	H	0.738049	-0.179371	0.196624
H344	H	1.071383	0.153963	0.529958
H345	H	1.404716	0.487296	0.863291
N346	N	0.195869	0.041386	-0.000229
N347	N	0.529202	0.374719	0.333105
N348	N	0.862535	0.708053	0.666438
H349	H	0.167148	0.082199	-0.000231
H350	H	0.500482	0.415532	0.333102
H351	H	0.833815	0.748866	0.666436
H352	H	0.226481	0.043713	-0.045360
H353	H	0.559815	0.377046	0.287974
H354	H	0.893148	0.710379	0.621307
