data_functionalizedCrystal
_audit_creation_method	'MofGen! by Chris Wilmer'
_symmetry_space_group_name_H-M	'P1'
_symmetry_Int_Tables_number	1
_symmetry_cell_setting	triclinic
loop_
_symmetry_equiv_pos_as_xyz
  x,y,z
_cell_length_a	13.635800
_cell_length_b	10.943632
_cell_length_c	13.563497
_cell_angle_alpha	72.399134
_cell_angle_beta	104.703674
_cell_angle_gamma	71.161120
loop_
_atom_site_label
_atom_site_type_symbol
_atom_site_fract_x
_atom_site_fract_y
_atom_site_fract_z
V1	V	2.072781	-0.301923	0.346125
O2	O	2.051351	-0.112372	0.339563
O3	O	2.061652	-0.476634	0.343731
O4	O	2.068320	-0.352952	0.497094
O5	O	2.044637	-0.236910	0.185139
V6	V	2.310344	-0.272672	0.326873
O7	O	2.212621	-0.366087	0.388355
O8	O	2.395603	-0.208509	0.284642
O9	O	2.209869	-0.097962	0.329266
O10	O	2.390473	-0.462223	0.333434
O11	O	2.397186	-0.337686	0.487858
O12	O	2.203202	-0.221643	0.175904
V13	V	2.572781	-0.301923	0.346125
O14	O	2.551351	-0.112372	0.339563
O15	O	2.561652	-0.476634	0.343731
O16	O	2.568320	-0.352952	0.497094
O17	O	2.544637	-0.236910	0.185139
V18	V	2.810344	-0.272672	0.326873
O19	O	2.712621	-0.366087	0.388355
O20	O	2.895603	-0.208509	0.284642
O21	O	2.709869	-0.097962	0.329266
O22	O	2.890473	-0.462223	0.333434
O23	O	2.897186	-0.337686	0.487858
O24	O	2.703202	-0.221643	0.175904
C25	C	1.986694	-0.517485	0.338264
C26	C	2.018370	-0.660671	0.337313
C27	C	1.940518	-0.735572	0.330991
C28	C	1.976043	-0.776294	0.241368
C29	C	2.039300	-0.875088	0.425254
C30	C	2.053452	-0.699466	0.247627
C31	C	2.116721	-0.798297	0.431595
C32	C	2.152300	-0.838975	0.341954
C33	C	1.995198	-0.359714	0.533892
C34	C	2.032278	-0.402592	0.657309
C35	C	2.116499	-0.057116	0.334730
C36	C	2.074443	0.086066	0.335688
C37	C	2.107994	-0.214883	0.139100
C38	C	2.060532	-0.171998	0.015681
C39	C	2.486694	-0.517485	0.338264
C40	C	2.518370	-0.660671	0.337313
C41	C	2.080934	-0.546618	0.731124
C42	C	2.115784	-0.586915	0.847083
C43	C	2.101973	-0.483190	0.889238
C44	C	2.053309	-0.339160	0.815423
C45	C	2.018464	-0.298859	0.699453
C46	C	2.039502	-0.235431	0.857567
C47	C	1.990838	-0.091401	0.783752
C48	C	1.955997	-0.051107	0.667794
C49	C	1.969808	-0.154833	0.625639
C50	C	2.074347	-0.275731	0.973537
C51	C	2.011877	-0.027972	0.941867
C52	C	1.977027	0.012325	0.825908
C53	C	2.495198	-0.359714	0.533892
C54	C	2.532278	-0.402592	0.657309
C55	C	2.616499	-0.057116	0.334730
C56	C	2.574443	0.086066	0.335688
C57	C	2.607994	-0.214883	0.139100
C58	C	2.560532	-0.171998	0.015681
C59	C	2.641996	-0.431180	0.720926
C60	C	2.676847	-0.471451	0.836888
C61	C	2.601981	-0.483143	0.889233
C62	C	2.492253	-0.454547	0.825608
C63	C	2.457401	-0.414267	0.709647
C64	C	2.453171	-0.160303	-0.036636
C65	C	2.408556	-0.119992	-0.152602
C66	C	2.471309	-0.091388	-0.216248
C67	C	2.578679	-0.103082	-0.163924
C68	C	2.623288	-0.143382	-0.047961
C69	C	2.440518	-0.735572	0.330991
C70	C	2.476043	-0.776294	0.241368
C71	C	2.539300	-0.875088	0.425254
C72	C	2.553452	-0.699466	0.247627
C73	C	2.616721	-0.798297	0.431595
C74	C	2.652300	-0.838975	0.341954
H75	H	1.850656	-0.690399	0.326250
C76	C	2.773653	-0.899593	0.348173
N77	N	2.865054	-0.945250	0.352852
C78	C	2.396142	-0.765645	0.132707
N79	N	2.335954	-0.757624	0.050868
H80	H	2.559105	-0.623932	0.172484
H81	H	2.766197	-0.494735	0.888677
C82	C	2.531605	-0.977273	0.526648
N83	N	2.525801	-1.054229	0.603014
C84	C	2.724367	-0.418319	0.663367
N85	N	2.786414	-0.408624	0.620020
C86	C	2.696563	-0.808903	0.540262
N87	N	2.756693	-0.816890	0.622120
H88	H	2.350656	-0.690399	0.326250
H89	H	1.916896	-0.768399	0.160931
C90	C	2.061082	-0.597423	0.146106
N91	N	2.066824	-0.520560	0.069639
H92	H	2.431305	-0.464073	0.868246
C93	C	2.273653	-0.899593	0.348173
N94	N	2.365054	-0.945250	0.352852
C95	C	2.336709	-0.382849	0.639684
N96	N	2.245801	-0.359191	0.586994
H97	H	2.175828	-0.806159	0.512032
H98	H	2.033599	-0.950739	0.500296
H99	H	2.113965	-0.393001	1.033627
C100	C	2.384117	-0.191751	0.033353
N101	N	2.332095	-0.215425	0.086060
H102	H	2.130347	-0.516008	0.983658
C103	C	2.096136	-0.660700	0.684744
N104	N	2.107592	-0.746635	0.649811
H105	H	2.321129	-0.110477	-0.195187
H106	H	2.434977	-0.058591	-0.310670
H107	H	2.630374	-0.515943	0.983658
C108	C	1.931446	-0.110510	0.498076
N109	N	1.902543	-0.077130	0.401993
C110	C	2.169283	-0.745340	0.928268
N111	N	2.209569	-0.864674	0.989419
H112	H	1.916385	0.066170	0.607697
C113	C	1.923499	0.170755	0.744697
N114	N	1.883182	0.290084	0.683529
H115	H	2.710714	-0.152908	-0.005374
H116	H	2.000632	0.056490	0.976188
H117	H	2.629761	-0.079782	-0.215763
