data_functionalizedCrystal
_audit_creation_method	'MofGen! by Chris Wilmer'
_symmetry_space_group_name_H-M	'P1'
_symmetry_Int_Tables_number	1
_symmetry_cell_setting	triclinic
loop_
_symmetry_equiv_pos_as_xyz
  x,y,z
_cell_length_a	10.723024
_cell_length_b	10.489741
_cell_length_c	9.198806
_cell_angle_alpha	89.997101
_cell_angle_beta	89.996352
_cell_angle_gamma	84.503522
loop_
_atom_site_label
_atom_site_type_symbol
_atom_site_fract_x
_atom_site_fract_y
_atom_site_fract_z
O1	O	1.657297	0.178906	-0.120882
O2	O	2.157297	0.678906	0.379118
O3	O	1.294155	0.196031	-0.120887
O4	O	1.794155	0.696031	0.379113
O5	O	1.483989	0.001865	-0.120876
O6	O	1.983989	0.501865	0.379124
O7	O	1.467463	0.373072	-0.120893
O8	O	1.967463	0.873072	0.379107
O9	O	1.483974	0.001865	0.120909
O10	O	1.983974	0.501865	0.620909
O11	O	1.294140	0.196030	0.120898
O12	O	1.794140	0.696030	0.620898
O13	O	1.657282	0.178906	0.120903
O14	O	2.157282	0.678906	0.620903
Cu15	Cu	1.475710	0.187468	0.142977
Cu16	Cu	1.975710	0.687468	0.642977
Cu17	Cu	1.475728	0.187469	-0.142962
Cu18	Cu	1.975728	0.687469	0.357038
O19	O	1.467448	0.373071	0.120892
O20	O	1.967448	0.873071	0.620892
C21	C	1.247647	0.194785	0.000005
C22	C	1.747647	0.694785	0.500005
C23	C	1.109091	0.191056	0.000003
C24	C	1.609091	0.691056	0.500003
C25	C	1.034175	0.299701	-0.000003
C26	C	1.534175	0.799701	0.499997
C27	C	0.890969	0.295850	-0.000005
C28	C	1.390969	0.795850	0.499995
C29	C	1.482734	-0.045666	0.000016
C30	C	1.982734	0.454334	0.500016
C31	C	1.478999	-0.187293	0.000013
C32	C	1.978999	0.312707	0.500013
C33	C	1.358213	-0.255356	0.000001
C34	C	1.858213	0.244644	0.500001
C35	C	1.415264	-0.347515	0.119214
C36	C	1.915264	0.152485	0.619214
C37	C	1.415308	-0.347489	-0.119167
C38	C	1.915308	0.152511	0.380833
C39	C	1.536100	-0.277587	0.119325
C40	C	2.036100	0.222413	0.619325
C41	C	1.536126	-0.277551	-0.119163
C42	C	2.036126	0.222449	0.380837
C43	C	1.593265	-0.369683	0.000079
C44	C	2.093265	0.130317	0.500079
C45	C	1.703790	0.180152	0.000008
C46	C	2.203790	0.680152	0.500008
C47	C	1.842347	0.183881	-0.000000
C48	C	2.342347	0.683881	0.500000
C49	C	1.468704	0.420602	-0.000003
C50	C	1.968704	0.920602	0.499997
C51	C	1.472438	0.562229	-0.000010
C52	C	1.972438	1.062229	0.499990
N53	N	1.475706	0.187467	0.344091
N54	N	1.975706	0.687467	0.844091
N55	N	1.475741	0.187460	-0.344075
N56	N	1.975741	0.687460	0.155925
C57	C	1.555412	0.105583	0.416293
C58	C	2.055412	0.605583	0.916293
C59	C	1.555431	0.105578	0.583705
C60	C	2.055431	0.605578	1.083705
H61	H	1.067210	0.095190	-0.000030
H62	H	1.567210	0.595190	0.499970
F63	F	1.386547	0.279104	0.574781
F64	F	1.886547	0.779104	1.074781
H65	H	1.407477	0.257563	0.406215
H66	H	1.907477	0.757563	0.906215
H67	H	1.623633	0.035476	0.354171
H68	H	2.123633	0.535476	0.854171
H69	H	1.587156	-0.246787	0.220223
H70	H	2.087156	0.253213	0.720223
H71	H	1.623675	0.035479	0.645796
H72	H	2.123675	0.535479	1.145796
F73	F	0.806829	0.417423	-0.000022
F74	F	1.306829	0.917423	0.499978
H75	H	0.906715	0.090867	-0.000004
H76	H	1.406715	0.590867	0.499996
H77	H	1.258904	-0.205641	0.000120
H78	H	1.758904	0.294359	0.500120
F79	F	1.348458	-0.388008	0.250949
F80	F	1.848458	0.111992	0.750949
H81	H	1.587197	-0.246539	-0.219954
H82	H	2.087197	0.253461	0.280046
F83	F	1.088909	0.425009	-0.000004
F84	F	1.588909	0.925009	0.499996
H85	H	1.692663	-0.419171	0.000147
H86	H	2.192663	0.080829	0.500147
F87	F	1.348488	-0.387946	-0.250894
F88	F	1.848488	0.112054	0.249106
