data_functionalizedCrystal
_audit_creation_method	'MofGen! by Chris Wilmer'
_symmetry_space_group_name_H-M	'P1'
_symmetry_Int_Tables_number	1
_symmetry_cell_setting	triclinic
loop_
_symmetry_equiv_pos_as_xyz
  x,y,z
_cell_length_a	10.654545
_cell_length_b	27.732048
_cell_length_c	9.730223
_cell_angle_alpha	90.009330
_cell_angle_beta	90.002833
_cell_angle_gamma	83.562867
loop_
_atom_site_label
_atom_site_type_symbol
_atom_site_fract_x
_atom_site_fract_y
_atom_site_fract_z
O1	O	1.664989	0.067875	0.114293
O2	O	1.299238	0.074345	0.114300
O3	O	1.493473	0.000784	0.114270
O4	O	1.470754	0.141436	0.114323
O5	O	1.493461	0.000782	-0.114310
O6	O	1.299225	0.074343	-0.114280
O7	O	1.664977	0.067873	-0.114287
Zn8	Zn	1.482099	0.071108	-0.150575
Zn9	Zn	1.482115	0.071111	0.150589
O10	O	1.470742	0.141434	-0.114257
C11	C	1.252454	0.073870	0.000011
C12	C	1.113070	0.072450	0.000012
C13	C	1.492990	-0.017227	-0.000024
C14	C	1.491554	-0.070890	-0.000035
C15	C	1.047587	0.071780	-0.124588
C16	C	0.916624	0.070438	-0.124588
C17	C	0.916638	0.070437	0.124622
C18	C	1.047600	0.071776	0.124621
C19	C	1.597293	-0.409048	0.000034
C20	C	1.591965	-0.610740	0.000053
O21	O	1.688657	-0.641394	0.000111
N22	N	1.476792	-0.630581	0.000054
C23	C	1.362943	-0.599994	0.000059
O24	O	1.264858	-0.621498	0.000075
C25	C	1.368272	-0.398302	0.000050
C26	C	1.483453	-0.378465	0.000035
C27	C	1.712465	-0.389210	0.000020
C28	C	1.713796	-0.338790	0.000008
C29	C	1.599955	-0.308207	0.000009
C30	C	1.484784	-0.328045	0.000022
C31	C	1.254424	-0.367717	0.000065
C32	C	1.255766	-0.317291	0.000066
C33	C	1.370947	-0.297454	0.000051
C34	C	1.372274	-0.247042	0.000011
N35	N	1.487447	-0.227202	0.000010
C36	C	1.601288	-0.257784	0.000009
C37	C	1.360153	-0.705886	0.000061
C38	C	1.358820	-0.756308	0.000061
C39	C	1.587843	-0.767051	0.000058
C40	C	1.589175	-0.716627	0.000048
C41	C	1.475326	-0.686045	0.000060
C42	C	1.604074	-0.151898	-0.000018
C43	C	1.605394	-0.101473	-0.000036
C44	C	1.376372	-0.090735	-0.000025
C45	C	1.375050	-0.141155	-0.000014
C46	C	1.488912	-0.171736	-0.000006
O47	O	1.275634	-0.216360	-0.000032
O48	O	1.699358	-0.236272	0.000024
C49	C	1.595963	-0.459468	0.000046
C50	C	1.480791	-0.479306	0.000059
C51	C	1.366951	-0.448723	0.000060
C52	C	1.479459	-0.529728	0.000059
C53	C	1.593299	-0.560311	0.000058
C54	C	1.708473	-0.540470	0.000057
C55	C	1.709803	-0.490050	0.000045
C56	C	1.251777	-0.468563	0.000061
C57	C	1.250456	-0.518984	0.000072
C58	C	1.364296	-0.549567	0.000071
C59	C	1.711761	0.068349	0.000005
C60	C	1.851145	0.069769	0.000013
C61	C	1.471225	0.159445	0.000040
C62	C	1.472661	0.213109	0.000060
N63	N	1.482097	0.071106	-0.356112
C64	C	1.568133	0.038547	-0.428051
C65	C	1.568146	0.038547	-0.571934
C66	C	1.396082	0.103670	-0.571926
C67	C	1.396065	0.103667	-0.428045
N68	N	1.482127	0.071109	0.356125
H69	H	1.100889	0.072329	-0.226052
H70	H	0.863313	0.069893	-0.226050
F71	F	1.127856	-0.540090	0.000079
F72	F	1.659714	0.003893	-0.648492
F73	F	1.304484	0.138320	-0.351476
H74	H	0.863316	0.069889	0.226074
H75	H	1.100918	0.072320	0.226092
H76	H	1.159072	-0.443668	0.000065
F77	F	1.727991	-0.080364	-0.000051
H78	H	1.326038	0.130180	-0.630509
F79	F	1.725258	-0.184438	-0.000009
H80	H	1.805173	-0.414106	0.000024
H81	H	1.807588	-0.322643	0.000001
H82	H	1.682965	-0.700480	0.000037
F83	F	1.832395	-0.468944	0.000037
H84	H	1.680537	-0.791960	0.000056
H85	H	1.267438	-0.680990	0.000071
F86	F	1.236229	-0.777415	0.000052
F87	F	1.659693	0.003892	-0.351499
H88	H	1.160631	-0.383859	0.000085
F89	F	1.829630	-0.573027	0.000049
H90	H	1.163055	-0.292393	0.000078
H91	H	1.281261	-0.157307	-0.000040
H92	H	1.283686	-0.065825	-0.000029
