data_functionalizedCrystal
_audit_creation_method	'MofGen! by Chris Wilmer'
_symmetry_space_group_name_H-M	'P1'
_symmetry_Int_Tables_number	1
_symmetry_cell_setting	triclinic
loop_
_symmetry_equiv_pos_as_xyz
  x,y,z
_cell_length_a	12.759401
_cell_length_b	12.759394
_cell_length_c	12.759401
_cell_angle_alpha	90.008578
_cell_angle_beta	90.003120
_cell_angle_gamma	90.014017
loop_
_atom_site_label
_atom_site_type_symbol
_atom_site_fract_x
_atom_site_fract_y
_atom_site_fract_z
Zn1	Zn	1.606102	-0.418428	0.593988
Zn2	Zn	1.606046	-0.594080	0.418311
Zn3	Zn	1.430451	-0.418416	0.418327
Zn4	Zn	1.430395	-0.594066	0.593952
O5	O	1.518249	-0.506248	0.506145
O6	O	1.753116	-0.441740	0.570692
O7	O	1.582753	-0.570778	0.271292
O8	O	1.453798	-0.271396	0.441651
O9	O	1.753075	-0.570790	0.441623
O10	O	1.582848	-0.271406	0.570708
O11	O	1.453744	-0.441718	0.271304
O12	O	1.283423	-0.441705	0.441616
O13	O	1.453703	-0.570767	0.740978
O14	O	1.283382	-0.570755	0.570647
O15	O	1.582794	-0.441727	0.741004
O16	O	1.582699	-0.741099	0.441589
O17	O	1.453649	-0.741089	0.570632
C18	C	1.245281	-0.506228	0.506130
C19	C	1.128505	-0.506245	0.506149
C20	C	1.518190	-0.779215	0.506127
C21	C	1.518261	-0.895992	0.506155
C22	C	1.073649	-0.573549	0.573225
C23	C	0.963925	-0.573562	0.573236
C24	C	0.963922	-0.438965	0.439088
C25	C	1.073644	-0.438947	0.439082
C26	C	1.128509	-0.640847	0.640291
C27	C	1.073653	-0.708157	0.707371
C28	C	0.963929	-0.708170	0.707383
C29	C	0.909061	-0.640873	0.640314
C30	C	1.652541	-0.895843	0.640643
C31	C	1.719713	-0.950630	0.707895
C32	C	1.719776	-1.060351	0.707917
C33	C	1.652656	-1.115289	0.640683
C34	C	1.585483	-1.060502	0.573431
C35	C	1.585430	-0.950778	0.573414
C36	C	1.451200	-1.060651	0.438951
C37	C	1.451142	-0.950929	0.438921
C38	C	1.384081	-1.115589	0.371716
C39	C	1.316912	-1.060802	0.304458
C40	C	1.316853	-0.951074	0.304437
C41	C	1.383969	-0.896143	0.371669
C42	C	1.792282	-0.506268	0.506160
C43	C	1.909059	-0.506276	0.506166
C44	C	1.518249	-0.506247	0.780178
C45	C	1.518249	-0.506247	0.896955
C46	C	1.518336	-0.232214	0.506185
C47	C	1.518373	-0.115437	0.506202
C48	C	1.585461	-0.439070	0.951832
C49	C	1.585456	-0.439074	1.061556
C50	C	1.451025	-0.573441	1.061516
C51	C	1.451025	-0.573431	0.951794
C52	C	1.652685	-0.371886	0.896993
C53	C	1.719904	-0.304705	0.951870
C54	C	1.719899	-0.304709	1.061594
C55	C	1.652676	-0.371894	1.116441
C56	C	1.518242	-0.506269	1.233177
C57	C	1.518244	-0.506261	1.116401
H58	H	1.217852	-0.640845	0.640288
H59	H	1.774624	-0.249999	1.106272
H60	H	1.384132	-1.204930	0.371744
C61	C	0.903569	-0.364951	0.365310
C62	C	0.828143	-0.282555	0.410980
C63	C	0.767790	-0.208543	0.337199
C64	C	0.782863	-0.216926	0.217747
C65	C	0.858291	-0.299325	0.172071
C66	C	0.918644	-0.373338	0.245853
H67	H	0.816983	-0.276346	0.499411
H68	H	0.711953	-0.147545	0.371012
H69	H	0.738186	-0.162138	0.163130
H70	H	0.869452	-0.305534	0.083640
H71	H	0.974482	-0.434335	0.212039
H72	H	0.819716	-0.640881	0.640338
H73	H	1.774627	-0.249998	0.907207
C74	C	1.134000	-0.364911	0.365308
C75	C	1.118927	-0.245491	0.374099
C76	C	1.179287	-0.171447	0.300332
C77	C	1.254719	-0.216822	0.217774
C78	C	1.269796	-0.336248	0.208979
C79	C	1.209436	-0.410292	0.282746
H80	H	1.063085	-0.211897	0.435217
H81	H	1.168126	-0.083040	0.306843
H82	H	1.299401	-0.162010	0.163167
H83	H	1.325638	-0.369843	0.147861
H84	H	1.220597	-0.498699	0.276235
C85	C	1.793544	-0.890198	0.781849
C86	C	1.793486	-0.769508	0.781829
C87	C	1.867314	-0.709081	0.855785
C88	C	1.941199	-0.769344	0.929761
C89	C	1.941260	-0.890041	0.929784
C90	C	1.867432	-0.950468	0.855828
H91	H	1.738789	-0.724892	0.727065
H92	H	1.867269	-0.619733	0.855768
H93	H	1.995851	-0.724612	0.984508
H94	H	1.995957	-0.934657	0.984548
H95	H	1.867477	-1.039816	0.855845
C96	C	1.134003	-0.782176	0.781147
C97	C	1.254693	-0.782168	0.781139
C98	C	1.315039	-0.856187	0.854919
C99	C	1.254695	-0.930215	0.928706
C100	C	1.133999	-0.930227	0.928718
C101	C	1.073652	-0.856207	0.854938
H102	H	1.299368	-0.727365	0.726515
H103	H	1.404387	-0.856179	0.854910
H104	H	1.299368	-0.985009	0.983322
H105	H	1.089323	-0.985029	0.983342
H106	H	0.984304	-0.856216	0.854947
H107	H	0.919268	-0.762970	0.762010
H108	H	1.652506	-0.806502	0.640621
H109	H	1.774462	-1.104958	0.762691
C110	C	1.377091	-0.647349	1.121844
C111	C	1.377094	-0.647365	1.242534
C112	C	1.303163	-0.721278	1.302861
C113	C	1.229228	-0.795173	1.242497
C114	C	1.229222	-0.795159	1.121801
C115	C	1.303154	-0.721247	1.061474
H116	H	1.431827	-0.592661	1.287225
H117	H	1.303167	-0.721288	1.392209
H118	H	1.174500	-0.849888	1.287155
H119	H	1.174489	-0.849863	1.077110
H120	H	1.303149	-0.721237	0.972126
H121	H	1.652666	-0.371880	1.205786
H122	H	1.652704	-1.204630	0.640717
H123	H	1.262263	-1.105541	0.249726
H124	H	1.262149	-0.906472	0.249677
H125	H	1.396278	-0.628116	0.907112
H126	H	1.383932	-0.806802	0.371654
H127	H	1.652699	-0.371877	0.807650
