data_functionalizedCrystal
_audit_creation_method	'MofGen! by Chris Wilmer'
_symmetry_space_group_name_H-M	'P1'
_symmetry_Int_Tables_number	1
_symmetry_cell_setting	triclinic
loop_
_symmetry_equiv_pos_as_xyz
  x,y,z
_cell_length_a	18.101398
_cell_length_b	29.839125
_cell_length_c	29.839131
_cell_angle_alpha	90.024586
_cell_angle_beta	89.963840
_cell_angle_gamma	89.997005
loop_
_atom_site_label
_atom_site_type_symbol
_atom_site_fract_x
_atom_site_fract_y
_atom_site_fract_z
Zn1	Zn	1.132023	-0.253876	0.178970
Zn2	Zn	1.632023	0.246124	0.678970
Zn3	Zn	1.131913	-0.178737	0.254082
Zn4	Zn	1.631913	0.321263	0.754082
Zn5	Zn	1.008196	-0.178770	0.178961
Zn6	Zn	1.508196	0.321230	0.678961
Zn7	Zn	1.008112	-0.253850	0.254067
Zn8	Zn	1.508112	0.246150	0.754067
O9	O	1.070061	-0.216308	0.216520
O10	O	1.570061	0.283692	0.716520
O11	O	1.235641	-0.243905	0.188943
O12	O	1.735641	0.256095	0.688943
O13	O	1.115491	-0.115874	0.244119
O14	O	1.615491	0.384126	0.744119
O15	O	1.024703	-0.188758	0.116095
O16	O	1.524703	0.311242	0.616095
O17	O	1.235560	-0.188701	0.244128
O18	O	1.735560	0.311299	0.744128
O19	O	1.115678	-0.243938	0.116101
O20	O	1.615678	0.256062	0.616101
O21	O	1.024597	-0.115899	0.188928
O22	O	1.524597	0.384101	0.688928
O23	O	0.904552	-0.188733	0.188914
O24	O	1.404552	0.311267	0.688914
O25	O	1.024560	-0.316721	0.244103
O26	O	1.524560	0.183279	0.744103
O27	O	0.904490	-0.243894	0.244095
O28	O	1.404490	0.256106	0.744095
O29	O	1.115596	-0.316740	0.188929
O30	O	1.615596	0.183260	0.688929
O31	O	1.115409	-0.188676	0.316947
O32	O	1.615409	0.311324	0.816947
O33	O	1.024453	-0.243861	0.316936
O34	O	1.524453	0.256139	0.816936
C35	C	0.877650	-0.216315	0.216502
C36	C	1.377650	0.283685	0.716502
C37	C	0.795336	-0.216328	0.216505
C38	C	1.295336	0.283672	0.716505
C39	C	0.496245	-0.216309	0.216532
C40	C	0.996245	0.283691	0.716532
C41	C	0.527556	-0.250844	0.251418
C42	C	1.027556	0.249156	0.751418
C43	C	0.613174	-0.250986	0.251309
C44	C	1.113174	0.249014	0.751309
C45	C	0.644628	-0.216319	0.216519
C46	C	1.144628	0.283681	0.716519
C47	C	0.613584	-0.229265	0.169203
C48	C	1.113584	0.270735	0.669203
C49	C	0.527939	-0.229510	0.169413
C50	C	1.027939	0.270490	0.669413
C51	C	0.527799	-0.168746	0.228544
C52	C	1.027799	0.331254	0.728544
C53	C	0.613448	-0.168999	0.229583
C54	C	1.113448	0.331001	0.729583
C55	C	0.728487	-0.216323	0.216509
C56	C	1.228487	0.283677	0.716509
C57	C	0.412386	-0.216306	0.216539
C58	C	0.912386	0.283694	0.716539
C59	C	1.070081	-0.333487	0.216516
C60	C	1.570081	0.166513	0.716516
C61	C	1.070089	-0.383421	0.216514
C62	C	1.570089	0.116579	0.716514
C63	C	1.117542	-0.693078	0.187710
C64	C	1.617542	-0.193078	0.687710
C65	C	1.117579	-0.880751	0.187671
C66	C	1.617579	-0.380751	0.687671
O67	O	1.157870	-0.905027	0.163223
O68	O	1.657870	-0.405027	0.663223
N69	N	1.070188	-0.904207	0.216394
N70	N	1.570188	-0.404207	0.716394
C71	C	1.022780	-0.880741	0.245126
C72	C	1.522780	-0.380741	0.745126
O73	O	0.982467	-0.904998	0.269552
O74	O	1.482467	-0.404998	0.769552
C75	C	1.022740	-0.693069	0.245161
C76	C	1.522740	-0.193069	0.745161
C77	C	1.070140	-0.669616	0.216440
C78	C	1.570140	-0.169616	0.716440
C79	C	1.164937	-0.669624	0.158991
C80	C	1.664937	-0.169624	0.658991
C81	C	1.164930	-0.622709	0.159002
C82	C	1.664930	-0.122709	0.659002
C83	C	1.117528	-0.599247	0.187733
C84	C	1.617528	-0.099247	0.687733
C85	C	1.070133	-0.622700	0.216452
C86	C	1.570133	-0.122700	0.716452
C87	C	0.975330	-0.669604	0.273891
C88	C	1.475330	-0.169604	0.773891
C89	C	0.975323	-0.622683	0.273896
C90	C	1.475323	-0.122683	0.773896
C91	C	1.022723	-0.599230	0.245175
C92	C	1.522723	-0.099230	0.745175
C93	C	1.022724	-0.552323	0.245194
C94	C	1.522724	-0.052323	0.745194
N95	N	1.070116	-0.528867	0.216472
N96	N	1.570116	-0.028867	0.716472
C97	C	1.117518	-0.552329	0.187741
C98	C	1.617518	-0.052329	0.687741
C99	C	1.022806	-0.979272	0.245106
C100	C	1.522806	-0.479272	0.745106
C101	C	1.022817	-1.026190	0.245097
C102	C	1.522817	-0.526190	0.745097
C103	C	1.117614	-1.026196	0.187642
C104	C	1.617614	-0.526196	0.687642
C105	C	1.117607	-0.979277	0.187653
C106	C	1.617607	-0.479277	0.687653
C107	C	1.070197	-0.955816	0.216383
C108	C	1.570197	-0.455816	0.716383
C109	C	1.117500	-0.453803	0.187768
C110	C	1.617500	0.046197	0.687768
C111	C	1.117491	-0.406883	0.187783
C112	C	1.617491	0.093117	0.687783
C113	C	1.022691	-0.406881	0.245237
C114	C	1.522691	0.093119	0.745237
C115	C	1.022703	-0.453797	0.245223
C116	C	1.522703	0.046203	0.745223
C117	C	1.070110	-0.477256	0.216485
C118	C	1.570110	0.022744	0.716485
O119	O	0.982449	-0.528018	0.269626
O120	O	1.482449	-0.028018	0.769626
O121	O	1.157814	-0.528064	0.163312
O122	O	1.657814	-0.028064	0.663312
C123	C	1.117549	-0.739993	0.187698
C124	C	1.617549	-0.239993	0.687698
C125	C	1.070154	-0.763446	0.216417
C126	C	1.570154	-0.263446	0.716417
C127	C	1.022752	-0.739984	0.245148
C128	C	1.522752	-0.239984	0.745148
C129	C	1.070165	-0.810364	0.216409
C130	C	1.570165	-0.310364	0.716409
C131	C	1.117567	-0.833826	0.187678
C132	C	1.617567	-0.333826	0.687678
C133	C	1.164958	-0.810371	0.158956
C134	C	1.664958	-0.310371	0.658956
C135	C	1.164951	-0.763455	0.158967
C136	C	1.664951	-0.263455	0.658967
C137	C	0.975361	-0.763440	0.273870
C138	C	1.475361	-0.263440	0.773870
C139	C	0.975372	-0.810356	0.273857
C140	C	1.475372	-0.310356	0.773857
C141	C	1.022774	-0.833818	0.245126
C142	C	1.522774	-0.333818	0.745126
C143	C	1.263223	-0.216302	0.216538
C144	C	1.763223	0.283698	0.716538
C145	C	1.345537	-0.216300	0.216546
C146	C	1.845537	0.283700	0.716546
C147	C	1.069930	-0.216272	0.333242
C148	C	1.569930	0.283728	0.833242
C149	C	1.069942	-0.216272	0.383177
C150	C	1.569942	0.283728	0.883177
C151	C	1.070083	-0.099586	0.216491
C152	C	1.570083	0.400414	0.716491
C153	C	1.070219	-0.049652	0.216367
C154	C	1.570219	0.450348	0.716367
C155	C	1.117347	-0.245088	0.692789
C156	C	1.617347	0.254912	1.192789
C157	C	1.117399	-0.245117	0.880462
C158	C	1.617399	0.254883	1.380462
O159	O	1.157631	-0.269587	0.904700
O160	O	1.657631	0.230413	1.404700
N161	N	1.070080	-0.216368	0.903962
N162	N	1.570080	0.283632	1.403962
C163	C	1.022742	-0.187610	0.880541
C164	C	1.522742	0.312390	1.380541
O165	O	0.982491	-0.163161	0.904835
O166	O	1.482491	0.336839	1.404835
C167	C	1.022688	-0.187583	0.692869
C168	C	1.522688	0.312417	1.192869
C169	C	1.070015	-0.216332	0.669371
C170	C	1.570015	0.283668	1.169371
C171	C	1.164670	-0.273834	0.669291
C172	C	1.664670	0.226166	1.169291
C173	C	1.164659	-0.273825	0.622376
C174	C	1.664659	0.226175	1.122376
C175	C	1.117326	-0.245069	0.598958
C176	C	1.617326	0.254931	1.098958
C177	C	1.070004	-0.216323	0.622456
C178	C	1.570004	0.283677	1.122456
C179	C	0.975346	-0.158829	0.669449
C180	C	1.475346	0.341171	1.169449
C181	C	0.975336	-0.158825	0.622527
C182	C	1.475336	0.341175	1.122527
C183	C	1.022662	-0.187574	0.599030
C184	C	1.522662	0.312426	1.099030
C185	C	1.022661	-0.187557	0.552122
C186	C	1.522661	0.312443	1.052122
N187	N	1.069979	-0.216307	0.528622
N188	N	1.569979	0.283693	1.028622
C189	C	1.117312	-0.245063	0.552040
C190	C	1.617312	0.254937	1.052040
C191	C	1.022775	-0.187626	0.979071
C192	C	1.522775	0.312374	1.479071
C193	C	1.022790	-0.187632	1.025989
C194	C	1.522790	0.312368	1.525989
C195	C	1.117445	-0.245140	1.025907
C196	C	1.617445	0.254860	1.525907
C197	C	1.117434	-0.245131	0.978988
C198	C	1.617434	0.254869	1.478988
C199	C	1.070094	-0.216376	0.955571
C200	C	1.570094	0.283624	1.455571
C201	C	1.117287	-0.245041	0.453514
C202	C	1.617287	0.254959	0.953514
C203	C	1.117274	-0.245028	0.406595
C204	C	1.617274	0.254972	0.906595
C205	C	1.022616	-0.187522	0.406681
C206	C	1.522616	0.312478	0.906681
C207	C	1.022631	-0.187533	0.453596
C208	C	1.522631	0.312467	0.953596
C209	C	1.069969	-0.216296	0.477012
C210	C	1.569969	0.283704	0.977012
O211	O	0.982443	-0.163104	0.527855
O212	O	1.482443	0.336896	1.027855
O213	O	1.157546	-0.269516	0.527737
O214	O	1.657546	0.230484	1.027737
C215	C	1.117358	-0.245097	0.739704
C216	C	1.617358	0.254903	1.239704
C217	C	1.070035	-0.216351	0.763202
C218	C	1.570035	0.283649	1.263202
C219	C	1.022703	-0.187595	0.739784
C220	C	1.522703	0.312405	1.239784
C221	C	1.070050	-0.216357	0.810120
C222	C	1.570050	0.283643	1.310120
C223	C	1.117383	-0.245113	0.833538
C224	C	1.617383	0.254887	1.333538
C225	C	1.164701	-0.273863	0.810037
C226	C	1.664701	0.226137	1.310037
C227	C	1.164691	-0.273853	0.763122
C228	C	1.664691	0.226147	1.263122
C229	C	0.975384	-0.158845	0.763284
C230	C	1.475384	0.341155	1.263284
C231	C	0.975399	-0.158856	0.810200
C232	C	1.475399	0.341144	1.310200
C233	C	1.022732	-0.187612	0.833618
C234	C	1.522732	0.312388	1.333618
C235	C	1.070174	-0.216358	1.099341
C236	C	1.570174	0.283642	1.599341
C237	C	1.070123	-0.216388	1.049407
C238	C	1.570123	0.283612	1.549407
H239	H	0.507973	-0.264282	0.159223
H240	H	1.007973	0.235718	0.659223
Br241	Br	0.649350	-0.286590	0.151910
Br242	Br	1.149350	0.213410	0.651910
Br243	Br	0.958500	-1.058013	0.284086
Br244	Br	1.458500	-0.558013	0.784086
H245	H	1.156202	-0.960185	0.164265
H246	H	1.656202	-0.460185	0.664265
Br247	Br	0.910975	-0.590846	0.312888
Br248	Br	1.410975	-0.090846	0.812888
Br249	Br	0.493416	-0.189417	0.124624
Br250	Br	0.993416	0.310583	0.624624
H251	H	1.203548	-0.744364	0.135580
H252	H	1.703548	-0.244364	0.635580
H253	H	1.156211	-1.045307	0.164249
H254	H	1.656211	-0.545307	0.664249
Br255	Br	0.647346	-0.309724	0.238063
Br256	Br	1.147346	0.190276	0.738063
H257	H	1.203527	-0.603617	0.135614
H258	H	1.703527	-0.103617	0.635614
Br259	Br	1.181834	-0.485634	0.148763
Br260	Br	1.681834	0.014366	0.648763
H261	H	1.203538	-0.688722	0.135592
H262	H	1.703538	-0.188722	0.635592
H263	H	0.506178	-0.156982	0.262456
H264	H	1.006178	0.343018	0.762456
H265	H	0.506933	-0.242819	0.286620
H266	H	1.006933	0.257181	0.786620
H267	H	0.936839	-0.135429	0.744221
H268	H	1.436839	0.364571	1.244221
Br269	Br	0.958457	-0.947438	0.284100
Br270	Br	1.458457	-0.447438	0.784100
Br271	Br	1.181683	-0.284165	1.057697
Br272	Br	1.681683	0.215835	1.557697
H273	H	1.203557	-0.829482	0.135564
H274	H	1.703557	-0.329482	0.635564
H275	H	0.633960	-0.204897	0.142507
H276	H	1.133960	0.295103	0.642507
Br277	Br	0.494053	-0.125858	0.186193
Br278	Br	0.994053	0.374142	0.686193
H279	H	0.936732	-0.688692	0.297278
H280	H	1.436732	-0.188692	0.797278
Br281	Br	0.958380	-0.485627	0.284205
Br282	Br	1.458380	0.014373	0.784205
H283	H	0.984224	-0.164209	0.960009
H284	H	1.484224	0.335791	1.460009
H285	H	1.156093	-0.387790	0.164395
H286	H	1.656093	0.112210	0.664395
H287	H	1.155816	-0.268438	0.387464
H288	H	1.655816	0.231562	0.887464
Br289	Br	0.911044	-0.842179	0.312843
Br290	Br	1.411044	-0.342179	0.812843
Br291	Br	0.649129	-0.123807	0.190304
Br292	Br	1.149129	0.376193	0.690304
Br293	Br	0.958362	-0.375031	0.284226
Br294	Br	1.458362	0.124969	0.784226
H295	H	0.936760	-0.744342	0.297267
H296	H	1.436760	-0.244342	0.797267
Br297	Br	1.228912	-0.312868	0.701063
Br298	Br	1.728912	0.187132	1.201063
Br299	Br	1.181666	-0.284148	0.947104
Br300	Br	1.681666	0.215852	1.447104
H301	H	0.633745	-0.159236	0.264400
H302	H	1.133745	0.340764	0.764400
H303	H	0.634162	-0.242871	0.286396
H304	H	1.134162	0.257129	0.786396
Br305	Br	1.228942	-0.312886	0.841828
Br306	Br	1.728942	0.187114	1.341828
Br307	Br	0.958570	-0.148607	1.057873
Br308	Br	1.458570	0.351393	1.557873
H309	H	1.203229	-0.297263	0.743994
H310	H	1.703229	0.202737	1.243994
Br311	Br	1.181533	-0.284076	0.485285
Br312	Br	1.681533	0.215924	0.985285
Br313	Br	1.228887	-0.312846	0.590493
Br314	Br	1.728887	0.187154	1.090493
Br315	Br	0.911111	-0.119811	0.701326
Br316	Br	1.411111	0.380189	1.201326
Br317	Br	0.911082	-0.119799	0.590750
Br318	Br	1.411082	0.380201	1.090750
H319	H	0.936861	-0.135442	0.829328
H320	H	1.436861	0.364558	1.329328
H321	H	0.984100	-0.164120	0.472729
H322	H	1.484100	0.335880	0.972729
H323	H	0.506041	-0.285881	0.243572
H324	H	1.006041	0.214119	0.743572
Br325	Br	0.958383	-0.148497	0.374891
Br326	Br	1.458383	0.351503	0.874891
