data_functionalizedCrystal
_audit_creation_method	'MofGen! by Chris Wilmer'
_symmetry_space_group_name_H-M	'P1'
_symmetry_Int_Tables_number	1
_symmetry_cell_setting	triclinic
loop_
_symmetry_equiv_pos_as_xyz
  x,y,z
_cell_length_a	12.759401
_cell_length_b	16.625546
_cell_length_c	12.759393
_cell_angle_alpha	89.963806
_cell_angle_beta	89.981504
_cell_angle_gamma	90.022629
loop_
_atom_site_label
_atom_site_type_symbol
_atom_site_fract_x
_atom_site_fract_y
_atom_site_fract_z
Zn1	Zn	1.606199	-0.320951	-0.593948
Zn2	Zn	1.606069	-0.455807	-0.418253
Zn3	Zn	1.430501	-0.320993	-0.418287
Zn4	Zn	1.430465	-0.455745	-0.593895
O5	O	1.518308	-0.388374	-0.506096
O6	O	1.753203	-0.338848	-0.570649
O7	O	1.582740	-0.437968	-0.271237
O8	O	1.453876	-0.208155	-0.441625
O9	O	1.753107	-0.437927	-0.441568
O10	O	1.582961	-0.208124	-0.570682
O11	O	1.453751	-0.338920	-0.271261
O12	O	1.283475	-0.338860	-0.441574
O13	O	1.453816	-0.437821	-0.740923
O14	O	1.283449	-0.437862	-0.570592
O15	O	1.582927	-0.338788	-0.740962
O16	O	1.582706	-0.568632	-0.441517
O17	O	1.453691	-0.568586	-0.570560
C18	C	1.245341	-0.388359	-0.506081
C19	C	1.128564	-0.388372	-0.506100
C20	C	1.073717	-0.440005	-0.573169
C21	C	0.963992	-0.440015	-0.573180
C22	C	0.963974	-0.336758	-0.439045
C23	C	1.073696	-0.336744	-0.439040
C24	C	1.128585	-0.491634	-0.640229
C25	C	1.073737	-0.543271	-0.707303
C26	C	0.964013	-0.543282	-0.707314
C27	C	0.909137	-0.491654	-0.640252
C28	C	1.518209	-0.597865	-0.506052
C29	C	1.518263	-0.687486	-0.506068
C30	C	1.518446	-1.015662	-0.506177
C31	C	1.518392	-0.924353	-0.506150
C32	C	1.518353	-0.851577	-0.506122
C33	C	1.518301	-0.760262	-0.506096
C34	C	1.792342	-0.388390	-0.506111
C35	C	1.909118	-0.388396	-0.506117
C36	C	1.518382	-0.388293	-0.780129
C37	C	1.518413	-0.388258	-0.896906
C38	C	1.518437	-0.178065	-0.506163
C39	C	1.518492	-0.088444	-0.506191
C40	C	1.585650	-0.336687	-0.951790
C41	C	1.585675	-0.336657	-1.061514
C42	C	1.451223	-0.439778	-1.061461
C43	C	1.451194	-0.439803	-0.951739
C44	C	1.652870	-0.285142	-0.896957
C45	C	1.720113	-0.233567	-0.951841
C46	C	1.720138	-0.233538	-1.061565
C47	C	1.652920	-0.285084	-1.116405
C48	C	1.518296	-0.388397	-0.233128
C49	C	1.518468	-0.388204	-0.116352
H50	H	0.919358	-0.585322	-0.761936
H51	H	1.118424	-0.585299	-0.761909
C52	C	1.679642	-0.361904	-0.739790
C53	C	1.652900	-0.285183	-0.776348
H54	H	1.679682	-0.361931	-0.665332
H55	H	1.629970	-0.399969	-0.764564
H56	H	1.747420	-0.375837	-0.764670
H57	H	1.585118	-0.271253	-0.751474
H58	H	1.702574	-0.247107	-0.751563
H59	H	0.819792	-0.491660	-0.640276
H60	H	1.774833	-0.191595	-0.907183
H61	H	1.774883	-0.191537	-1.106249
H62	H	0.919285	-0.294726	-0.384446
C63	C	1.726163	-0.228904	-1.273614
C64	C	1.652951	-0.285056	-1.237017
H65	H	1.726190	-0.228894	-1.348072
H66	H	1.708015	-0.176883	-1.248821
H67	H	1.793941	-0.242863	-1.248780
H68	H	1.585172	-0.271093	-1.261845
H69	H	1.671094	-0.337088	-1.261821
H70	H	1.396497	-0.481744	-1.106120
C71	C	1.399971	-0.576346	-0.917869
C72	C	1.377315	-0.496503	-0.891387
H73	H	1.354368	-0.611351	-0.880599
H74	H	1.390348	-0.583710	-0.991050
H75	H	1.470560	-0.588130	-0.899898
H76	H	1.306727	-0.484717	-0.909364
H77	H	1.386929	-0.489135	-0.818189
C78	C	1.285775	-0.547838	-0.713244
C79	C	1.249194	-0.491621	-0.640221
H80	H	1.360233	-0.547825	-0.713240
H81	H	1.260931	-0.599847	-0.694946
H82	H	1.260980	-0.533956	-0.781076
H83	H	1.273982	-0.505506	-0.572388
H84	H	1.274049	-0.439601	-0.658514
H85	H	1.118354	-0.294694	-0.384435
