data_functionalizedCrystal
_audit_creation_method	'MofGen! by Chris Wilmer'
_symmetry_space_group_name_H-M	'P1'
_symmetry_Int_Tables_number	1
_symmetry_cell_setting	triclinic
loop_
_symmetry_equiv_pos_as_xyz
  x,y,z
_cell_length_a	10.685194
_cell_length_b	18.101398
_cell_length_c	10.686551
_cell_angle_alpha	85.596967
_cell_angle_beta	81.584560
_cell_angle_gamma	94.374291
loop_
_atom_site_label
_atom_site_type_symbol
_atom_site_fract_x
_atom_site_fract_y
_atom_site_fract_z
Zn1	Zn	-0.450287	1.142598	-0.679175
Zn2	Zn	-0.678897	1.121959	-0.450634
Zn3	Zn	-0.466636	1.008453	-0.466907
Zn4	Zn	-0.662506	1.008474	-0.662817
O5	O	-0.564582	1.070371	-0.564883
O6	O	-0.480630	1.243494	-0.648895
O7	O	-0.664442	1.098256	-0.275158
O8	O	-0.286821	1.034877	-0.508721
O9	O	-0.648589	1.228330	-0.480987
O10	O	-0.274809	1.133432	-0.664674
O11	O	-0.508495	1.014864	-0.287114
O12	O	-0.492601	0.904822	-0.492859
O13	O	-0.620653	1.034912	-0.842621
O14	O	-0.636506	0.904837	-0.636793
O15	O	-0.464737	1.133452	-0.854640
O16	O	-0.854370	1.098275	-0.465124
O17	O	-0.842327	1.014898	-0.621014
C18	C	-0.564550	0.877959	-0.564817
C19	C	-0.564564	0.795644	-0.564817
C20	C	-0.564586	0.644937	-0.564872
C21	C	-0.473891	0.613564	-0.474486
C22	C	-0.473497	0.527979	-0.474836
C23	C	-0.564607	0.496556	-0.564924
C24	C	-0.518602	0.535917	-0.701588
C25	C	-0.517921	0.621568	-0.701046
C26	C	-0.701448	0.605175	-0.519755
C27	C	-0.700966	0.519416	-0.516890
C28	C	-0.564621	0.412698	-0.564961
C29	C	-0.564568	0.728796	-0.564843
C30	C	-0.894408	1.054371	-0.539555
C31	C	-1.035506	1.047596	-0.528763
C32	C	-0.233465	1.086455	-0.590338
C33	C	-0.092363	1.093309	-0.601185
C34	C	-0.539043	1.086486	-0.895977
C35	C	-0.528160	1.093354	-1.037069
C36	C	-0.564615	1.263534	-0.564950
C37	C	-0.564629	1.345849	-0.564979
C38	C	-0.589929	1.054365	-0.235085
C39	C	-0.600455	1.047658	-0.094021
H40	H	-0.503574	0.628209	-0.373180
H41	H	-1.033098	1.137630	-0.671452
H42	H	-1.094778	1.003266	-0.458502
H43	H	-0.373270	0.640985	-0.504893
H44	H	-0.670680	1.003285	-1.034840
F45	F	-0.436376	1.151365	-1.114425
F46	F	-0.753720	0.625207	-0.390968
H47	H	-0.503409	0.501029	-0.373840
F48	F	-0.386780	0.655764	-0.749354
H49	H	-0.580577	0.642677	-0.771278
F50	F	-0.341221	0.508961	-0.515026
H51	H	-0.419315	0.520626	-0.738982
F52	F	-0.601726	0.509718	-0.792638
F53	F	-0.795042	0.490830	-0.595567
F54	F	-0.746083	0.484858	-0.385362
F55	F	-0.789935	0.631606	-0.605611
