data_functionalizedCrystal
_audit_creation_method	'MofGen! by Chris Wilmer'
_symmetry_space_group_name_H-M	'P1'
_symmetry_Int_Tables_number	1
_symmetry_cell_setting	triclinic
loop_
_symmetry_equiv_pos_as_xyz
  x,y,z
_cell_length_a	18.050590
_cell_length_b	12.759393
_cell_length_c	12.759399
_cell_angle_alpha	89.968539
_cell_angle_beta	89.998063
_cell_angle_gamma	90.003753
loop_
_atom_site_label
_atom_site_type_symbol
_atom_site_fract_x
_atom_site_fract_y
_atom_site_fract_z
Zn1	Zn	-1.135414	-0.593548	-0.418579
Zn2	Zn	-1.135337	-0.417867	-0.594297
Zn3	Zn	-1.011217	-0.417935	-0.418592
Zn4	Zn	-1.011210	-0.593556	-0.594176
O5	O	-1.073295	-0.505726	-0.506411
O6	O	-1.239328	-0.570212	-0.441934
O7	O	-1.118843	-0.270855	-0.571045
O8	O	-1.027728	-0.441255	-0.271569
O9	O	-1.239272	-0.441140	-0.571032
O10	O	-1.118974	-0.570278	-0.271560
O11	O	-1.027653	-0.270905	-0.441955
O12	O	-0.907292	-0.441262	-0.441839
O13	O	-1.027715	-0.740576	-0.570828
O14	O	-0.907286	-0.570290	-0.570840
O15	O	-1.118967	-0.740570	-0.441817
O16	O	-1.118836	-0.441147	-0.741302
O17	O	-1.027640	-0.570225	-0.741213
C18	C	-0.880342	-0.505785	-0.506328
C19	C	-0.797797	-0.505835	-0.506318
C20	C	-0.598365	-0.575848	-0.576658
C21	C	-0.548958	-0.601700	-0.480854
C22	C	-0.646666	-0.505795	-0.506368
C23	C	-0.548991	-0.479952	-0.602218
C24	C	-0.500681	-0.505757	-0.506425
C25	C	-0.598347	-0.531697	-0.410513
C26	C	-0.598384	-0.409904	-0.531942
C27	C	-0.549000	-0.435720	-0.436072
C28	C	-0.730765	-0.505819	-0.506337
C29	C	-0.416585	-0.505733	-0.506445
C30	C	-1.073249	-0.505702	-0.779379
C31	C	-1.073298	-0.505727	-0.896155
C32	C	-1.073349	-0.779760	-0.506308
C33	C	-1.073372	-0.896537	-0.506264
C34	C	-0.267000	-0.505686	-0.506481
C35	C	-0.349546	-0.505713	-0.506473
C36	C	-1.120906	-1.061129	-0.439037
C37	C	-1.120891	-0.951404	-0.439078
C38	C	-1.025868	-0.951398	-0.573420
C39	C	-1.025887	-1.061121	-0.573384
C40	C	-1.208460	-0.801441	-0.401629
C41	C	-1.255955	-0.746583	-0.334464
C42	C	-1.267389	-0.782213	-0.231943
C43	C	-1.231317	-0.872700	-0.196567
C44	C	-1.183817	-0.927553	-0.263727
C45	C	-1.172397	-0.891924	-0.366262
C46	C	-0.938317	-1.211086	-0.610822
C47	C	-0.890812	-1.265940	-0.677977
C48	C	-0.879371	-1.230312	-0.780500
C49	C	-0.915430	-1.139822	-0.815872
C50	C	-0.962934	-1.084967	-0.748717
C51	C	-0.974377	-1.120603	-0.646195
C52	C	-1.073284	-0.232759	-0.506438
C53	C	-1.073404	-0.115983	-0.506187
C54	C	-1.120837	-0.438593	-0.951028
C55	C	-1.120885	-0.438628	-1.060752
C56	C	-1.025847	-0.572935	-1.060720
C57	C	-1.025803	-0.572904	-0.950998
C58	C	-1.208543	-0.401205	-1.210660
C59	C	-1.256077	-0.334054	-1.265537
C60	C	-1.267502	-0.231539	-1.230001
C61	C	-1.231383	-0.196154	-1.139591
C62	C	-1.183844	-0.263299	-1.084720
C63	C	-1.172433	-0.365828	-1.120253
C64	C	-0.938144	-0.610317	-0.801089
C65	C	-0.890601	-0.677458	-0.746216
C66	C	-0.879168	-0.779975	-0.781749
C67	C	-0.915274	-0.815356	-0.872163
C68	C	-0.962817	-0.748215	-0.927036
C69	C	-0.974251	-0.645700	-0.891495
C70	C	-1.073361	-0.505773	-0.232378
C71	C	-1.073389	-0.505793	-0.115601
H72	H	-0.620041	-0.635152	-0.636000
N73	N	-0.521730	-0.703414	-0.453745
N74	N	-0.537549	-0.780718	-0.509566
H75	H	-0.518323	-0.852556	-0.490426
N76	N	-0.521988	-0.361383	-0.361442
N77	N	-0.537957	-0.371168	-0.266614
H78	H	-0.518879	-0.318671	-0.213903
N79	N	-0.625635	-0.308221	-0.559098
N80	N	-0.609856	-0.268946	-0.646048
H81	H	-0.629102	-0.197131	-0.665239
H82	H	-1.285325	-0.672908	-0.363277
N83	N	-1.196772	-0.765056	-0.506357
N84	N	-1.154362	-0.814039	-0.566315
H85	H	-1.146104	-0.788337	-0.640280
H86	H	-0.527307	-0.458112	-0.683253
H87	H	-0.619937	-0.553630	-0.329454
N88	N	-1.169444	-1.117154	-0.370390
N89	N	-1.211851	-1.068158	-0.310440
H90	H	-1.246134	-1.107722	-0.261955
N91	N	-0.830613	-0.848566	-0.725688
N92	N	-0.854819	-0.932437	-0.688352
H93	H	-0.820531	-0.980883	-0.648761
H94	H	-1.154439	-1.001216	-0.234919
H95	H	-1.240623	-0.901696	-0.113079
N96	N	-1.243051	-0.091423	-1.103320
N97	N	-1.285496	-0.031483	-1.152324
H98	H	-1.293738	0.042486	-1.126706
H99	H	-1.306060	-0.737540	-0.177256
N100	N	-0.977341	-0.641546	-1.116760
N101	N	-0.977385	-0.641566	-1.214725
H102	H	-0.943127	-0.690024	-1.254303
N103	N	-0.977339	-0.895340	-0.642053
N104	N	-0.977329	-0.797375	-0.642078
H105	H	-0.943054	-0.757783	-0.690551
N106	N	-0.999760	-0.992531	-0.784861
N107	N	-0.989537	-0.960722	-0.876401
H108	H	-1.015544	-0.895439	-0.901928
H109	H	-0.905965	-0.898834	-0.901095
H110	H	-0.906115	-1.110813	-0.899356
N111	N	-0.830833	-1.286347	-0.849080
N112	N	-0.798630	-1.367130	-0.817488
H113	H	-0.764351	-1.406702	-0.865922
H114	H	-0.861428	-1.339599	-0.649155
N115	N	-1.169353	-0.369969	-0.895023
N116	N	-1.211796	-0.310033	-0.944035
H117	H	-1.246063	-0.261565	-0.904484
N118	N	-0.949988	-1.247487	-0.506091
N119	N	-0.917773	-1.328267	-0.474514
H120	H	-0.926007	-1.353971	-0.400545
H121	H	-1.154439	-0.234490	-1.011108
N122	N	-1.316077	-0.162945	-1.286017
N123	N	-1.326284	-0.071418	-1.254268
H124	H	-1.360599	-0.022980	-1.293823
H125	H	-1.285485	-0.362874	-1.339149
N126	N	-1.196896	-0.505930	-1.246960
N127	N	-1.229147	-0.537501	-1.327680
H128	H	-1.220923	-0.611466	-1.353321
H129	H	-0.992219	-0.777033	-1.000653
N130	N	-0.853722	-0.641328	-0.653852
N131	N	-0.864350	-0.686540	-0.568229
H132	H	-0.838303	-0.661026	-0.502997
H133	H	-0.947455	-0.526842	-0.772143
