data_functionalizedCrystal
_audit_creation_method	'MofGen! by Chris Wilmer'
_symmetry_space_group_name_H-M	'P1'
_symmetry_Int_Tables_number	1
_symmetry_cell_setting	triclinic
loop_
_symmetry_equiv_pos_as_xyz
  x,y,z
_cell_length_a	17.699083
_cell_length_b	17.699083
_cell_length_c	16.176319
_cell_angle_alpha	89.992304
_cell_angle_beta	89.998611
_cell_angle_gamma	83.283015
loop_
_atom_site_label
_atom_site_type_symbol
_atom_site_fract_x
_atom_site_fract_y
_atom_site_fract_z
O1	O	1.004079	0.095713	-0.068632
O2	O	0.783700	0.108166	-0.068660
O3	O	0.900116	-0.008250	-0.068638
O4	O	0.887663	0.212129	-0.068654
O5	O	0.900100	-0.008257	0.068855
O6	O	0.783684	0.108158	0.068834
O7	O	1.004063	0.095706	0.068861
Cu8	Cu	0.893872	0.101931	0.081401
Cu9	Cu	0.893891	0.101940	-0.081200
O10	O	0.887647	0.212121	0.068839
C11	C	0.755495	0.107716	0.000084
C12	C	0.671477	0.106377	0.000073
C13	C	0.899662	-0.036451	0.000109
C14	C	0.898323	-0.120469	0.000109
C15	C	0.622856	0.174710	0.000069
C16	C	0.543913	0.173448	0.000079
C17	C	0.513592	0.103852	0.000089
C18	C	0.562219	0.035513	0.000096
C19	C	0.641161	0.036776	0.000091
C20	C	0.243856	0.030418	0.000117
C21	C	0.164908	0.029160	0.000120
C22	C	0.146608	0.167090	0.000105
C23	C	0.225550	0.168353	0.000100
C24	C	0.274170	0.100015	0.000112
C25	C	0.359769	0.101384	0.000102
C26	C	0.427995	0.102481	0.000093
C27	C	0.966656	-0.169090	0.000119
C28	C	0.965394	-0.248033	0.000111
C29	C	0.895798	-0.278354	0.000100
C30	C	0.827459	-0.229727	0.000088
C31	C	0.828722	-0.150785	0.000089
C32	C	0.822364	-0.548090	0.000080
C33	C	0.821106	-0.627038	0.000081
C34	C	0.959036	-0.645338	0.000102
C35	C	0.960299	-0.566396	0.000104
C36	C	0.891961	-0.517776	0.000087
C37	C	0.893330	-0.432177	0.000094
C38	C	0.894427	-0.363951	0.000099
C39	C	1.032268	0.096156	0.000116
C40	C	1.116286	0.097494	0.000121
C41	C	0.888102	0.240322	0.000091
C42	C	0.889440	0.324340	0.000085
N43	N	0.893864	0.101925	0.195767
N44	N	0.893905	0.101941	-0.195565
C45	C	0.945429	0.050397	0.239040
C46	C	0.945432	0.050396	0.325588
C47	C	0.893875	0.101927	0.368859
C48	C	0.842305	0.153457	0.325579
C49	C	0.842299	0.153454	0.239034
C50	C	0.842331	0.153472	0.674608
C51	C	0.842344	0.153473	0.761159
C52	C	0.945465	0.050414	0.761161
C53	C	0.945458	0.050410	0.674616
C54	C	0.893886	0.101937	0.631344
C55	C	0.893882	0.101937	0.537499
C56	C	0.893883	0.101932	0.462702
H57	H	0.504328	0.229092	0.000075
O58	O	0.995524	0.000247	0.803108
C59	C	0.983348	-0.074661	0.781987
H60	H	0.954173	-0.074530	0.719152
H61	H	1.040307	-0.112007	0.779027
H62	H	0.945722	-0.098020	0.830702
O63	O	0.995500	0.000244	0.367528
C64	C	0.983338	-0.074670	0.346409
H65	H	0.954155	-0.074544	0.283579
H66	H	1.040303	-0.112004	0.343440
H67	H	0.945725	-0.098038	0.395131
O68	O	0.755931	-0.500946	-0.000036
C69	C	0.713682	-0.514653	-0.071258
H70	H	0.732385	-0.574567	-0.094998
H71	H	0.650546	-0.508992	-0.055247
H72	H	0.723950	-0.471483	-0.121120
H73	H	0.800357	0.195437	0.796390
H74	H	1.016971	-0.541714	0.000117
H75	H	0.647537	0.231384	0.000060
H76	H	0.987444	0.008451	0.639387
O77	O	0.792212	0.203600	0.632708
C78	C	0.746700	0.249070	0.689463
H79	H	0.777737	0.249887	0.751149
H80	H	0.735035	0.309529	0.664449
H81	H	0.690526	0.224565	0.698684
O82	O	0.532642	-0.032027	0.000070
C83	C	0.452540	-0.018491	0.000092
H84	H	0.433891	0.040608	-0.025944
H85	H	0.428383	-0.063015	-0.039820
H86	H	0.430573	-0.022121	0.066056
O87	O	1.034282	-0.139675	-0.000019
C88	C	1.075943	-0.164541	-0.071214
H89	H	1.035246	-0.180880	-0.120988
H90	H	1.108059	-0.116775	-0.095114
H91	H	1.118211	-0.216072	-0.055112
O92	O	0.792295	0.203487	0.367739
C93	C	0.803346	0.192431	0.453406
H94	H	0.863571	0.164068	0.465224
H95	H	0.794820	0.249762	0.486286
H96	H	0.760583	0.154525	0.477982
H97	H	0.800309	0.195412	0.203801
H98	H	0.107012	0.222734	0.000100
H99	H	0.250232	0.225025	0.000089
H100	H	0.140225	-0.027517	0.000128
H101	H	0.283434	-0.025228	0.000127
H102	H	0.680748	-0.018868	0.000095
H103	H	1.021038	-0.287618	0.000121
H104	H	0.770792	-0.254420	0.000073
O105	O	1.025352	-0.692677	0.000072
C106	C	1.009320	-0.768856	0.000085
H107	H	0.949881	-0.771771	-0.025956
H108	H	1.052893	-0.804695	-0.039827
H109	H	1.012221	-0.791702	0.066047
H110	H	0.764429	-0.651721	0.000074
O111	O	0.762294	-0.103628	-0.000029
C112	C	0.720049	-0.117330	-0.071256
H113	H	0.738744	-0.177248	-0.094991
H114	H	0.656911	-0.111657	-0.055252
H115	H	0.730329	-0.074165	-0.121118
O116	O	0.995394	0.000277	0.196938
C117	C	0.954919	-0.046377	0.146933
H118	H	0.895655	-0.016131	0.133949
H119	H	0.986526	-0.058443	0.086081
H120	H	0.949848	-0.102284	0.180333
