data_functionalizedCrystal
_audit_creation_method	'MofGen! by Chris Wilmer'
_symmetry_space_group_name_H-M	'P1'
_symmetry_Int_Tables_number	1
_symmetry_cell_setting	triclinic
loop_
_symmetry_equiv_pos_as_xyz
  x,y,z
_cell_length_a	8.597366
_cell_length_b	12.837942
_cell_length_c	7.088929
_cell_angle_alpha	83.116986
_cell_angle_beta	103.954530
_cell_angle_gamma	90.035249
loop_
_atom_site_label
_atom_site_type_symbol
_atom_site_fract_x
_atom_site_fract_y
_atom_site_fract_z
O1	O	2.123009	0.142337	0.190732
O2	O	1.660901	0.159259	0.114606
O3	O	1.881709	-0.000096	0.150993
O4	O	1.902200	0.301692	0.154345
O5	O	1.911211	-0.021441	0.473829
O6	O	1.690402	0.137915	0.437443
O7	O	2.152510	0.120993	0.513568
Cu8	Cu	1.924150	0.127505	0.504983
Cu9	Cu	1.889261	0.152747	0.123191
O10	O	1.931702	0.280348	0.477182
C11	C	1.616093	0.147959	0.266213
C12	C	1.438626	0.146076	0.236978
C13	C	1.889537	-0.049383	0.311270
C14	C	1.868889	-0.164441	0.307865
C15	C	2.117108	-0.405623	0.348716
C16	C	2.097715	-0.513731	0.345518
C17	C	1.810709	-0.488766	0.298257
C18	C	1.830102	-0.380658	0.301455
C19	C	1.983307	-0.339091	0.326688
C20	C	2.002700	-0.230982	0.329900
C21	C	1.715695	-0.206018	0.282626
C22	C	1.696301	-0.314126	0.279428
C23	C	2.197317	0.132293	0.361957
C24	C	2.374784	0.134177	0.391179
C25	C	1.923874	0.329634	0.316900
C26	C	1.944521	0.444693	0.320292
N27	N	1.948700	0.109750	0.773517
N28	N	1.864722	0.170493	-0.145341
H29	H	1.455903	0.125429	0.545586
C30	C	2.285633	-0.359898	0.376482
N31	N	2.412569	-0.325459	0.397394
C32	C	2.171226	-0.185260	0.357650
N33	N	2.298164	-0.150825	0.378544
C34	C	1.568504	-0.132823	0.258395
N35	N	1.457644	-0.077692	0.240151
H36	H	2.035754	0.046806	0.869518
C37	C	2.244909	-0.586914	0.369763
N38	N	2.355782	-0.642037	0.388029
C39	C	1.747130	0.255529	0.724981
N40	N	1.658555	0.319578	0.627294
C41	C	1.527787	-0.359864	0.251696
N42	N	1.400859	-0.394313	0.230822
C43	C	1.642199	-0.534510	0.270522
N44	N	1.515276	-0.568967	0.249645
C45	C	1.329051	0.157886	0.028390
N46	N	1.246508	0.166783	-0.128723
