data_functionalizedCrystal
_audit_creation_method	'MofGen! by Chris Wilmer'
_symmetry_space_group_name_H-M	'P1'
_symmetry_Int_Tables_number	1
_symmetry_cell_setting	triclinic
loop_
_symmetry_equiv_pos_as_xyz
  x,y,z
_cell_length_a	14.519709
_cell_length_b	10.654550
_cell_length_c	13.596369
_cell_angle_alpha	90.009829
_cell_angle_beta	89.999047
_cell_angle_gamma	95.917476
loop_
_atom_site_label
_atom_site_type_symbol
_atom_site_fract_x
_atom_site_fract_y
_atom_site_fract_z
O1	O	0.129526	-1.666600	-0.081875
O2	O	0.629526	-1.166600	0.418125
O3	O	0.141867	-1.301003	-0.081859
O4	O	0.641867	-0.801003	0.418141
O5	O	0.001508	-1.493495	-0.081858
O6	O	0.501508	-0.993495	0.418142
O7	O	0.269884	-1.474108	-0.081875
O8	O	0.769884	-0.974108	0.418125
O9	O	0.001517	-1.493470	0.081725
O10	O	0.501517	-0.993470	0.581725
O11	O	0.141875	-1.300978	0.081724
O12	O	0.641875	-0.800978	0.581724
O13	O	0.129534	-1.666575	0.081708
O14	O	0.629534	-1.166575	0.581708
Zn15	Zn	0.135706	-1.483772	0.107688
Zn16	Zn	0.635706	-0.983772	0.607688
Zn17	Zn	0.135695	-1.483805	-0.107839
Zn18	Zn	0.635695	-0.983805	0.392161
O19	O	0.269893	-1.474083	0.081708
O20	O	0.769893	-0.974083	0.581708
C21	C	-0.032852	-1.492579	-0.000067
C22	C	0.467148	-0.992579	0.499933
C23	C	-0.135247	-1.489871	-0.000066
C24	C	0.364753	-0.989871	0.499934
C25	C	0.140965	-1.254201	-0.000066
C26	C	0.640965	-0.754201	0.499934
C27	C	0.138254	-1.114784	-0.000059
C28	C	0.638254	-0.614784	0.499941
C29	C	0.130436	-1.713377	-0.000087
C30	C	0.630436	-1.213377	0.499913
C31	C	0.133147	-1.852794	-0.000100
C32	C	0.633147	-1.352794	0.499900
C33	C	-0.510195	-1.479904	-0.000091
C34	C	-0.010195	-0.979904	0.499909
C35	C	-0.405873	-1.482672	-0.000084
C36	C	0.094127	-0.982672	0.499916
C37	C	-0.322725	-1.484887	-0.000078
C38	C	0.177275	-0.984887	0.499922
C39	C	-0.218396	-1.487656	-0.000072
C40	C	0.281604	-0.987656	0.499928
C41	C	0.304253	-1.474999	-0.000086
C42	C	0.804253	-0.974999	0.499914
C43	C	0.406648	-1.477707	-0.000093
C44	C	0.906648	-0.977707	0.499907
N45	N	0.135714	-1.483759	0.254780
N46	N	0.635714	-0.983759	0.754780
C47	C	0.220895	-1.034504	-0.000079
C48	C	0.720895	-0.534504	0.499921
C49	C	0.218342	-0.903507	-0.000096
C50	C	0.718342	-0.403507	0.499904
C51	C	0.050500	-0.933085	-0.000078
C52	C	0.550500	-0.433085	0.499922
C53	C	0.053054	-1.064078	-0.000054
C54	C	0.553054	-0.564078	0.499946
C55	C	0.306095	-1.085209	-0.000084
C56	C	0.806095	-0.585209	0.499916
C57	C	0.388743	-1.004928	-0.000105
C58	C	0.888743	-0.504928	0.499895
C59	C	0.386190	-0.873931	-0.000122
C60	C	0.886190	-0.373931	0.499878
C61	C	0.300989	-0.823217	-0.000118
C62	C	0.800989	-0.323217	0.499882
C63	C	0.135716	-1.483764	0.343778
C64	C	0.635716	-0.983764	0.843778
C65	C	0.135711	-1.483776	0.455429
C66	C	0.635711	-0.983776	0.955429
C67	C	0.135701	-1.483791	0.544420
C68	C	0.635701	-0.983791	1.044420
C69	C	0.135697	-1.483805	0.656078
C70	C	0.635697	-0.983805	1.156078
N71	N	0.135687	-1.483820	0.745069
N72	N	0.635687	-0.983820	1.245069
H73	H	0.308183	-1.191871	-0.000075
H74	H	0.808183	-0.691871	0.499925
H75	H	0.458110	-1.046229	-0.000100
H76	H	0.958110	-0.546229	0.499900
H77	H	-0.014240	-1.129445	-0.000040
H78	H	0.485760	-0.629445	0.499960
H79	H	-0.018867	-0.891782	-0.000091
H80	H	0.481133	-0.391782	0.499909
N81	N	0.470615	-0.791943	-0.000128
N82	N	0.970615	-0.291943	0.499872
N83	N	0.546676	-0.837238	-0.000127
N84	N	1.046676	-0.337238	0.499873
H85	H	0.606305	-0.779336	-0.000133
H86	H	1.106305	-0.279336	0.499867
N87	N	0.298374	-0.689408	-0.000101
N88	N	0.798374	-0.189408	0.499899
N89	N	0.334699	-0.624320	0.068853
N90	N	0.834699	-0.124320	0.568853
H91	H	0.332850	-0.529818	0.068868
H92	H	0.832850	-0.029818	0.568868
