data_functionalizedCrystal
_audit_creation_method	'MofGen! by Chris Wilmer'
_symmetry_space_group_name_H-M	'P1'
_symmetry_Int_Tables_number	1
_symmetry_cell_setting	triclinic
loop_
_symmetry_equiv_pos_as_xyz
  x,y,z
_cell_length_a	28.938199
_cell_length_b	28.937346
_cell_length_c	28.934044
_cell_angle_alpha	60.005004
_cell_angle_beta	60.009897
_cell_angle_gamma	59.994060
loop_
_atom_site_label
_atom_site_type_symbol
_atom_site_fract_x
_atom_site_fract_y
_atom_site_fract_z
O1	O	0.064043	-0.675186	0.564597
O2	O	0.564043	-0.175186	1.064597
O3	O	0.024124	-0.525682	0.454913
O4	O	0.524124	-0.025682	0.954913
O5	O	0.118795	-0.620275	0.454833
O6	O	0.618795	-0.120275	0.954833
O7	O	-0.030629	-0.580593	0.564678
O8	O	0.469371	-0.080593	1.064678
O9	O	0.150204	-0.588870	0.486157
O10	O	0.650204	-0.088870	0.986157
O11	O	0.055533	-0.494276	0.486238
O12	O	0.555533	0.005724	0.986238
O13	O	0.095452	-0.643780	0.595921
O14	O	0.595452	-0.143780	1.095921
Cu15	Cu	0.078360	-0.566161	0.543940
Cu16	Cu	0.578360	-0.066161	1.043940
Cu17	Cu	0.041215	-0.603301	0.506895
Cu18	Cu	0.541215	-0.103301	1.006895
O19	O	0.000780	-0.549187	0.596002
O20	O	0.500780	-0.049187	1.096002
N21	N	0.104487	-0.540042	0.569998
N22	N	0.604487	-0.040042	1.069998
N23	N	0.015094	-0.629425	0.480837
N24	N	0.515094	-0.129425	0.980837
C25	C	0.165467	-0.323909	0.630915
C26	C	0.665467	0.176091	1.130915
C27	C	0.165587	-0.479117	0.786068
C28	C	0.665587	0.020883	1.286068
C29	C	0.165481	-0.479095	0.630906
C30	C	0.665481	0.020905	1.130906
C31	C	0.320696	-0.479083	0.630835
C32	C	0.820696	0.020917	1.130835
C33	C	0.182557	-0.375118	0.647971
C34	C	0.682557	0.124882	1.147971
C35	C	0.182626	-0.462038	0.734858
C36	C	0.682626	0.037962	1.234858
C37	C	0.269485	-0.462018	0.647928
C38	C	0.769485	0.037982	1.147928
C39	C	0.182566	-0.462025	0.647966
C40	C	0.682566	0.037975	1.147966
C41	C	0.143714	-0.258726	0.609206
C42	C	0.643714	0.241274	1.109206
C43	C	0.143738	-0.500820	0.609192
C44	C	0.643738	-0.000820	1.109192
C45	C	0.204309	-0.440300	0.669680
C46	C	0.704309	0.059700	1.169680
C47	C	0.415481	-0.462740	0.580919
C48	C	0.915481	0.037260	1.080919
C49	C	0.474732	-0.482485	0.561145
C50	C	0.974732	0.017515	1.061145
C51	C	0.474757	-0.578356	0.597704
C52	C	0.974757	-0.078356	1.097704
C53	C	0.415508	-0.558609	0.617479
C54	C	0.915508	-0.058609	1.117479
C55	C	0.157989	-0.229089	0.550957
C56	C	0.657989	0.270911	1.050957
C57	C	0.138212	-0.169834	0.531225
C58	C	0.638212	0.330166	1.031225
C59	C	0.089890	-0.169857	0.627992
C60	C	0.589890	0.330143	1.127992
C61	C	0.109667	-0.229112	0.647725
C62	C	0.609667	0.270888	1.147725
C63	C	0.085482	-0.486515	0.623535
C64	C	0.585482	0.013485	1.123535
C65	C	0.065722	-0.506265	0.603789
C66	C	0.565722	-0.006265	1.103789
C67	C	0.162467	-0.554625	0.555370
C68	C	0.662467	-0.054625	1.055370
C69	C	0.182230	-0.534875	0.575110
C70	C	0.682230	-0.034875	1.075110
C71	C	0.085661	-0.486557	0.880902
C72	C	0.585661	0.013443	1.380902
C73	C	0.065952	-0.506323	0.940155
C74	C	0.565952	-0.006323	1.440155
C75	C	0.162734	-0.554693	0.940102
C76	C	0.662734	-0.054693	1.440102
C77	C	0.182441	-0.534928	0.880847
C78	C	0.682441	-0.034928	1.380847
C79	C	0.143904	-0.500859	0.851249
C80	C	0.643904	-0.000859	1.351249
C81	C	0.385871	-0.500801	0.609083
C82	C	0.885871	-0.000801	1.109083
C83	C	-0.110907	-0.668480	0.441278
C84	C	0.389093	-0.168480	0.941278
C85	C	-0.024049	-0.668588	0.441475
C86	C	0.475951	-0.168588	0.941475
C87	C	-0.045729	-0.690282	0.419668
C88	C	0.454271	-0.190282	0.919668
C89	C	-0.062146	-0.785032	0.469507
C90	C	0.437854	-0.285032	0.969507
C91	C	-0.042446	-0.844287	0.489286
C92	C	0.457554	-0.344287	0.989286
C93	C	0.053426	-0.844399	0.452899
C94	C	0.553426	-0.344399	0.952899
C95	C	0.033725	-0.785144	0.433120
C96	C	0.533725	-0.285144	0.933120
C97	C	-0.140617	-0.682751	0.499509
C98	C	0.359383	-0.182751	0.999509
C99	C	-0.199867	-0.662928	0.519152
C100	C	0.300133	-0.162928	1.019152
C101	C	-0.199694	-0.614571	0.422330
C102	C	0.300306	-0.114571	0.922330
C103	C	-0.140443	-0.634393	0.402687
C104	C	0.359557	-0.134393	0.902687
C105	C	-0.038320	-0.610337	0.427144
C106	C	0.461680	-0.110337	0.927144
C107	C	-0.018610	-0.590621	0.446974
C108	C	0.481390	-0.090621	0.946974
C109	C	0.029642	-0.687402	0.495454
C110	C	0.529642	-0.187402	0.995454
C111	C	0.009933	-0.707121	0.475630
C112	C	0.509933	-0.207121	0.975630
C113	C	-0.038148	-0.610347	0.324832
C114	C	0.461852	-0.110347	0.824832
C115	C	-0.018301	-0.590634	0.265579
C116	C	0.481699	-0.090634	0.765579
C117	C	0.030035	-0.687421	0.265643
C118	C	0.530035	-0.187421	0.765643
C119	C	0.010190	-0.707133	0.324897
C120	C	0.510190	-0.207133	0.824897
C121	C	-0.023903	-0.668595	0.354491
C122	C	0.476097	-0.168595	0.854491
C123	C	-0.024062	-0.755463	0.441426
C124	C	0.475938	-0.255463	0.941426
N125	N	0.503527	-0.540005	0.569810
N126	N	1.003527	-0.040005	1.069810
O127	O	0.684453	-0.545211	0.434650
O128	O	1.184453	-0.045211	0.934650
O129	O	0.684643	-0.655237	0.584005
O130	O	1.184643	-0.155237	1.084005
O131	O	0.684567	-0.654986	0.489282
O132	O	1.184567	-0.154986	0.989282
O133	O	0.684529	-0.545462	0.529373
O134	O	1.184529	-0.045462	1.029373
O135	O	0.590438	-0.623674	0.520735
O136	O	1.090438	-0.123674	1.020735
O137	O	0.590513	-0.623924	0.615457
O138	O	1.090513	-0.123924	1.115457
O139	O	0.590323	-0.513899	0.466102
O140	O	1.090323	-0.013899	0.966102
Cu141	Cu	0.581823	-0.566053	0.543652
Cu142	Cu	1.081823	-0.066053	1.043652
Cu143	Cu	0.693143	-0.603083	0.506456
Cu144	Cu	1.193143	-0.103083	1.006456
O145	O	0.590399	-0.514149	0.560825
O146	O	1.090399	-0.014149	1.060825
N147	N	0.771439	-0.629131	0.480292
N148	N	1.271439	-0.129131	0.980292
N149	N	0.104456	-0.141061	0.570015
N150	N	0.604456	0.358939	1.070015
O151	O	-0.030629	0.039964	0.564688
O152	O	0.469371	0.539964	1.064688
O153	O	0.118732	0.039984	0.454661
O154	O	0.618732	0.539984	0.954661
O155	O	0.023980	0.039958	0.454946
O156	O	0.523980	0.539958	0.954946
O157	O	0.064123	0.039990	0.564403
O158	O	0.564123	0.539990	1.064403
O159	O	0.055392	-0.054179	0.486321
O160	O	0.555392	0.445821	0.986321
O161	O	0.150144	-0.054153	0.486036
O162	O	0.650144	0.445847	0.986036
O163	O	0.000784	-0.054173	0.596063
O164	O	0.500784	0.445827	1.096063
Cu165	Cu	0.078332	-0.062759	0.543914
Cu166	Cu	0.578332	0.437241	1.043914
Cu167	Cu	0.041183	0.048570	0.506810
Cu168	Cu	0.541183	0.548570	1.006810
O169	O	0.095535	-0.054147	0.595778
O170	O	0.595535	0.445853	1.095778
N171	N	0.015053	0.126872	0.480710
N172	N	0.515053	0.626872	0.980710
N173	N	0.104760	-0.540096	0.968910
N174	N	0.604760	-0.040096	1.468910
O175	O	0.099447	-0.675167	1.149923
O176	O	0.599447	-0.175167	1.649923
O177	O	-0.010552	-0.525757	1.149951
O178	O	0.489448	-0.025757	1.649951
O179	O	-0.010297	-0.620493	1.149918
O180	O	0.489703	-0.120493	1.649918
O181	O	0.099192	-0.580431	1.149956
O182	O	0.599192	-0.080431	1.649956
O183	O	0.021064	-0.589100	1.055785
O184	O	0.521064	-0.089100	1.555785
O185	O	0.020809	-0.494365	1.055818
O186	O	0.520809	0.005635	1.555818
O187	O	0.130808	-0.643774	1.055790
O188	O	0.630808	-0.143774	1.555790
Cu189	Cu	0.078672	-0.566203	1.047209
Cu190	Cu	0.578672	-0.066203	1.547209
Cu191	Cu	0.041584	-0.603328	1.158532
Cu192	Cu	0.541584	-0.103328	1.658532
O193	O	0.130553	-0.549038	1.055823
O194	O	0.630553	-0.049038	1.555823
N195	N	0.015495	-0.629442	1.236831
N196	N	0.515495	-0.129442	1.736831
C197	C	0.036087	-0.491140	0.455465
C198	C	0.536087	0.008860	0.955465
C199	C	0.153325	-0.608283	0.455364
C200	C	0.653325	-0.108283	0.955364
C201	C	0.083488	-0.678322	0.595370
C202	C	0.583488	-0.178322	1.095370
C203	C	-0.033750	-0.561180	0.595470
C204	C	0.466250	-0.061180	1.095470
C205	C	0.637601	-0.654732	0.618548
C206	C	1.137601	-0.154732	1.118548
C207	C	0.637509	-0.654422	0.501245
C208	C	1.137509	-0.154422	1.001245
C209	C	0.637362	-0.514403	0.431560
C210	C	1.137362	-0.014403	0.931560
C211	C	0.637458	-0.514713	0.548862
C212	C	1.137458	-0.014713	1.048862
C213	C	0.153215	-0.006966	0.455158
C214	C	0.653215	0.493034	0.955158
C215	C	0.035916	-0.007114	0.455550
C216	C	0.535916	0.492886	0.955550
C217	C	-0.033739	-0.007106	0.595527
C218	C	0.466261	0.492894	1.095527
C219	C	0.083600	-0.007076	0.595174
C220	C	0.583600	0.492924	1.095174
C221	C	-0.010020	-0.491238	1.102888
C222	C	0.489980	0.008762	1.602888
C223	C	-0.009698	-0.608550	1.102828
C224	C	0.490302	-0.108550	1.602828
C225	C	0.130276	-0.678293	1.102853
C226	C	0.630276	-0.178293	1.602853
C227	C	0.129961	-0.560974	1.102892
C228	C	0.629961	-0.060974	1.602892
H229	H	0.018524	-0.494668	0.964293
H230	H	0.518524	0.005332	1.464293
C231	C	0.189362	-0.503896	1.054513
C232	C	0.689362	-0.003896	1.554513
C233	C	0.176401	-0.549407	1.102896
C234	C	0.676401	-0.049407	1.602896
H235	H	0.218035	-0.496758	1.054515
H236	H	0.718035	0.003242	1.554515
H237	H	0.156422	-0.471185	1.054524
H238	H	0.656422	0.028815	1.554524
H239	H	0.202429	-0.512884	1.021686
H240	H	0.702429	-0.012884	1.521686
H241	H	0.163330	-0.540417	1.135724
H242	H	0.663330	-0.040417	1.635724
H243	H	0.209347	-0.582125	1.102890
H244	H	0.709347	-0.082125	1.602890
C245	C	0.421410	-0.369960	0.542799
C246	C	0.921410	0.130040	1.042799
C247	C	0.382903	-0.399194	0.571694
C248	C	0.882903	0.100806	1.071694
H249	H	0.401298	-0.330730	0.537106
H250	H	0.901298	0.169270	1.037106
H251	H	0.444501	-0.375454	0.507200
H252	H	0.944501	0.124546	1.007200
H253	H	0.444539	-0.383863	0.564502
H254	H	0.944539	0.116137	1.064502
H255	H	0.359777	-0.385294	0.549989
H256	H	0.859777	0.114706	1.049989
H257	H	0.359803	-0.393696	0.607299
H258	H	0.859803	0.106304	1.107299
C259	C	-0.126715	-0.007106	0.622019
C260	C	0.373285	0.492894	1.122019
C261	C	-0.091648	-0.007099	0.642156
C262	C	0.408352	0.492901	1.142156
H263	H	-0.162468	-0.007095	0.650804
H264	H	0.337532	0.492905	1.150804
H265	H	-0.109790	-0.039939	0.611750
H266	H	0.390210	0.460061	1.111750
H267	H	-0.131677	0.025717	0.589849
H268	H	0.368323	0.525717	1.089849
H269	H	-0.086683	-0.039925	0.674323
H270	H	0.413317	0.460075	1.174323
H271	H	-0.108577	0.025737	0.652432
H272	H	0.391423	0.525737	1.152432
C273	C	0.589110	-0.681619	0.476470
C274	C	1.089110	-0.181619	0.976470
C275	C	0.637526	-0.700873	0.489670
C276	C	1.137526	-0.200873	0.989670
H277	H	0.589120	-0.710298	0.469329
H278	H	1.089120	-0.210298	0.969329
H279	H	0.589069	-0.648676	0.443770
H280	H	1.089069	-0.148676	0.943770
H281	H	0.556307	-0.672835	0.507367
H282	H	1.056307	-0.172835	1.007367
H283	H	0.670329	-0.709653	0.458772
H284	H	1.170329	-0.209653	0.958772
H285	H	0.637572	-0.733827	0.522374
H286	H	1.137572	-0.233827	1.022374
C287	C	0.588872	-0.454682	0.363529
C288	C	1.088872	0.045318	0.863529
C289	C	0.637281	-0.467767	0.373658
C290	C	1.137281	0.032233	0.873658
H291	H	0.588824	-0.425893	0.327781
H292	H	1.088824	0.074107	0.827781
H293	H	0.556068	-0.441730	0.392345
H294	H	1.056068	0.058270	0.892345
H295	H	0.588900	-0.487550	0.363582
H296	H	1.088900	0.012450	0.863582
H297	H	0.637251	-0.434900	0.373610
H298	H	1.137251	0.065100	0.873610
H299	H	0.670093	-0.480717	0.344834
H300	H	1.170093	0.019283	0.844834
C301	C	0.059612	-0.800811	0.525538
C302	C	0.559612	-0.300811	1.025538
C303	C	0.025621	-0.771152	0.491375
C304	C	0.525621	-0.271152	0.991375
H305	H	0.069301	-0.840340	0.535253
H306	H	0.569301	-0.340340	1.035253
H307	H	0.039464	-0.791077	0.559030
H308	H	0.539464	-0.291077	1.059030
H309	H	0.093129	-0.791136	0.505495
H310	H	0.593129	-0.291136	1.005495
H311	H	-0.007898	-0.780824	0.511420
H312	H	0.492102	-0.280824	1.011420
H313	H	0.045770	-0.780890	0.457878
H314	H	0.545770	-0.280890	0.957878
H315	H	0.092195	-0.007066	0.629560
H316	H	0.592195	0.492934	1.129560
H317	H	0.164813	-0.721202	1.102837
H318	H	0.664813	-0.221202	1.602837
H319	H	0.229870	-0.546579	0.856706
H320	H	0.729870	-0.046579	1.356706
C321	C	0.203390	0.041879	0.361149
C322	C	0.703390	0.541879	0.861149
C323	C	0.211000	-0.006612	0.408405
C324	C	0.711000	0.493388	0.908405
H325	H	0.239065	0.042091	0.332285
H326	H	0.739065	0.542091	0.832285
H327	H	0.186337	0.074631	0.371578
H328	H	0.686337	0.574631	0.871578
H329	H	0.179614	0.041794	0.347529
H330	H	0.679614	0.541794	0.847529
H331	H	0.234773	-0.006526	0.422028
H332	H	0.734773	0.493474	0.922028
H333	H	0.228063	-0.039374	0.397975
H334	H	0.728063	0.460626	0.897975
C335	C	0.011111	-0.055548	0.428426
C336	C	0.511111	0.444452	0.928426
C337	C	0.024332	-0.007141	0.409125
C338	C	0.524332	0.492859	0.909125
H339	H	0.003968	-0.055570	0.399763
H340	H	0.503968	0.444430	0.899763
H341	H	-0.021592	-0.055541	0.461361
H342	H	0.478408	0.444459	0.961361
H343	H	0.041998	-0.088363	0.437235
H344	H	0.541998	0.411637	0.937235
H345	H	-0.006556	0.025673	0.400319
H346	H	0.493444	0.525673	0.900319
H347	H	0.057040	-0.007143	0.376180
H348	H	0.557040	0.492857	0.876180
C349	C	0.637497	-0.488659	0.615669
C350	C	1.137497	0.011341	1.115669
C351	C	0.637439	-0.468263	0.560439
C352	C	1.137439	0.031737	1.060439
H353	H	0.637481	-0.459981	0.622816
H354	H	1.137481	0.040019	1.122816
H355	H	0.670346	-0.520828	0.619855
H356	H	1.170346	-0.020828	1.119855
H357	H	0.604695	-0.498993	0.641793
H358	H	1.104695	0.001007	1.141793
H359	H	0.670243	-0.457933	0.534315
H360	H	1.170243	0.042067	1.034315
H361	H	0.604587	-0.436084	0.556248
H362	H	1.104587	0.063916	1.056248
H363	H	0.194117	-0.582425	0.964198
H364	H	0.694117	-0.082425	1.464198
C365	C	-0.011987	-0.440728	0.886913
C366	C	0.488013	0.059272	1.386913
C367	C	0.043297	-0.449106	0.848371
C368	C	0.543297	0.050894	1.348371
H369	H	-0.038139	-0.417611	0.866828
H370	H	0.461861	0.082389	1.366828
H371	H	-0.017661	-0.422641	0.910023
H372	H	0.482339	0.077359	1.410023
H373	H	-0.017655	-0.476250	0.910022
H374	H	0.482345	0.023750	1.410022
H375	H	0.048967	-0.413584	0.825264
H376	H	0.548967	0.086416	1.325264
H377	H	0.048973	-0.467191	0.825252
H378	H	0.548973	0.032809	1.325252
C379	C	-0.036494	-0.398267	1.102918
C380	C	0.463506	0.101733	1.602918
C381	C	-0.056643	-0.433312	1.102900
C382	C	0.443357	0.066688	1.602900
H383	H	-0.065280	-0.362508	1.102929
H384	H	0.434720	0.137492	1.602929
H385	H	-0.004340	-0.393312	1.070096
H386	H	0.495660	0.106688	1.570096
H387	H	-0.026206	-0.415212	1.135749
H388	H	0.473794	0.084788	1.635749
H389	H	-0.066927	-0.416369	1.070067
H390	H	0.433073	0.083631	1.570067
H391	H	-0.088808	-0.438266	1.135726
H392	H	0.411192	0.061734	1.635726
H393	H	-0.044080	-0.617108	1.102779
H394	H	0.455920	-0.117108	1.602779
C395	C	-0.012135	-0.440687	0.669401
C396	C	0.487865	0.059313	1.169401
C397	C	0.043170	-0.449077	0.660991
C398	C	0.543170	0.050923	1.160991
H399	H	-0.038256	-0.417570	0.692523
H400	H	0.461744	0.082430	1.192523
H401	H	-0.017813	-0.476200	0.687491
H402	H	0.482187	0.023800	1.187491
H403	H	-0.017845	-0.422590	0.633891
H404	H	0.482155	0.077410	1.133891
H405	H	0.048882	-0.467177	0.696501
H406	H	0.548882	0.032823	1.196501
H407	H	0.048851	-0.413557	0.642902
H408	H	0.548851	0.086443	1.142902
C409	C	-0.012667	-0.460895	0.570179
C410	C	0.487333	0.039105	1.070179
C411	C	0.001685	-0.490541	0.619552
C412	C	0.501685	0.009459	1.119552
H413	H	-0.052201	-0.451185	0.579913
H414	H	0.447799	0.048815	1.079913
H415	H	0.007425	-0.484001	0.547059
H416	H	0.507425	0.015999	1.047059
H417	H	-0.002966	-0.427389	0.550086
H418	H	0.497034	0.072611	1.050086
H419	H	-0.008012	-0.524051	0.639644
H420	H	0.491988	-0.024051	1.139644
H421	H	-0.018413	-0.467435	0.642682
H422	H	0.481587	0.032565	1.142682
H423	H	0.637649	-0.689271	0.661445
H424	H	1.137649	-0.189271	1.161445
H425	H	0.229667	-0.546519	0.563426
H426	H	0.729667	-0.046519	1.063426
C427	C	0.260088	-0.600446	0.509493
C428	C	0.760088	-0.100446	1.009493
C429	C	0.204783	-0.592062	0.517908
C430	C	0.704783	-0.092062	1.017908
H431	H	0.286209	-0.623554	0.486362
H432	H	0.786209	-0.123554	0.986362
H433	H	0.265804	-0.618544	0.544995
H434	H	0.765804	-0.118544	1.044995
H435	H	0.265761	-0.564925	0.491404
H436	H	0.765761	-0.064925	0.991404
H437	H	0.199109	-0.627583	0.536001
H438	H	0.699109	-0.127583	1.036001
H439	H	0.199065	-0.573965	0.482399
H440	H	0.699065	-0.073965	0.982399
H441	H	0.498884	-0.625426	0.604536
H442	H	0.998884	-0.125426	1.104536
C443	C	0.421493	-0.655358	0.651622
C444	C	0.921493	-0.155358	1.151622
C445	C	0.382963	-0.600450	0.648437
C446	C	0.882963	-0.100450	1.148437
H447	H	0.401400	-0.681188	0.670731
H448	H	0.901400	-0.181188	1.170731
H449	H	0.444619	-0.665266	0.671798
H450	H	0.944619	-0.165266	1.171798
H451	H	0.444585	-0.656857	0.614494
H452	H	0.944585	-0.156857	1.114494
H453	H	0.359874	-0.598950	0.685564
H454	H	0.859874	-0.098950	1.185564
H455	H	0.359827	-0.590539	0.628261
H456	H	0.859827	-0.090539	1.128261
C457	C	0.203757	-0.223111	0.453320
C458	C	0.703757	0.276889	0.953320
C459	C	0.195411	-0.261640	0.508616
C460	C	0.695411	0.238360	1.008616
H461	H	0.226856	-0.243209	0.427182
H462	H	0.726856	0.256791	0.927182
H463	H	0.221845	-0.199997	0.447620
H464	H	0.721845	0.300003	0.947620
H465	H	0.168226	-0.200003	0.447655
H466	H	0.668226	0.299997	0.947655
H467	H	0.230941	-0.284745	0.514282
H468	H	0.730941	0.215255	1.014282
H469	H	0.177323	-0.284764	0.514318
H470	H	0.677323	0.215236	1.014318
H471	H	0.498841	-0.451490	0.538213
H472	H	0.998841	0.048510	1.038213
C473	C	0.044122	-0.175830	0.725628
C474	C	0.544122	0.324170	1.225628
C475	C	0.052468	-0.137302	0.670332
C476	C	0.552468	0.362698	1.170332
H477	H	0.021016	-0.155732	0.751766
H478	H	0.521016	0.344268	1.251766
H479	H	0.079646	-0.198934	0.731295
H480	H	0.579646	0.301066	1.231295
H481	H	0.026034	-0.198949	0.731326
H482	H	0.526034	0.301051	1.231326
H483	H	0.070560	-0.114186	0.664633
H484	H	0.570560	0.385814	1.164633
H485	H	0.016938	-0.114188	0.664663
H486	H	0.516938	0.385812	1.164663
H487	H	0.149834	-0.145702	0.483792
H488	H	0.649834	0.354298	0.983792
H489	H	0.098041	-0.253238	0.695156
H490	H	0.598041	0.246762	1.195156
H491	H	0.057785	-0.718806	0.241554
H492	H	0.557785	-0.218806	0.741554
C493	C	-0.068090	-0.496944	0.271476
C494	C	0.431910	0.003056	0.771476
C495	C	-0.033972	-0.526602	0.232985
C496	C	0.466028	-0.026602	0.732985
H497	H	-0.077767	-0.457414	0.251351
H498	H	0.422233	0.042586	0.751351
H499	H	-0.048038	-0.506673	0.294645
H500	H	0.451962	-0.006673	0.794645
H501	H	-0.101609	-0.506624	0.294530
H502	H	0.398391	-0.006624	0.794530
H503	H	-0.000451	-0.516925	0.209933
H504	H	0.499549	-0.016925	0.709933
H505	H	-0.054024	-0.516869	0.209806
H506	H	0.445976	-0.016869	0.709806
H507	H	-0.065911	-0.578960	0.348925
H508	H	0.434089	-0.078960	0.848925
H509	H	-0.076669	-0.552723	0.629962
H510	H	0.423331	-0.052723	1.129962
C511	C	0.203958	-0.613423	0.361397
C512	C	0.703958	-0.113423	0.861397
C513	C	0.211259	-0.619697	0.408795
C514	C	0.711259	-0.119697	0.908795
H515	H	0.239725	-0.620474	0.332650
H516	H	0.739725	-0.120474	0.832650
H517	H	0.180214	-0.575965	0.347678
H518	H	0.680214	-0.075965	0.847678
H519	H	0.186992	-0.639583	0.371720
H520	H	0.686992	-0.139583	0.871720
H521	H	0.228222	-0.593534	0.398473
H522	H	0.728222	-0.093534	0.898473
H523	H	0.235013	-0.657161	0.422516
H524	H	0.735013	-0.157161	0.922516
H525	H	-0.065985	-0.578958	0.399332
H526	H	0.434015	-0.078958	0.899332
C527	C	0.059955	-0.800824	0.319006
C528	C	0.559955	-0.300824	0.819006
C529	C	0.025847	-0.771164	0.357496
C530	C	0.525847	-0.271164	0.857496
H531	H	0.069617	-0.840353	0.339132
H532	H	0.569617	-0.340353	0.839132
H533	H	0.093478	-0.791159	0.295958
H534	H	0.593478	-0.291159	0.795958
H535	H	0.039898	-0.791082	0.295831
H536	H	0.539898	-0.291082	0.795831
H537	H	0.045905	-0.780904	0.380669
H538	H	0.545905	-0.280904	0.880669
H539	H	-0.007681	-0.780834	0.380554
H540	H	0.492319	-0.280834	0.880554
H541	H	0.057315	-0.718782	0.523258
H542	H	0.557315	-0.218782	1.023258
C543	C	-0.068253	-0.496930	0.397030
C544	C	0.431747	0.003070	0.897030
C545	C	-0.034276	-0.526590	0.431207
C546	C	0.465724	-0.026590	0.931207
H547	H	-0.077916	-0.457401	0.387289
H548	H	0.422084	0.042599	0.887289
H549	H	-0.101780	-0.506580	0.417069
H550	H	0.398220	-0.006580	0.917069
H551	H	-0.048101	-0.506689	0.363547
H552	H	0.451899	-0.006689	0.863547
H553	H	-0.054430	-0.516834	0.464692
H554	H	0.445570	-0.016834	0.964692
H555	H	-0.000744	-0.516935	0.411167
H556	H	0.499256	-0.016935	0.911167
H557	H	0.100481	-0.868567	0.446139
H558	H	0.600481	-0.368567	0.946139
C559	C	0.115636	-0.767010	0.353755
C560	C	0.615636	-0.267010	0.853755
C561	C	0.075591	-0.752641	0.402253
C562	C	0.575591	-0.252641	0.902253
H563	H	0.141484	-0.746946	0.334701
H564	H	0.641484	-0.246946	0.834701
H565	H	0.096955	-0.757280	0.329321
H566	H	0.596955	-0.257280	0.829321
H567	H	0.135634	-0.806550	0.364356
H568	H	0.635634	-0.306550	0.864356
H569	H	0.055590	-0.713102	0.391652
H570	H	0.555590	-0.213102	0.891652
H571	H	0.094274	-0.762368	0.426692
H572	H	0.594274	-0.262368	0.926692
C573	C	-0.111934	-0.862418	0.484233
C574	C	0.388066	-0.362418	0.984233
C575	C	-0.084348	-0.876757	0.520211
C576	C	0.415652	-0.376757	1.020211
H577	H	-0.137816	-0.882453	0.503344
H578	H	0.362184	-0.382453	1.003344
H579	H	-0.084799	-0.872204	0.451349
H580	H	0.415201	-0.372204	0.951349
H581	H	-0.131902	-0.822873	0.473614
H582	H	0.368098	-0.322873	0.973614
H583	H	-0.064376	-0.916302	0.530826
H584	H	0.435624	-0.416302	1.030826
H585	H	-0.111486	-0.866975	0.553105
H586	H	0.388514	-0.366975	1.053105
C587	C	-0.133649	-0.718334	0.426093
C588	C	0.366351	-0.218334	0.926093
C589	C	-0.125662	-0.752397	0.478626
C590	C	0.374338	-0.252397	0.978626
H591	H	-0.172862	-0.698181	0.431721
H592	H	0.327138	-0.198181	0.931721
H593	H	-0.119732	-0.741462	0.404392
H594	H	0.380268	-0.241462	0.904392
H595	H	-0.113778	-0.692251	0.406544
H596	H	0.386222	-0.192251	0.906544
H597	H	-0.145531	-0.778483	0.498173
H598	H	0.354469	-0.278483	0.998173
H599	H	-0.139587	-0.729267	0.500336
H600	H	0.360413	-0.229267	1.000336
H601	H	0.027560	-0.448192	0.421017
H602	H	0.527560	0.051808	0.921017
H603	H	-0.224058	-0.674545	0.566571
H604	H	0.275942	-0.174545	1.066571
C605	C	-0.146740	-0.728549	0.597189
C606	C	0.353260	-0.228549	1.097189
C607	C	-0.108148	-0.720217	0.541927
C608	C	0.391852	-0.220217	1.041927
H609	H	-0.126695	-0.751676	0.623376
H610	H	0.373305	-0.251676	1.123376
H611	H	-0.169852	-0.746605	0.602825
H612	H	0.330148	-0.246605	1.102825
H613	H	-0.169841	-0.693014	0.602845
H614	H	0.330159	-0.193014	1.102845
H615	H	-0.085050	-0.755752	0.536270
H616	H	0.414950	-0.255752	1.036270
H617	H	-0.085027	-0.702162	0.536289
H618	H	0.414973	-0.202162	1.036289
H619	H	-0.116252	-0.622767	0.355267
H620	H	0.383748	-0.122767	0.855267
C621	C	-0.193574	-0.568777	0.324649
C622	C	0.306426	-0.068777	0.824649
C623	C	-0.232165	-0.577107	0.379912
C624	C	0.267835	-0.077107	0.879912
H625	H	-0.213621	-0.545645	0.298463
H626	H	0.286379	-0.045645	0.798463
H627	H	-0.170478	-0.604306	0.318993
H628	H	0.329522	-0.104306	0.818993
H629	H	-0.170459	-0.550720	0.319012
H630	H	0.329541	-0.050720	0.819012
H631	H	-0.255278	-0.595168	0.385551
H632	H	0.244722	-0.095168	0.885551
H633	H	-0.255271	-0.541571	0.385570
H634	H	0.244729	-0.041571	0.885570
C635	C	0.150220	-0.771233	0.621561
C636	C	0.650220	-0.271233	1.121561
C637	C	0.094993	-0.736299	0.641876
C638	C	0.594993	-0.236299	1.141876
H639	H	0.157320	-0.807027	0.650272
H640	H	0.657320	-0.307027	1.150272
H641	H	0.176348	-0.754240	0.611248
H642	H	0.676348	-0.254240	1.111248
H643	H	0.154441	-0.776133	0.589391
H644	H	0.654441	-0.276133	1.089391
H645	H	0.090773	-0.731396	0.674044
H646	H	0.590773	-0.231396	1.174044
H647	H	0.068858	-0.753296	0.652197
H648	H	0.568858	-0.253296	1.152197
