data_functionalizedCrystal
_audit_creation_method	'MofGen! by Chris Wilmer'
_symmetry_space_group_name_H-M	'P1'
_symmetry_Int_Tables_number	1
_symmetry_cell_setting	triclinic
loop_
_symmetry_equiv_pos_as_xyz
  x,y,z
_cell_length_a	23.204063
_cell_length_b	23.204065
_cell_length_c	23.204116
_cell_angle_alpha	59.997987
_cell_angle_beta	89.998953
_cell_angle_gamma	60.000253
loop_
_atom_site_label
_atom_site_type_symbol
_atom_site_fract_x
_atom_site_fract_y
_atom_site_fract_z
O1	O	-0.491197	-0.412484	0.017135
O2	O	-0.407392	-0.294473	-0.017070
O3	O	-0.407389	-0.412483	0.100940
O4	O	-0.491200	-0.294474	-0.100875
O5	O	-0.311538	-0.508333	0.100940
O6	O	-0.311541	-0.390323	-0.017071
O7	O	-0.395346	-0.508335	0.017135
Zn8	Zn	-0.338225	-0.464547	0.000032
Zn9	Zn	-0.464513	-0.338260	0.000033
O10	O	-0.395349	-0.390324	-0.100876
C11	C	-0.310652	-0.181456	-0.024838
C12	C	-0.346214	-0.110333	-0.019942
C13	C	-0.241294	-0.215971	-0.025323
C14	C	-0.310655	-0.285810	-0.024846
C15	C	-0.346219	-0.326263	-0.019957
C16	C	-0.241297	-0.320167	-0.025331
C17	C	-0.206293	-0.285815	-0.024838
C18	C	-0.130274	-0.326273	-0.019941
C19	C	-0.345497	-0.215967	-0.025331
C20	C	-0.658540	-0.590043	0.035860
C21	C	-0.734559	-0.549588	0.030967
C22	C	-0.623539	-0.659889	0.036349
C23	C	-0.554183	-0.590040	0.035855
C24	C	-0.518621	-0.549582	0.030958
C25	C	-0.519339	-0.659886	0.036344
C26	C	-0.554182	-0.694402	0.035859
C27	C	-0.518619	-0.765527	0.030967
C28	C	-0.623539	-0.555686	0.036345
C29	C	-0.489889	-0.822989	0.027012
C30	C	-0.795974	-0.516903	0.027013
C31	C	-0.489891	-0.516895	0.027000
C32	C	-0.453845	-0.895077	0.022052
C33	C	-0.873022	-0.475899	0.022054
C34	C	-0.453848	-0.475888	0.022036
C35	C	-0.554187	-0.212776	-0.445775
C36	C	-0.518624	-0.253233	-0.481336
C37	C	-0.623545	-0.142931	-0.480619
C38	C	-0.554188	-0.212775	-0.341416
C39	C	-0.518626	-0.253231	-0.265397
C40	C	-0.623546	-0.142930	-0.376419
C41	C	-0.658547	-0.108416	-0.445777
C42	C	-0.734566	-0.037291	-0.481340
C43	C	-0.519344	-0.247131	-0.376417
C44	C	-0.795982	0.020169	-0.510072
C45	C	-0.489893	-0.285920	-0.510065
C46	C	-0.489896	-0.285917	-0.203980
C47	C	-0.873032	0.092257	-0.546117
C48	C	-0.453848	-0.326925	-0.546108
C49	C	-0.453852	-0.326922	-0.126930
O50	O	0.100922	-0.508345	0.017151
O51	O	-0.100892	-0.390333	-0.017055
O52	O	0.017109	-0.508348	0.100956
O53	O	-0.017080	-0.390330	-0.100860
O54	O	0.017112	-0.412502	0.100963
O55	O	-0.100890	-0.294486	-0.017048
O56	O	0.100924	-0.412499	0.017158
Zn57	Zn	0.000018	-0.338275	0.000056
Zn58	Zn	0.000014	-0.464556	0.000047
O59	O	-0.017077	-0.294483	-0.100853
O60	O	-0.395342	0.083766	0.017156
O61	O	-0.311534	-0.083842	-0.017048
O62	O	-0.311538	-0.083852	0.100962
O63	O	-0.395338	0.083777	-0.100854
O64	O	-0.407391	-0.083849	0.100954
O65	O	-0.407387	-0.083839	-0.017056
O66	O	-0.491195	0.083770	0.017149
Zn67	Zn	-0.464510	-0.000034	0.000045
Zn68	Zn	-0.338219	-0.000039	0.000055
O69	O	-0.491191	0.083780	-0.100861
O70	O	-1.100901	0.281028	-0.592582
O71	O	-0.899087	0.113413	-0.508770
O72	O	-1.017091	0.113409	-0.508767
O73	O	-0.982897	0.281032	-0.592584
O74	O	-1.017088	0.113407	-0.604617
O75	O	-0.899085	0.113411	-0.604619
O76	O	-1.100898	0.281026	-0.688432
Zn77	Zn	-0.999991	0.197218	-0.661744
Zn78	Zn	-0.999994	0.197221	-0.535458
O79	O	-0.982895	0.281030	-0.688434
O80	O	-0.407389	-0.412483	-0.688416
O81	O	-0.491197	-0.294477	-0.604610
O82	O	-0.491195	-0.412486	-0.604605
O83	O	-0.407390	-0.294474	-0.688421
O84	O	-0.395343	-0.508338	-0.508754
O85	O	-0.395345	-0.390329	-0.508759
O86	O	-0.311537	-0.508334	-0.592565
Zn87	Zn	-0.338222	-0.464550	-0.535443
Zn88	Zn	-0.464511	-0.338262	-0.661732
O89	O	-0.311539	-0.390326	-0.592570
C90	C	-0.206294	-0.621360	0.310702
C91	C	-0.130275	-0.692485	0.346265
C92	C	-0.241296	-0.586846	0.345545
C93	C	-0.310654	-0.517001	0.206342
C94	C	-0.346216	-0.476544	0.130323
C95	C	-0.345497	-0.482645	0.241343
C96	C	-0.310653	-0.517001	0.310701
C97	C	-0.346216	-0.476544	0.346263
C98	C	-0.241296	-0.586846	0.241345
C99	C	0.024887	-0.517030	0.310724
C100	C	0.019993	-0.476577	0.346290
C101	C	0.025371	-0.586874	0.345565
C102	C	0.024889	-0.517022	0.206362
C103	C	0.019998	-0.476562	0.130342
C104	C	0.025374	-0.586867	0.241361
C105	C	0.024884	-0.621384	0.310718
C106	C	0.019987	-0.692509	0.346278
C107	C	0.025377	-0.482671	0.241366
C108	C	-0.310656	-0.285855	0.310709
C109	C	-0.346220	-0.326314	0.346266
C110	C	-0.241298	-0.320218	0.345555
C111	C	-0.310655	-0.181484	0.206357
C112	C	-0.346217	-0.110348	0.130340
C113	C	-0.241296	-0.216005	0.241362
C114	C	-0.206295	-0.285860	0.310717
C115	C	-0.130275	-0.326323	0.346282
C116	C	-0.345499	-0.216001	0.241354
C117	C	-0.035774	-0.108410	-0.445754
C118	C	-0.030877	-0.037285	-0.481314
C119	C	-0.036262	-0.142920	-0.480600
C120	C	-0.035780	-0.212771	-0.341397
C121	C	-0.030889	-0.253231	-0.265377
C122	C	-0.036268	-0.247124	-0.376401
C123	C	-0.035777	-0.212765	-0.445759
C124	C	-0.030883	-0.253218	-0.481324
C125	C	-0.036265	-0.142927	-0.376396
C126	C	-0.026928	-0.285901	-0.510056
C127	C	-0.026920	0.020175	-0.510042
C128	C	-0.026936	-0.285920	-0.203961
C129	C	-0.021967	-0.326903	-0.546103
C130	C	-0.021955	0.092262	-0.546083
C131	C	-0.021978	-0.326928	-0.126911
O132	O	-0.017120	-0.390358	0.491266
O133	O	0.017098	-0.508368	0.407461
O134	O	-0.100916	-0.390357	0.407446
O135	O	0.100893	-0.508369	0.491281
O136	O	-0.100904	-0.294507	0.311599
O137	O	0.017110	-0.412518	0.311614
O138	O	-0.017109	-0.294509	0.395420
Zn139	Zn	0.000002	-0.338295	0.338299
Zn140	Zn	-0.000013	-0.464581	0.464581
O141	O	0.100905	-0.412519	0.395435
C142	C	-0.658539	0.410016	-0.445751
C143	C	-0.734559	0.450479	-0.481316
C144	C	-0.623536	0.444375	-0.480590
C145	C	-0.554179	0.305641	-0.341392
C146	C	-0.518616	0.234505	-0.265374
C147	C	-0.519335	0.340158	-0.376388
C148	C	-0.554178	0.410013	-0.445743
C149	C	-0.518614	0.450471	-0.481300
C150	C	-0.623537	0.340162	-0.376396
C151	C	-0.489883	0.483159	-0.510025
C152	C	-0.795975	0.483170	-0.510049
C153	C	-0.489886	0.177036	-0.203959
C154	C	-0.453838	0.524167	-0.546063
C155	C	-0.873025	0.524182	-0.546095
C156	C	-0.453842	0.104937	-0.126912
H157	H	-0.402486	-0.187075	-0.026121
C158	C	-0.661504	-0.698903	0.037392
C159	C	-0.623008	-0.775883	0.037916
C160	C	-0.660973	-0.814891	0.038949
C161	C	-0.737433	-0.776920	0.039457
C162	C	-0.775933	-0.699936	0.038933
C163	C	-0.737968	-0.660928	0.037900
H164	H	-0.566404	-0.803995	0.037539
H165	H	-0.632473	-0.871879	0.039337
H166	H	-0.765537	-0.805796	0.040222
H167	H	-0.832537	-0.671824	0.039309
H168	H	-0.766468	-0.603940	0.037512
H169	H	-0.037046	-0.114028	-0.537588
C170	C	-0.037324	-0.103912	-0.338427
C171	C	-0.037843	-0.026935	-0.376909
C172	C	-0.038902	0.012077	-0.338940
C173	C	-0.039443	-0.025889	-0.262489
C174	C	-0.038925	-0.102870	-0.224003
C175	C	-0.037865	-0.141882	-0.261972
H176	H	-0.037443	0.001174	-0.433506
H177	H	-0.039286	0.069064	-0.367430
H178	H	-0.040227	0.002990	-0.234382
H179	H	-0.039325	-0.130979	-0.167406
H180	H	-0.037482	-0.198868	-0.233482
H181	H	0.026169	-0.615754	0.213258
C182	C	0.026428	-0.625908	0.422550
C183	C	0.087906	-0.656949	0.480619
C184	C	0.088962	-0.695985	0.557600
C185	C	0.028539	-0.703979	0.576513
C186	C	-0.032944	-0.672937	0.518443
C187	C	-0.033999	-0.633901	0.441461
H188	H	0.132639	-0.651032	0.466620
H189	H	0.134476	-0.718964	0.600588
H190	H	0.029320	-0.732876	0.633499
H191	H	-0.077676	-0.678854	0.532442
H192	H	-0.079513	-0.610922	0.398474
C193	C	-0.203331	-0.176984	0.203402
C194	C	-0.134921	-0.226475	0.192468
C195	C	-0.096957	-0.187458	0.154508
C196	C	-0.127402	-0.098949	0.127482
C197	C	-0.195815	-0.049453	0.138415
C198	C	-0.233780	-0.088471	0.176375
H199	H	-0.112381	-0.291999	0.212475
H200	H	-0.046313	-0.224098	0.146415
H201	H	-0.099298	-0.070066	0.099382
H202	H	-0.218356	0.016071	0.118408
H203	H	-0.284424	-0.051830	0.184469
C204	C	-0.661493	-0.479764	0.037408
C205	C	-0.688516	-0.483190	0.098893
C206	C	-0.726464	-0.407272	0.099959
C207	C	-0.737389	-0.327929	0.039540
C208	C	-0.710365	-0.324500	-0.021950
C209	C	-0.672417	-0.400417	-0.023015
H210	H	-0.680430	-0.541927	0.143623
H211	H	-0.746469	-0.409811	0.145478
H212	H	-0.765480	-0.271730	0.040329
H213	H	-0.718452	-0.265762	-0.066680
H214	H	-0.652412	-0.397878	-0.068534
C215	C	-0.442347	0.301128	-0.338428
C216	C	-0.403852	0.224137	-0.261976
C217	C	-0.326867	0.185109	-0.224021
C218	C	-0.288376	0.223072	-0.262517
C219	C	-0.326871	0.300067	-0.338973
C220	C	-0.403856	0.339095	-0.376929
H221	H	-0.432345	0.196031	-0.233475
H222	H	-0.298371	0.128112	-0.167423
H223	H	-0.231387	0.194181	-0.234420
H224	H	-0.298378	0.328173	-0.367474
H225	H	-0.432353	0.396092	-0.433527
C226	C	-0.661509	0.520339	-0.557559
C227	C	-0.737977	0.558339	-0.596046
C228	C	-0.775953	0.634314	-0.673005
C229	C	-0.737463	0.672288	-0.711477
C230	C	-0.660991	0.634288	-0.672991
C231	C	-0.623014	0.558313	-0.596031
H232	H	-0.766474	0.530228	-0.567566
H233	H	-0.832563	0.662444	-0.701495
H234	H	-0.765575	0.728529	-0.768447
H235	H	-0.632494	0.662399	-0.701470
H236	H	-0.566404	0.530183	-0.567541
H237	H	-0.213184	-0.615720	0.213239
H238	H	-0.462356	-0.303332	-0.348318
H239	H	-0.462354	-0.688766	0.037124
C240	C	-0.661513	-0.103901	-0.557605
C241	C	-0.729929	-0.095904	-0.576524
C242	C	-0.767898	-0.056872	-0.653507
C243	C	-0.737452	-0.025836	-0.711571
C244	C	-0.669033	-0.033832	-0.692653
C245	C	-0.631063	-0.072864	-0.615670
H246	H	-0.752470	-0.118880	-0.533541
H247	H	-0.818547	-0.050953	-0.667511
H248	H	-0.765559	0.003058	-0.768558
H249	H	-0.646491	-0.010857	-0.735636
H250	H	-0.580414	-0.078783	-0.601666
H251	H	0.026162	-0.426467	0.213269
C252	C	-0.037331	-0.323048	-0.338448
C253	C	0.023095	-0.402406	-0.270044
C254	C	0.022032	-0.478327	-0.232096
C255	C	-0.039457	-0.474890	-0.262552
C256	C	-0.099887	-0.395529	-0.330960
C257	C	-0.098824	-0.319608	-0.368908
H258	H	0.068616	-0.404953	-0.247495
H259	H	0.066766	-0.537076	-0.181455
H260	H	-0.040244	-0.531091	-0.234461
H261	H	-0.145408	-0.392982	-0.353509
H262	H	-0.143558	-0.260859	-0.419549
H263	H	-0.213202	-0.376423	0.402543
C264	C	-0.661496	0.301131	-0.338437
C265	C	-0.737953	0.339100	-0.376925
C266	C	-0.775908	0.300069	-0.338966
C267	C	-0.737407	0.223069	-0.262518
C268	C	-0.660947	0.185096	-0.224026
C269	C	-0.622991	0.224127	-0.261985
H270	H	-0.766457	0.396104	-0.433520
H271	H	-0.832510	0.328179	-0.367461
H272	H	-0.765504	0.194175	-0.234419
H273	H	-0.632442	0.128092	-0.167431
H274	H	-0.566390	0.196017	-0.233490
H275	H	-0.213198	-0.376369	-0.026116
H276	H	-0.402481	-0.426435	0.213235
H277	H	-0.402486	-0.187114	0.213252
H278	H	-0.213196	-0.187082	-0.026109
H279	H	-0.213192	-0.615736	0.402533
C280	C	-0.661516	-0.103910	-0.338458
C281	C	-0.623034	-0.141877	-0.261999
C282	C	-0.661006	-0.102860	-0.224040
C283	C	-0.737459	-0.025876	-0.262539
C284	C	-0.775945	0.012095	-0.339002
C285	C	-0.737973	-0.026922	-0.376962
H286	H	-0.566435	-0.198869	-0.233496
H287	H	-0.632516	-0.130969	-0.167437
H288	H	-0.765569	0.003006	-0.234439
H289	H	-0.832544	0.069087	-0.367505
H290	H	-0.766463	0.001187	-0.433565
