data_functionalizedCrystal
_audit_creation_method	'MofGen! by Chris Wilmer'
_symmetry_space_group_name_H-M	'P1'
_symmetry_Int_Tables_number	1
_symmetry_cell_setting	triclinic
loop_
_symmetry_equiv_pos_as_xyz
  x,y,z
_cell_length_a	17.666332
_cell_length_b	19.188930
_cell_length_c	19.188930
_cell_angle_alpha	83.144779
_cell_angle_beta	89.988397
_cell_angle_gamma	89.976766
loop_
_atom_site_label
_atom_site_type_symbol
_atom_site_fract_x
_atom_site_fract_y
_atom_site_fract_z
O1	O	0.063200	-0.926150	-0.087169
O2	O	0.063149	-0.722838	-0.098903
O3	O	0.063161	-0.830361	0.008620
O4	O	0.063188	-0.818627	-0.194692
O5	O	-0.062735	-0.830342	0.008625
O6	O	-0.062747	-0.722820	-0.098897
O7	O	-0.062697	-0.926131	-0.087163
Cu8	Cu	-0.074217	-0.824473	-0.093030
Cu9	Cu	0.074670	-0.824496	-0.093036
O10	O	-0.062709	-0.818608	-0.194686
C11	C	0.000194	-0.696818	-0.098520
C12	C	0.000174	-0.619313	-0.097380
N13	N	-0.178937	-0.824463	-0.093025
C14	C	0.000260	-0.952151	-0.087546
C15	C	0.000285	-1.029656	-0.088687
C16	C	-0.218541	-0.872089	-0.045437
C17	C	-0.297789	-0.872093	-0.045433
C18	C	-0.337429	-0.824478	-0.093030
C19	C	-0.297815	-0.776842	-0.140621
C20	C	-0.218569	-0.776835	-0.140619
N21	N	-0.461841	-0.815401	-0.154837
N22	N	-0.537121	-0.815413	-0.154837
C23	C	-0.576193	-0.824496	-0.093040
N24	N	-0.537140	-0.833582	-0.031239
N25	N	-0.461853	-0.833574	-0.031240
C26	C	-0.423358	-0.824480	-0.093038
C27	C	-0.701727	-0.872130	-0.045444
C28	C	-0.780976	-0.872129	-0.045440
C29	C	-0.781000	-0.776881	-0.140634
C30	C	-0.701753	-0.776878	-0.140632
C31	C	-0.662121	-0.824506	-0.093038
N32	N	0.179390	-0.824512	-0.093036
C33	C	0.000211	-0.829972	0.034634
C34	C	0.000204	-0.828831	0.112138
C35	C	0.000194	-0.574389	-0.160470
C36	C	0.000203	-0.501566	-0.159399
C37	C	0.000206	-0.473669	-0.095233
C38	C	0.000181	-0.518603	-0.032133
C39	C	0.000166	-0.591425	-0.033207
N40	N	0.043078	-0.365695	-0.046188
N41	N	0.043095	-0.296517	-0.045172
C42	C	0.000252	-0.254260	-0.091994
N43	N	-0.042599	-0.283795	-0.139881
N44	N	-0.042612	-0.352979	-0.140899
C45	C	0.000222	-0.394707	-0.094062
C46	C	0.000280	-0.130372	-0.153928
C47	C	0.000283	-0.057547	-0.152853
C48	C	0.000270	-0.074586	-0.025586
C49	C	0.000258	-0.147409	-0.026662
C50	C	0.000267	-0.175298	-0.090835
C51	C	0.000244	-0.818997	-0.220700
C52	C	0.000255	-0.820138	-0.298204
C53	C	0.000216	-0.891922	0.157062
C54	C	0.000228	-0.890850	0.229886
C55	C	0.000212	-0.826684	0.257782
C56	C	0.000205	-0.763585	0.212849
C57	C	0.000200	-0.764658	0.140026
N58	N	-0.042645	-0.777630	0.365789
N59	N	-0.042642	-0.776615	0.434968
C60	C	0.000227	-0.823446	0.477191
N61	N	0.043084	-0.871341	0.447624
N62	N	0.043079	-0.872359	0.378439
C63	C	0.000218	-0.825513	0.336745
C64	C	0.000253	-0.885379	0.601079
C65	C	0.000270	-0.884305	0.673904
C66	C	0.000239	-0.757038	0.656865
C67	C	0.000230	-0.758114	0.584042
C68	C	0.000233	-0.822287	0.556154
H69	H	-0.186275	-0.910869	-0.006681
Br70	Br	0.000225	-0.440585	-0.245028
H71	H	0.000276	-0.153080	-0.206181
H72	H	0.000194	-0.711340	0.235567
H73	H	0.000190	-0.713281	0.103448
Br74	Br	-0.351547	-0.936734	0.019157
Br75	Br	-0.647938	-0.936764	0.019149
Br76	Br	0.000205	-0.612235	-0.247561
Br77	Br	0.000250	-0.972468	0.563226
Br78	Br	0.000261	-0.036735	0.061498
Br79	Br	0.000242	-0.979013	0.119216
H80	H	0.000194	-0.495885	0.020111
Br81	Br	0.000137	-0.652398	0.052423
H82	H	0.000295	-0.020970	-0.204232
Br83	Br	0.000294	-0.969936	0.734875
H84	H	0.000230	-0.704792	0.679578
H85	H	0.000216	-0.706738	0.547464
H86	H	-0.330094	-0.738072	-0.179374
H87	H	-0.186322	-0.738051	-0.179371
Br88	Br	-0.834791	-0.712252	-0.205222
Br89	Br	0.000248	-0.976479	0.290866
H90	H	-0.813222	-0.910910	-0.006684
Br91	Br	0.000233	-0.208382	0.058966
Br92	Br	-0.647998	-0.712242	-0.205221
