data_functionalizedCrystal
_audit_creation_method	'MofGen! by Chris Wilmer'
_symmetry_space_group_name_H-M	'P1'
_symmetry_Int_Tables_number	1
_symmetry_cell_setting	triclinic
loop_
_symmetry_equiv_pos_as_xyz
  x,y,z
_cell_length_a	15.297327
_cell_length_b	18.215407
_cell_length_c	18.215399
_cell_angle_alpha	89.985640
_cell_angle_beta	99.645421
_cell_angle_gamma	99.704016
loop_
_atom_site_label
_atom_site_type_symbol
_atom_site_fract_x
_atom_site_fract_y
_atom_site_fract_z
Zn1	Zn	-0.359211	1.074329	-0.466754
Zn2	Zn	0.140789	1.574329	0.033246
Zn3	Zn	-0.510087	1.052939	-0.364977
Zn4	Zn	-0.010087	1.552939	0.135023
Zn5	Zn	-0.359239	0.951264	-0.343711
Zn6	Zn	0.140761	1.451264	0.156289
Zn7	Zn	-0.510023	0.929932	-0.487999
Zn8	Zn	-0.010023	1.429932	0.012001
O9	O	-0.434640	1.002116	-0.415860
O10	O	0.065360	1.502116	0.084140
O11	O	-0.379240	1.174473	-0.453263
O12	O	0.120760	1.674473	0.046737
O13	O	-0.490115	1.039428	-0.259178
O14	O	0.009885	1.539428	0.240822
O15	O	-0.232990	0.985467	-0.342242
O16	O	0.267010	1.485467	0.157758
O17	O	-0.490088	1.158759	-0.378488
O18	O	0.009912	1.658759	0.121512
O19	O	-0.232969	1.075883	-0.432641
O20	O	0.267031	1.575883	0.067359
O21	O	-0.379288	0.964727	-0.243553
O22	O	0.120712	1.464727	0.256447
O23	O	-0.379225	0.845452	-0.362842
O24	O	0.120775	1.345452	0.137158
O25	O	-0.489978	0.949111	-0.588159
O26	O	0.010022	1.449111	-0.088159
O27	O	-0.490005	0.829780	-0.468849
O28	O	0.009995	1.329780	0.031151
O29	O	-0.379178	1.055198	-0.572551
O30	O	0.120822	1.555198	-0.072551
O31	O	-0.636324	1.018743	-0.399087
O32	O	-0.136324	1.518743	0.100913
O33	O	-0.636277	0.928370	-0.489471
O34	O	-0.136277	1.428370	0.010529
C35	C	-0.434612	0.810914	-0.415843
C36	C	0.065388	1.310914	0.084157
C37	C	-0.434622	0.729113	-0.415857
C38	C	0.065378	1.229113	0.084143
C39	C	-0.377022	0.549084	-0.454883
C40	C	0.122978	1.049084	0.045117
C41	C	-0.377030	0.472224	-0.454887
C42	C	0.122970	0.972224	0.045113
C43	C	-0.492283	0.455896	-0.376854
C44	C	0.007717	0.955896	0.123146
C45	C	-0.492270	0.532755	-0.376846
C46	C	0.007730	1.032755	0.123154
C47	C	-0.434641	0.579347	-0.415865
C48	C	0.065359	1.079347	0.084135
C49	C	-0.434662	0.425628	-0.415876
C50	C	0.065338	0.925628	0.084124
C51	C	-0.434670	0.342293	-0.415880
C52	C	0.065330	0.842293	0.084120
C53	C	-0.434631	0.662688	-0.415861
C54	C	0.065369	1.162688	0.084139
C55	C	-0.669035	0.968941	-0.448908
C56	C	-0.169035	1.468941	0.051092
C57	C	-0.769310	0.954816	-0.463071
C58	C	-0.269310	1.454816	0.036929
C59	C	-1.051941	1.103373	-0.314889
C60	C	-0.551941	1.603373	0.185111
C61	C	-0.957728	1.116644	-0.301579
C62	C	-0.457728	1.616644	0.198421
C63	C	-0.910619	1.076188	-0.341951
C64	C	-0.410619	1.576188	0.158049
C65	C	-0.957732	1.022459	-0.395635
C66	C	-0.457732	1.522459	0.104365
C67	C	-1.051955	1.009183	-0.408942
C68	C	-0.551955	1.509183	0.091058
C69	C	-0.910632	0.981998	-0.436004
C70	C	-0.410632	1.481998	0.063996
C71	C	-0.957746	0.928269	-0.489688
C72	C	-0.457746	1.428269	0.010312
C73	C	-1.051959	0.914996	-0.502994
C74	C	-0.551959	1.414996	-0.002994
C75	C	-1.099068	0.955451	-0.462622
C76	C	-0.599068	1.455451	0.037378
C77	C	-0.816410	0.995274	-0.422697
C78	C	-0.316410	1.495274	0.077303
C79	C	-0.816423	0.901085	-0.516750
C80	C	-0.316423	1.401085	-0.016750
C81	C	-0.910636	0.887814	-0.530060
C82	C	-0.410636	1.387814	-0.030060
C83	C	-0.199330	1.035440	-0.382700
C84	C	0.300670	1.535440	0.117300
C85	C	-0.099055	1.049641	-0.368568
C86	C	0.400945	1.549641	0.131432
C87	C	-0.434568	1.002161	-0.607803
C88	C	0.065432	1.502161	-0.107803
C89	C	-0.434537	1.002180	-0.689598
C90	C	0.065463	1.502180	-0.189598
C91	C	-0.434668	1.194065	-0.415878
C92	C	0.065332	1.694065	0.084122
C93	C	-0.434680	1.275862	-0.415885
C94	C	0.065320	1.775862	0.084115
C95	C	-0.376790	0.963329	-0.869651
C96	C	0.123210	1.463329	-0.369651
C97	C	-0.376772	0.963344	-0.946508
C98	C	0.123228	1.463344	-0.446508
C99	C	-0.492176	1.041135	-0.962767
C100	C	0.007824	1.541135	-0.462767
C101	C	-0.492198	1.041114	-0.885912
C102	C	0.007802	1.541114	-0.385912
C103	C	-0.434500	1.002213	-0.839356
C104	C	0.065500	1.502213	-0.339356
C105	C	-0.434460	1.002249	-0.993067
C106	C	0.065540	1.502249	-0.493067
C107	C	-0.434441	1.002266	-1.076398
C108	C	0.065559	1.502266	-0.576398
C109	C	-0.434520	1.002195	-0.756020
C110	C	0.065480	1.502195	-0.256020
C111	C	-0.434647	1.002123	-0.224655
C112	C	0.065353	1.502123	0.275345
C113	C	-0.434423	1.002282	-0.142825
C114	C	0.065577	1.502282	0.357175
H115	H	-0.330110	0.447589	-0.486658
H116	H	0.169890	0.947589	0.013342
H117	H	-0.539203	0.417952	-0.345087
H118	H	-0.039203	0.917952	0.154913
C119	C	-0.555658	0.566046	-0.333921
C120	C	-0.055658	1.066046	0.166079
N121	N	-0.603398	0.591121	-0.301590
N122	N	-0.103398	1.091121	0.198410
C123	C	-0.555671	1.083909	-0.852584
C124	C	-0.055671	1.583909	-0.352584
N125	N	-0.603471	1.116144	-0.827480
N126	N	-0.103471	1.616144	-0.327480
H127	H	-0.329780	0.931679	-0.971170
H128	H	0.170220	1.431679	-0.471170
C129	C	-0.764596	1.054376	-0.363646
C130	C	-0.264596	1.554376	0.136354
N131	N	-0.725571	1.098896	-0.319167
N132	N	-0.225571	1.598896	0.180833
H133	H	-0.330094	0.587018	-0.486652
H134	H	0.169906	1.087018	0.013348
C135	C	-0.905911	1.175731	-0.242516
C136	C	-0.405911	1.675731	0.257484
N137	N	-0.866881	1.220235	-0.198022
N138	N	-0.366881	1.720235	0.301978
H139	H	-0.833906	1.086996	-0.331110
H140	H	-0.333906	1.586996	0.168890
H141	H	-1.175784	0.944651	-0.473458
H142	H	-0.675784	1.444651	0.026542
C143	C	-1.103781	0.855886	-0.562041
C144	C	-0.603781	1.355886	-0.062041
N145	N	-1.142812	0.811364	-0.606516
N146	N	-0.642812	1.311364	-0.106516
C147	C	-0.962473	0.828707	-0.589106
C148	C	-0.462473	1.328707	-0.089106
N149	N	-1.001518	0.784187	-0.633577
N150	N	-0.501518	1.284187	-0.133577
H151	H	-0.778067	0.868141	-0.549623
H152	H	-0.278067	1.368141	-0.049623
C153	C	-1.103768	1.147859	-0.270479
C154	C	-0.603768	1.647859	0.229521
N155	N	-1.142804	1.181367	-0.237024
N156	N	-0.642804	1.681367	0.262976
H157	H	-0.329809	0.931653	-0.831747
H158	H	0.170191	1.431653	-0.331747
H159	H	-0.539151	1.072807	-1.000682
H160	H	-0.039151	1.572807	-0.500682
