data_functionalizedCrystal
_audit_creation_method	'MofGen! by Chris Wilmer'
_symmetry_space_group_name_H-M	'P1'
_symmetry_Int_Tables_number	1
_symmetry_cell_setting	triclinic
loop_
_symmetry_equiv_pos_as_xyz
  x,y,z
_cell_length_a	17.077404
_cell_length_b	18.050590
_cell_length_c	17.077396
_cell_angle_alpha	89.970225
_cell_angle_beta	89.981638
_cell_angle_gamma	90.016523
loop_
_atom_site_label
_atom_site_type_symbol
_atom_site_fract_x
_atom_site_fract_y
_atom_site_fract_z
Zn1	Zn	1.200078	-0.295700	-0.443812
Zn2	Zn	1.199995	-0.419897	-0.312543
Zn3	Zn	1.068810	-0.295721	-0.312562
Zn4	Zn	1.068788	-0.419848	-0.443769
O5	O	1.134418	-0.357791	-0.378171
O6	O	1.309914	-0.312186	-0.426408
O7	O	1.182568	-0.403454	-0.202698
O8	O	1.086267	-0.191793	-0.329999
O9	O	1.309853	-0.403433	-0.329966
O10	O	1.182709	-0.191778	-0.426427
O11	O	1.086187	-0.312222	-0.202713
O12	O	0.958960	-0.312175	-0.329957
O13	O	1.086229	-0.403350	-0.553622
O14	O	0.958944	-0.403371	-0.426354
O15	O	1.182688	-0.312139	-0.553653
O16	O	1.182546	-0.523815	-0.329924
O17	O	1.086149	-0.523779	-0.426336
C18	C	0.930470	-0.357770	-0.378154
C19	C	0.843220	-0.357779	-0.378165
C20	C	0.802263	-0.310351	-0.428459
C21	C	0.720282	-0.310356	-0.428463
C22	C	0.679261	-0.357793	-0.378176
C23	C	0.720224	-0.405223	-0.327876
C24	C	0.802203	-0.405214	-0.327869
C25	C	0.549354	-0.405240	-0.327895
C26	C	0.467370	-0.405250	-0.327903
C27	C	0.467433	-0.310382	-0.428489
C28	C	0.549412	-0.310373	-0.428482
C29	C	0.590370	-0.357804	-0.378183
C30	C	1.134358	-0.550743	-0.378140
C31	C	1.134404	-0.633289	-0.378153
C32	C	1.186934	-0.832732	-0.325798
C33	C	1.206108	-0.882064	-0.397440
C34	C	1.134448	-0.784420	-0.378184
C35	C	1.115353	-0.882170	-0.306574
C36	C	1.134493	-0.930405	-0.378208
C37	C	1.153660	-0.832664	-0.449864
C38	C	1.062871	-0.832765	-0.358950
C39	C	1.082019	-0.882074	-0.430642
C40	C	1.134424	-0.700321	-0.378170
C41	C	1.134516	-1.014501	-0.378231
C42	C	1.339162	-0.357813	-0.378190
C43	C	1.426412	-0.357822	-0.378197
C44	C	1.134465	-0.357737	-0.582916
C45	C	1.134486	-0.357713	-0.670166
C46	C	1.134500	-0.164086	-0.378220
C47	C	1.134535	-0.081540	-0.378241
C48	C	1.184713	-0.310216	-0.711173
C49	C	1.184723	-0.310191	-0.793154
C50	C	1.134508	-0.357668	-0.834125
C51	C	1.084275	-0.405168	-0.793112
C52	C	1.084262	-0.405188	-0.711133
C53	C	1.084306	-0.405123	-0.963982
C54	C	1.084320	-0.405104	-1.045966
C55	C	1.184767	-0.310126	-1.046003
C56	C	1.184754	-0.310146	-0.964024
C57	C	1.134522	-0.357647	-0.923016
C58	C	1.134416	-0.357792	-0.174224
C59	C	1.134548	-0.357606	-0.086974
H60	H	0.582699	-0.443862	-0.286934
H61	H	0.433972	-0.443878	-0.286955
H62	H	0.686818	-0.443843	-0.286927
H63	H	0.835656	-0.271724	-0.469411
O64	O	1.286313	-0.910750	-0.419014
H65	H	1.285451	-0.972234	-0.419381
O66	O	1.023245	-0.910595	-0.489398
H67	H	1.053736	-0.945171	-0.533642
H68	H	1.231334	-0.811066	-0.281542
H69	H	0.434081	-0.271760	-0.469443
H70	H	0.835550	-0.443834	-0.286913
H71	H	1.169769	-0.811011	-0.510486
O72	O	0.982693	-0.804042	-0.337356
H73	H	0.966955	-0.823832	-0.277848
O74	O	1.093803	-0.910902	-0.226351
H75	H	1.093413	-0.972387	-0.227167
H76	H	1.225607	-0.271556	-0.677821
H77	H	1.225625	-0.271515	-0.826539
O78	O	1.030078	-0.456407	-0.666896
H79	H	0.995162	-0.489419	-0.709157
H80	H	1.225648	-0.271490	-0.930668
O81	O	1.238942	-0.258883	-1.090226
H82	H	1.230508	-0.266835	-1.154114
H83	H	0.686938	-0.271737	-0.469419
H84	H	1.043429	-0.443762	-1.079323
O85	O	1.030123	-0.456350	-0.919747
H86	H	0.995211	-0.489365	-0.962008
H87	H	1.043386	-0.443822	-0.826477
H88	H	0.582809	-0.271750	-0.469435
