data_functionalizedCrystal
_audit_creation_method	'MofGen! by Chris Wilmer'
_symmetry_space_group_name_H-M	'P1'
_symmetry_Int_Tables_number	1
_symmetry_cell_setting	triclinic
loop_
_symmetry_equiv_pos_as_xyz
  x,y,z
_cell_length_a	16.098538
_cell_length_b	9.065218
_cell_length_c	9.065218
_cell_angle_alpha	85.015885
_cell_angle_beta	92.765239
_cell_angle_gamma	87.220795
loop_
_atom_site_label
_atom_site_type_symbol
_atom_site_fract_x
_atom_site_fract_y
_atom_site_fract_z
O1	O	0.069255	-1.966920	-0.209851
O2	O	0.069256	-1.537636	-0.227597
O3	O	0.069253	-1.761151	-0.004082
O4	O	0.069257	-1.743405	-0.433366
O5	O	-0.069259	-1.748094	-0.017087
O6	O	-0.069257	-1.524578	-0.240602
O7	O	-0.069258	-1.953863	-0.222856
Zn8	Zn	-0.091249	-1.737147	-0.233794
Zn9	Zn	0.091247	-1.754351	-0.216659
O10	O	-0.069256	-1.730347	-0.446371
C11	C	-0.000001	-1.476120	-0.232394
C12	C	-0.000000	-1.312277	-0.227294
C13	C	-0.000002	-1.752917	0.044402
C14	C	0.000002	-1.747818	0.208246
N15	N	-0.215799	-1.725417	-0.245487
C16	C	-0.259385	-1.820322	-0.150652
C17	C	-0.346573	-1.812130	-0.158846
C18	C	-0.390175	-1.709039	-0.261883
C19	C	-0.346583	-1.614125	-0.356721
C20	C	-0.259395	-1.622310	-0.348519
C21	C	-0.653424	-1.679364	-0.291591
C22	C	-0.740618	-1.671188	-0.299789
C23	C	-0.740603	-1.869193	-0.101911
C24	C	-0.653414	-1.877375	-0.093724
C25	C	-0.609829	-1.782455	-0.188557
C26	C	-0.479296	-1.700666	-0.270264
C27	C	-0.520710	-1.790822	-0.180168
N28	N	0.215796	-1.766093	-0.204955
C29	C	0.000000	-2.015378	-0.218059
C30	C	0.000005	-2.179222	-0.223158
C31	C	0.000001	-1.738582	-0.494855
C32	C	0.000002	-1.743682	-0.658698
H33	H	-0.223890	-1.904275	-0.066756
Cl34	Cl	-0.598638	-1.560045	-0.410813
Cl35	Cl	-0.401394	-1.484516	-0.486248
Cl36	Cl	-0.534113	-1.571072	-0.399798
Cl37	Cl	-0.598600	-2.006977	0.035807
H38	H	-0.382061	-1.889407	-0.081624
Cl39	Cl	-0.795398	-1.988508	0.017306
H40	H	-0.776114	-1.587235	-0.383700
H41	H	-0.223908	-1.545027	-0.425742
Cl42	Cl	-0.465896	-1.920412	-0.050636
