data_functionalizedCrystal
_audit_creation_method	'MofGen! by Chris Wilmer'
_symmetry_space_group_name_H-M	'P1'
_symmetry_Int_Tables_number	1
_symmetry_cell_setting	triclinic
loop_
_symmetry_equiv_pos_as_xyz
  x,y,z
_cell_length_a	19.805407
_cell_length_b	25.639239
_cell_length_c	19.805399
_cell_angle_alpha	89.971274
_cell_angle_beta	89.980427
_cell_angle_gamma	90.038686
loop_
_atom_site_label
_atom_site_type_symbol
_atom_site_fract_x
_atom_site_fract_y
_atom_site_fract_z
Zn1	Zn	1.034678	-0.208163	-0.382714
Zn2	Zn	1.034569	-0.295597	-0.269524
Zn3	Zn	0.921493	-0.208177	-0.269539
Zn4	Zn	0.921432	-0.295569	-0.382670
O5	O	0.978043	-0.251877	-0.326112
O6	O	1.129380	-0.219767	-0.367711
O7	O	1.019548	-0.284018	-0.174809
O8	O	0.936578	-0.135010	-0.284576
O9	O	1.129300	-0.284004	-0.284551
O10	O	1.019735	-0.135000	-0.367726
O11	O	0.936472	-0.219791	-0.174820
O12	O	0.826768	-0.219764	-0.284534
O13	O	0.936475	-0.283957	-0.477393
O14	O	0.826723	-0.283971	-0.367651
O15	O	1.019676	-0.219740	-0.477425
O16	O	1.019489	-0.368758	-0.284508
O17	O	0.936368	-0.368738	-0.367637
C18	C	0.802187	-0.251867	-0.326090
C19	C	0.726955	-0.251875	-0.326097
C20	C	0.977929	-0.387719	-0.326081
C21	C	0.977942	-0.445833	-0.326090
C22	C	0.691605	-0.285357	-0.369306
C23	C	0.620917	-0.285358	-0.369315
C24	C	0.585579	-0.251879	-0.326112
C25	C	0.620934	-0.218393	-0.282901
C26	C	0.691621	-0.218390	-0.282895
C27	C	0.335860	-0.218404	-0.282923
C28	C	0.265168	-0.218411	-0.282931
C29	C	0.265156	-0.285373	-0.369343
C30	C	0.335843	-0.285370	-0.369338
C31	C	0.371192	-0.251882	-0.326129
C32	C	0.447840	-0.251881	-0.326121
C33	C	0.508932	-0.251883	-0.326117
C34	C	1.021437	-0.806194	-0.282901
C35	C	1.021463	-0.860799	-0.282910
O36	O	1.058326	-0.889034	-0.246154
N37	N	0.978162	-0.888116	-0.326157
C38	C	0.934836	-0.860825	-0.369402
O39	O	0.898008	-0.889075	-0.406189
C40	C	0.934814	-0.806222	-0.369396
C41	C	0.978113	-0.778908	-0.326141
C42	C	1.064733	-0.778880	-0.239650
C43	C	1.064706	-0.724279	-0.239640
C44	C	1.021382	-0.696993	-0.282881
C45	C	0.978086	-0.724307	-0.326132
C46	C	0.891492	-0.778933	-0.412645
C47	C	0.891474	-0.724326	-0.412635
C48	C	0.934773	-0.697012	-0.369381
C49	C	0.934735	-0.642421	-0.369363
N50	N	0.978036	-0.615104	-0.326116
C51	C	1.021360	-0.642390	-0.282875
C52	C	0.934887	-0.975496	-0.369413
C53	C	0.934906	-1.030098	-0.369416
C54	C	1.021533	-1.030068	-0.282924
C55	C	1.021511	-0.975464	-0.282918
C56	C	0.978188	-0.948179	-0.326166
C57	C	1.021299	-0.527725	-0.282857
C58	C	1.021266	-0.473119	-0.282849
C59	C	0.934641	-0.473155	-0.369343
C60	C	0.934671	-0.527756	-0.369349
C61	C	0.978006	-0.555039	-0.326104
O62	O	0.897893	-0.614151	-0.406101
O63	O	1.058188	-0.614134	-0.246101
C64	C	1.154585	-0.251887	-0.326134
C65	C	1.229817	-0.251891	-0.326144
C66	C	0.978081	-0.251844	-0.502655
C67	C	0.978097	-0.251830	-0.577887
C68	C	0.978175	-0.115504	-0.326158
C69	C	0.978232	-0.057389	-0.326177
C70	C	1.021421	-0.218390	-0.613249
C71	C	1.021428	-0.218375	-0.683937
C72	C	0.978114	-0.251802	-0.719262
C73	C	0.934785	-0.285243	-0.683895
C74	C	0.934775	-0.285255	-0.613208
C75	C	0.934823	-0.285194	-0.968969
C76	C	0.934838	-0.285181	-1.039661
C77	C	1.021476	-0.218314	-1.039698
C78	C	1.021466	-0.218326	-0.969011
C79	C	0.978135	-0.251765	-0.933650
C80	C	0.978127	-0.251780	-0.857001
C81	C	0.978125	-0.251790	-0.795909
C82	C	0.978044	-0.251872	-0.150256
C83	C	0.978159	-0.251738	-0.075024
H84	H	0.720372	-0.312622	-0.404485
H85	H	0.720402	-0.191122	-0.247713
C86	C	0.887273	-1.060141	-0.416990
H87	H	0.893486	-1.096569	-0.410805
H88	H	0.897148	-1.051159	-0.462474
H89	H	0.841796	-1.051232	-0.407035
C90	C	0.226298	-0.181578	-0.235410
H91	H	0.257474	-0.161629	-0.209681
H92	H	0.198694	-0.201547	-0.205872
H93	H	0.198753	-0.158827	-0.261368
H94	H	1.056739	-0.191108	-0.940252
H95	H	0.856196	-0.702113	-0.447855
C96	C	1.069137	-0.181527	-1.078593
H97	H	1.094936	-0.161626	-1.047430
H98	H	1.043275	-0.158738	-1.106171
H99	H	1.098614	-0.201529	-1.106166
H100	H	1.056769	-0.953228	-0.247697
H101	H	0.592138	-0.312624	-0.404500
H102	H	0.364612	-0.312634	-0.404516
H103	H	0.236367	-0.312639	-0.404528
C104	C	0.887185	-0.321949	-1.078518
H105	H	0.861372	-0.341862	-1.047335
H106	H	0.913056	-0.344728	-1.106090
H107	H	0.857720	-0.301934	-1.106094
H108	H	0.364633	-0.191140	-0.247735
H109	H	0.592156	-0.191131	-0.247727
H110	H	1.056525	-0.450882	-0.247624
H111	H	1.056708	-0.191146	-0.712726
H112	H	1.056587	-0.549933	-0.247644
C113	C	0.886992	-0.443133	-0.416908
H114	H	0.893187	-0.406702	-0.410709
H115	H	0.841521	-0.452118	-0.406969
H116	H	0.896884	-0.452051	-0.462397
H117	H	0.899489	-0.312480	-0.584417
H118	H	1.099966	-0.702043	-0.204421
H119	H	1.100016	-0.801091	-0.204438
C120	C	1.069187	-1.060090	-0.235357
H121	H	1.062999	-1.096521	-0.241563
H122	H	1.059304	-1.051171	-0.189870
H123	H	1.114659	-1.051105	-0.245305
H124	H	0.899603	-0.953283	-0.404628
C125	C	1.069064	-0.181617	-0.574397
H126	H	1.094861	-0.161696	-0.605584
H127	H	1.098533	-0.201620	-0.546818
H128	H	1.043183	-0.158838	-0.546828
C129	C	0.843867	-0.808967	-0.460231
H130	H	0.818073	-0.784888	-0.485985
H131	H	0.814394	-0.830305	-0.434326
H132	H	0.869757	-0.830230	-0.489753
C133	C	0.887042	-0.557802	-0.416927
H134	H	0.861239	-0.533729	-0.442680
H135	H	0.857577	-0.579145	-0.391018
H136	H	0.912936	-0.579062	-0.446450
H137	H	0.899550	-0.312430	-0.940187
H138	H	0.899515	-0.312458	-0.712663
