data_functionalizedCrystal
_audit_creation_method	'MofGen! by Chris Wilmer'
_symmetry_space_group_name_H-M	'P1'
_symmetry_Int_Tables_number	1
_symmetry_cell_setting	triclinic
loop_
_symmetry_equiv_pos_as_xyz
  x,y,z
_cell_length_a	6.394989
_cell_length_b	10.654550
_cell_length_c	9.730223
_cell_angle_alpha	90.004253
_cell_angle_beta	90.002753
_cell_angle_gamma	85.491321
loop_
_atom_site_label
_atom_site_type_symbol
_atom_site_fract_x
_atom_site_fract_y
_atom_site_fract_z
O1	O	-2.774472	-0.205783	-0.114276
O2	O	-2.166494	-0.216150	-0.114281
O3	O	-2.484462	-0.028376	-0.114270
O4	O	-2.456505	-0.393558	-0.114287
O5	O	-2.484441	-0.028370	0.114310
O6	O	-2.166473	-0.216145	0.114299
O7	O	-2.774452	-0.205778	0.114304
Zn8	Zn	-2.470459	-0.210960	0.150593
Zn9	Zn	-2.470486	-0.210968	-0.150570
O10	O	-2.456484	-0.393552	0.114293
C11	C	-2.482399	0.018447	0.000020
C12	C	-2.476257	0.157955	0.000017
C13	C	-2.458547	-0.440375	0.000000
C14	C	-2.464689	-0.579883	-0.000006
N15	N	-2.470456	-0.210955	0.356130
C16	C	-2.088633	-0.214098	0.000015
C17	C	-1.852307	-0.207833	0.000021
N18	N	-2.470506	-0.210963	-0.356107
C19	C	-2.663471	0.235458	0.000019
C20	C	-2.657688	0.366540	0.000002
C21	C	-2.277460	0.342604	-0.000012
C22	C	-2.283245	0.211524	-0.000005
C23	C	-2.611301	-0.127845	0.428061
C24	C	-2.611321	-0.127846	0.571944
C25	C	-2.329647	-0.294077	0.571952
C26	C	-2.329617	-0.294070	0.428072
H27	H	-2.810138	0.429638	-0.000000
O28	O	-2.101570	0.136047	-0.000067
C29	C	-2.148071	0.008867	-0.000029
H30	H	-2.312255	0.001253	-0.043294
H31	H	-2.140684	-0.028891	0.109633
C32	C	-1.785404	-0.059415	-0.036538
C33	C	-1.987052	-0.068768	-0.089689
H34	H	-1.686076	-0.107307	-0.091839
H35	H	-1.754072	0.026268	-0.036559
H36	H	-1.779278	-0.090878	0.054845
H37	H	-1.993182	-0.037291	-0.181064
H38	H	-2.018380	-0.154448	-0.089686
H39	H	-2.120316	0.386236	-0.000027
H40	H	-2.725977	-0.060166	0.369489
O41	O	-2.748343	-0.047071	0.641604
C42	C	-2.872596	0.026308	0.547247
H43	H	-2.875674	-0.025230	0.444679
H44	H	-2.803426	0.120722	0.531962
C45	C	-3.093826	0.111844	0.729354
C46	C	-3.097620	0.048539	0.603381
H47	H	-3.232629	0.125563	0.763981
H48	H	-3.010111	0.062412	0.792926
H49	H	-3.036174	0.190516	0.716599
H50	H	-3.155247	-0.030137	0.616140
H51	H	-3.181351	0.097959	0.539813
H52	H	-2.214915	-0.361748	0.369501
O53	O	-2.193058	-0.374775	0.642052
C54	C	-2.223250	-0.356944	0.784470
H55	H	-2.388674	-0.312685	0.804107
H56	H	-2.104106	-0.292032	0.825329
C57	C	-1.990541	-0.539298	0.834201
C58	C	-2.193724	-0.484948	0.858321
H59	H	-1.972319	-0.618255	0.879758
H60	H	-1.970192	-0.551309	0.738252
H61	H	-1.891277	-0.485192	0.868251
H62	H	-2.292983	-0.539046	0.824256
H63	H	-2.214089	-0.472949	0.954266
H64	H	-2.820634	0.191847	0.000034
