data_functionalizedCrystal
_audit_creation_method	'MofGen! by Chris Wilmer'
_symmetry_space_group_name_H-M	'P1'
_symmetry_Int_Tables_number	1
_symmetry_cell_setting	triclinic
loop_
_symmetry_equiv_pos_as_xyz
  x,y,z
_cell_length_a	18.050590
_cell_length_b	12.759401
_cell_length_c	12.759393
_cell_angle_alpha	89.979062
_cell_angle_beta	90.034679
_cell_angle_gamma	89.979923
loop_
_atom_site_label
_atom_site_type_symbol
_atom_site_fract_x
_atom_site_fract_y
_atom_site_fract_z
Zn1	Zn	-0.295593	-1.606238	0.593990
Zn2	Zn	-0.419801	-1.606118	0.418297
Zn3	Zn	-0.295633	-1.430537	0.418325
Zn4	Zn	-0.419749	-1.430517	0.593934
O5	O	-0.357694	-1.518352	0.506136
O6	O	-0.312075	-1.753243	0.570695
O7	O	-0.403368	-1.582784	0.271279
O8	O	-0.191703	-1.453903	0.441662
O9	O	-0.403330	-1.753155	0.441614
O10	O	-0.191674	-1.582990	0.570722
O11	O	-0.312142	-1.453786	0.271300
O12	O	-0.312092	-1.283513	0.441608
O13	O	-0.403241	-1.453869	0.740963
O14	O	-0.403280	-1.283499	0.570628
O15	O	-0.312025	-1.582971	0.741003
O16	O	-0.523719	-1.582765	0.441561
O17	O	-0.523681	-1.453752	0.570601
C18	C	-0.357685	-1.245385	0.506115
C19	C	-0.357699	-1.128608	0.506131
C20	C	-0.550646	-1.518272	0.506094
C21	C	-0.633192	-1.518333	0.506112
C22	C	-0.357623	-1.518431	0.780170
C23	C	-0.357592	-1.518465	0.896947
C24	C	-0.832636	-1.588636	0.436038
C25	C	-0.881961	-1.614306	0.531925
C26	C	-0.784322	-1.518393	0.506154
C27	C	-0.882079	-1.492831	0.410310
C28	C	-0.930307	-1.518452	0.506186
C29	C	-0.832560	-1.544111	0.602091
C30	C	-0.832674	-1.422592	0.480411
C31	C	-0.881976	-1.448224	0.576364
C32	C	-0.700224	-1.518361	0.506134
C33	C	-1.014404	-1.518484	0.506216
C34	C	-0.163989	-1.518462	0.506201
C35	C	-0.081443	-1.518509	0.506229
C36	C	-0.357704	-1.792386	0.506158
C37	C	-0.357708	-1.909162	0.506167
C38	C	-0.405253	-1.073766	0.573206
C39	C	-0.405256	-0.964042	0.573227
C40	C	-0.310149	-0.964012	0.439089
C41	C	-0.310143	-1.073734	0.439075
C42	C	-0.357712	-1.518335	0.233169
C43	C	-0.357533	-1.518505	0.116393
C44	C	-0.310088	-1.585693	0.951831
C45	C	-0.310056	-1.585711	1.061556
C46	C	-0.405039	-1.451269	1.061500
C47	C	-0.405067	-1.451247	0.951778
H48	H	-0.903613	-1.695348	0.553718
H49	H	-0.271414	-1.118388	0.384454
H50	H	-0.443750	-1.396494	0.907090
C51	C	-0.273819	-0.930156	0.261286
C52	C	-0.257882	-0.903690	0.365377
H53	H	-0.241548	-0.892920	0.215779
H54	H	-0.323699	-0.912143	0.245792
H55	H	-0.267006	-1.003353	0.251691
H56	H	-0.264700	-0.830494	0.374973
H57	H	-0.207990	-0.921695	0.380876
C58	C	-0.184344	-1.636927	0.918103
C59	C	-0.257897	-1.659566	0.891559
H60	H	-0.152123	-1.682529	0.880891
H61	H	-0.177536	-1.646563	0.991297
H62	H	-0.173489	-1.566336	0.900107
H63	H	-0.268754	-1.730155	0.909563
H64	H	-0.264709	-1.649938	0.818350
H65	H	-0.903504	-1.388847	0.635741
H66	H	-0.903830	-1.471186	0.329242
C67	C	-0.725759	-1.573219	0.710538
C68	C	-0.803328	-1.573471	0.711560
H69	H	-0.707714	-1.591353	0.778116
H70	H	-0.708479	-1.505363	0.692137
H71	H	-0.708480	-1.622785	0.660677
H72	H	-0.820608	-1.523899	0.761416
H73	H	-0.820615	-1.641337	0.729974
C74	C	-0.828368	-1.286575	0.350485
C75	C	-0.803413	-1.313222	0.450953
H76	H	-0.810297	-1.219057	0.332291
H77	H	-0.880983	-1.285954	0.349656
H78	H	-0.810734	-1.336635	0.301371
H79	H	-0.821050	-1.263166	0.500069
H80	H	-0.750786	-1.313834	0.451790
C81	C	-0.447175	-1.391613	1.229673
C82	C	-0.457227	-1.377394	1.121775
H83	H	-0.479399	-1.346009	1.266880
H84	H	-0.397278	-1.376268	1.247665
H85	H	-0.458044	-1.462204	1.247650
H86	H	-0.446352	-1.306804	1.103797
H87	H	-0.507135	-1.392732	1.103776
C88	C	-0.499253	-1.062771	0.705808
C89	C	-0.457517	-1.134085	0.646926
H90	H	-0.531514	-1.100010	0.751326
H91	H	-0.527625	-1.019946	0.659968
H92	H	-0.466922	-1.020005	0.746076
H93	H	-0.489848	-1.176847	0.606651
H94	H	-0.429143	-1.176928	0.692771
C95	C	-0.415703	-0.840731	0.714547
C96	C	-0.457529	-0.903761	0.646957
H97	H	-0.447977	-0.803523	0.760071
H98	H	-0.387393	-0.792348	0.674615
H99	H	-0.383382	-0.883582	0.754806
H100	H	-0.489847	-0.860909	0.606692
H101	H	-0.485853	-0.952150	0.686894
H102	H	-0.271372	-1.640453	1.106238
H103	H	-0.810971	-1.648059	0.376804
