data_functionalizedCrystal
_audit_creation_method	'MofGen! by Chris Wilmer'
_symmetry_space_group_name_H-M	'P1'
_symmetry_Int_Tables_number	1
_symmetry_cell_setting	triclinic
loop_
_symmetry_equiv_pos_as_xyz
  x,y,z
_cell_length_a	18.050591
_cell_length_b	18.050590
_cell_length_c	21.395355
_cell_angle_alpha	90.018036
_cell_angle_beta	90.029394
_cell_angle_gamma	90.015000
loop_
_atom_site_label
_atom_site_type_symbol
_atom_site_fract_x
_atom_site_fract_y
_atom_site_fract_z
Zn1	Zn	1.135413	-0.295816	0.354344
Zn2	Zn	1.468746	0.037518	0.687678
Zn3	Zn	1.802080	0.370851	1.021011
Zn4	Zn	1.135324	-0.419988	0.249568
Zn5	Zn	1.468657	-0.086654	0.582901
Zn6	Zn	1.801990	0.246679	0.916235
Zn7	Zn	1.011211	-0.295808	0.249572
Zn8	Zn	1.344545	0.037525	0.582906
Zn9	Zn	1.677878	0.370858	0.916239
Zn10	Zn	1.011201	-0.419961	0.354299
Zn11	Zn	1.344535	-0.086627	0.687633
Zn12	Zn	1.677868	0.246706	1.020966
O13	O	1.073287	-0.357893	0.301946
O14	O	1.406621	-0.024560	0.635279
O15	O	1.739954	0.308774	0.968613
O16	O	1.239326	-0.312302	0.340463
O17	O	1.572659	0.021031	0.673796
O18	O	1.905992	0.354365	1.007129
O19	O	1.118827	-0.403523	0.161891
O20	O	1.452160	-0.070190	0.495224
O21	O	1.785494	0.263144	0.828557
O22	O	1.027729	-0.191885	0.263491
O23	O	1.361062	0.141449	0.596825
O24	O	1.694395	0.474782	0.930158
O25	O	1.239260	-0.403530	0.263484
O26	O	1.572594	-0.070197	0.596817
O27	O	1.905927	0.263136	0.930150
O28	O	1.118979	-0.191890	0.340467
O29	O	1.452312	0.141443	0.673800
O30	O	1.785646	0.474776	1.007134
O31	O	1.027642	-0.312289	0.161894
O32	O	1.360975	0.021044	0.495227
O33	O	1.694309	0.354378	0.828560
O34	O	0.907285	-0.312263	0.263447
O35	O	1.240619	0.021070	0.596781
O36	O	1.573952	0.354404	0.930114
O37	O	1.027711	-0.403485	0.441983
O38	O	1.361045	-0.070151	0.775316
O39	O	1.694378	0.263182	1.108650
O40	O	0.907278	-0.403477	0.340390
O41	O	1.240611	-0.070144	0.673723
O42	O	1.573945	0.263189	1.007057
O43	O	1.118969	-0.312276	0.442016
O44	O	1.452302	0.021057	0.775350
O45	O	1.785636	0.354391	1.108683
O46	O	1.118817	-0.523909	0.263440
O47	O	1.452150	-0.190575	0.596773
O48	O	1.785484	0.142758	0.930107
O49	O	1.027625	-0.523889	0.340386
O50	O	1.360958	-0.190556	0.673719
O51	O	1.694291	0.142778	1.007052
C52	C	0.880335	-0.357867	0.301915
C53	C	1.213669	-0.024534	0.635248
C54	C	1.547002	0.308800	0.968581
C55	C	0.797789	-0.357874	0.301916
C56	C	1.131123	-0.024540	0.635249
C57	C	1.464456	0.308793	0.968583
C58	C	0.548946	-0.308220	0.260174
C59	C	0.882280	0.025113	0.593507
C60	C	1.215613	0.358447	0.926840
C61	C	0.598387	-0.290145	0.317355
C62	C	0.931720	0.043188	0.650688
C63	C	1.265053	0.376522	0.984021
C64	C	0.500669	-0.357912	0.301967
C65	C	0.834002	-0.024578	0.635301
C66	C	1.167336	0.308755	0.968634
C67	C	0.598310	-0.375933	0.244765
C68	C	0.931644	-0.042599	0.578098
C69	C	1.264977	0.290734	0.911431
C70	C	0.646654	-0.357891	0.301939
C71	C	0.979987	-0.024558	0.635272
C72	C	1.313321	0.308776	0.968606
C73	C	0.549022	-0.339802	0.359179
C74	C	0.882355	-0.006469	0.692512
C75	C	1.215689	0.326865	1.025845
C76	C	0.548941	-0.425621	0.286550
C77	C	0.882275	-0.092287	0.619883
C78	C	1.215608	0.241046	0.953217
C79	C	0.598360	-0.407572	0.343770
C80	C	0.931693	-0.074238	0.677104
C81	C	1.265026	0.259095	1.010437
C82	C	0.416571	-0.357922	0.301983
C83	C	0.749904	-0.024588	0.635316
C84	C	1.083237	0.308745	0.968649
C85	C	0.730751	-0.357881	0.301930
C86	C	1.064084	-0.024548	0.635263
C87	C	1.397417	0.308785	0.968597
C88	C	1.073230	-0.550845	0.301921
C89	C	1.406564	-0.217512	0.635254
C90	C	1.739897	0.115821	0.968588
C91	C	1.073274	-0.633391	0.301931
C92	C	1.406607	-0.300058	0.635265
C93	C	1.739940	0.033276	0.968598
C94	C	1.122967	-0.832825	0.260147
C95	C	1.456301	-0.499492	0.593480
C96	C	1.789634	-0.166159	0.926813
C97	C	1.141114	-0.882171	0.317332
C98	C	1.474448	-0.548838	0.650665
C99	C	1.807781	-0.215505	0.983999
C100	C	1.073316	-0.784521	0.301956
C101	C	1.406649	-0.451188	0.635290
C102	C	1.739983	-0.117855	0.968623
C103	C	1.055245	-0.882257	0.244797
C104	C	1.388578	-0.548924	0.578130
C105	C	1.721911	-0.215590	0.911463
C106	C	1.073358	-0.930506	0.301975
C107	C	1.406691	-0.597173	0.635309
C108	C	1.740025	-0.263840	0.968642
C109	C	1.091498	-0.832780	0.359172
C110	C	1.424831	-0.499447	0.692505
C111	C	1.758164	-0.166113	1.025838
C112	C	1.005596	-0.832861	0.286598
C113	C	1.338930	-0.499528	0.619931
C114	C	1.672263	-0.166195	0.953264
C115	C	1.023718	-0.882185	0.343822
C116	C	1.357051	-0.548852	0.677156
C117	C	1.690384	-0.215518	1.010489
C118	C	1.073294	-0.700423	0.301944
C119	C	1.406627	-0.367090	0.635278
C120	C	1.739960	-0.033756	0.968611
C121	C	1.073380	-1.014603	0.301994
C122	C	1.406714	-0.681270	0.635327
C123	C	1.740047	-0.347936	0.968660
C124	C	1.266993	-0.357920	0.301978
C125	C	1.600326	-0.024587	0.635311
C126	C	1.933660	0.308747	0.968644
C127	C	1.349539	-0.357931	0.301991
C128	C	1.682872	-0.024598	0.635325
C129	C	2.016205	0.308735	0.968658
C130	C	1.073349	-0.357878	0.465369
C131	C	1.406682	-0.024545	0.798703
C132	C	1.740016	0.308789	1.132036
C133	C	1.073375	-0.357872	0.535011
C134	C	1.406709	-0.024538	0.868344
C135	C	1.740042	0.308795	1.201677
C136	C	1.073365	-0.164188	0.301985
C137	C	1.406698	0.169146	0.635318
C138	C	1.740032	0.502479	0.968651
C139	C	1.073398	-0.081642	0.302001
C140	C	1.406731	0.251692	0.635335
C141	C	1.740065	0.585025	0.968668
C142	C	1.073269	-0.357855	0.139158
C143	C	1.406602	-0.024521	0.472492
C144	C	1.739935	0.308812	0.805825
C145	C	1.073386	-0.357652	0.069517
C146	C	1.406720	-0.024318	0.402851
C147	C	1.740053	0.309015	0.736184
C148	C	1.120891	-0.310377	0.567742
C149	C	1.454225	0.022956	0.901075
C150	C	1.787558	0.356289	1.234409
C151	C	1.120890	-0.310345	0.633177
C152	C	1.454224	0.022988	0.966511
C153	C	1.787557	0.356321	1.299844
C154	C	1.073381	-0.357821	0.665879
C155	C	1.406714	-0.024488	0.999212
C156	C	1.740048	0.308846	1.332546
C157	C	1.025856	-0.405319	0.633140
C158	C	1.359189	-0.071985	0.966473
C159	C	1.692523	0.261348	1.299806
C160	C	1.025853	-0.405344	0.567705
C161	C	1.359186	-0.072011	0.901039
C162	C	1.692520	0.261323	1.234372
C163	C	1.067497	-0.424690	0.769545
C164	C	1.400831	-0.091356	1.102878
C165	C	1.734164	0.241977	1.436211
C166	C	1.067505	-0.424666	0.834978
C167	C	1.400839	-0.091332	1.168311
C168	C	1.734172	0.242001	1.501644
C169	C	1.073386	-0.357743	0.867700
C170	C	1.406719	-0.024409	1.201033
C171	C	1.740052	0.308924	1.534366
C172	C	1.079273	-0.290841	0.834981
C173	C	1.412607	0.042492	1.168314
C174	C	1.745940	0.375825	1.501648
C175	C	1.079271	-0.290867	0.769547
C176	C	1.412604	0.042467	1.102880
C177	C	1.745937	0.375800	1.436214
C178	C	1.073379	-0.357799	0.736831
C179	C	1.406712	-0.024465	1.070165
C180	C	1.740045	0.308868	1.403498
C181	C	1.120903	-0.310210	0.971384
C182	C	1.454236	0.023124	1.304717
C183	C	1.787570	0.356457	1.638051
C184	C	1.120897	-0.310176	1.036821
C185	C	1.454230	0.023157	1.370154
C186	C	1.787563	0.356490	1.703487
C187	C	1.025866	-0.405156	1.036781
C188	C	1.359200	-0.071823	1.370115
C189	C	1.692533	0.261510	1.703448
C190	C	1.025869	-0.405183	0.971346
C191	C	1.359202	-0.071850	1.304679
C192	C	1.692535	0.261484	1.638013
C193	C	1.073391	-0.357711	0.938651
C194	C	1.406724	-0.024377	1.271984
C195	C	1.740058	0.308956	1.605318
H196	H	0.619918	-0.449586	0.379142
H197	H	0.953251	-0.116253	0.712476
H198	H	1.286584	0.217081	1.045809
H199	H	0.527252	-0.266174	0.224886
H200	H	0.860586	0.067159	0.558219
H201	H	1.193919	0.400492	0.891553
H202	H	0.527461	-0.324484	0.407556
H203	H	0.860794	0.008849	0.740890
H204	H	1.194128	0.342182	1.074223
Cl205	Cl	1.115237	-0.799373	0.433836
Cl206	Cl	1.448571	-0.466040	0.767169
Cl207	Cl	1.781904	-0.132706	1.100502
H208	H	1.198401	-0.903833	0.330334
H209	H	1.531735	-0.570500	0.663668
H210	H	1.865068	-0.237166	0.997001
H211	H	0.987156	-0.444019	0.541056
H212	H	1.320490	-0.110685	0.874389
H213	H	1.653823	0.222648	1.207722
Cl214	Cl	1.031619	-0.915812	0.170154
Cl215	Cl	1.364952	-0.582479	0.503487
Cl216	Cl	1.698285	-0.249145	0.836821
H217	H	0.987171	-0.443972	0.659769
H218	H	1.320505	-0.110638	0.993103
H219	H	1.653838	0.222695	1.326436
H220	H	0.620092	-0.232874	0.330394
H221	H	0.953425	0.100460	0.663728
H222	H	1.286759	0.433793	0.997061
Cl223	Cl	0.515379	-0.514014	0.266402
Cl224	Cl	0.848712	-0.180681	0.599736
Cl225	Cl	1.182045	0.152653	0.933069
H226	H	0.619963	-0.391183	0.196401
H227	H	0.953297	-0.057850	0.529734
H228	H	1.286630	0.275483	0.863067
H229	H	1.159589	-0.271496	1.063469
H230	H	1.492922	0.061837	1.396803
H231	H	1.826256	0.395170	1.730136
Cl232	Cl	1.086669	-0.206704	0.876110
Cl233	Cl	1.420003	0.126630	1.209443
Cl234	Cl	1.753336	0.459963	1.542777
Cl235	Cl	0.958918	-0.915440	0.398484
Cl236	Cl	1.292252	-0.582107	0.731817
Cl237	Cl	1.625585	-0.248774	1.065151
Cl238	Cl	1.187812	-0.799360	0.205614
Cl239	Cl	1.521146	-0.466027	0.538947
Cl240	Cl	1.854479	-0.132693	0.872280
H241	H	1.062510	-0.479173	0.742908
H242	H	1.395843	-0.145839	1.076241
H243	H	1.729177	0.187494	1.409574
Cl244	Cl	1.180614	-0.250618	0.674334
Cl245	Cl	1.513948	0.082715	1.007668
Cl246	Cl	1.847281	0.416048	1.341001
Cl247	Cl	0.917171	-0.799395	0.266499
Cl248	Cl	1.250505	-0.466062	0.599832
Cl249	Cl	1.583838	-0.132729	0.933166
H250	H	1.159594	-0.271551	0.944762
H251	H	1.492928	0.061783	1.278096
H252	H	1.826261	0.395116	1.611429
Cl253	Cl	1.180629	-0.250693	0.526643
Cl254	Cl	1.513962	0.082640	0.859977
Cl255	Cl	1.847296	0.415973	1.193310
H256	H	1.084063	-0.236394	0.742910
H257	H	1.417396	0.096940	1.076243
H258	H	1.750729	0.430273	1.409577
H259	H	0.987176	-0.443805	1.063406
H260	H	1.320509	-0.110471	1.396740
H261	H	1.653843	0.222862	1.730073
H262	H	0.987180	-0.443863	0.944696
H263	H	1.320514	-0.110529	1.278029
H264	H	1.653847	0.222804	1.611362
H265	H	1.062716	-0.479141	0.861612
H266	H	1.396049	-0.145807	1.194945
H267	H	1.729382	0.187526	1.528279
