data_functionalizedCrystal
_audit_creation_method	'MofGen! by Chris Wilmer'
_symmetry_space_group_name_H-M	'P1'
_symmetry_Int_Tables_number	1
_symmetry_cell_setting	triclinic
loop_
_symmetry_equiv_pos_as_xyz
  x,y,z
_cell_length_a	14.446369
_cell_length_b	20.875641
_cell_length_c	20.875625
_cell_angle_alpha	59.251205
_cell_angle_beta	92.971911
_cell_angle_gamma	62.438463
loop_
_atom_site_label
_atom_site_type_symbol
_atom_site_fract_x
_atom_site_fract_y
_atom_site_fract_z
Zr1	Zr	0.920722	0.702076	-0.109913
O2	O	0.771960	0.835903	-0.217250
O3	O	0.961666	0.568255	-0.073604
O4	O	0.958360	0.702077	-0.212335
O5	O	0.783174	0.702079	0.027042
O6	O	1.110697	0.702071	-0.212331
O7	O	0.775265	0.702081	-0.078519
O8	O	1.116611	0.462689	0.035833
O9	O	0.777261	0.941461	-0.221122
O10	O	1.098446	0.623292	-0.062229
O11	O	0.990661	0.623294	0.016547
O12	O	0.986768	0.780852	-0.146791
O13	O	0.878983	0.780855	-0.068015
Zr14	Zr	1.176296	0.702064	0.058451
Zr15	Zr	1.163683	0.702067	-0.109907
Zr16	Zr	0.933336	0.702073	0.058444
Zr17	Zr	0.929177	0.870430	-0.116090
Zr18	Zr	1.167842	0.533710	0.064627
O19	O	1.135352	0.835885	0.022142
O20	O	1.117418	0.835890	-0.217240
O21	O	0.789894	0.835898	0.022132
O22	O	1.325059	0.568237	0.165787
O23	O	1.307124	0.568242	-0.073595
O24	O	0.979601	0.568250	0.165778
O25	O	1.313844	0.702061	-0.078504
O26	O	1.138658	0.702063	0.160873
O27	O	0.986321	0.702069	0.160869
O28	O	1.321753	0.702059	0.027056
O29	O	0.970381	0.941454	-0.221117
O30	O	1.126637	0.462686	0.169655
O31	O	1.319758	0.462679	0.169660
O32	O	1.309732	0.462682	0.035838
O33	O	0.787287	0.941459	-0.087301
O34	O	0.980407	0.941451	-0.087296
O35	O	1.110250	0.623288	0.095329
O36	O	1.218036	0.623286	0.016553
O37	O	1.106358	0.780846	-0.068009
O38	O	0.998573	0.780849	0.010767
C39	C	1.037934	0.491485	-0.018005
C40	C	1.034345	0.420015	-0.015383
C41	C	1.088919	0.386437	-0.055272
C42	C	1.085550	0.319278	-0.052800
C43	C	1.027600	0.285703	-0.010445
C44	C	0.973025	0.319284	0.029448
C45	C	0.976401	0.386437	0.026981
C46	C	1.011475	0.084859	0.001347
C47	C	1.008100	0.017704	0.003809
C48	C	1.120627	0.017701	-0.078439
C49	C	1.123992	0.084859	-0.080906
C50	C	1.069423	0.118431	-0.041009
N51	N	1.024152	0.217058	-0.007920
N52	N	1.072878	0.187070	-0.043530
C53	C	0.744603	0.702082	-0.025739
C54	C	0.641460	0.702086	-0.025742
C55	C	0.424377	0.801448	-0.078825
C56	C	0.531592	0.801515	-0.079105
C57	C	0.632943	0.652728	-0.060173
C58	C	0.525178	0.653358	-0.060559
C59	C	0.535606	0.651309	0.061862
C60	C	0.641659	0.653182	0.061659
C61	C	1.352415	0.702059	-0.025723
C62	C	1.455558	0.702055	-0.025720
C63	C	1.032732	0.702075	-0.236320
C64	C	1.027377	0.702076	-0.307792
C65	C	1.059084	0.912655	-0.033457
C66	C	1.062673	0.984125	-0.036079
C67	C	1.108785	0.702074	-0.341368
C68	C	1.103756	0.702068	-0.408519
C69	C	1.017314	0.702069	-0.442097
C70	C	0.935903	0.702068	-0.408516
C71	C	0.940937	0.702068	-0.341362
C72	C	0.993264	0.702063	-0.642935
C73	C	0.988234	0.702066	-0.710095
C74	C	1.156089	0.702064	-0.710093
C75	C	1.161112	0.702069	-0.642941
C76	C	1.079703	0.702063	-0.609362
N77	N	1.012170	0.702065	-0.510738
N78	N	1.084853	0.702061	-0.540719
C79	C	1.064287	0.702066	0.184858
C80	C	1.069641	0.702064	0.256330
C81	C	1.341840	0.491474	-0.017997
C82	C	1.441394	0.419999	-0.015372
C83	C	1.053712	0.491481	0.192584
C84	C	1.055477	0.420009	0.266678
C85	C	1.357618	0.491470	0.192592
C86	C	1.462526	0.419994	0.266689
C87	C	0.739401	0.912671	-0.244054
C88	C	0.634492	0.984147	-0.318151
C89	C	0.755178	0.912666	-0.033465
C90	C	0.655624	0.984141	-0.036090
C91	C	1.043307	0.912659	-0.244046
C92	C	1.041541	0.984131	-0.318140
C93	C	1.425720	0.386437	-0.055270
C94	C	1.519252	0.319289	-0.052820
C95	C	1.628456	0.285699	-0.010467
C96	C	1.644128	0.319268	0.029432
C97	C	1.550597	0.386420	0.026977
C98	C	1.118731	0.386442	0.342604
C99	C	1.120387	0.319296	0.412229
C100	C	1.058794	0.285713	0.405927
C101	C	0.995532	0.319287	0.329993
C102	C	0.993871	0.386437	0.260369
C103	C	1.568065	0.386426	0.260365
C104	C	1.666647	0.319276	0.329980
C105	C	1.659688	0.285691	0.405918
C106	C	1.554137	0.319264	0.412240
C107	C	1.455558	0.386418	0.342626
C108	C	0.528953	1.017722	-0.311828
C109	C	0.430373	1.084893	-0.381444
C110	C	0.437333	1.118482	-0.457382
C111	C	0.542883	1.084904	-0.463703
C112	C	0.641461	1.017739	-0.394089
C113	C	0.671298	1.017710	0.003800
C114	C	0.577766	1.084877	0.001331
C115	C	0.468562	1.118469	-0.041025
C116	C	0.452890	1.084897	-0.080920
C117	C	0.546421	1.017736	-0.078455
C118	C	1.103147	1.017692	-0.311812
C119	C	1.101510	1.084839	-0.381425
C120	C	1.038261	1.118428	-0.457365
C121	C	0.976653	1.084860	-0.463691
C122	C	0.978297	1.017710	-0.394079
H123	H	0.960905	-0.009629	0.038300
H124	H	1.168889	0.413777	0.347750
N125	N	1.729328	0.213262	-0.007814
H126	H	1.800892	0.197069	0.025071
H127	H	1.726259	0.236692	-0.064393
N128	N	0.521437	0.981506	-0.229927
H129	H	0.557829	0.914096	-0.197757
H130	H	0.439592	1.013043	-0.236562
H131	H	0.550694	0.580435	-0.024190
N132	N	0.594696	1.121079	0.044358
H133	H	0.557717	1.188486	0.004165
H134	H	0.678091	1.089530	0.071561
H135	H	1.170045	0.702066	-0.435855
N136	N	1.761920	0.283019	0.075117
H137	H	1.773918	0.255145	0.133669
H138	H	1.771909	0.334280	0.051616
N139	N	0.529503	0.981521	-0.121468
H140	H	0.605318	0.933874	-0.113483
H141	H	0.484911	1.032810	-0.180859
H142	H	0.392413	1.173156	-0.043025
N143	N	1.780484	0.283053	0.323159
H144	H	1.825887	0.294739	0.348748
H145	H	1.769837	0.314525	0.264475
H146	H	1.171906	0.291968	0.474051
H147	H	1.171180	0.112194	-0.115395
H148	H	0.363964	1.112258	-0.115405
H149	H	1.151677	1.112163	-0.376258
N150	N	0.952616	0.121056	0.044380
H151	H	0.869380	0.148921	0.021785
H152	H	0.963630	0.168654	0.036390
H153	H	1.165057	-0.009641	-0.110920
N154	N	0.908430	1.121097	-0.545599
H155	H	0.936504	1.069872	-0.550024
H156	H	0.916765	1.168743	-0.588682
H157	H	1.563375	0.413737	0.059471
H158	H	1.036931	1.173106	-0.514041
H159	H	1.154651	0.990355	-0.249985
N160	N	0.789078	0.981488	0.049481
H161	H	0.801072	0.953631	0.108030
H162	H	0.799033	1.032766	0.025958
N163	N	1.575588	0.422635	0.178467
H164	H	1.657413	0.391174	0.185037
H165	H	1.539122	0.490050	0.146333
H166	H	1.548487	0.291909	0.474078
H167	H	0.928126	0.990392	-0.399243
H168	H	1.060157	0.231036	0.462626
N169	N	0.347927	0.852867	-0.163976
H170	H	0.333399	0.812058	-0.168301
H171	H	0.385243	0.873468	-0.202179
N172	N	0.929110	0.283057	0.323202
H173	H	0.939776	0.235421	0.378834
H174	H	0.956661	0.255235	0.294537
H175	H	0.562141	0.578091	0.101573
N176	N	1.151413	0.422653	-0.100962
H177	H	1.185475	0.391187	-0.125854
H178	H	1.213318	0.410965	-0.062776
H179	H	0.942366	0.413758	0.198550
H180	H	1.129989	0.291938	-0.085280
H181	H	0.344439	1.112221	-0.376281
N182	N	0.357896	0.853119	-0.048683
H183	H	0.285985	0.855948	-0.051039
H184	H	0.338831	0.916687	-0.083604
H185	H	1.739966	0.231010	0.462597
H186	H	0.925847	0.291938	0.063940
H187	H	0.931958	0.413778	0.059460
H188	H	0.533594	0.840438	-0.056412
N189	N	1.341728	0.422615	0.349452
H190	H	1.352288	0.391142	0.408123
H191	H	1.296398	0.410920	0.323817
N192	N	1.202013	0.702081	-0.305158
H193	H	1.252822	0.702077	-0.336619
H194	H	1.247404	0.646148	-0.247275
N195	N	0.755283	0.981523	-0.400925
H196	H	0.796691	0.914113	-0.372431
H197	H	0.800613	0.993257	-0.375341
H198	H	0.632118	0.687012	-0.123911
H199	H	0.357055	1.173172	-0.514060
N200	N	0.454556	0.699823	-0.145815
H201	H	0.493583	0.719704	-0.182794
H202	H	0.378251	0.754573	-0.163340
N203	N	0.550385	1.121131	-0.545609
H204	H	0.513978	1.188543	-0.577776
H205	H	0.510012	1.109385	-0.574803
N206	N	0.735154	0.555889	-0.011211
H207	H	0.788091	0.543052	0.033869
H208	H	0.775131	0.546505	-0.047006
N209	N	0.474457	0.693436	0.100416
H210	H	0.447537	0.759165	0.067152
H211	H	0.527406	0.659785	0.156557
N212	N	0.646063	0.700840	0.095785
H213	H	0.577977	0.765890	0.060486
H214	H	0.717037	0.699414	0.097727
N215	N	0.745647	0.557092	0.118109
H216	H	0.794318	0.543838	0.087690
H217	H	0.722466	0.513572	0.140946
H218	H	0.526364	0.840480	-0.143768
N219	N	1.254346	0.702070	-0.606730
H220	H	1.250510	0.758002	-0.648442
H221	H	1.329759	0.646102	-0.588393
N222	N	1.243888	0.702068	-0.746311
H223	H	1.285187	0.646137	-0.744153
H224	H	1.299337	0.702102	-0.714827
N225	N	0.894987	0.702080	-0.746321
H226	H	0.844177	0.702079	-0.714861
H227	H	0.928882	0.646153	-0.744172
H228	H	1.336809	0.413786	-0.089769
H229	H	0.926976	0.702061	-0.615602
N230	N	1.502321	0.283090	-0.095850
H231	H	1.539327	0.215678	-0.055665
H232	H	1.537336	0.294847	-0.137675
H233	H	0.874647	0.702068	-0.314025
N234	N	0.842674	0.702060	-0.444723
H235	H	0.851834	0.702062	-0.492361
H236	H	0.767258	0.757993	-0.463003
