data_functionalizedCrystal
_audit_creation_method	'MofGen! by Chris Wilmer'
_symmetry_space_group_name_H-M	'P1'
_symmetry_Int_Tables_number	1
_symmetry_cell_setting	triclinic
loop_
_symmetry_equiv_pos_as_xyz
  x,y,z
_cell_length_a	6.817900
_cell_length_b	17.078472
_cell_length_c	14.858572
_cell_angle_alpha	96.030459
_cell_angle_beta	104.524003
_cell_angle_gamma	99.306020
loop_
_atom_site_label
_atom_site_type_symbol
_atom_site_fract_x
_atom_site_fract_y
_atom_site_fract_z
V1	V	-4.017389	-0.110266	-0.289866
V2	V	-3.517389	0.389734	0.210134
O3	O	-4.026521	0.004785	-0.284445
O4	O	-3.526521	0.504785	0.215555
O5	O	-3.948350	-0.218146	-0.287791
O6	O	-3.448350	0.281854	0.212209
O7	O	-3.974308	-0.108796	-0.416329
O8	O	-3.474308	0.391204	0.083671
O9	O	-4.000383	-0.105322	-0.155017
O10	O	-3.500383	0.394678	0.344983
V11	V	-4.503002	-0.096478	-0.273749
V12	V	-4.003002	0.403522	0.226251
O13	O	-4.274063	-0.140512	-0.325222
O14	O	-3.774063	0.359488	0.174778
O15	O	-4.696526	-0.066233	-0.238393
O16	O	-4.196526	0.433767	0.261607
O17	O	-4.348835	0.011401	-0.275823
O18	O	-3.848835	0.511401	0.224177
O19	O	-4.611268	-0.211530	-0.279170
O20	O	-4.111268	0.288470	0.220830
O21	O	-4.637405	-0.101423	-0.408598
O22	O	-4.137405	0.398577	0.091402
O23	O	-4.322877	-0.097949	-0.147286
O24	O	-3.822877	0.402051	0.352714
C25	C	-3.788158	-0.244437	-0.283195
C26	C	-3.288158	0.255563	0.216805
C27	C	-3.813033	-0.332631	-0.282341
C28	C	-3.313033	0.167369	0.217659
C29	C	-4.006243	-0.378114	-0.286576
C30	C	-3.506243	0.121886	0.213424
C31	C	-4.029607	-0.460982	-0.285779
C32	C	-3.529607	0.039018	0.214221
C33	C	-3.859754	-0.498365	-0.280742
C34	C	-3.359754	0.001635	0.219258
C35	C	-3.666530	-0.452877	-0.276510
C36	C	-3.166530	0.047123	0.223490
C37	C	-3.643172	-0.370011	-0.277313
C38	C	-3.143172	0.129989	0.222687
C39	C	-3.910149	-0.745764	-0.277848
C40	C	-3.410149	-0.245764	0.222152
C41	C	-3.933521	-0.828636	-0.277043
C42	C	-3.433521	-0.328636	0.222957
C43	C	-4.296598	-0.836735	-0.286314
C44	C	-3.796598	-0.336735	0.213686
C45	C	-4.273220	-0.753867	-0.287111
C46	C	-3.773220	-0.253867	0.212889
C47	C	-4.080001	-0.708387	-0.282884
C48	C	-3.580001	-0.208387	0.217116
N49	N	-3.883630	-0.583069	-0.279924
N50	N	-3.383630	-0.083069	0.220076
N51	N	-4.056132	-0.623685	-0.283708
N52	N	-3.556132	-0.123685	0.216292
C53	C	-3.821269	-0.104950	-0.447156
C54	C	-3.321269	0.395050	0.052844
C55	C	-3.867193	-0.104461	-0.550540
C56	C	-3.367193	0.395539	-0.050540
C57	C	-4.035274	-0.102675	-0.929109
C58	C	-3.535274	0.397325	-0.429109
C59	C	-3.988500	-0.103172	-0.823780
C60	C	-3.488500	0.396828	-0.323780
C61	C	-3.951235	-0.103569	-0.739828
C62	C	-3.451235	0.396431	-0.239828
C63	C	-3.904458	-0.104064	-0.634491
C64	C	-3.404458	0.395936	-0.134491
C65	C	-4.172368	0.037688	-0.280417
C66	C	-3.672368	0.537688	0.219583
C67	C	-4.126731	0.125882	-0.281277
C68	C	-3.626731	0.625882	0.218723
C69	C	-4.139257	-0.101798	-0.116454
C70	C	-3.639257	0.398202	0.383546
C71	C	-4.072573	-0.102282	-0.013069
C72	C	-3.572573	0.397718	0.486931
H73	H	-4.186936	-0.498011	-0.289229
H74	H	-3.686936	0.001989	0.210771
H75	H	-3.528238	-0.483322	-0.272414
H76	H	-3.028238	0.016678	0.227586
H77	H	-3.752820	-0.708743	-0.274401
H78	H	-3.252820	-0.208743	0.225599
H79	H	-4.411539	-0.723436	-0.291220
H80	H	-3.911539	-0.223436	0.208780
H81	H	-3.795207	-0.859073	-0.272962
H82	H	-3.295207	-0.359073	0.227038
H83	H	-3.485844	-0.332980	-0.273869
H84	H	-2.985844	0.167020	0.226131
H85	H	-4.453910	-0.873774	-0.289755
H86	H	-3.953910	-0.373774	0.210245
H87	H	-4.144556	-0.347682	-0.290669
H88	H	-3.644556	0.152318	0.209331
