data_functionalizedCrystal
_audit_creation_method	'MofGen! by Chris Wilmer'
_symmetry_space_group_name_H-M	'P1'
_symmetry_Int_Tables_number	1
_symmetry_cell_setting	triclinic
loop_
_symmetry_equiv_pos_as_xyz
  x,y,z
_cell_length_a	10.489746
_cell_length_b	9.565339
_cell_length_c	16.109301
_cell_angle_alpha	89.998809
_cell_angle_beta	95.998609
_cell_angle_gamma	90.000667
loop_
_atom_site_label
_atom_site_type_symbol
_atom_site_fract_x
_atom_site_fract_y
_atom_site_fract_z
O1	O	1.692347	0.116171	-0.117313
O2	O	1.320992	0.116195	-0.128319
O3	O	1.516871	0.116168	-0.001848
O4	O	1.496468	0.116198	-0.243784
O5	O	1.516856	-0.116352	-0.001856
O6	O	1.320977	-0.116325	-0.128327
O7	O	1.692332	-0.116349	-0.117321
Zn8	Zn	1.506652	-0.153255	-0.122825
Zn9	Zn	1.506672	0.153101	-0.122815
O10	O	1.496453	-0.116322	-0.243792
C11	C	1.273465	-0.000062	-0.127491
C12	C	1.131872	-0.000054	-0.125001
C13	C	0.980203	-0.000083	-0.043058
C14	C	1.056995	-0.114719	-0.084030
C15	C	1.056966	0.114528	-0.084041
C16	C	0.956378	-0.114819	-0.161579
C17	C	0.956344	0.114531	-0.161579
C18	C	1.033086	-0.000132	-0.202609
N19	N	1.506647	-0.362334	-0.122832
C20	C	1.416033	-0.453525	-0.181301
C21	C	1.531285	-0.546709	-0.198125
C22	C	1.391444	-0.546705	-0.106015
C23	C	1.621958	-0.453466	-0.139694
C24	C	1.482041	-0.453455	-0.047550
C25	C	1.597377	-0.546597	-0.064343
C26	C	1.739859	-0.000089	-0.118149
C27	C	1.881452	-0.000088	-0.120639
C28	C	1.516037	-0.000093	0.029128
C29	C	1.513559	-0.000094	0.121438
N30	N	1.506687	0.362180	-0.122802
C31	C	1.497287	-0.000058	-0.274768
C32	C	1.499765	-0.000047	-0.367079
C33	C	1.624028	-0.000079	0.343029
C34	C	1.621690	-0.000068	0.429763
C35	C	1.389287	-0.000058	0.411324
C36	C	1.391626	-0.000060	0.324591
C37	C	1.509001	-0.000078	0.290446
C38	C	1.504323	-0.000064	0.463914
C39	C	1.501787	-0.000052	0.557956
C40	C	1.511537	-0.000088	0.196398
H41	H	1.100940	-0.211646	-0.051283
F42	F	1.315963	-0.400104	-0.245987
H43	H	1.552124	-0.587670	-0.261776
H44	H	0.912375	0.211462	-0.194297
F45	F	1.748948	-0.000097	0.306692
H46	H	0.912618	-0.211847	-0.194311
F47	F	1.749351	-0.400165	-0.158366
F48	F	1.264375	-0.000039	0.447672
H49	H	1.715358	-0.000066	0.472573
H50	H	1.674108	-0.587206	-0.014882
H51	H	1.056582	-0.000187	-0.270119
F52	F	1.114380	0.241206	-0.041212
F53	F	1.269191	-0.000048	0.268625
F54	F	1.454757	-0.399870	0.035620
F55	F	1.264083	-0.600241	-0.087438
F56	F	0.949167	-0.000241	0.045116
