data_functionalizedCrystal
_audit_creation_method	'MofGen! by Chris Wilmer'
_symmetry_space_group_name_H-M	'P1'
_symmetry_Int_Tables_number	1
_symmetry_cell_setting	triclinic
loop_
_symmetry_equiv_pos_as_xyz
  x,y,z
_cell_length_a	13.101039
_cell_length_b	14.519709
_cell_length_c	14.044220
_cell_angle_alpha	88.434511
_cell_angle_beta	93.667477
_cell_angle_gamma	86.641741
loop_
_atom_site_label
_atom_site_type_symbol
_atom_site_fract_x
_atom_site_fract_y
_atom_site_fract_z
O1	O	0.085082	-1.238528	-0.119055
O2	O	0.085114	-0.971233	-0.133688
O3	O	0.085089	-1.100868	0.011619
O4	O	0.085108	-1.108893	-0.264362
O5	O	-0.085340	-1.091568	0.001176
O6	O	-0.085314	-0.961933	-0.144131
O7	O	-0.085346	-1.229228	-0.129498
Zn8	Zn	-0.112389	-1.094104	-0.138473
Zn9	Zn	0.112157	-1.106357	-0.124714
O10	O	-0.085320	-1.099593	-0.274805
C11	C	-0.000096	-0.932168	-0.138227
C12	C	-0.000084	-0.829623	-0.136183
N13	N	-0.265636	-1.085748	-0.147862
C14	C	-0.000133	-1.268292	-0.124959
C15	C	-0.000138	-1.370838	-0.127003
C16	C	-0.474676	-1.074381	-0.160646
C17	C	-0.525562	-1.126083	-0.102536
C18	C	-0.641879	-1.119759	-0.109649
C19	C	-0.358348	-1.080705	-0.153534
N20	N	0.265404	-1.114719	-0.115317
C21	C	-0.000126	-1.092705	0.041718
C22	C	-0.000126	-1.082228	0.146962
C23	C	-0.000131	-0.454118	-0.128661
C24	C	-0.000118	-0.558595	-0.130750
C25	C	-0.000107	-0.641867	-0.132422
C26	C	-0.000095	-0.746351	-0.134511
C27	C	-0.000104	-1.107756	-0.304904
C28	C	-0.000097	-1.118233	-0.410147
C29	C	-0.000109	-1.063075	0.339657
C30	C	-0.000114	-1.137382	0.397163
C31	C	-0.000105	-1.126725	0.504385
C32	C	-0.000118	-1.073730	0.232424
H33	H	-0.518464	-1.025371	-0.215734
H34	H	-0.000054	-1.209007	0.365875
H35	H	-0.000098	-0.991459	0.370948
H36	H	-0.481769	-1.175098	-0.047446
