data_functionalizedCrystal
_audit_creation_method	'MofGen! by Chris Wilmer'
_symmetry_space_group_name_H-M	'P1'
_symmetry_Int_Tables_number	1
_symmetry_cell_setting	triclinic
loop_
_symmetry_equiv_pos_as_xyz
  x,y,z
_cell_length_a	14.971486
_cell_length_b	10.489741
_cell_length_c	13.448316
_cell_angle_alpha	89.993703
_cell_angle_beta	89.998199
_cell_angle_gamma	84.076651
loop_
_atom_site_label
_atom_site_type_symbol
_atom_site_fract_x
_atom_site_fract_y
_atom_site_fract_z
O1	O	1.187893	0.166222	-0.082577
O2	O	0.927607	0.186128	-0.082604
O3	O	1.063673	-0.009491	-0.082584
O4	O	1.051827	0.361841	-0.082597
O5	O	1.063655	-0.009503	0.082800
O6	O	0.927589	0.186116	0.082780
O7	O	1.187876	0.166210	0.082807
Cu8	Cu	1.057731	0.176162	0.097894
Cu9	Cu	1.057752	0.176176	-0.097691
O10	O	1.051810	0.361829	0.082787
C11	C	0.894268	0.185232	0.000085
C12	C	0.794956	0.182564	0.000074
C13	C	0.738385	0.297485	0.000072
C14	C	0.645071	0.294971	0.000087
C15	C	0.608330	0.177534	0.000097
C16	C	0.664909	0.062604	0.000103
C17	C	0.758221	0.065120	0.000095
C18	C	0.470416	0.057369	0.000117
C19	C	0.377098	0.054853	0.000123
C20	C	0.357267	0.287220	0.000108
C21	C	0.450579	0.289736	0.000101
C22	C	0.507151	0.174805	0.000104
C23	C	1.062769	-0.057019	0.000107
C24	C	1.060093	-0.198617	0.000105
C25	C	0.973518	-0.265755	0.000089
C26	C	1.014406	-0.358357	0.081636
C27	C	1.014444	-0.358320	-0.081419
C28	C	1.101017	-0.289354	0.081720
C29	C	1.101043	-0.289307	-0.081409
C30	C	1.141994	-0.381882	0.000158
C31	C	1.221215	0.167106	0.000116
C32	C	1.320527	0.169774	0.000120
C33	C	1.052713	0.409357	0.000094
C34	C	1.055390	0.550955	0.000089
N35	N	1.057723	0.176151	0.235459
N36	N	1.057766	0.176177	-0.235255
C37	C	1.117992	0.089567	0.287508
C38	C	1.117998	0.089566	0.391611
C39	C	1.057738	0.176156	0.443663
C40	C	0.997462	0.262745	0.391607
C41	C	0.997453	0.262739	0.287505
C42	C	0.997487	0.262753	0.608587
C43	C	0.997497	0.262761	0.712695
C44	C	1.118032	0.089580	0.712693
C45	C	1.118023	0.089574	0.608591
C46	C	1.057748	0.176165	0.556542
H47	H	0.516476	-0.036219	0.000121
O48	O	0.774218	0.411454	0.000014
C49	C	0.868709	0.389037	0.000030
H50	H	0.889978	0.289535	-0.031276
H51	H	0.897833	0.464195	-0.047994
H52	H	0.894724	0.395257	0.079369
O53	O	1.144728	-0.252546	-0.163572
C54	C	1.147328	-0.118585	-0.161934
H55	H	1.139547	-0.082508	-0.082131
H56	H	1.214319	-0.094189	-0.193066
H57	H	1.090222	-0.070734	-0.209280
H58	H	0.311201	0.380801	0.000110
H59	H	1.167109	0.019075	0.755077
H60	H	0.902336	-0.215280	0.000164
H61	H	0.977767	-0.388950	0.150571
H62	H	1.137610	-0.258951	0.150739
H63	H	0.634987	-0.033015	0.000126
H64	H	0.804281	-0.028461	0.000097
H65	H	1.167073	0.019061	0.433989
O66	O	0.590246	0.406723	0.000039
C67	C	0.642684	0.510914	0.000047
H68	H	0.712104	0.478645	-0.031271
H69	H	0.608783	0.591445	-0.047970
H70	H	0.649566	0.546903	0.079386
O71	O	1.176592	0.005340	0.558180
C72	C	1.229809	-0.071065	0.626440
H73	H	1.193140	-0.072596	0.700655
H74	H	1.242798	-0.172897	0.596368
H75	H	1.296518	-0.029491	0.637493
O76	O	1.227001	-0.441784	0.000392
C77	C	1.272294	-0.406600	0.086471
H78	H	1.221150	-0.373415	0.146286
H79	H	1.317894	-0.492621	0.114935
H80	H	1.314465	-0.325317	0.067800
O81	O	0.938863	0.346903	0.763107
C82	C	0.885666	0.423336	0.694847
H83	H	0.884325	0.371043	0.620642
H84	H	0.814362	0.442593	0.724935
H85	H	0.915292	0.518177	0.683767
H86	H	1.167067	0.019060	0.245134
O87	O	0.939061	0.346920	0.557914
C88	C	0.987463	0.425739	0.497700
H89	H	1.057125	0.375099	0.482103
H90	H	0.950255	0.445825	0.424497
H91	H	0.994148	0.520026	0.537806
H92	H	0.977809	-0.388855	-0.150368
H93	H	0.948375	0.333243	0.245128
O94	O	0.486122	0.403922	0.000133
C95	C	0.416184	0.504823	0.000108
H96	H	0.352574	0.468977	0.031425
H97	H	0.436214	0.586801	0.048117
H98	H	0.403209	0.540285	-0.079236
O99	O	0.341554	-0.059333	0.000179
C100	C	0.411493	-0.160235	0.000163
H101	H	0.475103	-0.124390	0.031470
H102	H	0.391463	-0.242214	0.048185
H103	H	0.424466	-0.195692	-0.079177
O104	O	0.938799	0.346728	0.442125
C105	C	0.850125	0.325796	0.416687
H106	H	0.849035	0.223671	0.388080
H107	H	0.805339	0.340359	0.485154
H108	H	0.824297	0.396430	0.356257
