data_functionalizedCrystal
_audit_creation_method	'MofGen! by Chris Wilmer'
_symmetry_space_group_name_H-M	'P1'
_symmetry_Int_Tables_number	1
_symmetry_cell_setting	triclinic
loop_
_symmetry_equiv_pos_as_xyz
  x,y,z
_cell_length_a	6.817900
_cell_length_b	15.866870
_cell_length_c	10.992743
_cell_angle_alpha	110.449976
_cell_angle_beta	108.770538
_cell_angle_gamma	102.655915
loop_
_atom_site_label
_atom_site_type_symbol
_atom_site_fract_x
_atom_site_fract_y
_atom_site_fract_z
V1	V	-4.122323	-0.132601	-0.463388
O2	O	-4.072034	0.006402	-0.389931
O3	O	-4.107793	-0.262955	-0.522384
O4	O	-4.099811	-0.130548	-0.637127
O5	O	-4.080071	-0.126921	-0.274394
V6	V	-4.598207	-0.115977	-0.433231
O7	O	-4.400336	-0.169069	-0.529540
O8	O	-4.770391	-0.079508	-0.367080
O9	O	-4.389530	0.014377	-0.374236
O10	O	-4.765892	-0.254980	-0.506688
O11	O	-4.757855	-0.121657	-0.622226
O12	O	-4.397512	-0.118029	-0.259493
C13	C	-3.960196	-0.294733	-0.531114
C14	C	-4.029775	-0.401299	-0.580508
C15	C	-3.950406	-0.683417	-0.122338
C16	C	-4.015802	-0.783556	-0.168794
C17	C	-4.139085	-0.810891	-0.417048
C18	C	-4.073688	-0.710751	-0.370612
C19	C	-3.979353	-0.647022	-0.223256
C20	C	-4.102636	-0.674356	-0.471530
C21	C	-4.037255	-0.574226	-0.425098
C22	C	-3.942926	-0.510490	-0.277748
C23	C	-3.913972	-0.546891	-0.176824
C24	C	-4.196986	-0.738088	-0.618886
C25	C	-4.225934	-0.701693	-0.719804
C26	C	-4.160537	-0.601560	-0.673372
C27	C	-4.066209	-0.537825	-0.526022
C28	C	-4.189491	-0.565159	-0.774296
C29	C	-4.124110	-0.465029	-0.727864
C30	C	-4.000827	-0.437694	-0.479590
C31	C	-3.950012	-0.125834	-0.677478
C32	C	-4.013114	-0.125018	-0.819919
C33	C	-4.325855	-0.130011	-1.033377
C34	C	-4.260099	-0.130492	-0.884972
C35	C	-3.857021	-0.029878	-0.805635
C36	C	-3.924030	-0.028997	-0.953861
C37	C	-4.057454	-0.212015	-1.078808
C38	C	-3.996911	-0.214180	-0.931619
C39	C	-4.200470	0.046150	-0.365505
C40	C	-4.110131	0.152715	-0.316120
C41	C	-4.210653	-0.122747	-0.219136
C42	C	-4.126788	-0.123558	-0.076692
H43	H	-4.215908	-0.862793	-0.537026
Br44	Br	-3.705515	-0.216765	-0.863265
H45	H	-3.923978	-0.385800	-0.359596
H46	H	-3.908981	-0.208053	-1.106112
Br47	Br	-3.822332	-0.596916	0.077651
Br48	Br	-4.190837	-0.331401	-0.956873
Br49	Br	-3.976507	-0.832946	-0.031817
H50	H	-3.889700	-0.428958	-0.239946
Br51	Br	-4.285737	-0.873982	-0.681904
Br52	Br	-3.785898	-0.460390	0.023165
Br53	Br	-4.163416	-0.415630	-0.864824
H54	H	-4.266326	-0.617063	-0.894275
Br55	Br	-4.353973	-0.788190	-0.919782
Br56	Br	-3.994312	0.082507	-0.939543
Br57	Br	-4.460724	-0.244459	-0.906274
Br58	Br	-3.871783	0.080519	-0.672035
Br59	Br	-4.416070	-0.024119	-1.027774
H60	H	-4.478770	-0.198025	-1.118224
Br61	Br	-4.296470	-0.024498	-0.757667
H62	H	-3.773296	-0.020371	-0.979055
H63	H	-3.674954	-0.022407	-0.760230
H64	H	-4.197815	-0.283357	-1.167185
