data_functionalizedCrystal
_audit_creation_method	'MofGen! by Chris Wilmer'
_symmetry_space_group_name_H-M	'P1'
_symmetry_Int_Tables_number	1
_symmetry_cell_setting	triclinic
loop_
_symmetry_equiv_pos_as_xyz
  x,y,z
_cell_length_a	16.109301
_cell_length_b	15.944551
_cell_length_c	15.186229
_cell_angle_alpha	89.995303
_cell_angle_beta	89.999362
_cell_angle_gamma	83.480109
loop_
_atom_site_label
_atom_site_type_symbol
_atom_site_fract_x
_atom_site_fract_y
_atom_site_fract_z
O1	O	1.103166	0.107966	-0.073175
O2	O	0.861108	0.121402	-0.073189
O3	O	0.988747	-0.007593	-0.073174
O4	O	0.975527	0.236961	-0.073190
O5	O	0.988738	-0.007594	0.073284
O6	O	0.861099	0.121401	0.073268
O7	O	1.103157	0.107964	0.073282
Zn8	Zn	0.982127	0.114682	0.096529
Zn9	Zn	0.982138	0.114685	-0.096435
O10	O	0.975518	0.236960	0.073267
C11	C	0.830129	0.120857	0.000038
C12	C	0.737833	0.119226	0.000033
C13	C	0.988194	-0.038887	0.000055
C14	C	0.986548	-0.132133	0.000056
C15	C	0.515584	0.191975	0.000038
C16	C	0.428863	0.190435	0.000044
C17	C	0.448688	0.037387	0.000050
C18	C	0.535407	0.038927	0.000051
C19	C	0.568853	0.116224	0.000040
C20	C	0.395412	0.113143	0.000045
C21	C	0.301386	0.111473	0.000052
C22	C	0.662885	0.117894	0.000036
C23	C	0.903499	-0.346962	0.000039
C24	C	0.942060	-0.407993	0.072253
C25	C	0.983572	-0.302858	0.000049
C26	C	0.942087	-0.407975	-0.072142
C27	C	0.980691	-0.467769	0.000038
C28	C	1.022155	-0.362660	0.072323
C29	C	1.022171	-0.362636	-0.072137
C30	C	1.060790	-0.423649	0.000095
C31	C	0.985229	-0.207856	0.000055
C32	C	0.979039	-0.562770	0.000038
C33	C	1.134136	0.108510	0.000054
C34	C	1.226432	0.110141	0.000053
C35	C	0.976071	0.268254	0.000036
C36	C	0.977717	0.361500	0.000030
N37	N	0.982125	0.114680	0.228221
N38	N	0.982146	0.114680	-0.228128
C39	C	1.038663	0.057580	0.453951
C40	C	1.038666	0.057578	0.546141
C41	C	0.925603	0.171783	0.546136
C42	C	0.925597	0.171780	0.453948
C43	C	0.982132	0.114680	0.407858
C44	C	0.982140	0.114680	0.592236
C45	C	0.982143	0.114679	0.692192
C46	C	0.982128	0.114680	0.307895
H47	H	0.542812	0.254914	0.000036
H48	H	0.385495	0.252119	0.000044
H49	H	1.127313	-0.456830	0.000139
H50	H	0.421446	-0.025546	0.000064
C51	C	0.594010	-0.044405	0.000051
C52	C	0.557225	-0.129428	0.000051
C53	C	0.615828	-0.212755	0.000055
C54	C	0.711216	-0.211059	0.000059
C55	C	0.748005	-0.126032	0.000059
C56	C	0.689403	-0.042705	0.000055
H57	H	0.486609	-0.130686	0.000048
H58	H	0.588594	-0.275697	0.000055
H59	H	0.754597	-0.272742	0.000062
H60	H	0.818621	-0.124773	0.000062
H61	H	0.716637	0.020237	0.000056
C62	C	1.100853	-0.005229	0.596844
C63	C	1.163044	-0.068028	0.546145
C64	C	1.225234	-0.130839	0.596848
C65	C	1.225233	-0.130852	0.698251
C66	C	1.163039	-0.068052	0.748957
C67	C	1.100850	-0.005240	0.698253
H68	H	1.163047	-0.068020	0.471075
H69	H	1.271273	-0.177329	0.559312
H70	H	1.271269	-0.177349	0.735785
H71	H	1.163036	-0.068059	0.824026
H72	H	1.054810	0.041249	0.735789
H73	H	0.837035	-0.313632	0.000107
H74	H	1.055990	-0.342682	0.133442
H75	H	0.908189	-0.428091	0.133301
C76	C	0.863422	0.234598	0.596836
C77	C	0.863470	0.234654	0.698239
C78	C	0.801289	0.297473	0.748935
C79	C	0.739062	0.360236	0.698229
C80	C	0.739012	0.360182	0.596820
C81	C	0.801192	0.297363	0.546123
H82	H	0.909536	0.188191	0.735780
H83	H	0.801327	0.297512	0.824005
H84	H	0.693032	0.406738	0.735757
H85	H	0.692945	0.406645	0.559278
H86	H	0.801155	0.297323	0.471054
H87	H	1.056013	-0.342516	-0.133188
H88	H	0.908213	-0.428040	-0.133198
C89	C	1.100843	-0.005235	0.403251
C90	C	1.099441	-0.100886	0.415939
C91	C	1.161621	-0.163705	0.365243
C92	C	1.225204	-0.130873	0.301858
C93	C	1.226609	-0.035217	0.289168
C94	C	1.164429	0.027602	0.339864
H95	H	1.052371	-0.125194	0.462863
H96	H	1.160581	-0.234516	0.374638
H97	H	1.271234	-0.177375	0.264330
H98	H	1.273679	-0.010908	0.242244
H99	H	1.165469	0.098413	0.330469
H100	H	0.879558	0.218278	0.416417
