data_functionalizedCrystal
_audit_creation_method	'MofGen! by Chris Wilmer'
_symmetry_space_group_name_H-M	'P1'
_symmetry_Int_Tables_number	1
_symmetry_cell_setting	triclinic
loop_
_symmetry_equiv_pos_as_xyz
  x,y,z
_cell_length_a	12.759401
_cell_length_b	16.120484
_cell_length_c	12.759393
_cell_angle_alpha	92.864008
_cell_angle_beta	89.979062
_cell_angle_gamma	92.926992
loop_
_atom_site_label
_atom_site_type_symbol
_atom_site_fract_x
_atom_site_fract_y
_atom_site_fract_z
Zn1	Zn	1.584985	-0.331832	-0.615183
Zn2	Zn	1.575933	-0.471268	-0.448395
Zn3	Zn	1.409280	-0.331877	-0.439521
Zn4	Zn	1.400336	-0.471209	-0.624029
O5	O	1.492634	-0.401546	-0.531782
O6	O	1.730804	-0.350334	-0.593070
O7	O	1.553781	-0.452820	-0.300200
O8	O	1.440119	-0.215205	-0.455406
O9	O	1.724154	-0.452777	-0.470532
O10	O	1.569208	-0.215173	-0.584465
O11	O	1.431342	-0.350410	-0.293680
O12	O	1.261073	-0.350354	-0.463984
O13	O	1.424875	-0.452678	-0.769874
O14	O	1.254502	-0.452721	-0.599541
O15	O	1.560535	-0.350278	-0.763375
O16	O	1.545108	-0.587925	-0.479110
O17	O	1.416098	-0.587883	-0.608147
C18	C	1.219667	-0.401536	-0.531760
C19	C	1.102889	-0.401552	-0.531777
C20	C	1.044628	-0.454936	-0.602261
C21	C	0.934904	-0.454939	-0.602282
C22	C	0.941712	-0.348172	-0.461326
C23	C	1.051434	-0.348166	-0.461311
C24	C	0.783089	-0.484854	-0.728051
C25	C	0.724823	-0.538250	-0.798527
C26	C	0.755203	-0.619612	-0.819663
C27	C	0.843846	-0.647593	-0.770310
C28	C	0.902106	-0.594200	-0.699827
C29	C	0.871728	-0.512828	-0.678709
C30	C	1.203250	-0.318259	-0.335542
C31	C	1.261512	-0.264871	-0.265053
C32	C	1.231134	-0.183508	-0.243905
C33	C	1.142488	-0.155530	-0.293240
C34	C	1.084226	-0.208919	-0.363729
C35	C	1.114611	-0.290280	-0.384878
C36	C	1.478679	-0.618154	-0.545574
C37	C	1.472805	-0.710820	-0.551509
C38	C	1.462088	-0.880481	-0.562368
C39	C	1.523367	-0.921772	-0.501213
C40	C	1.517404	-1.016177	-0.507255
C41	C	1.468050	-0.786067	-0.556327
C42	C	1.766666	-0.401557	-0.531804
C43	C	1.883442	-0.401562	-0.531814
C44	C	1.492717	-0.401466	-0.805810
C45	C	1.492753	-0.401432	-0.922585
C46	C	1.506671	-0.184093	-0.517959
C47	C	1.512653	-0.091427	-0.512068
C48	C	1.563397	-0.348104	-0.974064
C49	C	1.563417	-0.348068	-1.083786
C50	C	1.422146	-0.454696	-1.090540
C51	C	1.422122	-0.454727	-0.980820
C52	C	1.607337	-0.249705	-1.227491
C53	C	1.677997	-0.196384	-1.278974
C54	C	1.781330	-0.183600	-1.242567
C55	C	1.814023	-0.224149	-1.154680
C56	C	1.743368	-0.277476	-1.103203
C57	C	1.640022	-0.290244	-1.139607
C58	C	1.378212	-0.553091	-0.837113
C59	C	1.307561	-0.606423	-0.785634
C60	C	1.204226	-0.619216	-0.822039
C61	C	1.171536	-0.578681	-0.909931
C62	C	1.242187	-0.525350	-0.961410
C63	C	1.345521	-0.512556	-0.924997
C64	C	1.492614	-0.401566	-0.258816
C65	C	1.492797	-0.401365	-0.142027
H66	H	0.652651	-0.515460	-0.838710
O67	O	1.857546	-0.126090	-1.298089
H68	H	1.885999	-0.074685	-1.242520
O69	O	1.345975	-0.512180	-1.153355
H70	H	1.264438	-0.497874	-1.131379
H71	H	0.974276	-0.616982	-0.659644
H72	H	1.580308	-0.886221	-0.444319
O73	O	1.100118	-0.512502	-0.678285
H74	H	1.152531	-0.475225	-0.729427
H75	H	1.462354	-0.542673	-0.807458
O76	O	0.876610	-0.735352	-0.793098
H77	H	0.821211	-0.767777	-0.850407
H78	H	1.146707	-0.662650	-0.780121
O79	O	1.386645	-0.927560	-0.637709
H80	H	1.393732	-0.995396	-0.630672
O81	O	0.692369	-0.677206	-0.895681
H82	H	0.625633	-0.644080	-0.926450
O83	O	1.778611	-0.321185	-1.008395
H84	H	1.712115	-0.360405	-0.978709
H85	H	0.758353	-0.418600	-0.710858
O86	O	1.639566	-0.290619	-0.911247
H87	H	1.688685	-0.253526	-0.965482
H88	H	1.333692	-0.287658	-0.224881
H89	H	1.898170	-0.213741	-1.125050
O90	O	1.642738	-0.152636	-1.373752
H91	H	1.559003	-0.170466	-1.390407
H92	H	1.215562	-0.492345	-1.032977
H93	H	1.523194	-0.260103	-1.257136
O94	O	1.060077	-0.592468	-0.949198
H95	H	1.044177	-0.659443	-0.971015
O96	O	0.886214	-0.290620	-0.385292
H97	H	0.800127	-0.299606	-0.397125
O98	O	0.988619	-0.178745	-0.416956
H99	H	0.977284	-0.113196	-0.390418
H100	H	1.334190	-0.639435	-0.714076
H101	H	1.117742	-0.089283	-0.276005
O102	O	1.293656	-0.125781	-0.167780
H103	H	1.375489	-0.117407	-0.196394
O104	O	1.236010	-0.406021	-0.358352
H105	H	1.307427	-0.416511	-0.312189
