data_functionalizedCrystal
_audit_creation_method	'MofGen! by Chris Wilmer'
_symmetry_space_group_name_H-M	'P1'
_symmetry_Int_Tables_number	1
_symmetry_cell_setting	triclinic
loop_
_symmetry_equiv_pos_as_xyz
  x,y,z
_cell_length_a	14.519731
_cell_length_b	12.996460
_cell_length_c	14.519709
_cell_angle_alpha	90.007122
_cell_angle_beta	96.315501
_cell_angle_gamma	89.998888
loop_
_atom_site_label
_atom_site_type_symbol
_atom_site_fract_x
_atom_site_fract_y
_atom_site_fract_z
O1	O	1.223850	-0.085571	-0.120987
O2	O	1.557184	0.247762	0.212346
O3	O	1.890517	0.581095	0.545679
O4	O	0.955376	-0.085573	-0.135203
O5	O	1.288710	0.247760	0.198130
O6	O	1.622043	0.581094	0.531463
O7	O	1.096732	-0.085563	0.006143
O8	O	1.430065	0.247770	0.339476
O9	O	1.763398	0.581104	0.672809
O10	O	1.082495	-0.085582	-0.262333
O11	O	1.415828	0.247752	0.071000
O12	O	1.749162	0.581085	0.404334
O13	O	1.096729	0.085571	0.006152
O14	O	1.430063	0.418904	0.339485
O15	O	1.763396	0.752238	0.672819
O16	O	0.955374	0.085561	-0.135194
O17	O	1.288707	0.418894	0.198139
O18	O	1.622041	0.752227	0.531473
O19	O	1.223848	0.085563	-0.120978
O20	O	1.557181	0.418896	0.212355
O21	O	1.890515	0.752229	0.545689
Cu22	Cu	1.089611	0.101187	-0.128085
Cu23	Cu	1.422944	0.434521	0.205248
Cu24	Cu	1.756277	0.767854	0.538582
Cu25	Cu	1.089614	-0.101198	-0.128096
Cu26	Cu	1.422947	0.232135	0.205237
Cu27	Cu	1.756280	0.565469	0.538571
O28	O	1.082493	0.085552	-0.262324
O29	O	1.415826	0.418886	0.071009
O30	O	1.749159	0.752219	0.404343
C31	C	0.921016	-0.000006	-0.134532
C32	C	1.254349	0.333327	0.198801
C33	C	1.587682	0.666660	0.532134
C34	C	0.818635	-0.000007	-0.132536
C35	C	1.151969	0.333327	0.200797
C36	C	1.485302	0.666660	0.534130
C37	C	0.735491	-0.000011	-0.130915
C38	C	1.068825	0.333322	0.202419
C39	C	1.402158	0.666656	0.535752
C40	C	0.631182	-0.000011	-0.128888
C41	C	0.964516	0.333322	0.204445
C42	C	1.297849	0.666656	0.537779
C43	C	0.548043	-0.000011	-0.127280
C44	C	0.881377	0.333322	0.206054
C45	C	1.214710	0.666656	0.539387
C46	C	0.443728	-0.000013	-0.125253
C47	C	0.777061	0.333320	0.208080
C48	C	1.110395	0.666654	0.541414
N49	N	1.089616	-0.243545	-0.128097
N50	N	1.422949	0.089788	0.205236
N51	N	1.756283	0.423121	0.538570
C52	C	1.089612	-0.663360	-0.128088
C53	C	1.422945	-0.330026	0.205245
C54	C	1.756278	0.003307	0.538579
C55	C	1.089610	-0.546554	-0.128093
C56	C	1.422943	-0.213221	0.205240
C57	C	1.756276	0.120112	0.538573
C58	C	1.089613	-0.453456	-0.128092
C59	C	1.422946	-0.120123	0.205241
C60	C	1.756280	0.213211	0.538575
C61	C	1.089613	-0.336644	-0.128098
C62	C	1.422946	-0.003310	0.205235
C63	C	1.756279	0.330023	0.538568
C64	C	1.258209	-0.000007	-0.121649
C65	C	1.591542	0.333327	0.211685
C66	C	1.924875	0.666660	0.545018
C67	C	1.360589	-0.000013	-0.123645
C68	C	1.693922	0.333320	0.209689
C69	C	2.027256	0.666654	0.543022
C70	C	1.096067	0.000004	0.040507
C71	C	1.429400	0.333337	0.373840
C72	C	1.762734	0.666671	0.707174
C73	C	1.094079	0.000005	0.142889
C74	C	1.427412	0.333338	0.476222
C75	C	1.760745	0.666671	0.809555
N76	N	1.089615	0.243535	-0.128077
N77	N	1.422949	0.576868	0.205257
N78	N	1.756282	0.910201	0.538590
C79	C	1.083157	-0.000017	-0.296688
C80	C	1.416491	0.333316	0.036645
C81	C	1.749824	0.666650	0.369978
C82	C	1.085146	-0.000024	-0.399070
C83	C	1.418479	0.333309	-0.065736
C84	C	1.751812	0.666642	0.267597
C85	C	1.086759	-0.000022	0.517785
C86	C	1.420093	0.333311	0.851118
C87	C	1.753426	0.666645	1.184452
C88	C	1.088792	-0.000014	0.413477
C89	C	1.422125	0.333319	0.746810
C90	C	1.755459	0.666652	1.080143
C91	C	1.090419	-0.000008	0.330340
C92	C	1.423752	0.333326	0.663673
C93	C	1.757085	0.666659	0.997007
C94	C	1.092452	-0.000002	0.226025
C95	C	1.425785	0.333331	0.559359
C96	C	1.759118	0.666665	0.892692
