data_functionalizedCrystal
_audit_creation_method	'MofGen! by Chris Wilmer'
_symmetry_space_group_name_H-M	'P1'
_symmetry_Int_Tables_number	1
_symmetry_cell_setting	triclinic
loop_
_symmetry_equiv_pos_as_xyz
  x,y,z
_cell_length_a	15.625950
_cell_length_b	15.538191
_cell_length_c	9.730223
_cell_angle_alpha	89.996882
_cell_angle_beta	71.929418
_cell_angle_gamma	66.741480
loop_
_atom_site_label
_atom_site_type_symbol
_atom_site_fract_x
_atom_site_fract_y
_atom_site_fract_z
O1	O	1.155815	0.123036	-0.461566
O2	O	0.888586	0.137656	-0.328428
O3	O	1.074219	-0.006711	-0.420907
O4	O	0.970183	0.267403	-0.369087
O5	O	1.074208	-0.006702	-0.649481
O6	O	0.888575	0.137664	-0.557002
O7	O	1.155804	0.123044	-0.690140
Zn8	Zn	1.022187	0.130355	-0.659862
Zn9	Zn	1.022203	0.130345	-0.358706
O10	O	0.970171	0.267411	-0.597661
C11	C	0.855215	0.136993	-0.426091
C12	C	0.755799	0.134995	-0.376560
C13	C	0.428692	0.128499	-0.836460
C14	C	0.335267	0.126640	-0.789850
C15	C	0.335326	0.126632	-0.540691
C16	C	0.428751	0.128496	-0.587279
C17	C	0.475427	0.129428	-0.735165
C18	C	0.475485	0.129424	-0.485984
C19	C	0.568904	0.131282	-0.532570
C20	C	0.615587	0.132212	-0.680450
C21	C	0.568845	0.131286	-0.781751
C22	C	0.428811	0.128486	-0.338100
C23	C	0.475545	0.129414	-0.236805
C24	C	0.568962	0.131279	-0.283389
C25	C	0.615646	0.132209	-0.431269
C26	C	0.615705	0.132205	-0.182088
C27	C	0.709123	0.134063	-0.228674
C28	C	0.709065	0.134067	-0.477855
C29	C	1.085098	-0.041787	-0.540612
C30	C	1.117521	-0.146315	-0.556752
C31	C	0.795410	-0.434557	-0.396300
C32	C	0.825898	-0.532780	-0.411493
C33	C	0.997391	-0.554983	-0.496933
C34	C	0.966917	-0.456760	-0.481741
C35	C	0.865925	-0.396554	-0.431425
C36	C	1.037432	-0.418756	-0.516865
C37	C	1.006959	-0.320542	-0.501681
C38	C	0.905972	-0.260330	-0.451372
C39	C	0.835452	-0.298339	-0.416241
C40	C	1.138423	-0.478964	-0.567191
C41	C	1.208938	-0.440961	-0.602315
C42	C	1.178466	-0.342744	-0.587121
C43	C	1.077479	-0.282533	-0.536812
C44	C	1.248986	-0.304735	-0.622252
C45	C	1.218513	-0.206521	-0.607068
C46	C	1.047006	-0.184318	-0.521628
C47	C	1.189175	0.123707	-0.592474
C48	C	1.288591	0.125705	-0.641996
C49	C	0.959292	0.302487	-0.477952
C50	C	0.926869	0.407015	-0.461804
N51	N	1.022184	0.130362	-0.865397
C52	C	1.058132	0.187575	-0.955249
C53	C	1.058151	0.187557	-1.099141
C54	C	0.986268	0.073111	-1.063314
C55	C	0.986255	0.073125	-0.919427
C56	C	1.094060	0.244812	-0.901218
C57	C	1.130010	0.302031	-0.991071
C58	C	1.130030	0.302013	-1.134964
C59	C	1.094099	0.244776	-1.189003
N60	N	1.022216	0.130331	-0.153176
H61	H	0.577692	0.131437	-0.061681
C62	C	0.684313	-0.368325	-0.340949
N63	N	0.600638	-0.318439	-0.299265
C64	C	0.283972	0.125607	-0.378020
N65	N	0.245291	0.124839	-0.255492
H66	H	1.094045	0.244836	-0.784054
H67	H	0.352741	0.126977	-0.300173
C68	C	0.424191	0.128389	-0.074134
N69	N	0.385510	0.127621	0.048394
C70	C	0.760531	0.135093	-0.117242
N71	N	0.799251	0.135868	-0.033309
C72	C	1.169541	0.364979	-0.931629
N73	N	1.199319	0.412392	-0.886860
C74	C	0.946707	0.010190	-0.820583
N75	N	0.916920	-0.037215	-0.746133
H76	H	0.747064	0.134840	-0.598275
H77	H	0.297209	0.125906	-0.872343
C78	C	1.320026	-0.507197	-0.657660
N79	N	1.403700	-0.557086	-0.699341
H80	H	0.964769	-0.135295	-0.480645
C81	C	0.872451	-0.152290	-0.434666
N82	N	0.847204	-0.070915	-0.422080
H83	H	1.331213	-0.353769	-0.663233
H84	H	0.753214	-0.249316	-0.375258
H85	H	0.768469	-0.563717	-0.382907
C86	C	1.171941	-0.587003	-0.583889
N87	N	1.197185	-0.668378	-0.596462
C88	C	0.718350	0.134258	-0.731695
N89	N	0.795750	0.135802	-0.770292
C90	C	1.169561	0.364964	-1.233791
N91	N	1.199326	0.412390	-1.308220
H92	H	0.606845	0.132059	-0.902171
C93	C	1.094128	0.244756	-1.347294
N94	N	1.094146	0.244745	-1.466515
H95	H	1.079619	-0.604015	-0.537906
C96	C	1.296083	-0.164715	-0.645700
N97	N	1.354511	-0.133227	-0.674800
H98	H	0.466692	0.129272	-0.956880
C99	C	0.946736	0.010165	-1.122759
N100	N	0.916955	-0.037244	-1.167530
