data_functionalizedCrystal
_audit_creation_method	'MofGen! by Chris Wilmer'
_symmetry_space_group_name_H-M	'P1'
_symmetry_Int_Tables_number	1
_symmetry_cell_setting	triclinic
loop_
_symmetry_equiv_pos_as_xyz
  x,y,z
_cell_length_a	25.639239
_cell_length_b	12.827893
_cell_length_c	12.827885
_cell_angle_alpha	89.980728
_cell_angle_beta	90.035982
_cell_angle_gamma	89.961343
loop_
_atom_site_label
_atom_site_type_symbol
_atom_site_fract_x
_atom_site_fract_y
_atom_site_fract_z
Zn1	Zn	-0.208126	-1.597500	0.590804
Zn2	Zn	-0.295571	-1.597324	0.416045
Zn3	Zn	-0.208151	-1.422742	0.416077
Zn4	Zn	-0.295532	-1.422656	0.590745
O5	O	-0.251845	-1.510055	0.503418
O6	O	-0.219731	-1.743713	0.567633
O7	O	-0.284002	-1.574127	0.269813
O8	O	-0.134983	-1.446034	0.439293
O9	O	-0.283977	-1.743583	0.439238
O10	O	-0.134964	-1.574428	0.567664
O11	O	-0.219775	-1.445862	0.269837
O12	O	-0.219737	-1.276494	0.439236
O13	O	-0.283911	-1.445888	0.736989
O14	O	-0.283935	-1.276431	0.567564
O15	O	-0.219694	-1.574345	0.737032
O16	O	-0.368731	-1.574044	0.439181
O17	O	-0.368702	-1.445716	0.567533
C18	C	-0.251835	-1.238546	0.503398
C19	C	-0.251843	-1.122392	0.503414
C20	C	-0.387688	-1.509880	0.503370
C21	C	-0.445802	-1.509900	0.503384
C22	C	-0.251795	-1.510127	0.775988
C23	C	-0.251773	-1.510157	0.892141
C24	C	-0.806167	-1.577050	0.436699
C25	C	-0.860771	-1.577090	0.436713
O26	O	-0.889010	-1.634001	0.379962
N27	N	-0.888084	-1.510239	0.503487
C28	C	-0.860790	-1.443350	0.570259
O29	O	-0.889035	-1.386493	0.627057
C30	C	-0.806186	-1.443316	0.570249
C31	C	-0.778876	-1.510164	0.503463
C32	C	-0.778857	-1.643893	0.369920
C33	C	-0.724256	-1.643851	0.369904
C34	C	-0.696966	-1.576966	0.436669
C35	C	-0.724276	-1.510122	0.503448
C36	C	-0.778893	-1.376433	0.637026
C37	C	-0.724286	-1.376405	0.637011
C38	C	-0.696976	-1.443253	0.570225
C39	C	-0.642385	-1.443194	0.570198
N40	N	-0.615072	-1.510045	0.503424
C41	C	-0.642363	-1.576931	0.436659
C42	C	-0.975460	-1.443429	0.570275
C43	C	-1.030063	-1.443458	0.570280
C44	C	-1.030040	-1.577199	0.436735
C45	C	-0.975437	-1.577165	0.436726
C46	C	-0.948148	-1.510281	0.503501
C47	C	-0.527698	-1.576837	0.436632
C48	C	-0.473092	-1.576786	0.436620
C49	C	-0.473119	-1.443049	0.570168
C50	C	-0.527720	-1.443095	0.570177
C51	C	-0.555008	-1.509998	0.503405
O52	O	-0.614112	-1.386315	0.626923
O53	O	-0.614110	-1.633789	0.379880
C54	C	-0.115472	-1.510260	0.503489
C55	C	-0.057358	-1.510348	0.503519
C56	C	-0.251856	-1.782626	0.503438
C57	C	-0.251860	-1.898779	0.503447
C58	C	-0.283660	-1.070604	0.566817
C59	C	-0.283670	-0.950554	0.566835
C60	C	-0.251857	-1.510045	0.231908
C61	C	-0.251731	-1.510217	0.115755
C62	C	-0.219991	-1.573729	0.943947
C63	C	-0.219968	-1.573761	1.063998
H64	H	-0.549909	-1.631318	0.382263
H65	H	-0.224621	-0.943309	0.449159
O66	O	-0.319722	-1.129599	0.638725
H67	H	-0.346272	-1.179285	0.591822
O68	O	-0.287768	-1.438105	1.056745
H69	H	-0.278796	-1.356094	1.077642
H70	H	-0.450858	-1.631221	0.382231
H71	H	-0.953244	-1.388955	0.624648
H72	H	-0.801120	-1.321993	0.691405
H73	H	-0.310911	-0.906017	0.621113
H74	H	-0.224608	-1.077854	0.449151
O75	O	-0.183970	-1.645804	0.884986
H76	H	-0.189645	-1.634476	0.799946
H77	H	-0.702069	-1.321941	0.691391
O78	O	-0.183912	-1.645843	1.122998
H79	H	-0.189545	-1.634543	1.208031
O80	O	-0.287793	-1.438083	0.951108
H81	H	-0.328843	-1.455910	0.930198
O82	O	-0.694806	-1.715971	0.297886
H83	H	-0.705331	-1.698114	0.215855
O84	O	-0.808288	-1.716033	0.297897
H85	H	-0.780116	-1.762494	0.251461
O86	O	-0.945982	-1.649275	0.364705
H87	H	-0.974138	-1.695791	0.318290
H88	H	-1.052270	-1.631665	0.382375
H89	H	-1.052294	-1.389013	0.624654
O90	O	-0.557185	-1.370991	0.642194
H91	H	-0.546666	-1.388863	0.724224
O92	O	-0.443680	-1.370913	0.642182
H93	H	-0.401124	-1.382132	0.630955
