data_functionalizedCrystal
_audit_creation_method	'MofGen! by Chris Wilmer'
_symmetry_space_group_name_H-M	'P1'
_symmetry_Int_Tables_number	1
_symmetry_cell_setting	triclinic
loop_
_symmetry_equiv_pos_as_xyz
  x,y,z
_cell_length_a	13.897448
_cell_length_b	12.827893
_cell_length_c	12.827885
_cell_angle_alpha	89.980728
_cell_angle_beta	90.032276
_cell_angle_gamma	89.982337
loop_
_atom_site_label
_atom_site_type_symbol
_atom_site_fract_x
_atom_site_fract_y
_atom_site_fract_z
Zn1	Zn	-0.383969	-1.597653	0.590831
Zn2	Zn	0.116031	-1.097653	1.090831
Zn3	Zn	-0.545295	-1.597540	0.416083
Zn4	Zn	-0.045295	-1.097540	0.916083
Zn5	Zn	-0.384016	-1.422894	0.416104
Zn6	Zn	0.115984	-0.922894	0.916104
Zn7	Zn	-0.545224	-1.422873	0.590783
Zn8	Zn	-0.045224	-0.922873	1.090783
O9	O	-0.464626	-1.510240	0.503450
O10	O	0.035374	-1.010240	1.003450
O11	O	-0.405380	-1.743874	0.567661
O12	O	0.094620	-1.243874	1.067661
O13	O	-0.523951	-1.574335	0.269850
O14	O	-0.023951	-1.074335	0.769850
O15	O	-0.249028	-1.446133	0.439311
O16	O	0.250972	-0.946133	0.939311
O17	O	-0.523905	-1.743791	0.439275
O18	O	-0.023905	-1.243791	0.939275
O19	O	-0.248994	-1.574527	0.567681
O20	O	0.251006	-1.074527	1.067681
O21	O	-0.405460	-1.446023	0.269865
O22	O	0.094540	-0.946023	0.769865
O23	O	-0.405390	-1.276655	0.439265
O24	O	0.094610	-0.776655	0.939265
O25	O	-0.523783	-1.446096	0.737026
O26	O	-0.023783	-0.946096	1.237026
O27	O	-0.523829	-1.276639	0.567601
O28	O	-0.023829	-0.776639	1.067601
O29	O	-0.405310	-1.574506	0.737060
O30	O	0.094690	-1.074506	1.237060
O31	O	-0.680267	-1.574314	0.439229
O32	O	-0.180267	-1.074314	0.939229
O33	O	-0.680215	-1.445986	0.567580
O34	O	-0.180215	-0.945986	1.067580
C35	C	-0.464607	-1.238730	0.503430
C36	C	0.035393	-0.738730	1.003430
C37	C	-0.464623	-1.122577	0.503447
C38	C	0.035377	-0.622577	1.003447
C39	C	-0.715240	-1.510164	0.503420
C40	C	-0.215240	-1.010164	1.003420
C41	C	-0.822454	-1.510227	0.503442
C42	C	-0.322454	-1.010227	1.003442
C43	C	-0.464533	-1.510311	0.776021
C44	C	0.035467	-1.010311	1.276021
C45	C	-0.464494	-1.510341	0.892174
C46	C	0.035506	-1.010341	1.392174
C47	C	-1.018749	-1.510336	0.503508
C48	C	-0.518749	-1.010336	1.003508
C49	C	-0.909517	-1.510272	0.503474
C50	C	-0.409517	-1.010272	1.003474
C51	C	-0.213033	-1.510345	0.503504
C52	C	0.286967	-1.010345	1.003504
C53	C	-0.105819	-1.510390	0.503526
C54	C	0.394181	-1.010390	1.003526
C55	C	-0.464645	-1.782810	0.503471
C56	C	0.035355	-1.282810	1.003471
C57	C	-0.464654	-1.898963	0.503480
C58	C	0.035346	-1.398963	1.003480
C59	C	-0.523321	-1.070812	0.566853
C60	C	-0.023321	-0.570812	1.066853
C61	C	-0.523338	-0.950762	0.566872
C62	C	-0.023338	-0.450762	1.066872
C63	C	-0.464649	-1.510229	0.231940
C64	C	0.035351	-1.010229	0.731940
C65	C	-0.464416	-1.510401	0.115788
C66	C	0.035584	-1.010401	0.615788
C67	C	-0.405858	-1.573890	0.943976
C68	C	0.094142	-1.073890	1.443976
C69	C	-0.405816	-1.573923	1.064026
C70	C	0.094184	-1.073923	1.564026
H71	H	-0.573559	-1.115371	0.621128
H72	H	-0.073559	-0.615371	1.121128
H73	H	-0.514623	-1.455996	1.071246
H74	H	-0.014623	-0.955996	1.571246
N75	N	-0.339305	-1.645989	1.123017
N76	N	0.160695	-1.145989	1.623017
H77	H	-0.354277	-1.720661	1.104078
H78	H	0.145723	-1.220661	1.604078
H79	H	-0.348725	-1.635710	1.200396
H80	H	0.151275	-1.135710	1.700396
N81	N	-0.589917	-0.891806	0.638776
N82	N	-0.089917	-0.391806	1.138776
H83	H	-0.580494	-0.814404	0.628595
H84	H	-0.080494	-0.314404	1.128595
H85	H	-0.575000	-0.910866	0.713453
H86	H	-0.075000	-0.410866	1.213453
H87	H	-0.414400	-0.943473	0.449188
H88	H	0.085600	-0.443473	0.949188
N89	N	-0.398075	-1.063567	0.431545
N90	N	0.101925	-0.563567	0.931545
H91	H	-0.353464	-1.018304	0.474139
H92	H	0.146536	-0.518304	0.974139
H93	H	-0.437345	-1.018315	0.383111
H94	H	0.062655	-0.518315	0.883111
N95	N	-0.530947	-1.438307	0.951156
N96	N	-0.030947	-0.938307	1.451156
H97	H	-0.599892	-1.454483	0.932209
H98	H	-0.099892	-0.954483	1.432209
H99	H	-0.515902	-1.363653	0.932194
H100	H	-0.015902	-0.863653	1.432194
N101	N	-0.339421	-1.645953	0.885008
N102	N	0.160579	-1.145953	1.385008
H103	H	-0.348880	-1.635727	0.807607
H104	H	0.151120	-1.135727	1.307607
H105	H	-0.354445	-1.720593	0.904049
H106	H	0.145555	-1.220593	1.404049
